484758.cdx
  Mrv1902 05222410182D          

 71 81  0  0  0  0            999 V2000
    3.8211   -8.3334    0.0000 C   0  0  0  0  0  0  0  0  0  0  0  0
    3.2819   -7.7090    0.0000 C   0  0  0  0  0  0  0  0  0  0  0  0
    3.5530   -6.9298    0.0000 C   0  0  0  0  0  0  0  0  0  0  0  0
    4.3633   -6.7750    0.0000 C   0  0  0  0  0  0  0  0  0  0  0  0
    4.9025   -7.3994    0.0000 C   0  0  0  0  0  0  0  0  0  0  0  0
    4.6314   -8.1786    0.0000 C   0  0  0  0  0  0  0  0  0  0  0  0
    3.5500   -9.1126    0.0000 O   0  0  0  0  0  0  0  0  0  0  0  0
    3.0137   -6.3055    0.0000 O   0  0  0  0  0  0  0  0  0  0  0  0
    6.3649   -5.9642    0.0000 O   0  0  0  0  0  0  0  0  0  0  0  0
    5.6044   -6.2841    0.0000 C   0  0  1  0  0  0  0  0  0  0  0  0
    5.6737   -7.1062    0.0000 C   0  0  2  0  0  0  0  0  0  0  0  0
    6.4769   -7.2944    0.0000 C   0  0  2  0  0  0  0  0  0  0  0  0
    6.9041   -6.5886    0.0000 C   0  0  1  0  0  0  0  0  0  0  0  0
    7.7017   -6.3776    0.0000 C   0  0  0  0  0  0  0  0  0  0  0  0
    7.9178   -5.5814    0.0000 C   0  0  0  0  0  0  0  0  0  0  0  0
    8.7154   -5.3705    0.0000 C   0  0  0  0  0  0  0  0  0  0  0  0
    9.2968   -5.9557    0.0000 C   0  0  0  0  0  0  0  0  0  0  0  0
    9.0808   -6.7519    0.0000 C   0  0  0  0  0  0  0  0  0  0  0  0
    8.2832   -6.9629    0.0000 C   0  0  0  0  0  0  0  0  0  0  0  0
   10.0944   -5.7447    0.0000 O   0  0  0  0  0  0  0  0  0  0  0  0
    4.8986   -5.8569    0.0000 C   0  0  0  0  0  0  0  0  0  0  0  0
    4.1758   -6.2546    0.0000 C   0  0  0  0  0  0  0  0  0  0  0  0
    3.4700   -5.8274    0.0000 C   0  0  0  0  0  0  0  0  0  0  0  0
    3.4871   -5.0026    0.0000 C   0  0  0  0  0  0  0  0  0  0  0  0
    4.2099   -4.6049    0.0000 C   0  0  0  0  0  0  0  0  0  0  0  0
    4.9157   -5.0321    0.0000 C   0  0  0  0  0  0  0  0  0  0  0  0
    2.7813   -4.5754    0.0000 O   0  0  0  0  0  0  0  0  0  0  0  0
    6.8098  -10.2134    0.0000 O   0  0  0  0  0  0  0  0  0  0  0  0
    7.5995   -9.9747    0.0000 C   0  0  1  0  0  0  0  0  0  0  0  0
    7.6166   -9.1499    0.0000 C   0  0  2  0  0  0  0  0  0  0  0  0
    6.8374   -8.8788    0.0000 C   0  0  0  0  0  0  0  0  0  0  0  0
    6.5175   -8.1184    0.0000 C   0  0  0  0  0  0  0  0  0  0  0  0
    5.6990   -8.0152    0.0000 C   0  0  0  0  0  0  0  0  0  0  0  0
    5.2003   -8.6725    0.0000 C   0  0  0  0  0  0  0  0  0  0  0  0
    5.5202   -9.4329    0.0000 C   0  0  0  0  0  0  0  0  0  0  0  0
    6.3388   -9.5361    0.0000 C   0  0  0  0  0  0  0  0  0  0  0  0
    8.2568  -10.4734    0.0000 C   0  0  0  0  0  0  0  0  0  0  0  0
    9.0172  -10.1535    0.0000 C   0  0  0  0  0  0  0  0  0  0  0  0
    9.6745  -10.6521    0.0000 C   0  0  0  0  0  0  0  0  0  0  0  0
    9.5713  -11.4706    0.0000 C   0  0  0  0  0  0  0  0  0  0  0  0
    8.8109  -11.7905    0.0000 C   0  0  0  0  0  0  0  0  0  0  0  0
    8.1536  -11.2919    0.0000 C   0  0  0  0  0  0  0  0  0  0  0  0
   10.2286  -11.9692    0.0000 O   0  0  0  0  0  0  0  0  0  0  0  0
    4.3763   -8.7130    0.0000 O   0  0  0  0  0  0  0  0  0  0  0  0
   10.7536   -9.3510    0.0000 O   0  0  0  0  0  0  0  0  0  0  0  0
   10.3513  -10.0713    0.0000 C   0  0  2  0  0  0  0  0  0  0  0  0
    9.5419   -9.9112    0.0000 C   0  0  1  0  0  0  0  0  0  0  0  0
    9.4440   -9.0921    0.0000 C   0  0  0  0  0  0  0  0  0  0  0  0
    8.7698   -8.6167    0.0000 C   0  0  0  0  0  0  0  0  0  0  0  0
    8.8443   -7.7951    0.0000 C   0  0  0  0  0  0  0  0  0  0  0  0
    9.5931   -7.4488    0.0000 C   0  0  0  0  0  0  0  0  0  0  0  0
   10.2674   -7.9242    0.0000 C   0  0  0  0  0  0  0  0  0  0  0  0
   10.1929   -8.7458    0.0000 C   0  0  0  0  0  0  0  0  0  0  0  0
   10.8223  -10.7486    0.0000 C   0  0  0  0  0  0  0  0  0  0  0  0
   11.6444  -10.6793    0.0000 C   0  0  0  0  0  0  0  0  0  0  0  0
   12.1154  -11.3566    0.0000 C   0  0  0  0  0  0  0  0  0  0  0  0
   11.7643  -12.1032    0.0000 C   0  0  0  0  0  0  0  0  0  0  0  0
   10.9423  -12.1725    0.0000 C   0  0  0  0  0  0  0  0  0  0  0  0
   10.4712  -11.4952    0.0000 C   0  0  0  0  0  0  0  0  0  0  0  0
   12.2354  -12.7805    0.0000 O   0  0  0  0  0  0  0  0  0  0  0  0
    9.6677   -6.6272    0.0000 O   0  0  0  0  0  0  0  0  0  0  0  0
    8.1638  -11.7279    0.0000 C   0  0  0  0  0  0  0  0  0  0  0  0
    8.4837  -12.4884    0.0000 C   0  0  0  0  0  0  0  0  0  0  0  0
    7.9851  -13.1457    0.0000 C   0  0  0  0  0  0  0  0  0  0  0  0
    7.1665  -13.0425    0.0000 C   0  0  0  0  0  0  0  0  0  0  0  0
    6.8466  -12.2820    0.0000 C   0  0  0  0  0  0  0  0  0  0  0  0
    7.3453  -11.6248    0.0000 C   0  0  0  0  0  0  0  0  0  0  0  0
    6.0281  -12.1789    0.0000 O   0  0  0  0  0  0  0  0  0  0  0  0
    8.3050  -13.9061    0.0000 O   0  0  0  0  0  0  0  0  0  0  0  0
    7.2768   -7.4965    0.0000 H   0  0  0  0  0  0  0  0  0  0  0  0
    8.4135   -9.3635    0.0000 H   0  0  0  0  0  0  0  0  0  0  0  0
  1  2  1  0  0  0  0
  2  3  2  0  0  0  0
  3  4  1  0  0  0  0
  4  5  2  0  0  0  0
  5  6  1  0  0  0  0
  1  6  2  0  0  0  0
  1  7  1  0  0  0  0
  3  8  1  0  0  0  0
  9 10  1  0  0  0  0
 10 11  1  0  0  0  0
 11 12  1  0  0  0  0
 12 13  1  0  0  0  0
  9 13  1  0  0  0  0
 14 15  1  0  0  0  0
 15 16  2  0  0  0  0
 16 17  1  0  0  0  0
 17 18  2  0  0  0  0
 18 19  1  0  0  0  0
 14 19  2  0  0  0  0
 17 20  1  0  0  0  0
 13 14  1  6  0  0  0
 21 22  1  0  0  0  0
 22 23  2  0  0  0  0
 23 24  1  0  0  0  0
 24 25  2  0  0  0  0
 25 26  1  0  0  0  0
 21 26  2  0  0  0  0
 24 27  1  0  0  0  0
 10 21  1  1  0  0  0
 28 29  1  0  0  0  0
 29 30  1  0  0  0  0
 30 31  1  0  0  0  0
 31 32  1  0  0  0  0
 32 33  2  0  0  0  0
 33 34  1  0  0  0  0
 34 35  2  0  0  0  0
 35 36  1  0  0  0  0
 31 36  2  0  0  0  0
 28 36  1  0  0  0  0
 37 38  1  0  0  0  0
 38 39  2  0  0  0  0
 39 40  1  0  0  0  0
 40 41  2  0  0  0  0
 41 42  1  0  0  0  0
 37 42  2  0  0  0  0
 40 43  1  0  0  0  0
 29 37  1  1  0  0  0
 34 44  1  0  0  0  0
 45 46  1  0  0  0  0
 46 47  1  0  0  0  0
 47 48  1  0  0  0  0
 48 49  1  0  0  0  0
 49 50  2  0  0  0  0
 50 51  1  0  0  0  0
 51 52  2  0  0  0  0
 52 53  1  0  0  0  0
 48 53  2  0  0  0  0
 45 53  1  0  0  0  0
 54 55  1  0  0  0  0
 55 56  2  0  0  0  0
 56 57  1  0  0  0  0
 57 58  2  0  0  0  0
 58 59  1  0  0  0  0
 54 59  2  0  0  0  0
 57 60  1  0  0  0  0
 46 54  1  1  0  0  0
 51 61  1  0  0  0  0
 62 63  1  0  0  0  0
 63 64  2  0  0  0  0
 64 65  1  0  0  0  0
 65 66  2  0  0  0  0
 66 67  1  0  0  0  0
 62 67  2  0  0  0  0
 66 68  1  0  0  0  0
 64 69  1  0  0  0  0
 47 62  1  6  0  0  0
 30 49  1  0  0  0  0
 12 32  1  0  0  0  0
 11  5  1  6  0  0  0
 12 70  1  1  0  0  0
 30 71  1  1  0  0  0
M  END
>  <cdx:fragmentId>
93

$$$$
