484753.cdx
  Mrv1902 05222410262D          

 35 39  0  0  0  0            999 V2000
    7.0221   -9.6399    0.0000 C   0  0  0  0  0  0  0  0  0  0  0  0
    7.8370   -9.7690    0.0000 O   0  0  0  0  0  0  0  0  0  0  0  0
    6.5030  -10.2810    0.0000 C   0  0  0  0  0  0  0  0  0  0  0  0
    6.7986  -11.0513    0.0000 C   0  0  0  0  0  0  0  0  0  0  0  0
    6.2794  -11.6924    0.0000 C   0  0  0  0  0  0  0  0  0  0  0  0
    5.4646  -11.5633    0.0000 C   0  0  0  0  0  0  0  0  0  0  0  0
    5.1689  -10.7931    0.0000 C   0  0  0  0  0  0  0  0  0  0  0  0
    5.6881  -10.1520    0.0000 C   0  0  0  0  0  0  0  0  0  0  0  0
    4.9454  -12.2045    0.0000 O   0  0  0  0  0  0  0  0  0  0  0  0
    6.7672   -8.8553    0.0000 C   0  0  2  0  0  0  0  0  0  0  0  0
    7.2521   -8.1878    0.0000 C   0  0  1  0  0  0  0  0  0  0  0  0
    6.7672   -7.5204    0.0000 C   0  0  1  0  0  0  0  0  0  0  0  0
    5.9826   -7.7753    0.0000 C   0  0  0  0  0  0  0  0  0  0  0  0
    5.2681   -7.3628    0.0000 C   0  0  0  0  0  0  0  0  0  0  0  0
    4.5536   -7.7753    0.0000 C   0  0  0  0  0  0  0  0  0  0  0  0
    4.5536   -8.6003    0.0000 C   0  0  0  0  0  0  0  0  0  0  0  0
    5.2681   -9.0128    0.0000 C   0  0  0  0  0  0  0  0  0  0  0  0
    5.9826   -8.6003    0.0000 C   0  0  0  0  0  0  0  0  0  0  0  0
    8.0771   -8.1878    0.0000 C   0  0  0  0  0  0  0  0  0  0  0  0
    8.4896   -7.4734    0.0000 C   0  0  0  0  0  0  0  0  0  0  0  0
    9.3146   -7.4734    0.0000 C   0  0  0  0  0  0  0  0  0  0  0  0
    9.7271   -8.1878    0.0000 C   0  0  0  0  0  0  0  0  0  0  0  0
    9.3146   -8.9023    0.0000 C   0  0  0  0  0  0  0  0  0  0  0  0
    8.4896   -8.9023    0.0000 C   0  0  0  0  0  0  0  0  0  0  0  0
   10.5521   -8.1878    0.0000 O   0  0  0  0  0  0  0  0  0  0  0  0
    3.8392   -9.0128    0.0000 O   0  0  0  0  0  0  0  0  0  0  0  0
    5.2681   -6.5378    0.0000 O   0  0  0  0  0  0  0  0  0  0  0  0
    7.0221   -6.7358    0.0000 C   0  0  0  0  0  0  0  0  0  0  0  0
    6.4701   -6.1227    0.0000 C   0  0  0  0  0  0  0  0  0  0  0  0
    6.7251   -5.3381    0.0000 C   0  0  0  0  0  0  0  0  0  0  0  0
    7.5320   -5.1665    0.0000 C   0  0  0  0  0  0  0  0  0  0  0  0
    8.0841   -5.7796    0.0000 C   0  0  0  0  0  0  0  0  0  0  0  0
    7.8291   -6.5643    0.0000 C   0  0  0  0  0  0  0  0  0  0  0  0
    8.8910   -5.6081    0.0000 O   0  0  0  0  0  0  0  0  0  0  0  0
    6.1730   -4.7250    0.0000 O   0  0  0  0  0  0  0  0  0  0  0  0
  1  2  2  0  0  0  0
  3  4  1  0  0  0  0
  4  5  2  0  0  0  0
  5  6  1  0  0  0  0
  6  7  2  0  0  0  0
  7  8  1  0  0  0  0
  3  8  2  0  0  0  0
  6  9  1  0  0  0  0
  1  3  1  0  0  0  0
 10 11  1  0  0  0  0
 11 12  1  0  0  0  0
 12 13  1  0  0  0  0
 13 14  1  0  0  0  0
 14 15  2  0  0  0  0
 15 16  1  0  0  0  0
 16 17  2  0  0  0  0
 17 18  1  0  0  0  0
 10 18  1  0  0  0  0
 13 18  2  0  0  0  0
 19 20  1  0  0  0  0
 20 21  2  0  0  0  0
 21 22  1  0  0  0  0
 22 23  2  0  0  0  0
 23 24  1  0  0  0  0
 19 24  2  0  0  0  0
 22 25  1  0  0  0  0
 11 19  1  1  0  0  0
 16 26  1  0  0  0  0
 14 27  1  0  0  0  0
 28 29  1  0  0  0  0
 29 30  2  0  0  0  0
 30 31  1  0  0  0  0
 31 32  2  0  0  0  0
 32 33  1  0  0  0  0
 28 33  2  0  0  0  0
 32 34  1  0  0  0  0
 30 35  1  0  0  0  0
 12 28  1  1  0  0  0
 10  1  1  1  0  0  0
M  END
>  <cdx:fragmentId>
23

$$$$
