484731.cdx
  Mrv1902 05222410242D          

 35 40  0  0  0  0            999 V2000
    7.7441   -6.7716    0.0000 O   0  0  0  0  0  0  0  0  0  0  0  0
    7.7441  -10.8966    0.0000 O   0  0  0  0  0  0  0  0  0  0  0  0
    9.8875   -7.1841    0.0000 C   0  0  0  0  0  0  0  0  0  0  0  0
    9.1730   -6.7716    0.0000 C   0  0  0  0  0  0  0  0  0  0  0  0
    8.4586   -7.1841    0.0000 C   0  0  0  0  0  0  0  0  0  0  0  0
    8.4586   -8.0091    0.0000 C   0  0  0  0  0  0  0  0  0  0  0  0
    7.8375   -8.8275    0.0000 O   0  0  0  0  0  0  0  0  0  0  0  0
    9.1730   -8.4216    0.0000 C   0  0  0  0  0  0  0  0  0  0  0  0
    9.1730   -9.2466    0.0000 C   0  0  1  0  0  0  0  0  0  0  0  0
    8.4586   -9.6591    0.0000 C   0  0  2  0  0  0  0  0  0  0  0  0
    8.4586  -10.4841    0.0000 C   0  0  2  0  0  0  0  0  0  0  0  0
    9.1730  -10.8966    0.0000 C   0  0  0  0  0  0  0  0  0  0  0  0
    9.8875  -10.4841    0.0000 C   0  0  0  0  0  0  0  0  0  0  0  0
    9.8875   -9.6591    0.0000 C   0  0  1  0  0  0  0  0  0  0  0  0
    9.8875   -8.8341    0.0000 H   0  0  0  0  0  0  0  0  0  0  0  0
   10.6020   -9.2466    0.0000 C   0  0  2  0  0  0  0  0  0  0  0  0
   10.5875  -10.1475    0.0000 N   0  0  0  0  0  0  0  0  0  0  0  0
   11.3020  -10.5600    0.0000 C   0  0  0  0  0  0  0  0  0  0  0  0
    9.8866  -10.6574    0.0000 C   0  0  0  0  0  0  0  0  0  0  0  0
    9.1850  -10.1475    0.0000 C   0  0  0  0  0  0  0  0  0  0  0  0
   10.6020   -8.4216    0.0000 C   0  0  0  0  0  0  0  0  0  0  0  0
    9.8875   -8.0091    0.0000 C   0  0  0  0  0  0  0  0  0  0  0  0
    7.6617   -9.8726    0.0000 H   0  0  0  0  0  0  0  0  0  0  0  0
    7.0296   -7.1841    0.0000 C   0  0  2  0  0  0  0  0  0  0  0  0
    6.3152   -6.7716    0.0000 O   0  0  0  0  0  0  0  0  0  0  0  0
    5.6007   -7.1841    0.0000 C   0  0  1  0  0  0  0  0  0  0  0  0
    5.6007   -8.0091    0.0000 C   0  0  2  0  0  0  0  0  0  0  0  0
    6.3152   -8.4216    0.0000 C   0  0  1  0  0  0  0  0  0  0  0  0
    7.0296   -8.0091    0.0000 C   0  0  1  0  0  0  0  0  0  0  0  0
    4.8862   -6.7716    0.0000 C   0  0  0  0  0  0  0  0  0  0  0  0
    6.3152   -9.2466    0.0000 O   0  0  0  0  0  0  0  0  0  0  0  0
    7.7441   -8.4216    0.0000 O   0  0  0  0  0  0  0  0  0  0  0  0
    4.8862   -8.4216    0.0000 O   0  0  0  0  0  0  0  0  0  0  0  0
    4.1717   -7.1841    0.0000 O   0  0  0  0  0  0  0  0  0  0  0  0
    4.8862   -5.9466    0.0000 O   0  0  0  0  0  0  0  0  0  0  0  0
  3  4  2  0  0  0  0
  4  5  1  0  0  0  0
  1  5  1  0  0  0  0
  5  6  2  0  0  0  0
  6  7  1  0  0  0  0
  6  8  1  0  0  0  0
  8  9  1  0  0  0  0
  9 10  1  0  0  0  0
 10  7  1  0  0  0  0
 10 11  1  0  0  0  0
 11  2  1  6  0  0  0
 11 12  1  0  0  0  0
 12 13  2  0  0  0  0
 13 14  1  0  0  0  0
  9 14  1  0  0  0  0
 14 15  1  1  0  0  0
 14 16  1  0  0  0  0
 16 17  1  1  0  0  0
 17 18  1  0  0  0  0
 17 19  1  0  0  0  0
 19 20  1  0  0  0  0
  9 20  1  1  0  0  0
 16 21  1  0  0  0  0
 21 22  1  0  0  0  0
  8 22  2  0  0  0  0
  3 22  1  0  0  0  0
 10 23  1  1  0  0  0
 24  1  1  1  0  0  0
 24 25  1  0  0  0  0
 25 26  1  0  0  0  0
 26 27  1  0  0  0  0
 27 28  1  0  0  0  0
 28 29  1  0  0  0  0
 29 24  1  0  0  0  0
 26 30  1  1  0  0  0
 28 31  1  1  0  0  0
 29 32  1  6  0  0  0
 27 33  1  6  0  0  0
 30 34  1  0  0  0  0
 30 35  2  0  0  0  0
M  END
>  <cdx:fragmentId>
1183

$$$$
