484757.cdx
  Mrv1902 05222410272D          

 36 41  0  0  0  0            999 V2000
    5.9717   -7.8673    0.0000 H   0  0  0  0  0  0  0  0  0  0  0  0
    7.9394   -9.3686    0.0000 H   0  0  0  0  0  0  0  0  0  0  0  0
   11.0758   -9.4921    0.0000 O   0  0  0  0  0  0  0  0  0  0  0  0
    9.3664   -8.1348    0.0000 C   0  0  0  0  0  0  0  0  0  0  0  0
   10.1448   -8.4081    0.0000 C   0  0  0  0  0  0  0  0  0  0  0  0
   10.2974   -9.2189    0.0000 C   0  0  0  0  0  0  0  0  0  0  0  0
    9.6715   -9.7564    0.0000 C   0  0  0  0  0  0  0  0  0  0  0  0
    8.8931   -9.4831    0.0000 C   0  0  0  0  0  0  0  0  0  0  0  0
    8.7405   -8.6723    0.0000 C   0  0  0  0  0  0  0  0  0  0  0  0
    2.8353   -7.7438    0.0000 O   0  0  0  0  0  0  0  0  0  0  0  0
    4.5447   -9.1011    0.0000 C   0  0  0  0  0  0  0  0  0  0  0  0
    3.7662   -8.8278    0.0000 C   0  0  0  0  0  0  0  0  0  0  0  0
    3.6137   -8.0171    0.0000 C   0  0  0  0  0  0  0  0  0  0  0  0
    4.2396   -7.4796    0.0000 C   0  0  0  0  0  0  0  0  0  0  0  0
    5.0180   -7.7528    0.0000 C   0  0  0  0  0  0  0  0  0  0  0  0
    5.1705   -8.5636    0.0000 C   0  0  0  0  0  0  0  0  0  0  0  0
    6.5387   -5.4368    0.0000 O   0  0  0  0  0  0  0  0  0  0  0  0
    8.9795   -6.9234    0.0000 O   0  0  0  0  0  0  0  0  0  0  0  0
    7.3723  -11.7991    0.0000 O   0  0  0  0  0  0  0  0  0  0  0  0
    4.9315  -10.3125    0.0000 O   0  0  0  0  0  0  0  0  0  0  0  0
    6.9009   -7.5893    0.0000 C   0  0  0  0  0  0  0  0  0  0  0  0
    6.5052   -6.8654    0.0000 C   0  0  0  0  0  0  0  0  0  0  0  0
    6.9344   -6.1608    0.0000 C   0  0  0  0  0  0  0  0  0  0  0  0
    7.7591   -6.1801    0.0000 C   0  0  0  0  0  0  0  0  0  0  0  0
    8.1548   -6.9041    0.0000 C   0  0  0  0  0  0  0  0  0  0  0  0
    7.7256   -7.6087    0.0000 C   0  0  0  0  0  0  0  0  0  0  0  0
    7.9621   -8.3990    0.0000 C   0  0  2  0  0  0  0  0  0  0  0  0
    7.0102   -9.6466    0.0000 C   0  0  0  0  0  0  0  0  0  0  0  0
    7.4058  -10.3706    0.0000 C   0  0  0  0  0  0  0  0  0  0  0  0
    6.9767  -11.0752    0.0000 C   0  0  0  0  0  0  0  0  0  0  0  0
    6.1519  -11.0558    0.0000 C   0  0  0  0  0  0  0  0  0  0  0  0
    5.7563  -10.3319    0.0000 C   0  0  0  0  0  0  0  0  0  0  0  0
    6.1854   -9.6273    0.0000 C   0  0  0  0  0  0  0  0  0  0  0  0
    5.9490   -8.8369    0.0000 C   0  0  2  0  0  0  0  0  0  0  0  0
    6.6276   -8.3677    0.0000 C   0  0  1  0  0  0  0  0  0  0  0  0
    7.2835   -8.8682    0.0000 C   0  0  2  0  0  0  0  0  0  0  0  0
 35  1  1  1  0  0  0
 36  2  1  1  0  0  0
 27  9  1  1  0  0  0
  6  3  1  0  0  0  0
  9  4  2  0  0  0  0
  5  4  1  0  0  0  0
  6  5  2  0  0  0  0
  7  6  1  0  0  0  0
  8  7  2  0  0  0  0
  9  8  1  0  0  0  0
 34 16  1  1  0  0  0
 13 10  1  0  0  0  0
 16 11  2  0  0  0  0
 12 11  1  0  0  0  0
 13 12  2  0  0  0  0
 14 13  1  0  0  0  0
 15 14  2  0  0  0  0
 16 15  1  0  0  0  0
 23 17  1  0  0  0  0
 25 18  1  0  0  0  0
 30 19  1  0  0  0  0
 32 20  1  0  0  0  0
 21 35  1  0  0  0  0
 27 36  1  0  0  0  0
 26 21  2  0  0  0  0
 22 21  1  0  0  0  0
 23 22  2  0  0  0  0
 24 23  1  0  0  0  0
 25 24  2  0  0  0  0
 26 25  1  0  0  0  0
 27 26  1  0  0  0  0
 33 28  2  0  0  0  0
 36 28  1  0  0  0  0
 29 28  1  0  0  0  0
 30 29  2  0  0  0  0
 31 30  1  0  0  0  0
 32 31  2  0  0  0  0
 33 32  1  0  0  0  0
 34 33  1  0  0  0  0
 35 34  1  0  0  0  0
 36 35  1  0  0  0  0
M  END
>  <cdx:fragmentId>
5

$$$$
