4849.cdx
  Mrv1902 05222410282D          

 76 84  0  0  0  0            999 V2000
    7.2551   -9.9357    0.0000 O   0  0  0  0  0  0  0  0  0  0  0  0
    5.9388   -9.2809    0.0000 O   0  0  0  0  0  0  0  0  0  0  0  0
    6.4301   -9.9436    0.0000 C   0  0  2  0  0  0  0  0  0  0  0  0
    5.9516  -10.6157    0.0000 C   0  0  1  0  0  0  0  0  0  0  0  0
    5.1646  -10.3683    0.0000 C   0  0  2  0  0  0  0  0  0  0  0  0
    5.1566   -9.5434    0.0000 C   0  0  2  0  0  0  0  0  0  0  0  0
    4.4846   -9.0649    0.0000 C   0  0  0  0  0  0  0  0  0  0  0  0
    3.7342   -9.4077    0.0000 O   0  0  0  0  0  0  0  0  0  0  0  0
    4.5018  -10.8596    0.0000 O   0  0  0  0  0  0  0  0  0  0  0  0
    6.2141  -11.3978    0.0000 O   0  0  0  0  0  0  0  0  0  0  0  0
   13.6676  -10.3785    0.0000 C   0  0  1  0  0  0  0  0  0  0  0  0
   14.3820   -9.9660    0.0000 C   0  0  2  0  0  0  0  0  0  0  0  0
   15.1667  -10.2209    0.0000 C   0  0  0  0  0  0  0  0  0  0  0  0
   15.6516   -9.5535    0.0000 C   0  0  2  0  0  0  0  0  0  0  0  0
   16.4362   -9.2986    0.0000 O   0  0  0  0  0  0  0  0  0  0  0  0
   16.4362   -8.4736    0.0000 C   0  0  0  0  0  0  0  0  0  0  0  0
   15.6516   -8.2186    0.0000 C   0  0  0  0  0  0  0  0  0  0  0  0
   15.1667   -8.8861    0.0000 C   0  0  2  0  0  0  0  0  0  0  0  0
   14.3820   -9.1410    0.0000 C   0  0  1  0  0  0  0  0  0  0  0  0
   13.6676   -8.7285    0.0000 C   0  0  0  0  0  0  0  0  0  0  0  0
   12.9531   -9.1410    0.0000 C   0  0  0  0  0  0  0  0  0  0  0  0
   12.9531   -9.9660    0.0000 C   0  0  2  0  0  0  0  0  0  0  0  0
   12.2386  -10.3785    0.0000 C   0  0  1  0  0  0  0  0  0  0  0  0
   11.5242   -9.9660    0.0000 C   0  0  0  0  0  0  0  0  0  0  0  0
   10.8097  -10.3785    0.0000 C   0  0  0  0  0  0  0  0  0  0  0  0
   10.8097  -11.2035    0.0000 C   0  0  1  0  0  0  0  0  0  0  0  0
   11.5242  -11.6160    0.0000 C   0  0  0  0  0  0  0  0  0  0  0  0
   12.2386  -11.2035    0.0000 C   0  0  0  0  0  0  0  0  0  0  0  0
   12.9531  -11.6160    0.0000 C   0  0  0  0  0  0  0  0  0  0  0  0
   13.6676  -11.2035    0.0000 C   0  0  0  0  0  0  0  0  0  0  0  0
   17.2567   -8.3873    0.0000 C   0  0  0  0  0  0  0  0  0  0  0  0
   17.7416   -9.0548    0.0000 C   0  0  0  0  0  0  0  0  0  0  0  0
   18.5621   -8.9685    0.0000 C   0  0  2  0  0  0  0  0  0  0  0  0
   19.0470   -9.6360    0.0000 C   0  0  0  0  0  0  0  0  0  0  0  0
   18.8977   -8.2149    0.0000 C   0  0  0  0  0  0  0  0  0  0  0  0
   12.2386   -9.5535    0.0000 C   0  0  0  0  0  0  0  0  0  0  0  0
   14.3820   -8.3160    0.0000 C   0  0  0  0  0  0  0  0  0  0  0  0
   15.3966   -7.4340    0.0000 C   0  0  0  0  0  0  0  0  0  0  0  0
   14.7542   -8.1716    0.0000 O   0  0  0  0  0  0  0  0  0  0  0  0
   13.6676   -9.5535    0.0000 H   0  0  0  0  0  0  0  0  0  0  0  0
   14.3820  -10.7910    0.0000 H   0  0  0  0  0  0  0  0  0  0  0  0
   16.1365  -10.2209    0.0000 H   0  0  0  0  0  0  0  0  0  0  0  0
   12.9531  -10.7910    0.0000 H   0  0  0  0  0  0  0  0  0  0  0  0
   10.0952  -11.6160    0.0000 O   0  0  0  0  0  0  0  0  0  0  0  0
    7.2375  -11.5856    0.0000 O   0  0  0  0  0  0  0  0  0  0  0  0
    7.9782   -8.7134    0.0000 O   0  0  0  0  0  0  0  0  0  0  0  0
    8.6927   -9.1259    0.0000 C   0  0  0  0  0  0  0  0  0  0  0  0
    8.6839   -9.9509    0.0000 C   0  0  2  0  0  0  0  0  0  0  0  0
    7.9651  -10.3558    0.0000 C   0  0  2  0  0  0  0  0  0  0  0  0
    7.9563  -11.1807    0.0000 C   0  0  1  0  0  0  0  0  0  0  0  0
   21.5175   -9.5459    0.0000 O   0  0  0  0  0  0  0  0  0  0  0  0
   22.3459  -10.9728    0.0000 O   0  0  0  0  0  0  0  0  0  0  0  0
   21.5242  -12.4037    0.0000 O   0  0  0  0  0  0  0  0  0  0  0  0
   20.2884  -13.1211    0.0000 O   0  0  0  0  0  0  0  0  0  0  0  0
   19.8742  -12.4076    0.0000 C   0  0  0  0  0  0  0  0  0  0  0  0
   20.2850  -11.6922    0.0000 C   0  0  2  0  0  0  0  0  0  0  0  0
   21.1100  -11.6902    0.0000 C   0  0  2  0  0  0  0  0  0  0  0  0
   21.5209  -10.9748    0.0000 C   0  0  1  0  0  0  0  0  0  0  0  0
   21.1067  -10.2613    0.0000 C   0  0  2  0  0  0  0  0  0  0  0  0
   20.2817  -10.2632    0.0000 C   0  0  1  0  0  0  0  0  0  0  0  0
   19.8709  -10.9787    0.0000 O   0  0  0  0  0  0  0  0  0  0  0  0
   19.8675   -9.5497    0.0000 O   0  0  0  0  0  0  0  0  0  0  0  0
    8.6664  -11.6008    0.0000 C   0  0  2  0  0  0  0  0  0  0  0  0
    9.3852  -11.1959    0.0000 C   0  0  1  0  0  0  0  0  0  0  0  0
    9.3940  -10.3710    0.0000 O   0  0  0  0  0  0  0  0  0  0  0  0
    8.6576  -12.4258    0.0000 O   0  0  0  0  0  0  0  0  0  0  0  0
    5.7999  -12.3953    0.0000 C   0  0  0  0  0  0  0  0  0  0  0  0
    5.7823  -14.0452    0.0000 O   0  0  0  0  0  0  0  0  0  0  0  0
    7.2024  -14.8854    0.0000 O   0  0  0  0  0  0  0  0  0  0  0  0
    8.6400  -14.0757    0.0000 O   0  0  0  0  0  0  0  0  0  0  0  0
    6.5099  -12.8154    0.0000 C   0  0  1  0  0  0  0  0  0  0  0  0
    6.5011  -13.6404    0.0000 C   0  0  1  0  0  0  0  0  0  0  0  0
    7.2112  -14.0604    0.0000 C   0  0  2  0  0  0  0  0  0  0  0  0
    7.9300  -13.6556    0.0000 C   0  0  2  0  0  0  0  0  0  0  0  0
    7.9388  -12.8306    0.0000 C   0  0  1  0  0  0  0  0  0  0  0  0
    7.2287  -12.4105    0.0000 O   0  0  0  0  0  0  0  0  0  0  0  0
 75 66  1  1  0  0  0
 63 66  1  6  0  0  0
 49  1  1  6  0  0  0
 64 44  1  1  0  0  0
 50 45  1  1  0  0  0
 48 47  1  1  0  0  0
 47 46  1  0  0  0  0
 65 48  1  0  0  0  0
 49 48  1  0  0  0  0
 50 49  1  0  0  0  0
 63 50  1  0  0  0  0
 60 62  1  1  0  0  0
 59 51  1  6  0  0  0
 58 52  1  1  0  0  0
 57 53  1  6  0  0  0
 56 55  1  1  0  0  0
 55 54  1  0  0  0  0
 61 56  1  0  0  0  0
 57 56  1  0  0  0  0
 58 57  1  0  0  0  0
 59 58  1  0  0  0  0
 60 59  1  0  0  0  0
 61 60  1  0  0  0  0
 64 63  1  0  0  0  0
 65 64  1  0  0  0  0
 71 67  1  6  0  0  0
 72 68  1  1  0  0  0
 73 69  1  6  0  0  0
 74 70  1  6  0  0  0
 76 71  1  0  0  0  0
 72 71  1  0  0  0  0
 73 72  1  0  0  0  0
 74 73  1  0  0  0  0
 75 74  1  0  0  0  0
 76 75  1  0  0  0  0
  2  3  1  0  0  0  0
  3  4  1  0  0  0  0
  4  5  1  0  0  0  0
  5  6  1  0  0  0  0
  2  6  1  0  0  0  0
  7  8  1  0  0  0  0
  6  7  1  6  0  0  0
  5  9  1  1  0  0  0
  4 10  1  6  0  0  0
  3  1  1  1  0  0  0
 11 12  1  0  0  0  0
 12 13  1  0  0  0  0
 13 14  1  0  0  0  0
 14 15  1  0  0  0  0
 15 16  1  0  0  0  0
 16 17  2  0  0  0  0
 17 18  1  0  0  0  0
 18 19  1  0  0  0  0
 19 20  1  0  0  0  0
 20 21  1  0  0  0  0
 21 22  1  0  0  0  0
 22 23  1  0  0  0  0
 23 24  1  0  0  0  0
 24 25  1  0  0  0  0
 25 26  1  0  0  0  0
 26 27  1  0  0  0  0
 27 28  1  0  0  0  0
 28 29  2  0  0  0  0
 29 30  1  0  0  0  0
 11 30  1  0  0  0  0
 11 22  1  0  0  0  0
 23 28  1  0  0  0  0
 12 19  1  0  0  0  0
 14 18  1  0  0  0  0
 31 32  1  0  0  0  0
 32 33  1  0  0  0  0
 33 34  1  0  0  0  0
 34 62  1  0  0  0  0
 33 35  1  1  0  0  0
 16 31  1  0  0  0  0
 23 36  1  1  0  0  0
 19 37  1  1  0  0  0
 17 38  1  6  0  0  0
 18 39  1  6  0  0  0
 26 44  1  1  0  0  0
 11 40  1  1  0  0  0
 12 41  1  6  0  0  0
 14 42  1  6  0  0  0
 22 43  1  6  0  0  0
M  END
>  <cdx:groupId>
195535

>  <cdx:fragmentId>
195341

$$$$
