485077.cdx
  Mrv1902 05222410262D          

 26 30  0  0  0  0            999 V2000
    4.8628   -7.7329    0.0000 C   0  0  0  0  0  0  0  0  0  0  0  0
    4.8638   -8.5490    0.0000 C   0  0  0  0  0  0  0  0  0  0  0  0
    5.5596   -8.9681    0.0000 C   0  0  0  0  0  0  0  0  0  0  0  0
    5.5787   -7.3223    0.0000 C   0  0  0  0  0  0  0  0  0  0  0  0
    6.2920   -7.7368    0.0000 C   0  0  0  0  0  0  0  0  0  0  0  0
    6.2870   -8.5548    0.0000 C   0  0  0  0  0  0  0  0  0  0  0  0
    7.0007   -8.9710    0.0000 C   0  0  0  0  0  0  0  0  0  0  0  0
    7.7036   -8.5736    0.0000 N   0  0  0  0  0  0  0  0  0  0  0  0
    7.0025   -7.3312    0.0000 C   0  0  0  0  0  0  0  0  0  0  0  0
    7.7109   -7.7426    0.0000 C   0  0  0  0  0  0  0  0  0  0  0  0
    7.7242   -6.0931    0.0000 C   0  0  0  0  0  0  0  0  0  0  0  0
    7.0063   -6.5041    0.0000 C   0  0  0  0  0  0  0  0  0  0  0  0
    8.4333   -6.5118    0.0000 C   0  0  0  0  0  0  0  0  0  0  0  0
    8.4306   -7.3291    0.0000 C   0  0  0  0  0  0  0  0  0  0  0  0
    9.1418   -7.7446    0.0000 C   0  0  0  0  0  0  0  0  0  0  0  0
    9.8602   -7.3357    0.0000 C   0  0  0  0  0  0  0  0  0  0  0  0
    9.8595   -6.5138    0.0000 C   0  0  0  0  0  0  0  0  0  0  0  0
    9.1523   -6.0988    0.0000 C   0  0  0  0  0  0  0  0  0  0  0  0
   10.6472   -7.5899    0.0000 O   0  0  0  0  0  0  0  0  0  0  0  0
   10.6440   -6.2560    0.0000 O   0  0  0  0  0  0  0  0  0  0  0  0
   11.1241   -6.9280    0.0000 C   0  0  0  0  0  0  0  0  0  0  0  0
    4.1505   -8.9635    0.0000 O   0  0  0  0  0  0  0  0  0  0  0  0
    5.5619   -9.7930    0.0000 O   0  0  0  0  0  0  0  0  0  0  0  0
    8.4192   -8.9841    0.0000 C   0  0  0  0  0  0  0  0  0  0  0  0
    4.8450  -10.2096    0.0000 C   0  0  0  0  0  0  0  0  0  0  0  0
    3.4325   -8.5516    0.0000 C   0  0  0  0  0  0  0  0  0  0  0  0
 11 12  2  0  0  0  0
 12  9  1  0  0  0  0
  2  3  1  0  0  0  0
  3  6  2  0  0  0  0
 13 14  1  0  0  0  0
  1  2  2  0  0  0  0
 14 15  2  0  0  0  0
  5  9  1  0  0  0  0
 15 16  1  0  0  0  0
  6  7  1  0  0  0  0
 16 17  2  0  0  0  0
  7  8  1  0  0  0  0
 17 18  1  0  0  0  0
 18 13  2  0  0  0  0
  3 23  1  0  0  0  0
  2 22  1  0  0  0  0
  8 10  1  0  0  0  0
 16 19  1  0  0  0  0
  5  4  2  0  0  0  0
 17 20  1  0  0  0  0
  4  1  1  0  0  0  0
 19 21  1  0  0  0  0
 20 21  1  0  0  0  0
  9 10  2  0  0  0  0
 10 14  1  0  0  0  0
  5  6  1  0  0  0  0
  8 24  1  0  0  0  0
 13 11  1  0  0  0  0
 23 25  1  0  0  0  0
 22 26  1  0  0  0  0
M  END
>  <cdx:fragmentId>
21312

$$$$
