485201.cdx
  Mrv1902 05222410242D          

 50 54  0  0  0  0            999 V2000
    4.4785   -7.0319    0.0000 C   0  0  0  0  0  0  0  0  0  0  0  0
    4.4760   -6.2069    0.0000 C   0  0  0  0  0  0  0  0  0  0  0  0
    3.7602   -5.7966    0.0000 C   0  0  0  0  0  0  0  0  0  0  0  0
    3.0470   -6.2112    0.0000 C   0  0  0  0  0  0  0  0  0  0  0  0
    3.0496   -7.0362    0.0000 C   0  0  0  0  0  0  0  0  0  0  0  0
    3.7653   -7.4466    0.0000 C   0  0  0  0  0  0  0  0  0  0  0  0
    2.3313   -5.8009    0.0000 O   0  0  0  0  0  0  0  0  0  0  0  0
    5.1892   -5.7922    0.0000 O   0  0  0  0  0  0  0  0  0  0  0  0
    9.4795   -6.9341    0.0000 C   0  0  0  0  0  0  0  0  0  0  0  0
    7.3424   -9.0032    0.0000 O   0  0  0  0  0  0  0  0  0  0  0  0
    8.7688   -8.1738    0.0000 C   0  0  0  0  0  0  0  0  0  0  0  0
    9.4820   -7.7591    0.0000 C   0  0  0  0  0  0  0  0  0  0  0  0
   10.1977   -8.1695    0.0000 C   0  0  0  0  0  0  0  0  0  0  0  0
   10.2003   -8.9945    0.0000 C   0  0  0  0  0  0  0  0  0  0  0  0
    9.4870   -9.4091    0.0000 C   0  0  0  0  0  0  0  0  0  0  0  0
    8.7713   -8.9988    0.0000 C   0  0  0  0  0  0  0  0  0  0  0  0
    8.0581   -9.4135    0.0000 C   0  0  0  0  0  0  0  0  0  0  0  0
   10.2093  -11.9644    0.0000 O   0  0  0  0  0  0  0  0  0  0  0  0
   11.6307   -9.4851    0.0000 O   0  0  0  0  0  0  0  0  0  0  0  0
    9.4886   -9.9041    0.0000 C   0  0  0  0  0  0  0  0  0  0  0  0
   10.2018   -9.4895    0.0000 C   0  0  0  0  0  0  0  0  0  0  0  0
   10.9175   -9.8998    0.0000 C   0  0  0  0  0  0  0  0  0  0  0  0
   10.9200  -10.7248    0.0000 C   0  0  0  0  0  0  0  0  0  0  0  0
   10.2068  -11.1395    0.0000 C   0  0  0  0  0  0  0  0  0  0  0  0
    9.4911  -10.7291    0.0000 C   0  0  0  0  0  0  0  0  0  0  0  0
    8.0697  -13.2085    0.0000 C   0  0  0  0  0  0  0  0  0  0  0  0
    8.0621  -10.7335    0.0000 C   0  0  2  0  0  0  0  0  0  0  0  0
    8.7779  -11.1438    0.0000 C   0  0  2  0  0  0  0  0  0  0  0  0
    8.7804  -11.9688    0.0000 C   0  0  0  0  0  0  0  0  0  0  0  0
    8.0672  -12.3835    0.0000 C   0  0  0  0  0  0  0  0  0  0  0  0
    7.3514  -11.9732    0.0000 C   0  0  0  0  0  0  0  0  0  0  0  0
    7.3489  -11.1482    0.0000 C   0  0  2  0  0  0  0  0  0  0  0  0
    7.3439   -9.4982    0.0000 O   0  0  0  0  0  0  0  0  0  0  0  0
    5.9225  -11.9775    0.0000 O   0  0  0  0  0  0  0  0  0  0  0  0
    5.2017   -9.9172    0.0000 C   0  0  0  0  0  0  0  0  0  0  0  0
    5.2043  -10.7422    0.0000 C   0  0  0  0  0  0  0  0  0  0  0  0
    5.9200  -11.1525    0.0000 C   0  0  0  0  0  0  0  0  0  0  0  0
    6.6332  -10.7378    0.0000 C   0  0  0  0  0  0  0  0  0  0  0  0
    6.6307   -9.9128    0.0000 C   0  0  0  0  0  0  0  0  0  0  0  0
    5.9150   -9.5025    0.0000 C   0  0  0  0  0  0  0  0  0  0  0  0
    6.6257   -8.2628    0.0000 O   0  0  0  0  0  0  0  0  0  0  0  0
    5.1942   -7.4422    0.0000 C   0  0  0  0  0  0  0  0  0  0  0  0
    5.1967   -8.2672    0.0000 C   0  0  0  0  0  0  0  0  0  0  0  0
    5.9124   -8.6775    0.0000 C   0  0  0  0  0  0  0  0  0  0  0  0
    8.0531   -7.7635    0.0000 O   0  0  0  0  0  0  0  0  0  0  0  0
   10.9110   -7.7548    0.0000 O   0  0  0  0  0  0  0  0  0  0  0  0
   10.1927   -6.5195    0.0000 C   0  0  0  0  0  0  0  0  0  0  0  0
   10.1902   -5.6945    0.0000 C   0  0  0  0  0  0  0  0  0  0  0  0
   10.9034   -5.2798    0.0000 C   0  0  0  0  0  0  0  0  0  0  0  0
    9.4745   -5.2842    0.0000 C   0  0  0  0  0  0  0  0  0  0  0  0
 44 40  1  0  0  0  0
 32 38  1  6  0  0  0
 27 17  1  6  0  0  0
 12  9  1  0  0  0  0
 17 10  2  0  0  0  0
 16 11  2  0  0  0  0
 12 11  1  0  0  0  0
 13 12  2  0  0  0  0
 14 13  1  0  0  0  0
 15 14  2  0  0  0  0
 16 15  1  0  0  0  0
 17 16  1  0  0  0  0
 28 25  1  1  0  0  0
 24 18  1  0  0  0  0
 22 19  1  0  0  0  0
 25 20  2  0  0  0  0
 21 20  1  0  0  0  0
 22 21  2  0  0  0  0
 23 22  1  0  0  0  0
 24 23  2  0  0  0  0
 25 24  1  0  0  0  0
 30 26  1  0  0  0  0
 32 27  1  0  0  0  0
 28 27  1  0  0  0  0
 29 28  1  0  0  0  0
 30 29  1  0  0  0  0
 31 30  2  0  0  0  0
 32 31  1  0  0  0  0
 39 33  1  0  0  0  0
 37 34  1  0  0  0  0
 40 35  2  0  0  0  0
 36 35  1  0  0  0  0
 37 36  2  0  0  0  0
 38 37  1  0  0  0  0
 39 38  2  0  0  0  0
 40 39  1  0  0  0  0
 42  1  1  0  0  0  0
 44 41  2  0  0  0  0
 43 42  2  0  0  0  0
 44 43  1  0  0  0  0
  1  2  1  0  0  0  0
  2  3  2  0  0  0  0
  3  4  1  0  0  0  0
  4  5  2  0  0  0  0
  5  6  1  0  0  0  0
  1  6  2  0  0  0  0
  4  7  1  0  0  0  0
  2  8  1  0  0  0  0
 11 45  1  0  0  0  0
 13 46  1  0  0  0  0
  9 47  1  0  0  0  0
 47 48  2  0  0  0  0
 48 49  1  0  0  0  0
 48 50  1  0  0  0  0
M  END
>  <cdx:fragmentId>
173618

$$$$
