485562.cdx
  Mrv1902 05222410252D          

 51 55  0  0  0  0            999 V2000
    2.5020  -13.2579    0.0000 C   0  0  0  0  0  0  0  0  0  0  0  0
    2.5019  -12.4329    0.0000 C   0  0  0  0  0  0  0  0  0  0  0  0
    3.2164  -12.0203    0.0000 C   0  0  0  0  0  0  0  0  0  0  0  0
    3.2163  -11.1953    0.0000 C   0  0  0  0  0  0  0  0  0  0  0  0
    3.9307  -10.7828    0.0000 C   0  0  0  0  0  0  0  0  0  0  0  0
    3.2165  -13.6703    0.0000 O   0  0  0  0  0  0  0  0  0  0  0  0
    1.7876  -13.6705    0.0000 O   0  0  0  0  0  0  0  0  0  0  0  0
    4.6452  -11.1952    0.0000 O   0  0  0  0  0  0  0  0  0  0  0  0
    3.6289  -12.7348    0.0000 C   0  0  0  0  0  0  0  0  0  0  0  0
    4.0414  -12.0203    0.0000 O   0  0  0  0  0  0  0  0  0  0  0  0
    3.9306   -9.9578    0.0000 O   0  0  0  0  0  0  0  0  0  0  0  0
    4.6451   -9.5452    0.0000 C   0  0  0  0  0  0  0  0  0  0  0  0
    5.3594   -8.3076    0.0000 O   0  0  0  0  0  0  0  0  0  0  0  0
    4.6450   -8.7202    0.0000 C   0  0  1  0  0  0  0  0  0  0  0  0
    3.9304   -8.3078    0.0000 C   0  0  2  0  0  0  0  0  0  0  0  0
    3.9304   -7.4828    0.0000 C   0  0  1  0  0  0  0  0  0  0  0  0
    4.6448   -7.0702    0.0000 C   0  0  2  0  0  0  0  0  0  0  0  0
    5.3593   -7.4826    0.0000 C   0  0  2  0  0  0  0  0  0  0  0  0
    4.6447   -6.2452    0.0000 O   0  0  0  0  0  0  0  0  0  0  0  0
    3.2158   -6.2453    0.0000 O   0  0  0  0  0  0  0  0  0  0  0  0
    3.9302   -5.8328    0.0000 C   0  0  2  0  0  0  0  0  0  0  0  0
    3.9301   -5.0078    0.0000 C   0  0  1  0  0  0  0  0  0  0  0  0
    3.2156   -4.5953    0.0000 C   0  0  1  0  0  0  0  0  0  0  0  0
    2.5012   -5.0079    0.0000 C   0  0  2  0  0  0  0  0  0  0  0  0
    2.5012   -5.8329    0.0000 C   0  0  2  0  0  0  0  0  0  0  0  0
    1.7868   -6.2455    0.0000 C   0  0  0  0  0  0  0  0  0  0  0  0
    1.7866   -4.5955    0.0000 O   0  0  0  0  0  0  0  0  0  0  0  0
    3.2155   -3.7703    0.0000 O   0  0  0  0  0  0  0  0  0  0  0  0
    4.6445   -4.5952    0.0000 O   0  0  0  0  0  0  0  0  0  0  0  0
    6.0737   -7.0700    0.0000 O   0  0  0  0  0  0  0  0  0  0  0  0
    9.6461   -7.4822    0.0000 C   0  0  2  0  0  0  0  0  0  0  0  0
    9.6462   -8.3072    0.0000 C   0  0  0  0  0  0  0  0  0  0  0  0
    8.9318   -8.7197    0.0000 C   0  0  0  0  0  0  0  0  0  0  0  0
    8.2173   -8.3073    0.0000 C   0  0  0  0  0  0  0  0  0  0  0  0
    7.5028   -8.7199    0.0000 C   0  0  0  0  0  0  0  0  0  0  0  0
    6.7883   -8.3075    0.0000 C   0  0  0  0  0  0  0  0  0  0  0  0
    6.7882   -7.4825    0.0000 C   0  0  0  0  0  0  0  0  0  0  0  0
    7.5027   -7.0699    0.0000 C   0  0  0  0  0  0  0  0  0  0  0  0
    8.2172   -7.4823    0.0000 C   0  0  0  0  0  0  0  0  0  0  0  0
    8.9316   -7.0697    0.0000 O   0  0  0  0  0  0  0  0  0  0  0  0
    8.9319   -9.5447    0.0000 O   0  0  0  0  0  0  0  0  0  0  0  0
   10.3606   -7.0696    0.0000 C   0  0  0  0  0  0  0  0  0  0  0  0
   10.3605   -6.2446    0.0000 C   0  0  0  0  0  0  0  0  0  0  0  0
   11.0749   -5.8320    0.0000 C   0  0  0  0  0  0  0  0  0  0  0  0
   11.7894   -6.2444    0.0000 C   0  0  0  0  0  0  0  0  0  0  0  0
   11.7895   -7.0694    0.0000 C   0  0  0  0  0  0  0  0  0  0  0  0
   11.0751   -7.4820    0.0000 C   0  0  0  0  0  0  0  0  0  0  0  0
   12.5038   -5.8319    0.0000 O   0  0  0  0  0  0  0  0  0  0  0  0
    7.5029   -9.5449    0.0000 O   0  0  0  0  0  0  0  0  0  0  0  0
    3.2158   -7.0703    0.0000 O   0  0  0  0  0  0  0  0  0  0  0  0
    3.2160   -8.7203    0.0000 O   0  0  0  0  0  0  0  0  0  0  0  0
  1  2  1  0  0  0  0
  2  3  1  0  0  0  0
  3  4  1  0  0  0  0
  4  5  1  0  0  0  0
  1  6  2  0  0  0  0
  1  7  1  0  0  0  0
  5  8  2  0  0  0  0
  3  9  1  0  0  0  0
  3 10  1  0  0  0  0
 11 12  1  0  0  0  0
 13 14  1  0  0  0  0
 14 15  1  0  0  0  0
 15 16  1  0  0  0  0
 16 17  1  0  0  0  0
 17 18  1  0  0  0  0
 13 18  1  0  0  0  0
 20 21  1  0  0  0  0
 21 22  1  0  0  0  0
 22 23  1  0  0  0  0
 23 24  1  0  0  0  0
 24 25  1  0  0  0  0
 20 25  1  0  0  0  0
 25 26  1  1  0  0  0
 24 27  1  6  0  0  0
 23 28  1  1  0  0  0
 22 29  1  1  0  0  0
 21 19  1  6  0  0  0
 17 19  1  1  0  0  0
 31 32  1  0  0  0  0
 32 33  1  0  0  0  0
 33 34  1  0  0  0  0
 34 35  1  0  0  0  0
 35 36  2  0  0  0  0
 36 37  1  0  0  0  0
 37 38  2  0  0  0  0
 38 39  1  0  0  0  0
 34 39  2  0  0  0  0
 39 40  1  0  0  0  0
 31 40  1  0  0  0  0
 33 41  2  0  0  0  0
 42 43  1  0  0  0  0
 43 44  2  0  0  0  0
 44 45  1  0  0  0  0
 45 46  2  0  0  0  0
 46 47  1  0  0  0  0
 42 47  2  0  0  0  0
 45 48  1  0  0  0  0
 31 42  1  6  0  0  0
 35 49  1  0  0  0  0
 30 37  1  0  0  0  0
 18 30  1  6  0  0  0
 16 50  1  6  0  0  0
 15 51  1  1  0  0  0
 14 12  1  6  0  0  0
  5 11  1  0  0  0  0
M  END
>  <cdx:fragmentId>
65

$$$$
