486204.cdx
  Mrv1902 05222410182D          

 28 28  0  0  0  0            999 V2000
   10.4222   -6.1012    0.0000 C   0  0  0  0  0  0  0  0  0  0  0  0
    9.7112   -6.5197    0.0000 C   0  0  0  0  0  0  0  0  0  0  0  0
    8.9933   -6.1131    0.0000 C   0  0  0  0  0  0  0  0  0  0  0  0
    8.2823   -6.5316    0.0000 C   0  0  0  0  0  0  0  0  0  0  0  0
    7.5644   -6.1250    0.0000 C   0  0  0  0  0  0  0  0  0  0  0  0
    6.8534   -6.5435    0.0000 C   0  0  0  0  0  0  0  0  0  0  0  0
    6.1356   -6.1369    0.0000 C   0  0  0  0  0  0  0  0  0  0  0  0
    5.4245   -6.5554    0.0000 C   0  0  0  0  0  0  0  0  0  0  0  0
    4.7135   -6.9738    0.0000 C   0  0  0  0  0  0  0  0  0  0  0  0
    4.0025   -7.3922    0.0000 C   0  0  0  0  0  0  0  0  0  0  0  0
    3.2915   -7.8107    0.0000 C   0  0  0  0  0  0  0  0  0  0  0  0
    2.5805   -8.2291    0.0000 C   0  0  0  0  0  0  0  0  0  0  0  0
    1.8626   -7.8226    0.0000 C   0  0  0  0  0  0  0  0  0  0  0  0
    1.1516   -8.2410    0.0000 C   0  0  0  0  0  0  0  0  0  0  0  0
    6.1287   -5.3120    0.0000 O   0  0  0  0  0  0  0  0  0  0  0  0
   11.1401   -6.5078    0.0000 O   0  0  0  0  0  0  0  0  0  0  0  0
    6.8603   -7.3684    0.0000 O   0  0  0  0  0  0  0  0  0  0  0  0
    4.0337   -9.5916    0.0000 O   0  0  0  0  0  0  0  0  0  0  0  0
    4.4261   -8.8659    0.0000 C   0  0  0  0  0  0  0  0  0  0  0  0
    5.2907  -10.2712    0.0000 O   0  0  0  0  0  0  0  0  0  0  0  0
    6.9401  -10.2252    0.0000 O   0  0  0  0  0  0  0  0  0  0  0  0
    7.7249   -8.7738    0.0000 O   0  0  0  0  0  0  0  0  0  0  0  0
    5.2508   -8.8429    0.0000 C   0  0  2  0  0  0  0  0  0  0  0  0
    5.6831   -9.5455    0.0000 C   0  0  2  0  0  0  0  0  0  0  0  0
    6.5078   -9.5225    0.0000 C   0  0  1  0  0  0  0  0  0  0  0  0
    6.9002   -8.7968    0.0000 C   0  0  2  0  0  0  0  0  0  0  0  0
    6.4679   -8.0941    0.0000 C   0  0  1  0  0  0  0  0  0  0  0  0
    5.6432   -8.1172    0.0000 O   0  0  0  0  0  0  0  0  0  0  0  0
 27 17  1  1  0  0  0
 17  6  1  0  0  0  0
 23 19  1  1  0  0  0
 19 18  1  0  0  0  0
 24 20  1  6  0  0  0
 25 21  1  1  0  0  0
 26 22  1  6  0  0  0
 28 23  1  0  0  0  0
 24 23  1  0  0  0  0
 25 24  1  0  0  0  0
 26 25  1  0  0  0  0
 27 26  1  0  0  0  0
 28 27  1  0  0  0  0
  1  2  1  0  0  0  0
  2  3  1  0  0  0  0
  3  4  1  0  0  0  0
  4  5  2  0  0  0  0
  5  6  1  0  0  0  0
  6  7  1  0  0  0  0
  7  8  1  0  0  0  0
  8  9  3  0  0  0  0
  9 10  1  0  0  0  0
 10 11  3  0  0  0  0
 11 12  1  0  0  0  0
 12 13  2  0  0  0  0
 13 14  1  0  0  0  0
  7 15  1  0  0  0  0
  1 16  1  0  0  0  0
M  END
>  <cdx:fragmentId>
29

$$$$
