486612.cdx
  Mrv1902 05222410192D          

 37 40  0  0  0  0            999 V2000
   11.5915   -8.9375    0.0000 O   0  0  0  0  0  0  0  0  0  0  0  0
   11.0393   -9.5504    0.0000 C   0  0  0  0  0  0  0  0  0  0  0  0
   10.2857   -9.2147    0.0000 C   0  0  1  0  0  0  0  0  0  0  0  0
   10.3722   -8.3942    0.0000 C   0  0  2  0  0  0  0  0  0  0  0  0
   11.1792   -8.2229    0.0000 C   0  0  0  0  0  0  0  0  0  0  0  0
   11.2107  -10.3574    0.0000 O   0  0  0  0  0  0  0  0  0  0  0  0
    9.5712   -9.6270    0.0000 C   0  0  0  0  0  0  0  0  0  0  0  0
    8.8568   -9.2144    0.0000 C   0  0  0  0  0  0  0  0  0  0  0  0
    8.8570   -8.3894    0.0000 C   0  0  0  0  0  0  0  0  0  0  0  0
    8.1426   -7.9767    0.0000 C   0  0  0  0  0  0  0  0  0  0  0  0
    7.4280   -8.3890    0.0000 C   0  0  0  0  0  0  0  0  0  0  0  0
    7.4279   -9.2140    0.0000 C   0  0  0  0  0  0  0  0  0  0  0  0
    8.1422   -9.6267    0.0000 C   0  0  0  0  0  0  0  0  0  0  0  0
    6.7137   -7.9764    0.0000 O   0  0  0  0  0  0  0  0  0  0  0  0
    5.2847   -7.9761    0.0000 O   0  0  0  0  0  0  0  0  0  0  0  0
    5.9991   -8.3887    0.0000 C   0  0  2  0  0  0  0  0  0  0  0  0
    5.9989   -9.2137    0.0000 C   0  0  1  0  0  0  0  0  0  0  0  0
    5.2843   -9.6261    0.0000 C   0  0  2  0  0  0  0  0  0  0  0  0
    4.5700   -9.2134    0.0000 C   0  0  1  0  0  0  0  0  0  0  0  0
    4.5702   -8.3884    0.0000 C   0  0  1  0  0  0  0  0  0  0  0  0
    3.8558   -7.9757    0.0000 C   0  0  0  0  0  0  0  0  0  0  0  0
    3.1412   -8.3881    0.0000 O   0  0  0  0  0  0  0  0  0  0  0  0
    3.8554   -9.6257    0.0000 O   0  0  0  0  0  0  0  0  0  0  0  0
    5.2842  -10.4511    0.0000 O   0  0  0  0  0  0  0  0  0  0  0  0
    6.7133   -9.6264    0.0000 O   0  0  0  0  0  0  0  0  0  0  0  0
    8.1428   -7.1517    0.0000 O   0  0  0  0  0  0  0  0  0  0  0  0
    7.4283   -6.7392    0.0000 C   0  0  0  0  0  0  0  0  0  0  0  0
    9.7592   -7.8421    0.0000 C   0  0  0  0  0  0  0  0  0  0  0  0
    9.9309   -7.0351    0.0000 C   0  0  0  0  0  0  0  0  0  0  0  0
    9.3179   -6.4830    0.0000 C   0  0  0  0  0  0  0  0  0  0  0  0
    9.4896   -5.6760    0.0000 C   0  0  0  0  0  0  0  0  0  0  0  0
   10.2743   -5.4213    0.0000 C   0  0  0  0  0  0  0  0  0  0  0  0
   10.8873   -5.9734    0.0000 C   0  0  0  0  0  0  0  0  0  0  0  0
   10.7156   -6.7804    0.0000 C   0  0  0  0  0  0  0  0  0  0  0  0
    8.8767   -5.1239    0.0000 O   0  0  0  0  0  0  0  0  0  0  0  0
    8.0920   -5.3786    0.0000 C   0  0  0  0  0  0  0  0  0  0  0  0
   10.4460   -4.6143    0.0000 O   0  0  0  0  0  0  0  0  0  0  0  0
  1  2  1  0  0  0  0
  2  3  1  0  0  0  0
  3  4  1  0  0  0  0
  4  5  1  0  0  0  0
  1  5  1  0  0  0  0
  2  6  2  0  0  0  0
  8  9  1  0  0  0  0
  9 10  2  0  0  0  0
 10 11  1  0  0  0  0
 11 12  2  0  0  0  0
 12 13  1  0  0  0  0
  8 13  2  0  0  0  0
 15 16  1  0  0  0  0
 16 17  1  0  0  0  0
 17 18  1  0  0  0  0
 18 19  1  0  0  0  0
 19 20  1  0  0  0  0
 15 20  1  0  0  0  0
 21 22  1  0  0  0  0
 20 21  1  1  0  0  0
 19 23  1  6  0  0  0
 18 24  1  1  0  0  0
 17 25  1  6  0  0  0
 16 14  1  1  0  0  0
 11 14  1  0  0  0  0
 26 27  1  0  0  0  0
 10 26  1  0  0  0  0
  7  8  1  0  0  0  0
  3  7  1  6  0  0  0
 29 30  1  0  0  0  0
 30 31  2  0  0  0  0
 31 32  1  0  0  0  0
 32 33  2  0  0  0  0
 33 34  1  0  0  0  0
 29 34  2  0  0  0  0
 35 36  1  0  0  0  0
 31 35  1  0  0  0  0
 32 37  1  0  0  0  0
 28 29  1  0  0  0  0
  4 28  1  1  0  0  0
M  END
>  <cdx:groupId>
21491

>  <cdx:fragmentId>
21408

$$$$
