4867.cdx
  Mrv1902 05222410272D          

 36 38  0  0  0  0            999 V2000
    7.7090   -5.7014    0.0000 O   0  0  0  0  0  0  0  0  0  0  0  0
    6.0564  -11.1170    0.0000 O   0  0  0  0  0  0  0  0  0  0  0  0
    7.4907  -10.3015    0.0000 O   0  0  0  0  0  0  0  0  0  0  0  0
    8.8000   -7.1266    0.0000 O   0  0  0  0  0  0  0  0  0  0  0  0
    6.0164   -5.4736    0.0000 O   0  0  0  0  0  0  0  0  0  0  0  0
    6.0164   -6.2986    0.0000 C   0  0  0  0  0  0  0  0  0  0  0  0
    7.9752   -7.1472    0.0000 C   0  0  1  0  0  0  0  0  0  0  0  0
    7.4737   -6.4921    0.0000 C   0  0  1  0  0  0  0  0  0  0  0  0
    6.6957   -6.7666    0.0000 C   0  0  2  0  0  0  0  0  0  0  0  0
    6.7164   -7.5914    0.0000 O   0  0  0  0  0  0  0  0  0  0  0  0
    7.5072   -7.8266    0.0000 C   0  0  1  0  0  0  0  0  0  0  0  0
    7.5017   -8.6516    0.0000 O   0  0  0  0  0  0  0  0  0  0  0  0
    4.6439   -8.6326    0.0000 C   0  0  0  0  0  0  0  0  0  0  0  0
    3.9267   -9.0404    0.0000 O   0  0  0  0  0  0  0  0  0  0  0  0
    4.6329  -10.2826    0.0000 O   0  0  0  0  0  0  0  0  0  0  0  0
    6.7845   -9.0593    0.0000 C   0  0  1  0  0  0  0  0  0  0  0  0
    6.0728   -8.6421    0.0000 O   0  0  0  0  0  0  0  0  0  0  0  0
    5.3556   -9.0498    0.0000 C   0  0  1  0  0  0  0  0  0  0  0  0
    5.3501   -9.8748    0.0000 C   0  0  2  0  0  0  0  0  0  0  0  0
    6.0618  -10.2920    0.0000 C   0  0  1  0  0  0  0  0  0  0  0  0
    6.7790   -9.8843    0.0000 C   0  0  1  0  0  0  0  0  0  0  0  0
    8.2216   -8.2391    0.0000 C   0  0  0  0  0  0  0  0  0  0  0  0
    8.9361   -7.8266    0.0000 O   0  0  0  0  0  0  0  0  0  0  0  0
    9.2125   -6.4121    0.0000 C   0  0  0  0  0  0  0  0  0  0  0  0
   10.0375   -6.4121    0.0000 C   0  0  0  0  0  0  0  0  0  0  0  0
    8.8000   -5.6976    0.0000 O   0  0  0  0  0  0  0  0  0  0  0  0
   10.4500   -5.6976    0.0000 C   0  0  0  0  0  0  0  0  0  0  0  0
   11.2750   -5.6976    0.0000 C   0  0  0  0  0  0  0  0  0  0  0  0
   11.6875   -6.4121    0.0000 C   0  0  0  0  0  0  0  0  0  0  0  0
   12.5125   -6.4121    0.0000 C   0  0  0  0  0  0  0  0  0  0  0  0
   12.9250   -5.6976    0.0000 C   0  0  0  0  0  0  0  0  0  0  0  0
   12.5125   -4.9831    0.0000 C   0  0  0  0  0  0  0  0  0  0  0  0
   11.6875   -4.9831    0.0000 C   0  0  0  0  0  0  0  0  0  0  0  0
   13.7500   -5.6976    0.0000 O   0  0  0  0  0  0  0  0  0  0  0  0
   12.9250   -7.1266    0.0000 O   0  0  0  0  0  0  0  0  0  0  0  0
   13.7500   -7.1266    0.0000 C   0  0  0  0  0  0  0  0  0  0  0  0
  8  1  1  1  0  0  0
 20  2  1  1  0  0  0
 21  3  1  6  0  0  0
  7  4  1  6  0  0  0
  6  5  1  0  0  0  0
  9  6  1  6  0  0  0
  7 11  1  0  0  0  0
  8  7  1  0  0  0  0
  9  8  1  0  0  0  0
 10  9  1  0  0  0  0
 11 10  1  0  0  0  0
 11 12  1  6  0  0  0
 16 12  1  6  0  0  0
 18 13  1  1  0  0  0
 14 13  1  0  0  0  0
 19 15  1  6  0  0  0
 16 21  1  0  0  0  0
 17 16  1  0  0  0  0
 18 17  1  0  0  0  0
 19 18  1  0  0  0  0
 20 19  1  0  0  0  0
 21 20  1  0  0  0  0
 11 22  1  0  0  0  0
 22 23  1  0  0  0  0
  4 24  1  0  0  0  0
 24 25  1  0  0  0  0
 24 26  2  0  0  0  0
 25 27  2  0  0  0  0
 27 28  1  0  0  0  0
 28 29  2  0  0  0  0
 29 30  1  0  0  0  0
 30 31  2  0  0  0  0
 31 32  1  0  0  0  0
 32 33  2  0  0  0  0
 33 28  1  0  0  0  0
 31 34  1  0  0  0  0
 30 35  1  0  0  0  0
 35 36  1  0  0  0  0
M  END
>  <cdx:fragmentId>
5

$$$$
