487.cdx
  Mrv1902 05222410272D          

  8  7  0  0  0  0            999 V2000
    4.6910   -2.6202    0.0000 C   0  0  0  0  0  0  0  0  0  0  0  0
    3.9765   -3.0327    0.0000 C   0  0  0  0  0  0  0  0  0  0  0  0
    3.2620   -2.6202    0.0000 C   0  0  0  0  0  0  0  0  0  0  0  0
    4.6910   -1.7952    0.0000 O   0  0  0  0  0  0  0  0  0  0  0  0
    5.4054   -3.0327    0.0000 O   0  0  0  0  0  0  0  0  0  0  0  0
    3.2620   -1.7952    0.0000 O   0  0  0  0  0  0  0  0  0  0  0  0
    2.5476   -3.0327    0.0000 O   0  0  0  0  0  0  0  0  0  0  0  0
    3.9765   -3.8577    0.0000 C   0  0  0  0  0  0  0  0  0  0  0  0
  1  2  1  0  0  0  0
  2  3  1  0  0  0  0
  1  4  2  0  0  0  0
  1  5  1  0  0  0  0
  3  6  2  0  0  0  0
  3  7  1  0  0  0  0
  2  8  1  0  0  0  0
M  END
>  <cdx:groupId>
25

>  <cdx:fragmentId>
5

$$$$
