487298.cdx
  Mrv1902 05222410272D          

 27 29  0  0  0  0            999 V2000
    6.6785   -8.7774    0.0000 C   0  0  0  0  0  0  0  0  0  0  0  0
    6.6785   -7.9524    0.0000 C   0  0  0  0  0  0  0  0  0  0  0  0
    5.9640   -7.5399    0.0000 C   0  0  0  0  0  0  0  0  0  0  0  0
    5.2496   -7.9524    0.0000 C   0  0  0  0  0  0  0  0  0  0  0  0
    4.5351   -7.5399    0.0000 C   0  0  0  0  0  0  0  0  0  0  0  0
    3.8206   -7.9524    0.0000 C   0  0  0  0  0  0  0  0  0  0  0  0
    3.8206   -8.7774    0.0000 C   0  0  0  0  0  0  0  0  0  0  0  0
    4.5351   -9.1899    0.0000 C   0  0  0  0  0  0  0  0  0  0  0  0
    5.2496   -8.7774    0.0000 C   0  0  0  0  0  0  0  0  0  0  0  0
    5.9640   -9.1899    0.0000 O   0  0  0  0  0  0  0  0  0  0  0  0
    5.9640   -6.7149    0.0000 O   0  0  0  0  0  0  0  0  0  0  0  0
    4.5351   -6.7149    0.0000 O   0  0  0  0  0  0  0  0  0  0  0  0
    3.8206   -6.3024    0.0000 C   0  0  0  0  0  0  0  0  0  0  0  0
    3.1062   -9.1899    0.0000 O   0  0  0  0  0  0  0  0  0  0  0  0
    7.3930   -7.5399    0.0000 C   0  0  0  0  0  0  0  0  0  0  0  0
    7.3930   -6.7149    0.0000 C   0  0  0  0  0  0  0  0  0  0  0  0
    8.1075   -6.3024    0.0000 C   0  0  0  0  0  0  0  0  0  0  0  0
    8.8219   -6.7149    0.0000 C   0  0  0  0  0  0  0  0  0  0  0  0
    8.8219   -7.5399    0.0000 C   0  0  0  0  0  0  0  0  0  0  0  0
    8.1075   -7.9524    0.0000 C   0  0  0  0  0  0  0  0  0  0  0  0
    9.5364   -7.9524    0.0000 C   0  0  0  0  0  0  0  0  0  0  0  0
   10.2509   -7.5399    0.0000 C   0  0  0  0  0  0  0  0  0  0  0  0
   10.9653   -7.9524    0.0000 C   0  0  0  0  0  0  0  0  0  0  0  0
   10.9653   -8.7774    0.0000 C   0  0  0  0  0  0  0  0  0  0  0  0
   11.6798   -7.5399    0.0000 C   0  0  0  0  0  0  0  0  0  0  0  0
    9.5364   -6.3024    0.0000 O   0  0  0  0  0  0  0  0  0  0  0  0
    8.1075   -5.4774    0.0000 O   0  0  0  0  0  0  0  0  0  0  0  0
  1  2  2  0  0  0  0
  2  3  1  0  0  0  0
  3  4  1  0  0  0  0
  4  5  1  0  0  0  0
  5  6  2  0  0  0  0
  6  7  1  0  0  0  0
  7  8  2  0  0  0  0
  8  9  1  0  0  0  0
  4  9  2  0  0  0  0
  9 10  1  0  0  0  0
  1 10  1  0  0  0  0
  3 11  2  0  0  0  0
 12 13  1  0  0  0  0
  5 12  1  0  0  0  0
  7 14  1  0  0  0  0
 15 16  1  0  0  0  0
 16 17  2  0  0  0  0
 17 18  1  0  0  0  0
 18 19  2  0  0  0  0
 19 20  1  0  0  0  0
 15 20  2  0  0  0  0
 21 22  1  0  0  0  0
 22 23  2  0  0  0  0
 23 24  1  0  0  0  0
 23 25  1  0  0  0  0
 19 21  1  0  0  0  0
 18 26  1  0  0  0  0
 17 27  1  0  0  0  0
  2 15  1  0  0  0  0
M  END
>  <cdx:fragmentId>
5206

$$$$
