487255.cdx
  Mrv1902 05222410202D          

 35 38  0  0  0  0            999 V2000
    9.4906   -8.0385    0.0000 O   0  0  0  0  0  0  0  0  0  0  0  0
    8.7761   -9.2760    0.0000 O   0  0  0  0  0  0  0  0  0  0  0  0
    9.4906   -8.8635    0.0000 C   0  0  2  0  0  0  0  0  0  0  0  0
   10.2050   -9.2760    0.0000 C   0  0  1  0  0  0  0  0  0  0  0  0
   10.2050  -10.1010    0.0000 C   0  0  2  0  0  0  0  0  0  0  0  0
    9.4906  -10.5135    0.0000 C   0  0  1  0  0  0  0  0  0  0  0  0
    8.7761  -10.1010    0.0000 C   0  0  1  0  0  0  0  0  0  0  0  0
    8.0616  -10.5135    0.0000 C   0  0  0  0  0  0  0  0  0  0  0  0
    8.0616  -11.3385    0.0000 O   0  0  0  0  0  0  0  0  0  0  0  0
    9.4906  -11.3385    0.0000 O   0  0  0  0  0  0  0  0  0  0  0  0
   10.9195  -10.5135    0.0000 O   0  0  0  0  0  0  0  0  0  0  0  0
   10.9195   -8.8635    0.0000 O   0  0  0  0  0  0  0  0  0  0  0  0
    7.3472   -9.2760    0.0000 O   0  0  0  0  0  0  0  0  0  0  0  0
    4.4893  -10.1010    0.0000 O   0  0  0  0  0  0  0  0  0  0  0  0
    3.0603   -7.6260    0.0000 O   0  0  0  0  0  0  0  0  0  0  0  0
    9.4906   -6.3885    0.0000 O   0  0  0  0  0  0  0  0  0  0  0  0
    8.7761   -5.1510    0.0000 C   0  0  0  0  0  0  0  0  0  0  0  0
    8.0616   -5.5635    0.0000 O   0  0  0  0  0  0  0  0  0  0  0  0
    8.0616   -8.0385    0.0000 C   0  0  0  0  0  0  0  0  0  0  0  0
    8.7761   -7.6260    0.0000 C   0  0  0  0  0  0  0  0  0  0  0  0
    8.7761   -6.8010    0.0000 C   0  0  0  0  0  0  0  0  0  0  0  0
    8.0616   -6.3885    0.0000 C   0  0  0  0  0  0  0  0  0  0  0  0
    7.3472   -6.8010    0.0000 C   0  0  0  0  0  0  0  0  0  0  0  0
    7.3472   -7.6260    0.0000 C   0  0  0  0  0  0  0  0  0  0  0  0
    5.9182  -10.1010    0.0000 O   0  0  0  0  0  0  0  0  0  0  0  0
    5.9182   -7.6260    0.0000 O   0  0  0  0  0  0  0  0  0  0  0  0
    5.2038   -8.0385    0.0000 C   0  0  0  0  0  0  0  0  0  0  0  0
    4.4893   -7.6260    0.0000 C   0  0  0  0  0  0  0  0  0  0  0  0
    3.7748   -8.0385    0.0000 C   0  0  0  0  0  0  0  0  0  0  0  0
    3.7748   -8.8635    0.0000 C   0  0  0  0  0  0  0  0  0  0  0  0
    4.4893   -9.2760    0.0000 C   0  0  0  0  0  0  0  0  0  0  0  0
    5.2038   -8.8635    0.0000 C   0  0  0  0  0  0  0  0  0  0  0  0
    5.9182   -9.2760    0.0000 C   0  0  0  0  0  0  0  0  0  0  0  0
    6.6327   -8.8635    0.0000 C   0  0  0  0  0  0  0  0  0  0  0  0
    6.6327   -8.0385    0.0000 C   0  0  0  0  0  0  0  0  0  0  0  0
 34 13  1  0  0  0  0
 31 14  1  0  0  0  0
 29 15  1  0  0  0  0
 35 24  1  0  0  0  0
 21 16  1  0  0  0  0
 22 18  1  0  0  0  0
 18 17  1  0  0  0  0
 20  1  1  0  0  0  0
 24 19  2  0  0  0  0
 20 19  1  0  0  0  0
 21 20  2  0  0  0  0
 22 21  1  0  0  0  0
 23 22  2  0  0  0  0
 24 23  1  0  0  0  0
 33 25  2  0  0  0  0
 35 26  1  0  0  0  0
 27 26  1  0  0  0  0
 32 27  2  0  0  0  0
 28 27  1  0  0  0  0
 29 28  2  0  0  0  0
 30 29  1  0  0  0  0
 31 30  2  0  0  0  0
 32 31  1  0  0  0  0
 33 32  1  0  0  0  0
 34 33  1  0  0  0  0
 35 34  2  0  0  0  0
  2  3  1  0  0  0  0
  3  4  1  0  0  0  0
  4  5  1  0  0  0  0
  5  6  1  0  0  0  0
  6  7  1  0  0  0  0
  2  7  1  0  0  0  0
  8  9  1  0  0  0  0
  7  8  1  1  0  0  0
  6 10  1  6  0  0  0
  5 11  1  1  0  0  0
  4 12  1  6  0  0  0
  3  1  1  1  0  0  0
M  END
>  <cdx:fragmentId>
5125

$$$$
