487635.cdx
  Mrv1902 05222410212D          

 42 46  0  0  0  0            999 V2000
    8.6490   -9.6203    0.0000 O   0  0  0  0  0  0  0  0  0  0  0  0
    7.2118  -10.4309    0.0000 O   0  0  0  0  0  0  0  0  0  0  0  0
    5.7912  -10.4165    0.0000 O   0  0  0  0  0  0  0  0  0  0  0  0
    5.7912   -9.5915    0.0000 C   0  0  0  0  0  0  0  0  0  0  0  0
   10.1027   -7.1597    0.0000 O   0  0  0  0  0  0  0  0  0  0  0  0
   11.5233   -7.9990    0.0000 O   0  0  0  0  0  0  0  0  0  0  0  0
   11.5067   -9.6490    0.0000 O   0  0  0  0  0  0  0  0  0  0  0  0
   10.0778   -9.6346    0.0000 C   0  0  0  0  0  0  0  0  0  0  0  0
   10.7964   -9.2293    0.0000 C   0  0  2  0  0  0  0  0  0  0  0  0
   10.8047   -8.4043    0.0000 C   0  0  1  0  0  0  0  0  0  0  0  0
   10.0944   -7.9847    0.0000 C   0  0  2  0  0  0  0  0  0  0  0  0
    9.3758   -8.3900    0.0000 C   0  0  1  0  0  0  0  0  0  0  0  0
    9.3676   -9.2150    0.0000 O   0  0  0  0  0  0  0  0  0  0  0  0
    8.6656   -7.9703    0.0000 O   0  0  0  0  0  0  0  0  0  0  0  0
    6.5098   -9.1862    0.0000 C   0  0  2  0  0  0  0  0  0  0  0  0
    7.2201   -9.6059    0.0000 C   0  0  2  0  0  0  0  0  0  0  0  0
    7.9387   -9.2006    0.0000 C   0  0  1  0  0  0  0  0  0  0  0  0
    7.9470   -8.3756    0.0000 C   0  0  2  0  0  0  0  0  0  0  0  0
    7.2367   -7.9560    0.0000 C   0  0  1  0  0  0  0  0  0  0  0  0
    6.5181   -8.3613    0.0000 O   0  0  0  0  0  0  0  0  0  0  0  0
    7.2450   -7.1310    0.0000 O   0  0  0  0  0  0  0  0  0  0  0  0
    9.4007   -5.9151    0.0000 O   0  0  0  0  0  0  0  0  0  0  0  0
    9.4173   -4.2652    0.0000 O   0  0  0  0  0  0  0  0  0  0  0  0
    7.2698   -4.6561    0.0000 C   0  0  0  0  0  0  0  0  0  0  0  0
    7.9884   -4.2508    0.0000 C   0  0  0  0  0  0  0  0  0  0  0  0
    8.6987   -4.6705    0.0000 C   0  0  0  0  0  0  0  0  0  0  0  0
    8.6904   -5.4955    0.0000 C   0  0  0  0  0  0  0  0  0  0  0  0
    7.9718   -5.9008    0.0000 C   0  0  0  0  0  0  0  0  0  0  0  0
    7.2615   -5.4811    0.0000 C   0  0  0  0  0  0  0  0  0  0  0  0
    4.3789   -7.9273    0.0000 O   0  0  0  0  0  0  0  0  0  0  0  0
    2.9749   -5.4380    0.0000 O   0  0  0  0  0  0  0  0  0  0  0  0
    5.8078   -7.9416    0.0000 O   0  0  0  0  0  0  0  0  0  0  0  0
    5.8327   -5.4668    0.0000 O   0  0  0  0  0  0  0  0  0  0  0  0
    5.1141   -5.8721    0.0000 C   0  0  0  0  0  0  0  0  0  0  0  0
    4.4038   -5.4524    0.0000 C   0  0  0  0  0  0  0  0  0  0  0  0
    3.6852   -5.8577    0.0000 C   0  0  0  0  0  0  0  0  0  0  0  0
    3.6769   -6.6827    0.0000 C   0  0  0  0  0  0  0  0  0  0  0  0
    4.3872   -7.1023    0.0000 C   0  0  0  0  0  0  0  0  0  0  0  0
    5.1058   -6.6970    0.0000 C   0  0  0  0  0  0  0  0  0  0  0  0
    5.8161   -7.1167    0.0000 C   0  0  0  0  0  0  0  0  0  0  0  0
    6.5347   -6.7114    0.0000 C   0  0  0  0  0  0  0  0  0  0  0  0
    6.5430   -5.8864    0.0000 C   0  0  0  0  0  0  0  0  0  0  0  0
 41 21  1  0  0  0  0
 19 21  1  1  0  0  0
 17  1  1  1  0  0  0
 16  2  1  6  0  0  0
 15  4  1  1  0  0  0
  4  3  1  0  0  0  0
 18 14  1  6  0  0  0
 12 14  1  1  0  0  0
 11  5  1  6  0  0  0
 10  6  1  1  0  0  0
  9  7  1  6  0  0  0
 13  8  1  0  0  0  0
  9  8  1  0  0  0  0
 10  9  1  0  0  0  0
 11 10  1  0  0  0  0
 12 11  1  0  0  0  0
 13 12  1  0  0  0  0
 20 15  1  0  0  0  0
 16 15  1  0  0  0  0
 17 16  1  0  0  0  0
 18 17  1  0  0  0  0
 19 18  1  0  0  0  0
 20 19  1  0  0  0  0
 42 29  1  0  0  0  0
 27 22  1  0  0  0  0
 26 23  1  0  0  0  0
 29 24  2  0  0  0  0
 25 24  1  0  0  0  0
 26 25  2  0  0  0  0
 27 26  1  0  0  0  0
 28 27  2  0  0  0  0
 29 28  1  0  0  0  0
 38 30  1  0  0  0  0
 36 31  1  0  0  0  0
 40 32  2  0  0  0  0
 42 33  1  0  0  0  0
 34 33  1  0  0  0  0
 39 34  2  0  0  0  0
 35 34  1  0  0  0  0
 36 35  2  0  0  0  0
 37 36  1  0  0  0  0
 38 37  2  0  0  0  0
 39 38  1  0  0  0  0
 40 39  1  0  0  0  0
 41 40  1  0  0  0  0
 42 41  2  0  0  0  0
M  END
>  <cdx:fragmentId>
5411

$$$$
