488822.cdx
  Mrv1902 05222410182D          

 37 40  0  0  0  0            999 V2000
    5.2267   -8.5220    0.0000 O   0  0  0  0  0  0  0  0  0  0  0  0
    3.8101   -6.0399    0.0000 O   0  0  0  0  0  0  0  0  0  0  0  0
   10.9588   -5.2504    0.0000 C   0  0  0  0  0  0  0  0  0  0  0  0
   10.2464   -4.8344    0.0000 O   0  0  0  0  0  0  0  0  0  0  0  0
    8.1010   -5.2362    0.0000 C   0  0  0  0  0  0  0  0  0  0  0  0
    8.8175   -4.8273    0.0000 C   0  0  0  0  0  0  0  0  0  0  0  0
    9.5299   -5.2433    0.0000 C   0  0  0  0  0  0  0  0  0  0  0  0
    9.5258   -6.0683    0.0000 C   0  0  0  0  0  0  0  0  0  0  0  0
    8.8093   -6.4773    0.0000 C   0  0  0  0  0  0  0  0  0  0  0  0
    8.0969   -6.0612    0.0000 C   0  0  0  0  0  0  0  0  0  0  0  0
    3.8224   -3.5649    0.0000 C   0  0  0  0  0  0  0  0  0  0  0  0
    5.2513   -3.5720    0.0000 C   0  0  0  0  0  0  0  0  0  0  0  0
    4.5348   -3.9810    0.0000 C   0  0  0  0  0  0  0  0  0  0  0  0
    4.5307   -4.8060    0.0000 C   0  0  0  0  0  0  0  0  0  0  0  0
    5.2431   -5.2220    0.0000 C   0  0  0  0  0  0  0  0  0  0  0  0
    9.5135   -8.5433    0.0000 O   0  0  0  0  0  0  0  0  0  0  0  0
    9.5053  -10.1933    0.0000 O   0  0  0  0  0  0  0  0  0  0  0  0
    8.0722  -11.0112    0.0000 O   0  0  0  0  0  0  0  0  0  0  0  0
    6.6474  -10.1791    0.0000 C   0  0  0  0  0  0  0  0  0  0  0  0
    7.3639   -9.7701    0.0000 C   0  0  1  0  0  0  0  0  0  0  0  0
    8.0763  -10.1862    0.0000 C   0  0  1  0  0  0  0  0  0  0  0  0
    8.7929   -9.7772    0.0000 C   0  0  2  0  0  0  0  0  0  0  0  0
    8.7970   -8.9522    0.0000 C   0  0  2  0  0  0  0  0  0  0  0  0
    8.0845   -8.5362    0.0000 C   0  0  1  0  0  0  0  0  0  0  0  0
    7.3680   -8.9451    0.0000 O   0  0  0  0  0  0  0  0  0  0  0  0
    8.0886   -7.7112    0.0000 O   0  0  0  0  0  0  0  0  0  0  0  0
    6.6556   -8.5291    0.0000 O   0  0  0  0  0  0  0  0  0  0  0  0
    6.6679   -6.0541    0.0000 O   0  0  0  0  0  0  0  0  0  0  0  0
    5.9514   -6.4631    0.0000 C   0  0  0  0  0  0  0  0  0  0  0  0
    5.2390   -6.0470    0.0000 C   0  0  0  0  0  0  0  0  0  0  0  0
    4.5225   -6.4560    0.0000 C   0  0  0  0  0  0  0  0  0  0  0  0
    4.5184   -7.2809    0.0000 C   0  0  0  0  0  0  0  0  0  0  0  0
    5.2308   -7.6970    0.0000 C   0  0  0  0  0  0  0  0  0  0  0  0
    5.9473   -7.2880    0.0000 C   0  0  0  0  0  0  0  0  0  0  0  0
    6.6597   -7.7041    0.0000 C   0  0  0  0  0  0  0  0  0  0  0  0
    7.3762   -7.2951    0.0000 C   0  0  0  0  0  0  0  0  0  0  0  0
    7.3803   -6.4702    0.0000 C   0  0  0  0  0  0  0  0  0  0  0  0
 33  1  1  0  0  0  0
 31  2  1  0  0  0  0
 37 10  1  0  0  0  0
  7  4  1  0  0  0  0
  4  3  1  0  0  0  0
 10  5  2  0  0  0  0
  6  5  1  0  0  0  0
  7  6  2  0  0  0  0
  8  7  1  0  0  0  0
  9  8  2  0  0  0  0
 10  9  1  0  0  0  0
 30 15  1  0  0  0  0
 13 11  1  0  0  0  0
 13 12  1  0  0  0  0
 14 13  2  0  0  0  0
 15 14  1  0  0  0  0
 36 26  1  0  0  0  0
 24 26  1  1  0  0  0
 23 16  1  6  0  0  0
 22 17  1  6  0  0  0
 21 18  1  1  0  0  0
 20 19  1  6  0  0  0
 25 20  1  0  0  0  0
 21 20  1  0  0  0  0
 22 21  1  0  0  0  0
 23 22  1  0  0  0  0
 24 23  1  0  0  0  0
 25 24  1  0  0  0  0
 35 27  2  0  0  0  0
 37 28  1  0  0  0  0
 29 28  1  0  0  0  0
 34 29  2  0  0  0  0
 30 29  1  0  0  0  0
 31 30  2  0  0  0  0
 32 31  1  0  0  0  0
 33 32  2  0  0  0  0
 34 33  1  0  0  0  0
 35 34  1  0  0  0  0
 36 35  1  0  0  0  0
 37 36  2  0  0  0  0
M  END
>  <cdx:groupId>
5890

>  <cdx:fragmentId>
5779

$$$$
