102004890.cdx
  Mrv1902 05222410192D          

 35 36  0  0  0  0            999 V2000
    7.6788  -12.5234    0.0000 C   0  0  0  0  0  0  0  0  0  0  0  0
    8.4858  -12.6950    0.0000 C   0  0  0  0  0  0  0  0  0  0  0  0
    9.0378  -12.0819    0.0000 C   0  0  0  0  0  0  0  0  0  0  0  0
    9.8448  -12.2534    0.0000 C   0  0  0  0  0  0  0  0  0  0  0  0
    7.4239  -11.7388    0.0000 O   0  0  0  0  0  0  0  0  0  0  0  0
    7.1268  -13.1365    0.0000 O   0  0  0  0  0  0  0  0  0  0  0  0
    8.7407  -13.4796    0.0000 C   0  0  0  0  0  0  0  0  0  0  0  0
   10.3968  -11.6403    0.0000 O   0  0  0  0  0  0  0  0  0  0  0  0
    8.9510  -15.2560    0.0000 O   0  0  0  0  0  0  0  0  0  0  0  0
    8.1664  -15.0011    0.0000 C   0  0  1  0  0  0  0  0  0  0  0  0
    8.1664  -14.1761    0.0000 C   0  0  2  0  0  0  0  0  0  0  0  0
    8.9510  -13.9212    0.0000 C   0  0  0  0  0  0  0  0  0  0  0  0
    9.4359  -14.5886    0.0000 C   0  0  0  0  0  0  0  0  0  0  0  0
    7.3817  -13.9212    0.0000 C   0  0  2  0  0  0  0  0  0  0  0  0
    6.8968  -14.5886    0.0000 C   0  0  0  0  0  0  0  0  0  0  0  0
    6.0726  -14.5516    0.0000 C   0  0  0  0  0  0  0  0  0  0  0  0
    5.5298  -15.1729    0.0000 C   0  0  0  0  0  0  0  0  0  0  0  0
    5.6772  -15.9846    0.0000 C   0  0  0  0  0  0  0  0  0  0  0  0
    6.4036  -16.3755    0.0000 C   0  0  1  0  0  0  0  0  0  0  0  0
    7.1623  -16.0513    0.0000 C   0  0  0  0  0  0  0  0  0  0  0  0
    7.3817  -15.2560    0.0000 C   0  0  0  0  0  0  0  0  0  0  0  0
   10.2609  -14.5886    0.0000 O   0  0  0  0  0  0  0  0  0  0  0  0
    9.2059  -13.1365    0.0000 C   0  0  0  0  0  0  0  0  0  0  0  0
    7.7835  -16.5941    0.0000 C   0  0  0  0  0  0  0  0  0  0  0  0
    5.7484  -13.7930    0.0000 C   0  0  0  0  0  0  0  0  0  0  0  0
    4.9293  -13.6945    0.0000 O   0  0  0  0  0  0  0  0  0  0  0  0
    4.6051  -12.9359    0.0000 C   0  0  0  0  0  0  0  0  0  0  0  0
    5.0999  -12.2758    0.0000 O   0  0  0  0  0  0  0  0  0  0  0  0
    3.7860  -12.8374    0.0000 C   0  0  0  0  0  0  0  0  0  0  0  0
    6.4036  -17.2005    0.0000 O   0  0  0  0  0  0  0  0  0  0  0  0
    5.6892  -17.6130    0.0000 C   0  0  0  0  0  0  0  0  0  0  0  0
    5.6892  -18.4380    0.0000 O   0  0  0  0  0  0  0  0  0  0  0  0
    4.9747  -17.2005    0.0000 C   0  0  0  0  0  0  0  0  0  0  0  0
    8.1664  -13.3511    0.0000 H   0  0  0  0  0  0  0  0  0  0  0  0
    8.1664  -15.8261    0.0000 H   0  0  0  0  0  0  0  0  0  0  0  0
  1  2  1  0  0  0  0
  2  3  2  0  0  0  0
  3  4  1  0  0  0  0
  1  5  2  0  0  0  0
  1  6  1  0  0  0  0
  2  7  1  0  0  0  0
  4  8  1  0  0  0  0
  9 10  1  0  0  0  0
 10 11  1  0  0  0  0
 11 12  1  0  0  0  0
 12 13  1  0  0  0  0
  9 13  1  0  0  0  0
 14 15  1  0  0  0  0
 15 16  1  0  0  0  0
 16 17  2  0  0  0  0
 17 18  1  0  0  0  0
 18 19  1  0  0  0  0
 19 20  1  0  0  0  0
 20 21  2  0  0  0  0
 21 10  1  0  0  0  0
 14 11  1  0  0  0  0
 13 22  2  0  0  0  0
 12 23  2  0  0  0  0
 20 24  1  0  0  0  0
 27 28  2  0  0  0  0
 27 29  1  0  0  0  0
 26 27  1  0  0  0  0
 25 26  1  0  0  0  0
 16 25  1  0  0  0  0
 31 32  2  0  0  0  0
 31 33  1  0  0  0  0
 30 31  1  0  0  0  0
 19 30  1  1  0  0  0
 14  6  1  6  0  0  0
 11 34  1  6  0  0  0
 10 35  1  1  0  0  0
M  END
>  <cdx:groupId>
14175

>  <cdx:fragmentId>
14098

$$$$
