4895.cdx
  Mrv1902 05222410192D          

 60 66  0  0  0  0            999 V2000
    6.7820   -6.8956    0.0000 C   0  0  0  0  0  0  0  0  0  0  0  0
    6.7820   -7.7206    0.0000 C   0  0  1  0  0  0  0  0  0  0  0  0
    7.4965   -8.1331    0.0000 C   0  0  2  0  0  0  0  0  0  0  0  0
    8.2110   -7.7206    0.0000 C   0  0  1  0  0  0  0  0  0  0  0  0
    8.2110   -6.8956    0.0000 C   0  0  2  0  0  0  0  0  0  0  0  0
    7.4965   -6.4831    0.0000 C   0  0  0  0  0  0  0  0  0  0  0  0
    8.9254   -8.1331    0.0000 C   0  0  0  0  0  0  0  0  0  0  0  0
    9.6399   -7.7206    0.0000 C   0  0  0  0  0  0  0  0  0  0  0  0
    9.6399   -6.8956    0.0000 C   0  0  2  0  0  0  0  0  0  0  0  0
    8.9254   -6.4831    0.0000 C   0  0  2  0  0  0  0  0  0  0  0  0
   10.3544   -6.4831    0.0000 C   0  0  1  0  0  0  0  0  0  0  0  0
   10.3544   -5.6581    0.0000 C   0  0  0  0  0  0  0  0  0  0  0  0
    9.6399   -5.2456    0.0000 C   0  0  0  0  0  0  0  0  0  0  0  0
    8.9254   -5.6581    0.0000 C   0  0  0  0  0  0  0  0  0  0  0  0
   11.0689   -6.8956    0.0000 C   0  0  0  0  0  0  0  0  0  0  0  0
   11.7833   -6.4831    0.0000 C   0  0  0  0  0  0  0  0  0  0  0  0
   11.7833   -5.6581    0.0000 C   0  0  2  0  0  0  0  0  0  0  0  0
   11.0689   -5.2456    0.0000 C   0  0  1  0  0  0  0  0  0  0  0  0
   12.4978   -5.2456    0.0000 C   0  0  0  0  0  0  0  0  0  0  0  0
   12.4978   -4.4206    0.0000 C   0  0  0  0  0  0  0  0  0  0  0  0
   11.7833   -4.0081    0.0000 C   0  0  1  0  0  0  0  0  0  0  0  0
   11.0689   -4.4206    0.0000 C   0  0  0  0  0  0  0  0  0  0  0  0
    7.0840   -8.8476    0.0000 C   0  0  0  0  0  0  0  0  0  0  0  0
    7.9090   -8.8476    0.0000 C   0  0  0  0  0  0  0  0  0  0  0  0
   12.1958   -3.2937    0.0000 C   0  0  0  0  0  0  0  0  0  0  0  0
   13.0208   -3.2937    0.0000 O   0  0  0  0  0  0  0  0  0  0  0  0
   11.7833   -2.5792    0.0000 O   0  0  0  0  0  0  0  0  0  0  0  0
    6.0676   -8.1331    0.0000 O   0  0  0  0  0  0  0  0  0  0  0  0
    8.2110   -6.0706    0.0000 C   0  0  0  0  0  0  0  0  0  0  0  0
    9.6399   -6.0706    0.0000 C   0  0  0  0  0  0  0  0  0  0  0  0
   10.3544   -4.8331    0.0000 H   0  0  0  0  0  0  0  0  0  0  0  0
   12.4978   -6.0706    0.0000 C   0  0  0  0  0  0  0  0  0  0  0  0
   11.3708   -3.2937    0.0000 C   0  0  0  0  0  0  0  0  0  0  0  0
   10.3544   -7.3081    0.0000 C   0  0  0  0  0  0  0  0  0  0  0  0
    8.9254   -7.3081    0.0000 H   0  0  0  0  0  0  0  0  0  0  0  0
    8.2110   -8.5456    0.0000 H   0  0  0  0  0  0  0  0  0  0  0  0
    8.2110   -5.2456    0.0000 O   0  0  0  0  0  0  0  0  0  0  0  0
    5.3531   -7.7206    0.0000 C   0  0  2  0  0  0  0  0  0  0  0  0
    5.3531   -6.8956    0.0000 O   0  0  0  0  0  0  0  0  0  0  0  0
    4.6386   -6.4831    0.0000 C   0  0  1  0  0  0  0  0  0  0  0  0
    3.9241   -6.8956    0.0000 C   0  0  1  0  0  0  0  0  0  0  0  0
    3.9241   -7.7206    0.0000 C   0  0  1  0  0  0  0  0  0  0  0  0
    4.6386   -8.1331    0.0000 C   0  0  1  0  0  0  0  0  0  0  0  0
    4.6386   -5.6581    0.0000 C   0  0  0  0  0  0  0  0  0  0  0  0
    3.2097   -8.1331    0.0000 O   0  0  0  0  0  0  0  0  0  0  0  0
    3.2097   -6.4831    0.0000 O   0  0  0  0  0  0  0  0  0  0  0  0
    4.6386   -8.9581    0.0000 O   0  0  0  0  0  0  0  0  0  0  0  0
    3.9241   -5.2456    0.0000 O   0  0  0  0  0  0  0  0  0  0  0  0
    3.9241   -9.3706    0.0000 C   0  0  2  0  0  0  0  0  0  0  0  0
    3.2097   -8.9581    0.0000 O   0  0  0  0  0  0  0  0  0  0  0  0
    2.4952   -9.3706    0.0000 C   0  0  1  0  0  0  0  0  0  0  0  0
    2.4952  -10.1956    0.0000 C   0  0  2  0  0  0  0  0  0  0  0  0
    3.2097  -10.6081    0.0000 C   0  0  1  0  0  0  0  0  0  0  0  0
    3.9241  -10.1956    0.0000 C   0  0  1  0  0  0  0  0  0  0  0  0
    1.7807   -8.9581    0.0000 C   0  0  0  0  0  0  0  0  0  0  0  0
    3.2097  -11.4331    0.0000 O   0  0  0  0  0  0  0  0  0  0  0  0
    1.7807  -10.6081    0.0000 O   0  0  0  0  0  0  0  0  0  0  0  0
    4.6386  -10.6081    0.0000 O   0  0  0  0  0  0  0  0  0  0  0  0
    1.0663   -9.3706    0.0000 O   0  0  0  0  0  0  0  0  0  0  0  0
    1.7807   -8.1331    0.0000 O   0  0  0  0  0  0  0  0  0  0  0  0
  1  2  1  0  0  0  0
  2  3  1  0  0  0  0
  3  4  1  0  0  0  0
  4  5  1  0  0  0  0
  5  6  1  0  0  0  0
  6  1  1  0  0  0  0
  4  7  1  0  0  0  0
  7  8  1  0  0  0  0
  8  9  1  0  0  0  0
  9 10  1  0  0  0  0
 10  5  1  0  0  0  0
  9 11  1  0  0  0  0
 11 12  1  0  0  0  0
 12 13  2  0  0  0  0
 13 14  1  0  0  0  0
 14 10  1  0  0  0  0
 11 15  1  0  0  0  0
 15 16  1  0  0  0  0
 16 17  1  0  0  0  0
 17 18  1  0  0  0  0
 18 12  1  0  0  0  0
 17 19  1  0  0  0  0
 19 20  1  0  0  0  0
 20 21  1  0  0  0  0
 21 22  1  0  0  0  0
 22 18  1  0  0  0  0
  3 23  1  6  0  0  0
  3 24  1  1  0  0  0
 21 25  1  1  0  0  0
 25 26  1  0  0  0  0
 25 27  2  0  0  0  0
  2 28  1  1  0  0  0
  5 29  1  1  0  0  0
  9 30  1  1  0  0  0
 18 31  1  1  0  0  0
 17 32  1  1  0  0  0
 21 33  1  6  0  0  0
 11 34  1  6  0  0  0
 10 35  1  6  0  0  0
  4 36  1  6  0  0  0
 14 37  2  0  0  0  0
 38 28  1  1  0  0  0
 38 39  1  0  0  0  0
 39 40  1  0  0  0  0
 40 41  1  0  0  0  0
 41 42  1  0  0  0  0
 42 43  1  0  0  0  0
 43 38  1  0  0  0  0
 40 44  1  1  0  0  0
 42 45  1  1  0  0  0
 41 46  1  1  0  0  0
 43 47  1  6  0  0  0
 44 48  1  0  0  0  0
 49 47  1  1  0  0  0
 49 50  1  0  0  0  0
 50 51  1  0  0  0  0
 51 52  1  0  0  0  0
 52 53  1  0  0  0  0
 53 54  1  0  0  0  0
 54 49  1  0  0  0  0
 51 55  1  1  0  0  0
 53 56  1  1  0  0  0
 52 57  1  6  0  0  0
 54 58  1  6  0  0  0
 55 59  1  0  0  0  0
 55 60  2  0  0  0  0
M  END
>  <cdx:fragmentId>
4796

$$$$
