489941.cdx
  Mrv1902 05222410242D          

 36 40  0  0  0  0            999 V2000
   10.1455   -8.3600    0.0000 C   0  0  0  0  0  0  0  0  0  0  0  0
    4.4297  -10.0100    0.0000 C   0  0  0  0  0  0  0  0  0  0  0  0
    3.7152  -10.4225    0.0000 O   0  0  0  0  0  0  0  0  0  0  0  0
    4.4297   -9.1850    0.0000 C   0  0  0  0  0  0  0  0  0  0  0  0
    5.1442   -8.7725    0.0000 C   0  0  0  0  0  0  0  0  0  0  0  0
    5.1442  -10.4225    0.0000 C   0  0  0  0  0  0  0  0  0  0  0  0
    5.5567  -11.1370    0.0000 C   0  0  0  0  0  0  0  0  0  0  0  0
    4.7317  -11.1370    0.0000 C   0  0  0  0  0  0  0  0  0  0  0  0
    5.8586  -10.0100    0.0000 C   0  0  2  0  0  0  0  0  0  0  0  0
    6.5731  -10.4225    0.0000 C   0  0  0  0  0  0  0  0  0  0  0  0
    7.2876  -10.0100    0.0000 C   0  0  0  0  0  0  0  0  0  0  0  0
    7.2876   -9.1850    0.0000 C   0  0  1  0  0  0  0  0  0  0  0  0
    7.2876   -8.3600    0.0000 C   0  0  0  0  0  0  0  0  0  0  0  0
    8.0020   -8.7725    0.0000 C   0  0  2  0  0  0  0  0  0  0  0  0
    8.0020   -9.5975    0.0000 C   0  0  0  0  0  0  0  0  0  0  0  0
    8.7165   -9.1850    0.0000 C   0  0  0  0  0  0  0  0  0  0  0  0
    9.4310   -8.7725    0.0000 C   0  0  0  0  0  0  0  0  0  0  0  0
    9.4310   -7.9475    0.0000 C   0  0  2  0  0  0  0  0  0  0  0  0
   10.1455   -7.5350    0.0000 C   0  0  0  0  0  0  0  0  0  0  0  0
   10.1455   -6.7100    0.0000 C   0  0  0  0  0  0  0  0  0  0  0  0
    9.4310   -6.2975    0.0000 C   0  0  0  0  0  0  0  0  0  0  0  0
    9.0185   -5.5830    0.0000 C   0  0  0  0  0  0  0  0  0  0  0  0
    9.8435   -5.5830    0.0000 C   0  0  0  0  0  0  0  0  0  0  0  0
    8.7165   -6.7100    0.0000 C   0  0  0  0  0  0  0  0  0  0  0  0
    8.7165   -7.5350    0.0000 C   0  0  0  0  0  0  0  0  0  0  0  0
    8.0020   -7.9475    0.0000 C   0  0  1  0  0  0  0  0  0  0  0  0
    8.0020   -7.1225    0.0000 H   0  0  0  0  0  0  0  0  0  0  0  0
    7.2876   -7.5350    0.0000 C   0  0  0  0  0  0  0  0  0  0  0  0
    6.5731   -7.9475    0.0000 C   0  0  0  0  0  0  0  0  0  0  0  0
    6.5731   -8.7725    0.0000 C   0  0  2  0  0  0  0  0  0  0  0  0
    5.8586   -9.1850    0.0000 C   0  0  1  0  0  0  0  0  0  0  0  0
    5.8586   -8.3600    0.0000 C   0  0  0  0  0  0  0  0  0  0  0  0
   10.1455   -9.1850    0.0000 O   0  0  0  0  0  0  0  0  0  0  0  0
   10.8599   -7.9475    0.0000 O   0  0  0  0  0  0  0  0  0  0  0  0
    6.5731   -9.5975    0.0000 H   0  0  0  0  0  0  0  0  0  0  0  0
    5.8586  -10.8350    0.0000 H   0  0  0  0  0  0  0  0  0  0  0  0
  2  3  2  0  0  0  0
  2  4  1  0  0  0  0
  4  5  1  0  0  0  0
  2  6  1  0  0  0  0
  6  7  1  0  0  0  0
  6  8  1  0  0  0  0
  6  9  1  0  0  0  0
  9 10  1  0  0  0  0
 10 11  1  0  0  0  0
 11 12  1  0  0  0  0
 12 13  1  1  0  0  0
 12 14  1  0  0  0  0
 14 15  1  6  0  0  0
 14 16  1  0  0  0  0
 16 17  1  0  0  0  0
 17 18  1  0  0  0  0
 18  1  1  1  0  0  0
 18 19  1  0  0  0  0
 19 20  1  0  0  0  0
 20 21  1  0  0  0  0
 21 22  1  0  0  0  0
 21 23  1  0  0  0  0
 21 24  1  0  0  0  0
 24 25  2  0  0  0  0
 18 25  1  0  0  0  0
 25 26  1  0  0  0  0
 14 26  1  0  0  0  0
 26 27  1  1  0  0  0
 26 28  1  0  0  0  0
 28 29  1  0  0  0  0
 29 30  1  0  0  0  0
 12 30  1  0  0  0  0
 30 31  1  0  0  0  0
  5 31  1  0  0  0  0
  9 31  1  0  0  0  0
 31 32  1  1  0  0  0
  1 33  2  0  0  0  0
  1 34  1  0  0  0  0
 30 35  1  6  0  0  0
  9 36  1  6  0  0  0
M  END
>  <cdx:groupId>
21745

>  <cdx:fragmentId>
21641

$$$$
