4900.cdx
  Mrv1902 05222410282D          

 77 86  0  0  0  0            999 V2000
    6.8269   -9.6060    0.0000 C   0  0  1  0  0  0  0  0  0  0  0  0
    6.8269   -8.7810    0.0000 C   0  0  0  0  0  0  0  0  0  0  0  0
    7.5414   -8.3685    0.0000 C   0  0  0  0  0  0  0  0  0  0  0  0
    7.5414  -10.0185    0.0000 C   0  0  2  0  0  0  0  0  0  0  0  0
    7.9539  -10.7330    0.0000 C   0  0  0  0  0  0  0  0  0  0  0  0
    7.1289  -10.7330    0.0000 C   0  0  0  0  0  0  0  0  0  0  0  0
    8.2559   -9.6060    0.0000 C   0  0  2  0  0  0  0  0  0  0  0  0
    8.2559  -10.4310    0.0000 H   0  0  0  0  0  0  0  0  0  0  0  0
    8.9703  -10.0185    0.0000 C   0  0  0  0  0  0  0  0  0  0  0  0
    9.6848   -9.6060    0.0000 C   0  0  0  0  0  0  0  0  0  0  0  0
    9.6848   -8.7810    0.0000 C   0  0  1  0  0  0  0  0  0  0  0  0
    9.6848   -7.9560    0.0000 C   0  0  0  0  0  0  0  0  0  0  0  0
   10.3993   -8.3685    0.0000 C   0  0  2  0  0  0  0  0  0  0  0  0
   10.3993   -9.1935    0.0000 C   0  0  0  0  0  0  0  0  0  0  0  0
   11.1137   -8.7810    0.0000 C   0  0  0  0  0  0  0  0  0  0  0  0
   11.8282   -8.3685    0.0000 C   0  0  0  0  0  0  0  0  0  0  0  0
   11.8282   -7.5435    0.0000 C   0  0  1  0  0  0  0  0  0  0  0  0
   12.5427   -7.1310    0.0000 C   0  0  0  0  0  0  0  0  0  0  0  0
   12.5427   -6.3060    0.0000 C   0  0  0  0  0  0  0  0  0  0  0  0
   11.8282   -5.8935    0.0000 C   0  0  1  0  0  0  0  0  0  0  0  0
   11.4157   -5.1790    0.0000 C   0  0  0  0  0  0  0  0  0  0  0  0
   12.2407   -5.1790    0.0000 C   0  0  0  0  0  0  0  0  0  0  0  0
   11.1137   -6.3060    0.0000 C   0  0  0  0  0  0  0  0  0  0  0  0
   11.1137   -7.1310    0.0000 C   0  0  1  0  0  0  0  0  0  0  0  0
   11.1137   -7.9560    0.0000 H   0  0  0  0  0  0  0  0  0  0  0  0
   10.3993   -7.5435    0.0000 C   0  0  1  0  0  0  0  0  0  0  0  0
    9.6848   -7.1310    0.0000 C   0  0  0  0  0  0  0  0  0  0  0  0
    8.9703   -7.5435    0.0000 C   0  0  0  0  0  0  0  0  0  0  0  0
    8.9703   -8.3685    0.0000 C   0  0  2  0  0  0  0  0  0  0  0  0
    8.2559   -8.7810    0.0000 C   0  0  1  0  0  0  0  0  0  0  0  0
    8.2559   -7.9560    0.0000 C   0  0  0  0  0  0  0  0  0  0  0  0
   10.5907   -5.1790    0.0000 O   0  0  0  0  0  0  0  0  0  0  0  0
   12.5427   -8.7810    0.0000 O   0  0  0  0  0  0  0  0  0  0  0  0
    8.9703   -9.1935    0.0000 H   0  0  0  0  0  0  0  0  0  0  0  0
    5.4048   -6.3047    0.0000 O   0  0  0  0  0  0  0  0  0  0  0  0
    6.1200   -5.8935    0.0000 C   0  0  0  0  0  0  0  0  0  0  0  0
    7.5489   -5.8961    0.0000 O   0  0  0  0  0  0  0  0  0  0  0  0
    6.8337   -6.3073    0.0000 C   0  0  1  0  0  0  0  0  0  0  0  0
    7.5459   -7.5461    0.0000 O   0  0  0  0  0  0  0  0  0  0  0  0
    6.8322   -7.1323    0.0000 C   0  0  2  0  0  0  0  0  0  0  0  0
    6.1155   -8.3685    0.0000 O   0  0  0  0  0  0  0  0  0  0  0  0
    6.1170   -7.5435    0.0000 C   0  0  1  0  0  0  0  0  0  0  0  0
    5.4032   -7.1297    0.0000 C   0  0  2  0  0  0  0  0  0  0  0  0
    1.8347   -5.0607    0.0000 O   0  0  0  0  0  0  0  0  0  0  0  0
    1.8332   -5.8857    0.0000 C   0  0  0  0  0  0  0  0  0  0  0  0
    2.5454   -7.1245    0.0000 O   0  0  0  0  0  0  0  0  0  0  0  0
    2.5469   -6.2995    0.0000 C   0  0  1  0  0  0  0  0  0  0  0  0
    3.2636   -5.0633    0.0000 O   0  0  0  0  0  0  0  0  0  0  0  0
    3.2621   -5.8883    0.0000 C   0  0  1  0  0  0  0  0  0  0  0  0
    4.6910   -5.8909    0.0000 O   0  0  0  0  0  0  0  0  0  0  0  0
    3.9758   -6.3021    0.0000 C   0  0  2  0  0  0  0  0  0  0  0  0
    4.6880   -7.5409    0.0000 O   0  0  0  0  0  0  0  0  0  0  0  0
    3.9743   -7.1271    0.0000 C   0  0  1  0  0  0  0  0  0  0  0  0
    3.2591   -7.5383    0.0000 C   0  0  2  0  0  0  0  0  0  0  0  0
    1.8256  -10.0107    0.0000 O   0  0  0  0  0  0  0  0  0  0  0  0
    1.8241  -10.8357    0.0000 C   0  0  0  0  0  0  0  0  0  0  0  0
    3.2531  -10.8383    0.0000 O   0  0  0  0  0  0  0  0  0  0  0  0
    2.5378  -11.2495    0.0000 C   0  0  1  0  0  0  0  0  0  0  0  0
    1.8211  -12.4857    0.0000 O   0  0  0  0  0  0  0  0  0  0  0  0
    2.5363  -12.0745    0.0000 C   0  0  1  0  0  0  0  0  0  0  0  0
    3.2485  -13.3133    0.0000 O   0  0  0  0  0  0  0  0  0  0  0  0
    3.2501  -12.4883    0.0000 C   0  0  2  0  0  0  0  0  0  0  0  0
    4.6790  -12.4909    0.0000 O   0  0  0  0  0  0  0  0  0  0  0  0
    3.9653  -12.0771    0.0000 C   0  0  1  0  0  0  0  0  0  0  0  0
    3.9668  -11.2521    0.0000 C   0  0  2  0  0  0  0  0  0  0  0  0
    5.4002   -8.7797    0.0000 O   0  0  0  0  0  0  0  0  0  0  0  0
    4.6865   -8.3659    0.0000 C   0  0  0  0  0  0  0  0  0  0  0  0
    3.2576   -8.3633    0.0000 O   0  0  0  0  0  0  0  0  0  0  0  0
    3.9713   -8.7771    0.0000 C   0  0  2  0  0  0  0  0  0  0  0  0
    3.2546  -10.0133    0.0000 O   0  0  0  0  0  0  0  0  0  0  0  0
    3.9698   -9.6021    0.0000 C   0  0  2  0  0  0  0  0  0  0  0  0
    4.6820  -10.8409    0.0000 O   0  0  0  0  0  0  0  0  0  0  0  0
    4.6835  -10.0159    0.0000 C   0  0  1  0  0  0  0  0  0  0  0  0
    5.3987   -9.6047    0.0000 C   0  0  2  0  0  0  0  0  0  0  0  0
    6.1124  -10.0185    0.0000 O   0  0  0  0  0  0  0  0  0  0  0  0
   10.3993   -6.7185    0.0000 O   0  0  0  0  0  0  0  0  0  0  0  0
   11.8282   -6.7185    0.0000 C   0  0  0  0  0  0  0  0  0  0  0  0
 74 75  1  1  0  0  0
 54 68  1  6  0  0  0
 43 52  1  6  0  0  0
 43 35  1  0  0  0  0
 36 35  1  0  0  0  0
 38 36  1  0  0  0  0
 38 37  1  1  0  0  0
 40 38  1  0  0  0  0
 40 39  1  6  0  0  0
 42 40  1  0  0  0  0
 42 41  1  1  0  0  0
 43 42  1  0  0  0  0
 54 46  1  0  0  0  0
 45 44  1  0  0  0  0
 47 45  1  6  0  0  0
 47 46  1  0  0  0  0
 49 47  1  0  0  0  0
 49 48  1  1  0  0  0
 51 49  1  0  0  0  0
 51 50  1  6  0  0  0
 53 51  1  0  0  0  0
 53 52  1  1  0  0  0
 54 53  1  0  0  0  0
 65 72  1  1  0  0  0
 65 57  1  0  0  0  0
 56 55  1  0  0  0  0
 58 56  1  1  0  0  0
 58 57  1  0  0  0  0
 60 58  1  0  0  0  0
 60 59  1  6  0  0  0
 62 60  1  0  0  0  0
 62 61  1  1  0  0  0
 64 62  1  0  0  0  0
 64 63  1  6  0  0  0
 65 64  1  0  0  0  0
 74 66  1  0  0  0  0
 67 66  1  0  0  0  0
 69 67  1  0  0  0  0
 69 68  1  1  0  0  0
 71 69  1  0  0  0  0
 71 70  1  1  0  0  0
  1  2  1  0  0  0  0
  2  3  1  0  0  0  0
  1  4  1  0  0  0  0
  4  5  1  6  0  0  0
  4  6  1  1  0  0  0
  4  7  1  0  0  0  0
  7  8  1  6  0  0  0
  7  9  1  0  0  0  0
  9 10  1  0  0  0  0
 10 11  1  0  0  0  0
 11 12  1  1  0  0  0
 11 13  1  0  0  0  0
 13 14  1  6  0  0  0
 13 15  1  0  0  0  0
 15 16  1  0  0  0  0
 16 17  1  0  0  0  0
 17 18  1  0  0  0  0
 18 19  1  0  0  0  0
 19 20  1  0  0  0  0
 20 21  1  1  0  0  0
 20 22  1  6  0  0  0
 20 23  1  0  0  0  0
 23 24  1  0  0  0  0
 24 25  1  1  0  0  0
 17 24  1  0  0  0  0
 24 26  1  0  0  0  0
 13 26  1  0  0  0  0
 26 27  1  0  0  0  0
 27 28  1  0  0  0  0
 28 29  1  0  0  0  0
 11 29  1  0  0  0  0
 29 30  1  0  0  0  0
  3 30  1  0  0  0  0
  7 30  1  0  0  0  0
 30 31  1  1  0  0  0
 21 32  2  0  0  0  0
 16 33  2  0  0  0  0
  1 75  1  1  0  0  0
 73 71  1  0  0  0  0
 73 72  1  6  0  0  0
 74 73  1  0  0  0  0
 29 34  1  6  0  0  0
 26 76  1  1  0  0  0
 17 77  1  1  0  0  0
 76 77  1  0  0  0  0
M  END
>  <cdx:fragmentId>
95

$$$$
