490351.cdx
  Mrv1902 05222410252D          

 43 47  0  0  0  0            999 V2000
    5.3433   -8.3688    0.0000 O   0  0  0  0  0  0  0  0  0  0  0  0
    6.0673   -7.1368    0.0000 O   0  0  0  0  0  0  0  0  0  0  0  0
    5.3496   -7.5438    0.0000 C   0  0  2  0  0  0  0  0  0  0  0  0
    4.6384   -7.1259    0.0000 C   0  0  1  0  0  0  0  0  0  0  0  0
    4.6447   -6.3009    0.0000 C   0  0  2  0  0  0  0  0  0  0  0  0
    5.3623   -5.8939    0.0000 C   0  0  1  0  0  0  0  0  0  0  0  0
    6.0736   -6.3118    0.0000 C   0  0  1  0  0  0  0  0  0  0  0  0
    6.7912   -5.9048    0.0000 C   0  0  0  0  0  0  0  0  0  0  0  0
    7.5025   -6.3228    0.0000 O   0  0  0  0  0  0  0  0  0  0  0  0
    8.9314   -6.3337    0.0000 O   0  0  0  0  0  0  0  0  0  0  0  0
    8.2201   -5.9158    0.0000 C   0  0  2  0  0  0  0  0  0  0  0  0
    8.2264   -5.0908    0.0000 C   0  0  1  0  0  0  0  0  0  0  0  0
    8.9440   -4.6838    0.0000 C   0  0  2  0  0  0  0  0  0  0  0  0
    9.6553   -5.1017    0.0000 C   0  0  1  0  0  0  0  0  0  0  0  0
    9.6490   -5.9267    0.0000 C   0  0  0  0  0  0  0  0  0  0  0  0
   10.3729   -4.6947    0.0000 O   0  0  0  0  0  0  0  0  0  0  0  0
    8.9503   -3.8588    0.0000 O   0  0  0  0  0  0  0  0  0  0  0  0
    7.5151   -4.6728    0.0000 O   0  0  0  0  0  0  0  0  0  0  0  0
    5.3686   -5.0689    0.0000 O   0  0  0  0  0  0  0  0  0  0  0  0
    3.9334   -5.8829    0.0000 O   0  0  0  0  0  0  0  0  0  0  0  0
    3.9207   -7.5329    0.0000 O   0  0  0  0  0  0  0  0  0  0  0  0
    6.7591  -10.8514    0.0000 O   0  0  0  0  0  0  0  0  0  0  0  0
    4.6223   -9.6025    0.0000 C   0  0  0  0  0  0  0  0  0  0  0  0
    5.3345  -10.0188    0.0000 O   0  0  0  0  0  0  0  0  0  0  0  0
   12.4748  -10.8818    0.0000 C   0  0  0  0  0  0  0  0  0  0  0  0
   11.7581  -11.2905    0.0000 O   0  0  0  0  0  0  0  0  0  0  0  0
   10.3380   -9.6329    0.0000 C   0  0  0  0  0  0  0  0  0  0  0  0
   11.0502  -10.0492    0.0000 C   0  0  0  0  0  0  0  0  0  0  0  0
   11.0458  -10.8742    0.0000 C   0  0  0  0  0  0  0  0  0  0  0  0
   10.3292  -11.2829    0.0000 C   0  0  0  0  0  0  0  0  0  0  0  0
    9.6169  -10.8666    0.0000 C   0  0  0  0  0  0  0  0  0  0  0  0
    9.6213  -10.0416    0.0000 C   0  0  0  0  0  0  0  0  0  0  0  0
    8.1880  -10.8590    0.0000 O   0  0  0  0  0  0  0  0  0  0  0  0
    8.2012   -8.3840    0.0000 O   0  0  0  0  0  0  0  0  0  0  0  0
    7.4845   -8.7927    0.0000 C   0  0  0  0  0  0  0  0  0  0  0  0
    6.7722   -8.3764    0.0000 C   0  0  0  0  0  0  0  0  0  0  0  0
    6.0556   -8.7851    0.0000 C   0  0  0  0  0  0  0  0  0  0  0  0
    6.0512   -9.6101    0.0000 C   0  0  0  0  0  0  0  0  0  0  0  0
    6.7635  -10.0264    0.0000 C   0  0  0  0  0  0  0  0  0  0  0  0
    7.4801   -9.6177    0.0000 C   0  0  0  0  0  0  0  0  0  0  0  0
    8.1924  -10.0340    0.0000 C   0  0  0  0  0  0  0  0  0  0  0  0
    8.9090   -9.6253    0.0000 C   0  0  0  0  0  0  0  0  0  0  0  0
    8.9134   -8.8003    0.0000 C   0  0  0  0  0  0  0  0  0  0  0  0
 39 22  1  0  0  0  0
 38 24  1  0  0  0  0
 24 23  1  0  0  0  0
 42 32  1  0  0  0  0
 29 26  1  0  0  0  0
 26 25  1  0  0  0  0
 32 27  2  0  0  0  0
 28 27  1  0  0  0  0
 29 28  2  0  0  0  0
 30 29  1  0  0  0  0
 31 30  2  0  0  0  0
 32 31  1  0  0  0  0
 37  1  1  0  0  0  0
  2  3  1  0  0  0  0
 41 33  2  0  0  0  0
 43 34  1  0  0  0  0
 35 34  1  0  0  0  0
 40 35  2  0  0  0  0
 36 35  1  0  0  0  0
 37 36  2  0  0  0  0
 38 37  1  0  0  0  0
 39 38  2  0  0  0  0
 40 39  1  0  0  0  0
 41 40  1  0  0  0  0
 42 41  1  0  0  0  0
 43 42  2  0  0  0  0
  3  4  1  0  0  0  0
  4  5  1  0  0  0  0
  5  6  1  0  0  0  0
  6  7  1  0  0  0  0
  2  7  1  0  0  0  0
 10 11  1  0  0  0  0
 11 12  1  0  0  0  0
 12 13  1  0  0  0  0
 13 14  1  0  0  0  0
 14 15  1  0  0  0  0
 10 15  1  0  0  0  0
 14 16  1  6  0  0  0
 13 17  1  1  0  0  0
 12 18  1  6  0  0  0
 11  9  1  1  0  0  0
  8  9  1  0  0  0  0
  7  8  1  1  0  0  0
  6 19  1  6  0  0  0
  5 20  1  1  0  0  0
  4 21  1  6  0  0  0
  3  1  1  1  0  0  0
M  END
>  <cdx:groupId>
135

>  <cdx:fragmentId>
45

$$$$
