5490334.cdx
  Mrv1902 05222410262D          

 35 38  0  0  0  0            999 V2000
    5.1001   -8.2412    0.0000 O   0  0  0  0  0  0  0  0  0  0  0  0
    4.3856   -8.6537    0.0000 C   0  0  1  0  0  0  0  0  0  0  0  0
    4.3856   -9.4787    0.0000 C   0  0  2  0  0  0  0  0  0  0  0  0
    5.1001   -9.8912    0.0000 C   0  0  1  0  0  0  0  0  0  0  0  0
    5.8146   -9.4787    0.0000 C   0  0  2  0  0  0  0  0  0  0  0  0
    5.8146   -8.6537    0.0000 C   0  0  2  0  0  0  0  0  0  0  0  0
    3.6711   -8.2412    0.0000 C   0  0  0  0  0  0  0  0  0  0  0  0
    3.6711   -7.4162    0.0000 O   0  0  0  0  0  0  0  0  0  0  0  0
    2.9567   -8.6537    0.0000 O   0  0  0  0  0  0  0  0  0  0  0  0
    6.5290   -9.8912    0.0000 O   0  0  0  0  0  0  0  0  0  0  0  0
    5.1001  -10.7162    0.0000 O   0  0  0  0  0  0  0  0  0  0  0  0
    3.6711   -9.8912    0.0000 O   0  0  0  0  0  0  0  0  0  0  0  0
    6.5290   -8.2412    0.0000 O   0  0  0  0  0  0  0  0  0  0  0  0
    8.6724   -7.0037    0.0000 C   0  0  0  0  0  0  0  0  0  0  0  0
    8.6724   -6.1787    0.0000 C   0  0  0  0  0  0  0  0  0  0  0  0
    7.9580   -5.7662    0.0000 C   0  0  0  0  0  0  0  0  0  0  0  0
    7.2435   -6.1787    0.0000 C   0  0  0  0  0  0  0  0  0  0  0  0
    6.5290   -5.7662    0.0000 C   0  0  0  0  0  0  0  0  0  0  0  0
    5.8146   -6.1787    0.0000 C   0  0  0  0  0  0  0  0  0  0  0  0
    5.8146   -7.0037    0.0000 C   0  0  0  0  0  0  0  0  0  0  0  0
    6.5290   -7.4162    0.0000 C   0  0  0  0  0  0  0  0  0  0  0  0
    7.2435   -7.0037    0.0000 C   0  0  0  0  0  0  0  0  0  0  0  0
    7.9580   -7.4162    0.0000 O   0  0  0  0  0  0  0  0  0  0  0  0
    7.9580   -4.9412    0.0000 O   0  0  0  0  0  0  0  0  0  0  0  0
    5.1001   -7.4162    0.0000 O   0  0  0  0  0  0  0  0  0  0  0  0
    6.5290   -4.9412    0.0000 O   0  0  0  0  0  0  0  0  0  0  0  0
    9.3869   -5.7662    0.0000 O   0  0  0  0  0  0  0  0  0  0  0  0
    9.3869   -7.4162    0.0000 C   0  0  0  0  0  0  0  0  0  0  0  0
   10.1014   -7.0037    0.0000 C   0  0  0  0  0  0  0  0  0  0  0  0
   10.8159   -7.4162    0.0000 C   0  0  0  0  0  0  0  0  0  0  0  0
   10.8159   -8.2412    0.0000 C   0  0  0  0  0  0  0  0  0  0  0  0
   10.1014   -8.6537    0.0000 C   0  0  0  0  0  0  0  0  0  0  0  0
    9.3869   -8.2412    0.0000 C   0  0  0  0  0  0  0  0  0  0  0  0
   11.5303   -8.6537    0.0000 O   0  0  0  0  0  0  0  0  0  0  0  0
   11.5303   -7.0037    0.0000 O   0  0  0  0  0  0  0  0  0  0  0  0
  1  2  1  0  0  0  0
  2  3  1  0  0  0  0
  3  4  1  0  0  0  0
  4  5  1  0  0  0  0
  5  6  1  0  0  0  0
  1  6  1  0  0  0  0
  7  8  2  0  0  0  0
  7  9  1  0  0  0  0
  2  7  1  1  0  0  0
  5 10  1  6  0  0  0
  4 11  1  1  0  0  0
  3 12  1  6  0  0  0
 14 15  2  0  0  0  0
 15 16  1  0  0  0  0
 16 17  1  0  0  0  0
 17 18  1  0  0  0  0
 18 19  2  0  0  0  0
 19 20  1  0  0  0  0
 20 21  2  0  0  0  0
 21 22  1  0  0  0  0
 17 22  2  0  0  0  0
 22 23  1  0  0  0  0
 14 23  1  0  0  0  0
 16 24  2  0  0  0  0
 20 25  1  0  0  0  0
 18 26  1  0  0  0  0
 15 27  1  0  0  0  0
 28 29  1  0  0  0  0
 29 30  2  0  0  0  0
 30 31  1  0  0  0  0
 31 32  2  0  0  0  0
 32 33  1  0  0  0  0
 28 33  2  0  0  0  0
 31 34  1  0  0  0  0
 30 35  1  0  0  0  0
 14 28  1  0  0  0  0
 13 21  1  0  0  0  0
  6 13  1  1  0  0  0
M  END
>  <cdx:groupId>
6337

>  <cdx:fragmentId>
6258

$$$$
