490798.cdx
  Mrv1902 05222410202D          

 21 23  0  0  0  0            999 V2000
    7.0357   -6.8465    0.0000 C   0  0  0  0  0  0  0  0  0  0  0  0
    7.7502   -7.2590    0.0000 C   0  0  0  0  0  0  0  0  0  0  0  0
    8.4647   -6.8465    0.0000 C   0  0  0  0  0  0  0  0  0  0  0  0
    9.1792   -7.2590    0.0000 C   0  0  0  0  0  0  0  0  0  0  0  0
    9.1792   -8.0840    0.0000 C   0  0  0  0  0  0  0  0  0  0  0  0
    8.4647   -8.4965    0.0000 C   0  0  0  0  0  0  0  0  0  0  0  0
    7.7502   -8.0840    0.0000 C   0  0  0  0  0  0  0  0  0  0  0  0
    7.0357   -8.4965    0.0000 O   0  0  0  0  0  0  0  0  0  0  0  0
    6.3213   -8.0840    0.0000 C   0  0  0  0  0  0  0  0  0  0  0  0
    5.6068   -8.4965    0.0000 C   0  0  0  0  0  0  0  0  0  0  0  0
    4.8923   -8.0840    0.0000 C   0  0  0  0  0  0  0  0  0  0  0  0
    4.8923   -7.2590    0.0000 C   0  0  0  0  0  0  0  0  0  0  0  0
    5.6068   -6.8465    0.0000 C   0  0  0  0  0  0  0  0  0  0  0  0
    6.3213   -7.2590    0.0000 C   0  0  0  0  0  0  0  0  0  0  0  0
    7.0357   -6.0215    0.0000 O   0  0  0  0  0  0  0  0  0  0  0  0
    8.4647   -9.3215    0.0000 O   0  0  0  0  0  0  0  0  0  0  0  0
    9.1792   -9.7340    0.0000 C   0  0  0  0  0  0  0  0  0  0  0  0
    9.8936   -8.4965    0.0000 O   0  0  0  0  0  0  0  0  0  0  0  0
   10.6081   -8.0840    0.0000 C   0  0  0  0  0  0  0  0  0  0  0  0
    4.1779   -6.8465    0.0000 O   0  0  0  0  0  0  0  0  0  0  0  0
    8.4647   -6.0215    0.0000 O   0  0  0  0  0  0  0  0  0  0  0  0
  1  2  1  0  0  0  0
  2  3  1  0  0  0  0
  3  4  2  0  0  0  0
  4  5  1  0  0  0  0
  5  6  2  0  0  0  0
  6  7  1  0  0  0  0
  2  7  2  0  0  0  0
  7  8  1  0  0  0  0
  8  9  1  0  0  0  0
  9 10  1  0  0  0  0
 10 11  2  0  0  0  0
 11 12  1  0  0  0  0
 12 13  2  0  0  0  0
 13 14  1  0  0  0  0
  9 14  2  0  0  0  0
  1 14  1  0  0  0  0
  1 15  2  0  0  0  0
 16 17  1  0  0  0  0
  6 16  1  0  0  0  0
 18 19  1  0  0  0  0
  5 18  1  0  0  0  0
 12 20  1  0  0  0  0
  3 21  1  0  0  0  0
M  END
>  <cdx:fragmentId>
6347

$$$$
