491808.cdx
  Mrv1902 05222410272D          

 44 48  0  0  0  0            999 V2000
    8.5129   -6.3885    0.0000 C   0  0  0  0  0  0  0  0  0  0  0  0
    8.5129   -5.5635    0.0000 C   0  0  0  0  0  0  0  0  0  0  0  0
    9.2274   -5.1510    0.0000 C   0  0  0  0  0  0  0  0  0  0  0  0
    9.9419   -5.5635    0.0000 C   0  0  0  0  0  0  0  0  0  0  0  0
    9.9419   -6.3885    0.0000 C   0  0  0  0  0  0  0  0  0  0  0  0
    9.2274   -6.8010    0.0000 C   0  0  0  0  0  0  0  0  0  0  0  0
    9.2274   -4.3260    0.0000 O   0  0  0  0  0  0  0  0  0  0  0  0
    9.9419   -3.9135    0.0000 C   0  0  0  0  0  0  0  0  0  0  0  0
   10.6564   -5.1510    0.0000 O   0  0  0  0  0  0  0  0  0  0  0  0
    5.6551   -8.8635    0.0000 O   0  0  0  0  0  0  0  0  0  0  0  0
    4.2261   -6.3885    0.0000 O   0  0  0  0  0  0  0  0  0  0  0  0
    9.9419   -8.8635    0.0000 O   0  0  0  0  0  0  0  0  0  0  0  0
    9.9419  -10.5135    0.0000 O   0  0  0  0  0  0  0  0  0  0  0  0
    8.5129  -11.3385    0.0000 O   0  0  0  0  0  0  0  0  0  0  0  0
    6.3695  -11.7510    0.0000 O   0  0  0  0  0  0  0  0  0  0  0  0
    4.9406  -12.5760    0.0000 O   0  0  0  0  0  0  0  0  0  0  0  0
    3.5116  -11.7510    0.0000 O   0  0  0  0  0  0  0  0  0  0  0  0
    3.5116  -10.1010    0.0000 C   0  0  0  0  0  0  0  0  0  0  0  0
    4.2261  -10.5135    0.0000 C   0  0  1  0  0  0  0  0  0  0  0  0
    4.2261  -11.3385    0.0000 C   0  0  1  0  0  0  0  0  0  0  0  0
    4.9406  -11.7510    0.0000 C   0  0  2  0  0  0  0  0  0  0  0  0
    5.6551  -11.3385    0.0000 C   0  0  2  0  0  0  0  0  0  0  0  0
    5.6551  -10.5135    0.0000 C   0  0  1  0  0  0  0  0  0  0  0  0
    4.9406  -10.1010    0.0000 O   0  0  0  0  0  0  0  0  0  0  0  0
    6.3695  -10.1010    0.0000 O   0  0  0  0  0  0  0  0  0  0  0  0
    7.0840  -10.5135    0.0000 C   0  0  0  0  0  0  0  0  0  0  0  0
    7.7985  -10.1010    0.0000 C   0  0  2  0  0  0  0  0  0  0  0  0
    8.5129  -10.5135    0.0000 C   0  0  1  0  0  0  0  0  0  0  0  0
    9.2274  -10.1010    0.0000 C   0  0  1  0  0  0  0  0  0  0  0  0
    9.2274   -9.2760    0.0000 C   0  0  2  0  0  0  0  0  0  0  0  0
    8.5129   -8.8635    0.0000 C   0  0  1  0  0  0  0  0  0  0  0  0
    7.7985   -9.2760    0.0000 O   0  0  0  0  0  0  0  0  0  0  0  0
    8.5129   -8.0385    0.0000 O   0  0  0  0  0  0  0  0  0  0  0  0
    7.0840   -8.8635    0.0000 O   0  0  0  0  0  0  0  0  0  0  0  0
    7.0840   -6.3885    0.0000 O   0  0  0  0  0  0  0  0  0  0  0  0
    6.3695   -6.8010    0.0000 C   0  0  0  0  0  0  0  0  0  0  0  0
    5.6551   -6.3885    0.0000 C   0  0  0  0  0  0  0  0  0  0  0  0
    4.9406   -6.8010    0.0000 C   0  0  0  0  0  0  0  0  0  0  0  0
    4.9406   -7.6260    0.0000 C   0  0  0  0  0  0  0  0  0  0  0  0
    5.6551   -8.0385    0.0000 C   0  0  0  0  0  0  0  0  0  0  0  0
    6.3695   -7.6260    0.0000 C   0  0  0  0  0  0  0  0  0  0  0  0
    7.0840   -8.0385    0.0000 C   0  0  0  0  0  0  0  0  0  0  0  0
    7.7985   -7.6260    0.0000 C   0  0  0  0  0  0  0  0  0  0  0  0
    7.7985   -6.8010    0.0000 C   0  0  0  0  0  0  0  0  0  0  0  0
 40 10  1  0  0  0  0
 38 11  1  0  0  0  0
 44  1  1  0  0  0  0
 43 33  1  0  0  0  0
 31 33  1  1  0  0  0
 30 12  1  6  0  0  0
 29 13  1  1  0  0  0
 28 14  1  1  0  0  0
 27 26  1  1  0  0  0
 26 25  1  0  0  0  0
 23 25  1  1  0  0  0
 22 15  1  6  0  0  0
 21 16  1  6  0  0  0
 20 17  1  1  0  0  0
 19 18  1  6  0  0  0
 24 19  1  0  0  0  0
 20 19  1  0  0  0  0
 21 20  1  0  0  0  0
 22 21  1  0  0  0  0
 23 22  1  0  0  0  0
 24 23  1  0  0  0  0
 32 27  1  0  0  0  0
 28 27  1  0  0  0  0
 29 28  1  0  0  0  0
 30 29  1  0  0  0  0
 31 30  1  0  0  0  0
 32 31  1  0  0  0  0
 42 34  2  0  0  0  0
 44 35  1  0  0  0  0
 36 35  1  0  0  0  0
 41 36  2  0  0  0  0
 37 36  1  0  0  0  0
 38 37  2  0  0  0  0
 39 38  1  0  0  0  0
 40 39  2  0  0  0  0
 41 40  1  0  0  0  0
 42 41  1  0  0  0  0
 43 42  1  0  0  0  0
 44 43  2  0  0  0  0
  1  2  1  0  0  0  0
  2  3  2  0  0  0  0
  3  4  1  0  0  0  0
  4  5  2  0  0  0  0
  5  6  1  0  0  0  0
  1  6  2  0  0  0  0
  7  8  1  0  0  0  0
  3  7  1  0  0  0  0
  4  9  1  0  0  0  0
M  END
>  <cdx:fragmentId>
6538

$$$$
