492121.cdx
  Mrv1902 05222410272D          

 41 44  0  0  0  0            999 V2000
    3.6688   -7.6908    0.0000 C   0  0  0  0  0  0  0  0  0  0  0  0
    4.3833   -8.1033    0.0000 C   0  0  0  0  0  0  0  0  0  0  0  0
    5.0978   -7.6908    0.0000 C   0  0  0  0  0  0  0  0  0  0  0  0
    5.8122   -8.1033    0.0000 C   0  0  0  0  0  0  0  0  0  0  0  0
    6.5267   -7.6908    0.0000 C   0  0  0  0  0  0  0  0  0  0  0  0
    3.6688   -6.8658    0.0000 O   0  0  0  0  0  0  0  0  0  0  0  0
    2.9544   -8.1033    0.0000 O   0  0  0  0  0  0  0  0  0  0  0  0
    7.2412   -8.1033    0.0000 O   0  0  0  0  0  0  0  0  0  0  0  0
    7.9556   -7.6908    0.0000 C   0  0  0  0  0  0  0  0  0  0  0  0
    9.3846   -7.6908    0.0000 O   0  0  0  0  0  0  0  0  0  0  0  0
    8.6701   -8.1033    0.0000 C   0  0  1  0  0  0  0  0  0  0  0  0
    8.6701   -8.9283    0.0000 C   0  0  2  0  0  0  0  0  0  0  0  0
    9.3846   -9.3408    0.0000 C   0  0  1  0  0  0  0  0  0  0  0  0
   10.0991   -8.9283    0.0000 C   0  0  2  0  0  0  0  0  0  0  0  0
   10.0991   -8.1033    0.0000 C   0  0  2  0  0  0  0  0  0  0  0  0
   10.8135   -7.6908    0.0000 O   0  0  0  0  0  0  0  0  0  0  0  0
   14.3859   -8.1033    0.0000 C   0  0  0  0  0  0  0  0  0  0  0  0
   14.3859   -8.9283    0.0000 C   0  0  0  0  0  0  0  0  0  0  0  0
   13.6714   -9.3408    0.0000 C   0  0  0  0  0  0  0  0  0  0  0  0
   12.9569   -8.9283    0.0000 C   0  0  0  0  0  0  0  0  0  0  0  0
   12.2425   -9.3408    0.0000 C   0  0  0  0  0  0  0  0  0  0  0  0
   11.5280   -8.9283    0.0000 C   0  0  0  0  0  0  0  0  0  0  0  0
   11.5280   -8.1033    0.0000 C   0  0  0  0  0  0  0  0  0  0  0  0
   12.2425   -7.6908    0.0000 C   0  0  0  0  0  0  0  0  0  0  0  0
   12.9569   -8.1033    0.0000 C   0  0  0  0  0  0  0  0  0  0  0  0
   13.6714   -7.6908    0.0000 O   0  0  0  0  0  0  0  0  0  0  0  0
   13.6714  -10.1658    0.0000 O   0  0  0  0  0  0  0  0  0  0  0  0
   15.1004   -7.6908    0.0000 C   0  0  0  0  0  0  0  0  0  0  0  0
   15.1004   -6.8658    0.0000 C   0  0  0  0  0  0  0  0  0  0  0  0
   15.8148   -6.4533    0.0000 C   0  0  0  0  0  0  0  0  0  0  0  0
   16.5293   -6.8658    0.0000 C   0  0  0  0  0  0  0  0  0  0  0  0
   16.5293   -7.6908    0.0000 C   0  0  0  0  0  0  0  0  0  0  0  0
   15.8148   -8.1033    0.0000 C   0  0  0  0  0  0  0  0  0  0  0  0
   17.2438   -6.4533    0.0000 O   0  0  0  0  0  0  0  0  0  0  0  0
   12.2425  -10.1658    0.0000 O   0  0  0  0  0  0  0  0  0  0  0  0
   10.8135   -9.3408    0.0000 O   0  0  0  0  0  0  0  0  0  0  0  0
    9.3846  -10.1658    0.0000 O   0  0  0  0  0  0  0  0  0  0  0  0
    7.9556   -9.3408    0.0000 O   0  0  0  0  0  0  0  0  0  0  0  0
    6.5267   -6.8658    0.0000 O   0  0  0  0  0  0  0  0  0  0  0  0
    4.6853   -6.9764    0.0000 C   0  0  0  0  0  0  0  0  0  0  0  0
    5.5103   -6.9764    0.0000 O   0  0  0  0  0  0  0  0  0  0  0  0
  1  2  1  0  0  0  0
  2  3  1  0  0  0  0
  3  4  1  0  0  0  0
  4  5  1  0  0  0  0
  1  6  2  0  0  0  0
  1  7  1  0  0  0  0
  8  9  1  0  0  0  0
 10 11  1  0  0  0  0
 11 12  1  0  0  0  0
 12 13  1  0  0  0  0
 13 14  1  0  0  0  0
 14 15  1  0  0  0  0
 10 15  1  0  0  0  0
 17 18  2  0  0  0  0
 18 19  1  0  0  0  0
 19 20  1  0  0  0  0
 20 21  1  0  0  0  0
 21 22  2  0  0  0  0
 22 23  1  0  0  0  0
 23 24  2  0  0  0  0
 24 25  1  0  0  0  0
 20 25  2  0  0  0  0
 25 26  1  0  0  0  0
 17 26  1  0  0  0  0
 19 27  2  0  0  0  0
 28 29  1  0  0  0  0
 29 30  2  0  0  0  0
 30 31  1  0  0  0  0
 31 32  2  0  0  0  0
 32 33  1  0  0  0  0
 28 33  2  0  0  0  0
 31 34  1  0  0  0  0
 17 28  1  0  0  0  0
 21 35  1  0  0  0  0
 16 23  1  0  0  0  0
 15 16  1  1  0  0  0
 14 36  1  6  0  0  0
 13 37  1  1  0  0  0
 12 38  1  6  0  0  0
 11  9  1  1  0  0  0
  5  8  1  0  0  0  0
  5 39  2  0  0  0  0
  3 40  1  0  0  0  0
  3 41  1  0  0  0  0
M  END
>  <cdx:fragmentId>
37

$$$$
