492390.cdx
  Mrv1902 05222410232D          

 36 39  0  0  0  0            999 V2000
    7.2559   -6.3800    0.0000 H   0  0  0  0  0  0  0  0  0  0  0  0
    5.1125   -7.6175    0.0000 H   0  0  0  0  0  0  0  0  0  0  0  0
    4.3981   -7.2050    0.0000 O   0  0  0  0  0  0  0  0  0  0  0  0
    7.2559   -5.5550    0.0000 O   0  0  0  0  0  0  0  0  0  0  0  0
    6.5415   -7.6175    0.0000 O   0  0  0  0  0  0  0  0  0  0  0  0
    7.2559   -8.8550    0.0000 O   0  0  0  0  0  0  0  0  0  0  0  0
    5.1125  -10.9175    0.0000 O   0  0  0  0  0  0  0  0  0  0  0  0
    6.5415  -11.7425    0.0000 O   0  0  0  0  0  0  0  0  0  0  0  0
    7.9704  -10.9175    0.0000 O   0  0  0  0  0  0  0  0  0  0  0  0
   10.1138   -8.0300    0.0000 O   0  0  0  0  0  0  0  0  0  0  0  0
   10.1138   -9.6800    0.0000 O   0  0  0  0  0  0  0  0  0  0  0  0
    8.6849  -10.5050    0.0000 O   0  0  0  0  0  0  0  0  0  0  0  0
    3.6836   -5.9675    0.0000 O   0  0  0  0  0  0  0  0  0  0  0  0
    4.3981   -5.5550    0.0000 C   0  0  0  0  0  0  0  0  0  0  0  0
    6.5415   -5.9675    0.0000 C   0  0  0  0  0  0  0  0  0  0  0  0
    5.8270   -5.5550    0.0000 O   0  0  0  0  0  0  0  0  0  0  0  0
    5.1125   -5.9675    0.0000 C   0  0  1  0  0  0  0  0  0  0  0  0
    5.1125   -6.7925    0.0000 C   0  0  2  0  0  0  0  0  0  0  0  0
    7.2559   -7.2050    0.0000 O   0  0  0  0  0  0  0  0  0  0  0  0
    6.5415   -6.7925    0.0000 C   0  0  2  0  0  0  0  0  0  0  0  0
    5.8270   -7.2050    0.0000 C   0  0  1  0  0  0  0  0  0  0  0  0
    5.8270   -8.0300    0.0000 O   0  0  0  0  0  0  0  0  0  0  0  0
    5.8270   -9.6800    0.0000 C   0  0  0  0  0  0  0  0  0  0  0  0
    5.8270  -10.5050    0.0000 C   0  0  0  0  0  0  0  0  0  0  0  0
    6.5415  -10.9175    0.0000 C   0  0  0  0  0  0  0  0  0  0  0  0
    7.2559  -10.5050    0.0000 C   0  0  0  0  0  0  0  0  0  0  0  0
    7.2559   -8.0300    0.0000 C   0  0  0  0  0  0  0  0  0  0  0  0
    6.5415   -8.4425    0.0000 C   0  0  0  0  0  0  0  0  0  0  0  0
    6.5415   -9.2675    0.0000 C   0  0  0  0  0  0  0  0  0  0  0  0
    7.2559   -9.6800    0.0000 C   0  0  0  0  0  0  0  0  0  0  0  0
    8.6849   -8.0300    0.0000 C   0  0  0  0  0  0  0  0  0  0  0  0
    7.9704   -8.4425    0.0000 C   0  0  0  0  0  0  0  0  0  0  0  0
    7.9704   -9.2675    0.0000 C   0  0  0  0  0  0  0  0  0  0  0  0
    8.6849   -9.6800    0.0000 C   0  0  0  0  0  0  0  0  0  0  0  0
    9.3994   -9.2675    0.0000 C   0  0  0  0  0  0  0  0  0  0  0  0
    9.3994   -8.4425    0.0000 C   0  0  0  0  0  0  0  0  0  0  0  0
 20  1  1  1  0  0  0
 21  2  1  6  0  0  0
 18  3  1  6  0  0  0
 15  4  1  0  0  0  0
 27  5  2  0  0  0  0
 28  6  2  0  0  0  0
 24  7  1  0  0  0  0
 25  8  1  0  0  0  0
 26  9  1  0  0  0  0
 36 10  1  0  0  0  0
 35 11  1  0  0  0  0
 34 12  1  0  0  0  0
 14 13  1  0  0  0  0
 17 14  1  1  0  0  0
 15 20  1  0  0  0  0
 16 15  1  0  0  0  0
 17 16  1  0  0  0  0
 18 17  1  0  0  0  0
 21 18  1  0  0  0  0
 19 27  1  0  0  0  0
 20 19  1  0  0  0  0
 21 20  1  0  0  0  0
 22 21  1  0  0  0  0
 28 22  1  0  0  0  0
 23 29  2  0  0  0  0
 24 23  1  0  0  0  0
 25 24  2  0  0  0  0
 26 25  1  0  0  0  0
 30 26  2  0  0  0  0
 27 32  1  0  0  0  0
 29 28  1  0  0  0  0
 30 29  1  0  0  0  0
 33 30  1  0  0  0  0
 31 36  1  0  0  0  0
 32 31  2  0  0  0  0
 33 32  1  0  0  0  0
 34 33  2  0  0  0  0
 35 34  1  0  0  0  0
 36 35  2  0  0  0  0
M  END
>  <cdx:fragmentId>
5

$$$$
