492427.cdx
  Mrv1902 05222410242D          

 48 52  0  0  0  0            999 V2000
    8.1171  -11.6365    0.0000 O   0  0  0  0  0  0  0  0  0  0  0  0
    6.6881  -11.6341    0.0000 O   0  0  0  0  0  0  0  0  0  0  0  0
    7.4019  -12.0478    0.0000 C   0  0  2  0  0  0  0  0  0  0  0  0
    7.4006  -12.8728    0.0000 C   0  0  1  0  0  0  0  0  0  0  0  0
    6.6854  -13.2841    0.0000 C   0  0  2  0  0  0  0  0  0  0  0  0
    5.9716  -12.8704    0.0000 C   0  0  1  0  0  0  0  0  0  0  0  0
    5.9730  -12.0454    0.0000 C   0  0  1  0  0  0  0  0  0  0  0  0
    5.2592  -11.6318    0.0000 C   0  0  0  0  0  0  0  0  0  0  0  0
    4.5440  -12.0431    0.0000 O   0  0  0  0  0  0  0  0  0  0  0  0
    5.2565  -13.2818    0.0000 O   0  0  0  0  0  0  0  0  0  0  0  0
    6.6841  -14.1091    0.0000 O   0  0  0  0  0  0  0  0  0  0  0  0
    8.1144  -13.2865    0.0000 O   0  0  0  0  0  0  0  0  0  0  0  0
    9.5501   -9.1638    0.0000 O   0  0  0  0  0  0  0  0  0  0  0  0
    9.5474  -10.8138    0.0000 O   0  0  0  0  0  0  0  0  0  0  0  0
    6.6895  -10.8091    0.0000 C   0  0  0  0  0  0  0  0  0  0  0  0
    7.4046  -10.3978    0.0000 C   0  0  1  0  0  0  0  0  0  0  0  0
    8.1184  -10.8115    0.0000 C   0  0  1  0  0  0  0  0  0  0  0  0
    8.8336  -10.4001    0.0000 C   0  0  2  0  0  0  0  0  0  0  0  0
    8.8349   -9.5751    0.0000 C   0  0  2  0  0  0  0  0  0  0  0  0
    8.1211   -9.1615    0.0000 C   0  0  1  0  0  0  0  0  0  0  0  0
    7.4060   -9.5728    0.0000 O   0  0  0  0  0  0  0  0  0  0  0  0
    8.1225   -8.3365    0.0000 O   0  0  0  0  0  0  0  0  0  0  0  0
    5.2633   -9.1568    0.0000 O   0  0  0  0  0  0  0  0  0  0  0  0
    3.8384   -6.6794    0.0000 O   0  0  0  0  0  0  0  0  0  0  0  0
   10.9844   -5.8662    0.0000 C   0  0  0  0  0  0  0  0  0  0  0  0
   10.2707   -5.4525    0.0000 O   0  0  0  0  0  0  0  0  0  0  0  0
    8.1266   -5.8615    0.0000 C   0  0  0  0  0  0  0  0  0  0  0  0
    8.8417   -5.4501    0.0000 C   0  0  0  0  0  0  0  0  0  0  0  0
    9.5555   -5.8638    0.0000 C   0  0  0  0  0  0  0  0  0  0  0  0
    9.5541   -6.6888    0.0000 C   0  0  0  0  0  0  0  0  0  0  0  0
    8.8390   -7.1001    0.0000 C   0  0  0  0  0  0  0  0  0  0  0  0
    8.1252   -6.6865    0.0000 C   0  0  0  0  0  0  0  0  0  0  0  0
    3.8425   -4.2044    0.0000 C   0  0  0  0  0  0  0  0  0  0  0  0
    5.2714   -4.2068    0.0000 C   0  0  0  0  0  0  0  0  0  0  0  0
    4.5562   -4.6181    0.0000 C   0  0  0  0  0  0  0  0  0  0  0  0
    4.5549   -5.4431    0.0000 C   0  0  0  0  0  0  0  0  0  0  0  0
    5.2687   -5.8568    0.0000 C   0  0  0  0  0  0  0  0  0  0  0  0
    6.6922   -9.1591    0.0000 O   0  0  0  0  0  0  0  0  0  0  0  0
    6.6963   -6.6841    0.0000 O   0  0  0  0  0  0  0  0  0  0  0  0
    5.9811   -7.0954    0.0000 C   0  0  0  0  0  0  0  0  0  0  0  0
    5.2673   -6.6818    0.0000 C   0  0  0  0  0  0  0  0  0  0  0  0
    4.5522   -7.0931    0.0000 C   0  0  0  0  0  0  0  0  0  0  0  0
    4.5508   -7.9181    0.0000 C   0  0  0  0  0  0  0  0  0  0  0  0
    5.2646   -8.3318    0.0000 C   0  0  0  0  0  0  0  0  0  0  0  0
    5.9798   -7.9204    0.0000 C   0  0  0  0  0  0  0  0  0  0  0  0
    6.6936   -8.3341    0.0000 C   0  0  0  0  0  0  0  0  0  0  0  0
    7.4087   -7.9228    0.0000 C   0  0  0  0  0  0  0  0  0  0  0  0
    7.4101   -7.0978    0.0000 C   0  0  0  0  0  0  0  0  0  0  0  0
 47 22  1  0  0  0  0
 20 22  1  1  0  0  0
 19 13  1  6  0  0  0
 18 14  1  6  0  0  0
 16 15  1  6  0  0  0
 17  1  1  1  0  0  0
 21 16  1  0  0  0  0
 17 16  1  0  0  0  0
 18 17  1  0  0  0  0
 19 18  1  0  0  0  0
 20 19  1  0  0  0  0
 21 20  1  0  0  0  0
 44 23  1  0  0  0  0
 42 24  1  0  0  0  0
 48 32  1  0  0  0  0
 29 26  1  0  0  0  0
 26 25  1  0  0  0  0
 32 27  2  0  0  0  0
 28 27  1  0  0  0  0
 29 28  2  0  0  0  0
 30 29  1  0  0  0  0
 31 30  2  0  0  0  0
 32 31  1  0  0  0  0
 41 37  1  0  0  0  0
 35 33  1  0  0  0  0
 35 34  1  0  0  0  0
 36 35  2  0  0  0  0
 37 36  1  0  0  0  0
 46 38  2  0  0  0  0
 48 39  1  0  0  0  0
 40 39  1  0  0  0  0
 45 40  2  0  0  0  0
 41 40  1  0  0  0  0
 42 41  2  0  0  0  0
 43 42  1  0  0  0  0
 44 43  2  0  0  0  0
 45 44  1  0  0  0  0
 46 45  1  0  0  0  0
 47 46  1  0  0  0  0
 48 47  2  0  0  0  0
  2  3  1  0  0  0  0
  3  4  1  0  0  0  0
  4  5  1  0  0  0  0
  5  6  1  0  0  0  0
  6  7  1  0  0  0  0
  2  7  1  0  0  0  0
  8  9  1  0  0  0  0
  7  8  1  1  0  0  0
  6 10  1  6  0  0  0
  5 11  1  1  0  0  0
  4 12  1  6  0  0  0
  3  1  1  1  0  0  0
M  END
>  <cdx:groupId>
7082

>  <cdx:fragmentId>
6937

$$$$
