102004929.cdx
  Mrv1902 05222410282D          

 40 46  0  0  0  0            999 V2000
   10.6029   -8.4147    0.0000 C   0  0  1  0  0  0  0  0  0  0  0  0
   10.3393   -9.1964    0.0000 C   0  0  0  0  0  0  0  0  0  0  0  0
   10.6349   -9.9666    0.0000 C   0  0  1  0  0  0  0  0  0  0  0  0
   10.0516   -9.3833    0.0000 O   0  0  0  0  0  0  0  0  0  0  0  0
    9.2266   -9.3833    0.0000 C   0  0  0  0  0  0  0  0  0  0  0  0
    8.6432   -9.9666    0.0000 C   0  0  2  0  0  0  0  0  0  0  0  0
    7.9287   -9.5541    0.0000 C   0  0  1  0  0  0  0  0  0  0  0  0
    7.2142   -9.9666    0.0000 C   0  0  0  0  0  0  0  0  0  0  0  0
    7.2142  -10.7916    0.0000 C   0  0  0  0  0  0  0  0  0  0  0  0
    6.4998  -11.2041    0.0000 C   0  0  0  0  0  0  0  0  0  0  0  0
    6.4998  -12.0291    0.0000 C   0  0  0  0  0  0  0  0  0  0  0  0
    7.2142  -12.4416    0.0000 C   0  0  0  0  0  0  0  0  0  0  0  0
    7.9287  -12.0291    0.0000 C   0  0  0  0  0  0  0  0  0  0  0  0
    7.9287  -11.2041    0.0000 C   0  0  2  0  0  0  0  0  0  0  0  0
    8.6432  -10.7916    0.0000 C   0  0  0  0  0  0  0  0  0  0  0  0
    9.2266  -11.3750    0.0000 C   0  0  0  0  0  0  0  0  0  0  0  0
   10.0516  -11.3750    0.0000 C   0  0  0  0  0  0  0  0  0  0  0  0
   10.6349  -10.7916    0.0000 C   0  0  1  0  0  0  0  0  0  0  0  0
   11.4195  -11.0466    0.0000 C   0  0  0  0  0  0  0  0  0  0  0  0
   11.9045  -10.3791    0.0000 O   0  0  0  0  0  0  0  0  0  0  0  0
   11.4195   -9.7117    0.0000 C   0  0  1  0  0  0  0  0  0  0  0  0
   11.8619   -9.0152    0.0000 C   0  0  2  0  0  0  0  0  0  0  0  0
   12.2077   -8.2889    0.0000 O   0  0  0  0  0  0  0  0  0  0  0  0
   11.7518   -7.6262    0.0000 C   0  0  0  0  0  0  0  0  0  0  0  0
   10.9499   -7.6890    0.0000 C   0  0  1  0  0  0  0  0  0  0  0  0
   11.4221   -8.3172    0.0000 C   0  0  0  0  0  0  0  0  0  0  0  0
    9.6830   -8.6961    0.0000 C   0  0  0  0  0  0  0  0  0  0  0  0
    8.6432  -12.4416    0.0000 O   0  0  0  0  0  0  0  0  0  0  0  0
   11.6745  -11.8312    0.0000 O   0  0  0  0  0  0  0  0  0  0  0  0
   12.1643   -6.9117    0.0000 O   0  0  0  0  0  0  0  0  0  0  0  0
    9.4071   -7.9186    0.0000 O   0  0  0  0  0  0  0  0  0  0  0  0
   10.5374   -6.9746    0.0000 C   0  0  0  0  0  0  0  0  0  0  0  0
   12.2445   -9.7117    0.0000 C   0  0  0  0  0  0  0  0  0  0  0  0
    8.6432  -11.6166    0.0000 C   0  0  0  0  0  0  0  0  0  0  0  0
    9.8385   -8.1044    0.0000 C   0  0  0  0  0  0  0  0  0  0  0  0
   10.8275  -11.5938    0.0000 O   0  0  0  0  0  0  0  0  0  0  0  0
    7.9287   -8.7291    0.0000 O   0  0  0  0  0  0  0  0  0  0  0  0
    8.6885   -8.7579    0.0000 O   0  0  0  0  0  0  0  0  0  0  0  0
    8.3951   -9.1798    0.0000 H   0  0  0  0  0  0  0  0  0  0  0  0
   12.5764   -9.4277    0.0000 H   0  0  0  0  0  0  0  0  0  0  0  0
  1  2  1  0  0  0  0
  2  3  1  0  0  0  0
  3  4  1  1  0  0  0
  4  5  1  0  0  0  0
  5  6  1  0  0  0  0
  6  7  1  0  0  0  0
  7  8  1  0  0  0  0
  8  9  2  0  0  0  0
  9 10  1  0  0  0  0
 10 11  2  0  0  0  0
 11 12  1  0  0  0  0
 12 13  1  0  0  0  0
 13 14  1  0  0  0  0
 14 15  1  0  0  0  0
 15 16  1  0  0  0  0
 16 17  1  0  0  0  0
 17 18  1  0  0  0  0
 18 19  1  0  0  0  0
 19 20  1  0  0  0  0
 20 21  1  0  0  0  0
 21 22  1  0  0  0  0
 22 23  1  0  0  0  0
 23 24  1  0  0  0  0
 24 25  1  0  0  0  0
  1 25  1  0  0  0  0
  1 26  1  6  0  0  0
 22 26  1  6  0  0  0
  3 21  1  0  0  0  0
  3 18  1  0  0  0  0
  6 15  1  0  0  0  0
  9 14  1  0  0  0  0
  5 27  1  0  0  0  0
 27  2  1  0  0  0  0
 13 28  2  0  0  0  0
 19 29  2  0  0  0  0
 24 30  2  0  0  0  0
 27 31  2  0  0  0  0
 25 32  1  6  0  0  0
 21 33  1  1  0  0  0
 14 34  1  6  0  0  0
  1 35  1  0  0  0  0
 18 36  1  1  0  0  0
  7 37  1  1  0  0  0
  5 38  1  0  0  0  0
  6 39  1  6  0  0  0
 22 40  1  0  0  0  0
M  END
>  <cdx:groupId>
8759

>  <cdx:fragmentId>
8636

$$$$
