493018.cdx
  Mrv1902 05222410182D          

 25 28  0  0  0  0            999 V2000
    9.2494   -6.6289    0.0000 O   0  0  0  0  0  0  0  0  0  0  0  0
    9.7343   -5.9614    0.0000 C   0  0  0  0  0  0  0  0  0  0  0  0
    9.2494   -5.2940    0.0000 C   0  0  1  0  0  0  0  0  0  0  0  0
    8.4648   -5.5489    0.0000 C   0  0  0  0  0  0  0  0  0  0  0  0
    7.7503   -5.1364    0.0000 C   0  0  0  0  0  0  0  0  0  0  0  0
    7.0358   -5.5489    0.0000 C   0  0  0  0  0  0  0  0  0  0  0  0
    7.0358   -6.3739    0.0000 C   0  0  0  0  0  0  0  0  0  0  0  0
    7.7503   -6.7864    0.0000 C   0  0  0  0  0  0  0  0  0  0  0  0
    8.4648   -6.3739    0.0000 C   0  0  0  0  0  0  0  0  0  0  0  0
    7.7503   -7.6114    0.0000 C   0  0  0  0  0  0  0  0  0  0  0  0
    7.0358   -8.0239    0.0000 C   0  0  0  0  0  0  0  0  0  0  0  0
    6.3214   -7.6114    0.0000 C   0  0  0  0  0  0  0  0  0  0  0  0
    5.6069   -8.0239    0.0000 C   0  0  0  0  0  0  0  0  0  0  0  0
    4.8924   -7.6114    0.0000 C   0  0  0  0  0  0  0  0  0  0  0  0
    4.8924   -6.7864    0.0000 C   0  0  0  0  0  0  0  0  0  0  0  0
    5.6069   -6.3739    0.0000 C   0  0  0  0  0  0  0  0  0  0  0  0
    6.3214   -6.7864    0.0000 C   0  0  0  0  0  0  0  0  0  0  0  0
    7.7503   -4.3114    0.0000 O   0  0  0  0  0  0  0  0  0  0  0  0
    6.3214   -5.1364    0.0000 O   0  0  0  0  0  0  0  0  0  0  0  0
    9.5043   -4.5094    0.0000 C   0  0  0  0  0  0  0  0  0  0  0  0
    5.1944   -8.7384    0.0000 C   0  0  0  0  0  0  0  0  0  0  0  0
    6.0194   -8.7384    0.0000 C   0  0  0  0  0  0  0  0  0  0  0  0
    5.6069   -9.4529    0.0000 O   0  0  0  0  0  0  0  0  0  0  0  0
    6.8444   -8.7384    0.0000 O   0  0  0  0  0  0  0  0  0  0  0  0
    6.0194  -10.1673    0.0000 C   0  0  0  0  0  0  0  0  0  0  0  0
  1  2  1  0  0  0  0
  2  3  1  0  0  0  0
  3  4  1  0  0  0  0
  4  5  1  0  0  0  0
  5  6  1  0  0  0  0
  6  7  1  0  0  0  0
  7  8  1  0  0  0  0
  8  9  1  0  0  0  0
  4  9  2  0  0  0  0
  1  9  1  0  0  0  0
 10 11  1  0  0  0  0
 11 12  2  0  0  0  0
 12 13  1  0  0  0  0
 13 14  1  0  0  0  0
 14 15  1  0  0  0  0
 15 16  1  0  0  0  0
 16 17  1  0  0  0  0
 12 17  1  0  0  0  0
 17  7  2  0  0  0  0
 10  8  2  0  0  0  0
  5 18  2  0  0  0  0
  6 19  2  0  0  0  0
  3 20  1  1  0  0  0
 13 21  1  0  0  0  0
 13 22  1  0  0  0  0
 22 23  1  0  0  0  0
 22 24  2  0  0  0  0
 23 25  1  0  0  0  0
M  END
>  <cdx:groupId>
246772

>  <cdx:fragmentId>
246697

$$$$
