493017.cdx
  Mrv1902 05222410282D          

 23 25  0  0  0  0            999 V2000
    8.1939   -6.9927    0.0000 C   0  0  0  0  0  0  0  0  0  0  0  0
    8.1939   -6.1677    0.0000 C   0  0  0  0  0  0  0  0  0  0  0  0
    7.4794   -5.7552    0.0000 C   0  0  0  0  0  0  0  0  0  0  0  0
    6.7650   -6.1677    0.0000 C   0  0  0  0  0  0  0  0  0  0  0  0
    6.7650   -6.9927    0.0000 C   0  0  0  0  0  0  0  0  0  0  0  0
    6.0505   -7.4052    0.0000 C   0  0  0  0  0  0  0  0  0  0  0  0
    5.3360   -6.9927    0.0000 C   0  0  0  0  0  0  0  0  0  0  0  0
    4.6216   -7.4052    0.0000 C   0  0  0  0  0  0  0  0  0  0  0  0
    4.6216   -8.2302    0.0000 C   0  0  0  0  0  0  0  0  0  0  0  0
    5.3360   -8.6427    0.0000 C   0  0  0  0  0  0  0  0  0  0  0  0
    6.0505   -8.2302    0.0000 C   0  0  0  0  0  0  0  0  0  0  0  0
    6.7650   -8.6427    0.0000 C   0  0  0  0  0  0  0  0  0  0  0  0
    7.4794   -8.2302    0.0000 C   0  0  0  0  0  0  0  0  0  0  0  0
    7.4794   -7.4052    0.0000 C   0  0  0  0  0  0  0  0  0  0  0  0
    8.9084   -7.4052    0.0000 C   0  0  0  0  0  0  0  0  0  0  0  0
    8.9084   -8.2302    0.0000 O   0  0  0  0  0  0  0  0  0  0  0  0
    9.6228   -6.9927    0.0000 O   0  0  0  0  0  0  0  0  0  0  0  0
    8.9084   -4.9302    0.0000 C   0  0  0  0  0  0  0  0  0  0  0  0
    8.9084   -5.7552    0.0000 C   0  0  0  0  0  0  0  0  0  0  0  0
    9.6228   -6.1677    0.0000 C   0  0  0  0  0  0  0  0  0  0  0  0
    6.0505   -5.7552    0.0000 O   0  0  0  0  0  0  0  0  0  0  0  0
    7.4794   -4.9302    0.0000 O   0  0  0  0  0  0  0  0  0  0  0  0
    5.3360   -9.4677    0.0000 C   0  0  0  0  0  0  0  0  0  0  0  0
  1  2  2  0  0  0  0
  2  3  1  0  0  0  0
  3  4  1  0  0  0  0
  4  5  1  0  0  0  0
  5  6  1  0  0  0  0
  6  7  1  0  0  0  0
  7  8  2  0  0  0  0
  8  9  1  0  0  0  0
  9 10  2  0  0  0  0
 10 11  1  0  0  0  0
  6 11  2  0  0  0  0
 11 12  1  0  0  0  0
 12 13  2  0  0  0  0
 13 14  1  0  0  0  0
  1 14  1  0  0  0  0
  5 14  2  0  0  0  0
 15 16  2  0  0  0  0
 15 17  1  0  0  0  0
  1 15  1  0  0  0  0
 18 19  1  0  0  0  0
 19 20  1  0  0  0  0
  2 19  1  0  0  0  0
  4 21  2  0  0  0  0
  3 22  2  0  0  0  0
 10 23  1  0  0  0  0
M  END
>  <cdx:fragmentId>
246617

$$$$
