493020.cdx
  Mrv1902 05222410202D          

 24 27  0  0  0  0            999 V2000
    9.6537   -8.2406    0.0000 O   0  0  0  0  0  0  0  0  0  0  0  0
   10.1386   -7.5732    0.0000 C   0  0  0  0  0  0  0  0  0  0  0  0
    9.6537   -6.9058    0.0000 C   0  0  0  0  0  0  0  0  0  0  0  0
    8.8691   -7.1607    0.0000 C   0  0  0  0  0  0  0  0  0  0  0  0
    8.1546   -6.7482    0.0000 C   0  0  0  0  0  0  0  0  0  0  0  0
    7.4401   -7.1607    0.0000 C   0  0  0  0  0  0  0  0  0  0  0  0
    7.4401   -7.9857    0.0000 C   0  0  0  0  0  0  0  0  0  0  0  0
    8.1546   -8.3982    0.0000 C   0  0  0  0  0  0  0  0  0  0  0  0
    8.8691   -7.9857    0.0000 C   0  0  0  0  0  0  0  0  0  0  0  0
    8.1546   -9.2232    0.0000 C   0  0  0  0  0  0  0  0  0  0  0  0
    7.4401   -9.6357    0.0000 C   0  0  0  0  0  0  0  0  0  0  0  0
    6.7257   -9.2232    0.0000 C   0  0  0  0  0  0  0  0  0  0  0  0
    6.0112   -9.6357    0.0000 C   0  0  1  0  0  0  0  0  0  0  0  0
    5.2967   -9.2232    0.0000 C   0  0  2  0  0  0  0  0  0  0  0  0
    5.2967   -8.3982    0.0000 C   0  0  0  0  0  0  0  0  0  0  0  0
    6.0112   -7.9857    0.0000 C   0  0  0  0  0  0  0  0  0  0  0  0
    6.7257   -8.3982    0.0000 C   0  0  0  0  0  0  0  0  0  0  0  0
    6.7257   -6.7482    0.0000 O   0  0  0  0  0  0  0  0  0  0  0  0
    8.1546   -5.9232    0.0000 O   0  0  0  0  0  0  0  0  0  0  0  0
    6.4237  -10.3502    0.0000 C   0  0  0  0  0  0  0  0  0  0  0  0
    9.9086   -6.1211    0.0000 C   0  0  0  0  0  0  0  0  0  0  0  0
    4.5822   -9.6357    0.0000 O   0  0  0  0  0  0  0  0  0  0  0  0
    5.5987  -10.3502    0.0000 O   0  0  0  0  0  0  0  0  0  0  0  0
   10.7156   -5.9496    0.0000 O   0  0  0  0  0  0  0  0  0  0  0  0
  1  2  1  0  0  0  0
  2  3  1  0  0  0  0
  3  4  1  0  0  0  0
  4  5  1  0  0  0  0
  5  6  1  0  0  0  0
  6  7  1  0  0  0  0
  7  8  1  0  0  0  0
  8  9  1  0  0  0  0
  4  9  2  0  0  0  0
  1  9  1  0  0  0  0
 10 11  1  0  0  0  0
 11 12  2  0  0  0  0
 12 13  1  0  0  0  0
 13 14  1  0  0  0  0
 14 15  1  0  0  0  0
 15 16  1  0  0  0  0
 16 17  1  0  0  0  0
 12 17  1  0  0  0  0
 17  7  2  0  0  0  0
 10  8  2  0  0  0  0
  6 18  2  0  0  0  0
  5 19  2  0  0  0  0
 13 20  1  6  0  0  0
  3 21  1  0  0  0  0
 14 22  1  1  0  0  0
 13 23  1  1  0  0  0
 21 24  1  0  0  0  0
M  END
>  <cdx:fragmentId>
12041

$$$$
