493014.cdx
  Mrv1902 05222410272D          

 24 27  0  0  0  0            999 V2000
    6.6079   -7.2652    0.0000 C   0  0  0  0  0  0  0  0  0  0  0  0
    6.6079   -8.0902    0.0000 C   0  0  0  0  0  0  0  0  0  0  0  0
    7.3224   -8.5027    0.0000 C   0  0  0  0  0  0  0  0  0  0  0  0
    8.0369   -8.0902    0.0000 C   0  0  0  0  0  0  0  0  0  0  0  0
    8.0369   -7.2652    0.0000 C   0  0  0  0  0  0  0  0  0  0  0  0
    7.3224   -6.8527    0.0000 C   0  0  0  0  0  0  0  0  0  0  0  0
    5.8935   -6.8527    0.0000 C   0  0  0  0  0  0  0  0  0  0  0  0
    5.1790   -7.2652    0.0000 C   0  0  0  0  0  0  0  0  0  0  0  0
    5.1790   -8.0902    0.0000 C   0  0  0  0  0  0  0  0  0  0  0  0
    5.8935   -8.5027    0.0000 C   0  0  2  0  0  0  0  0  0  0  0  0
    8.7513   -6.8527    0.0000 C   0  0  0  0  0  0  0  0  0  0  0  0
    8.7513   -6.0277    0.0000 C   0  0  0  0  0  0  0  0  0  0  0  0
    8.0369   -5.6152    0.0000 C   0  0  0  0  0  0  0  0  0  0  0  0
    7.3224   -6.0277    0.0000 C   0  0  0  0  0  0  0  0  0  0  0  0
    6.6079   -5.6152    0.0000 O   0  0  0  0  0  0  0  0  0  0  0  0
    8.0369   -4.7902    0.0000 O   0  0  0  0  0  0  0  0  0  0  0  0
    9.5360   -7.1076    0.0000 O   0  0  0  0  0  0  0  0  0  0  0  0
   10.0209   -6.4402    0.0000 C   0  0  0  0  0  0  0  0  0  0  0  0
    9.5360   -5.7728    0.0000 C   0  0  0  0  0  0  0  0  0  0  0  0
    9.7909   -4.9881    0.0000 C   0  0  0  0  0  0  0  0  0  0  0  0
    5.4810   -9.2172    0.0000 C   0  0  0  0  0  0  0  0  0  0  0  0
    6.3060   -9.2172    0.0000 C   0  0  0  0  0  0  0  0  0  0  0  0
    5.8935   -9.9316    0.0000 O   0  0  0  0  0  0  0  0  0  0  0  0
    4.4645   -8.5027    0.0000 O   0  0  0  0  0  0  0  0  0  0  0  0
  1  2  2  0  0  0  0
  2  3  1  0  0  0  0
  3  4  2  0  0  0  0
  4  5  1  0  0  0  0
  5  6  2  0  0  0  0
  6  1  1  0  0  0  0
  1  7  1  0  0  0  0
  7  8  1  0  0  0  0
  8  9  1  0  0  0  0
  9 10  1  0  0  0  0
 10  2  1  0  0  0  0
  5 11  1  0  0  0  0
 11 12  2  0  0  0  0
 12 13  1  0  0  0  0
 13 14  1  0  0  0  0
 14  6  1  0  0  0  0
 14 15  2  0  0  0  0
 13 16  2  0  0  0  0
 11 17  1  0  0  0  0
 17 18  1  0  0  0  0
 18 19  2  0  0  0  0
 19 12  1  0  0  0  0
 19 20  1  0  0  0  0
 10 21  1  1  0  0  0
 10 22  1  6  0  0  0
 21 23  1  0  0  0  0
  9 24  1  0  0  0  0
M  END
>  <cdx:fragmentId>
3

$$$$
