4932.cdx
  Mrv1902 05222410182D          

 26 28  0  0  0  0            999 V2000
    4.7528   -9.4182    0.0000 C   0  0  0  0  0  0  0  0  0  0  0  0
    4.3403   -8.7037    0.0000 C   0  0  0  0  0  0  0  0  0  0  0  0
    7.3088   -6.6413    0.0000 O   0  0  0  0  0  0  0  0  0  0  0  0
    8.7377   -6.6413    0.0000 O   0  0  0  0  0  0  0  0  0  0  0  0
   10.1666   -9.1162    0.0000 C   0  0  0  0  0  0  0  0  0  0  0  0
    3.0219   -6.6413    0.0000 C   0  0  0  0  0  0  0  0  0  0  0  0
    4.4509   -4.9913    0.0000 C   0  0  0  0  0  0  0  0  0  0  0  0
    3.7364   -5.4037    0.0000 C   0  0  0  0  0  0  0  0  0  0  0  0
    3.7364   -6.2287    0.0000 C   0  0  0  0  0  0  0  0  0  0  0  0
    5.1653   -6.2287    0.0000 O   0  0  0  0  0  0  0  0  0  0  0  0
    4.4509   -6.6413    0.0000 C   0  0  0  0  0  0  0  0  0  0  0  0
    4.4509   -7.4663    0.0000 O   0  0  0  0  0  0  0  0  0  0  0  0
    5.8798   -7.4663    0.0000 C   0  0  0  0  0  0  0  0  0  0  0  0
    5.1653   -7.8788    0.0000 C   0  0  1  0  0  0  0  0  0  0  0  0
    5.1653   -8.7037    0.0000 C   0  0  0  0  0  0  0  0  0  0  0  0
    5.8798   -9.1162    0.0000 O   0  0  0  0  0  0  0  0  0  0  0  0
    7.3088   -7.4663    0.0000 C   0  0  0  0  0  0  0  0  0  0  0  0
    6.5943   -7.8788    0.0000 C   0  0  0  0  0  0  0  0  0  0  0  0
    6.5943   -8.7037    0.0000 C   0  0  0  0  0  0  0  0  0  0  0  0
    7.3088   -9.1162    0.0000 C   0  0  0  0  0  0  0  0  0  0  0  0
    8.7377   -7.4663    0.0000 C   0  0  0  0  0  0  0  0  0  0  0  0
    8.0232   -7.8788    0.0000 C   0  0  0  0  0  0  0  0  0  0  0  0
    8.0232   -8.7037    0.0000 C   0  0  0  0  0  0  0  0  0  0  0  0
    8.7377   -9.1162    0.0000 O   0  0  0  0  0  0  0  0  0  0  0  0
    9.4522   -8.7037    0.0000 C   0  0  0  0  0  0  0  0  0  0  0  0
    9.4522   -7.8788    0.0000 C   0  0  0  0  0  0  0  0  0  0  0  0
 15  1  1  0  0  0  0
 15  2  1  0  0  0  0
 17  3  1  0  0  0  0
 21  4  2  0  0  0  0
 25  5  1  0  0  0  0
  6  9  1  0  0  0  0
  8  7  1  0  0  0  0
  9  8  2  0  0  0  0
 11  9  1  0  0  0  0
 11 10  2  0  0  0  0
 12 11  1  0  0  0  0
 14 12  1  1  0  0  0
 13 18  1  0  0  0  0
 14 13  1  0  0  0  0
 15 14  1  0  0  0  0
 16 15  1  0  0  0  0
 19 16  1  0  0  0  0
 17 22  2  0  0  0  0
 18 17  1  0  0  0  0
 19 18  2  0  0  0  0
 20 19  1  0  0  0  0
 23 20  2  0  0  0  0
 21 26  1  0  0  0  0
 22 21  1  0  0  0  0
 23 22  1  0  0  0  0
 24 23  1  0  0  0  0
 25 24  1  0  0  0  0
 26 25  2  0  0  0  0
M  END
>  <cdx:fragmentId>
5

$$$$
