493376.cdx
  Mrv1902 05222410272D          

 27 29  0  0  0  0            999 V2000
   15.8260   -8.7628    0.0000 C   0  0  0  0  0  0  0  0  0  0  0  0
   15.8260   -9.5878    0.0000 C   0  0  0  0  0  0  0  0  0  0  0  0
   15.1115  -10.0003    0.0000 C   0  0  0  0  0  0  0  0  0  0  0  0
   15.1115  -10.8253    0.0000 O   0  0  0  0  0  0  0  0  0  0  0  0
   14.3970   -9.5878    0.0000 C   0  0  0  0  0  0  0  0  0  0  0  0
   13.6826  -10.0003    0.0000 C   0  0  0  0  0  0  0  0  0  0  0  0
   12.9681   -9.5878    0.0000 C   0  0  0  0  0  0  0  0  0  0  0  0
   12.9681   -8.7628    0.0000 C   0  0  0  0  0  0  0  0  0  0  0  0
   13.6826   -8.3503    0.0000 C   0  0  0  0  0  0  0  0  0  0  0  0
   14.3970   -8.7628    0.0000 C   0  0  0  0  0  0  0  0  0  0  0  0
   15.1115   -8.3503    0.0000 O   0  0  0  0  0  0  0  0  0  0  0  0
   16.5405   -8.3503    0.0000 C   0  0  0  0  0  0  0  0  0  0  0  0
   17.2549   -8.7628    0.0000 C   0  0  0  0  0  0  0  0  0  0  0  0
   17.9694   -8.3503    0.0000 C   0  0  0  0  0  0  0  0  0  0  0  0
   17.9694   -7.5253    0.0000 C   0  0  0  0  0  0  0  0  0  0  0  0
   17.2549   -7.1128    0.0000 C   0  0  0  0  0  0  0  0  0  0  0  0
   16.5405   -7.5253    0.0000 C   0  0  0  0  0  0  0  0  0  0  0  0
   17.2549   -6.2878    0.0000 O   0  0  0  0  0  0  0  0  0  0  0  0
   17.9694   -5.8753    0.0000 C   0  0  0  0  0  0  0  0  0  0  0  0
   18.6839   -7.1128    0.0000 O   0  0  0  0  0  0  0  0  0  0  0  0
   19.3983   -7.5253    0.0000 C   0  0  0  0  0  0  0  0  0  0  0  0
   18.6839   -8.7628    0.0000 O   0  0  0  0  0  0  0  0  0  0  0  0
   19.3983   -8.3503    0.0000 C   0  0  0  0  0  0  0  0  0  0  0  0
   12.2536   -8.3503    0.0000 O   0  0  0  0  0  0  0  0  0  0  0  0
   11.5392   -8.7628    0.0000 C   0  0  0  0  0  0  0  0  0  0  0  0
   13.6826  -10.8253    0.0000 O   0  0  0  0  0  0  0  0  0  0  0  0
   12.9681  -11.2378    0.0000 C   0  0  0  0  0  0  0  0  0  0  0  0
  1  2  2  0  0  0  0
  2  3  1  0  0  0  0
  3  4  2  0  0  0  0
  3  5  1  0  0  0  0
  5  6  1  0  0  0  0
  6  7  2  0  0  0  0
  7  8  1  0  0  0  0
  8  9  2  0  0  0  0
  9 10  1  0  0  0  0
  5 10  2  0  0  0  0
 10 11  1  0  0  0  0
  1 11  1  0  0  0  0
  1 12  1  0  0  0  0
 12 13  1  0  0  0  0
 13 14  2  0  0  0  0
 14 15  1  0  0  0  0
 15 16  2  0  0  0  0
 16 17  1  0  0  0  0
 12 17  2  0  0  0  0
 18 19  1  0  0  0  0
 16 18  1  0  0  0  0
 20 21  1  0  0  0  0
 15 20  1  0  0  0  0
 22 23  1  0  0  0  0
 14 22  1  0  0  0  0
 24 25  1  0  0  0  0
  8 24  1  0  0  0  0
 26 27  1  0  0  0  0
  6 26  1  0  0  0  0
M  END
>  <cdx:groupId>
21925

>  <cdx:fragmentId>
21845

$$$$
