493570.cdx
  Mrv1902 05222410272D          

 27 29  0  0  0  0            999 V2000
   17.5047   -5.4805    0.0000 O   0  0  0  0  0  0  0  0  0  0  0  0
   12.5034   -9.1930    0.0000 C   0  0  0  0  0  0  0  0  0  0  0  0
   13.2179   -9.6055    0.0000 C   0  0  0  0  0  0  0  0  0  0  0  0
   13.9324   -9.1930    0.0000 C   0  0  0  0  0  0  0  0  0  0  0  0
   14.6469   -9.6055    0.0000 C   0  0  0  0  0  0  0  0  0  0  0  0
   14.6469  -10.4305    0.0000 C   0  0  0  0  0  0  0  0  0  0  0  0
   15.3613  -10.8430    0.0000 N   0  0  0  0  0  0  0  0  0  0  0  0
   16.0758  -10.4305    0.0000 C   0  0  0  0  0  0  0  0  0  0  0  0
   16.7903  -10.8430    0.0000 C   0  0  0  0  0  0  0  0  0  0  0  0
   17.5047  -10.4305    0.0000 N   0  0  0  0  0  0  0  0  0  0  0  0
   16.7903  -11.6680    0.0000 O   0  0  0  0  0  0  0  0  0  0  0  0
   16.0758   -9.6055    0.0000 C   0  0  0  0  0  0  0  0  0  0  0  0
   15.3613   -9.1930    0.0000 N   0  0  0  0  0  0  0  0  0  0  0  0
   15.3613   -8.3680    0.0000 C   0  0  0  0  0  0  0  0  0  0  0  0
   16.0758   -7.9555    0.0000 C   0  0  1  0  0  0  0  0  0  0  0  0
   16.7903   -8.3680    0.0000 O   0  0  0  0  0  0  0  0  0  0  0  0
   16.0758   -7.1305    0.0000 C   0  0  1  0  0  0  0  0  0  0  0  0
   15.3613   -6.7180    0.0000 O   0  0  0  0  0  0  0  0  0  0  0  0
   16.7903   -6.7180    0.0000 C   0  0  1  0  0  0  0  0  0  0  0  0
   17.5047   -7.1305    0.0000 O   0  0  0  0  0  0  0  0  0  0  0  0
   16.7903   -5.8930    0.0000 C   0  0  0  0  0  0  0  0  0  0  0  0
   16.7903   -9.1930    0.0000 N   0  0  0  0  0  0  0  0  0  0  0  0
   17.5047   -9.6055    0.0000 C   0  0  0  0  0  0  0  0  0  0  0  0
   18.2192   -9.1930    0.0000 O   0  0  0  0  0  0  0  0  0  0  0  0
   13.9324  -10.8430    0.0000 C   0  0  0  0  0  0  0  0  0  0  0  0
   13.2179  -10.4305    0.0000 C   0  0  0  0  0  0  0  0  0  0  0  0
   12.5034  -10.8430    0.0000 C   0  0  0  0  0  0  0  0  0  0  0  0
  2  3  1  0  0  0  0
  3  4  2  0  0  0  0
  4  5  1  0  0  0  0
  5  6  2  0  0  0  0
  6  7  1  0  0  0  0
  7  8  2  0  0  0  0
  8  9  1  0  0  0  0
  9 10  1  0  0  0  0
  9 11  2  0  0  0  0
  8 12  1  0  0  0  0
 12 13  1  0  0  0  0
  5 13  1  0  0  0  0
 13 14  1  0  0  0  0
 14 15  1  0  0  0  0
 15 16  1  6  0  0  0
 15 17  1  0  0  0  0
 17 18  1  1  0  0  0
 17 19  1  0  0  0  0
 19 20  1  6  0  0  0
 19 21  1  0  0  0  0
  1 21  1  0  0  0  0
 12 22  2  0  0  0  0
 22 23  1  0  0  0  0
 10 23  1  0  0  0  0
 23 24  2  0  0  0  0
  6 25  1  0  0  0  0
 25 26  2  0  0  0  0
  3 26  1  0  0  0  0
 26 27  1  0  0  0  0
M  END
>  <cdx:groupId>
22016

>  <cdx:fragmentId>
21938

$$$$
