13493680.cdx
  Mrv1902 05222410212D          

 10 10  0  0  0  0            999 V2000
    7.2339  -15.3925    0.0000 C   0  0  0  0  0  0  0  0  0  0  0  0
    7.2339  -14.5675    0.0000 C   0  0  0  0  0  0  0  0  0  0  0  0
    6.5194  -14.1550    0.0000 C   0  0  0  0  0  0  0  0  0  0  0  0
    5.8049  -14.5675    0.0000 C   0  0  0  0  0  0  0  0  0  0  0  0
    5.8049  -15.3925    0.0000 C   0  0  0  0  0  0  0  0  0  0  0  0
    6.5194  -15.8050    0.0000 C   0  0  0  0  0  0  0  0  0  0  0  0
    7.9483  -15.8050    0.0000 C   0  0  0  0  0  0  0  0  0  0  0  0
    8.6628  -15.3925    0.0000 O   0  0  0  0  0  0  0  0  0  0  0  0
    7.6464  -13.8530    0.0000 C   0  0  0  0  0  0  0  0  0  0  0  0
    8.0589  -14.5675    0.0000 C   0  0  0  0  0  0  0  0  0  0  0  0
  1  2  1  0  0  0  0
  2  3  1  0  0  0  0
  3  4  1  0  0  0  0
  4  5  1  0  0  0  0
  5  6  1  0  0  0  0
  1  6  1  0  0  0  0
  7  8  2  0  0  0  0
  1  7  1  0  0  0  0
  2  9  1  0  0  0  0
  2 10  1  0  0  0  0
M  END
>  <cdx:groupId>
95160

>  <cdx:fragmentId>
95133

$$$$
