494311.cdx
  Mrv1902 05222410212D          

 14 14  0  0  0  0            999 V2000
    6.3409   -9.8479    0.0000 C   0  0  0  0  0  0  0  0  0  0  0  0
    5.6264  -10.2604    0.0000 C   0  0  0  0  0  0  0  0  0  0  0  0
    6.3409   -9.0229    0.0000 O   0  0  0  0  0  0  0  0  0  0  0  0
    7.0554  -10.2604    0.0000 O   0  0  0  0  0  0  0  0  0  0  0  0
    7.7699   -9.8479    0.0000 C   0  0  0  0  0  0  0  0  0  0  0  0
    8.4843  -10.2604    0.0000 C   0  0  0  0  0  0  0  0  0  0  0  0
    9.1988   -9.8479    0.0000 C   0  0  0  0  0  0  0  0  0  0  0  0
    9.1988   -9.0229    0.0000 C   0  0  0  0  0  0  0  0  0  0  0  0
    8.4843   -8.6104    0.0000 C   0  0  0  0  0  0  0  0  0  0  0  0
    7.7699   -9.0229    0.0000 C   0  0  0  0  0  0  0  0  0  0  0  0
    9.1988  -11.4979    0.0000 C   0  0  0  0  0  0  0  0  0  0  0  0
    8.4843  -11.0854    0.0000 C   0  0  0  0  0  0  0  0  0  0  0  0
    7.7699  -11.4979    0.0000 C   0  0  0  0  0  0  0  0  0  0  0  0
    8.4843   -7.7854    0.0000 C   0  0  0  0  0  0  0  0  0  0  0  0
  1  2  1  0  0  0  0
  1  3  2  0  0  0  0
  1  4  1  0  0  0  0
  5  6  1  0  0  0  0
  6  7  1  0  0  0  0
  7  8  1  0  0  0  0
  8  9  1  0  0  0  0
  9 10  1  0  0  0  0
  5 10  1  0  0  0  0
 11 12  2  0  0  0  0
 12 13  1  0  0  0  0
  6 12  1  0  0  0  0
  9 14  1  0  0  0  0
  4  5  1  0  0  0  0
M  END
>  <cdx:groupId>
1021

>  <cdx:fragmentId>
990

$$$$
