494439.cdx
  Mrv1902 05222410192D          

 17 18  0  0  0  0            999 V2000
    5.6585   -5.3213    0.0000 C   0  0  1  0  0  0  0  0  0  0  0  0
    4.9421   -5.7305    0.0000 C   0  0  0  0  0  0  0  0  0  0  0  0
    4.9383   -6.5555    0.0000 C   0  0  0  0  0  0  0  0  0  0  0  0
    5.6508   -6.9713    0.0000 C   0  0  2  0  0  0  0  0  0  0  0  0
    6.3672   -6.5622    0.0000 C   0  0  1  0  0  0  0  0  0  0  0  0
    7.0797   -6.9780    0.0000 C   0  0  0  0  0  0  0  0  0  0  0  0
    7.7961   -6.5688    0.0000 C   0  0  1  0  0  0  0  0  0  0  0  0
    7.8000   -5.7438    0.0000 C   0  0  0  0  0  0  0  0  0  0  0  0
    7.0874   -5.3280    0.0000 C   0  0  0  0  0  0  0  0  0  0  0  0
    6.3711   -5.7372    0.0000 C   0  0  2  0  0  0  0  0  0  0  0  0
    5.6624   -4.4964    0.0000 O   0  0  0  0  0  0  0  0  0  0  0  0
    8.5048   -7.8097    0.0000 C   0  0  0  0  0  0  0  0  0  0  0  0
    8.5087   -6.9847    0.0000 C   0  0  0  0  0  0  0  0  0  0  0  0
    9.2251   -6.5755    0.0000 C   0  0  0  0  0  0  0  0  0  0  0  0
    6.3749   -4.9122    0.0000 C   0  0  0  0  0  0  0  0  0  0  0  0
    5.6470   -7.7963    0.0000 C   0  0  0  0  0  0  0  0  0  0  0  0
    6.3634   -7.3872    0.0000 H   0  0  0  0  0  0  0  0  0  0  0  0
  1  2  1  0  0  0  0
  2  3  1  0  0  0  0
  3  4  1  0  0  0  0
  4  5  1  0  0  0  0
  5  6  1  0  0  0  0
  6  7  1  0  0  0  0
  7  8  1  0  0  0  0
  8  9  1  0  0  0  0
  9 10  1  0  0  0  0
  1 10  1  0  0  0  0
  5 10  1  0  0  0  0
  1 11  1  6  0  0  0
 12 13  2  0  0  0  0
 13 14  1  0  0  0  0
  7 13  1  1  0  0  0
 10 15  1  6  0  0  0
  4 16  1  6  0  0  0
  5 17  1  1  0  0  0
M  END
>  <cdx:fragmentId>
22025

$$$$
