495590.cdx
  Mrv1902 05222410222D          

 23 25  0  0  0  0            999 V2000
   10.7375   -7.6247    0.0000 O   0  0  0  0  0  0  0  0  0  0  0  0
   10.7375   -9.2747    0.0000 O   0  0  0  0  0  0  0  0  0  0  0  0
    8.5941   -8.8622    0.0000 C   0  0  0  0  0  0  0  0  0  0  0  0
    9.3085   -9.2747    0.0000 C   0  0  0  0  0  0  0  0  0  0  0  0
   10.0230   -8.8622    0.0000 C   0  0  0  0  0  0  0  0  0  0  0  0
   10.0230   -8.0372    0.0000 C   0  0  0  0  0  0  0  0  0  0  0  0
    9.3085   -7.6247    0.0000 C   0  0  0  0  0  0  0  0  0  0  0  0
    8.5941   -8.0372    0.0000 C   0  0  0  0  0  0  0  0  0  0  0  0
    5.7362   -8.8622    0.0000 O   0  0  0  0  0  0  0  0  0  0  0  0
    4.3072   -6.3872    0.0000 O   0  0  0  0  0  0  0  0  0  0  0  0
    3.5928   -7.6247    0.0000 C   0  0  0  0  0  0  0  0  0  0  0  0
    4.3072   -8.0372    0.0000 O   0  0  0  0  0  0  0  0  0  0  0  0
    7.1651   -8.8622    0.0000 O   0  0  0  0  0  0  0  0  0  0  0  0
    7.1651   -6.3872    0.0000 O   0  0  0  0  0  0  0  0  0  0  0  0
    6.4506   -6.7997    0.0000 C   0  0  0  0  0  0  0  0  0  0  0  0
    5.7362   -6.3872    0.0000 C   0  0  0  0  0  0  0  0  0  0  0  0
    5.0217   -6.7997    0.0000 C   0  0  0  0  0  0  0  0  0  0  0  0
    5.0217   -7.6247    0.0000 C   0  0  0  0  0  0  0  0  0  0  0  0
    5.7362   -8.0372    0.0000 C   0  0  0  0  0  0  0  0  0  0  0  0
    6.4506   -7.6247    0.0000 C   0  0  0  0  0  0  0  0  0  0  0  0
    7.1651   -8.0372    0.0000 C   0  0  0  0  0  0  0  0  0  0  0  0
    7.8796   -7.6247    0.0000 C   0  0  0  0  0  0  0  0  0  0  0  0
    7.8796   -6.7997    0.0000 C   0  0  0  0  0  0  0  0  0  0  0  0
 22  8  1  0  0  0  0
  6  1  1  0  0  0  0
  5  2  1  0  0  0  0
  8  3  2  0  0  0  0
  4  3  1  0  0  0  0
  5  4  2  0  0  0  0
  6  5  1  0  0  0  0
  7  6  2  0  0  0  0
  8  7  1  0  0  0  0
 19  9  1  0  0  0  0
 17 10  1  0  0  0  0
 18 12  1  0  0  0  0
 12 11  1  0  0  0  0
 21 13  2  0  0  0  0
 23 14  1  0  0  0  0
 15 14  1  0  0  0  0
 20 15  2  0  0  0  0
 16 15  1  0  0  0  0
 17 16  2  0  0  0  0
 18 17  1  0  0  0  0
 19 18  2  0  0  0  0
 20 19  1  0  0  0  0
 21 20  1  0  0  0  0
 22 21  1  0  0  0  0
 23 22  2  0  0  0  0
M  END
>  <cdx:fragmentId>
52416

$$$$
