10495761.cdx
  Mrv1902 05222410242D          

 25 28  0  0  0  0            999 V2000
    7.9046  -15.4952    0.0000 C   0  0  2  0  0  0  0  0  0  0  0  0
    7.3525  -14.8821    0.0000 C   0  0  2  0  0  0  0  0  0  0  0  0
    7.6075  -14.0975    0.0000 C   0  0  2  0  0  0  0  0  0  0  0  0
    8.4145  -13.9260    0.0000 C   0  0  1  0  0  0  0  0  0  0  0  0
    8.6694  -13.1413    0.0000 C   0  0  0  0  0  0  0  0  0  0  0  0
    9.4764  -12.9698    0.0000 C   0  0  0  0  0  0  0  0  0  0  0  0
   10.0284  -13.5829    0.0000 C   0  0  0  0  0  0  0  0  0  0  0  0
    9.7735  -14.3675    0.0000 C   0  0  0  0  0  0  0  0  0  0  0  0
    8.9665  -14.5390    0.0000 C   0  0  0  0  0  0  0  0  0  0  0  0
    8.7115  -15.3237    0.0000 O   0  0  0  0  0  0  0  0  0  0  0  0
    6.9400  -13.6126    0.0000 O   0  0  0  0  0  0  0  0  0  0  0  0
    6.5275  -14.8821    0.0000 C   0  0  0  0  0  0  0  0  0  0  0  0
    5.9755  -15.4952    0.0000 C   0  0  0  0  0  0  0  0  0  0  0  0
    5.1685  -15.3237    0.0000 C   0  0  0  0  0  0  0  0  0  0  0  0
    4.9136  -14.5390    0.0000 C   0  0  0  0  0  0  0  0  0  0  0  0
    5.4656  -13.9260    0.0000 C   0  0  0  0  0  0  0  0  0  0  0  0
    6.2726  -14.0975    0.0000 C   0  0  0  0  0  0  0  0  0  0  0  0
   10.8354  -13.4114    0.0000 O   0  0  0  0  0  0  0  0  0  0  0  0
    4.1066  -14.3675    0.0000 O   0  0  0  0  0  0  0  0  0  0  0  0
    3.5546  -14.9806    0.0000 C   0  0  0  0  0  0  0  0  0  0  0  0
    7.6496  -16.2798    0.0000 O   0  0  0  0  0  0  0  0  0  0  0  0
    6.8427  -16.4513    0.0000 C   0  0  0  0  0  0  0  0  0  0  0  0
    8.4145  -14.7510    0.0000 O   0  0  0  0  0  0  0  0  0  0  0  0
    7.3525  -15.7071    0.0000 H   0  0  0  0  0  0  0  0  0  0  0  0
    7.6075  -13.2725    0.0000 H   0  0  0  0  0  0  0  0  0  0  0  0
  1  2  1  0  0  0  0
  2  3  1  0  0  0  0
  3  4  1  0  0  0  0
  4  5  1  0  0  0  0
  5  6  1  0  0  0  0
  6  7  1  0  0  0  0
  7  8  1  0  0  0  0
  8  9  2  0  0  0  0
  4  9  1  0  0  0  0
  9 10  1  0  0  0  0
  1 10  1  0  0  0  0
 12 13  1  0  0  0  0
 13 14  2  0  0  0  0
 14 15  1  0  0  0  0
 15 16  2  0  0  0  0
 16 17  1  0  0  0  0
 12 17  2  0  0  0  0
 11 17  1  0  0  0  0
 12  2  1  0  0  0  0
 11  3  1  0  0  0  0
  7 18  2  0  0  0  0
 19 20  1  0  0  0  0
 15 19  1  0  0  0  0
 21 22  1  0  0  0  0
  1 21  1  6  0  0  0
  4 23  1  6  0  0  0
  2 24  1  6  0  0  0
  3 25  1  6  0  0  0
M  END
>  <cdx:groupId>
52568

>  <cdx:fragmentId>
52493

$$$$
