496348.cdx
  Mrv1902 05222410182D          

 22 25  0  0  0  0            999 V2000
    6.0872   -6.8796    0.0000 C   0  0  0  0  0  0  0  0  0  0  0  0
    6.0872   -7.7046    0.0000 C   0  0  0  0  0  0  0  0  0  0  0  0
    6.8017   -8.1171    0.0000 C   0  0  0  0  0  0  0  0  0  0  0  0
    7.5161   -7.7046    0.0000 C   0  0  0  0  0  0  0  0  0  0  0  0
    7.5161   -6.8796    0.0000 C   0  0  0  0  0  0  0  0  0  0  0  0
    6.8017   -6.4671    0.0000 C   0  0  0  0  0  0  0  0  0  0  0  0
    5.3727   -6.4671    0.0000 C   0  0  0  0  0  0  0  0  0  0  0  0
    4.6583   -6.8796    0.0000 C   0  0  0  0  0  0  0  0  0  0  0  0
    4.6583   -7.7046    0.0000 C   0  0  0  0  0  0  0  0  0  0  0  0
    5.3727   -8.1171    0.0000 C   0  0  0  0  0  0  0  0  0  0  0  0
    8.2306   -6.4671    0.0000 C   0  0  0  0  0  0  0  0  0  0  0  0
    8.2306   -5.6421    0.0000 C   0  0  0  0  0  0  0  0  0  0  0  0
    7.5161   -5.2296    0.0000 C   0  0  0  0  0  0  0  0  0  0  0  0
    6.8017   -5.6421    0.0000 C   0  0  0  0  0  0  0  0  0  0  0  0
    9.0153   -6.7220    0.0000 O   0  0  0  0  0  0  0  0  0  0  0  0
    9.5002   -6.0546    0.0000 C   0  0  0  0  0  0  0  0  0  0  0  0
    9.0153   -5.3871    0.0000 C   0  0  2  0  0  0  0  0  0  0  0  0
    6.0872   -5.2296    0.0000 O   0  0  0  0  0  0  0  0  0  0  0  0
    7.5161   -4.4046    0.0000 O   0  0  0  0  0  0  0  0  0  0  0  0
    9.2702   -4.6025    0.0000 C   0  0  0  0  0  0  0  0  0  0  0  0
    5.7852   -8.8315    0.0000 C   0  0  0  0  0  0  0  0  0  0  0  0
    4.9602   -8.8315    0.0000 C   0  0  0  0  0  0  0  0  0  0  0  0
  1  2  2  0  0  0  0
  2  3  1  0  0  0  0
  3  4  2  0  0  0  0
  4  5  1  0  0  0  0
  5  6  2  0  0  0  0
  6  1  1  0  0  0  0
  1  7  1  0  0  0  0
  7  8  1  0  0  0  0
  8  9  1  0  0  0  0
  9 10  1  0  0  0  0
 10  2  1  0  0  0  0
  5 11  1  0  0  0  0
 11 12  2  0  0  0  0
 12 13  1  0  0  0  0
 13 14  1  0  0  0  0
 14  6  1  0  0  0  0
 11 15  1  0  0  0  0
 15 16  1  0  0  0  0
 16 17  1  0  0  0  0
 17 12  1  0  0  0  0
 14 18  2  0  0  0  0
 13 19  2  0  0  0  0
 17 20  1  1  0  0  0
 10 21  1  0  0  0  0
 10 22  1  0  0  0  0
M  END
>  <cdx:fragmentId>
22141

$$$$
