4966.cdx
  Mrv1902 05222410242D          

  9  8  0  0  0  0            999 V2000
    3.2134   -6.1256    0.0000 C   0  0  0  0  0  0  0  0  0  0  0  0
    3.9278   -6.5381    0.0000 C   0  0  0  0  0  0  0  0  0  0  0  0
    4.6423   -6.1256    0.0000 C   0  0  0  0  0  0  0  0  0  0  0  0
    5.3568   -6.5381    0.0000 C   0  0  0  0  0  0  0  0  0  0  0  0
    6.0713   -6.1256    0.0000 C   0  0  0  0  0  0  0  0  0  0  0  0
    6.7857   -6.5381    0.0000 C   0  0  0  0  0  0  0  0  0  0  0  0
    7.5002   -6.1256    0.0000 C   0  0  0  0  0  0  0  0  0  0  0  0
    8.2147   -6.5381    0.0000 C   0  0  0  0  0  0  0  0  0  0  0  0
    3.9278   -7.3631    0.0000 O   0  0  0  0  0  0  0  0  0  0  0  0
  1  2  1  0  0  0  0
  2  3  1  0  0  0  0
  3  4  2  0  0  0  0
  4  5  1  0  0  0  0
  5  6  1  0  0  0  0
  6  7  1  0  0  0  0
  7  8  1  0  0  0  0
  2  9  2  0  0  0  0
M  END
>  <cdx:fragmentId>
3

$$$$
