3-O-dimethoxycinnamoylquinic acid.cdx
  Mrv1902 05222410232D          

 27 28  0  0  0  0            999 V2000
    5.4702   -6.3459    0.0000 C   0  0  0  0  0  0  0  0  0  0  0  0
    5.0577   -7.0604    0.0000 C   0  0  0  0  0  0  0  0  0  0  0  0
    5.8510   -6.8337    0.0000 C   0  0  0  0  0  0  0  0  0  0  0  0
    6.6490   -7.0604    0.0000 C   0  0  0  0  0  0  0  0  0  0  0  0
    7.0616   -6.3459    0.0000 C   0  0  0  0  0  0  0  0  0  0  0  0
    6.2683   -6.5725    0.0000 C   0  0  0  0  0  0  0  0  0  0  0  0
    7.8585   -6.5594    0.0000 O   0  0  0  0  0  0  0  0  0  0  0  0
    6.6808   -5.8581    0.0000 O   0  0  0  0  0  0  0  0  0  0  0  0
    4.2608   -6.8468    0.0000 C   0  0  0  0  0  0  0  0  0  0  0  0
    3.6774   -7.4302    0.0000 O   0  0  0  0  0  0  0  0  0  0  0  0
    4.0473   -6.0500    0.0000 O   0  0  0  0  0  0  0  0  0  0  0  0
    5.0577   -7.8854    0.0000 O   0  0  0  0  0  0  0  0  0  0  0  0
    6.6490   -7.8854    0.0000 O   0  0  0  0  0  0  0  0  0  0  0  0
    7.3635   -8.2979    0.0000 C   0  0  0  0  0  0  0  0  0  0  0  0
    7.3635   -9.1229    0.0000 C   0  0  0  0  0  0  0  0  0  0  0  0
    8.0779   -9.5354    0.0000 C   0  0  0  0  0  0  0  0  0  0  0  0
    8.0779  -10.3604    0.0000 C   0  0  0  0  0  0  0  0  0  0  0  0
    7.3635  -10.7729    0.0000 C   0  0  0  0  0  0  0  0  0  0  0  0
    7.3635  -11.5979    0.0000 C   0  0  0  0  0  0  0  0  0  0  0  0
    8.0779  -12.0104    0.0000 C   0  0  0  0  0  0  0  0  0  0  0  0
    8.7924  -11.5979    0.0000 C   0  0  0  0  0  0  0  0  0  0  0  0
    8.7924  -10.7729    0.0000 C   0  0  0  0  0  0  0  0  0  0  0  0
    8.0779  -12.8354    0.0000 O   0  0  0  0  0  0  0  0  0  0  0  0
    7.4946  -13.4187    0.0000 C   0  0  0  0  0  0  0  0  0  0  0  0
    9.5069  -12.0104    0.0000 O   0  0  0  0  0  0  0  0  0  0  0  0
   10.3038  -11.7968    0.0000 C   0  0  0  0  0  0  0  0  0  0  0  0
    8.0779   -7.8854    0.0000 O   0  0  0  0  0  0  0  0  0  0  0  0
  1  2  1  0  0  0  0
  2  3  1  0  0  0  0
  3  4  1  0  0  0  0
  4  5  1  0  0  0  0
  5  6  1  0  0  0  0
  6  1  1  0  0  0  0
  5  7  1  0  0  0  0
  6  8  1  0  0  0  0
  2  9  1  0  0  0  0
  2 12  1  0  0  0  0
  4 13  1  0  0  0  0
 13 14  1  0  0  0  0
 14 15  1  0  0  0  0
 15 16  2  0  0  0  0
 16 17  1  0  0  0  0
 17 18  2  0  0  0  0
 18 19  1  0  0  0  0
 19 20  2  0  0  0  0
 20 21  1  0  0  0  0
 21 22  2  0  0  0  0
 22 17  1  0  0  0  0
 20 23  1  0  0  0  0
 23 24  1  0  0  0  0
 21 25  1  0  0  0  0
 25 26  1  0  0  0  0
 14 27  2  0  0  0  0
  9 10  2  0  0  0  0
  9 11  1  0  0  0  0
M  STY  1   1 SUP
M  SAL   1  3   9  10  11
M  SBL   1  1   9
M  SMT   1 COOH
M  SAP   1  1   9   2  1
M  END
>  <cdx:fragmentId>
5

$$$$
