4970.cdx
  Mrv1902 05222410242D          

 26 30  0  0  0  0            999 V2000
    8.4307   -4.9236    0.0000 C   0  0  0  0  0  0  0  0  0  0  0  0
    7.7162   -5.3361    0.0000 C   0  0  0  0  0  0  0  0  0  0  0  0
    7.0018   -4.9236    0.0000 C   0  0  0  0  0  0  0  0  0  0  0  0
    6.2873   -5.3361    0.0000 C   0  0  0  0  0  0  0  0  0  0  0  0
    5.5728   -4.9236    0.0000 C   0  0  0  0  0  0  0  0  0  0  0  0
    4.8584   -5.3361    0.0000 C   0  0  0  0  0  0  0  0  0  0  0  0
    4.0737   -5.0811    0.0000 O   0  0  0  0  0  0  0  0  0  0  0  0
    3.5888   -5.7486    0.0000 C   0  0  0  0  0  0  0  0  0  0  0  0
    4.0737   -6.4160    0.0000 O   0  0  0  0  0  0  0  0  0  0  0  0
    4.8584   -6.1611    0.0000 C   0  0  0  0  0  0  0  0  0  0  0  0
    5.5728   -6.5736    0.0000 C   0  0  0  0  0  0  0  0  0  0  0  0
    6.2873   -6.1611    0.0000 C   0  0  0  0  0  0  0  0  0  0  0  0
    7.0018   -6.5736    0.0000 C   0  0  0  0  0  0  0  0  0  0  0  0
    7.7162   -6.1611    0.0000 C   0  0  0  0  0  0  0  0  0  0  0  0
    8.4307   -6.5736    0.0000 N   0  0  0  0  0  0  0  0  0  0  0  0
    9.1452   -6.1611    0.0000 C   0  0  0  0  0  0  0  0  0  0  0  0
    9.1452   -5.3361    0.0000 C   0  0  0  0  0  0  0  0  0  0  0  0
    9.8596   -4.9236    0.0000 C   0  0  0  0  0  0  0  0  0  0  0  0
   10.6443   -5.1785    0.0000 O   0  0  0  0  0  0  0  0  0  0  0  0
   11.1292   -4.5111    0.0000 C   0  0  0  0  0  0  0  0  0  0  0  0
   10.6443   -3.8436    0.0000 O   0  0  0  0  0  0  0  0  0  0  0  0
    9.8596   -4.0986    0.0000 C   0  0  0  0  0  0  0  0  0  0  0  0
    9.1452   -3.6861    0.0000 C   0  0  0  0  0  0  0  0  0  0  0  0
    8.4307   -4.0986    0.0000 C   0  0  0  0  0  0  0  0  0  0  0  0
    7.0018   -4.0986    0.0000 O   0  0  0  0  0  0  0  0  0  0  0  0
    8.4307   -7.3986    0.0000 C   0  0  0  0  0  0  0  0  0  0  0  0
  1  2  1  0  0  0  0
  2  3  1  0  0  0  0
  3  4  1  0  0  0  0
  4  5  2  0  0  0  0
  5  6  1  0  0  0  0
  6  7  1  0  0  0  0
  7  8  1  0  0  0  0
  8  9  1  0  0  0  0
  9 10  1  0  0  0  0
 10 11  1  0  0  0  0
 11 12  2  0  0  0  0
 12 13  1  0  0  0  0
 13 14  1  0  0  0  0
 14 15  1  0  0  0  0
 15 16  1  0  0  0  0
 16 17  1  0  0  0  0
 17 18  1  0  0  0  0
 18 19  1  0  0  0  0
 19 20  1  0  0  0  0
 20 21  1  0  0  0  0
 21 22  1  0  0  0  0
 22 23  1  0  0  0  0
 23 24  2  0  0  0  0
  1 24  1  0  0  0  0
  1 17  2  0  0  0  0
 18 22  2  0  0  0  0
  4 12  1  0  0  0  0
  6 10  2  0  0  0  0
  3 25  2  0  0  0  0
 15 26  1  0  0  0  0
M  END
>  <cdx:fragmentId>
5

$$$$
