497203.cdx
  Mrv1902 05222410232D          

 20 23  0  0  0  0            999 V2000
    6.9540   -6.1714    0.0000 C   0  0  2  0  0  0  0  0  0  0  0  0
    7.6685   -6.5839    0.0000 C   0  0  2  0  0  0  0  0  0  0  0  0
    8.3830   -6.1714    0.0000 C   0  0  0  0  0  0  0  0  0  0  0  0
    9.1676   -6.4263    0.0000 C   0  0  0  0  0  0  0  0  0  0  0  0
    9.6525   -5.7589    0.0000 C   0  0  0  0  0  0  0  0  0  0  0  0
    9.1676   -5.0915    0.0000 O   0  0  0  0  0  0  0  0  0  0  0  0
    8.3830   -5.3464    0.0000 C   0  0  0  0  0  0  0  0  0  0  0  0
    7.6685   -4.9339    0.0000 C   0  0  0  0  0  0  0  0  0  0  0  0
    6.9540   -5.3464    0.0000 C   0  0  1  0  0  0  0  0  0  0  0  0
    6.1694   -5.0915    0.0000 C   0  0  2  0  0  0  0  0  0  0  0  0
    5.3489   -5.0052    0.0000 C   0  0  0  0  0  0  0  0  0  0  0  0
    5.6845   -5.7589    0.0000 C   0  0  2  0  0  0  0  0  0  0  0  0
    6.1694   -6.4263    0.0000 C   0  0  0  0  0  0  0  0  0  0  0  0
    7.6685   -7.4089    0.0000 O   0  0  0  0  0  0  0  0  0  0  0  0
    5.9145   -7.2110    0.0000 C   0  0  0  0  0  0  0  0  0  0  0  0
    6.9540   -4.5214    0.0000 C   0  0  0  0  0  0  0  0  0  0  0  0
    9.4225   -7.2110    0.0000 C   0  0  0  0  0  0  0  0  0  0  0  0
    6.8678   -6.9919    0.0000 H   0  0  0  0  0  0  0  0  0  0  0  0
    6.3409   -4.2845    0.0000 H   0  0  0  0  0  0  0  0  0  0  0  0
    4.9700   -6.1714    0.0000 H   0  0  0  0  0  0  0  0  0  0  0  0
  1  2  1  0  0  0  0
  2  3  1  0  0  0  0
  3  4  1  0  0  0  0
  4  5  2  0  0  0  0
  5  6  1  0  0  0  0
  6  7  1  0  0  0  0
  7  8  1  0  0  0  0
  8  9  1  0  0  0  0
  9 10  1  0  0  0  0
 10 11  1  0  0  0  0
 11 12  1  0  0  0  0
 12 13  1  0  0  0  0
  1 13  1  0  0  0  0
  1  9  1  0  0  0  0
 10 12  1  0  0  0  0
  3  7  2  0  0  0  0
  2 14  1  6  0  0  0
 13 15  2  0  0  0  0
  9 16  1  1  0  0  0
  4 17  1  0  0  0  0
  1 18  1  6  0  0  0
 10 19  1  6  0  0  0
 12 20  1  6  0  0  0
M  END
>  <cdx:fragmentId>
22240

$$$$
