11497571.cdx
  Mrv1902 05222410232D          

 39 42  0  0  0  0            999 V2000
   12.3731  -14.8937    0.0000 O   0  0  0  0  0  0  0  0  0  0  0  0
   12.8581  -14.2263    0.0000 C   0  0  0  0  0  0  0  0  0  0  0  0
   12.3731  -13.5588    0.0000 C   0  0  0  0  0  0  0  0  0  0  0  0
   11.5885  -13.8138    0.0000 C   0  0  0  0  0  0  0  0  0  0  0  0
   10.8741  -13.4013    0.0000 C   0  0  0  0  0  0  0  0  0  0  0  0
   10.1596  -13.8138    0.0000 C   0  0  2  0  0  0  0  0  0  0  0  0
   10.1596  -14.6388    0.0000 C   0  0  2  0  0  0  0  0  0  0  0  0
   10.8741  -15.0513    0.0000 C   0  0  0  0  0  0  0  0  0  0  0  0
   11.5885  -14.6388    0.0000 C   0  0  2  0  0  0  0  0  0  0  0  0
   13.6831  -14.2263    0.0000 O   0  0  0  0  0  0  0  0  0  0  0  0
    9.7471  -15.3532    0.0000 C   0  0  0  0  0  0  0  0  0  0  0  0
   12.6281  -12.7742    0.0000 C   0  0  0  0  0  0  0  0  0  0  0  0
    9.3346  -14.6388    0.0000 C   0  0  0  0  0  0  0  0  0  0  0  0
    8.9221  -15.3532    0.0000 C   0  0  0  0  0  0  0  0  0  0  0  0
    9.4451  -12.5763    0.0000 C   0  0  0  0  0  0  0  0  0  0  0  0
    9.4451  -13.4013    0.0000 C   0  0  0  0  0  0  0  0  0  0  0  0
    8.7306  -13.8138    0.0000 C   0  0  0  0  0  0  0  0  0  0  0  0
    8.0162  -13.4013    0.0000 O   0  0  0  0  0  0  0  0  0  0  0  0
    6.5872  -13.4013    0.0000 O   0  0  0  0  0  0  0  0  0  0  0  0
    7.3017  -13.8138    0.0000 C   0  0  2  0  0  0  0  0  0  0  0  0
    7.3017  -14.6388    0.0000 C   0  0  1  0  0  0  0  0  0  0  0  0
    6.5872  -15.0513    0.0000 C   0  0  2  0  0  0  0  0  0  0  0  0
    5.8728  -14.6388    0.0000 C   0  0  1  0  0  0  0  0  0  0  0  0
    5.8728  -13.8138    0.0000 C   0  0  1  0  0  0  0  0  0  0  0  0
    5.1583  -15.0513    0.0000 O   0  0  0  0  0  0  0  0  0  0  0  0
    6.5872  -15.8763    0.0000 O   0  0  0  0  0  0  0  0  0  0  0  0
    8.0162  -15.0513    0.0000 O   0  0  0  0  0  0  0  0  0  0  0  0
    5.1583  -13.4013    0.0000 C   0  0  0  0  0  0  0  0  0  0  0  0
    4.4438  -13.8138    0.0000 O   0  0  0  0  0  0  0  0  0  0  0  0
    3.6431  -12.5808    0.0000 O   0  0  0  0  0  0  0  0  0  0  0  0
    3.7293  -13.4013    0.0000 C   0  0  2  0  0  0  0  0  0  0  0  0
    2.9757  -13.7368    0.0000 C   0  0  1  0  0  0  0  0  0  0  0  0
    2.4236  -13.1237    0.0000 C   0  0  2  0  0  0  0  0  0  0  0  0
    2.8361  -12.4093    0.0000 C   0  0  0  0  0  0  0  0  0  0  0  0
    1.6700  -12.7882    0.0000 C   0  0  0  0  0  0  0  0  0  0  0  0
    1.0025  -13.2731    0.0000 O   0  0  0  0  0  0  0  0  0  0  0  0
    1.7562  -13.6087    0.0000 O   0  0  0  0  0  0  0  0  0  0  0  0
    2.8041  -14.5438    0.0000 O   0  0  0  0  0  0  0  0  0  0  0  0
   11.6748  -15.4592    0.0000 H   0  0  0  0  0  0  0  0  0  0  0  0
  1  2  1  0  0  0  0
  2  3  1  0  0  0  0
  3  4  2  0  0  0  0
  4  5  1  0  0  0  0
  5  6  1  0  0  0  0
  6  7  1  0  0  0  0
  7  8  1  0  0  0  0
  8  9  1  0  0  0  0
  4  9  1  0  0  0  0
  1  9  1  0  0  0  0
  2 10  2  0  0  0  0
  7 11  1  6  0  0  0
  3 12  1  0  0  0  0
 13 14  2  0  0  0  0
  7 13  1  1  0  0  0
 15 16  2  0  0  0  0
 16 17  1  0  0  0  0
 19 20  1  0  0  0  0
 20 21  1  0  0  0  0
 21 22  1  0  0  0  0
 22 23  1  0  0  0  0
 23 24  1  0  0  0  0
 19 24  1  0  0  0  0
 23 25  1  6  0  0  0
 22 26  1  1  0  0  0
 21 27  1  6  0  0  0
 30 31  1  0  0  0  0
 31 32  1  0  0  0  0
 32 33  1  0  0  0  0
 33 34  1  0  0  0  0
 30 34  1  0  0  0  0
 35 36  1  0  0  0  0
 33 35  1  1  0  0  0
 33 37  1  6  0  0  0
 32 38  1  6  0  0  0
 31 29  1  1  0  0  0
 28 29  1  0  0  0  0
 24 28  1  1  0  0  0
 20 18  1  1  0  0  0
 17 18  1  0  0  0  0
  6 16  1  6  0  0  0
  9 39  1  6  0  0  0
M  END
>  <cdx:groupId>
73184

>  <cdx:fragmentId>
73125

$$$$
