4977.cdx
  Mrv1902 05222410262D          

 55 61  0  0  0  0            999 V2000
    8.8672   -7.7203    0.0000 O   0  0  0  0  0  0  0  0  0  0  0  0
    8.8672   -6.8953    0.0000 C   0  0  0  0  0  0  0  0  0  0  0  0
    9.5816   -6.4828    0.0000 O   0  0  0  0  0  0  0  0  0  0  0  0
    9.5830   -5.6578    0.0000 C   0  0  0  0  0  0  0  0  0  0  0  0
   10.2974   -5.2453    0.0000 C   0  0  0  0  0  0  0  0  0  0  0  0
   11.0119   -5.6578    0.0000 O   0  0  0  0  0  0  0  0  0  0  0  0
   10.2974   -4.4203    0.0000 C   0  0  0  0  0  0  0  0  0  0  0  0
   11.0119   -4.0078    0.0000 O   0  0  0  0  0  0  0  0  0  0  0  0
    9.5830   -4.0078    0.0000 C   0  0  0  0  0  0  0  0  0  0  0  0
    8.8685   -4.4203    0.0000 C   0  0  0  0  0  0  0  0  0  0  0  0
    8.8685   -5.2453    0.0000 C   0  0  0  0  0  0  0  0  0  0  0  0
    8.1540   -5.6578    0.0000 C   0  0  0  0  0  0  0  0  0  0  0  0
    7.4395   -5.2453    0.0000 C   0  0  0  0  0  0  0  0  0  0  0  0
    7.4395   -4.4203    0.0000 O   0  0  0  0  0  0  0  0  0  0  0  0
    8.1540   -4.0078    0.0000 C   0  0  0  0  0  0  0  0  0  0  0  0
    8.1540   -3.1828    0.0000 O   0  0  0  0  0  0  0  0  0  0  0  0
    6.7251   -5.6578    0.0000 C   0  0  0  0  0  0  0  0  0  0  0  0
    6.0106   -5.2453    0.0000 O   0  0  0  0  0  0  0  0  0  0  0  0
    6.7251   -6.4828    0.0000 C   0  0  0  0  0  0  0  0  0  0  0  0
    6.0106   -6.8953    0.0000 O   0  0  0  0  0  0  0  0  0  0  0  0
    7.4395   -6.8953    0.0000 C   0  0  0  0  0  0  0  0  0  0  0  0
    8.1540   -6.4828    0.0000 C   0  0  0  0  0  0  0  0  0  0  0  0
   11.7264   -5.2453    0.0000 C   0  0  0  0  0  0  0  0  0  0  0  0
    6.0106   -7.7203    0.0000 C   0  0  2  0  0  0  0  0  0  0  0  0
    5.2961   -8.1328    0.0000 O   0  0  0  0  0  0  0  0  0  0  0  0
    5.2961   -8.9578    0.0000 C   0  0  2  0  0  0  0  0  0  0  0  0
    6.0106   -9.3703    0.0000 C   0  0  1  0  0  0  0  0  0  0  0  0
    6.7251   -8.9578    0.0000 C   0  0  2  0  0  0  0  0  0  0  0  0
    6.7251   -8.1328    0.0000 C   0  0  1  0  0  0  0  0  0  0  0  0
    7.4395   -7.7203    0.0000 O   0  0  0  0  0  0  0  0  0  0  0  0
    7.4395   -9.3703    0.0000 O   0  0  0  0  0  0  0  0  0  0  0  0
    6.0106  -10.1953    0.0000 O   0  0  0  0  0  0  0  0  0  0  0  0
    4.5817   -9.3703    0.0000 C   0  0  0  0  0  0  0  0  0  0  0  0
    5.2961  -10.6078    0.0000 C   0  0  0  0  0  0  0  0  0  0  0  0
    7.4395  -10.1953    0.0000 C   0  0  0  0  0  0  0  0  0  0  0  0
    5.2961  -11.4328    0.0000 C   0  0  0  0  0  0  0  0  0  0  0  0
    4.5817  -10.1953    0.0000 O   0  0  0  0  0  0  0  0  0  0  0  0
    4.5817  -11.8453    0.0000 C   0  0  0  0  0  0  0  0  0  0  0  0
    4.5817  -12.6703    0.0000 C   0  0  0  0  0  0  0  0  0  0  0  0
    5.2961  -13.0828    0.0000 C   0  0  0  0  0  0  0  0  0  0  0  0
    6.0106  -12.6703    0.0000 C   0  0  0  0  0  0  0  0  0  0  0  0
    6.0106  -11.8453    0.0000 C   0  0  0  0  0  0  0  0  0  0  0  0
    6.7251  -13.0828    0.0000 O   0  0  0  0  0  0  0  0  0  0  0  0
    5.2961  -13.9078    0.0000 O   0  0  0  0  0  0  0  0  0  0  0  0
    3.8672  -13.0828    0.0000 O   0  0  0  0  0  0  0  0  0  0  0  0
    8.1540  -10.6078    0.0000 C   0  0  0  0  0  0  0  0  0  0  0  0
    6.7251  -10.6078    0.0000 O   0  0  0  0  0  0  0  0  0  0  0  0
    8.1540  -11.4328    0.0000 C   0  0  0  0  0  0  0  0  0  0  0  0
    8.8685  -11.8453    0.0000 C   0  0  0  0  0  0  0  0  0  0  0  0
    9.5830  -11.4328    0.0000 C   0  0  0  0  0  0  0  0  0  0  0  0
    9.5830  -10.6078    0.0000 C   0  0  0  0  0  0  0  0  0  0  0  0
    8.8685  -10.1953    0.0000 C   0  0  0  0  0  0  0  0  0  0  0  0
    8.8685  -12.6703    0.0000 O   0  0  0  0  0  0  0  0  0  0  0  0
   10.2974  -11.8453    0.0000 O   0  0  0  0  0  0  0  0  0  0  0  0
   10.2974  -10.1953    0.0000 O   0  0  0  0  0  0  0  0  0  0  0  0
  1  2  2  0  0  0  0
  2  3  1  0  0  0  0
  3  4  1  0  0  0  0
  4  5  1  0  0  0  0
  5  6  1  0  0  0  0
  5  7  2  0  0  0  0
  7  8  1  0  0  0  0
  7  9  1  0  0  0  0
  9 10  2  0  0  0  0
 10 11  1  0  0  0  0
  4 11  2  0  0  0  0
 11 12  1  0  0  0  0
 12 13  1  0  0  0  0
 13 14  1  0  0  0  0
 14 15  1  0  0  0  0
 10 15  1  0  0  0  0
 15 16  2  0  0  0  0
 13 17  2  0  0  0  0
 17 18  1  0  0  0  0
 17 19  1  0  0  0  0
 19 20  1  0  0  0  0
 19 21  2  0  0  0  0
 21 22  1  0  0  0  0
 12 22  2  0  0  0  0
  2 22  1  0  0  0  0
  6 23  1  0  0  0  0
 24 20  1  1  0  0  0
 24 25  1  0  0  0  0
 25 26  1  0  0  0  0
 26 27  1  0  0  0  0
 27 28  1  0  0  0  0
 28 29  1  0  0  0  0
 29 24  1  0  0  0  0
 29 30  1  6  0  0  0
 28 31  1  6  0  0  0
 27 32  1  1  0  0  0
 26 33  1  6  0  0  0
 32 34  1  0  0  0  0
 31 35  1  0  0  0  0
 34 36  1  0  0  0  0
 34 37  2  0  0  0  0
 36 38  2  0  0  0  0
 38 39  1  0  0  0  0
 39 40  2  0  0  0  0
 40 41  1  0  0  0  0
 41 42  2  0  0  0  0
 42 36  1  0  0  0  0
 41 43  1  0  0  0  0
 40 44  1  0  0  0  0
 39 45  1  0  0  0  0
 35 46  1  0  0  0  0
 35 47  2  0  0  0  0
 46 48  2  0  0  0  0
 48 49  1  0  0  0  0
 49 50  2  0  0  0  0
 50 51  1  0  0  0  0
 51 52  2  0  0  0  0
 52 46  1  0  0  0  0
 49 53  1  0  0  0  0
 50 54  1  0  0  0  0
 51 55  1  0  0  0  0
M  END
>  <cdx:fragmentId>
22346

$$$$
