497745.cdx
  Mrv1902 05222410212D          

 34 37  0  0  0  0            999 V2000
    6.3990   -9.2942    0.0000 O   0  0  0  0  0  0  0  0  0  0  0  0
    7.1143   -9.7053    0.0000 C   0  0  2  0  0  0  0  0  0  0  0  0
    7.1160  -10.5302    0.0000 C   0  0  1  0  0  0  0  0  0  0  0  0
    6.4024  -10.9442    0.0000 C   0  0  2  0  0  0  0  0  0  0  0  0
    5.6871  -10.5332    0.0000 C   0  0  1  0  0  0  0  0  0  0  0  0
    5.6854   -9.7082    0.0000 C   0  0  1  0  0  0  0  0  0  0  0  0
    7.8314  -10.9413    0.0000 O   0  0  0  0  0  0  0  0  0  0  0  0
    6.4041  -11.7692    0.0000 O   0  0  0  0  0  0  0  0  0  0  0  0
    4.9735  -10.9472    0.0000 O   0  0  0  0  0  0  0  0  0  0  0  0
    4.9701   -9.2972    0.0000 C   0  0  0  0  0  0  0  0  0  0  0  0
    4.2565   -9.7112    0.0000 O   0  0  0  0  0  0  0  0  0  0  0  0
    8.3518   -6.1832    0.0000 C   0  0  0  0  0  0  0  0  0  0  0  0
    8.0681   -5.4085    0.0000 C   0  0  0  0  0  0  0  0  0  0  0  0
    8.5971   -4.7755    0.0000 C   0  0  0  0  0  0  0  0  0  0  0  0
    9.4098   -4.9170    0.0000 C   0  0  0  0  0  0  0  0  0  0  0  0
    9.6936   -5.6917    0.0000 C   0  0  0  0  0  0  0  0  0  0  0  0
    9.1646   -6.3248    0.0000 C   0  0  0  0  0  0  0  0  0  0  0  0
    9.9388   -4.2840    0.0000 O   0  0  0  0  0  0  0  0  0  0  0  0
    8.3133   -4.0008    0.0000 O   0  0  0  0  0  0  0  0  0  0  0  0
    7.3208   -4.0028    0.0000 O   0  0  0  0  0  0  0  0  0  0  0  0
    5.6964   -4.2927    0.0000 O   0  0  0  0  0  0  0  0  0  0  0  0
    6.4791   -6.3303    0.0000 C   0  0  0  0  0  0  0  0  0  0  0  0
    5.9475   -5.6994    0.0000 C   0  0  0  0  0  0  0  0  0  0  0  0
    6.2280   -4.9236    0.0000 C   0  0  0  0  0  0  0  0  0  0  0  0
    7.0402   -4.7787    0.0000 C   0  0  0  0  0  0  0  0  0  0  0  0
    7.5718   -5.4096    0.0000 C   0  0  0  0  0  0  0  0  0  0  0  0
    7.2912   -6.1854    0.0000 C   0  0  0  0  0  0  0  0  0  0  0  0
    7.8228   -6.8163    0.0000 C   0  0  0  0  0  0  0  0  0  0  0  0
    8.5382   -7.2273    0.0000 C   0  0  0  0  0  0  0  0  0  0  0  0
    8.5399   -8.0523    0.0000 C   0  0  0  0  0  0  0  0  0  0  0  0
    7.8263   -8.4663    0.0000 C   0  0  2  0  0  0  0  0  0  0  0  0
    7.1109   -8.0553    0.0000 C   0  0  0  0  0  0  0  0  0  0  0  0
    7.1092   -7.2303    0.0000 O   0  0  0  0  0  0  0  0  0  0  0  0
    7.8280   -9.2913    0.0000 O   0  0  0  0  0  0  0  0  0  0  0  0
 31 34  1  1  0  0  0
 28 27  1  0  0  0  0
 25 20  1  0  0  0  0
 24 21  1  0  0  0  0
 27 22  2  0  0  0  0
 23 22  1  0  0  0  0
 24 23  2  0  0  0  0
 25 24  1  0  0  0  0
 26 25  2  0  0  0  0
 27 26  1  0  0  0  0
 28 12  1  0  0  0  0
 33 28  1  0  0  0  0
 29 28  1  0  0  0  0
 30 29  1  0  0  0  0
 31 30  1  0  0  0  0
  1  2  1  0  0  0  0
  2  3  1  0  0  0  0
  3  4  1  0  0  0  0
  4  5  1  0  0  0  0
  5  6  1  0  0  0  0
  1  6  1  0  0  0  0
  3  7  1  6  0  0  0
  4  8  1  1  0  0  0
  5  9  1  6  0  0  0
 10 11  1  0  0  0  0
  6 10  1  1  0  0  0
 32 31  1  0  0  0  0
 33 32  1  0  0  0  0
 12 13  1  0  0  0  0
 13 14  2  0  0  0  0
 14 15  1  0  0  0  0
 15 16  2  0  0  0  0
 16 17  1  0  0  0  0
 12 17  2  0  0  0  0
 15 18  1  0  0  0  0
 14 19  1  0  0  0  0
  2 34  1  1  0  0  0
M  END
>  <cdx:fragmentId>
246969

$$$$
