497746.cdx
  Mrv1902 05222410202D          

 36 39  0  0  0  0            999 V2000
    8.7774   -8.0162    0.0000 C   0  0  0  0  0  0  0  0  0  0  0  0
    8.7774   -8.8413    0.0000 C   0  0  0  0  0  0  0  0  0  0  0  0
    9.4919   -9.2538    0.0000 C   0  0  0  0  0  0  0  0  0  0  0  0
   10.2064   -8.8413    0.0000 C   0  0  0  0  0  0  0  0  0  0  0  0
   10.2064   -8.0162    0.0000 C   0  0  0  0  0  0  0  0  0  0  0  0
    9.4919   -7.6037    0.0000 C   0  0  0  0  0  0  0  0  0  0  0  0
   10.9208   -7.6037    0.0000 O   0  0  0  0  0  0  0  0  0  0  0  0
   10.9208   -9.2538    0.0000 O   0  0  0  0  0  0  0  0  0  0  0  0
    8.0630   -7.6037    0.0000 C   0  0  0  0  0  0  0  0  0  0  0  0
    7.3485   -8.0162    0.0000 C   0  0  0  0  0  0  0  0  0  0  0  0
    8.0630   -6.7788    0.0000 O   0  0  0  0  0  0  0  0  0  0  0  0
    6.6340   -7.6037    0.0000 C   0  0  0  0  0  0  0  0  0  0  0  0
    7.3485   -8.8413    0.0000 O   0  0  0  0  0  0  0  0  0  0  0  0
    5.9194   -8.0159    0.0000 C   0  0  0  0  0  0  0  0  0  0  0  0
    5.5065   -8.7302    0.0000 C   0  0  0  0  0  0  0  0  0  0  0  0
    5.5072   -7.3013    0.0000 C   0  0  0  0  0  0  0  0  0  0  0  0
    5.0944   -8.0155    0.0000 O   0  0  0  0  0  0  0  0  0  0  0  0
    5.9200   -6.5870    0.0000 C   0  0  0  0  0  0  0  0  0  0  0  0
    5.5078   -5.8723    0.0000 C   0  0  0  0  0  0  0  0  0  0  0  0
    4.6828   -5.8719    0.0000 C   0  0  0  0  0  0  0  0  0  0  0  0
    4.2700   -6.5862    0.0000 C   0  0  0  0  0  0  0  0  0  0  0  0
    4.6822   -7.3009    0.0000 C   0  0  0  0  0  0  0  0  0  0  0  0
    4.2707   -5.1573    0.0000 O   0  0  0  0  0  0  0  0  0  0  0  0
    5.9207   -5.1580    0.0000 O   0  0  0  0  0  0  0  0  0  0  0  0
    6.9365   -9.5560    0.0000 C   0  0  2  0  0  0  0  0  0  0  0  0
    6.1115   -9.5567    0.0000 O   0  0  0  0  0  0  0  0  0  0  0  0
    5.6996  -10.2715    0.0000 C   0  0  1  0  0  0  0  0  0  0  0  0
    6.1127  -10.9856    0.0000 C   0  0  2  0  0  0  0  0  0  0  0  0
    6.9377  -10.9850    0.0000 C   0  0  1  0  0  0  0  0  0  0  0  0
    7.3496  -10.2702    0.0000 C   0  0  1  0  0  0  0  0  0  0  0  0
    4.8746  -10.2721    0.0000 C   0  0  0  0  0  0  0  0  0  0  0  0
    7.3507  -11.6991    0.0000 O   0  0  0  0  0  0  0  0  0  0  0  0
    5.7007  -11.7004    0.0000 O   0  0  0  0  0  0  0  0  0  0  0  0
    8.1746  -10.2695    0.0000 O   0  0  0  0  0  0  0  0  0  0  0  0
    4.4627  -10.9869    0.0000 O   0  0  0  0  0  0  0  0  0  0  0  0
    4.7096   -8.9437    0.0000 O   0  0  0  0  0  0  0  0  0  0  0  0
  1  2  2  0  0  0  0
  2  3  1  0  0  0  0
  3  4  2  0  0  0  0
  4  5  1  0  0  0  0
  5  6  2  0  0  0  0
  6  1  1  0  0  0  0
  5  7  1  0  0  0  0
  4  8  1  0  0  0  0
  1  9  1  0  0  0  0
  9 10  1  0  0  0  0
  9 11  2  0  0  0  0
 10 12  1  0  0  0  0
 10 13  1  0  0  0  0
 12 14  1  0  0  0  0
 14 15  1  0  0  0  0
 14 16  1  0  0  0  0
 14 17  1  0  0  0  0
 17 15  1  0  0  0  0
 16 18  2  0  0  0  0
 18 19  1  0  0  0  0
 19 20  2  0  0  0  0
 20 21  1  0  0  0  0
 21 22  2  0  0  0  0
 22 16  1  0  0  0  0
 20 23  1  0  0  0  0
 19 24  1  0  0  0  0
 25 13  1  1  0  0  0
 25 26  1  0  0  0  0
 26 27  1  0  0  0  0
 27 28  1  0  0  0  0
 28 29  1  0  0  0  0
 29 30  1  0  0  0  0
 30 25  1  0  0  0  0
 27 31  1  1  0  0  0
 29 32  1  1  0  0  0
 28 33  1  6  0  0  0
 30 34  1  6  0  0  0
 31 35  1  0  0  0  0
 15 36  1  0  0  0  0
M  END
>  <cdx:fragmentId>
5

$$$$
