497804.cdx
  Mrv1902 05222410222D          

 24 28  0  0  0  0            999 V2000
    7.9280   -6.6330    0.0000 C   0  0  0  0  0  0  0  0  0  0  0  0
    7.9280   -5.8080    0.0000 C   0  0  0  0  0  0  0  0  0  0  0  0
    7.3149   -5.2560    0.0000 O   0  0  0  0  0  0  0  0  0  0  0  0
    7.6505   -4.5023    0.0000 C   0  0  0  0  0  0  0  0  0  0  0  0
    8.4710   -4.5886    0.0000 O   0  0  0  0  0  0  0  0  0  0  0  0
    8.6425   -5.3955    0.0000 C   0  0  0  0  0  0  0  0  0  0  0  0
    9.3570   -5.8080    0.0000 C   0  0  0  0  0  0  0  0  0  0  0  0
    9.3570   -6.6330    0.0000 C   0  0  0  0  0  0  0  0  0  0  0  0
   10.0720   -7.0446    0.0000 C   0  0  0  0  0  0  0  0  0  0  0  0
   10.0717   -7.8696    0.0000 C   0  0  0  0  0  0  0  0  0  0  0  0
    9.3574   -8.2823    0.0000 N   0  0  0  0  0  0  0  0  0  0  0  0
    8.6425   -7.8705    0.0000 C   0  0  1  0  0  0  0  0  0  0  0  0
    7.9280   -8.2830    0.0000 C   0  0  0  0  0  0  0  0  0  0  0  0
    7.2135   -7.8705    0.0000 C   0  0  0  0  0  0  0  0  0  0  0  0
    6.4991   -8.2830    0.0000 C   0  0  0  0  0  0  0  0  0  0  0  0
    5.7846   -7.8705    0.0000 C   0  0  0  0  0  0  0  0  0  0  0  0
    5.7846   -7.0455    0.0000 C   0  0  0  0  0  0  0  0  0  0  0  0
    6.4991   -6.6330    0.0000 C   0  0  0  0  0  0  0  0  0  0  0  0
    7.2135   -7.0455    0.0000 C   0  0  0  0  0  0  0  0  0  0  0  0
    8.6425   -7.0455    0.0000 C   0  0  0  0  0  0  0  0  0  0  0  0
    5.0701   -6.6330    0.0000 O   0  0  0  0  0  0  0  0  0  0  0  0
    6.4991   -5.8080    0.0000 O   0  0  0  0  0  0  0  0  0  0  0  0
    5.7846   -5.3955    0.0000 C   0  0  0  0  0  0  0  0  0  0  0  0
    8.6425   -8.6955    0.0000 H   0  0  0  0  0  0  0  0  0  0  0  0
  1  2  1  0  0  0  0
  2  3  1  0  0  0  0
  3  4  1  0  0  0  0
  4  5  1  0  0  0  0
  5  6  1  0  0  0  0
  6  7  1  0  0  0  0
  7  8  2  0  0  0  0
  8  9  1  0  0  0  0
  9 10  1  0  0  0  0
 10 11  1  0  0  0  0
 11 12  1  0  0  0  0
 12 13  1  0  0  0  0
 13 14  1  0  0  0  0
 14 15  1  0  0  0  0
 15 16  2  0  0  0  0
 16 17  1  0  0  0  0
 17 18  2  0  0  0  0
 18 19  1  0  0  0  0
  1 19  1  0  0  0  0
  1 20  2  0  0  0  0
 20 12  1  0  0  0  0
 14 19  2  0  0  0  0
  2  6  2  0  0  0  0
  8 20  1  0  0  0  0
 17 21  1  0  0  0  0
 22 23  1  0  0  0  0
 18 22  1  0  0  0  0
 12 24  1  6  0  0  0
M  END
>  <cdx:groupId>
82

>  <cdx:fragmentId>
9

$$$$
