4978.cdx
  Mrv1902 05222410222D          

 39 46  0  0  0  0            999 V2000
    4.7125   -4.8330    0.0000 C   0  0  0  0  0  0  0  0  0  0  0  0
    4.7125   -4.0080    0.0000 C   0  0  0  0  0  0  0  0  0  0  0  0
    5.4271   -3.5957    0.0000 C   0  0  0  0  0  0  0  0  0  0  0  0
    6.1420   -4.0075    0.0000 C   0  0  0  0  0  0  0  0  0  0  0  0
    6.8564   -3.5947    0.0000 C   0  0  0  0  0  0  0  0  0  0  0  0
    6.8550   -2.7697    0.0000 C   0  0  0  0  0  0  0  0  0  0  0  0
    6.1401   -2.3580    0.0000 C   0  0  0  0  0  0  0  0  0  0  0  0
    5.4258   -2.7707    0.0000 C   0  0  0  0  0  0  0  0  0  0  0  0
    4.7109   -2.3589    0.0000 C   0  0  0  0  0  0  0  0  0  0  0  0
    3.9965   -2.7717    0.0000 C   0  0  0  0  0  0  0  0  0  0  0  0
    3.2817   -2.3599    0.0000 C   0  0  0  0  0  0  0  0  0  0  0  0
    2.5676   -2.7731    0.0000 C   0  0  0  0  0  0  0  0  0  0  0  0
    2.5684   -3.5981    0.0000 C   0  0  0  0  0  0  0  0  0  0  0  0
    3.2833   -4.0099    0.0000 C   0  0  0  0  0  0  0  0  0  0  0  0
    3.2836   -4.8349    0.0000 C   0  0  0  0  0  0  0  0  0  0  0  0
    2.5696   -5.2483    0.0000 C   0  0  0  0  0  0  0  0  0  0  0  0
    2.5707   -6.0733    0.0000 C   0  0  0  0  0  0  0  0  0  0  0  0
    3.2857   -6.4849    0.0000 C   0  0  0  0  0  0  0  0  0  0  0  0
    3.9997   -6.0714    0.0000 C   0  0  0  0  0  0  0  0  0  0  0  0
    4.7147   -6.4830    0.0000 C   0  0  0  0  0  0  0  0  0  0  0  0
    5.4286   -6.0696    0.0000 C   0  0  0  0  0  0  0  0  0  0  0  0
    6.1439   -6.4806    0.0000 C   0  0  0  0  0  0  0  0  0  0  0  0
    6.8585   -6.0683    0.0000 C   0  0  0  0  0  0  0  0  0  0  0  0
    6.8577   -5.2433    0.0000 C   0  0  0  0  0  0  0  0  0  0  0  0
    6.1422   -4.8325    0.0000 C   0  0  0  0  0  0  0  0  0  0  0  0
    5.4275   -5.2446    0.0000 C   0  0  0  0  0  0  0  0  0  0  0  0
    3.9986   -5.2464    0.0000 C   0  0  0  0  0  0  0  0  0  0  0  0
    3.9974   -3.5967    0.0000 C   0  0  0  0  0  0  0  0  0  0  0  0
    6.1401   -1.5330    0.0000 O   0  0  0  0  0  0  0  0  0  0  0  0
    6.1439   -7.3056    0.0000 O   0  0  0  0  0  0  0  0  0  0  0  0
    7.5721   -4.8308    0.0000 C   0  0  0  0  0  0  0  0  0  0  0  0
    7.5708   -4.0072    0.0000 C   0  0  0  0  0  0  0  0  0  0  0  0
    8.2853   -3.5947    0.0000 O   0  0  0  0  0  0  0  0  0  0  0  0
    4.7147   -7.3080    0.0000 O   0  0  0  0  0  0  0  0  0  0  0  0
    3.2857   -7.3099    0.0000 O   0  0  0  0  0  0  0  0  0  0  0  0
    1.8552   -4.8358    0.0000 O   0  0  0  0  0  0  0  0  0  0  0  0
    1.8539   -4.0106    0.0000 O   0  0  0  0  0  0  0  0  0  0  0  0
    3.2817   -1.5349    0.0000 O   0  0  0  0  0  0  0  0  0  0  0  0
    4.7109   -1.5339    0.0000 O   0  0  0  0  0  0  0  0  0  0  0  0
  1  2  1  0  0  0  0
  2  3  2  0  0  0  0
  3  4  1  0  0  0  0
  4  5  1  0  0  0  0
  5  6  2  0  0  0  0
  6  7  1  0  0  0  0
  7  8  1  0  0  0  0
  8  9  2  0  0  0  0
  9 10  1  0  0  0  0
 10 11  2  0  0  0  0
 11 12  1  0  0  0  0
 12 13  2  0  0  0  0
 13 14  1  0  0  0  0
 14 15  1  0  0  0  0
 15 16  1  0  0  0  0
 16 17  2  0  0  0  0
 17 18  1  0  0  0  0
 18 19  2  0  0  0  0
 19 20  1  0  0  0  0
 20 21  2  0  0  0  0
 21 22  1  0  0  0  0
 22 23  1  0  0  0  0
 23 24  2  0  0  0  0
 24 25  1  0  0  0  0
 25 26  1  0  0  0  0
  1 26  2  0  0  0  0
  1 27  1  0  0  0  0
 27 15  2  0  0  0  0
 21 26  1  0  0  0  0
  4 25  2  0  0  0  0
 10 28  1  0  0  0  0
 28  2  1  0  0  0  0
  3  8  1  0  0  0  0
 19 27  1  0  0  0  0
 14 28  2  0  0  0  0
  7 29  2  0  0  0  0
 22 30  2  0  0  0  0
 24 31  1  0  0  0  0
 32 33  1  0  0  0  0
  5 32  1  0  0  0  0
 20 34  1  0  0  0  0
 18 35  1  0  0  0  0
 16 36  1  0  0  0  0
 13 37  1  0  0  0  0
 11 38  1  0  0  0  0
  9 39  1  0  0  0  0
M  END
>  <cdx:groupId>
126

>  <cdx:fragmentId>
5

$$$$
