4979.cdx
  Mrv1902 05222410212D          

 26 29  0  0  0  0            999 V2000
    8.0851   -5.8980    0.0000 O   0  0  0  0  0  0  0  0  0  0  0  0
    9.5140   -5.0730    0.0000 O   0  0  0  0  0  0  0  0  0  0  0  0
    9.5140   -3.4230    0.0000 O   0  0  0  0  0  0  0  0  0  0  0  0
    8.7996   -4.6605    0.0000 C   0  0  0  0  0  0  0  0  0  0  0  0
    8.7996   -3.8355    0.0000 C   0  0  0  0  0  0  0  0  0  0  0  0
    8.0851   -3.4230    0.0000 C   0  0  0  0  0  0  0  0  0  0  0  0
    7.3706   -3.8355    0.0000 C   0  0  0  0  0  0  0  0  0  0  0  0
    8.0851   -5.0730    0.0000 C   0  0  0  0  0  0  0  0  0  0  0  0
    7.3706   -4.6605    0.0000 C   0  0  0  0  0  0  0  0  0  0  0  0
    5.9417   -6.3105    0.0000 C   0  0  0  0  0  0  0  0  0  0  0  0
    6.6562   -5.8980    0.0000 C   0  0  0  0  0  0  0  0  0  0  0  0
    6.6562   -5.0730    0.0000 C   0  0  0  0  0  0  0  0  0  0  0  0
    5.9417   -4.6605    0.0000 C   0  0  0  0  0  0  0  0  0  0  0  0
    5.2272   -5.8980    0.0000 C   0  0  0  0  0  0  0  0  0  0  0  0
    5.2272   -5.0730    0.0000 O   0  0  0  0  0  0  0  0  0  0  0  0
   10.2285   -4.6605    0.0000 C   0  0  0  0  0  0  0  0  0  0  0  0
    4.5127   -6.3105    0.0000 C   0  0  0  0  0  0  0  0  0  0  0  0
    4.5127   -7.1355    0.0000 C   0  0  0  0  0  0  0  0  0  0  0  0
    5.2272   -7.5480    0.0000 C   0  0  0  0  0  0  0  0  0  0  0  0
    5.9417   -7.1355    0.0000 C   0  0  0  0  0  0  0  0  0  0  0  0
    3.7983   -5.8980    0.0000 C   0  0  0  0  0  0  0  0  0  0  0  0
    3.0838   -6.3105    0.0000 C   0  0  0  0  0  0  0  0  0  0  0  0
    3.0838   -7.1355    0.0000 C   0  0  0  0  0  0  0  0  0  0  0  0
    3.7983   -7.5480    0.0000 O   0  0  0  0  0  0  0  0  0  0  0  0
    2.2588   -7.1355    0.0000 C   0  0  0  0  0  0  0  0  0  0  0  0
    2.6713   -7.8500    0.0000 C   0  0  0  0  0  0  0  0  0  0  0  0
  8  1  1  0  0  0  0
  4  2  1  0  0  0  0
  5  3  1  0  0  0  0
  4  8  1  0  0  0  0
  5  4  2  0  0  0  0
  6  5  1  0  0  0  0
  7  6  2  0  0  0  0
  9  7  1  0  0  0  0
  9  8  2  0  0  0  0
 12  9  1  0  0  0  0
 10 14  2  0  0  0  0
 11 10  1  0  0  0  0
 12 11  1  0  0  0  0
 13 12  1  0  0  0  0
 15 13  1  0  0  0  0
 15 14  1  0  0  0  0
  2 16  1  0  0  0  0
 14 17  1  0  0  0  0
 17 18  2  0  0  0  0
 18 19  1  0  0  0  0
 19 20  2  0  0  0  0
 20 10  1  0  0  0  0
 17 21  1  0  0  0  0
 21 22  2  0  0  0  0
 22 23  1  0  0  0  0
 23 24  1  0  0  0  0
 24 18  1  0  0  0  0
 23 25  1  0  0  0  0
 23 26  1  0  0  0  0
M  END
>  <cdx:fragmentId>
5

$$$$
