4980.cdx
  Mrv1902 05222410222D          

 28 31  0  0  0  0            999 V2000
    3.4270   -5.7956    0.0000 C   0  0  0  0  0  0  0  0  0  0  0  0
    3.4270   -6.6206    0.0000 C   0  0  0  0  0  0  0  0  0  0  0  0
    4.1415   -7.0331    0.0000 C   0  0  0  0  0  0  0  0  0  0  0  0
    4.8560   -6.6206    0.0000 C   0  0  0  0  0  0  0  0  0  0  0  0
    4.8560   -5.7956    0.0000 C   0  0  0  0  0  0  0  0  0  0  0  0
    4.1415   -5.3831    0.0000 C   0  0  0  0  0  0  0  0  0  0  0  0
    5.5704   -7.0331    0.0000 C   0  0  0  0  0  0  0  0  0  0  0  0
    6.2849   -6.6206    0.0000 C   0  0  0  0  0  0  0  0  0  0  0  0
    6.2849   -5.7956    0.0000 C   0  0  0  0  0  0  0  0  0  0  0  0
    5.5704   -5.3831    0.0000 O   0  0  0  0  0  0  0  0  0  0  0  0
    5.7420   -7.8401    0.0000 O   0  0  0  0  0  0  0  0  0  0  0  0
    6.5624   -7.9263    0.0000 C   0  0  0  0  0  0  0  0  0  0  0  0
    6.8980   -7.1727    0.0000 C   0  0  0  0  0  0  0  0  0  0  0  0
    7.0474   -8.5938    0.0000 C   0  0  0  0  0  0  0  0  0  0  0  0
    7.8679   -8.5075    0.0000 C   0  0  0  0  0  0  0  0  0  0  0  0
    8.2034   -7.7539    0.0000 C   0  0  0  0  0  0  0  0  0  0  0  0
    7.7185   -7.0864    0.0000 C   0  0  0  0  0  0  0  0  0  0  0  0
    2.7126   -7.0331    0.0000 C   0  0  0  0  0  0  0  0  0  0  0  0
    2.7126   -7.8581    0.0000 C   0  0  0  0  0  0  0  0  0  0  0  0
    1.9981   -8.2706    0.0000 C   0  0  0  0  0  0  0  0  0  0  0  0
    1.2836   -7.8581    0.0000 C   0  0  0  0  0  0  0  0  0  0  0  0
    1.9981   -9.0956    0.0000 C   0  0  0  0  0  0  0  0  0  0  0  0
    4.1415   -7.8581    0.0000 O   0  0  0  0  0  0  0  0  0  0  0  0
    4.8560   -8.2706    0.0000 C   0  0  0  0  0  0  0  0  0  0  0  0
    2.7126   -5.3831    0.0000 O   0  0  0  0  0  0  0  0  0  0  0  0
    6.9994   -5.3831    0.0000 O   0  0  0  0  0  0  0  0  0  0  0  0
    8.2804   -9.2220    0.0000 O   0  0  0  0  0  0  0  0  0  0  0  0
    1.9981   -5.7956    0.0000 C   0  0  0  0  0  0  0  0  0  0  0  0
  1  2  2  0  0  0  0
  2  3  1  0  0  0  0
  3  4  2  0  0  0  0
  4  5  1  0  0  0  0
  5  6  2  0  0  0  0
  6  1  1  0  0  0  0
  4  7  1  0  0  0  0
  7  8  2  0  0  0  0
  8  9  1  0  0  0  0
  9 10  1  0  0  0  0
 10  5  1  0  0  0  0
  7 11  1  0  0  0  0
 11 12  1  0  0  0  0
 12 13  2  0  0  0  0
 13  8  1  0  0  0  0
 12 14  1  0  0  0  0
 14 15  2  0  0  0  0
 15 16  1  0  0  0  0
 16 17  2  0  0  0  0
 17 13  1  0  0  0  0
  2 18  1  0  0  0  0
 18 19  1  0  0  0  0
 19 20  2  0  0  0  0
 20 21  1  0  0  0  0
 20 22  1  0  0  0  0
  3 23  1  0  0  0  0
 23 24  1  0  0  0  0
  1 25  1  0  0  0  0
  9 26  2  0  0  0  0
 15 27  1  0  0  0  0
 25 28  1  0  0  0  0
M  END
>  <cdx:fragmentId>
5

$$$$
