498169.cdx
  Mrv1902 05222410272D          

 25 26  0  0  0  0            999 V2000
    5.7446   -6.0441    0.0000 O   0  0  0  0  0  0  0  0  0  0  0  0
    6.4598   -6.4554    0.0000 C   0  0  2  0  0  0  0  0  0  0  0  0
    6.4612   -7.2804    0.0000 C   0  0  1  0  0  0  0  0  0  0  0  0
    5.7474   -7.6941    0.0000 C   0  0  1  0  0  0  0  0  0  0  0  0
    5.0322   -7.2828    0.0000 C   0  0  2  0  0  0  0  0  0  0  0  0
    5.0309   -6.4578    0.0000 C   0  0  2  0  0  0  0  0  0  0  0  0
    4.3157   -6.0465    0.0000 C   0  0  0  0  0  0  0  0  0  0  0  0
    4.3185   -7.6965    0.0000 O   0  0  0  0  0  0  0  0  0  0  0  0
    7.1736   -6.0417    0.0000 O   0  0  0  0  0  0  0  0  0  0  0  0
    5.7488   -8.5191    0.0000 O   0  0  0  0  0  0  0  0  0  0  0  0
    5.0350   -8.9328    0.0000 C   0  0  0  0  0  0  0  0  0  0  0  0
    5.0364   -9.7578    0.0000 O   0  0  0  0  0  0  0  0  0  0  0  0
    4.3198   -8.5215    0.0000 C   0  0  0  0  0  0  0  0  0  0  0  0
   12.1797   -8.9209    0.0000 O   0  0  0  0  0  0  0  0  0  0  0  0
   10.7480   -7.2732    0.0000 C   0  0  0  0  0  0  0  0  0  0  0  0
   11.4632   -7.6845    0.0000 C   0  0  0  0  0  0  0  0  0  0  0  0
   11.4645   -8.5095    0.0000 C   0  0  0  0  0  0  0  0  0  0  0  0
   10.7508   -8.9232    0.0000 C   0  0  0  0  0  0  0  0  0  0  0  0
   10.0356   -8.5119    0.0000 C   0  0  0  0  0  0  0  0  0  0  0  0
   10.0342   -7.6869    0.0000 C   0  0  0  0  0  0  0  0  0  0  0  0
    7.1763   -7.6917    0.0000 O   0  0  0  0  0  0  0  0  0  0  0  0
    7.8887   -6.4530    0.0000 O   0  0  0  0  0  0  0  0  0  0  0  0
    9.3191   -7.2756    0.0000 C   0  0  0  0  0  0  0  0  0  0  0  0
    8.6053   -7.6893    0.0000 C   0  0  0  0  0  0  0  0  0  0  0  0
    7.8901   -7.2780    0.0000 C   0  0  0  0  0  0  0  0  0  0  0  0
 23 20  1  0  0  0  0
 17 14  1  0  0  0  0
 20 15  2  0  0  0  0
 16 15  1  0  0  0  0
 17 16  2  0  0  0  0
 18 17  1  0  0  0  0
 19 18  2  0  0  0  0
 20 19  1  0  0  0  0
 25 21  1  0  0  0  0
 25 22  2  0  0  0  0
 24 23  2  0  0  0  0
 25 24  1  0  0  0  0
  1  2  1  0  0  0  0
  2  3  1  0  0  0  0
  3  4  1  0  0  0  0
  4  5  1  0  0  0  0
  5  6  1  0  0  0  0
  1  6  1  0  0  0  0
  6  7  1  6  0  0  0
  5  8  1  1  0  0  0
  2  9  1  1  0  0  0
 11 12  2  0  0  0  0
 11 13  1  0  0  0  0
 10 11  1  0  0  0  0
  4 10  1  6  0  0  0
  3 21  1  6  0  0  0
M  END
>  <cdx:fragmentId>
52602

$$$$
