4984.cdx
  Mrv1902 05222410212D          

 40 42  0  0  0  0            999 V2000
    7.9629   -7.5281    0.0000 O   0  0  0  0  0  0  0  0  0  0  0  0
    7.9629   -6.7031    0.0000 C   0  0  2  0  0  0  0  0  0  0  0  0
    8.6774   -6.2906    0.0000 C   0  0  1  0  0  0  0  0  0  0  0  0
    8.6774   -5.4656    0.0000 C   0  0  0  0  0  0  0  0  0  0  0  0
    7.9629   -5.0531    0.0000 C   0  0  1  0  0  0  0  0  0  0  0  0
    7.2485   -5.4656    0.0000 C   0  0  0  0  0  0  0  0  0  0  0  0
    7.2485   -6.2906    0.0000 C   0  0  1  0  0  0  0  0  0  0  0  0
    9.3919   -6.7031    0.0000 O   0  0  0  0  0  0  0  0  0  0  0  0
    6.5340   -6.7031    0.0000 O   0  0  0  0  0  0  0  0  0  0  0  0
    7.5504   -4.3387    0.0000 O   0  0  0  0  0  0  0  0  0  0  0  0
    8.3754   -4.3387    0.0000 C   0  0  0  0  0  0  0  0  0  0  0  0
    9.2004   -4.3387    0.0000 O   0  0  0  0  0  0  0  0  0  0  0  0
    7.9629   -3.6242    0.0000 O   0  0  0  0  0  0  0  0  0  0  0  0
    5.8195   -6.2906    0.0000 C   0  0  0  0  0  0  0  0  0  0  0  0
    5.8195   -5.4656    0.0000 O   0  0  0  0  0  0  0  0  0  0  0  0
    5.1051   -6.7031    0.0000 C   0  0  0  0  0  0  0  0  0  0  0  0
    4.3906   -6.2906    0.0000 C   0  0  0  0  0  0  0  0  0  0  0  0
    3.6761   -6.7031    0.0000 C   0  0  0  0  0  0  0  0  0  0  0  0
    2.9616   -6.2906    0.0000 C   0  0  0  0  0  0  0  0  0  0  0  0
    2.2472   -6.7031    0.0000 C   0  0  0  0  0  0  0  0  0  0  0  0
    2.2472   -7.5281    0.0000 C   0  0  0  0  0  0  0  0  0  0  0  0
    2.9616   -7.9406    0.0000 C   0  0  0  0  0  0  0  0  0  0  0  0
    3.6761   -7.5281    0.0000 C   0  0  0  0  0  0  0  0  0  0  0  0
    1.5327   -6.2906    0.0000 O   0  0  0  0  0  0  0  0  0  0  0  0
    1.5327   -7.9406    0.0000 O   0  0  0  0  0  0  0  0  0  0  0  0
    2.9616   -8.7656    0.0000 O   0  0  0  0  0  0  0  0  0  0  0  0
    3.6761   -9.1781    0.0000 C   0  0  0  0  0  0  0  0  0  0  0  0
    0.8182   -6.7031    0.0000 C   0  0  0  0  0  0  0  0  0  0  0  0
    8.6774   -7.9406    0.0000 C   0  0  0  0  0  0  0  0  0  0  0  0
    8.6774   -8.7656    0.0000 C   0  0  0  0  0  0  0  0  0  0  0  0
    9.3919   -7.5281    0.0000 O   0  0  0  0  0  0  0  0  0  0  0  0
    9.3919   -9.1781    0.0000 C   0  0  0  0  0  0  0  0  0  0  0  0
    9.3919  -10.0031    0.0000 C   0  0  0  0  0  0  0  0  0  0  0  0
    8.6774  -10.4156    0.0000 C   0  0  0  0  0  0  0  0  0  0  0  0
    8.6774  -11.2406    0.0000 C   0  0  0  0  0  0  0  0  0  0  0  0
    9.3919  -11.6531    0.0000 C   0  0  0  0  0  0  0  0  0  0  0  0
   10.1064  -11.2406    0.0000 C   0  0  0  0  0  0  0  0  0  0  0  0
   10.1064  -10.4156    0.0000 C   0  0  0  0  0  0  0  0  0  0  0  0
    9.3919  -12.4781    0.0000 O   0  0  0  0  0  0  0  0  0  0  0  0
   10.8208  -11.6531    0.0000 O   0  0  0  0  0  0  0  0  0  0  0  0
  2  1  1  1  0  0  0
  2  3  1  0  0  0  0
  3  4  1  0  0  0  0
  4  5  1  0  0  0  0
  5  6  1  0  0  0  0
  6  7  1  0  0  0  0
  7  2  1  0  0  0  0
  3  8  1  1  0  0  0
  7  9  1  6  0  0  0
  5 10  1  1  0  0  0
  5 11  1  0  0  0  0
 11 12  1  0  0  0  0
 11 13  2  0  0  0  0
  9 14  1  0  0  0  0
 14 15  2  0  0  0  0
 14 16  1  0  0  0  0
 16 17  2  0  0  0  0
 17 18  1  0  0  0  0
 18 19  2  0  0  0  0
 19 20  1  0  0  0  0
 20 21  2  0  0  0  0
 21 22  1  0  0  0  0
 22 23  2  0  0  0  0
 23 18  1  0  0  0  0
 20 24  1  0  0  0  0
 21 25  1  0  0  0  0
 22 26  1  0  0  0  0
 26 27  1  0  0  0  0
 24 28  1  0  0  0  0
  1 29  1  0  0  0  0
 29 30  1  0  0  0  0
 29 31  2  0  0  0  0
 30 32  2  0  0  0  0
 32 33  1  0  0  0  0
 33 34  2  0  0  0  0
 34 35  1  0  0  0  0
 35 36  2  0  0  0  0
 36 37  1  0  0  0  0
 37 38  2  0  0  0  0
 38 33  1  0  0  0  0
 36 39  1  0  0  0  0
 37 40  1  0  0  0  0
M  END
>  <cdx:fragmentId>
251

$$$$
