4987.cdx
  Mrv1902 05222410212D          

 28 29  0  0  0  0            999 V2000
    5.0032   -8.6363    0.0000 C   0  0  0  0  0  0  0  0  0  0  0  0
    4.2844   -9.0412    0.0000 C   0  0  0  0  0  0  0  0  0  0  0  0
    3.5743   -8.6212    0.0000 C   0  0  0  0  0  0  0  0  0  0  0  0
    2.8555   -9.0262    0.0000 C   0  0  0  0  0  0  0  0  0  0  0  0
    2.8469   -9.8512    0.0000 C   0  0  0  0  0  0  0  0  0  0  0  0
    3.5570  -10.2711    0.0000 C   0  0  0  0  0  0  0  0  0  0  0  0
    4.2757   -9.8662    0.0000 C   0  0  0  0  0  0  0  0  0  0  0  0
    2.1455   -8.6062    0.0000 O   0  0  0  0  0  0  0  0  0  0  0  0
    2.1281  -10.2561    0.0000 O   0  0  0  0  0  0  0  0  0  0  0  0
    3.5483  -11.0961    0.0000 O   0  0  0  0  0  0  0  0  0  0  0  0
    4.2584  -11.5161    0.0000 C   0  0  0  0  0  0  0  0  0  0  0  0
    2.1541   -7.7813    0.0000 C   0  0  0  0  0  0  0  0  0  0  0  0
    5.7133   -9.0563    0.0000 C   0  0  0  0  0  0  0  0  0  0  0  0
    6.4320   -8.6513    0.0000 C   0  0  0  0  0  0  0  0  0  0  0  0
    7.1421   -9.0713    0.0000 O   0  0  0  0  0  0  0  0  0  0  0  0
    6.4407   -7.8263    0.0000 O   0  0  0  0  0  0  0  0  0  0  0  0
    7.8609   -8.6663    0.0000 C   0  0  1  0  0  0  0  0  0  0  0  0
    8.5665   -9.0937    0.0000 C   0  0  2  0  0  0  0  0  0  0  0  0
    9.2895   -8.6964    0.0000 C   0  0  1  0  0  0  0  0  0  0  0  0
    9.2895   -7.8715    0.0000 C   0  0  0  0  0  0  0  0  0  0  0  0
    8.5665   -7.4441    0.0000 C   0  0  2  0  0  0  0  0  0  0  0  0
    7.8609   -7.8415    0.0000 C   0  0  0  0  0  0  0  0  0  0  0  0
    8.5492   -9.9186    0.0000 O   0  0  0  0  0  0  0  0  0  0  0  0
    8.1540   -6.7296    0.0000 O   0  0  0  0  0  0  0  0  0  0  0  0
    9.0475   -6.7925    0.0000 C   0  0  0  0  0  0  0  0  0  0  0  0
    9.8725   -6.7925    0.0000 O   0  0  0  0  0  0  0  0  0  0  0  0
    8.6350   -6.0780    0.0000 O   0  0  0  0  0  0  0  0  0  0  0  0
    9.9996   -9.1163    0.0000 O   0  0  0  0  0  0  0  0  0  0  0  0
  1  2  1  0  0  0  0
  2  3  2  0  0  0  0
  3  4  1  0  0  0  0
  4  5  2  0  0  0  0
  5  6  1  0  0  0  0
  6  7  2  0  0  0  0
  7  2  1  0  0  0  0
  4  8  1  0  0  0  0
  5  9  1  0  0  0  0
  6 10  1  0  0  0  0
 10 11  1  0  0  0  0
  8 12  1  0  0  0  0
  1 13  2  0  0  0  0
 13 14  1  0  0  0  0
 14 15  1  0  0  0  0
 14 16  2  0  0  0  0
 17 15  1  6  0  0  0
 17 18  1  0  0  0  0
 18 19  1  0  0  0  0
 19 20  1  0  0  0  0
 20 21  1  0  0  0  0
 21 22  1  0  0  0  0
 22 17  1  0  0  0  0
 18 23  1  6  0  0  0
 21 24  1  6  0  0  0
 21 25  1  0  0  0  0
 25 26  1  0  0  0  0
 25 27  2  0  0  0  0
 19 28  1  1  0  0  0
M  END
>  <cdx:fragmentId>
5

$$$$
