4989.cdx
  Mrv1902 05222410252D          

 51 56  0  0  0  0            999 V2000
    7.1739   -7.5900    0.0000 C   0  0  1  0  0  0  0  0  0  0  0  0
    7.1739   -8.4150    0.0000 C   0  0  1  0  0  0  0  0  0  0  0  0
    7.8884   -8.8275    0.0000 C   0  0  1  0  0  0  0  0  0  0  0  0
    8.6028   -8.4150    0.0000 C   0  0  1  0  0  0  0  0  0  0  0  0
    8.6028   -7.5900    0.0000 C   0  0  2  0  0  0  0  0  0  0  0  0
    7.8884   -7.1775    0.0000 C   0  0  0  0  0  0  0  0  0  0  0  0
    9.3173   -8.8275    0.0000 C   0  0  0  0  0  0  0  0  0  0  0  0
   10.0318   -8.4150    0.0000 C   0  0  0  0  0  0  0  0  0  0  0  0
   10.0318   -7.5900    0.0000 C   0  0  2  0  0  0  0  0  0  0  0  0
    9.3173   -7.1775    0.0000 C   0  0  2  0  0  0  0  0  0  0  0  0
   10.7463   -7.1775    0.0000 C   0  0  1  0  0  0  0  0  0  0  0  0
   10.7463   -6.3525    0.0000 C   0  0  0  0  0  0  0  0  0  0  0  0
   10.0318   -5.9400    0.0000 C   0  0  0  0  0  0  0  0  0  0  0  0
    9.3173   -6.3525    0.0000 C   0  0  0  0  0  0  0  0  0  0  0  0
   11.4607   -7.5900    0.0000 C   0  0  0  0  0  0  0  0  0  0  0  0
   12.1752   -7.1775    0.0000 C   0  0  0  0  0  0  0  0  0  0  0  0
   12.1752   -6.3525    0.0000 C   0  0  2  0  0  0  0  0  0  0  0  0
   11.4607   -5.9400    0.0000 C   0  0  1  0  0  0  0  0  0  0  0  0
   12.8897   -5.9400    0.0000 C   0  0  0  0  0  0  0  0  0  0  0  0
   12.8897   -5.1150    0.0000 C   0  0  0  0  0  0  0  0  0  0  0  0
   12.1752   -4.7025    0.0000 C   0  0  2  0  0  0  0  0  0  0  0  0
   11.4607   -5.1150    0.0000 C   0  0  2  0  0  0  0  0  0  0  0  0
    6.4594   -8.8275    0.0000 O   0  0  0  0  0  0  0  0  0  0  0  0
    8.3009   -9.5420    0.0000 C   0  0  0  0  0  0  0  0  0  0  0  0
    8.6028   -6.7650    0.0000 C   0  0  0  0  0  0  0  0  0  0  0  0
   10.0318   -6.7650    0.0000 C   0  0  0  0  0  0  0  0  0  0  0  0
   11.4607   -6.7650    0.0000 H   0  0  0  0  0  0  0  0  0  0  0  0
   12.8897   -6.7650    0.0000 C   0  0  0  0  0  0  0  0  0  0  0  0
   10.6357   -5.1150    0.0000 C   0  0  0  0  0  0  0  0  0  0  0  0
    7.4759   -9.5420    0.0000 C   0  0  0  0  0  0  0  0  0  0  0  0
    8.6028   -9.2400    0.0000 H   0  0  0  0  0  0  0  0  0  0  0  0
    9.3173   -8.0025    0.0000 H   0  0  0  0  0  0  0  0  0  0  0  0
   10.7463   -8.0025    0.0000 C   0  0  0  0  0  0  0  0  0  0  0  0
   11.0482   -4.4005    0.0000 O   0  0  0  0  0  0  0  0  0  0  0  0
   12.1752   -3.8775    0.0000 C   0  0  0  0  0  0  0  0  0  0  0  0
    6.4594   -7.1775    0.0000 O   0  0  0  0  0  0  0  0  0  0  0  0
    5.7450   -8.4150    0.0000 C   0  0  0  0  0  0  0  0  0  0  0  0
    5.0305   -8.8275    0.0000 C   0  0  0  0  0  0  0  0  0  0  0  0
    4.3160   -8.4150    0.0000 C   0  0  0  0  0  0  0  0  0  0  0  0
    3.6015   -8.8275    0.0000 C   0  0  0  0  0  0  0  0  0  0  0  0
    2.8871   -8.4150    0.0000 C   0  0  0  0  0  0  0  0  0  0  0  0
    2.1726   -8.8275    0.0000 C   0  0  0  0  0  0  0  0  0  0  0  0
    2.1726   -9.6525    0.0000 C   0  0  0  0  0  0  0  0  0  0  0  0
    2.8871  -10.0650    0.0000 C   0  0  0  0  0  0  0  0  0  0  0  0
    3.6015   -9.6525    0.0000 C   0  0  0  0  0  0  0  0  0  0  0  0
    1.4581   -8.4150    0.0000 O   0  0  0  0  0  0  0  0  0  0  0  0
    1.4581  -10.0650    0.0000 O   0  0  0  0  0  0  0  0  0  0  0  0
    5.7450   -7.5900    0.0000 O   0  0  0  0  0  0  0  0  0  0  0  0
    0.7437   -8.8275    0.0000 C   0  0  0  0  0  0  0  0  0  0  0  0
   13.6041   -6.3525    0.0000 O   0  0  0  0  0  0  0  0  0  0  0  0
   12.8897   -7.5900    0.0000 O   0  0  0  0  0  0  0  0  0  0  0  0
  1  2  1  0  0  0  0
  2  3  1  0  0  0  0
  3  4  1  0  0  0  0
  4  5  1  0  0  0  0
  5  6  1  0  0  0  0
  6  1  1  0  0  0  0
  4  7  1  0  0  0  0
  7  8  1  0  0  0  0
  8  9  1  0  0  0  0
  9 10  1  0  0  0  0
 10  5  1  0  0  0  0
  9 11  1  0  0  0  0
 11 12  1  0  0  0  0
 12 13  2  0  0  0  0
 13 14  1  0  0  0  0
 14 10  1  0  0  0  0
 11 15  1  0  0  0  0
 15 16  1  0  0  0  0
 16 17  1  0  0  0  0
 17 18  1  0  0  0  0
 18 12  1  0  0  0  0
 17 19  1  0  0  0  0
 19 20  1  0  0  0  0
 20 21  1  0  0  0  0
 21 22  1  0  0  0  0
 22 18  1  0  0  0  0
  2 23  1  1  0  0  0
  3 24  1  1  0  0  0
  5 25  1  1  0  0  0
  9 26  1  1  0  0  0
 18 27  1  1  0  0  0
 17 28  1  1  0  0  0
 22 29  1  1  0  0  0
  3 30  1  6  0  0  0
  4 31  1  6  0  0  0
 10 32  1  6  0  0  0
 11 33  1  6  0  0  0
 22 34  1  6  0  0  0
 21 35  1  6  0  0  0
  1 36  1  6  0  0  0
 23 37  1  0  0  0  0
 37 38  1  0  0  0  0
 38 39  2  0  0  0  0
 39 40  1  0  0  0  0
 40 41  2  0  0  0  0
 41 42  1  0  0  0  0
 42 43  2  0  0  0  0
 43 44  1  0  0  0  0
 44 45  2  0  0  0  0
 45 40  1  0  0  0  0
 42 46  1  0  0  0  0
 43 47  1  0  0  0  0
 37 48  2  0  0  0  0
 46 49  1  0  0  0  0
 28 50  2  0  0  0  0
 28 51  1  0  0  0  0
M  END
>  <cdx:fragmentId>
5

$$$$
