49999.cdx
  Mrv1902 05222410182D          

 19 20  0  0  0  0            999 V2000
    7.4508  -11.6525    0.0000 C   0  0  0  0  0  0  0  0  0  0  0  0
    6.7355  -11.2415    0.0000 C   0  0  0  0  0  0  0  0  0  0  0  0
    6.7337  -10.4165    0.0000 C   0  0  0  0  0  0  0  0  0  0  0  0
    7.4473  -10.0025    0.0000 C   0  0  0  0  0  0  0  0  0  0  0  0
    8.1627  -10.4135    0.0000 C   0  0  0  0  0  0  0  0  0  0  0  0
    8.1644  -11.2385    0.0000 O   0  0  0  0  0  0  0  0  0  0  0  0
    7.4456   -9.1775    0.0000 C   0  0  0  0  0  0  0  0  0  0  0  0
    8.1540   -6.2885    0.0000 C   0  0  0  0  0  0  0  0  0  0  0  0
    9.5829   -6.2855    0.0000 C   0  0  0  0  0  0  0  0  0  0  0  0
    5.9486  -10.1633    0.0000 C   0  0  0  0  0  0  0  0  0  0  0  0
    5.4651  -10.8317    0.0000 C   0  0  0  0  0  0  0  0  0  0  0  0
    5.9514  -11.4981    0.0000 C   0  0  0  0  0  0  0  0  0  0  0  0
    5.6981  -12.2833    0.0000 C   0  0  0  0  0  0  0  0  0  0  0  0
    4.8915  -12.4565    0.0000 O   0  0  0  0  0  0  0  0  0  0  0  0
    8.8693   -6.6995    0.0000 C   0  0  0  0  0  0  0  0  0  0  0  0
    8.1592   -8.7635    0.0000 O   0  0  0  0  0  0  0  0  0  0  0  0
    8.1574   -7.9385    0.0000 C   0  0  0  0  0  0  0  0  0  0  0  0
    7.4421   -7.5275    0.0000 O   0  0  0  0  0  0  0  0  0  0  0  0
    8.8710   -7.5245    0.0000 C   0  0  0  0  0  0  0  0  0  0  0  0
 15  8  1  0  0  0  0
 15  9  1  0  0  0  0
  1  2  2  0  0  0  0
  2  3  1  0  0  0  0
  3  4  1  0  0  0  0
  4  5  2  0  0  0  0
  5  6  1  0  0  0  0
  1  6  1  0  0  0  0
  4  7  1  0  0  0  0
  7 16  1  0  0  0  0
 19 15  1  0  0  0  0
  3 10  2  0  0  0  0
 10 11  1  0  0  0  0
 11 12  2  0  0  0  0
  2 12  1  0  0  0  0
 12 13  1  0  0  0  0
 13 14  2  0  0  0  0
 16 17  1  0  0  0  0
 17 18  2  0  0  0  0
 17 19  1  0  0  0  0
M  END
>  <cdx:fragmentId>
4874

$$$$
