500.cdx
  Mrv1902 05222410192D          

 10  9  0  0  0  0            999 V2000
    6.6206   -2.3713    0.0000 C   0  0  0  0  0  0  0  0  0  0  0  0
    5.9061   -2.7838    0.0000 C   0  0  0  0  0  0  0  0  0  0  0  0
    5.1916   -2.3713    0.0000 C   0  0  0  0  0  0  0  0  0  0  0  0
    4.4772   -2.7838    0.0000 C   0  0  0  0  0  0  0  0  0  0  0  0
    6.6206   -1.5463    0.0000 O   0  0  0  0  0  0  0  0  0  0  0  0
    7.3350   -2.7838    0.0000 O   0  0  0  0  0  0  0  0  0  0  0  0
    3.7627   -2.3713    0.0000 N   0  0  0  0  0  0  0  0  0  0  0  0
    3.0482   -2.7838    0.0000 C   0  0  0  0  0  0  0  0  0  0  0  0
    3.0482   -3.6088    0.0000 N   0  0  0  0  0  0  0  0  0  0  0  0
    2.3338   -2.3713    0.0000 N   0  0  0  0  0  0  0  0  0  0  0  0
  1  2  1  0  0  0  0
  2  3  1  0  0  0  0
  3  4  1  0  0  0  0
  1  5  2  0  0  0  0
  1  6  1  0  0  0  0
  8  9  1  0  0  0  0
  8 10  1  0  0  0  0
  7  8  2  0  0  0  0
  4  7  1  0  0  0  0
M  END
>  <cdx:groupId>
31

>  <cdx:fragmentId>
5

$$$$
