50005.cdx
  Mrv1902 05222410182D          

 10 10  0  0  0  0            999 V2000
    6.0343   -8.5514    0.0000 C   0  0  0  0  0  0  0  0  0  0  0  0
    6.0343   -9.3764    0.0000 C   0  0  0  0  0  0  0  0  0  0  0  0
    6.7488   -9.7889    0.0000 C   0  0  0  0  0  0  0  0  0  0  0  0
    7.4632   -9.3764    0.0000 C   0  0  0  0  0  0  0  0  0  0  0  0
    7.4632   -8.5514    0.0000 C   0  0  0  0  0  0  0  0  0  0  0  0
    6.7488   -8.1389    0.0000 C   0  0  0  0  0  0  0  0  0  0  0  0
    6.7488  -10.6139    0.0000 C   0  0  0  0  0  0  0  0  0  0  0  0
    6.7488   -7.3139    0.0000 C   0  0  0  0  0  0  0  0  0  0  0  0
    7.4632   -6.9014    0.0000 C   0  0  0  0  0  0  0  0  0  0  0  0
    6.0343   -6.9014    0.0000 C   0  0  0  0  0  0  0  0  0  0  0  0
  1  2  1  0  0  0  0
  2  3  1  0  0  0  0
  3  4  2  0  0  0  0
  4  5  1  0  0  0  0
  5  6  1  0  0  0  0
  6  1  1  0  0  0  0
  3  7  1  0  0  0  0
  6  8  1  0  0  0  0
  8  9  1  0  0  0  0
  8 10  1  0  0  0  0
M  END
>  <cdx:fragmentId>
5

$$$$
