50009.cdx
  Mrv1902 05222410272D          

 26 29  0  0  0  0            999 V2000
    4.0870   -4.4619    0.0000 C   0  0  0  0  0  0  0  0  0  0  0  0
    4.0870   -5.2869    0.0000 C   0  0  0  0  0  0  0  0  0  0  0  0
    4.8015   -5.6994    0.0000 C   0  0  0  0  0  0  0  0  0  0  0  0
    5.5160   -5.2869    0.0000 C   0  0  0  0  0  0  0  0  0  0  0  0
    5.5160   -4.4619    0.0000 C   0  0  0  0  0  0  0  0  0  0  0  0
    4.8015   -4.0494    0.0000 C   0  0  0  0  0  0  0  0  0  0  0  0
    6.2304   -5.6994    0.0000 C   0  0  0  0  0  0  0  0  0  0  0  0
    6.9449   -5.2869    0.0000 C   0  0  0  0  0  0  0  0  0  0  0  0
    6.9449   -4.4619    0.0000 C   0  0  0  0  0  0  0  0  0  0  0  0
    6.2304   -4.0494    0.0000 O   0  0  0  0  0  0  0  0  0  0  0  0
    7.6594   -5.6994    0.0000 C   0  0  0  0  0  0  0  0  0  0  0  0
    8.3739   -5.2869    0.0000 C   0  0  0  0  0  0  0  0  0  0  0  0
    8.3739   -4.4619    0.0000 C   0  0  0  0  0  0  0  0  0  0  0  0
    9.0883   -5.6994    0.0000 C   0  0  0  0  0  0  0  0  0  0  0  0
    9.8028   -5.2869    0.0000 C   0  0  0  0  0  0  0  0  0  0  0  0
    9.8028   -4.4619    0.0000 C   0  0  0  0  0  0  0  0  0  0  0  0
    9.0883   -4.0494    0.0000 C   0  0  0  0  0  0  0  0  0  0  0  0
   10.5874   -5.5418    0.0000 O   0  0  0  0  0  0  0  0  0  0  0  0
   11.0723   -4.8744    0.0000 C   0  0  0  0  0  0  0  0  0  0  0  0
   10.5874   -4.2069    0.0000 O   0  0  0  0  0  0  0  0  0  0  0  0
    4.8015   -3.2244    0.0000 C   0  0  0  0  0  0  0  0  0  0  0  0
    3.3726   -4.0494    0.0000 O   0  0  0  0  0  0  0  0  0  0  0  0
    3.3726   -5.6994    0.0000 C   0  0  0  0  0  0  0  0  0  0  0  0
    4.8015   -6.5244    0.0000 O   0  0  0  0  0  0  0  0  0  0  0  0
    6.2304   -6.5244    0.0000 O   0  0  0  0  0  0  0  0  0  0  0  0
    9.0883   -6.5244    0.0000 O   0  0  0  0  0  0  0  0  0  0  0  0
  1  2  2  0  0  0  0
  2  3  1  0  0  0  0
  3  4  2  0  0  0  0
  4  5  1  0  0  0  0
  5  6  2  0  0  0  0
  6  1  1  0  0  0  0
  4  7  1  0  0  0  0
  7  8  1  0  0  0  0
  8  9  2  0  0  0  0
  9 10  1  0  0  0  0
 10  5  1  0  0  0  0
  8 11  1  0  0  0  0
 11 12  1  0  0  0  0
 12 13  1  0  0  0  0
 12 14  2  0  0  0  0
 14 15  1  0  0  0  0
 15 16  2  0  0  0  0
 16 17  1  0  0  0  0
 17 13  2  0  0  0  0
 15 18  1  0  0  0  0
 18 19  1  0  0  0  0
 19 20  1  0  0  0  0
 20 16  1  0  0  0  0
  6 21  1  0  0  0  0
  1 22  1  0  0  0  0
  2 23  1  0  0  0  0
  3 24  1  0  0  0  0
  7 25  2  0  0  0  0
 14 26  1  0  0  0  0
M  END
>  <cdx:fragmentId>
5

$$$$
