50003.cdx
  Mrv1902 05222410202D          

 11 11  0  0  0  0            999 V2000
    7.2031   -6.2826    0.0000 C   0  0  0  0  0  0  0  0  0  0  0  0
    7.2031   -7.1076    0.0000 C   0  0  0  0  0  0  0  0  0  0  0  0
    7.9175   -7.5201    0.0000 C   0  0  0  0  0  0  0  0  0  0  0  0
    8.6320   -7.1076    0.0000 C   0  0  0  0  0  0  0  0  0  0  0  0
    8.6320   -6.2826    0.0000 C   0  0  0  0  0  0  0  0  0  0  0  0
    7.9175   -5.8701    0.0000 C   0  0  0  0  0  0  0  0  0  0  0  0
    6.4886   -7.5201    0.0000 O   0  0  0  0  0  0  0  0  0  0  0  0
    7.9175   -8.3451    0.0000 C   0  0  0  0  0  0  0  0  0  0  0  0
    7.9175   -5.0451    0.0000 C   0  0  0  0  0  0  0  0  0  0  0  0
    7.2031   -4.6326    0.0000 C   0  0  0  0  0  0  0  0  0  0  0  0
    8.6320   -4.6326    0.0000 C   0  0  0  0  0  0  0  0  0  0  0  0
  1  2  1  0  0  0  0
  2  3  1  0  0  0  0
  3  4  2  0  0  0  0
  4  5  1  0  0  0  0
  5  6  1  0  0  0  0
  6  1  1  0  0  0  0
  2  7  1  0  0  0  0
  3  8  1  0  0  0  0
  6  9  1  0  0  0  0
  9 10  1  0  0  0  0
  9 11  1  0  0  0  0
M  END
>  <cdx:fragmentId>
5

$$$$
