50007.cdx
  Mrv1902 05222410182D          

 27 28  0  0  0  0            999 V2000
    2.5693   -9.1426    0.0000 C   0  0  0  0  0  0  0  0  0  0  0  0
    2.5693   -9.9676    0.0000 C   0  0  0  0  0  0  0  0  0  0  0  0
    3.2838  -10.3801    0.0000 C   0  0  0  0  0  0  0  0  0  0  0  0
    3.9982   -9.9676    0.0000 C   0  0  0  0  0  0  0  0  0  0  0  0
    3.9982   -9.1426    0.0000 C   0  0  0  0  0  0  0  0  0  0  0  0
    3.2838   -8.7301    0.0000 C   0  0  0  0  0  0  0  0  0  0  0  0
    1.8548   -8.7301    0.0000 O   0  0  0  0  0  0  0  0  0  0  0  0
    1.8548  -10.3801    0.0000 O   0  0  0  0  0  0  0  0  0  0  0  0
    4.7127   -8.7301    0.0000 C   0  0  0  0  0  0  0  0  0  0  0  0
    5.4272   -9.1426    0.0000 C   0  0  0  0  0  0  0  0  0  0  0  0
    6.1417   -8.7301    0.0000 C   0  0  0  0  0  0  0  0  0  0  0  0
    6.1417   -7.9051    0.0000 O   0  0  0  0  0  0  0  0  0  0  0  0
    6.8561   -9.1426    0.0000 O   0  0  0  0  0  0  0  0  0  0  0  0
    7.5706   -8.7301    0.0000 C   0  0  1  0  0  0  0  0  0  0  0  0
    8.2851   -9.1426    0.0000 C   0  0  1  0  0  0  0  0  0  0  0  0
    8.9995   -8.7301    0.0000 C   0  0  1  0  0  0  0  0  0  0  0  0
    8.9995   -7.9051    0.0000 C   0  0  0  0  0  0  0  0  0  0  0  0
    8.2851   -7.4926    0.0000 C   0  0  1  0  0  0  0  0  0  0  0  0
    7.5706   -7.9051    0.0000 C   0  0  0  0  0  0  0  0  0  0  0  0
    7.8726   -6.7782    0.0000 O   0  0  0  0  0  0  0  0  0  0  0  0
    8.6976   -6.7782    0.0000 C   0  0  0  0  0  0  0  0  0  0  0  0
    9.5226   -6.7782    0.0000 O   0  0  0  0  0  0  0  0  0  0  0  0
    8.2851   -6.0637    0.0000 O   0  0  0  0  0  0  0  0  0  0  0  0
    9.9351   -6.0637    0.0000 C   0  0  0  0  0  0  0  0  0  0  0  0
   10.7601   -6.0637    0.0000 C   0  0  0  0  0  0  0  0  0  0  0  0
    8.2851   -9.9676    0.0000 O   0  0  0  0  0  0  0  0  0  0  0  0
    9.7140   -9.1426    0.0000 O   0  0  0  0  0  0  0  0  0  0  0  0
  1  2  2  0  0  0  0
  2  3  1  0  0  0  0
  3  4  2  0  0  0  0
  4  5  1  0  0  0  0
  5  6  2  0  0  0  0
  6  1  1  0  0  0  0
  1  7  1  0  0  0  0
  2  8  1  0  0  0  0
  5  9  1  0  0  0  0
  9 10  2  0  0  0  0
 10 11  1  0  0  0  0
 11 12  2  0  0  0  0
 11 13  1  0  0  0  0
 14 13  1  6  0  0  0
 14 15  1  0  0  0  0
 15 16  1  0  0  0  0
 16 17  1  0  0  0  0
 17 18  1  0  0  0  0
 18 19  1  0  0  0  0
 19 14  1  0  0  0  0
 18 20  1  1  0  0  0
 18 21  1  0  0  0  0
 21 22  1  0  0  0  0
 21 23  2  0  0  0  0
 22 24  1  0  0  0  0
 24 25  1  0  0  0  0
 15 26  1  1  0  0  0
 16 27  1  1  0  0  0
M  END
>  <cdx:fragmentId>
5

$$$$
