50017.cdx
  Mrv1902 05222410202D          

 19 18  0  0  0  0            999 V2000
    8.1409   -6.8004    0.0000 C   0  0  0  0  0  0  0  0  0  0  0  0
    7.4264   -6.3879    0.0000 C   0  0  0  0  0  0  0  0  0  0  0  0
    6.7119   -6.8004    0.0000 C   0  0  0  0  0  0  0  0  0  0  0  0
    5.9974   -6.3879    0.0000 C   0  0  0  0  0  0  0  0  0  0  0  0
    5.2830   -6.8004    0.0000 C   0  0  0  0  0  0  0  0  0  0  0  0
    4.5685   -6.3879    0.0000 C   0  0  0  0  0  0  0  0  0  0  0  0
    3.8540   -6.8004    0.0000 N   0  0  0  0  0  0  0  0  0  0  0  0
    3.1396   -6.3879    0.0000 C   0  0  0  0  0  0  0  0  0  0  0  0
    4.5685   -5.5629    0.0000 O   0  0  0  0  0  0  0  0  0  0  0  0
    2.4251   -6.8004    0.0000 C   0  0  0  0  0  0  0  0  0  0  0  0
    2.0126   -6.0859    0.0000 C   0  0  0  0  0  0  0  0  0  0  0  0
    2.8376   -7.5149    0.0000 C   0  0  0  0  0  0  0  0  0  0  0  0
    1.7106   -7.2129    0.0000 O   0  0  0  0  0  0  0  0  0  0  0  0
    8.8553   -6.3879    0.0000 C   0  0  0  0  0  0  0  0  0  0  0  0
    9.5698   -6.8004    0.0000 C   0  0  0  0  0  0  0  0  0  0  0  0
   10.2843   -6.3879    0.0000 C   0  0  0  0  0  0  0  0  0  0  0  0
   10.9987   -6.8004    0.0000 C   0  0  0  0  0  0  0  0  0  0  0  0
   11.7132   -6.3879    0.0000 C   0  0  0  0  0  0  0  0  0  0  0  0
   12.4277   -6.8004    0.0000 C   0  0  0  0  0  0  0  0  0  0  0  0
  1  2  1  0  0  0  0
  2  3  1  0  0  0  0
  3  4  1  0  0  0  0
  4  5  2  0  0  0  0
  5  6  1  0  0  0  0
  6  7  1  0  0  0  0
  7  8  1  0  0  0  0
  6  9  2  0  0  0  0
  8 10  1  0  0  0  0
 10 11  1  0  0  0  0
 10 12  1  0  0  0  0
 10 13  1  0  0  0  0
  1 14  2  0  0  0  0
 14 15  1  0  0  0  0
 15 16  2  0  0  0  0
 16 17  1  0  0  0  0
 17 18  2  0  0  0  0
 18 19  1  0  0  0  0
M  END
>  <cdx:fragmentId>
3

$$$$
