50014.cdx
  Mrv1902 05222410192D          

 19 21  0  0  0  0            999 V2000
    5.2958   -7.5791    0.0000 C   0  0  0  0  0  0  0  0  0  0  0  0
    5.3084   -8.4040    0.0000 C   0  0  0  0  0  0  0  0  0  0  0  0
    6.0291   -8.8056    0.0000 C   0  0  0  0  0  0  0  0  0  0  0  0
    6.7372   -8.3822    0.0000 C   0  0  0  0  0  0  0  0  0  0  0  0
    6.7246   -7.5573    0.0000 C   0  0  0  0  0  0  0  0  0  0  0  0
    6.0039   -7.1558    0.0000 C   0  0  0  0  0  0  0  0  0  0  0  0
    7.4578   -8.7838    0.0000 C   0  0  0  0  0  0  0  0  0  0  0  0
    8.1659   -8.3605    0.0000 C   0  0  0  0  0  0  0  0  0  0  0  0
    8.1533   -7.5355    0.0000 C   0  0  0  0  0  0  0  0  0  0  0  0
    7.4327   -7.1340    0.0000 C   0  0  0  0  0  0  0  0  0  0  0  0
    8.8614   -7.1122    0.0000 C   0  0  0  0  0  0  0  0  0  0  0  0
    8.8489   -6.2873    0.0000 C   0  0  0  0  0  0  0  0  0  0  0  0
    8.1282   -5.8857    0.0000 C   0  0  0  0  0  0  0  0  0  0  0  0
    7.4201   -6.3091    0.0000 C   0  0  0  0  0  0  0  0  0  0  0  0
    4.6003   -8.8274    0.0000 O   0  0  0  0  0  0  0  0  0  0  0  0
    9.5570   -5.8639    0.0000 O   0  0  0  0  0  0  0  0  0  0  0  0
    9.5821   -7.5138    0.0000 C   0  0  0  0  0  0  0  0  0  0  0  0
    5.9913   -6.3309    0.0000 C   0  0  0  0  0  0  0  0  0  0  0  0
    5.2768   -5.9184    0.0000 O   0  0  0  0  0  0  0  0  0  0  0  0
  1  2  2  0  0  0  0
  2  3  1  0  0  0  0
  3  4  2  0  0  0  0
  4  5  1  0  0  0  0
  5  6  2  0  0  0  0
  6  1  1  0  0  0  0
  4  7  1  0  0  0  0
  7  8  2  0  0  0  0
  8  9  1  0  0  0  0
  9 10  2  0  0  0  0
 10  5  1  0  0  0  0
  9 11  1  0  0  0  0
 11 12  2  0  0  0  0
 12 13  1  0  0  0  0
 13 14  2  0  0  0  0
 14 10  1  0  0  0  0
  2 15  1  0  0  0  0
 12 16  1  0  0  0  0
 11 17  1  0  0  0  0
  6 18  1  0  0  0  0
 18 19  2  0  0  0  0
M  END
>  <cdx:fragmentId>
5

$$$$
