50016.cdx
  Mrv1902 05222410202D          

 34 37  0  0  0  0            999 V2000
    3.6504   -8.9637    0.0000 C   0  0  2  0  0  0  0  0  0  0  0  0
    3.6530   -9.7887    0.0000 C   0  0  2  0  0  0  0  0  0  0  0  0
   12.9364   -7.7126    0.0000 C   0  0  0  0  0  0  0  0  0  0  0  0
    4.3687  -10.1989    0.0000 C   0  0  1  0  0  0  0  0  0  0  0  0
    5.0819   -9.7842    0.0000 C   0  0  2  0  0  0  0  0  0  0  0  0
    5.0793   -8.9592    0.0000 C   0  0  1  0  0  0  0  0  0  0  0  0
    4.3636   -8.5490    0.0000 O   0  0  0  0  0  0  0  0  0  0  0  0
    8.6528  -11.0167    0.0000 O   0  0  0  0  0  0  0  0  0  0  0  0
    7.2239  -11.0181    0.0000 O   0  0  0  0  0  0  0  0  0  0  0  0
   12.2216   -7.3007    0.0000 O   0  0  0  0  0  0  0  0  0  0  0  0
   10.7918   -6.4771    0.0000 O   0  0  0  0  0  0  0  0  0  0  0  0
   11.5083   -8.5389    0.0000 C   0  0  0  0  0  0  0  0  0  0  0  0
   11.5075   -7.7139    0.0000 C   0  0  0  0  0  0  0  0  0  0  0  0
   10.7926   -7.3021    0.0000 C   0  0  0  0  0  0  0  0  0  0  0  0
   10.0785   -7.7153    0.0000 C   0  0  0  0  0  0  0  0  0  0  0  0
   10.7942   -8.9521    0.0000 C   0  0  0  0  0  0  0  0  0  0  0  0
   10.0793   -8.5403    0.0000 C   0  0  0  0  0  0  0  0  0  0  0  0
    8.6520  -10.1917    0.0000 C   0  0  0  0  0  0  0  0  0  0  0  0
    9.3661   -9.7785    0.0000 C   0  0  0  0  0  0  0  0  0  0  0  0
    9.3653   -8.9535    0.0000 C   0  0  0  0  0  0  0  0  0  0  0  0
    8.6504   -8.5417    0.0000 O   0  0  0  0  0  0  0  0  0  0  0  0
    7.2231  -10.1931    0.0000 C   0  0  0  0  0  0  0  0  0  0  0  0
    7.9371   -9.7799    0.0000 C   0  0  0  0  0  0  0  0  0  0  0  0
    7.9363   -8.9549    0.0000 C   0  0  0  0  0  0  0  0  0  0  0  0
    7.2215   -8.5431    0.0000 C   0  0  0  0  0  0  0  0  0  0  0  0
    5.7925   -8.5445    0.0000 O   0  0  0  0  0  0  0  0  0  0  0  0
    6.5082   -9.7813    0.0000 C   0  0  0  0  0  0  0  0  0  0  0  0
    6.5074   -8.9563    0.0000 C   0  0  0  0  0  0  0  0  0  0  0  0
    2.9347   -8.5534    0.0000 C   0  0  0  0  0  0  0  0  0  0  0  0
    2.2215   -8.9681    0.0000 O   0  0  0  0  0  0  0  0  0  0  0  0
    4.3713  -11.0239    0.0000 O   0  0  0  0  0  0  0  0  0  0  0  0
    2.9398  -10.2034    0.0000 O   0  0  0  0  0  0  0  0  0  0  0  0
    5.7977  -10.1945    0.0000 O   0  0  0  0  0  0  0  0  0  0  0  0
    2.9321   -7.7284    0.0000 O   0  0  0  0  0  0  0  0  0  0  0  0
 10  3  1  0  0  0  0
  1  2  1  0  0  0  0
  2  4  1  0  0  0  0
 18  8  2  0  0  0  0
 22  9  1  0  0  0  0
  4  5  1  0  0  0  0
  5  6  1  0  0  0  0
  6  7  1  0  0  0  0
  7  1  1  0  0  0  0
 10 13  1  0  0  0  0
 14 11  1  0  0  0  0
 12 16  2  0  0  0  0
 13 12  1  0  0  0  0
 14 13  2  0  0  0  0
 15 14  1  0  0  0  0
 17 15  2  0  0  0  0
 17 16  1  0  0  0  0
 20 17  1  0  0  0  0
 18 23  1  0  0  0  0
 19 18  1  0  0  0  0
 20 19  2  0  0  0  0
 21 20  1  0  0  0  0
 24 21  1  0  0  0  0
 22 27  1  0  0  0  0
 23 22  2  0  0  0  0
 24 23  1  0  0  0  0
 25 24  2  0  0  0  0
 28 25  1  0  0  0  0
 28 27  2  0  0  0  0
 26 28  1  0  0  0  0
  6 26  1  1  0  0  0
  1 29  1  1  0  0  0
 29 30  1  0  0  0  0
  4 31  1  1  0  0  0
  2 32  1  6  0  0  0
  5 33  1  6  0  0  0
 29 34  2  0  0  0  0
M  END
>  <cdx:fragmentId>
5

$$$$
