50011.cdx
  Mrv1902 05222410182D          

 13 12  0  0  0  0            999 V2000
    3.8381   -7.3269    0.0000 C   0  0  0  0  0  0  0  0  0  0  0  0
    4.5525   -7.7394    0.0000 C   0  0  0  0  0  0  0  0  0  0  0  0
    5.2670   -7.3269    0.0000 C   0  0  0  0  0  0  0  0  0  0  0  0
    5.9815   -7.7394    0.0000 C   0  0  0  0  0  0  0  0  0  0  0  0
    6.6960   -7.3269    0.0000 C   0  0  0  0  0  0  0  0  0  0  0  0
    7.4104   -7.7394    0.0000 C   0  0  0  0  0  0  0  0  0  0  0  0
    8.1249   -7.3269    0.0000 C   0  0  0  0  0  0  0  0  0  0  0  0
    8.8394   -7.7394    0.0000 O   0  0  0  0  0  0  0  0  0  0  0  0
    8.1249   -6.5019    0.0000 O   0  0  0  0  0  0  0  0  0  0  0  0
    7.4104   -8.5644    0.0000 C   0  0  0  0  0  0  0  0  0  0  0  0
    4.5525   -8.5644    0.0000 C   0  0  0  0  0  0  0  0  0  0  0  0
    3.8381   -6.5019    0.0000 C   0  0  0  0  0  0  0  0  0  0  0  0
    3.1236   -6.0894    0.0000 O   0  0  0  0  0  0  0  0  0  0  0  0
  1  2  2  0  0  0  0
  2  3  1  0  0  0  0
  3  4  1  0  0  0  0
  4  5  1  0  0  0  0
  5  6  2  0  0  0  0
  6  7  1  0  0  0  0
  7  8  1  0  0  0  0
  7  9  2  0  0  0  0
  6 10  1  0  0  0  0
  2 11  1  0  0  0  0
  1 12  1  0  0  0  0
 12 13  1  0  0  0  0
M  END
>  <cdx:fragmentId>
3

$$$$
