50028.cdx
  Mrv1902 05222410192D          

 19 19  0  0  0  0            999 V2000
    4.2056   -7.1351    0.0000 C   0  0  0  0  0  0  0  0  0  0  0  0
    4.2056   -7.9601    0.0000 C   0  0  0  0  0  0  0  0  0  0  0  0
    4.9200   -8.3726    0.0000 C   0  0  0  0  0  0  0  0  0  0  0  0
    5.6345   -7.9601    0.0000 C   0  0  0  0  0  0  0  0  0  0  0  0
    5.6345   -7.1351    0.0000 C   0  0  0  0  0  0  0  0  0  0  0  0
    4.9200   -6.7226    0.0000 C   0  0  0  0  0  0  0  0  0  0  0  0
    3.4911   -6.7226    0.0000 O   0  0  0  0  0  0  0  0  0  0  0  0
    2.7766   -7.1351    0.0000 C   0  0  0  0  0  0  0  0  0  0  0  0
    3.4911   -8.3726    0.0000 O   0  0  0  0  0  0  0  0  0  0  0  0
    3.4911   -9.1976    0.0000 C   0  0  0  0  0  0  0  0  0  0  0  0
    4.9200   -9.1976    0.0000 O   0  0  0  0  0  0  0  0  0  0  0  0
    4.2056   -9.6101    0.0000 C   0  0  0  0  0  0  0  0  0  0  0  0
    6.3490   -6.7226    0.0000 C   0  0  0  0  0  0  0  0  0  0  0  0
    7.0634   -7.1351    0.0000 C   0  0  0  0  0  0  0  0  0  0  0  0
    7.7779   -6.7226    0.0000 C   0  0  0  0  0  0  0  0  0  0  0  0
    8.4924   -7.1351    0.0000 O   0  0  0  0  0  0  0  0  0  0  0  0
    8.4924   -7.9601    0.0000 C   0  0  0  0  0  0  0  0  0  0  0  0
    9.2069   -8.3726    0.0000 C   0  0  0  0  0  0  0  0  0  0  0  0
    7.7779   -8.3726    0.0000 O   0  0  0  0  0  0  0  0  0  0  0  0
  1  2  2  0  0  0  0
  2  3  1  0  0  0  0
  3  4  2  0  0  0  0
  4  5  1  0  0  0  0
  5  6  2  0  0  0  0
  6  1  1  0  0  0  0
  1  7  1  0  0  0  0
  7  8  1  0  0  0  0
  2  9  1  0  0  0  0
  9 10  1  0  0  0  0
  3 11  1  0  0  0  0
 11 12  1  0  0  0  0
  5 13  1  0  0  0  0
 13 14  2  0  0  0  0
 14 15  1  0  0  0  0
 15 16  1  0  0  0  0
 16 17  1  0  0  0  0
 17 18  1  0  0  0  0
 17 19  2  0  0  0  0
M  END
>  <cdx:fragmentId>
5

$$$$
