50025.cdx
  Mrv1902 05222410272D          

 13 13  0  0  0  0            999 V2000
   10.4310   -8.9107    0.0000 C   0  0  0  0  0  0  0  0  0  0  0  0
    9.6947   -8.5385    0.0000 C   0  0  0  0  0  0  0  0  0  0  0  0
    9.0042   -8.9901    0.0000 C   0  0  0  0  0  0  0  0  0  0  0  0
    8.7728   -6.3836    0.0000 O   0  0  0  0  0  0  0  0  0  0  0  0
    9.6757   -7.4912    0.0000 O   0  0  0  0  0  0  0  0  0  0  0  0
    8.9045   -7.1980    0.0000 C   0  0  0  0  0  0  0  0  0  0  0  0
    6.1966   -8.2476    0.0000 O   0  0  0  0  0  0  0  0  0  0  0  0
    7.1693   -6.7391    0.0000 C   0  0  0  0  0  0  0  0  0  0  0  0
    7.4675   -7.5084    0.0000 C   0  0  0  0  0  0  0  0  0  0  0  0
    7.0204   -8.2017    0.0000 C   0  0  0  0  0  0  0  0  0  0  0  0
    7.5416   -8.8412    0.0000 O   0  0  0  0  0  0  0  0  0  0  0  0
    8.3109   -8.5430    0.0000 C   0  0  1  0  0  0  0  0  0  0  0  0
    8.2650   -7.7193    0.0000 C   0  0  0  0  0  0  0  0  0  0  0  0
  2  1  1  0  0  0  0
  3  2  1  0  0  0  0
 12  3  1  1  0  0  0
  6  4  2  0  0  0  0
  6  5  1  0  0  0  0
 13  6  1  0  0  0  0
 10  7  2  0  0  0  0
  9  8  1  0  0  0  0
  9 13  2  0  0  0  0
 10  9  1  0  0  0  0
 11 10  1  0  0  0  0
 12 11  1  0  0  0  0
 13 12  1  0  0  0  0
M  END
>  <cdx:fragmentId>
5

$$$$
