50021.cdx
  Mrv1902 05222410272D          

 29 31  0  0  0  0            999 V2000
    4.7010   -8.2710    0.0000 C   0  0  0  0  0  0  0  0  0  0  0  0
    5.7406   -8.0564    0.0000 H   0  0  0  0  0  0  0  0  0  0  0  0
    5.7406   -5.5814    0.0000 H   0  0  0  0  0  0  0  0  0  0  0  0
    4.3095   -8.8702    0.0000 C   0  0  2  0  0  0  0  0  0  0  0  0
    4.3052   -9.6952    0.0000 C   0  0  2  0  0  0  0  0  0  0  0  0
    5.0175  -10.1114    0.0000 C   0  0  1  0  0  0  0  0  0  0  0  0
    5.7341   -9.7027    0.0000 C   0  0  2  0  0  0  0  0  0  0  0  0
    3.6460   -6.8189    0.0000 O   0  0  0  0  0  0  0  0  0  0  0  0
    7.8840   -5.1689    0.0000 C   0  0  0  0  0  0  0  0  0  0  0  0
    5.7406   -4.7564    0.0000 O   0  0  0  0  0  0  0  0  0  0  0  0
    7.1695   -4.7564    0.0000 O   0  0  0  0  0  0  0  0  0  0  0  0
    6.4550   -5.1689    0.0000 C   0  0  0  0  0  0  0  0  0  0  0  0
    4.9560   -6.1515    0.0000 C   0  0  0  0  0  0  0  0  0  0  0  0
    4.4710   -6.8189    0.0000 C   0  0  0  0  0  0  0  0  0  0  0  0
    4.9560   -7.4863    0.0000 C   0  0  1  0  0  0  0  0  0  0  0  0
    7.1695   -6.4064    0.0000 C   0  0  0  0  0  0  0  0  0  0  0  0
    6.4550   -5.9939    0.0000 C   0  0  0  0  0  0  0  0  0  0  0  0
    5.7406   -6.4064    0.0000 C   0  0  2  0  0  0  0  0  0  0  0  0
    5.7406   -7.2314    0.0000 C   0  0  2  0  0  0  0  0  0  0  0  0
    5.7384   -8.8777    0.0000 C   0  0  1  0  0  0  0  0  0  0  0  0
    7.1695   -7.2314    0.0000 O   0  0  0  0  0  0  0  0  0  0  0  0
    6.4550   -7.6439    0.0000 C   0  0  1  0  0  0  0  0  0  0  0  0
    5.0261   -8.4615    0.0000 O   0  0  0  0  0  0  0  0  0  0  0  0
    3.5972   -8.4540    0.0000 C   0  0  0  0  0  0  0  0  0  0  0  0
    2.8806   -8.8628    0.0000 O   0  0  0  0  0  0  0  0  0  0  0  0
    3.5886  -10.1040    0.0000 O   0  0  0  0  0  0  0  0  0  0  0  0
    6.4550   -8.4689    0.0000 O   0  0  0  0  0  0  0  0  0  0  0  0
    5.0132  -10.9364    0.0000 O   0  0  0  0  0  0  0  0  0  0  0  0
    6.4464  -10.1189    0.0000 O   0  0  0  0  0  0  0  0  0  0  0  0
 15  1  1  1  0  0  0
 19  2  1  1  0  0  0
 18  3  1  1  0  0  0
 14  8  2  0  0  0  0
 11  9  1  0  0  0  0
 12 10  2  0  0  0  0
 12 11  1  0  0  0  0
 17 12  1  0  0  0  0
 13 18  1  0  0  0  0
 14 13  1  0  0  0  0
 15 14  1  0  0  0  0
 19 15  1  0  0  0  0
 16 21  1  0  0  0  0
 17 16  2  0  0  0  0
 18 17  1  0  0  0  0
 19 18  1  0  0  0  0
 22 19  1  0  0  0  0
 22 21  1  0  0  0  0
 22 27  1  1  0  0  0
  4  5  1  0  0  0  0
  5  6  1  0  0  0  0
  6  7  1  0  0  0  0
  7 20  1  0  0  0  0
 20 23  1  0  0  0  0
 23  4  1  0  0  0  0
  4 24  1  1  0  0  0
 24 25  1  0  0  0  0
  5 26  1  6  0  0  0
 20 27  1  1  0  0  0
  6 28  1  1  0  0  0
  7 29  1  6  0  0  0
M  END
>  <cdx:fragmentId>
5

$$$$
