50022.cdx
  Mrv1902 05222410282D          

 13 13  0  0  0  0            999 V2000
    8.2747   -7.7055    0.0000 C   0  0  0  0  0  0  0  0  0  0  0  0
    8.2288   -8.5293    0.0000 C   0  0  1  0  0  0  0  0  0  0  0  0
    8.9981   -8.8274    0.0000 O   0  0  0  0  0  0  0  0  0  0  0  0
    9.5193   -8.1880    0.0000 C   0  0  0  0  0  0  0  0  0  0  0  0
    9.0722   -7.4946    0.0000 C   0  0  0  0  0  0  0  0  0  0  0  0
    9.3704   -6.7254    0.0000 C   0  0  0  0  0  0  0  0  0  0  0  0
   10.3430   -8.2338    0.0000 O   0  0  0  0  0  0  0  0  0  0  0  0
    7.6352   -7.1843    0.0000 C   0  0  0  0  0  0  0  0  0  0  0  0
    6.8640   -7.4774    0.0000 O   0  0  0  0  0  0  0  0  0  0  0  0
    7.7669   -6.3699    0.0000 O   0  0  0  0  0  0  0  0  0  0  0  0
    7.5355   -8.9764    0.0000 C   0  0  0  0  0  0  0  0  0  0  0  0
    6.8450   -8.5248    0.0000 C   0  0  0  0  0  0  0  0  0  0  0  0
    6.1087   -8.8969    0.0000 C   0  0  0  0  0  0  0  0  0  0  0  0
  1  2  1  0  0  0  0
  2  3  1  0  0  0  0
  3  4  1  0  0  0  0
  4  5  1  0  0  0  0
  5  1  2  0  0  0  0
  5  6  1  0  0  0  0
  4  7  2  0  0  0  0
  1  8  1  0  0  0  0
  8  9  1  0  0  0  0
  8 10  2  0  0  0  0
  2 11  1  1  0  0  0
 11 12  1  0  0  0  0
 12 13  1  0  0  0  0
M  END
>  <cdx:fragmentId>
5

$$$$
