50027.cdx
  Mrv1902 05222410262D          

 12 12  0  0  0  0            999 V2000
    5.8281   -5.6914    0.0000 C   0  0  0  0  0  0  0  0  0  0  0  0
    5.8281   -6.5164    0.0000 C   0  0  0  0  0  0  0  0  0  0  0  0
    6.5425   -6.9289    0.0000 C   0  0  0  0  0  0  0  0  0  0  0  0
    7.2570   -6.5164    0.0000 C   0  0  0  0  0  0  0  0  0  0  0  0
    7.2570   -5.6914    0.0000 C   0  0  0  0  0  0  0  0  0  0  0  0
    6.5425   -5.2789    0.0000 C   0  0  0  0  0  0  0  0  0  0  0  0
    5.1136   -5.2789    0.0000 O   0  0  0  0  0  0  0  0  0  0  0  0
    7.9715   -5.2789    0.0000 C   0  0  0  0  0  0  0  0  0  0  0  0
    8.6859   -5.6914    0.0000 C   0  0  0  0  0  0  0  0  0  0  0  0
    9.4004   -5.2789    0.0000 C   0  0  0  0  0  0  0  0  0  0  0  0
   10.1149   -5.6914    0.0000 C   0  0  0  0  0  0  0  0  0  0  0  0
    9.4004   -4.4539    0.0000 O   0  0  0  0  0  0  0  0  0  0  0  0
  1  2  2  0  0  0  0
  2  3  1  0  0  0  0
  3  4  2  0  0  0  0
  4  5  1  0  0  0  0
  5  6  2  0  0  0  0
  6  1  1  0  0  0  0
  1  7  1  0  0  0  0
  5  8  1  0  0  0  0
  8  9  1  0  0  0  0
  9 10  1  0  0  0  0
 10 11  1  0  0  0  0
 10 12  2  0  0  0  0
M  END
>  <cdx:fragmentId>
6

$$$$
