50023.cdx
  Mrv1902 05222410282D          

 13 13  0  0  0  0            999 V2000
    6.2085   -7.4101    0.0000 C   0  0  1  0  0  0  0  0  0  0  0  0
    6.2085   -8.2351    0.0000 C   0  0  2  0  0  0  0  0  0  0  0  0
    6.9931   -8.4901    0.0000 O   0  0  0  0  0  0  0  0  0  0  0  0
    7.4781   -7.8226    0.0000 C   0  0  0  0  0  0  0  0  0  0  0  0
    6.9931   -7.1552    0.0000 C   0  0  2  0  0  0  0  0  0  0  0  0
    7.2481   -6.3706    0.0000 C   0  0  0  0  0  0  0  0  0  0  0  0
    8.3031   -7.8226    0.0000 O   0  0  0  0  0  0  0  0  0  0  0  0
    5.5411   -6.9252    0.0000 C   0  0  0  0  0  0  0  0  0  0  0  0
    4.7874   -7.2608    0.0000 O   0  0  0  0  0  0  0  0  0  0  0  0
    5.6273   -6.1047    0.0000 O   0  0  0  0  0  0  0  0  0  0  0  0
    5.5411   -8.7201    0.0000 C   0  0  0  0  0  0  0  0  0  0  0  0
    4.8266   -8.3076    0.0000 C   0  0  0  0  0  0  0  0  0  0  0  0
    4.1121   -8.7201    0.0000 C   0  0  0  0  0  0  0  0  0  0  0  0
  1  2  1  0  0  0  0
  2  3  1  0  0  0  0
  3  4  1  0  0  0  0
  4  5  1  0  0  0  0
  5  1  1  0  0  0  0
  5  6  1  1  0  0  0
  4  7  2  0  0  0  0
  1  8  1  6  0  0  0
  8  9  1  0  0  0  0
  8 10  2  0  0  0  0
  2 11  1  6  0  0  0
 11 12  1  0  0  0  0
 12 13  1  0  0  0  0
M  END
>  <cdx:fragmentId>
5

$$$$
