50037.cdx
  Mrv1902 05222410282D          

 48 51  0  0  0  0            999 V2000
    6.6531   -7.4926    0.0000 C   0  0  2  0  0  0  0  0  0  0  0  0
    6.6531   -8.3176    0.0000 C   0  0  2  0  0  0  0  0  0  0  0  0
    7.3675   -8.7301    0.0000 C   0  0  1  0  0  0  0  0  0  0  0  0
    8.0820   -8.3176    0.0000 C   0  0  1  0  0  0  0  0  0  0  0  0
    8.0820   -7.4926    0.0000 C   0  0  1  0  0  0  0  0  0  0  0  0
    7.3675   -7.0801    0.0000 O   0  0  0  0  0  0  0  0  0  0  0  0
    8.7965   -7.0801    0.0000 O   0  0  0  0  0  0  0  0  0  0  0  0
    5.9386   -7.0801    0.0000 C   0  0  0  0  0  0  0  0  0  0  0  0
    7.3675   -9.5551    0.0000 O   0  0  0  0  0  0  0  0  0  0  0  0
    9.5109   -7.4926    0.0000 C   0  0  0  0  0  0  0  0  0  0  0  0
   10.2254   -7.0801    0.0000 C   0  0  0  0  0  0  0  0  0  0  0  0
   10.9399   -7.4926    0.0000 C   0  0  0  0  0  0  0  0  0  0  0  0
   10.2254   -6.2551    0.0000 H   0  0  0  0  0  0  0  0  0  0  0  0
   10.9399   -8.3176    0.0000 C   0  0  0  0  0  0  0  0  0  0  0  0
   11.6544   -8.7301    0.0000 C   0  0  0  0  0  0  0  0  0  0  0  0
   12.3688   -8.3176    0.0000 C   0  0  0  0  0  0  0  0  0  0  0  0
   12.3688   -7.4926    0.0000 C   0  0  0  0  0  0  0  0  0  0  0  0
   11.6544   -7.0801    0.0000 C   0  0  0  0  0  0  0  0  0  0  0  0
   13.0833   -7.0801    0.0000 O   0  0  0  0  0  0  0  0  0  0  0  0
   13.0833   -8.7301    0.0000 O   0  0  0  0  0  0  0  0  0  0  0  0
    5.9386   -8.7301    0.0000 O   0  0  0  0  0  0  0  0  0  0  0  0
    8.7965   -8.7301    0.0000 H   0  0  0  0  0  0  0  0  0  0  0  0
    5.2241   -7.4926    0.0000 H   0  0  0  0  0  0  0  0  0  0  0  0
    2.2538   -9.1847    0.0000 C   0  0  0  0  0  0  0  0  0  0  0  0
    2.9671   -8.7702    0.0000 C   0  0  0  0  0  0  0  0  0  0  0  0
    2.9649   -7.9452    0.0000 C   0  0  0  0  0  0  0  0  0  0  0  0
    2.2493   -7.5347    0.0000 C   0  0  0  0  0  0  0  0  0  0  0  0
    1.5359   -7.9492    0.0000 C   0  0  0  0  0  0  0  0  0  0  0  0
    1.5382   -8.7742    0.0000 C   0  0  0  0  0  0  0  0  0  0  0  0
    0.8203   -7.5386    0.0000 O   0  0  0  0  0  0  0  0  0  0  0  0
    2.2470   -6.7097    0.0000 O   0  0  0  0  0  0  0  0  0  0  0  0
    3.6827   -9.1808    0.0000 C   0  0  0  0  0  0  0  0  0  0  0  0
    4.3961   -8.7663    0.0000 C   0  0  0  0  0  0  0  0  0  0  0  0
    5.1117   -9.1768    0.0000 C   0  0  0  0  0  0  0  0  0  0  0  0
    5.1139  -10.0018    0.0000 O   0  0  0  0  0  0  0  0  0  0  0  0
    3.6850  -10.0058    0.0000 H   0  0  0  0  0  0  0  0  0  0  0  0
    4.3938   -7.9413    0.0000 H   0  0  0  0  0  0  0  0  0  0  0  0
    6.6457  -11.6130    0.0000 C   0  0  1  0  0  0  0  0  0  0  0  0
    7.3597  -12.0263    0.0000 C   0  0  1  0  0  0  0  0  0  0  0  0
    8.0746  -11.6146    0.0000 C   0  0  0  0  0  0  0  0  0  0  0  0
    8.0755  -10.7896    0.0000 O   0  0  0  0  0  0  0  0  0  0  0  0
    7.3615  -10.3763    0.0000 C   0  0  0  0  0  0  0  0  0  0  0  0
    6.6466  -10.7880    0.0000 C   0  0  2  0  0  0  0  0  0  0  0  0
    7.3588  -12.8513    0.0000 O   0  0  0  0  0  0  0  0  0  0  0  0
    5.9326  -10.3748    0.0000 O   0  0  0  0  0  0  0  0  0  0  0  0
    5.9308  -12.0248    0.0000 O   0  0  0  0  0  0  0  0  0  0  0  0
    6.6475   -9.9630    0.0000 H   0  0  0  0  0  0  0  0  0  0  0  0
    6.6444  -13.2638    0.0000 C   0  0  0  0  0  0  0  0  0  0  0  0
  1  2  1  0  0  0  0
  2  3  1  0  0  0  0
  3  4  1  0  0  0  0
  4  5  1  0  0  0  0
  5  6  1  0  0  0  0
  6  1  1  0  0  0  0
  5  7  1  1  0  0  0
  1  8  1  1  0  0  0
  3  9  1  1  0  0  0
  7 10  1  0  0  0  0
 10 11  1  0  0  0  0
 11 12  1  0  0  0  0
 11 13  1  0  0  0  0
 12 14  2  0  0  0  0
 14 15  1  0  0  0  0
 15 16  2  0  0  0  0
 16 17  1  0  0  0  0
 17 18  2  0  0  0  0
 18 12  1  0  0  0  0
 17 19  1  0  0  0  0
 16 20  1  0  0  0  0
  2 21  1  6  0  0  0
  4 22  1  6  0  0  0
  8 23  1  0  0  0  0
 24 25  2  0  0  0  0
 25 26  1  0  0  0  0
 26 27  2  0  0  0  0
 27 28  1  0  0  0  0
 28 29  2  0  0  0  0
 29 24  1  0  0  0  0
 28 30  1  0  0  0  0
 27 31  1  0  0  0  0
 25 32  1  0  0  0  0
 32 33  2  0  0  0  0
 33 34  1  0  0  0  0
 34 35  2  0  0  0  0
 32 36  1  0  0  0  0
 33 37  1  0  0  0  0
 34 21  1  0  0  0  0
 38 39  1  0  0  0  0
 39 40  1  0  0  0  0
 40 41  1  0  0  0  0
 41 42  1  0  0  0  0
 42 43  1  0  0  0  0
 43 38  1  0  0  0  0
 39 44  1  1  0  0  0
 43 45  1  1  0  0  0
 38 46  1  6  0  0  0
 42 47  1  0  0  0  0
 42  9  1  0  0  0  0
 44 48  1  0  0  0  0
M  END
>  <cdx:fragmentId>
5

$$$$
