50033.cdx
  Mrv1902 05222410262D          

 31 34  0  0  0  0            999 V2000
    4.8243  -10.0776    0.0000 C   0  0  0  0  0  0  0  0  0  0  0  0
    4.8243  -10.9026    0.0000 C   0  0  0  0  0  0  0  0  0  0  0  0
    5.5388  -11.3151    0.0000 C   0  0  0  0  0  0  0  0  0  0  0  0
    6.2532  -10.9026    0.0000 C   0  0  0  0  0  0  0  0  0  0  0  0
    6.2532  -10.0776    0.0000 C   0  0  0  0  0  0  0  0  0  0  0  0
    5.5388   -9.6651    0.0000 C   0  0  0  0  0  0  0  0  0  0  0  0
    6.9677  -11.3151    0.0000 C   0  0  0  0  0  0  0  0  0  0  0  0
    7.6822  -10.9026    0.0000 C   0  0  0  0  0  0  0  0  0  0  0  0
    7.6822  -10.0776    0.0000 C   0  0  0  0  0  0  0  0  0  0  0  0
    6.9677   -9.6651    0.0000 O   0  0  0  0  0  0  0  0  0  0  0  0
    9.1111  -10.0776    0.0000 C   0  0  0  0  0  0  0  0  0  0  0  0
    8.3967   -9.6651    0.0000 C   0  0  0  0  0  0  0  0  0  0  0  0
    9.8256   -9.6651    0.0000 C   0  0  0  0  0  0  0  0  0  0  0  0
    9.8256   -8.8401    0.0000 C   0  0  0  0  0  0  0  0  0  0  0  0
    9.1111   -8.4276    0.0000 C   0  0  0  0  0  0  0  0  0  0  0  0
    8.3967   -8.8401    0.0000 C   0  0  0  0  0  0  0  0  0  0  0  0
   10.5401   -8.4276    0.0000 O   0  0  0  0  0  0  0  0  0  0  0  0
    5.5388  -12.1401    0.0000 O   0  0  0  0  0  0  0  0  0  0  0  0
    6.9677  -12.1401    0.0000 O   0  0  0  0  0  0  0  0  0  0  0  0
    4.1098   -9.6651    0.0000 O   0  0  0  0  0  0  0  0  0  0  0  0
    9.1111   -7.6026    0.0000 C   0  0  0  0  0  0  0  0  0  0  0  0
    8.3967   -7.1901    0.0000 C   0  0  0  0  0  0  0  0  0  0  0  0
    7.6822   -7.6026    0.0000 C   0  0  0  0  0  0  0  0  0  0  0  0
    7.6822   -8.4276    0.0000 O   0  0  0  0  0  0  0  0  0  0  0  0
    6.9677   -8.0151    0.0000 C   0  0  0  0  0  0  0  0  0  0  0  0
    6.2532   -7.6026    0.0000 C   0  0  0  0  0  0  0  0  0  0  0  0
    5.5388   -8.0151    0.0000 C   0  0  0  0  0  0  0  0  0  0  0  0
    4.8243   -7.6026    0.0000 C   0  0  0  0  0  0  0  0  0  0  0  0
    4.1098   -8.0151    0.0000 C   0  0  0  0  0  0  0  0  0  0  0  0
    4.8243   -6.7776    0.0000 C   0  0  0  0  0  0  0  0  0  0  0  0
    7.2697   -6.8882    0.0000 C   0  0  0  0  0  0  0  0  0  0  0  0
  1  2  2  0  0  0  0
  2  3  1  0  0  0  0
  3  4  2  0  0  0  0
  4  5  1  0  0  0  0
  5  6  2  0  0  0  0
  6  1  1  0  0  0  0
  4  7  1  0  0  0  0
  7  8  1  0  0  0  0
  8  9  2  0  0  0  0
  9 10  1  0  0  0  0
 10  5  1  0  0  0  0
 11 12  2  0  0  0  0
  9 12  1  6  0  0  0
 11 13  1  0  0  0  0
 13 14  2  0  0  0  0
 14 15  1  0  0  0  0
 15 16  2  0  0  0  0
 16 12  1  0  0  0  0
 17 14  1  0  0  0  0
  3 18  1  0  0  0  0
 19  7  2  0  0  0  0
  1 20  1  0  0  0  0
 15 21  1  0  0  0  0
 21 22  2  0  0  0  0
 22 23  1  0  0  0  0
 23 24  1  0  0  0  0
 24 16  1  0  0  0  0
 23 25  1  0  0  0  0
 25 26  1  0  0  0  0
 26 27  1  0  0  0  0
 27 28  2  0  0  0  0
 28 29  1  0  0  0  0
 28 30  1  0  0  0  0
 23 31  1  0  0  0  0
M  END
>  <cdx:fragmentId>
5

$$$$
