50034.cdx
  Mrv1902 05222410272D          

 31 33  0  0  0  0            999 V2000
    1.8406   -9.4314    0.0000 C   0  0  0  0  0  0  0  0  0  0  0  0
    1.8406  -10.2564    0.0000 C   0  0  0  0  0  0  0  0  0  0  0  0
    2.5550  -10.6689    0.0000 C   0  0  0  0  0  0  0  0  0  0  0  0
    3.2695  -10.2564    0.0000 C   0  0  0  0  0  0  0  0  0  0  0  0
    3.2695   -9.4314    0.0000 C   0  0  0  0  0  0  0  0  0  0  0  0
    2.5550   -9.0189    0.0000 C   0  0  0  0  0  0  0  0  0  0  0  0
    3.9840  -10.6689    0.0000 C   0  0  0  0  0  0  0  0  0  0  0  0
    4.6984  -10.2564    0.0000 C   0  0  0  0  0  0  0  0  0  0  0  0
    4.6984   -9.4314    0.0000 C   0  0  0  0  0  0  0  0  0  0  0  0
    3.9840   -9.0189    0.0000 O   0  0  0  0  0  0  0  0  0  0  0  0
    2.5550  -11.4939    0.0000 O   0  0  0  0  0  0  0  0  0  0  0  0
    3.9840  -11.4939    0.0000 O   0  0  0  0  0  0  0  0  0  0  0  0
    6.1274  -10.2564    0.0000 O   0  0  0  0  0  0  0  0  0  0  0  0
    6.1274   -9.4314    0.0000 C   0  0  0  0  0  0  0  0  0  0  0  0
    5.4129   -9.0189    0.0000 C   0  0  0  0  0  0  0  0  0  0  0  0
    6.8419   -9.0189    0.0000 C   0  0  0  0  0  0  0  0  0  0  0  0
    6.8419   -8.1939    0.0000 C   0  0  0  0  0  0  0  0  0  0  0  0
    6.1274   -7.7814    0.0000 C   0  0  0  0  0  0  0  0  0  0  0  0
    5.4129   -8.1939    0.0000 C   0  0  0  0  0  0  0  0  0  0  0  0
    7.5563   -9.4314    0.0000 C   0  0  0  0  0  0  0  0  0  0  0  0
    8.2708   -9.0189    0.0000 C   0  0  0  0  0  0  0  0  0  0  0  0
    8.9853   -9.4314    0.0000 C   0  0  0  0  0  0  0  0  0  0  0  0
    9.6997   -9.0189    0.0000 C   0  0  0  0  0  0  0  0  0  0  0  0
   10.4142   -9.4314    0.0000 C   0  0  0  0  0  0  0  0  0  0  0  0
   11.1287   -9.0189    0.0000 C   0  0  0  0  0  0  0  0  0  0  0  0
   11.8431   -9.4314    0.0000 C   0  0  0  0  0  0  0  0  0  0  0  0
   12.5576   -9.0189    0.0000 C   0  0  0  0  0  0  0  0  0  0  0  0
    8.9853  -10.2564    0.0000 C   0  0  0  0  0  0  0  0  0  0  0  0
   11.8431  -10.2564    0.0000 C   0  0  0  0  0  0  0  0  0  0  0  0
    7.5563   -7.7814    0.0000 O   0  0  0  0  0  0  0  0  0  0  0  0
    1.1261   -9.0189    0.0000 O   0  0  0  0  0  0  0  0  0  0  0  0
  1  2  2  0  0  0  0
  2  3  1  0  0  0  0
  3  4  2  0  0  0  0
  4  5  1  0  0  0  0
  5  6  2  0  0  0  0
  6  1  1  0  0  0  0
  4  7  1  0  0  0  0
  7  8  1  0  0  0  0
  8  9  2  0  0  0  0
  9 10  1  0  0  0  0
 10  5  1  0  0  0  0
  3 11  1  0  0  0  0
 12  7  2  0  0  0  0
 13 14  1  0  0  0  0
 14 15  2  0  0  0  0
 15  9  1  0  0  0  0
 14 16  1  0  0  0  0
 16 17  2  0  0  0  0
 17 18  1  0  0  0  0
 18 19  2  0  0  0  0
 19 15  1  0  0  0  0
 16 20  1  0  0  0  0
 20 21  1  0  0  0  0
 21 22  2  0  0  0  0
 22 23  1  0  0  0  0
 23 24  1  0  0  0  0
 24 25  1  0  0  0  0
 25 26  2  0  0  0  0
 26 27  1  0  0  0  0
 22 28  1  0  0  0  0
 26 29  1  0  0  0  0
 17 30  1  0  0  0  0
  1 31  1  0  0  0  0
M  END
>  <cdx:fragmentId>
5

$$$$
