50035.cdx
  Mrv1902 05222410272D          

 44 48  0  0  0  0            999 V2000
    7.5881  -10.2416    0.0000 C   0  0  0  0  0  0  0  0  0  0  0  0
    7.5881   -9.4166    0.0000 C   0  0  0  0  0  0  0  0  0  0  0  0
    8.3025   -9.0041    0.0000 C   0  0  0  0  0  0  0  0  0  0  0  0
    9.0170   -9.4166    0.0000 C   0  0  0  0  0  0  0  0  0  0  0  0
    9.0170  -10.2416    0.0000 C   0  0  0  0  0  0  0  0  0  0  0  0
    8.3025  -10.6541    0.0000 C   0  0  0  0  0  0  0  0  0  0  0  0
    9.7315   -9.0041    0.0000 C   0  0  0  0  0  0  0  0  0  0  0  0
   10.4459   -9.4166    0.0000 C   0  0  0  0  0  0  0  0  0  0  0  0
   10.4459  -10.2416    0.0000 C   0  0  0  0  0  0  0  0  0  0  0  0
    9.7315  -10.6541    0.0000 C   0  0  0  0  0  0  0  0  0  0  0  0
   11.1604   -9.0041    0.0000 C   0  0  0  0  0  0  0  0  0  0  0  0
   11.8749   -9.4166    0.0000 C   0  0  0  0  0  0  0  0  0  0  0  0
   11.8749  -10.2416    0.0000 C   0  0  0  0  0  0  0  0  0  0  0  0
   11.1604  -10.6541    0.0000 C   0  0  0  0  0  0  0  0  0  0  0  0
   12.5894   -9.0041    0.0000 C   0  0  0  0  0  0  0  0  0  0  0  0
   13.3038   -9.4166    0.0000 O   0  0  0  0  0  0  0  0  0  0  0  0
   12.5894  -10.6541    0.0000 O   0  0  0  0  0  0  0  0  0  0  0  0
   11.1604   -8.1791    0.0000 C   0  0  0  0  0  0  0  0  0  0  0  0
   12.5894   -8.1791    0.0000 O   0  0  0  0  0  0  0  0  0  0  0  0
    9.7315   -8.1791    0.0000 O   0  0  0  0  0  0  0  0  0  0  0  0
    8.3025   -8.1791    0.0000 O   0  0  0  0  0  0  0  0  0  0  0  0
    6.8736  -10.6541    0.0000 O   0  0  0  0  0  0  0  0  0  0  0  0
    9.7315  -11.4791    0.0000 O   0  0  0  0  0  0  0  0  0  0  0  0
    7.5881   -7.7666    0.0000 C   0  0  2  0  0  0  0  0  0  0  0  0
    7.5881   -6.9416    0.0000 O   0  0  0  0  0  0  0  0  0  0  0  0
    6.8736   -6.5291    0.0000 C   0  0  1  0  0  0  0  0  0  0  0  0
    6.1591   -6.9416    0.0000 C   0  0  2  0  0  0  0  0  0  0  0  0
    6.1591   -7.7666    0.0000 C   0  0  1  0  0  0  0  0  0  0  0  0
    6.8736   -8.1791    0.0000 C   0  0  1  0  0  0  0  0  0  0  0  0
    6.8736   -5.7041    0.0000 C   0  0  0  0  0  0  0  0  0  0  0  0
    5.4446   -8.1791    0.0000 O   0  0  0  0  0  0  0  0  0  0  0  0
    6.8736   -9.0041    0.0000 O   0  0  0  0  0  0  0  0  0  0  0  0
    5.4446   -6.5291    0.0000 O   0  0  0  0  0  0  0  0  0  0  0  0
    6.1591   -5.2916    0.0000 O   0  0  0  0  0  0  0  0  0  0  0  0
    6.1591   -4.4666    0.0000 C   0  0  0  0  0  0  0  0  0  0  0  0
    5.4446   -4.0541    0.0000 C   0  0  0  0  0  0  0  0  0  0  0  0
    6.8736   -4.0541    0.0000 O   0  0  0  0  0  0  0  0  0  0  0  0
    5.4446   -3.2291    0.0000 C   0  0  0  0  0  0  0  0  0  0  0  0
    4.7302   -2.8166    0.0000 C   0  0  0  0  0  0  0  0  0  0  0  0
    4.7302   -1.9916    0.0000 C   0  0  0  0  0  0  0  0  0  0  0  0
    4.0157   -1.5791    0.0000 C   0  0  0  0  0  0  0  0  0  0  0  0
    3.3012   -1.9916    0.0000 C   0  0  0  0  0  0  0  0  0  0  0  0
    3.3012   -2.8166    0.0000 C   0  0  0  0  0  0  0  0  0  0  0  0
    4.0157   -3.2291    0.0000 C   0  0  0  0  0  0  0  0  0  0  0  0
  1  2  1  0  0  0  0
  2  3  2  0  0  0  0
  3  4  1  0  0  0  0
  4  5  2  0  0  0  0
  5  6  1  0  0  0  0
  6  1  2  0  0  0  0
  4  7  1  0  0  0  0
  7  8  1  0  0  0  0
  8  9  2  0  0  0  0
  9 10  1  0  0  0  0
 10  5  1  0  0  0  0
  8 11  1  0  0  0  0
 11 12  2  0  0  0  0
 12 13  1  0  0  0  0
 13 14  2  0  0  0  0
 14  9  1  0  0  0  0
 12 15  1  0  0  0  0
 15 16  1  0  0  0  0
 17 13  1  0  0  0  0
 11 18  1  0  0  0  0
 19 15  2  0  0  0  0
  7 20  2  0  0  0  0
  3 21  1  0  0  0  0
  1 22  1  0  0  0  0
 10 23  2  0  0  0  0
 24 21  1  1  0  0  0
 24 25  1  0  0  0  0
 25 26  1  0  0  0  0
 26 27  1  0  0  0  0
 27 28  1  0  0  0  0
 28 29  1  0  0  0  0
 29 24  1  0  0  0  0
 26 30  1  1  0  0  0
 28 31  1  1  0  0  0
 29 32  1  6  0  0  0
 27 33  1  6  0  0  0
 30 34  1  0  0  0  0
 34 35  1  0  0  0  0
 35 36  1  0  0  0  0
 35 37  2  0  0  0  0
 36 38  2  0  0  0  0
 38 39  1  0  0  0  0
 39 40  2  0  0  0  0
 40 41  1  0  0  0  0
 41 42  2  0  0  0  0
 42 43  1  0  0  0  0
 43 44  2  0  0  0  0
 44 39  1  0  0  0  0
M  END
>  <cdx:fragmentId>
5

$$$$
