50032.cdx
  Mrv1902 05222410262D          

 37 39  0  0  0  0            999 V2000
    2.3768   -9.9401    0.0000 C   0  0  0  0  0  0  0  0  0  0  0  0
    2.3768  -10.7651    0.0000 C   0  0  0  0  0  0  0  0  0  0  0  0
    3.0913  -11.1776    0.0000 C   0  0  0  0  0  0  0  0  0  0  0  0
    3.8057  -10.7651    0.0000 C   0  0  0  0  0  0  0  0  0  0  0  0
    3.8057   -9.9401    0.0000 C   0  0  0  0  0  0  0  0  0  0  0  0
    3.0913   -9.5276    0.0000 C   0  0  0  0  0  0  0  0  0  0  0  0
    4.5202  -11.1776    0.0000 C   0  0  0  0  0  0  0  0  0  0  0  0
    5.2347  -10.7651    0.0000 C   0  0  0  0  0  0  0  0  0  0  0  0
    5.2347   -9.9401    0.0000 C   0  0  2  0  0  0  0  0  0  0  0  0
    4.5202   -9.5276    0.0000 O   0  0  0  0  0  0  0  0  0  0  0  0
    6.6636  -10.7651    0.0000 O   0  0  0  0  0  0  0  0  0  0  0  0
    6.6636   -9.9401    0.0000 C   0  0  0  0  0  0  0  0  0  0  0  0
    5.9492   -9.5276    0.0000 C   0  0  0  0  0  0  0  0  0  0  0  0
    7.3781   -9.5276    0.0000 C   0  0  0  0  0  0  0  0  0  0  0  0
    7.3781   -8.7026    0.0000 C   0  0  0  0  0  0  0  0  0  0  0  0
    6.6636   -8.2901    0.0000 C   0  0  0  0  0  0  0  0  0  0  0  0
    5.9492   -8.7026    0.0000 C   0  0  0  0  0  0  0  0  0  0  0  0
    8.0926   -9.9401    0.0000 C   0  0  0  0  0  0  0  0  0  0  0  0
    8.8070   -9.5276    0.0000 C   0  0  0  0  0  0  0  0  0  0  0  0
    8.0926   -8.2901    0.0000 O   0  0  0  0  0  0  0  0  0  0  0  0
    3.0913  -12.0026    0.0000 O   0  0  0  0  0  0  0  0  0  0  0  0
    4.5202  -12.0026    0.0000 O   0  0  0  0  0  0  0  0  0  0  0  0
    1.6623   -9.5276    0.0000 O   0  0  0  0  0  0  0  0  0  0  0  0
    6.6636   -7.4651    0.0000 C   0  0  0  0  0  0  0  0  0  0  0  0
    7.3781   -7.0526    0.0000 C   0  0  0  0  0  0  0  0  0  0  0  0
    7.3781   -6.2276    0.0000 C   0  0  0  0  0  0  0  0  0  0  0  0
    6.5531   -6.2276    0.0000 C   0  0  0  0  0  0  0  0  0  0  0  0
    8.2031   -6.2276    0.0000 C   0  0  0  0  0  0  0  0  0  0  0  0
    7.3781   -5.4026    0.0000 O   0  0  0  0  0  0  0  0  0  0  0  0
    9.5215   -9.9401    0.0000 C   0  0  0  0  0  0  0  0  0  0  0  0
   10.2360   -9.5276    0.0000 C   0  0  0  0  0  0  0  0  0  0  0  0
   10.9505   -9.9401    0.0000 C   0  0  0  0  0  0  0  0  0  0  0  0
   11.6649   -9.5276    0.0000 C   0  0  0  0  0  0  0  0  0  0  0  0
   12.3794   -9.9401    0.0000 C   0  0  0  0  0  0  0  0  0  0  0  0
   13.0939   -9.5276    0.0000 C   0  0  0  0  0  0  0  0  0  0  0  0
    9.5215  -10.7651    0.0000 C   0  0  0  0  0  0  0  0  0  0  0  0
   12.3794  -10.7651    0.0000 C   0  0  0  0  0  0  0  0  0  0  0  0
  1  2  2  0  0  0  0
  2  3  1  0  0  0  0
  3  4  2  0  0  0  0
  4  5  1  0  0  0  0
  5  6  2  0  0  0  0
  6  1  1  0  0  0  0
  4  7  1  0  0  0  0
  7  8  1  0  0  0  0
  8  9  1  0  0  0  0
  9 10  1  0  0  0  0
 10  5  1  0  0  0  0
 11 12  1  0  0  0  0
 12 13  2  0  0  0  0
  9 13  1  6  0  0  0
 12 14  1  0  0  0  0
 14 15  2  0  0  0  0
 15 16  1  0  0  0  0
 16 17  2  0  0  0  0
 17 13  1  0  0  0  0
 14 18  1  0  0  0  0
 18 19  1  0  0  0  0
 20 15  1  0  0  0  0
  3 21  1  0  0  0  0
 22  7  2  0  0  0  0
  1 23  1  0  0  0  0
 16 24  1  0  0  0  0
 24 25  1  0  0  0  0
 25 26  1  0  0  0  0
 26 27  1  0  0  0  0
 26 28  1  0  0  0  0
 26 29  1  0  0  0  0
 19 30  2  0  0  0  0
 30 31  1  0  0  0  0
 31 32  1  0  0  0  0
 32 33  1  0  0  0  0
 33 34  2  0  0  0  0
 34 35  1  0  0  0  0
 30 36  1  0  0  0  0
 34 37  1  0  0  0  0
M  END
>  <cdx:fragmentId>
5

$$$$
