50038.cdx
  Mrv1902 05222410192D          

 68 73  0  0  0  0            999 V2000
    6.6531   -8.2764    0.0000 C   0  0  2  0  0  0  0  0  0  0  0  0
    6.6531   -9.1014    0.0000 C   0  0  2  0  0  0  0  0  0  0  0  0
    7.3675   -9.5139    0.0000 C   0  0  1  0  0  0  0  0  0  0  0  0
    8.0820   -9.1014    0.0000 C   0  0  2  0  0  0  0  0  0  0  0  0
    8.0820   -8.2764    0.0000 C   0  0  1  0  0  0  0  0  0  0  0  0
    7.3675   -7.8639    0.0000 O   0  0  0  0  0  0  0  0  0  0  0  0
    8.7965   -7.8639    0.0000 O   0  0  0  0  0  0  0  0  0  0  0  0
    5.9386   -7.8639    0.0000 C   0  0  0  0  0  0  0  0  0  0  0  0
    7.3675  -10.3389    0.0000 O   0  0  0  0  0  0  0  0  0  0  0  0
    9.5109   -8.2764    0.0000 C   0  0  0  0  0  0  0  0  0  0  0  0
   10.2254   -7.8639    0.0000 C   0  0  0  0  0  0  0  0  0  0  0  0
   10.9399   -8.2764    0.0000 C   0  0  0  0  0  0  0  0  0  0  0  0
   10.2254   -7.0389    0.0000 H   0  0  0  0  0  0  0  0  0  0  0  0
   10.9399   -9.1014    0.0000 C   0  0  0  0  0  0  0  0  0  0  0  0
   11.6544   -9.5139    0.0000 C   0  0  0  0  0  0  0  0  0  0  0  0
   12.3688   -9.1014    0.0000 C   0  0  0  0  0  0  0  0  0  0  0  0
   12.3688   -8.2764    0.0000 C   0  0  0  0  0  0  0  0  0  0  0  0
   11.6544   -7.8639    0.0000 C   0  0  0  0  0  0  0  0  0  0  0  0
   13.0833   -7.8639    0.0000 O   0  0  0  0  0  0  0  0  0  0  0  0
   13.0833   -9.5139    0.0000 O   0  0  0  0  0  0  0  0  0  0  0  0
    5.9386   -9.5139    0.0000 O   0  0  0  0  0  0  0  0  0  0  0  0
    8.7965   -9.5139    0.0000 O   0  0  0  0  0  0  0  0  0  0  0  0
    5.2241   -8.2764    0.0000 O   0  0  0  0  0  0  0  0  0  0  0  0
    9.2431  -11.6545    0.0000 C   0  0  1  0  0  0  0  0  0  0  0  0
   10.0679  -11.6390    0.0000 C   0  0  1  0  0  0  0  0  0  0  0  0
   10.4670  -10.9170    0.0000 C   0  0  2  0  0  0  0  0  0  0  0  0
   10.0411  -10.2103    0.0000 C   0  0  2  0  0  0  0  0  0  0  0  0
    9.2163  -10.2258    0.0000 C   0  0  1  0  0  0  0  0  0  0  0  0
    8.8172  -10.9479    0.0000 O   0  0  0  0  0  0  0  0  0  0  0  0
   10.4938  -12.3456    0.0000 O   0  0  0  0  0  0  0  0  0  0  0  0
    8.8440  -12.3766    0.0000 C   0  0  0  0  0  0  0  0  0  0  0  0
   11.2918  -10.9015    0.0000 O   0  0  0  0  0  0  0  0  0  0  0  0
   10.4402   -9.4883    0.0000 O   0  0  0  0  0  0  0  0  0  0  0  0
    5.6682  -11.7321    0.0000 C   0  0  1  0  0  0  0  0  0  0  0  0
    6.0576  -12.4594    0.0000 C   0  0  1  0  0  0  0  0  0  0  0  0
    6.8821  -12.4859    0.0000 C   0  0  2  0  0  0  0  0  0  0  0  0
    7.3173  -11.7850    0.0000 C   0  0  2  0  0  0  0  0  0  0  0  0
    6.9280  -11.0577    0.0000 C   0  0  1  0  0  0  0  0  0  0  0  0
    6.1034  -11.0312    0.0000 O   0  0  0  0  0  0  0  0  0  0  0  0
    5.6224  -13.1603    0.0000 O   0  0  0  0  0  0  0  0  0  0  0  0
    4.8436  -11.7056    0.0000 C   0  0  0  0  0  0  0  0  0  0  0  0
    7.2715  -13.2132    0.0000 O   0  0  0  0  0  0  0  0  0  0  0  0
    8.1419  -11.8115    0.0000 O   0  0  0  0  0  0  0  0  0  0  0  0
    2.3801   -9.9444    0.0000 C   0  0  0  0  0  0  0  0  0  0  0  0
    3.0911   -9.5259    0.0000 C   0  0  0  0  0  0  0  0  0  0  0  0
    3.0842   -8.7010    0.0000 C   0  0  0  0  0  0  0  0  0  0  0  0
    2.3663   -8.2945    0.0000 C   0  0  0  0  0  0  0  0  0  0  0  0
    1.6553   -8.7129    0.0000 C   0  0  0  0  0  0  0  0  0  0  0  0
    1.6622   -9.5379    0.0000 C   0  0  0  0  0  0  0  0  0  0  0  0
    0.9374   -8.3064    0.0000 O   0  0  0  0  0  0  0  0  0  0  0  0
    2.3594   -7.4695    0.0000 O   0  0  0  0  0  0  0  0  0  0  0  0
    3.8090   -9.9324    0.0000 C   0  0  0  0  0  0  0  0  0  0  0  0
    4.5200   -9.5140    0.0000 C   0  0  0  0  0  0  0  0  0  0  0  0
    5.2379   -9.9205    0.0000 C   0  0  0  0  0  0  0  0  0  0  0  0
    5.2448  -10.7454    0.0000 O   0  0  0  0  0  0  0  0  0  0  0  0
    3.8159  -10.7574    0.0000 H   0  0  0  0  0  0  0  0  0  0  0  0
    4.5131   -8.6890    0.0000 H   0  0  0  0  0  0  0  0  0  0  0  0
    4.8300   -6.1247    0.0000 C   0  0  2  0  0  0  0  0  0  0  0  0
    4.0050   -6.1232    0.0000 C   0  0  2  0  0  0  0  0  0  0  0  0
    3.5912   -6.8369    0.0000 C   0  0  1  0  0  0  0  0  0  0  0  0
    4.0024   -7.5521    0.0000 C   0  0  2  0  0  0  0  0  0  0  0  0
    4.8274   -7.5536    0.0000 C   0  0  1  0  0  0  0  0  0  0  0  0
    5.2412   -6.8399    0.0000 O   0  0  0  0  0  0  0  0  0  0  0  0
    5.2438   -5.4110    0.0000 C   0  0  0  0  0  0  0  0  0  0  0  0
    2.7662   -6.8354    0.0000 O   0  0  0  0  0  0  0  0  0  0  0  0
    3.5885   -8.2658    0.0000 O   0  0  0  0  0  0  0  0  0  0  0  0
    3.5938   -5.4079    0.0000 O   0  0  0  0  0  0  0  0  0  0  0  0
    4.8326   -4.6957    0.0000 O   0  0  0  0  0  0  0  0  0  0  0  0
  1  2  1  0  0  0  0
  2  3  1  0  0  0  0
  3  4  1  0  0  0  0
  4  5  1  0  0  0  0
  5  6  1  0  0  0  0
  6  1  1  0  0  0  0
  5  7  1  1  0  0  0
  1  8  1  1  0  0  0
  3  9  1  1  0  0  0
  7 10  1  0  0  0  0
 10 11  1  0  0  0  0
 11 12  1  0  0  0  0
 11 13  1  0  0  0  0
 12 14  2  0  0  0  0
 14 15  1  0  0  0  0
 15 16  2  0  0  0  0
 16 17  1  0  0  0  0
 17 18  2  0  0  0  0
 18 12  1  0  0  0  0
 17 19  1  0  0  0  0
 16 20  1  0  0  0  0
  2 21  1  6  0  0  0
  4 22  1  6  0  0  0
  8 23  1  0  0  0  0
 24 25  1  0  0  0  0
 25 26  1  0  0  0  0
 26 27  1  0  0  0  0
 27 28  1  0  0  0  0
 28 29  1  0  0  0  0
 29 24  1  0  0  0  0
 25 30  1  1  0  0  0
 24 31  1  6  0  0  0
 26 32  1  6  0  0  0
 27 33  1  6  0  0  0
 34 35  1  0  0  0  0
 35 36  1  0  0  0  0
 36 37  1  0  0  0  0
 37 38  1  0  0  0  0
 38 39  1  0  0  0  0
 39 34  1  0  0  0  0
 35 40  1  1  0  0  0
 34 41  1  6  0  0  0
 36 42  1  6  0  0  0
 37 43  1  6  0  0  0
 28 22  1  1  0  0  0
 38  9  1  1  0  0  0
 44 45  2  0  0  0  0
 45 46  1  0  0  0  0
 46 47  2  0  0  0  0
 47 48  1  0  0  0  0
 48 49  2  0  0  0  0
 49 44  1  0  0  0  0
 48 50  1  0  0  0  0
 47 51  1  0  0  0  0
 45 52  1  0  0  0  0
 52 53  2  0  0  0  0
 53 54  1  0  0  0  0
 54 55  2  0  0  0  0
 52 56  1  0  0  0  0
 53 57  1  0  0  0  0
 54 21  1  0  0  0  0
 58 59  1  0  0  0  0
 59 60  1  0  0  0  0
 60 61  1  0  0  0  0
 61 62  1  0  0  0  0
 62 63  1  0  0  0  0
 63 58  1  0  0  0  0
 58 64  1  1  0  0  0
 60 65  1  1  0  0  0
 61 66  1  6  0  0  0
 59 67  1  6  0  0  0
 64 68  1  0  0  0  0
 62 23  1  1  0  0  0
M  END
>  <cdx:fragmentId>
5

$$$$
