50031.cdx
  Mrv1902 05222410272D          

 36 39  0  0  0  0            999 V2000
    2.7618   -7.9601    0.0000 C   0  0  0  0  0  0  0  0  0  0  0  0
    2.7618   -8.7851    0.0000 C   0  0  0  0  0  0  0  0  0  0  0  0
    3.4763   -9.1976    0.0000 C   0  0  0  0  0  0  0  0  0  0  0  0
    4.1907   -8.7851    0.0000 C   0  0  0  0  0  0  0  0  0  0  0  0
    4.1907   -7.9601    0.0000 C   0  0  0  0  0  0  0  0  0  0  0  0
    3.4763   -7.5476    0.0000 C   0  0  0  0  0  0  0  0  0  0  0  0
    4.9052   -9.1976    0.0000 C   0  0  0  0  0  0  0  0  0  0  0  0
    5.6197   -8.7851    0.0000 C   0  0  0  0  0  0  0  0  0  0  0  0
    5.6197   -7.9601    0.0000 C   0  0  0  0  0  0  0  0  0  0  0  0
    4.9052   -7.5476    0.0000 O   0  0  0  0  0  0  0  0  0  0  0  0
    6.3342   -9.1976    0.0000 C   0  0  0  0  0  0  0  0  0  0  0  0
    7.0486   -8.7851    0.0000 O   0  0  0  0  0  0  0  0  0  0  0  0
    7.0486   -7.9601    0.0000 C   0  0  0  0  0  0  0  0  0  0  0  0
    6.3342   -7.5476    0.0000 C   0  0  0  0  0  0  0  0  0  0  0  0
    7.7631   -7.5476    0.0000 C   0  0  0  0  0  0  0  0  0  0  0  0
    7.7631   -6.7226    0.0000 C   0  0  0  0  0  0  0  0  0  0  0  0
    7.0486   -6.3101    0.0000 C   0  0  0  0  0  0  0  0  0  0  0  0
    6.3342   -6.7226    0.0000 C   0  0  0  0  0  0  0  0  0  0  0  0
    8.4776   -7.9601    0.0000 C   0  0  0  0  0  0  0  0  0  0  0  0
    9.1920   -7.5476    0.0000 C   0  0  0  0  0  0  0  0  0  0  0  0
    9.1920   -6.7226    0.0000 C   0  0  0  0  0  0  0  0  0  0  0  0
    8.4776   -6.3101    0.0000 O   0  0  0  0  0  0  0  0  0  0  0  0
    3.4763  -10.0226    0.0000 O   0  0  0  0  0  0  0  0  0  0  0  0
    4.9052  -10.0226    0.0000 O   0  0  0  0  0  0  0  0  0  0  0  0
    6.3342  -10.0226    0.0000 C   0  0  0  0  0  0  0  0  0  0  0  0
    7.0486  -10.4351    0.0000 C   0  0  0  0  0  0  0  0  0  0  0  0
    7.7631  -10.0226    0.0000 C   0  0  0  0  0  0  0  0  0  0  0  0
    2.0473   -7.5476    0.0000 O   0  0  0  0  0  0  0  0  0  0  0  0
    7.0486  -11.2601    0.0000 C   0  0  0  0  0  0  0  0  0  0  0  0
    9.9065   -7.1351    0.0000 C   0  0  0  0  0  0  0  0  0  0  0  0
   10.6210   -6.7226    0.0000 C   0  0  0  0  0  0  0  0  0  0  0  0
   11.3355   -7.1351    0.0000 C   0  0  0  0  0  0  0  0  0  0  0  0
   12.0499   -6.7226    0.0000 C   0  0  0  0  0  0  0  0  0  0  0  0
   12.7644   -7.1351    0.0000 C   0  0  0  0  0  0  0  0  0  0  0  0
   12.0499   -5.8976    0.0000 C   0  0  0  0  0  0  0  0  0  0  0  0
    9.7754   -6.1393    0.0000 C   0  0  0  0  0  0  0  0  0  0  0  0
  1  2  2  0  0  0  0
  2  3  1  0  0  0  0
  3  4  2  0  0  0  0
  4  5  1  0  0  0  0
  5  6  2  0  0  0  0
  6  1  1  0  0  0  0
  4  7  1  0  0  0  0
  7  8  1  0  0  0  0
  8  9  2  0  0  0  0
  9 10  1  0  0  0  0
 10  5  1  0  0  0  0
  8 11  1  0  0  0  0
 12 13  1  0  0  0  0
 13 14  2  0  0  0  0
 14  9  1  0  0  0  0
 13 15  1  0  0  0  0
 15 16  2  0  0  0  0
 16 17  1  0  0  0  0
 17 18  2  0  0  0  0
 18 14  1  0  0  0  0
 15 19  1  0  0  0  0
 19 20  2  0  0  0  0
 20 21  1  0  0  0  0
 21 22  1  0  0  0  0
 22 16  1  0  0  0  0
  3 23  1  0  0  0  0
 24  7  2  0  0  0  0
 25 11  1  0  0  0  0
 25 26  2  0  0  0  0
 26 27  1  0  0  0  0
  1 28  1  0  0  0  0
 26 29  1  0  0  0  0
 21 30  1  0  0  0  0
 30 31  1  0  0  0  0
 31 32  1  0  0  0  0
 32 33  2  0  0  0  0
 33 34  1  0  0  0  0
 33 35  1  0  0  0  0
 21 36  1  0  0  0  0
M  END
>  <cdx:fragmentId>
5

$$$$
