50030.cdx
  Mrv1902 05222410262D          

 31 33  0  0  0  0            999 V2000
    3.4081   -6.8464    0.0000 C   0  0  0  0  0  0  0  0  0  0  0  0
    3.4081   -7.6714    0.0000 C   0  0  0  0  0  0  0  0  0  0  0  0
    4.1225   -8.0839    0.0000 C   0  0  0  0  0  0  0  0  0  0  0  0
    4.8370   -7.6714    0.0000 C   0  0  0  0  0  0  0  0  0  0  0  0
    4.8370   -6.8464    0.0000 C   0  0  0  0  0  0  0  0  0  0  0  0
    4.1225   -6.4339    0.0000 C   0  0  0  0  0  0  0  0  0  0  0  0
    5.5515   -8.0839    0.0000 C   0  0  0  0  0  0  0  0  0  0  0  0
    6.2659   -7.6714    0.0000 C   0  0  0  0  0  0  0  0  0  0  0  0
    6.2659   -6.8464    0.0000 C   0  0  2  0  0  0  0  0  0  0  0  0
    5.5515   -6.4339    0.0000 O   0  0  0  0  0  0  0  0  0  0  0  0
    6.9804   -6.4339    0.0000 C   0  0  0  0  0  0  0  0  0  0  0  0
    6.9804   -5.6089    0.0000 C   0  0  0  0  0  0  0  0  0  0  0  0
    6.2659   -5.1964    0.0000 O   0  0  0  0  0  0  0  0  0  0  0  0
    7.6949   -6.8464    0.0000 C   0  0  0  0  0  0  0  0  0  0  0  0
    8.4094   -6.4339    0.0000 C   0  0  0  0  0  0  0  0  0  0  0  0
    8.4094   -5.6089    0.0000 C   0  0  0  0  0  0  0  0  0  0  0  0
    7.6949   -5.1964    0.0000 C   0  0  0  0  0  0  0  0  0  0  0  0
    2.6936   -6.4339    0.0000 O   0  0  0  0  0  0  0  0  0  0  0  0
    4.1225   -8.9089    0.0000 O   0  0  0  0  0  0  0  0  0  0  0  0
    5.5515   -8.9089    0.0000 O   0  0  0  0  0  0  0  0  0  0  0  0
    7.6949   -4.3714    0.0000 C   0  0  0  0  0  0  0  0  0  0  0  0
    9.1238   -5.1964    0.0000 O   0  0  0  0  0  0  0  0  0  0  0  0
    9.1238   -6.8464    0.0000 C   0  0  0  0  0  0  0  0  0  0  0  0
    8.4094   -3.9589    0.0000 C   0  0  0  0  0  0  0  0  0  0  0  0
    8.4094   -3.1339    0.0000 C   0  0  0  0  0  0  0  0  0  0  0  0
    7.6949   -2.7214    0.0000 C   0  0  0  0  0  0  0  0  0  0  0  0
    9.1238   -2.7214    0.0000 C   0  0  0  0  0  0  0  0  0  0  0  0
    9.1238   -7.6714    0.0000 C   0  0  0  0  0  0  0  0  0  0  0  0
    9.8383   -8.0839    0.0000 C   0  0  0  0  0  0  0  0  0  0  0  0
   10.5528   -7.6714    0.0000 C   0  0  0  0  0  0  0  0  0  0  0  0
    9.8383   -8.9089    0.0000 C   0  0  0  0  0  0  0  0  0  0  0  0
  1  2  2  0  0  0  0
  2  3  1  0  0  0  0
  3  4  2  0  0  0  0
  4  5  1  0  0  0  0
  5  6  2  0  0  0  0
  6  1  1  0  0  0  0
  4  7  1  0  0  0  0
  7  8  1  0  0  0  0
  8  9  1  0  0  0  0
  9 10  1  0  0  0  0
 10  5  1  0  0  0  0
  9 11  1  6  0  0  0
 11 12  1  0  0  0  0
 12 13  1  0  0  0  0
 11 14  2  0  0  0  0
 14 15  1  0  0  0  0
 15 16  2  0  0  0  0
 16 17  1  0  0  0  0
 17 12  2  0  0  0  0
  1 18  1  0  0  0  0
  3 19  1  0  0  0  0
  7 20  2  0  0  0  0
 17 21  1  0  0  0  0
 16 22  1  0  0  0  0
 15 23  1  0  0  0  0
 21 24  1  0  0  0  0
 24 25  2  0  0  0  0
 25 26  1  0  0  0  0
 25 27  1  0  0  0  0
 23 28  1  0  0  0  0
 28 29  2  0  0  0  0
 29 30  1  0  0  0  0
 29 31  1  0  0  0  0
M  END
>  <cdx:fragmentId>
5

$$$$
