50047.cdx
  Mrv1902 05222410242D          

 52 57  0  0  0  0            999 V2000
    7.2512  -10.0925    0.0000 C   0  0  0  0  0  0  0  0  0  0  0  0
    7.2512  -10.9175    0.0000 C   0  0  0  0  0  0  0  0  0  0  0  0
    7.9656  -11.3300    0.0000 C   0  0  0  0  0  0  0  0  0  0  0  0
    8.6801  -10.9175    0.0000 C   0  0  0  0  0  0  0  0  0  0  0  0
    8.6801  -10.0925    0.0000 C   0  0  0  0  0  0  0  0  0  0  0  0
    7.9656   -9.6800    0.0000 C   0  0  0  0  0  0  0  0  0  0  0  0
    9.3946  -11.3300    0.0000 C   0  0  0  0  0  0  0  0  0  0  0  0
   10.1091  -10.9175    0.0000 C   0  0  0  0  0  0  0  0  0  0  0  0
   10.1091  -10.0925    0.0000 C   0  0  0  0  0  0  0  0  0  0  0  0
    9.3946   -9.6800    0.0000 O   0  0  0  0  0  0  0  0  0  0  0  0
   10.8235   -9.6800    0.0000 C   0  0  0  0  0  0  0  0  0  0  0  0
   10.8235   -8.8550    0.0000 C   0  0  0  0  0  0  0  0  0  0  0  0
   11.5380  -10.0925    0.0000 C   0  0  0  0  0  0  0  0  0  0  0  0
   12.2525   -9.6800    0.0000 C   0  0  0  0  0  0  0  0  0  0  0  0
   12.2525   -8.8550    0.0000 C   0  0  0  0  0  0  0  0  0  0  0  0
   11.5380   -8.4425    0.0000 C   0  0  0  0  0  0  0  0  0  0  0  0
    7.9656  -12.1550    0.0000 O   0  0  0  0  0  0  0  0  0  0  0  0
    9.3946  -12.1550    0.0000 O   0  0  0  0  0  0  0  0  0  0  0  0
    6.5367   -9.6800    0.0000 O   0  0  0  0  0  0  0  0  0  0  0  0
    5.8222   -9.2675    0.0000 C   0  0  1  0  0  0  0  0  0  0  0  0
    5.1078   -9.6800    0.0000 C   0  0  1  0  0  0  0  0  0  0  0  0
    5.8222   -8.4425    0.0000 O   0  0  0  0  0  0  0  0  0  0  0  0
    5.1078   -8.0300    0.0000 C   0  0  1  0  0  0  0  0  0  0  0  0
    4.3933   -8.4425    0.0000 C   0  0  2  0  0  0  0  0  0  0  0  0
    4.3933   -9.2675    0.0000 C   0  0  2  0  0  0  0  0  0  0  0  0
    3.6788   -9.6800    0.0000 O   0  0  0  0  0  0  0  0  0  0  0  0
    3.6788  -10.5050    0.0000 O   0  0  0  0  0  0  0  0  0  0  0  0
    4.3933  -10.9175    0.0000 C   0  0  1  0  0  0  0  0  0  0  0  0
    5.1078  -10.5050    0.0000 O   0  0  0  0  0  0  0  0  0  0  0  0
    2.9644  -10.9175    0.0000 C   0  0  2  0  0  0  0  0  0  0  0  0
    2.9644  -11.7425    0.0000 C   0  0  1  0  0  0  0  0  0  0  0  0
    3.6788  -12.1550    0.0000 C   0  0  2  0  0  0  0  0  0  0  0  0
    4.3933  -11.7425    0.0000 C   0  0  1  0  0  0  0  0  0  0  0  0
    5.1078   -7.2050    0.0000 C   0  0  0  0  0  0  0  0  0  0  0  0
    4.3933   -6.7925    0.0000 O   0  0  0  0  0  0  0  0  0  0  0  0
    3.6788   -8.0300    0.0000 O   0  0  0  0  0  0  0  0  0  0  0  0
    5.1078   -5.5550    0.0000 O   0  0  0  0  0  0  0  0  0  0  0  0
    4.3933   -5.9675    0.0000 C   0  0  2  0  0  0  0  0  0  0  0  0
    5.1078   -4.7300    0.0000 C   0  0  1  0  0  0  0  0  0  0  0  0
    4.3933   -4.3175    0.0000 C   0  0  2  0  0  0  0  0  0  0  0  0
    3.6788   -4.7300    0.0000 C   0  0  1  0  0  0  0  0  0  0  0  0
    3.6788   -5.5550    0.0000 C   0  0  1  0  0  0  0  0  0  0  0  0
    5.8222   -4.3175    0.0000 C   0  0  0  0  0  0  0  0  0  0  0  0
    5.8222   -3.4925    0.0000 O   0  0  0  0  0  0  0  0  0  0  0  0
    4.3933   -3.4925    0.0000 O   0  0  0  0  0  0  0  0  0  0  0  0
   12.9669   -8.4425    0.0000 O   0  0  0  0  0  0  0  0  0  0  0  0
    2.2499  -12.1550    0.0000 O   0  0  0  0  0  0  0  0  0  0  0  0
    2.9644   -4.3175    0.0000 O   0  0  0  0  0  0  0  0  0  0  0  0
    2.9644   -5.9675    0.0000 O   0  0  0  0  0  0  0  0  0  0  0  0
    2.2499  -10.5050    0.0000 C   0  0  0  0  0  0  0  0  0  0  0  0
    3.6788  -12.9800    0.0000 O   0  0  0  0  0  0  0  0  0  0  0  0
    5.1078  -12.1550    0.0000 O   0  0  0  0  0  0  0  0  0  0  0  0
  1  2  2  0  0  0  0
  2  3  1  0  0  0  0
  3  4  2  0  0  0  0
  4  5  1  0  0  0  0
  5  6  2  0  0  0  0
  6  1  1  0  0  0  0
  4  7  1  0  0  0  0
  7  8  1  0  0  0  0
  8  9  2  0  0  0  0
  9 10  1  0  0  0  0
 10  5  1  0  0  0  0
  9 11  1  0  0  0  0
 11 12  1  0  0  0  0
 11 13  2  0  0  0  0
 13 14  1  0  0  0  0
 14 15  2  0  0  0  0
 15 16  1  0  0  0  0
 16 12  2  0  0  0  0
  3 17  1  0  0  0  0
 18  7  2  0  0  0  0
 19  1  1  0  0  0  0
 20 19  1  1  0  0  0
 20 21  1  0  0  0  0
 20 22  1  0  0  0  0
 22 23  1  0  0  0  0
 23 24  1  0  0  0  0
 24 25  1  0  0  0  0
 25 21  1  0  0  0  0
 25 26  1  1  0  0  0
 27 28  1  0  0  0  0
 28 29  1  1  0  0  0
 21 29  1  6  0  0  0
 27 30  1  0  0  0  0
 30 31  1  0  0  0  0
 31 32  1  0  0  0  0
 32 33  1  0  0  0  0
 33 28  1  0  0  0  0
 23 34  1  1  0  0  0
 34 35  1  0  0  0  0
 24 36  1  6  0  0  0
 37 38  1  0  0  0  0
 38 35  1  1  0  0  0
 37 39  1  0  0  0  0
 39 40  1  0  0  0  0
 40 41  1  0  0  0  0
 41 42  1  0  0  0  0
 42 38  1  0  0  0  0
 39 43  1  1  0  0  0
 43 44  1  0  0  0  0
 40 45  1  6  0  0  0
 15 46  1  0  0  0  0
 31 47  1  1  0  0  0
 41 48  1  1  0  0  0
 42 49  1  6  0  0  0
 30 50  1  6  0  0  0
 32 51  1  6  0  0  0
 33 52  1  6  0  0  0
M  END
>  <cdx:fragmentId>
5

$$$$
