50049.cdx
  Mrv1902 05222410232D          

 52 57  0  0  0  0            999 V2000
    5.3949   -9.3913    0.0000 C   0  0  0  0  0  0  0  0  0  0  0  0
    5.3949  -10.2163    0.0000 C   0  0  0  0  0  0  0  0  0  0  0  0
    6.1094  -10.6288    0.0000 C   0  0  0  0  0  0  0  0  0  0  0  0
    6.8239  -10.2163    0.0000 C   0  0  0  0  0  0  0  0  0  0  0  0
    6.8239   -9.3913    0.0000 C   0  0  0  0  0  0  0  0  0  0  0  0
    6.1094   -8.9788    0.0000 C   0  0  0  0  0  0  0  0  0  0  0  0
    7.5383  -10.6288    0.0000 C   0  0  0  0  0  0  0  0  0  0  0  0
    8.2528  -10.2163    0.0000 C   0  0  0  0  0  0  0  0  0  0  0  0
    8.2528   -9.3913    0.0000 C   0  0  0  0  0  0  0  0  0  0  0  0
    7.5383   -8.9788    0.0000 O   0  0  0  0  0  0  0  0  0  0  0  0
    8.9673   -8.9788    0.0000 C   0  0  0  0  0  0  0  0  0  0  0  0
    8.9673   -8.1538    0.0000 C   0  0  0  0  0  0  0  0  0  0  0  0
    9.6818   -9.3913    0.0000 C   0  0  0  0  0  0  0  0  0  0  0  0
   10.3962   -8.9788    0.0000 C   0  0  0  0  0  0  0  0  0  0  0  0
   10.3962   -8.1538    0.0000 C   0  0  0  0  0  0  0  0  0  0  0  0
    9.6818   -7.7413    0.0000 C   0  0  0  0  0  0  0  0  0  0  0  0
    6.1094  -11.4537    0.0000 O   0  0  0  0  0  0  0  0  0  0  0  0
    7.5383  -11.4537    0.0000 O   0  0  0  0  0  0  0  0  0  0  0  0
    4.6805   -8.9788    0.0000 O   0  0  0  0  0  0  0  0  0  0  0  0
    4.6944   -8.1539    0.0000 C   0  0  1  0  0  0  0  0  0  0  0  0
    3.9869   -7.7294    0.0000 C   0  0  1  0  0  0  0  0  0  0  0  0
    5.4157   -7.7535    0.0000 O   0  0  0  0  0  0  0  0  0  0  0  0
    5.4296   -6.9286    0.0000 C   0  0  1  0  0  0  0  0  0  0  0  0
    4.7222   -6.5041    0.0000 C   0  0  2  0  0  0  0  0  0  0  0  0
    4.0008   -6.9045    0.0000 C   0  0  2  0  0  0  0  0  0  0  0  0
    3.2934   -6.4800    0.0000 O   0  0  0  0  0  0  0  0  0  0  0  0
    2.5587   -6.8880    0.0000 O   0  0  0  0  0  0  0  0  0  0  0  0
    2.5537   -7.7130    0.0000 C   0  0  1  0  0  0  0  0  0  0  0  0
    3.2656   -8.1298    0.0000 O   0  0  0  0  0  0  0  0  0  0  0  0
    1.8467   -6.4711    0.0000 C   0  0  2  0  0  0  0  0  0  0  0  0
    1.1298   -6.8793    0.0000 C   0  0  1  0  0  0  0  0  0  0  0  0
    1.1248   -7.7043    0.0000 C   0  0  2  0  0  0  0  0  0  0  0  0
    1.8367   -8.1211    0.0000 C   0  0  1  0  0  0  0  0  0  0  0  0
    6.1509   -6.5282    0.0000 C   0  0  0  0  0  0  0  0  0  0  0  0
    6.1648   -5.7033    0.0000 O   0  0  0  0  0  0  0  0  0  0  0  0
    4.7361   -5.6792    0.0000 O   0  0  0  0  0  0  0  0  0  0  0  0
   11.1107   -7.7413    0.0000 O   0  0  0  0  0  0  0  0  0  0  0  0
    0.4178   -6.4624    0.0000 O   0  0  0  0  0  0  0  0  0  0  0  0
    1.8517   -5.6461    0.0000 C   0  0  0  0  0  0  0  0  0  0  0  0
    0.4078   -8.1124    0.0000 O   0  0  0  0  0  0  0  0  0  0  0  0
    1.8317   -8.9461    0.0000 O   0  0  0  0  0  0  0  0  0  0  0  0
   12.5456   -9.3794    0.0000 C   0  0  2  0  0  0  0  0  0  0  0  0
   13.2563   -8.9604    0.0000 C   0  0  2  0  0  0  0  0  0  0  0  0
   13.2488   -8.1355    0.0000 C   0  0  1  0  0  0  0  0  0  0  0  0
   12.5307   -7.7294    0.0000 C   0  0  2  0  0  0  0  0  0  0  0  0
   11.8200   -8.1484    0.0000 C   0  0  1  0  0  0  0  0  0  0  0  0
   11.8274   -8.9734    0.0000 O   0  0  0  0  0  0  0  0  0  0  0  0
   12.5531  -10.2043    0.0000 C   0  0  0  0  0  0  0  0  0  0  0  0
   13.9596   -7.7165    0.0000 O   0  0  0  0  0  0  0  0  0  0  0  0
   12.5232   -6.9045    0.0000 O   0  0  0  0  0  0  0  0  0  0  0  0
   13.9745   -9.3665    0.0000 O   0  0  0  0  0  0  0  0  0  0  0  0
   13.2712  -10.6104    0.0000 O   0  0  0  0  0  0  0  0  0  0  0  0
  1  2  2  0  0  0  0
  2  3  1  0  0  0  0
  3  4  2  0  0  0  0
  4  5  1  0  0  0  0
  5  6  2  0  0  0  0
  6  1  1  0  0  0  0
  4  7  1  0  0  0  0
  7  8  1  0  0  0  0
  8  9  2  0  0  0  0
  9 10  1  0  0  0  0
 10  5  1  0  0  0  0
  9 11  1  0  0  0  0
 11 12  1  0  0  0  0
 11 13  2  0  0  0  0
 13 14  1  0  0  0  0
 14 15  2  0  0  0  0
 15 16  1  0  0  0  0
 16 12  2  0  0  0  0
  3 17  1  0  0  0  0
 18  7  2  0  0  0  0
 19  1  1  0  0  0  0
 20 19  1  1  0  0  0
 20 21  1  0  0  0  0
 20 22  1  0  0  0  0
 22 23  1  0  0  0  0
 23 24  1  0  0  0  0
 24 25  1  0  0  0  0
 25 21  1  0  0  0  0
 25 26  1  1  0  0  0
 27 28  1  0  0  0  0
 28 29  1  1  0  0  0
 21 29  1  6  0  0  0
 27 30  1  0  0  0  0
 30 31  1  0  0  0  0
 31 32  1  0  0  0  0
 32 33  1  0  0  0  0
 33 28  1  0  0  0  0
 23 34  1  1  0  0  0
 34 35  1  0  0  0  0
 24 36  1  6  0  0  0
 15 37  1  0  0  0  0
 31 38  1  1  0  0  0
 30 39  1  6  0  0  0
 32 40  1  6  0  0  0
 33 41  1  6  0  0  0
 42 43  1  0  0  0  0
 43 44  1  0  0  0  0
 44 45  1  0  0  0  0
 45 46  1  0  0  0  0
 46 47  1  0  0  0  0
 47 42  1  0  0  0  0
 42 48  1  1  0  0  0
 44 49  1  1  0  0  0
 45 50  1  6  0  0  0
 43 51  1  6  0  0  0
 48 52  1  0  0  0  0
 46 37  1  1  0  0  0
M  END
>  <cdx:fragmentId>
5

$$$$
