50046.cdx
  Mrv1902 05222410242D          

 33 37  0  0  0  0            999 V2000
    6.1573   -6.0915    0.0000 C   0  0  0  0  0  0  0  0  0  0  0  0
    5.7448   -6.8060    0.0000 C   0  0  0  0  0  0  0  0  0  0  0  0
    6.1573   -7.5205    0.0000 C   0  0  0  0  0  0  0  0  0  0  0  0
    6.9823   -7.5205    0.0000 C   0  0  0  0  0  0  0  0  0  0  0  0
    7.3948   -6.8060    0.0000 C   0  0  0  0  0  0  0  0  0  0  0  0
    6.9823   -6.0915    0.0000 C   0  0  0  0  0  0  0  0  0  0  0  0
    8.2198   -6.8060    0.0000 C   0  0  0  0  0  0  0  0  0  0  0  0
    8.6323   -6.0915    0.0000 C   0  0  0  0  0  0  0  0  0  0  0  0
    8.2198   -5.3770    0.0000 O   0  0  0  0  0  0  0  0  0  0  0  0
    7.3948   -5.3770    0.0000 C   0  0  0  0  0  0  0  0  0  0  0  0
    7.3948   -8.2349    0.0000 O   0  0  0  0  0  0  0  0  0  0  0  0
    8.2198   -8.2349    0.0000 C   0  0  0  0  0  0  0  0  0  0  0  0
    8.6323   -7.5205    0.0000 C   0  0  0  0  0  0  0  0  0  0  0  0
    9.4573   -7.5205    0.0000 C   0  0  0  0  0  0  0  0  0  0  0  0
    9.8698   -6.8060    0.0000 C   0  0  0  0  0  0  0  0  0  0  0  0
    9.4573   -6.0915    0.0000 C   0  0  0  0  0  0  0  0  0  0  0  0
    6.9823   -4.6626    0.0000 O   0  0  0  0  0  0  0  0  0  0  0  0
    4.9198   -6.8060    0.0000 O   0  0  0  0  0  0  0  0  0  0  0  0
    5.7448   -8.2349    0.0000 O   0  0  0  0  0  0  0  0  0  0  0  0
    8.6323   -8.9494    0.0000 O   0  0  0  0  0  0  0  0  0  0  0  0
   10.6948   -6.8060    0.0000 O   0  0  0  0  0  0  0  0  0  0  0  0
    9.8698   -5.3770    0.0000 O   0  0  0  0  0  0  0  0  0  0  0  0
    3.6006   -8.6487    0.0000 C   0  0  1  0  0  0  0  0  0  0  0  0
    3.6006   -9.4738    0.0000 C   0  0  1  0  0  0  0  0  0  0  0  0
    4.3150   -9.8863    0.0000 C   0  0  2  0  0  0  0  0  0  0  0  0
    5.0295   -9.4738    0.0000 C   0  0  2  0  0  0  0  0  0  0  0  0
    5.0295   -8.6487    0.0000 C   0  0  1  0  0  0  0  0  0  0  0  0
    4.3150   -8.2363    0.0000 O   0  0  0  0  0  0  0  0  0  0  0  0
    2.8861   -9.8863    0.0000 O   0  0  0  0  0  0  0  0  0  0  0  0
    2.8861   -8.2363    0.0000 C   0  0  0  0  0  0  0  0  0  0  0  0
    4.3150  -10.7112    0.0000 O   0  0  0  0  0  0  0  0  0  0  0  0
    5.7440   -9.8863    0.0000 O   0  0  0  0  0  0  0  0  0  0  0  0
   11.1073   -6.0915    0.0000 C   0  0  0  0  0  0  0  0  0  0  0  0
  1  2  2  0  0  0  0
  2  3  1  0  0  0  0
  3  4  2  0  0  0  0
  4  5  1  0  0  0  0
  5  6  2  0  0  0  0
  6  1  1  0  0  0  0
  5  7  1  0  0  0  0
  7  8  2  0  0  0  0
  8  9  1  0  0  0  0
  9 10  1  0  0  0  0
 10  6  1  0  0  0  0
  4 11  1  0  0  0  0
 11 12  1  0  0  0  0
 12 13  1  0  0  0  0
 13  7  1  0  0  0  0
 13 14  2  0  0  0  0
 14 15  1  0  0  0  0
 15 16  2  0  0  0  0
 16  8  1  0  0  0  0
 10 17  2  0  0  0  0
  2 18  1  0  0  0  0
  3 19  1  0  0  0  0
 12 20  2  0  0  0  0
 15 21  1  0  0  0  0
 16 22  1  0  0  0  0
 23 24  1  0  0  0  0
 24 25  1  0  0  0  0
 25 26  1  0  0  0  0
 26 27  1  0  0  0  0
 27 28  1  0  0  0  0
 28 23  1  0  0  0  0
 24 29  1  1  0  0  0
 23 30  1  6  0  0  0
 25 31  1  6  0  0  0
 26 32  1  6  0  0  0
 27 19  1  1  0  0  0
 21 33  1  0  0  0  0
M  END
>  <cdx:fragmentId>
5

$$$$
