50048.cdx
  Mrv1902 05222410222D          

 42 46  0  0  0  0            999 V2000
    3.5348   -6.3941    0.0000 O   0  0  0  0  0  0  0  0  0  0  0  0
    4.9620   -5.5660    0.0000 O   0  0  0  0  0  0  0  0  0  0  0  0
    6.3909   -5.5629    0.0000 O   0  0  0  0  0  0  0  0  0  0  0  0
    6.3927   -6.3879    0.0000 C   0  0  0  0  0  0  0  0  0  0  0  0
    2.1046   -8.8522    0.0000 O   0  0  0  0  0  0  0  0  0  0  0  0
    2.1046  -10.5022    0.0000 O   0  0  0  0  0  0  0  0  0  0  0  0
    3.5335  -11.3272    0.0000 O   0  0  0  0  0  0  0  0  0  0  0  0
    4.9625  -10.5022    0.0000 C   0  0  0  0  0  0  0  0  0  0  0  0
    4.2480  -10.0897    0.0000 C   0  0  1  0  0  0  0  0  0  0  0  0
    3.5335  -10.5022    0.0000 C   0  0  1  0  0  0  0  0  0  0  0  0
    2.8191  -10.0897    0.0000 C   0  0  2  0  0  0  0  0  0  0  0  0
    2.8191   -9.2647    0.0000 C   0  0  2  0  0  0  0  0  0  0  0  0
    3.5335   -8.8522    0.0000 C   0  0  1  0  0  0  0  0  0  0  0  0
    4.2480   -9.2647    0.0000 O   0  0  0  0  0  0  0  0  0  0  0  0
    5.6791   -6.8019    0.0000 C   0  0  2  0  0  0  0  0  0  0  0  0
    4.9638   -6.3910    0.0000 C   0  0  2  0  0  0  0  0  0  0  0  0
    4.2502   -6.8051    0.0000 C   0  0  1  0  0  0  0  0  0  0  0  0
    4.2520   -7.6301    0.0000 C   0  0  2  0  0  0  0  0  0  0  0  0
    4.9674   -8.0410    0.0000 C   0  0  1  0  0  0  0  0  0  0  0  0
    5.6810   -7.6269    0.0000 O   0  0  0  0  0  0  0  0  0  0  0  0
    4.9692   -8.8660    0.0000 O   0  0  0  0  0  0  0  0  0  0  0  0
   11.3994   -9.2785    0.0000 O   0  0  0  0  0  0  0  0  0  0  0  0
   11.3994   -7.6285    0.0000 O   0  0  0  0  0  0  0  0  0  0  0  0
    9.2560   -8.0410    0.0000 C   0  0  0  0  0  0  0  0  0  0  0  0
    9.9705   -7.6285    0.0000 C   0  0  0  0  0  0  0  0  0  0  0  0
   10.6850   -8.0410    0.0000 C   0  0  0  0  0  0  0  0  0  0  0  0
   10.6850   -8.8660    0.0000 C   0  0  0  0  0  0  0  0  0  0  0  0
    9.9705   -9.2785    0.0000 C   0  0  0  0  0  0  0  0  0  0  0  0
    9.2560   -8.8660    0.0000 C   0  0  0  0  0  0  0  0  0  0  0  0
    6.3981  -11.3410    0.0000 O   0  0  0  0  0  0  0  0  0  0  0  0
    7.8271  -11.3410    0.0000 O   0  0  0  0  0  0  0  0  0  0  0  0
    7.8271   -8.8660    0.0000 O   0  0  0  0  0  0  0  0  0  0  0  0
    7.1126   -9.2785    0.0000 C   0  0  0  0  0  0  0  0  0  0  0  0
    6.3981   -8.8660    0.0000 C   0  0  0  0  0  0  0  0  0  0  0  0
    5.6837   -9.2785    0.0000 C   0  0  0  0  0  0  0  0  0  0  0  0
    5.6837  -10.1035    0.0000 C   0  0  0  0  0  0  0  0  0  0  0  0
    6.3981  -10.5160    0.0000 C   0  0  0  0  0  0  0  0  0  0  0  0
    7.1126  -10.1035    0.0000 C   0  0  0  0  0  0  0  0  0  0  0  0
    7.8271  -10.5160    0.0000 C   0  0  0  0  0  0  0  0  0  0  0  0
    8.5416  -10.1035    0.0000 C   0  0  0  0  0  0  0  0  0  0  0  0
    8.5416   -9.2785    0.0000 C   0  0  0  0  0  0  0  0  0  0  0  0
    3.5385   -8.0441    0.0000 O   0  0  0  0  0  0  0  0  0  0  0  0
 35 21  1  0  0  0  0
 19 21  1  1  0  0  0
 17  1  1  1  0  0  0
 16  2  1  6  0  0  0
 15  4  1  1  0  0  0
  4  3  1  0  0  0  0
 12  5  1  1  0  0  0
 11  6  1  1  0  0  0
 10  7  1  6  0  0  0
  9  8  1  1  0  0  0
 14  9  1  0  0  0  0
 10  9  1  0  0  0  0
 11 10  1  0  0  0  0
 12 11  1  0  0  0  0
 13 12  1  0  0  0  0
 14 13  1  0  0  0  0
 20 15  1  0  0  0  0
 16 15  1  0  0  0  0
 17 16  1  0  0  0  0
 18 17  1  0  0  0  0
 19 18  1  0  0  0  0
 20 19  1  0  0  0  0
 41 29  1  0  0  0  0
 27 22  1  0  0  0  0
 26 23  1  0  0  0  0
 29 24  2  0  0  0  0
 25 24  1  0  0  0  0
 26 25  2  0  0  0  0
 27 26  1  0  0  0  0
 28 27  2  0  0  0  0
 29 28  1  0  0  0  0
 37 30  1  0  0  0  0
 39 31  2  0  0  0  0
 41 32  1  0  0  0  0
 33 32  1  0  0  0  0
 38 33  2  0  0  0  0
 34 33  1  0  0  0  0
 35 34  2  0  0  0  0
 36 35  1  0  0  0  0
 37 36  2  0  0  0  0
 38 37  1  0  0  0  0
 39 38  1  0  0  0  0
 40 39  1  0  0  0  0
 41 40  2  0  0  0  0
 18 42  1  6  0  0  0
 13 42  1  6  0  0  0
M  END
>  <cdx:fragmentId>
61

$$$$
