500448.cdx
  Mrv1902 05222410202D          

 66 73  0  0  0  0            999 V2000
    4.2682  -12.5616    0.0000 O   0  0  0  0  0  0  0  0  0  0  0  0
    2.8220  -12.5258    0.0000 O   0  0  0  0  0  0  0  0  0  0  0  0
    3.5346  -12.9415    0.0000 C   0  0  2  0  0  0  0  0  0  0  0  0
    3.5310  -13.7665    0.0000 C   0  0  1  0  0  0  0  0  0  0  0  0
    2.8147  -14.1758    0.0000 C   0  0  2  0  0  0  0  0  0  0  0  0
    2.1020  -13.7602    0.0000 C   0  0  1  0  0  0  0  0  0  0  0  0
    2.1057  -12.9352    0.0000 C   0  0  0  0  0  0  0  0  0  0  0  0
    4.2436  -14.1822    0.0000 O   0  0  0  0  0  0  0  0  0  0  0  0
    3.5237  -15.4165    0.0000 O   0  0  0  0  0  0  0  0  0  0  0  0
    4.2400  -15.0071    0.0000 C   0  0  2  0  0  0  0  0  0  0  0  0
    4.9526  -15.4228    0.0000 C   0  0  1  0  0  0  0  0  0  0  0  0
    4.9489  -16.2478    0.0000 C   0  0  1  0  0  0  0  0  0  0  0  0
    4.2326  -16.6571    0.0000 C   0  0  2  0  0  0  0  0  0  0  0  0
    3.5200  -16.2415    0.0000 C   0  0  2  0  0  0  0  0  0  0  0  0
    2.8037  -16.6508    0.0000 C   0  0  0  0  0  0  0  0  0  0  0  0
    4.2290  -17.4821    0.0000 O   0  0  0  0  0  0  0  0  0  0  0  0
    5.6616  -16.6635    0.0000 O   0  0  0  0  0  0  0  0  0  0  0  0
    5.6689  -15.0135    0.0000 O   0  0  0  0  0  0  0  0  0  0  0  0
    1.3857  -14.1695    0.0000 O   0  0  0  0  0  0  0  0  0  0  0  0
    2.8110  -15.0008    0.0000 O   0  0  0  0  0  0  0  0  0  0  0  0
    7.1228  -10.0809    0.0000 C   0  0  0  0  0  0  0  0  0  0  0  0
    6.4083  -10.4934    0.0000 C   0  0  0  0  0  0  0  0  0  0  0  0
    6.4083  -11.3184    0.0000 C   0  0  1  0  0  0  0  0  0  0  0  0
    7.1228  -11.7309    0.0000 C   0  0  0  0  0  0  0  0  0  0  0  0
    7.8373  -11.3184    0.0000 C   0  0  2  0  0  0  0  0  0  0  0  0
    8.5517  -11.7309    0.0000 C   0  0  0  0  0  0  0  0  0  0  0  0
    9.2662  -11.3184    0.0000 C   0  0  0  0  0  0  0  0  0  0  0  0
    9.2662  -10.4934    0.0000 C   0  0  1  0  0  0  0  0  0  0  0  0
    9.9807  -10.0809    0.0000 C   0  0  2  0  0  0  0  0  0  0  0  0
   10.6952  -10.4934    0.0000 C   0  0  0  0  0  0  0  0  0  0  0  0
   11.4096  -10.0809    0.0000 C   0  0  0  0  0  0  0  0  0  0  0  0
   11.4096   -9.2559    0.0000 C   0  0  1  0  0  0  0  0  0  0  0  0
   12.1241   -8.8434    0.0000 C   0  0  0  0  0  0  0  0  0  0  0  0
   12.1241   -8.0184    0.0000 C   0  0  0  0  0  0  0  0  0  0  0  0
   11.4096   -7.6059    0.0000 C   0  0  0  0  0  0  0  0  0  0  0  0
   10.6952   -8.0184    0.0000 C   0  0  0  0  0  0  0  0  0  0  0  0
   10.6952   -8.8434    0.0000 C   0  0  1  0  0  0  0  0  0  0  0  0
    9.9807   -9.2559    0.0000 C   0  0  0  0  0  0  0  0  0  0  0  0
    9.2662   -8.8434    0.0000 C   0  0  0  0  0  0  0  0  0  0  0  0
    8.5517   -9.2559    0.0000 C   0  0  0  0  0  0  0  0  0  0  0  0
    8.5517  -10.0809    0.0000 C   0  0  2  0  0  0  0  0  0  0  0  0
    7.8373  -10.4934    0.0000 C   0  0  1  0  0  0  0  0  0  0  0  0
   12.8386   -9.2559    0.0000 O   0  0  0  0  0  0  0  0  0  0  0  0
    7.8373   -9.6684    0.0000 C   0  0  0  0  0  0  0  0  0  0  0  0
   10.9971   -6.8915    0.0000 C   0  0  0  0  0  0  0  0  0  0  0  0
   11.8221   -6.8915    0.0000 C   0  0  0  0  0  0  0  0  0  0  0  0
   12.1241   -9.6684    0.0000 C   0  0  0  0  0  0  0  0  0  0  0  0
    9.9807  -10.9059    0.0000 C   0  0  0  0  0  0  0  0  0  0  0  0
    9.2662   -9.6684    0.0000 C   0  0  0  0  0  0  0  0  0  0  0  0
    7.5353  -12.4454    0.0000 C   0  0  0  0  0  0  0  0  0  0  0  0
    6.7103  -12.4454    0.0000 C   0  0  0  0  0  0  0  0  0  0  0  0
    7.8373  -12.1434    0.0000 H   0  0  0  0  0  0  0  0  0  0  0  0
   10.6952   -9.6684    0.0000 H   0  0  0  0  0  0  0  0  0  0  0  0
    8.5517  -10.9059    0.0000 H   0  0  0  0  0  0  0  0  0  0  0  0
    5.6939  -11.7309    0.0000 O   0  0  0  0  0  0  0  0  0  0  0  0
    2.8295  -10.0922    0.0000 O   0  0  0  0  0  0  0  0  0  0  0  0
    2.8360  -11.7422    0.0000 O   0  0  0  0  0  0  0  0  0  0  0  0
    3.5390   -8.8519    0.0000 O   0  0  0  0  0  0  0  0  0  0  0  0
    4.9680   -8.8463    0.0000 O   0  0  0  0  0  0  0  0  0  0  0  0
    4.2551   -9.2616    0.0000 C   0  0  0  0  0  0  0  0  0  0  0  0
    4.9778  -11.3213    0.0000 C   0  0  1  0  0  0  0  0  0  0  0  0
    4.2649  -11.7366    0.0000 C   0  0  1  0  0  0  0  0  0  0  0  0
    3.5488  -11.3269    0.0000 C   0  0  2  0  0  0  0  0  0  0  0  0
    3.5456  -10.5019    0.0000 C   0  0  1  0  0  0  0  0  0  0  0  0
    4.2584  -10.0866    0.0000 C   0  0  2  0  0  0  0  0  0  0  0  0
    4.9745  -10.4963    0.0000 O   0  0  0  0  0  0  0  0  0  0  0  0
 61 55  1  1  0  0  0
 62  1  1  6  0  0  0
  2  3  1  0  0  0  0
 64 56  1  6  0  0  0
 63 57  1  1  0  0  0
 65 60  1  1  0  0  0
 60 58  1  0  0  0  0
 60 59  2  0  0  0  0
 66 61  1  0  0  0  0
 62 61  1  0  0  0  0
 63 62  1  0  0  0  0
 64 63  1  0  0  0  0
 65 64  1  0  0  0  0
 66 65  1  0  0  0  0
  3  4  1  0  0  0  0
  4  5  1  0  0  0  0
  5  6  1  0  0  0  0
  6  7  1  0  0  0  0
  2  7  1  0  0  0  0
  9 10  1  0  0  0  0
 10 11  1  0  0  0  0
 11 12  1  0  0  0  0
 12 13  1  0  0  0  0
 13 14  1  0  0  0  0
  9 14  1  0  0  0  0
 14 15  1  6  0  0  0
 13 16  1  1  0  0  0
 12 17  1  6  0  0  0
 11 18  1  6  0  0  0
 10  8  1  1  0  0  0
  4  8  1  6  0  0  0
  6 19  1  6  0  0  0
  5 20  1  1  0  0  0
  3  1  1  1  0  0  0
 21 22  1  0  0  0  0
 22 23  1  0  0  0  0
 23 24  1  0  0  0  0
 24 25  1  0  0  0  0
 25 26  1  0  0  0  0
 26 27  1  0  0  0  0
 27 28  1  0  0  0  0
 28 29  1  0  0  0  0
 29 30  1  0  0  0  0
 30 31  1  0  0  0  0
 31 32  1  0  0  0  0
 32 33  1  0  0  0  0
 33 34  1  0  0  0  0
 34 35  1  0  0  0  0
 35 36  1  0  0  0  0
 36 37  1  0  0  0  0
 32 37  1  0  0  0  0
 37 38  1  0  0  0  0
 29 38  1  0  0  0  0
 38 39  2  0  0  0  0
 39 40  1  0  0  0  0
 40 41  1  0  0  0  0
 28 41  1  0  0  0  0
 41 42  1  0  0  0  0
 25 42  1  0  0  0  0
 21 42  1  0  0  0  0
 33 43  2  0  0  0  0
 42 44  1  1  0  0  0
 35 45  1  0  0  0  0
 35 46  1  0  0  0  0
 32 47  1  1  0  0  0
 29 48  1  6  0  0  0
 28 49  1  1  0  0  0
 24 50  1  0  0  0  0
 24 51  1  0  0  0  0
 23 55  1  1  0  0  0
 25 52  1  6  0  0  0
 37 53  1  1  0  0  0
 41 54  1  6  0  0  0
M  END
>  <cdx:groupId>
40299

>  <cdx:fragmentId>
40161

$$$$
