5004.cdx
  Mrv1902 05222410262D          

 20 22  0  0  0  0            999 V2000
    8.4084   -4.3664    0.0000 C   0  0  0  0  0  0  0  0  0  0  0  0
    9.1229   -4.7789    0.0000 C   0  0  0  0  0  0  0  0  0  0  0  0
    9.1229   -5.6039    0.0000 C   0  0  0  0  0  0  0  0  0  0  0  0
    8.4084   -6.0164    0.0000 C   0  0  0  0  0  0  0  0  0  0  0  0
    7.6939   -5.6039    0.0000 C   0  0  0  0  0  0  0  0  0  0  0  0
    6.9795   -6.0164    0.0000 C   0  0  0  0  0  0  0  0  0  0  0  0
    6.2650   -5.6039    0.0000 C   0  0  0  0  0  0  0  0  0  0  0  0
    5.5505   -6.0164    0.0000 C   0  0  0  0  0  0  0  0  0  0  0  0
    4.8361   -5.6039    0.0000 C   0  0  0  0  0  0  0  0  0  0  0  0
    4.8361   -4.7789    0.0000 C   0  0  0  0  0  0  0  0  0  0  0  0
    5.5505   -4.3664    0.0000 C   0  0  0  0  0  0  0  0  0  0  0  0
    6.2650   -4.7789    0.0000 C   0  0  0  0  0  0  0  0  0  0  0  0
    6.9795   -4.3664    0.0000 C   0  0  0  0  0  0  0  0  0  0  0  0
    7.6939   -4.7789    0.0000 C   0  0  0  0  0  0  0  0  0  0  0  0
    6.9795   -3.5414    0.0000 O   0  0  0  0  0  0  0  0  0  0  0  0
    6.9795   -6.8414    0.0000 O   0  0  0  0  0  0  0  0  0  0  0  0
    5.5505   -3.5414    0.0000 O   0  0  0  0  0  0  0  0  0  0  0  0
    5.5505   -6.8414    0.0000 O   0  0  0  0  0  0  0  0  0  0  0  0
    9.8373   -4.3664    0.0000 O   0  0  0  0  0  0  0  0  0  0  0  0
    8.4084   -3.5414    0.0000 O   0  0  0  0  0  0  0  0  0  0  0  0
  1  2  1  0  0  0  0
  2  3  2  0  0  0  0
  3  4  1  0  0  0  0
  4  5  2  0  0  0  0
  5  6  1  0  0  0  0
  6  7  1  0  0  0  0
  7  8  1  0  0  0  0
  8  9  2  0  0  0  0
  9 10  1  0  0  0  0
 10 11  2  0  0  0  0
 11 12  1  0  0  0  0
  7 12  2  0  0  0  0
 12 13  1  0  0  0  0
 13 14  1  0  0  0  0
  5 14  1  0  0  0  0
  1 14  2  0  0  0  0
 13 15  2  0  0  0  0
  6 16  2  0  0  0  0
 11 17  1  0  0  0  0
  8 18  1  0  0  0  0
  2 19  1  0  0  0  0
  1 20  1  0  0  0  0
M  END
>  <cdx:fragmentId>
5

$$$$
