500449.cdx
  Mrv1902 05222410202D          

 58 64  0  0  0  0            999 V2000
    7.2287   -8.4884    0.0000 C   0  0  0  0  0  0  0  0  0  0  0  0
    6.5185   -8.9083    0.0000 C   0  0  0  0  0  0  0  0  0  0  0  0
    6.5271   -9.7332    0.0000 C   0  0  1  0  0  0  0  0  0  0  0  0
    7.2458  -10.1383    0.0000 C   0  0  0  0  0  0  0  0  0  0  0  0
    7.9559   -9.7184    0.0000 C   0  0  2  0  0  0  0  0  0  0  0  0
    8.6746  -10.1235    0.0000 C   0  0  0  0  0  0  0  0  0  0  0  0
    9.3848   -9.7036    0.0000 C   0  0  0  0  0  0  0  0  0  0  0  0
    9.3763   -8.8787    0.0000 C   0  0  1  0  0  0  0  0  0  0  0  0
   10.0864   -8.4588    0.0000 C   0  0  2  0  0  0  0  0  0  0  0  0
   10.8051   -8.8639    0.0000 C   0  0  0  0  0  0  0  0  0  0  0  0
   11.5153   -8.4440    0.0000 C   0  0  0  0  0  0  0  0  0  0  0  0
   11.5067   -7.6191    0.0000 C   0  0  1  0  0  0  0  0  0  0  0  0
   12.2169   -7.1992    0.0000 C   0  0  1  0  0  0  0  0  0  0  0  0
   12.2084   -6.3743    0.0000 C   0  0  0  0  0  0  0  0  0  0  0  0
   11.4897   -5.9692    0.0000 C   0  0  0  0  0  0  0  0  0  0  0  0
   10.7795   -6.3890    0.0000 C   0  0  0  0  0  0  0  0  0  0  0  0
   10.7880   -7.2140    0.0000 C   0  0  1  0  0  0  0  0  0  0  0  0
   10.0779   -7.6339    0.0000 C   0  0  0  0  0  0  0  0  0  0  0  0
    9.3592   -7.2288    0.0000 C   0  0  0  0  0  0  0  0  0  0  0  0
    8.6490   -7.6486    0.0000 C   0  0  0  0  0  0  0  0  0  0  0  0
    8.6575   -8.4736    0.0000 C   0  0  2  0  0  0  0  0  0  0  0  0
    7.9474   -8.8935    0.0000 C   0  0  1  0  0  0  0  0  0  0  0  0
    7.9388   -8.0685    0.0000 C   0  0  0  0  0  0  0  0  0  0  0  0
   11.0698   -5.2590    0.0000 C   0  0  0  0  0  0  0  0  0  0  0  0
   11.8948   -5.2505    0.0000 C   0  0  0  0  0  0  0  0  0  0  0  0
   12.2254   -8.0242    0.0000 C   0  0  0  0  0  0  0  0  0  0  0  0
   10.0950   -9.2838    0.0000 C   0  0  0  0  0  0  0  0  0  0  0  0
    9.3763   -8.0537    0.0000 C   0  0  0  0  0  0  0  0  0  0  0  0
    7.6656  -10.8485    0.0000 C   0  0  0  0  0  0  0  0  0  0  0  0
    6.8407  -10.8570    0.0000 C   0  0  0  0  0  0  0  0  0  0  0  0
   12.9356   -7.6043    0.0000 O   0  0  0  0  0  0  0  0  0  0  0  0
    7.9645  -10.5434    0.0000 H   0  0  0  0  0  0  0  0  0  0  0  0
   10.0693   -6.8089    0.0000 H   0  0  0  0  0  0  0  0  0  0  0  0
    8.6661   -9.2986    0.0000 H   0  0  0  0  0  0  0  0  0  0  0  0
    5.8169  -10.1531    0.0000 O   0  0  0  0  0  0  0  0  0  0  0  0
    2.9421   -8.5327    0.0000 O   0  0  0  0  0  0  0  0  0  0  0  0
    2.9592  -10.1827    0.0000 O   0  0  0  0  0  0  0  0  0  0  0  0
    4.4136  -12.6427    0.0000 O   0  0  0  0  0  0  0  0  0  0  0  0
    2.9933  -13.4825    0.0000 O   0  0  0  0  0  0  0  0  0  0  0  0
    1.5559  -12.6723    0.0000 O   0  0  0  0  0  0  0  0  0  0  0  0
    0.8287  -11.4423    0.0000 O   0  0  0  0  0  0  0  0  0  0  0  0
    1.5388  -11.0224    0.0000 C   0  0  0  0  0  0  0  0  0  0  0  0
    2.2575  -11.4275    0.0000 C   0  0  2  0  0  0  0  0  0  0  0  0
    2.2661  -12.2524    0.0000 C   0  0  2  0  0  0  0  0  0  0  0  0
    2.9848  -12.6575    0.0000 C   0  0  1  0  0  0  0  0  0  0  0  0
    3.6949  -12.2377    0.0000 C   0  0  2  0  0  0  0  0  0  0  0  0
    3.6864  -11.4127    0.0000 C   0  0  1  0  0  0  0  0  0  0  0  0
    2.9677  -11.0076    0.0000 O   0  0  0  0  0  0  0  0  0  0  0  0
    4.3966  -10.9928    0.0000 O   0  0  0  0  0  0  0  0  0  0  0  0
    3.6437   -7.2879    0.0000 O   0  0  0  0  0  0  0  0  0  0  0  0
    5.0726   -7.2731    0.0000 O   0  0  0  0  0  0  0  0  0  0  0  0
    4.3624   -7.6930    0.0000 C   0  0  0  0  0  0  0  0  0  0  0  0
    5.0982   -9.7480    0.0000 C   0  0  1  0  0  0  0  0  0  0  0  0
    4.3880  -10.1679    0.0000 C   0  0  1  0  0  0  0  0  0  0  0  0
    3.6693   -9.7628    0.0000 C   0  0  2  0  0  0  0  0  0  0  0  0
    3.6608   -8.9378    0.0000 C   0  0  1  0  0  0  0  0  0  0  0  0
    4.3710   -8.5180    0.0000 C   0  0  2  0  0  0  0  0  0  0  0  0
    5.0897   -8.9230    0.0000 O   0  0  0  0  0  0  0  0  0  0  0  0
 53 35  1  1  0  0  0
 56 36  1  6  0  0  0
 55 37  1  1  0  0  0
 54 49  1  6  0  0  0
 47 49  1  1  0  0  0
 46 38  1  6  0  0  0
 45 39  1  1  0  0  0
 44 40  1  6  0  0  0
 43 42  1  1  0  0  0
 42 41  1  0  0  0  0
 48 43  1  0  0  0  0
 44 43  1  0  0  0  0
 45 44  1  0  0  0  0
 46 45  1  0  0  0  0
 47 46  1  0  0  0  0
 48 47  1  0  0  0  0
 57 52  1  1  0  0  0
 52 50  1  0  0  0  0
 52 51  2  0  0  0  0
 58 53  1  0  0  0  0
 54 53  1  0  0  0  0
 55 54  1  0  0  0  0
 56 55  1  0  0  0  0
 57 56  1  0  0  0  0
 58 57  1  0  0  0  0
  1  2  1  0  0  0  0
  2  3  1  0  0  0  0
  3  4  1  0  0  0  0
  4  5  1  0  0  0  0
  5  6  1  0  0  0  0
  6  7  1  0  0  0  0
  7  8  1  0  0  0  0
  8  9  1  0  0  0  0
  9 10  1  0  0  0  0
 10 11  1  0  0  0  0
 11 12  1  0  0  0  0
 12 13  1  0  0  0  0
 13 14  1  0  0  0  0
 14 15  1  0  0  0  0
 15 16  1  0  0  0  0
 16 17  1  0  0  0  0
 12 17  1  0  0  0  0
 17 18  1  0  0  0  0
  9 18  1  0  0  0  0
 18 19  2  0  0  0  0
 19 20  1  0  0  0  0
 20 21  1  0  0  0  0
  8 21  1  0  0  0  0
 21 22  1  0  0  0  0
  5 22  1  0  0  0  0
  1 22  1  0  0  0  0
 22 23  1  1  0  0  0
 15 24  1  0  0  0  0
 15 25  1  0  0  0  0
 12 26  1  1  0  0  0
  9 27  1  6  0  0  0
  8 28  1  1  0  0  0
  4 29  1  0  0  0  0
  4 30  1  0  0  0  0
 13 31  1  1  0  0  0
  3 35  1  1  0  0  0
  5 32  1  6  0  0  0
 17 33  1  1  0  0  0
 21 34  1  6  0  0  0
M  END
>  <cdx:fragmentId>
40363

$$$$
