500447.cdx
  Mrv1902 05222410262D          

 58 64  0  0  0  0            999 V2000
    7.5906   -9.7784    0.0000 C   0  0  0  0  0  0  0  0  0  0  0  0
    6.8761  -10.1909    0.0000 C   0  0  0  0  0  0  0  0  0  0  0  0
    6.8761  -11.0159    0.0000 C   0  0  1  0  0  0  0  0  0  0  0  0
    7.5906  -11.4284    0.0000 C   0  0  0  0  0  0  0  0  0  0  0  0
    8.3050  -11.0159    0.0000 C   0  0  2  0  0  0  0  0  0  0  0  0
    9.0195  -11.4284    0.0000 C   0  0  0  0  0  0  0  0  0  0  0  0
    9.7340  -11.0159    0.0000 C   0  0  0  0  0  0  0  0  0  0  0  0
    9.7340  -10.1909    0.0000 C   0  0  1  0  0  0  0  0  0  0  0  0
   10.4484   -9.7784    0.0000 C   0  0  2  0  0  0  0  0  0  0  0  0
   11.1629  -10.1909    0.0000 C   0  0  0  0  0  0  0  0  0  0  0  0
   11.8774   -9.7784    0.0000 C   0  0  0  0  0  0  0  0  0  0  0  0
   11.8774   -8.9534    0.0000 C   0  0  1  0  0  0  0  0  0  0  0  0
   12.5919   -8.5409    0.0000 C   0  0  0  0  0  0  0  0  0  0  0  0
   12.5919   -7.7159    0.0000 C   0  0  0  0  0  0  0  0  0  0  0  0
   11.8774   -7.3034    0.0000 C   0  0  0  0  0  0  0  0  0  0  0  0
   11.1629   -7.7159    0.0000 C   0  0  0  0  0  0  0  0  0  0  0  0
   11.1629   -8.5409    0.0000 C   0  0  1  0  0  0  0  0  0  0  0  0
   10.4484   -8.9534    0.0000 C   0  0  0  0  0  0  0  0  0  0  0  0
    9.7340   -8.5409    0.0000 C   0  0  0  0  0  0  0  0  0  0  0  0
    9.0195   -8.9534    0.0000 C   0  0  0  0  0  0  0  0  0  0  0  0
    9.0195   -9.7784    0.0000 C   0  0  2  0  0  0  0  0  0  0  0  0
    8.3050  -10.1909    0.0000 C   0  0  1  0  0  0  0  0  0  0  0  0
   13.3063   -8.9534    0.0000 O   0  0  0  0  0  0  0  0  0  0  0  0
    8.3050   -9.3659    0.0000 C   0  0  0  0  0  0  0  0  0  0  0  0
   11.4649   -6.5890    0.0000 C   0  0  0  0  0  0  0  0  0  0  0  0
   12.2899   -6.5890    0.0000 C   0  0  0  0  0  0  0  0  0  0  0  0
   12.5919   -9.3659    0.0000 C   0  0  0  0  0  0  0  0  0  0  0  0
   10.4484  -10.6034    0.0000 C   0  0  0  0  0  0  0  0  0  0  0  0
    9.7340   -9.3659    0.0000 C   0  0  0  0  0  0  0  0  0  0  0  0
    8.0031  -12.1429    0.0000 C   0  0  0  0  0  0  0  0  0  0  0  0
    7.1781  -12.1429    0.0000 C   0  0  0  0  0  0  0  0  0  0  0  0
    8.3050  -11.8409    0.0000 H   0  0  0  0  0  0  0  0  0  0  0  0
   11.1629   -9.3659    0.0000 H   0  0  0  0  0  0  0  0  0  0  0  0
    9.0195  -10.6034    0.0000 H   0  0  0  0  0  0  0  0  0  0  0  0
    6.1616  -11.4284    0.0000 O   0  0  0  0  0  0  0  0  0  0  0  0
    3.3253   -9.7417    0.0000 O   0  0  0  0  0  0  0  0  0  0  0  0
    3.3040  -11.3916    0.0000 O   0  0  0  0  0  0  0  0  0  0  0  0
    4.7009  -13.8848    0.0000 O   0  0  0  0  0  0  0  0  0  0  0  0
    3.2614  -14.6913    0.0000 O   0  0  0  0  0  0  0  0  0  0  0  0
    1.8432  -13.8479    0.0000 O   0  0  0  0  0  0  0  0  0  0  0  0
    1.1500  -12.6106    0.0000 O   0  0  0  0  0  0  0  0  0  0  0  0
    1.8645  -12.1981    0.0000 C   0  0  0  0  0  0  0  0  0  0  0  0
    2.5736  -12.6198    0.0000 C   0  0  2  0  0  0  0  0  0  0  0  0
    2.5630  -13.4447    0.0000 C   0  0  1  0  0  0  0  0  0  0  0  0
    3.2721  -13.8664    0.0000 C   0  0  1  0  0  0  0  0  0  0  0  0
    3.9918  -13.4631    0.0000 C   0  0  2  0  0  0  0  0  0  0  0  0
    4.0024  -12.6382    0.0000 C   0  0  1  0  0  0  0  0  0  0  0  0
    3.2933  -12.2165    0.0000 O   0  0  0  0  0  0  0  0  0  0  0  0
    4.7222  -12.2349    0.0000 O   0  0  0  0  0  0  0  0  0  0  0  0
    4.0556   -8.5135    0.0000 O   0  0  0  0  0  0  0  0  0  0  0  0
    5.4844   -8.5320    0.0000 O   0  0  0  0  0  0  0  0  0  0  0  0
    4.7647   -8.9352    0.0000 C   0  0  0  0  0  0  0  0  0  0  0  0
    5.4525  -11.0067    0.0000 C   0  0  1  0  0  0  0  0  0  0  0  0
    4.7328  -11.4100    0.0000 C   0  0  1  0  0  0  0  0  0  0  0  0
    4.0237  -10.9883    0.0000 C   0  0  2  0  0  0  0  0  0  0  0  0
    4.0343  -10.1634    0.0000 C   0  0  1  0  0  0  0  0  0  0  0  0
    4.7541   -9.7601    0.0000 C   0  0  2  0  0  0  0  0  0  0  0  0
    5.4632  -10.1818    0.0000 O   0  0  0  0  0  0  0  0  0  0  0  0
 53 35  1  1  0  0  0
 56 36  1  6  0  0  0
 55 37  1  1  0  0  0
 54 49  1  6  0  0  0
 47 49  1  1  0  0  0
 46 38  1  6  0  0  0
 45 39  1  1  0  0  0
 44 40  1  1  0  0  0
 43 42  1  1  0  0  0
 42 41  1  0  0  0  0
 48 43  1  0  0  0  0
 44 43  1  0  0  0  0
 45 44  1  0  0  0  0
 46 45  1  0  0  0  0
 47 46  1  0  0  0  0
 48 47  1  0  0  0  0
 57 52  1  1  0  0  0
 52 50  1  0  0  0  0
 52 51  2  0  0  0  0
 58 53  1  0  0  0  0
 54 53  1  0  0  0  0
 55 54  1  0  0  0  0
 56 55  1  0  0  0  0
 57 56  1  0  0  0  0
 58 57  1  0  0  0  0
  1  2  1  0  0  0  0
  2  3  1  0  0  0  0
  3  4  1  0  0  0  0
  4  5  1  0  0  0  0
  5  6  1  0  0  0  0
  6  7  1  0  0  0  0
  7  8  1  0  0  0  0
  8  9  1  0  0  0  0
  9 10  1  0  0  0  0
 10 11  1  0  0  0  0
 11 12  1  0  0  0  0
 12 13  1  0  0  0  0
 13 14  1  0  0  0  0
 14 15  1  0  0  0  0
 15 16  1  0  0  0  0
 16 17  1  0  0  0  0
 12 17  1  0  0  0  0
 17 18  1  0  0  0  0
  9 18  1  0  0  0  0
 18 19  2  0  0  0  0
 19 20  1  0  0  0  0
 20 21  1  0  0  0  0
  8 21  1  0  0  0  0
 21 22  1  0  0  0  0
  5 22  1  0  0  0  0
  1 22  1  0  0  0  0
 13 23  2  0  0  0  0
 22 24  1  1  0  0  0
 15 25  1  0  0  0  0
 15 26  1  0  0  0  0
 12 27  1  1  0  0  0
  9 28  1  6  0  0  0
  8 29  1  1  0  0  0
  4 30  1  0  0  0  0
  4 31  1  0  0  0  0
  3 35  1  1  0  0  0
  5 32  1  6  0  0  0
 17 33  1  1  0  0  0
 21 34  1  6  0  0  0
M  END
>  <cdx:groupId>
40082

>  <cdx:fragmentId>
39953

$$$$
