50050.cdx
  Mrv1902 05222410232D          

 42 46  0  0  0  0            999 V2000
    6.1570   -5.6416    0.0000 O   0  0  0  0  0  0  0  0  0  0  0  0
    4.7263   -6.4636    0.0000 O   0  0  0  0  0  0  0  0  0  0  0  0
    4.7229   -8.1136    0.0000 O   0  0  0  0  0  0  0  0  0  0  0  0
    7.5790  -11.4166    0.0000 O   0  0  0  0  0  0  0  0  0  0  0  0
   12.5803   -7.7041    0.0000 O   0  0  0  0  0  0  0  0  0  0  0  0
   10.4369   -8.1166    0.0000 C   0  0  0  0  0  0  0  0  0  0  0  0
   11.1514   -7.7041    0.0000 C   0  0  0  0  0  0  0  0  0  0  0  0
   11.8658   -8.1166    0.0000 C   0  0  0  0  0  0  0  0  0  0  0  0
   11.8658   -8.9416    0.0000 C   0  0  0  0  0  0  0  0  0  0  0  0
   11.1514   -9.3541    0.0000 C   0  0  0  0  0  0  0  0  0  0  0  0
   10.4369   -8.9416    0.0000 C   0  0  0  0  0  0  0  0  0  0  0  0
    9.0079  -11.4166    0.0000 O   0  0  0  0  0  0  0  0  0  0  0  0
    9.0079   -8.9416    0.0000 O   0  0  0  0  0  0  0  0  0  0  0  0
    8.2935   -9.3541    0.0000 C   0  0  0  0  0  0  0  0  0  0  0  0
    7.5790   -8.9416    0.0000 C   0  0  0  0  0  0  0  0  0  0  0  0
    6.8645   -9.3541    0.0000 C   0  0  0  0  0  0  0  0  0  0  0  0
    6.8645  -10.1791    0.0000 C   0  0  0  0  0  0  0  0  0  0  0  0
    7.5790  -10.5916    0.0000 C   0  0  0  0  0  0  0  0  0  0  0  0
    8.2935  -10.1791    0.0000 C   0  0  0  0  0  0  0  0  0  0  0  0
    9.0079  -10.5916    0.0000 C   0  0  0  0  0  0  0  0  0  0  0  0
    9.7224  -10.1791    0.0000 C   0  0  0  0  0  0  0  0  0  0  0  0
    9.7224   -9.3541    0.0000 C   0  0  0  0  0  0  0  0  0  0  0  0
    6.1501   -8.9416    0.0000 O   0  0  0  0  0  0  0  0  0  0  0  0
    7.5859   -5.6446    0.0000 O   0  0  0  0  0  0  0  0  0  0  0  0
    8.2978   -6.8836    0.0000 O   0  0  0  0  0  0  0  0  0  0  0  0
    7.5842   -6.4696    0.0000 C   0  0  0  0  0  0  0  0  0  0  0  0
    6.1518   -8.1166    0.0000 C   0  0  1  0  0  0  0  0  0  0  0  0
    5.4382   -7.7026    0.0000 C   0  0  1  0  0  0  0  0  0  0  0  0
    5.4399   -6.8776    0.0000 C   0  0  2  0  0  0  0  0  0  0  0  0
    6.1553   -6.4666    0.0000 C   0  0  1  0  0  0  0  0  0  0  0  0
    6.8689   -6.8806    0.0000 C   0  0  2  0  0  0  0  0  0  0  0  0
    6.8671   -7.7056    0.0000 O   0  0  0  0  0  0  0  0  0  0  0  0
    4.0093   -7.6996    0.0000 C   0  0  2  0  0  0  0  0  0  0  0  0
    4.0110   -6.8746    0.0000 O   0  0  0  0  0  0  0  0  0  0  0  0
    3.2974   -6.4606    0.0000 C   0  0  2  0  0  0  0  0  0  0  0  0
    2.5821   -6.8716    0.0000 C   0  0  1  0  0  0  0  0  0  0  0  0
    2.5803   -7.6966    0.0000 C   0  0  2  0  0  0  0  0  0  0  0  0
    3.2939   -8.1106    0.0000 C   0  0  1  0  0  0  0  0  0  0  0  0
    1.8685   -6.4576    0.0000 O   0  0  0  0  0  0  0  0  0  0  0  0
    3.2991   -5.6356    0.0000 C   0  0  0  0  0  0  0  0  0  0  0  0
    1.8650   -8.1076    0.0000 O   0  0  0  0  0  0  0  0  0  0  0  0
    3.2922   -8.9356    0.0000 O   0  0  0  0  0  0  0  0  0  0  0  0
 30  1  1  6  0  0  0
 29  2  1  1  0  0  0
 28  3  1  6  0  0  0
 27 23  1  1  0  0  0
 23 16  1  0  0  0  0
 18  4  1  0  0  0  0
 22 11  1  0  0  0  0
  8  5  1  0  0  0  0
 11  6  2  0  0  0  0
  7  6  1  0  0  0  0
  8  7  2  0  0  0  0
  9  8  1  0  0  0  0
 10  9  2  0  0  0  0
 11 10  1  0  0  0  0
 20 12  2  0  0  0  0
 22 13  1  0  0  0  0
 14 13  1  0  0  0  0
 19 14  2  0  0  0  0
 15 14  1  0  0  0  0
 16 15  2  0  0  0  0
 17 16  1  0  0  0  0
 18 17  2  0  0  0  0
 19 18  1  0  0  0  0
 20 19  1  0  0  0  0
 21 20  1  0  0  0  0
 22 21  2  0  0  0  0
 31 26  1  1  0  0  0
 26 24  1  0  0  0  0
 26 25  2  0  0  0  0
 32 27  1  0  0  0  0
 28 27  1  0  0  0  0
 29 28  1  0  0  0  0
 30 29  1  0  0  0  0
 31 30  1  0  0  0  0
 32 31  1  0  0  0  0
 33  3  1  1  0  0  0
 33 34  1  0  0  0  0
 34 35  1  0  0  0  0
 35 36  1  0  0  0  0
 36 37  1  0  0  0  0
 37 38  1  0  0  0  0
 38 33  1  0  0  0  0
 36 39  1  1  0  0  0
 35 40  1  6  0  0  0
 37 41  1  6  0  0  0
 38 42  1  6  0  0  0
M  END
>  <cdx:fragmentId>
25

$$$$
