50057.cdx
  Mrv1902 05222410252D          

 19 22  0  0  0  0            999 V2000
    4.6662   -9.1438    0.0000 C   0  0  0  0  0  0  0  0  0  0  0  0
    4.6662   -9.9688    0.0000 C   0  0  2  0  0  0  0  0  0  0  0  0
    5.3806  -10.3812    0.0000 C   0  0  0  0  0  0  0  0  0  0  0  0
    6.0951   -9.9688    0.0000 C   0  0  0  0  0  0  0  0  0  0  0  0
    6.0951   -9.1438    0.0000 C   0  0  2  0  0  0  0  0  0  0  0  0
    5.3806   -8.7313    0.0000 C   0  0  2  0  0  0  0  0  0  0  0  0
    6.8096  -10.3812    0.0000 C   0  0  0  0  0  0  0  0  0  0  0  0
    7.5241   -9.9688    0.0000 C   0  0  0  0  0  0  0  0  0  0  0  0
    7.5241   -9.1438    0.0000 C   0  0  2  0  0  0  0  0  0  0  0  0
    6.8096   -8.7313    0.0000 C   0  0  1  0  0  0  0  0  0  0  0  0
    8.3087  -10.2237    0.0000 C   0  0  0  0  0  0  0  0  0  0  0  0
    8.7936   -9.5563    0.0000 C   0  0  0  0  0  0  0  0  0  0  0  0
    8.3087   -8.8888    0.0000 O   0  0  0  0  0  0  0  0  0  0  0  0
    5.3806  -11.2062    0.0000 C   0  0  0  0  0  0  0  0  0  0  0  0
    8.5636  -11.0083    0.0000 C   0  0  0  0  0  0  0  0  0  0  0  0
    9.6186   -9.5563    0.0000 O   0  0  0  0  0  0  0  0  0  0  0  0
    6.0951   -8.3187    0.0000 C   0  0  0  0  0  0  0  0  0  0  0  0
    7.5241   -8.3187    0.0000 O   0  0  0  0  0  0  0  0  0  0  0  0
    6.8096   -7.9063    0.0000 O   0  0  0  0  0  0  0  0  0  0  0  0
  2  1  1  1  0  0  0
  2  3  1  0  0  0  0
  3  4  2  0  0  0  0
  4  5  1  0  0  0  0
  5  6  1  0  0  0  0
  6  1  1  1  0  0  0
  4  7  1  0  0  0  0
  7  8  1  0  0  0  0
  8  9  1  0  0  0  0
  9 10  1  0  0  0  0
 10  5  1  0  0  0  0
  8 11  2  0  0  0  0
 11 12  1  0  0  0  0
 12 13  1  0  0  0  0
  9 13  1  6  0  0  0
  3 14  1  0  0  0  0
 11 15  1  0  0  0  0
 12 16  2  0  0  0  0
  2  6  1  0  0  0  0
  5 17  1  1  0  0  0
  9 18  1  1  0  0  0
 10 19  1  6  0  0  0
M  END
>  <cdx:fragmentId>
5

$$$$
