50053.cdx
  Mrv1902 05222410242D          

 41 45  0  0  0  0            999 V2000
    7.9387   -9.5700    0.0000 C   0  0  0  0  0  0  0  0  0  0  0  0
    7.9387  -10.3950    0.0000 C   0  0  0  0  0  0  0  0  0  0  0  0
    8.6531  -10.8075    0.0000 C   0  0  0  0  0  0  0  0  0  0  0  0
    9.3676  -10.3950    0.0000 C   0  0  0  0  0  0  0  0  0  0  0  0
    9.3676   -9.5700    0.0000 C   0  0  0  0  0  0  0  0  0  0  0  0
    8.6531   -9.1575    0.0000 C   0  0  0  0  0  0  0  0  0  0  0  0
   10.0821  -10.8075    0.0000 C   0  0  0  0  0  0  0  0  0  0  0  0
   10.7966  -10.3950    0.0000 C   0  0  0  0  0  0  0  0  0  0  0  0
   10.7966   -9.5700    0.0000 C   0  0  0  0  0  0  0  0  0  0  0  0
   10.0821   -9.1575    0.0000 O   0  0  0  0  0  0  0  0  0  0  0  0
   11.5110   -9.1575    0.0000 C   0  0  0  0  0  0  0  0  0  0  0  0
   11.5110   -8.3325    0.0000 C   0  0  0  0  0  0  0  0  0  0  0  0
   12.2255   -9.5700    0.0000 C   0  0  0  0  0  0  0  0  0  0  0  0
   12.9400   -9.1575    0.0000 C   0  0  0  0  0  0  0  0  0  0  0  0
   12.9400   -8.3325    0.0000 C   0  0  0  0  0  0  0  0  0  0  0  0
   12.2255   -7.9200    0.0000 C   0  0  0  0  0  0  0  0  0  0  0  0
    8.6531  -11.6325    0.0000 O   0  0  0  0  0  0  0  0  0  0  0  0
   10.0821  -11.6325    0.0000 O   0  0  0  0  0  0  0  0  0  0  0  0
    7.2242   -9.1575    0.0000 O   0  0  0  0  0  0  0  0  0  0  0  0
    6.5052   -9.5621    0.0000 C   0  0  1  0  0  0  0  0  0  0  0  0
    6.4961  -10.3870    0.0000 C   0  0  1  0  0  0  0  0  0  0  0  0
    5.7954   -9.1417    0.0000 O   0  0  0  0  0  0  0  0  0  0  0  0
    5.0764   -9.5462    0.0000 C   0  0  1  0  0  0  0  0  0  0  0  0
    5.0672  -10.3712    0.0000 C   0  0  2  0  0  0  0  0  0  0  0  0
    5.7771  -10.7916    0.0000 C   0  0  2  0  0  0  0  0  0  0  0  0
    5.7680  -11.6165    0.0000 O   0  0  0  0  0  0  0  0  0  0  0  0
    7.2059  -10.8074    0.0000 O   0  0  0  0  0  0  0  0  0  0  0  0
    4.3665   -9.1259    0.0000 C   0  0  0  0  0  0  0  0  0  0  0  0
    3.6475   -9.5304    0.0000 O   0  0  0  0  0  0  0  0  0  0  0  0
    4.3482  -10.7758    0.0000 O   0  0  0  0  0  0  0  0  0  0  0  0
   13.6544   -7.9200    0.0000 O   0  0  0  0  0  0  0  0  0  0  0  0
    2.2067   -7.8764    0.0000 C   0  0  1  0  0  0  0  0  0  0  0  0
    1.4905   -8.2859    0.0000 C   0  0  1  0  0  0  0  0  0  0  0  0
    1.4870   -9.1109    0.0000 C   0  0  2  0  0  0  0  0  0  0  0  0
    2.1998   -9.5264    0.0000 C   0  0  2  0  0  0  0  0  0  0  0  0
    2.9160   -9.1169    0.0000 C   0  0  1  0  0  0  0  0  0  0  0  0
    2.9194   -8.2919    0.0000 O   0  0  0  0  0  0  0  0  0  0  0  0
    0.7778   -7.8704    0.0000 O   0  0  0  0  0  0  0  0  0  0  0  0
    2.2102   -7.0514    0.0000 C   0  0  0  0  0  0  0  0  0  0  0  0
    0.7708   -9.5204    0.0000 O   0  0  0  0  0  0  0  0  0  0  0  0
    2.1963  -10.3514    0.0000 O   0  0  0  0  0  0  0  0  0  0  0  0
  1  2  2  0  0  0  0
  2  3  1  0  0  0  0
  3  4  2  0  0  0  0
  4  5  1  0  0  0  0
  5  6  2  0  0  0  0
  6  1  1  0  0  0  0
  4  7  1  0  0  0  0
  7  8  1  0  0  0  0
  8  9  2  0  0  0  0
  9 10  1  0  0  0  0
 10  5  1  0  0  0  0
  9 11  1  0  0  0  0
 11 12  1  0  0  0  0
 11 13  2  0  0  0  0
 13 14  1  0  0  0  0
 14 15  2  0  0  0  0
 15 16  1  0  0  0  0
 16 12  2  0  0  0  0
  3 17  1  0  0  0  0
 18  7  2  0  0  0  0
 19  1  1  0  0  0  0
 20 19  1  1  0  0  0
 20 21  1  0  0  0  0
 20 22  1  0  0  0  0
 22 23  1  0  0  0  0
 23 24  1  0  0  0  0
 24 25  1  0  0  0  0
 25 21  1  0  0  0  0
 25 26  1  1  0  0  0
 21 27  1  6  0  0  0
 23 28  1  1  0  0  0
 28 29  1  0  0  0  0
 24 30  1  6  0  0  0
 15 31  1  0  0  0  0
 32 33  1  0  0  0  0
 33 34  1  0  0  0  0
 34 35  1  0  0  0  0
 35 36  1  0  0  0  0
 36 37  1  0  0  0  0
 37 32  1  0  0  0  0
 33 38  1  1  0  0  0
 32 39  1  6  0  0  0
 34 40  1  6  0  0  0
 35 41  1  6  0  0  0
 36 29  1  1  0  0  0
M  END
>  <cdx:fragmentId>
5

$$$$
