50051.cdx
  Mrv1902 05222410232D          

 31 34  0  0  0  0            999 V2000
    6.2199   -8.8688    0.0000 C   0  0  0  0  0  0  0  0  0  0  0  0
    6.2199   -9.6937    0.0000 C   0  0  0  0  0  0  0  0  0  0  0  0
    6.9344  -10.1063    0.0000 C   0  0  0  0  0  0  0  0  0  0  0  0
    7.6489   -9.6937    0.0000 C   0  0  0  0  0  0  0  0  0  0  0  0
    7.6489   -8.8688    0.0000 C   0  0  0  0  0  0  0  0  0  0  0  0
    6.9344   -8.4563    0.0000 C   0  0  0  0  0  0  0  0  0  0  0  0
    8.3633  -10.1063    0.0000 C   0  0  0  0  0  0  0  0  0  0  0  0
    9.0778   -9.6937    0.0000 C   0  0  0  0  0  0  0  0  0  0  0  0
    9.0778   -8.8688    0.0000 C   0  0  0  0  0  0  0  0  0  0  0  0
    8.3633   -8.4563    0.0000 O   0  0  0  0  0  0  0  0  0  0  0  0
    9.7923   -8.4563    0.0000 C   0  0  0  0  0  0  0  0  0  0  0  0
    9.7923   -7.6313    0.0000 C   0  0  0  0  0  0  0  0  0  0  0  0
   10.5068   -8.8688    0.0000 C   0  0  0  0  0  0  0  0  0  0  0  0
   11.2212   -8.4563    0.0000 C   0  0  0  0  0  0  0  0  0  0  0  0
   11.2212   -7.6313    0.0000 C   0  0  0  0  0  0  0  0  0  0  0  0
   10.5068   -7.2188    0.0000 C   0  0  0  0  0  0  0  0  0  0  0  0
    6.9344  -10.9313    0.0000 O   0  0  0  0  0  0  0  0  0  0  0  0
    8.3633  -10.9313    0.0000 O   0  0  0  0  0  0  0  0  0  0  0  0
    5.5055   -8.4563    0.0000 O   0  0  0  0  0  0  0  0  0  0  0  0
    4.7918   -8.8702    0.0000 C   0  0  1  0  0  0  0  0  0  0  0  0
    4.7935   -9.6952    0.0000 C   0  0  1  0  0  0  0  0  0  0  0  0
    4.0765   -8.4591    0.0000 O   0  0  0  0  0  0  0  0  0  0  0  0
    3.3629   -8.8731    0.0000 C   0  0  1  0  0  0  0  0  0  0  0  0
    3.3645   -9.6980    0.0000 C   0  0  1  0  0  0  0  0  0  0  0  0
    4.0798  -10.1091    0.0000 C   0  0  2  0  0  0  0  0  0  0  0  0
    4.0815  -10.9341    0.0000 O   0  0  0  0  0  0  0  0  0  0  0  0
    5.5088  -10.1062    0.0000 O   0  0  0  0  0  0  0  0  0  0  0  0
    2.6476   -8.4620    0.0000 C   0  0  0  0  0  0  0  0  0  0  0  0
    1.9339   -8.8759    0.0000 O   0  0  0  0  0  0  0  0  0  0  0  0
    2.6509  -10.1120    0.0000 O   0  0  0  0  0  0  0  0  0  0  0  0
   11.9357   -7.2188    0.0000 O   0  0  0  0  0  0  0  0  0  0  0  0
  1  2  2  0  0  0  0
  2  3  1  0  0  0  0
  3  4  2  0  0  0  0
  4  5  1  0  0  0  0
  5  6  2  0  0  0  0
  6  1  1  0  0  0  0
  4  7  1  0  0  0  0
  7  8  1  0  0  0  0
  8  9  2  0  0  0  0
  9 10  1  0  0  0  0
 10  5  1  0  0  0  0
  9 11  1  0  0  0  0
 11 12  1  0  0  0  0
 11 13  2  0  0  0  0
 13 14  1  0  0  0  0
 14 15  2  0  0  0  0
 15 16  1  0  0  0  0
 16 12  2  0  0  0  0
  3 17  1  0  0  0  0
 18  7  2  0  0  0  0
 19  1  1  0  0  0  0
 20 19  1  1  0  0  0
 20 21  1  0  0  0  0
 20 22  1  0  0  0  0
 22 23  1  0  0  0  0
 23 24  1  0  0  0  0
 24 25  1  0  0  0  0
 25 21  1  0  0  0  0
 25 26  1  1  0  0  0
 21 27  1  6  0  0  0
 23 28  1  1  0  0  0
 28 29  1  0  0  0  0
 24 30  1  1  0  0  0
 15 31  1  0  0  0  0
M  END
>  <cdx:fragmentId>
5

$$$$
