50056.cdx
  Mrv1902 05222410242D          

 41 45  0  0  0  0            999 V2000
    4.7470  -11.1925    0.0000 C   0  0  0  0  0  0  0  0  0  0  0  0
    4.7470  -12.0175    0.0000 C   0  0  0  0  0  0  0  0  0  0  0  0
    5.4615  -12.4300    0.0000 C   0  0  0  0  0  0  0  0  0  0  0  0
    6.1760  -12.0175    0.0000 C   0  0  0  0  0  0  0  0  0  0  0  0
    6.1760  -11.1925    0.0000 C   0  0  0  0  0  0  0  0  0  0  0  0
    5.4615  -10.7800    0.0000 C   0  0  0  0  0  0  0  0  0  0  0  0
    6.8904  -12.4300    0.0000 C   0  0  0  0  0  0  0  0  0  0  0  0
    7.6049  -12.0175    0.0000 C   0  0  0  0  0  0  0  0  0  0  0  0
    7.6049  -11.1925    0.0000 C   0  0  0  0  0  0  0  0  0  0  0  0
    6.8904  -10.7800    0.0000 O   0  0  0  0  0  0  0  0  0  0  0  0
    8.3194  -10.7800    0.0000 C   0  0  0  0  0  0  0  0  0  0  0  0
    8.3194   -9.9550    0.0000 C   0  0  0  0  0  0  0  0  0  0  0  0
    9.0339  -11.1925    0.0000 C   0  0  0  0  0  0  0  0  0  0  0  0
    9.7483  -10.7800    0.0000 C   0  0  0  0  0  0  0  0  0  0  0  0
    9.7483   -9.9550    0.0000 C   0  0  0  0  0  0  0  0  0  0  0  0
    9.0339   -9.5425    0.0000 C   0  0  0  0  0  0  0  0  0  0  0  0
   10.4628   -9.5425    0.0000 O   0  0  0  0  0  0  0  0  0  0  0  0
    6.8904  -13.2550    0.0000 O   0  0  0  0  0  0  0  0  0  0  0  0
    4.0326  -10.7800    0.0000 O   0  0  0  0  0  0  0  0  0  0  0  0
    5.4615  -13.2550    0.0000 O   0  0  0  0  0  0  0  0  0  0  0  0
    8.7812   -5.5534    0.0000 C   0  0  0  0  0  0  0  0  0  0  0  0
    8.2274   -4.9419    0.0000 C   0  0  2  0  0  0  0  0  0  0  0  0
    7.4747   -5.2797    0.0000 C   0  0  2  0  0  0  0  0  0  0  0  0
    7.5633   -6.0999    0.0000 C   0  0  0  0  0  0  0  0  0  0  0  0
    8.3708   -6.2690    0.0000 O   0  0  0  0  0  0  0  0  0  0  0  0
    6.9518   -6.6537    0.0000 O   0  0  0  0  0  0  0  0  0  0  0  0
    8.2682   -4.1179    0.0000 O   0  0  0  0  0  0  0  0  0  0  0  0
    9.0339   -4.7680    0.0000 C   0  0  0  0  0  0  0  0  0  0  0  0
    9.5877   -5.3795    0.0000 O   0  0  0  0  0  0  0  0  0  0  0  0
    6.7590   -4.8692    0.0000 O   0  0  0  0  0  0  0  0  0  0  0  0
    6.2196   -7.8910    0.0000 C   0  0  2  0  0  0  0  0  0  0  0  0
    5.5103   -7.4696    0.0000 C   0  0  2  0  0  0  0  0  0  0  0  0
    4.7907   -7.8731    0.0000 C   0  0  1  0  0  0  0  0  0  0  0  0
    4.7804   -8.6981    0.0000 C   0  0  2  0  0  0  0  0  0  0  0  0
    5.4897   -9.1195    0.0000 C   0  0  1  0  0  0  0  0  0  0  0  0
    6.2092   -8.7159    0.0000 O   0  0  0  0  0  0  0  0  0  0  0  0
    6.9391   -7.4875    0.0000 C   0  0  0  0  0  0  0  0  0  0  0  0
    5.4793   -9.9444    0.0000 O   0  0  0  0  0  0  0  0  0  0  0  0
    4.0815   -7.4517    0.0000 O   0  0  0  0  0  0  0  0  0  0  0  0
    5.5206   -6.6447    0.0000 O   0  0  0  0  0  0  0  0  0  0  0  0
    4.0608   -9.1016    0.0000 O   0  0  0  0  0  0  0  0  0  0  0  0
  1  2  2  0  0  0  0
  2  3  1  0  0  0  0
  3  4  2  0  0  0  0
  4  5  1  0  0  0  0
  5  6  2  0  0  0  0
  6  1  1  0  0  0  0
  4  7  1  0  0  0  0
  7  8  1  0  0  0  0
  8  9  1  0  0  0  0
  9 10  1  0  0  0  0
 10  5  1  0  0  0  0
  9 11  1  0  0  0  0
 11 12  1  0  0  0  0
 11 13  2  0  0  0  0
 13 14  1  0  0  0  0
 14 15  2  0  0  0  0
 15 16  1  0  0  0  0
 16 12  2  0  0  0  0
 15 17  1  0  0  0  0
  7 18  2  0  0  0  0
  1 19  1  0  0  0  0
  3 20  1  0  0  0  0
 21 22  1  0  0  0  0
 22 23  1  0  0  0  0
 23 24  1  0  0  0  0
 24 25  1  0  0  0  0
 25 21  1  0  0  0  0
 24 26  1  0  0  0  0
 22 27  1  0  0  0  0
 22 28  1  1  0  0  0
 28 29  1  0  0  0  0
 23 30  1  6  0  0  0
 31 32  1  0  0  0  0
 32 33  1  0  0  0  0
 33 34  1  0  0  0  0
 34 35  1  0  0  0  0
 35 36  1  0  0  0  0
 36 31  1  0  0  0  0
 31 37  1  1  0  0  0
 35 38  1  1  0  0  0
 33 39  1  1  0  0  0
 32 40  1  6  0  0  0
 34 41  1  6  0  0  0
 37 26  1  0  0  0  0
  6 38  1  0  0  0  0
M  END
>  <cdx:fragmentId>
254

$$$$
