50061.cdx
  Mrv1902 05222410232D          

 21 23  0  0  0  0            999 V2000
    3.9501   -5.5939    0.0000 O   0  0  0  0  0  0  0  0  0  0  0  0
    5.4175   -8.0463    0.0000 O   0  0  0  0  0  0  0  0  0  0  0  0
    8.2621   -7.1767    0.0000 C   0  0  0  0  0  0  0  0  0  0  0  0
    6.8463   -8.0240    0.0000 O   0  0  0  0  0  0  0  0  0  0  0  0
    6.8334   -7.1991    0.0000 C   0  0  0  0  0  0  0  0  0  0  0  0
    7.5413   -6.7755    0.0000 C   0  0  1  0  0  0  0  0  0  0  0  0
    7.5284   -5.9506    0.0000 C   0  0  0  0  0  0  0  0  0  0  0  0
    6.8076   -5.5493    0.0000 O   0  0  0  0  0  0  0  0  0  0  0  0
    5.4046   -7.2214    0.0000 C   0  0  0  0  0  0  0  0  0  0  0  0
    6.1125   -6.7978    0.0000 C   0  0  0  0  0  0  0  0  0  0  0  0
    6.0997   -5.9729    0.0000 C   0  0  0  0  0  0  0  0  0  0  0  0
    5.3788   -5.5716    0.0000 C   0  0  0  0  0  0  0  0  0  0  0  0
    4.6709   -5.9952    0.0000 C   0  0  0  0  0  0  0  0  0  0  0  0
    4.6838   -6.8201    0.0000 C   0  0  0  0  0  0  0  0  0  0  0  0
    8.9701   -6.7531    0.0000 C   0  0  0  0  0  0  0  0  0  0  0  0
    9.6971   -7.1431    0.0000 C   0  0  0  0  0  0  0  0  0  0  0  0
   10.3983   -6.7085    0.0000 C   0  0  0  0  0  0  0  0  0  0  0  0
   10.3983   -5.8839    0.0000 C   0  0  0  0  0  0  0  0  0  0  0  0
    9.6971   -5.4939    0.0000 C   0  0  0  0  0  0  0  0  0  0  0  0
    8.9701   -5.9285    0.0000 C   0  0  0  0  0  0  0  0  0  0  0  0
   11.1095   -5.4657    0.0000 O   0  0  0  0  0  0  0  0  0  0  0  0
 13  1  1  0  0  0  0
  9  2  1  0  0  0  0
  6  3  1  1  0  0  0
  5  4  2  0  0  0  0
  5 10  1  0  0  0  0
  6  5  1  0  0  0  0
  7  6  1  0  0  0  0
  8  7  1  0  0  0  0
 11  8  1  0  0  0  0
  9 14  1  0  0  0  0
 10  9  2  0  0  0  0
 11 10  1  0  0  0  0
 12 11  2  0  0  0  0
 13 12  1  0  0  0  0
 14 13  2  0  0  0  0
  3 15  1  0  0  0  0
 15 16  2  0  0  0  0
 16 17  1  0  0  0  0
 17 18  2  0  0  0  0
 18 19  1  0  0  0  0
 19 20  2  0  0  0  0
 20 15  1  0  0  0  0
 18 21  1  0  0  0  0
M  END
>  <cdx:fragmentId>
5

$$$$
