50067.cdx
  Mrv1902 05222410212D          

 29 31  0  0  0  0            999 V2000
    7.5331  -10.4214    0.0000 C   0  0  0  0  0  0  0  0  0  0  0  0
    7.5331  -11.2464    0.0000 C   0  0  0  0  0  0  0  0  0  0  0  0
    8.2475  -11.6589    0.0000 C   0  0  0  0  0  0  0  0  0  0  0  0
    8.9620  -11.2464    0.0000 C   0  0  0  0  0  0  0  0  0  0  0  0
    8.9620  -10.4214    0.0000 C   0  0  0  0  0  0  0  0  0  0  0  0
    8.2475  -10.0089    0.0000 C   0  0  0  0  0  0  0  0  0  0  0  0
    6.8186  -11.6589    0.0000 O   0  0  0  0  0  0  0  0  0  0  0  0
    9.6765  -11.6589    0.0000 O   0  0  0  0  0  0  0  0  0  0  0  0
    8.2475   -9.1839    0.0000 C   0  0  0  0  0  0  0  0  0  0  0  0
    8.9620   -8.7714    0.0000 C   0  0  0  0  0  0  0  0  0  0  0  0
    7.5331   -8.7714    0.0000 H   0  0  0  0  0  0  0  0  0  0  0  0
    9.6765   -9.1839    0.0000 H   0  0  0  0  0  0  0  0  0  0  0  0
    8.9620   -7.9464    0.0000 C   0  0  0  0  0  0  0  0  0  0  0  0
    9.6765   -7.5339    0.0000 C   0  0  0  0  0  0  0  0  0  0  0  0
    9.6765   -6.7089    0.0000 C   0  0  0  0  0  0  0  0  0  0  0  0
    8.9620   -6.2964    0.0000 C   0  0  0  0  0  0  0  0  0  0  0  0
    8.2475   -6.7089    0.0000 C   0  0  0  0  0  0  0  0  0  0  0  0
    8.2475   -7.5339    0.0000 C   0  0  0  0  0  0  0  0  0  0  0  0
    5.4045   -9.9920    0.0000 C   0  0  2  0  0  0  0  0  0  0  0  0
    4.6839  -10.3938    0.0000 C   0  0  2  0  0  0  0  0  0  0  0  0
    4.6716  -11.2187    0.0000 C   0  0  1  0  0  0  0  0  0  0  0  0
    5.3798  -11.6418    0.0000 C   0  0  2  0  0  0  0  0  0  0  0  0
    6.1004  -11.2401    0.0000 C   0  0  1  0  0  0  0  0  0  0  0  0
    6.1127  -10.4151    0.0000 O   0  0  0  0  0  0  0  0  0  0  0  0
    5.4168   -9.1671    0.0000 C   0  0  0  0  0  0  0  0  0  0  0  0
    3.9510  -11.6205    0.0000 O   0  0  0  0  0  0  0  0  0  0  0  0
    5.3675  -12.4667    0.0000 O   0  0  0  0  0  0  0  0  0  0  0  0
    3.9757   -9.9707    0.0000 O   0  0  0  0  0  0  0  0  0  0  0  0
    4.7086   -8.7440    0.0000 O   0  0  0  0  0  0  0  0  0  0  0  0
  1  2  2  0  0  0  0
  2  3  1  0  0  0  0
  3  4  2  0  0  0  0
  4  5  1  0  0  0  0
  5  6  2  0  0  0  0
  6  1  1  0  0  0  0
  2  7  1  0  0  0  0
  4  8  1  0  0  0  0
  6  9  1  0  0  0  0
  9 10  2  0  0  0  0
  9 11  1  0  0  0  0
 10 12  1  0  0  0  0
 10 13  1  0  0  0  0
 13 14  2  0  0  0  0
 14 15  1  0  0  0  0
 15 16  2  0  0  0  0
 16 17  1  0  0  0  0
 17 18  2  0  0  0  0
 18 13  1  0  0  0  0
 19 20  1  0  0  0  0
 20 21  1  0  0  0  0
 21 22  1  0  0  0  0
 22 23  1  0  0  0  0
 23 24  1  0  0  0  0
 24 19  1  0  0  0  0
 19 25  1  1  0  0  0
 21 26  1  1  0  0  0
 22 27  1  6  0  0  0
 20 28  1  6  0  0  0
 25 29  1  0  0  0  0
 23  7  1  1  0  0  0
M  END
>  <cdx:fragmentId>
5

$$$$
