50060.cdx
  Mrv1902 05222410222D          

 23 25  0  0  0  0            999 V2000
    3.9948   -4.7810    0.0000 O   0  0  0  0  0  0  0  0  0  0  0  0
    5.3937   -7.2731    0.0000 O   0  0  0  0  0  0  0  0  0  0  0  0
    8.2613   -6.4828    0.0000 C   0  0  0  0  0  0  0  0  0  0  0  0
    6.8225   -7.2904    0.0000 O   0  0  0  0  0  0  0  0  0  0  0  0
    6.8325   -6.4655    0.0000 C   0  0  0  0  0  0  0  0  0  0  0  0
    7.5519   -6.0617    0.0000 C   0  0  1  0  0  0  0  0  0  0  0  0
    7.5619   -5.2368    0.0000 C   0  0  0  0  0  0  0  0  0  0  0  0
    6.8525   -4.8156    0.0000 O   0  0  0  0  0  0  0  0  0  0  0  0
    5.4037   -6.4482    0.0000 C   0  0  0  0  0  0  0  0  0  0  0  0
    6.1231   -6.0444    0.0000 C   0  0  0  0  0  0  0  0  0  0  0  0
    6.1331   -5.2194    0.0000 C   0  0  0  0  0  0  0  0  0  0  0  0
    5.4237   -4.7983    0.0000 C   0  0  0  0  0  0  0  0  0  0  0  0
    4.7042   -5.2021    0.0000 C   0  0  0  0  0  0  0  0  0  0  0  0
    4.6943   -6.0271    0.0000 C   0  0  0  0  0  0  0  0  0  0  0  0
    8.9808   -6.0790    0.0000 C   0  0  0  0  0  0  0  0  0  0  0  0
    9.6850   -6.5087    0.0000 C   0  0  0  0  0  0  0  0  0  0  0  0
   10.4093   -6.1136    0.0000 C   0  0  0  0  0  0  0  0  0  0  0  0
   10.4093   -5.2889    0.0000 C   0  0  0  0  0  0  0  0  0  0  0  0
    9.6850   -4.8592    0.0000 C   0  0  0  0  0  0  0  0  0  0  0  0
    8.9808   -5.2543    0.0000 C   0  0  0  0  0  0  0  0  0  0  0  0
    8.2689   -4.8373    0.0000 O   0  0  0  0  0  0  0  0  0  0  0  0
   11.1262   -4.8806    0.0000 O   0  0  0  0  0  0  0  0  0  0  0  0
   11.8382   -5.2974    0.0000 C   0  0  0  0  0  0  0  0  0  0  0  0
 13  1  1  0  0  0  0
  9  2  1  0  0  0  0
  6  3  1  1  0  0  0
  5  4  2  0  0  0  0
  5 10  1  0  0  0  0
  6  5  1  0  0  0  0
  7  6  1  0  0  0  0
  8  7  1  0  0  0  0
 11  8  1  0  0  0  0
  9 14  1  0  0  0  0
 10  9  2  0  0  0  0
 11 10  1  0  0  0  0
 12 11  2  0  0  0  0
 13 12  1  0  0  0  0
 14 13  2  0  0  0  0
  3 15  1  0  0  0  0
 15 16  2  0  0  0  0
 16 17  1  0  0  0  0
 17 18  2  0  0  0  0
 18 19  1  0  0  0  0
 19 20  2  0  0  0  0
 20 15  1  0  0  0  0
 20 21  1  0  0  0  0
 18 22  1  0  0  0  0
 22 23  1  0  0  0  0
M  END
>  <cdx:fragmentId>
5

$$$$
