50073.cdx
  Mrv1902 05222410212D          

 14 15  0  0  0  0            999 V2000
    9.6332   -7.7888    0.0000 O   0  0  0  0  0  0  0  0  0  0  0  0
   10.1181   -8.4562    0.0000 C   0  0  0  0  0  0  0  0  0  0  0  0
    9.6332   -9.1237    0.0000 O   0  0  0  0  0  0  0  0  0  0  0  0
    8.8486   -8.8687    0.0000 C   0  0  0  0  0  0  0  0  0  0  0  0
    8.8486   -8.0437    0.0000 C   0  0  0  0  0  0  0  0  0  0  0  0
    8.1341   -9.2813    0.0000 C   0  0  0  0  0  0  0  0  0  0  0  0
    7.4196   -8.8688    0.0000 C   0  0  0  0  0  0  0  0  0  0  0  0
    7.4196   -8.0437    0.0000 C   0  0  0  0  0  0  0  0  0  0  0  0
    8.1341   -7.6312    0.0000 C   0  0  0  0  0  0  0  0  0  0  0  0
    6.7052   -9.2813    0.0000 C   0  0  0  0  0  0  0  0  0  0  0  0
    5.9907   -8.8688    0.0000 C   0  0  2  0  0  0  0  0  0  0  0  0
    5.2762   -9.2813    0.0000 C   0  0  0  0  0  0  0  0  0  0  0  0
    4.5617   -8.8688    0.0000 O   0  0  0  0  0  0  0  0  0  0  0  0
    5.9907   -8.0437    0.0000 O   0  0  0  0  0  0  0  0  0  0  0  0
  1  2  1  0  0  0  0
  2  3  1  0  0  0  0
  3  4  1  0  0  0  0
  4  5  1  0  0  0  0
  1  5  1  0  0  0  0
  6  7  1  0  0  0  0
  7  8  2  0  0  0  0
  8  9  1  0  0  0  0
  9  5  2  0  0  0  0
  6  4  2  0  0  0  0
 10 11  1  0  0  0  0
 11 12  1  0  0  0  0
 12 13  1  0  0  0  0
 11 14  1  6  0  0  0
  7 10  1  0  0  0  0
M  END
>  <cdx:fragmentId>
5

$$$$
