50070.cdx
  Mrv1902 05222410212D          

 19 18  0  0  0  0            999 V2000
    2.4450   -6.5851    0.0000 C   0  0  0  0  0  0  0  0  0  0  0  0
    3.1595   -6.9976    0.0000 C   0  0  0  0  0  0  0  0  0  0  0  0
    3.8740   -6.5851    0.0000 C   0  0  0  0  0  0  0  0  0  0  0  0
    4.5884   -6.9976    0.0000 C   0  0  0  0  0  0  0  0  0  0  0  0
    5.3029   -6.5851    0.0000 C   0  0  0  0  0  0  0  0  0  0  0  0
    6.0174   -6.9976    0.0000 C   0  0  0  0  0  0  0  0  0  0  0  0
    6.7319   -6.5851    0.0000 C   0  0  0  0  0  0  0  0  0  0  0  0
    7.4463   -6.9976    0.0000 C   0  0  0  0  0  0  0  0  0  0  0  0
    8.1608   -6.5851    0.0000 C   0  0  0  0  0  0  0  0  0  0  0  0
    8.8753   -6.9976    0.0000 C   0  0  0  0  0  0  0  0  0  0  0  0
    9.5897   -6.5851    0.0000 C   0  0  0  0  0  0  0  0  0  0  0  0
   10.3042   -6.9976    0.0000 C   0  0  0  0  0  0  0  0  0  0  0  0
   11.0187   -6.5851    0.0000 C   0  0  0  0  0  0  0  0  0  0  0  0
   11.7331   -6.9976    0.0000 C   0  0  0  0  0  0  0  0  0  0  0  0
   12.4476   -6.5851    0.0000 C   0  0  0  0  0  0  0  0  0  0  0  0
    3.1595   -7.8226    0.0000 O   0  0  0  0  0  0  0  0  0  0  0  0
    6.0174   -7.8226    0.0000 C   0  0  0  0  0  0  0  0  0  0  0  0
    8.8753   -7.8226    0.0000 C   0  0  0  0  0  0  0  0  0  0  0  0
   11.7331   -7.8226    0.0000 C   0  0  0  0  0  0  0  0  0  0  0  0
  1  2  1  0  0  0  0
  2  3  1  0  0  0  0
  3  4  1  0  0  0  0
  4  5  1  0  0  0  0
  5  6  2  0  0  0  0
  6  7  1  0  0  0  0
  7  8  1  0  0  0  0
  8  9  1  0  0  0  0
  9 10  2  0  0  0  0
 10 11  1  0  0  0  0
 11 12  1  0  0  0  0
 12 13  1  0  0  0  0
 13 14  2  0  0  0  0
 14 15  1  0  0  0  0
  2 16  2  0  0  0  0
  6 17  1  0  0  0  0
 10 18  1  0  0  0  0
 14 19  1  0  0  0  0
M  END
>  <cdx:fragmentId>
3

$$$$
