50078.cdx
  Mrv1902 05222410232D          

 14 13  0  0  0  0            999 V2000
   10.7680   -9.7513    0.0000 C   0  0  0  0  0  0  0  0  0  0  0  0
   10.0535   -9.3388    0.0000 C   0  0  0  0  0  0  0  0  0  0  0  0
   10.0535   -8.5138    0.0000 C   0  0  0  0  0  0  0  0  0  0  0  0
    9.3391   -8.1013    0.0000 C   0  0  0  0  0  0  0  0  0  0  0  0
    8.6246   -8.5138    0.0000 C   0  0  0  0  0  0  0  0  0  0  0  0
    7.9101   -8.1013    0.0000 C   0  0  0  0  0  0  0  0  0  0  0  0
    3.6233   -8.1013    0.0000 C   0  0  0  0  0  0  0  0  0  0  0  0
    7.1956   -8.5138    0.0000 O   0  0  0  0  0  0  0  0  0  0  0  0
    6.4812   -7.2763    0.0000 O   0  0  0  0  0  0  0  0  0  0  0  0
    4.3378   -9.3388    0.0000 C   0  0  0  0  0  0  0  0  0  0  0  0
    4.3378   -8.5138    0.0000 C   0  0  0  0  0  0  0  0  0  0  0  0
    5.0522   -8.1013    0.0000 C   0  0  0  0  0  0  0  0  0  0  0  0
    5.7667   -8.5138    0.0000 C   0  0  0  0  0  0  0  0  0  0  0  0
    6.4812   -8.1013    0.0000 C   0  0  0  0  0  0  0  0  0  0  0  0
  8  6  1  0  0  0  0
  2  1  1  0  0  0  0
  3  2  1  0  0  0  0
  4  3  2  0  0  0  0
  5  4  1  0  0  0  0
  6  5  1  0  0  0  0
 11  7  1  0  0  0  0
 14  8  1  0  0  0  0
 14  9  2  0  0  0  0
 11 10  1  0  0  0  0
 12 11  1  0  0  0  0
 13 12  1  0  0  0  0
 14 13  1  0  0  0  0
M  END
>  <cdx:fragmentId>
5

$$$$
