50074.cdx
  Mrv1902 05222410222D          

 22 22  0  0  0  0            999 V2000
   10.3225   -7.0499    0.0000 C   0  0  0  0  0  0  0  0  0  0  0  0
    9.9144   -7.7669    0.0000 C   0  0  0  0  0  0  0  0  0  0  0  0
    9.9057   -6.3380    0.0000 C   0  0  0  0  0  0  0  0  0  0  0  0
   11.1475   -7.0449    0.0000 C   0  0  0  0  0  0  0  0  0  0  0  0
    9.0894   -7.7719    0.0000 C   0  0  0  0  0  0  0  0  0  0  0  0
    8.6812   -8.4888    0.0000 C   0  0  0  0  0  0  0  0  0  0  0  0
    7.8562   -8.4938    0.0000 C   0  0  0  0  0  0  0  0  0  0  0  0
    7.0312   -8.4988    0.0000 O   0  0  0  0  0  0  0  0  0  0  0  0
    7.8612   -9.3188    0.0000 C   0  0  0  0  0  0  0  0  0  0  0  0
    7.8512   -7.6689    0.0000 C   0  0  0  0  0  0  0  0  0  0  0  0
    6.6231   -9.2158    0.0000 C   0  0  2  0  0  0  0  0  0  0  0  0
    5.7981   -9.2233    0.0000 O   0  0  0  0  0  0  0  0  0  0  0  0
    5.3921   -9.9415    0.0000 C   0  0  1  0  0  0  0  0  0  0  0  0
    5.7981  -10.6522    0.0000 C   0  0  2  0  0  0  0  0  0  0  0  0
    6.6231  -10.6522    0.0000 C   0  0  1  0  0  0  0  0  0  0  0  0
    7.0291   -9.9415    0.0000 C   0  0  1  0  0  0  0  0  0  0  0  0
    4.5671   -9.9434    0.0000 C   0  0  0  0  0  0  0  0  0  0  0  0
    7.0372  -11.3657    0.0000 O   0  0  0  0  0  0  0  0  0  0  0  0
    4.1563  -10.6588    0.0000 O   0  0  0  0  0  0  0  0  0  0  0  0
    5.3840  -11.3657    0.0000 O   0  0  0  0  0  0  0  0  0  0  0  0
    7.8541   -9.9452    0.0000 O   0  0  0  0  0  0  0  0  0  0  0  0
    7.1343   -7.2607    0.0000 C   0  0  0  0  0  0  0  0  0  0  0  0
  1  2  2  0  0  0  0
  1  3  1  0  0  0  0
  1  4  1  0  0  0  0
  2  5  1  0  0  0  0
  5  6  1  0  0  0  0
  6  7  1  0  0  0  0
  7  8  1  6  0  0  0
  7  9  1  0  0  0  0
  7 10  1  0  0  0  0
 11  8  1  1  0  0  0
 11 12  1  0  0  0  0
 12 13  1  0  0  0  0
 13 14  1  0  0  0  0
 14 15  1  0  0  0  0
 15 16  1  0  0  0  0
 16 11  1  0  0  0  0
 13 17  1  1  0  0  0
 15 18  1  1  0  0  0
 17 19  1  0  0  0  0
 14 20  1  6  0  0  0
 16 21  1  6  0  0  0
 10 22  2  0  0  0  0
M  END
>  <cdx:fragmentId>
3

$$$$
