50081.cdx
  Mrv1902 05222410242D          

 11 11  0  0  0  0            999 V2000
    6.2268   -7.6301    0.0000 C   0  0  0  0  0  0  0  0  0  0  0  0
    6.2268   -8.4551    0.0000 C   0  0  0  0  0  0  0  0  0  0  0  0
    6.9413   -8.8676    0.0000 N   0  0  0  0  0  0  0  0  0  0  0  0
    7.6557   -8.4551    0.0000 C   0  0  0  0  0  0  0  0  0  0  0  0
    7.6557   -7.6301    0.0000 C   0  0  0  0  0  0  0  0  0  0  0  0
    6.9413   -7.2176    0.0000 C   0  0  0  0  0  0  0  0  0  0  0  0
    6.9413   -9.6926    0.0000 C   0  0  0  0  0  0  0  0  0  0  0  0
    7.6557  -10.1051    0.0000 C   0  0  0  0  0  0  0  0  0  0  0  0
    7.6557  -10.9301    0.0000 C   0  0  0  0  0  0  0  0  0  0  0  0
    8.3702  -11.3426    0.0000 C   0  0  0  0  0  0  0  0  0  0  0  0
    6.2268  -10.1051    0.0000 O   0  0  0  0  0  0  0  0  0  0  0  0
  1  2  1  0  0  0  0
  2  3  1  0  0  0  0
  3  4  1  0  0  0  0
  4  5  2  0  0  0  0
  5  6  1  0  0  0  0
  6  1  2  0  0  0  0
  3  7  1  0  0  0  0
  7  8  1  0  0  0  0
  8  9  1  0  0  0  0
  9 10  1  0  0  0  0
  7 11  2  0  0  0  0
M  END
>  <cdx:fragmentId>
5

$$$$
