50088.cdx
  Mrv1902 05222410222D          

 15 16  0  0  0  0            999 V2000
    9.4601   -7.0490    0.0000 C   0  0  0  0  0  0  0  0  0  0  0  0
    9.4601   -6.2240    0.0000 C   0  0  0  0  0  0  0  0  0  0  0  0
    8.7456   -5.8115    0.0000 C   0  0  0  0  0  0  0  0  0  0  0  0
    8.0312   -6.2240    0.0000 C   0  0  0  0  0  0  0  0  0  0  0  0
    8.0312   -7.0490    0.0000 C   0  0  1  0  0  0  0  0  0  0  0  0
    8.7456   -7.4615    0.0000 C   0  0  1  0  0  0  0  0  0  0  0  0
    7.3167   -5.8115    0.0000 C   0  0  0  0  0  0  0  0  0  0  0  0
    6.6022   -6.2240    0.0000 C   0  0  0  0  0  0  0  0  0  0  0  0
    6.6022   -7.0490    0.0000 C   0  0  2  0  0  0  0  0  0  0  0  0
    7.3167   -7.4615    0.0000 C   0  0  0  0  0  0  0  0  0  0  0  0
    8.7456   -8.2865    0.0000 C   0  0  0  0  0  0  0  0  0  0  0  0
    8.0312   -7.8740    0.0000 C   0  0  0  0  0  0  0  0  0  0  0  0
    5.8877   -7.4615    0.0000 C   0  0  0  0  0  0  0  0  0  0  0  0
    5.8877   -8.2865    0.0000 C   0  0  0  0  0  0  0  0  0  0  0  0
    5.1733   -7.0490    0.0000 C   0  0  0  0  0  0  0  0  0  0  0  0
  1  2  1  0  0  0  0
  2  3  1  0  0  0  0
  3  4  2  0  0  0  0
  4  5  1  0  0  0  0
  5  6  1  0  0  0  0
  6  1  1  0  0  0  0
  4  7  1  0  0  0  0
  7  8  1  0  0  0  0
  8  9  1  0  0  0  0
  9 10  1  0  0  0  0
 10  5  1  0  0  0  0
  6 11  1  6  0  0  0
  5 12  1  6  0  0  0
  9 13  1  6  0  0  0
 13 14  2  0  0  0  0
 13 15  1  0  0  0  0
M  END
>  <cdx:fragmentId>
5

$$$$
