50086.cdx
  Mrv1902 05222410242D          

 16 18  0  0  0  0            999 V2000
    7.3862  -11.9861    0.0000 C   0  0  0  0  0  0  0  0  0  0  0  0
    6.8311  -11.3757    0.0000 O   0  0  0  0  0  0  0  0  0  0  0  0
    4.3765   -8.2494    0.0000 C   0  0  0  0  0  0  0  0  0  0  0  0
    4.6354   -9.0328    0.0000 C   0  0  0  0  0  0  0  0  0  0  0  0
    4.0864   -9.6486    0.0000 N   0  0  0  0  0  0  0  0  0  0  0  0
    4.3452  -10.4319    0.0000 C   0  0  0  0  0  0  0  0  0  0  0  0
    5.1531  -10.5995    0.0000 C   0  0  0  0  0  0  0  0  0  0  0  0
    6.1082   -8.7120    0.0000 N   0  0  0  0  0  0  0  0  0  0  0  0
    5.4432   -9.2003    0.0000 C   0  0  0  0  0  0  0  0  0  0  0  0
    5.7020   -9.9836    0.0000 C   0  0  0  0  0  0  0  0  0  0  0  0
    7.5842   -9.0181    0.0000 C   0  0  0  0  0  0  0  0  0  0  0  0
    6.7781   -9.1936    0.0000 C   0  0  0  0  0  0  0  0  0  0  0  0
    6.5270   -9.9795    0.0000 C   0  0  0  0  0  0  0  0  0  0  0  0
    7.0821  -10.5898    0.0000 C   0  0  0  0  0  0  0  0  0  0  0  0
    7.8882  -10.4143    0.0000 C   0  0  0  0  0  0  0  0  0  0  0  0
    8.1392   -9.6284    0.0000 C   0  0  0  0  0  0  0  0  0  0  0  0
  2  1  1  0  0  0  0
 14  2  1  0  0  0  0
  4  3  1  0  0  0  0
  4  9  1  0  0  0  0
  5  4  1  0  0  0  0
  6  5  1  0  0  0  0
  7  6  1  0  0  0  0
 10  7  1  0  0  0  0
  8 12  1  0  0  0  0
  9  8  1  0  0  0  0
 10  9  2  0  0  0  0
 13 10  1  0  0  0  0
 11 16  1  0  0  0  0
 12 11  2  0  0  0  0
 13 12  1  0  0  0  0
 14 13  2  0  0  0  0
 15 14  1  0  0  0  0
 16 15  2  0  0  0  0
M  END
>  <cdx:fragmentId>
5

$$$$
