50089.cdx
  Mrv1902 05222410222D          

 25 28  0  0  0  0            999 V2000
    5.1411  -12.3305    0.0000 C   0  0  0  0  0  0  0  0  0  0  0  0
    5.8609  -12.7335    0.0000 C   0  0  0  0  0  0  0  0  0  0  0  0
    6.5699  -12.3117    0.0000 C   0  0  0  0  0  0  0  0  0  0  0  0
    6.5590  -11.4867    0.0000 C   0  0  0  0  0  0  0  0  0  0  0  0
    5.8392  -11.0837    0.0000 C   0  0  0  0  0  0  0  0  0  0  0  0
    5.1302  -11.5056    0.0000 C   0  0  0  0  0  0  0  0  0  0  0  0
    7.2680  -11.0649    0.0000 C   0  0  0  0  0  0  0  0  0  0  0  0
    7.2571  -10.2399    0.0000 C   0  0  2  0  0  0  0  0  0  0  0  0
    6.5373   -9.8369    0.0000 C   0  0  0  0  0  0  0  0  0  0  0  0
    5.8283  -10.2588    0.0000 C   0  0  0  0  0  0  0  0  0  0  0  0
    7.9661   -9.8181    0.0000 N   0  0  0  0  0  0  0  0  0  0  0  0
    7.9552   -8.9931    0.0000 C   0  0  0  0  0  0  0  0  0  0  0  0
    7.2354   -8.5901    0.0000 C   0  0  0  0  0  0  0  0  0  0  0  0
    6.5264   -9.0120    0.0000 C   0  0  0  0  0  0  0  0  0  0  0  0
    5.8066   -8.6089    0.0000 C   0  0  0  0  0  0  0  0  0  0  0  0
    5.0976   -9.0308    0.0000 C   0  0  0  0  0  0  0  0  0  0  0  0
    5.1085   -9.8557    0.0000 C   0  0  0  0  0  0  0  0  0  0  0  0
    8.6642   -8.5713    0.0000 O   0  0  0  0  0  0  0  0  0  0  0  0
    4.3995  -10.2776    0.0000 O   0  0  0  0  0  0  0  0  0  0  0  0
    4.3995  -11.1026    0.0000 C   0  0  0  0  0  0  0  0  0  0  0  0
    4.3778   -8.6277    0.0000 O   0  0  0  0  0  0  0  0  0  0  0  0
    3.6633   -9.0402    0.0000 C   0  0  0  0  0  0  0  0  0  0  0  0
    5.8066   -7.7839    0.0000 O   0  0  0  0  0  0  0  0  0  0  0  0
    7.9770  -10.6430    0.0000 H   0  0  0  0  0  0  0  0  0  0  0  0
    5.0921   -7.3714    0.0000 C   0  0  0  0  0  0  0  0  0  0  0  0
  1  2  2  0  0  0  0
  2  3  1  0  0  0  0
  3  4  2  0  0  0  0
  4  5  1  0  0  0  0
  5  6  2  0  0  0  0
  6  1  1  0  0  0  0
  4  7  1  0  0  0  0
  7  8  1  0  0  0  0
  8  9  1  0  0  0  0
  9 10  2  0  0  0  0
 10  5  1  0  0  0  0
  8 11  1  0  0  0  0
 11 12  1  0  0  0  0
 12 13  1  0  0  0  0
 13 14  1  0  0  0  0
 14  9  1  0  0  0  0
 14 15  2  0  0  0  0
 15 16  1  0  0  0  0
 16 17  2  0  0  0  0
 17 10  1  0  0  0  0
 12 18  2  0  0  0  0
 17 19  1  0  0  0  0
 19 20  1  0  0  0  0
 16 21  1  0  0  0  0
 21 22  1  0  0  0  0
 15 23  1  0  0  0  0
  8 24  1  1  0  0  0
 23 25  1  0  0  0  0
M  END
>  <cdx:fragmentId>
5

$$$$
