50097.cdx
  Mrv1902 05222410262D          

 25 27  0  0  0  0            999 V2000
    3.9787   -9.9333    0.0000 C   0  0  0  0  0  0  0  0  0  0  0  0
    3.9787  -10.7583    0.0000 C   0  0  0  0  0  0  0  0  0  0  0  0
    4.6931  -11.1708    0.0000 C   0  0  0  0  0  0  0  0  0  0  0  0
    5.4076  -10.7583    0.0000 C   0  0  0  0  0  0  0  0  0  0  0  0
    5.4076   -9.9333    0.0000 C   0  0  0  0  0  0  0  0  0  0  0  0
    4.6931   -9.5208    0.0000 C   0  0  0  0  0  0  0  0  0  0  0  0
    6.1221  -11.1708    0.0000 C   0  0  0  0  0  0  0  0  0  0  0  0
    6.8366  -10.7583    0.0000 C   0  0  0  0  0  0  0  0  0  0  0  0
    6.8366   -9.9333    0.0000 C   0  0  0  0  0  0  0  0  0  0  0  0
    6.1221   -9.5208    0.0000 C   0  0  0  0  0  0  0  0  0  0  0  0
    7.5510  -11.1708    0.0000 C   0  0  0  0  0  0  0  0  0  0  0  0
    8.2655  -10.7583    0.0000 C   0  0  0  0  0  0  0  0  0  0  0  0
    8.2655   -9.9333    0.0000 C   0  0  0  0  0  0  0  0  0  0  0  0
    7.5510   -9.5208    0.0000 C   0  0  0  0  0  0  0  0  0  0  0  0
    4.6931  -11.9958    0.0000 O   0  0  0  0  0  0  0  0  0  0  0  0
    3.2642  -11.1708    0.0000 O   0  0  0  0  0  0  0  0  0  0  0  0
    2.5497  -10.7583    0.0000 C   0  0  0  0  0  0  0  0  0  0  0  0
    6.1221   -8.6958    0.0000 O   0  0  0  0  0  0  0  0  0  0  0  0
    6.1221  -11.9958    0.0000 O   0  0  0  0  0  0  0  0  0  0  0  0
    7.5510   -8.6958    0.0000 O   0  0  0  0  0  0  0  0  0  0  0  0
    8.9800  -11.1708    0.0000 O   0  0  0  0  0  0  0  0  0  0  0  0
    8.9800   -9.5208    0.0000 C   0  0  0  0  0  0  0  0  0  0  0  0
    9.6944   -9.9333    0.0000 O   0  0  0  0  0  0  0  0  0  0  0  0
   10.4089   -9.5208    0.0000 C   0  0  0  0  0  0  0  0  0  0  0  0
   11.1234   -9.9333    0.0000 C   0  0  0  0  0  0  0  0  0  0  0  0
  1  2  1  0  0  0  0
  2  3  2  0  0  0  0
  3  4  1  0  0  0  0
  4  5  2  0  0  0  0
  5  6  1  0  0  0  0
  6  1  2  0  0  0  0
  4  7  1  0  0  0  0
  7  8  1  0  0  0  0
  8  9  2  0  0  0  0
  9 10  1  0  0  0  0
 10  5  1  0  0  0  0
  8 11  1  0  0  0  0
 11 12  2  0  0  0  0
 12 13  1  0  0  0  0
 13 14  2  0  0  0  0
 14  9  1  0  0  0  0
  3 15  1  0  0  0  0
  2 16  1  0  0  0  0
 16 17  1  0  0  0  0
 10 18  2  0  0  0  0
  7 19  2  0  0  0  0
 14 20  1  0  0  0  0
 12 21  1  0  0  0  0
 13 22  1  0  0  0  0
 22 23  1  0  0  0  0
 23 24  1  0  0  0  0
 24 25  1  0  0  0  0
M  END
>  <cdx:fragmentId>
5

$$$$
