50091.cdx
  Mrv1902 05222410242D          

 20 20  0  0  0  0            999 V2000
    7.2924  -11.3289    0.0000 C   0  0  0  0  0  0  0  0  0  0  0  0
    7.2924  -12.1539    0.0000 C   0  0  0  0  0  0  0  0  0  0  0  0
    8.0069  -12.5664    0.0000 C   0  0  0  0  0  0  0  0  0  0  0  0
    8.7214  -12.1539    0.0000 C   0  0  0  0  0  0  0  0  0  0  0  0
    8.7214  -11.3289    0.0000 C   0  0  0  0  0  0  0  0  0  0  0  0
    8.0069  -10.9164    0.0000 C   0  0  0  0  0  0  0  0  0  0  0  0
    6.5780  -10.9164    0.0000 C   0  0  0  0  0  0  0  0  0  0  0  0
    8.0069  -10.0914    0.0000 C   0  0  0  0  0  0  0  0  0  0  0  0
    7.2924   -9.6789    0.0000 O   0  0  0  0  0  0  0  0  0  0  0  0
    6.5780  -10.0914    0.0000 O   0  0  0  0  0  0  0  0  0  0  0  0
    8.7214   -9.6789    0.0000 O   0  0  0  0  0  0  0  0  0  0  0  0
    8.7214   -8.8539    0.0000 C   0  0  0  0  0  0  0  0  0  0  0  0
    9.4358   -8.4414    0.0000 C   0  0  0  0  0  0  0  0  0  0  0  0
    9.4358   -7.6164    0.0000 C   0  0  0  0  0  0  0  0  0  0  0  0
    8.0069   -8.4414    0.0000 C   0  0  0  0  0  0  0  0  0  0  0  0
    5.8635  -11.3289    0.0000 O   0  0  0  0  0  0  0  0  0  0  0  0
    5.0666  -11.1154    0.0000 C   0  0  0  0  0  0  0  0  0  0  0  0
    4.3521  -11.5279    0.0000 C   0  0  0  0  0  0  0  0  0  0  0  0
    3.5552  -11.3143    0.0000 C   0  0  0  0  0  0  0  0  0  0  0  0
    4.9589  -10.2974    0.0000 C   0  0  0  0  0  0  0  0  0  0  0  0
  1  2  2  0  0  0  0
  2  3  1  0  0  0  0
  3  4  2  0  0  0  0
  4  5  1  0  0  0  0
  5  6  2  0  0  0  0
  6  1  1  0  0  0  0
  1  7  1  0  0  0  0
  6  8  1  0  0  0  0
  8  9  2  0  0  0  0
  7 10  2  0  0  0  0
  8 11  1  0  0  0  0
 11 12  1  0  0  0  0
 12 13  1  0  0  0  0
 13 14  1  0  0  0  0
 12 15  1  0  0  0  0
  7 16  1  0  0  0  0
 16 17  1  0  0  0  0
 17 18  1  0  0  0  0
 18 19  1  0  0  0  0
 17 20  1  0  0  0  0
M  END
>  <cdx:fragmentId>
5

$$$$
