50099.cdx
  Mrv1902 05222410212D          

 15 16  0  0  0  0            999 V2000
    5.0031   -8.5858    0.0000 C   0  0  0  0  0  0  0  0  0  0  0  0
    5.0031   -9.4108    0.0000 C   0  0  0  0  0  0  0  0  0  0  0  0
    5.7175   -9.8233    0.0000 C   0  0  0  0  0  0  0  0  0  0  0  0
    6.4320   -9.4108    0.0000 C   0  0  0  0  0  0  0  0  0  0  0  0
    6.4320   -8.5858    0.0000 C   0  0  0  0  0  0  0  0  0  0  0  0
    5.7175   -8.1733    0.0000 C   0  0  0  0  0  0  0  0  0  0  0  0
    7.1465   -9.8233    0.0000 C   0  0  0  0  0  0  0  0  0  0  0  0
    7.8609   -9.4108    0.0000 N   0  0  0  0  0  0  0  0  0  0  0  0
    7.8609   -8.5858    0.0000 C   0  0  0  0  0  0  0  0  0  0  0  0
    7.1465   -8.1733    0.0000 C   0  0  0  0  0  0  0  0  0  0  0  0
    5.7175  -10.6483    0.0000 O   0  0  0  0  0  0  0  0  0  0  0  0
    7.1465  -10.6483    0.0000 C   0  0  0  0  0  0  0  0  0  0  0  0
    8.5754   -8.1733    0.0000 C   0  0  0  0  0  0  0  0  0  0  0  0
    4.5906   -7.8713    0.0000 C   0  0  0  0  0  0  0  0  0  0  0  0
    4.2062   -8.7993    0.0000 C   0  0  0  0  0  0  0  0  0  0  0  0
  1  2  1  0  0  0  0
  2  3  1  0  0  0  0
  3  4  1  0  0  0  0
  4  5  2  0  0  0  0
  5  6  1  0  0  0  0
  6  1  1  0  0  0  0
  4  7  1  0  0  0  0
  7  8  2  0  0  0  0
  8  9  1  0  0  0  0
  9 10  2  0  0  0  0
 10  5  1  0  0  0  0
  3 11  2  0  0  0  0
  7 12  1  0  0  0  0
  9 13  1  0  0  0  0
  1 14  1  0  0  0  0
  1 15  1  0  0  0  0
M  END
>  <cdx:fragmentId>
5

$$$$
