50108.cdx
  Mrv1902 05222410252D          

 34 36  0  0  0  0            999 V2000
    3.3256   -5.7258    0.0000 C   0  0  2  0  0  0  0  0  0  0  0  0
    3.3256   -6.5508    0.0000 C   0  0  1  0  0  0  0  0  0  0  0  0
    4.0400   -6.9633    0.0000 C   0  0  2  0  0  0  0  0  0  0  0  0
    4.7545   -6.5508    0.0000 C   0  0  2  0  0  0  0  0  0  0  0  0
    4.7545   -5.7258    0.0000 O   0  0  0  0  0  0  0  0  0  0  0  0
    4.0400   -5.3133    0.0000 C   0  0  2  0  0  0  0  0  0  0  0  0
    5.4690   -6.9633    0.0000 O   0  0  0  0  0  0  0  0  0  0  0  0
    6.1834   -6.5508    0.0000 C   0  0  2  0  0  0  0  0  0  0  0  0
    6.1834   -5.7258    0.0000 C   0  0  1  0  0  0  0  0  0  0  0  0
    5.4690   -5.3133    0.0000 O   0  0  0  0  0  0  0  0  0  0  0  0
    6.8979   -6.9633    0.0000 C   0  0  2  0  0  0  0  0  0  0  0  0
    7.6124   -6.5508    0.0000 C   0  0  2  0  0  0  0  0  0  0  0  0
    7.6124   -5.7258    0.0000 C   0  0  1  0  0  0  0  0  0  0  0  0
    6.8979   -5.3133    0.0000 C   0  0  1  0  0  0  0  0  0  0  0  0
    6.8979   -7.7883    0.0000 O   0  0  0  0  0  0  0  0  0  0  0  0
    7.6124   -8.2008    0.0000 O   0  0  0  0  0  0  0  0  0  0  0  0
    8.3269   -7.7883    0.0000 C   0  0  2  0  0  0  0  0  0  0  0  0
    8.3269   -6.9633    0.0000 O   0  0  0  0  0  0  0  0  0  0  0  0
    7.6124   -9.0258    0.0000 C   0  0  1  0  0  0  0  0  0  0  0  0
    8.3269   -9.4383    0.0000 C   0  0  1  0  0  0  0  0  0  0  0  0
    9.0413   -9.0258    0.0000 C   0  0  1  0  0  0  0  0  0  0  0  0
    9.0413   -8.2008    0.0000 C   0  0  1  0  0  0  0  0  0  0  0  0
    4.0400   -4.4883    0.0000 C   0  0  0  0  0  0  0  0  0  0  0  0
    2.6111   -5.3133    0.0000 O   0  0  0  0  0  0  0  0  0  0  0  0
    2.6111   -6.9633    0.0000 O   0  0  0  0  0  0  0  0  0  0  0  0
    8.3269   -5.3133    0.0000 O   0  0  0  0  0  0  0  0  0  0  0  0
    6.8979   -9.4383    0.0000 C   0  0  0  0  0  0  0  0  0  0  0  0
    8.3269  -10.2633    0.0000 O   0  0  0  0  0  0  0  0  0  0  0  0
    9.7558   -9.4383    0.0000 O   0  0  0  0  0  0  0  0  0  0  0  0
    4.0400   -7.7883    0.0000 O   0  0  0  0  0  0  0  0  0  0  0  0
    6.8979   -4.4883    0.0000 O   0  0  0  0  0  0  0  0  0  0  0  0
    9.7558   -7.7883    0.0000 O   0  0  0  0  0  0  0  0  0  0  0  0
    3.3256   -4.0758    0.0000 O   0  0  0  0  0  0  0  0  0  0  0  0
    6.8979  -10.2633    0.0000 O   0  0  0  0  0  0  0  0  0  0  0  0
  1  2  1  0  0  0  0
  2  3  1  0  0  0  0
  3  4  1  0  0  0  0
  4  5  1  0  0  0  0
  5  6  1  0  0  0  0
  6  1  1  0  0  0  0
  4  7  1  6  0  0  0
  8  7  1  6  0  0  0
  8  9  1  0  0  0  0
  9 10  1  1  0  0  0
  8 11  1  0  0  0  0
 11 12  1  0  0  0  0
 12 13  1  0  0  0  0
 13 14  1  0  0  0  0
 14  9  1  0  0  0  0
 11 15  1  6  0  0  0
 16 17  1  0  0  0  0
 17 18  1  6  0  0  0
 12 18  1  6  0  0  0
 16 19  1  0  0  0  0
 19 20  1  0  0  0  0
 20 21  1  0  0  0  0
 21 22  1  0  0  0  0
 22 17  1  0  0  0  0
  6 23  1  1  0  0  0
  1 24  1  1  0  0  0
  2 25  1  1  0  0  0
 13 26  1  1  0  0  0
 19 27  1  1  0  0  0
 20 28  1  1  0  0  0
 21 29  1  1  0  0  0
  3 30  1  6  0  0  0
 14 31  1  6  0  0  0
 22 32  1  6  0  0  0
 23 33  1  0  0  0  0
 27 34  1  0  0  0  0
M  END
>  <cdx:fragmentId>
5

$$$$
