50106.cdx
  Mrv1902 05222410212D          

 20 21  0  0  0  0            999 V2000
    5.8500   -6.6805    0.0000 C   0  0  0  0  0  0  0  0  0  0  0  0
    5.1269   -6.2834    0.0000 C   0  0  0  0  0  0  0  0  0  0  0  0
    5.1269   -5.4584    0.0000 C   0  0  0  0  0  0  0  0  0  0  0  0
    6.5439   -8.7520    0.0000 C   0  0  0  0  0  0  0  0  0  0  0  0
    6.5555   -7.9270    0.0000 C   0  0  0  0  0  0  0  0  0  0  0  0
    6.5378   -5.4279    0.0000 C   0  0  0  0  0  0  0  0  0  0  0  0
    5.8146   -5.0308    0.0000 O   0  0  0  0  0  0  0  0  0  0  0  0
    7.9496   -3.7518    0.0000 C   0  0  0  0  0  0  0  0  0  0  0  0
    7.2441   -4.1795    0.0000 C   0  0  0  0  0  0  0  0  0  0  0  0
    7.2618   -5.0044    0.0000 C   0  0  0  0  0  0  0  0  0  0  0  0
    7.9850   -5.4014    0.0000 C   0  0  0  0  0  0  0  0  0  0  0  0
    8.6904   -4.9737    0.0000 C   0  0  0  0  0  0  0  0  0  0  0  0
    8.6727   -4.1489    0.0000 C   0  0  0  0  0  0  0  0  0  0  0  0
    9.3782   -3.7211    0.0000 O   0  0  0  0  0  0  0  0  0  0  0  0
    5.8468   -7.5046    0.0000 C   0  0  0  0  0  0  0  0  0  0  0  0
    5.1267   -7.9070    0.0000 C   0  0  0  0  0  0  0  0  0  0  0  0
    5.1151   -8.7319    0.0000 C   0  0  0  0  0  0  0  0  0  0  0  0
    5.8237   -9.1544    0.0000 C   0  0  0  0  0  0  0  0  0  0  0  0
    5.8122   -9.9793    0.0000 O   0  0  0  0  0  0  0  0  0  0  0  0
    6.5555   -6.2527    0.0000 C   0  0  0  0  0  0  0  0  0  0  0  0
  1  2  1  0  0  0  0
  2  3  2  0  0  0  0
 20  6  1  0  0  0  0
  6  7  2  0  0  0  0
  8  9  2  0  0  0  0
  9 10  1  0  0  0  0
 10 11  2  0  0  0  0
 11 12  1  0  0  0  0
 12 13  2  0  0  0  0
 13  8  1  0  0  0  0
 13 14  1  0  0  0  0
  4  5  2  0  0  0  0
  5 15  1  0  0  0  0
 15 16  2  0  0  0  0
 16 17  1  0  0  0  0
 17 18  2  0  0  0  0
 18  4  1  0  0  0  0
 18 19  1  0  0  0  0
 20  1  1  0  0  0  0
 15  1  1  0  0  0  0
 10  6  1  0  0  0  0
M  END
>  <cdx:fragmentId>
24

$$$$
