50103.cdx
  Mrv1902 05222410222D          

 77 82  0  0  0  0            999 V2000
    6.3299  -12.3739    0.0000 C   0  0  2  0  0  0  0  0  0  0  0  0
    6.3299  -13.1989    0.0000 C   0  0  1  0  0  0  0  0  0  0  0  0
    7.0444  -13.6114    0.0000 C   0  0  2  0  0  0  0  0  0  0  0  0
    7.7589  -13.1989    0.0000 C   0  0  1  0  0  0  0  0  0  0  0  0
    7.7589  -12.3739    0.0000 C   0  0  2  0  0  0  0  0  0  0  0  0
    7.0444  -11.9614    0.0000 O   0  0  0  0  0  0  0  0  0  0  0  0
    5.6155  -11.9614    0.0000 O   0  0  0  0  0  0  0  0  0  0  0  0
    5.6155  -13.6114    0.0000 O   0  0  0  0  0  0  0  0  0  0  0  0
    8.4733  -13.6114    0.0000 O   0  0  0  0  0  0  0  0  0  0  0  0
    7.0444  -14.4364    0.0000 O   0  0  0  0  0  0  0  0  0  0  0  0
    8.4733  -11.9614    0.0000 C   0  0  0  0  0  0  0  0  0  0  0  0
    5.4019  -11.1645    0.0000 C   0  0  1  0  0  0  0  0  0  0  0  0
    5.9211  -10.5234    0.0000 O   0  0  0  0  0  0  0  0  0  0  0  0
    5.4718   -9.8315    0.0000 C   0  0  1  0  0  0  0  0  0  0  0  0
    4.6749  -10.0450    0.0000 C   0  0  2  0  0  0  0  0  0  0  0  0
    4.6317  -10.8689    0.0000 C   0  0  2  0  0  0  0  0  0  0  0  0
    4.0338   -9.5258    0.0000 O   0  0  0  0  0  0  0  0  0  0  0  0
    3.9398  -11.3182    0.0000 O   0  0  0  0  0  0  0  0  0  0  0  0
    5.7674   -9.0613    0.0000 C   0  0  0  0  0  0  0  0  0  0  0  0
    6.1988  -11.3780    0.0000 C   0  0  0  0  0  0  0  0  0  0  0  0
    6.7822  -10.7947    0.0000 O   0  0  0  0  0  0  0  0  0  0  0  0
    9.1878  -12.3739    0.0000 O   0  0  0  0  0  0  0  0  0  0  0  0
    9.9023  -11.9614    0.0000 C   0  0  0  0  0  0  0  0  0  0  0  0
    9.9023  -11.1364    0.0000 O   0  0  0  0  0  0  0  0  0  0  0  0
   10.6168  -12.3739    0.0000 C   0  0  0  0  0  0  0  0  0  0  0  0
   11.4136  -12.1604    0.0000 C   0  0  0  0  0  0  0  0  0  0  0  0
   10.5091  -13.1918    0.0000 H   0  0  0  0  0  0  0  0  0  0  0  0
   11.9970  -12.7437    0.0000 C   0  0  0  0  0  0  0  0  0  0  0  0
   11.6272  -11.3635    0.0000 H   0  0  0  0  0  0  0  0  0  0  0  0
   11.7835  -13.5406    0.0000 C   0  0  0  0  0  0  0  0  0  0  0  0
   12.3668  -14.1240    0.0000 C   0  0  0  0  0  0  0  0  0  0  0  0
   13.1637  -13.9105    0.0000 C   0  0  0  0  0  0  0  0  0  0  0  0
   13.3773  -13.1136    0.0000 C   0  0  0  0  0  0  0  0  0  0  0  0
   12.7939  -12.5302    0.0000 C   0  0  0  0  0  0  0  0  0  0  0  0
   13.7471  -14.4938    0.0000 O   0  0  0  0  0  0  0  0  0  0  0  0
   12.1533  -14.9209    0.0000 O   0  0  0  0  0  0  0  0  0  0  0  0
   12.7367  -15.5042    0.0000 C   0  0  0  0  0  0  0  0  0  0  0  0
    2.3808  -13.2265    0.0000 C   0  0  0  0  0  0  0  0  0  0  0  0
    1.5667  -13.0930    0.0000 C   0  0  0  0  0  0  0  0  0  0  0  0
    1.0441  -13.7313    0.0000 C   0  0  0  0  0  0  0  0  0  0  0  0
    1.3355  -14.5031    0.0000 C   0  0  0  0  0  0  0  0  0  0  0  0
    2.1496  -14.6366    0.0000 C   0  0  0  0  0  0  0  0  0  0  0  0
    2.6723  -13.9983    0.0000 C   0  0  0  0  0  0  0  0  0  0  0  0
    0.8128  -15.1414    0.0000 O   0  0  0  0  0  0  0  0  0  0  0  0
    2.9035  -12.5882    0.0000 C   0  0  0  0  0  0  0  0  0  0  0  0
    3.7176  -12.7216    0.0000 C   0  0  0  0  0  0  0  0  0  0  0  0
    4.2403  -12.0833    0.0000 C   0  0  0  0  0  0  0  0  0  0  0  0
    5.0544  -12.2168    0.0000 O   0  0  0  0  0  0  0  0  0  0  0  0
    4.0091  -13.4934    0.0000 H   0  0  0  0  0  0  0  0  0  0  0  0
    2.6121  -11.8164    0.0000 H   0  0  0  0  0  0  0  0  0  0  0  0
    5.1329   -5.9003    0.0000 C   0  0  0  0  0  0  0  0  0  0  0  0
    5.8542   -5.5000    0.0000 C   0  0  0  0  0  0  0  0  0  0  0  0
    5.8682   -4.6751    0.0000 C   0  0  0  0  0  0  0  0  0  0  0  0
    5.1608   -4.2505    0.0000 C   0  0  0  0  0  0  0  0  0  0  0  0
    4.4395   -4.6509    0.0000 C   0  0  0  0  0  0  0  0  0  0  0  0
    4.4255   -5.4758    0.0000 C   0  0  0  0  0  0  0  0  0  0  0  0
    5.1748   -3.4257    0.0000 O   0  0  0  0  0  0  0  0  0  0  0  0
    5.1189   -6.7252    0.0000 C   0  0  0  0  0  0  0  0  0  0  0  0
    4.3976   -7.1255    0.0000 C   0  0  0  0  0  0  0  0  0  0  0  0
    4.3836   -7.9504    0.0000 C   0  0  0  0  0  0  0  0  0  0  0  0
    5.0910   -8.3750    0.0000 O   0  0  0  0  0  0  0  0  0  0  0  0
    3.6622   -8.3508    0.0000 O   0  0  0  0  0  0  0  0  0  0  0  0
    3.6902   -6.7010    0.0000 H   0  0  0  0  0  0  0  0  0  0  0  0
    5.8263   -7.1497    0.0000 H   0  0  0  0  0  0  0  0  0  0  0  0
    9.6034   -9.9410    0.0000 C   0  0  0  0  0  0  0  0  0  0  0  0
   10.2739  -10.4217    0.0000 C   0  0  0  0  0  0  0  0  0  0  0  0
   11.0255  -10.0813    0.0000 C   0  0  0  0  0  0  0  0  0  0  0  0
   11.1065   -9.2603    0.0000 C   0  0  0  0  0  0  0  0  0  0  0  0
   10.4359   -8.7797    0.0000 C   0  0  0  0  0  0  0  0  0  0  0  0
    9.6844   -9.1200    0.0000 C   0  0  0  0  0  0  0  0  0  0  0  0
   11.8580   -8.9200    0.0000 O   0  0  0  0  0  0  0  0  0  0  0  0
    8.8519  -10.2814    0.0000 C   0  0  0  0  0  0  0  0  0  0  0  0
    8.1814   -9.8008    0.0000 C   0  0  0  0  0  0  0  0  0  0  0  0
    7.4299  -10.1411    0.0000 C   0  0  0  0  0  0  0  0  0  0  0  0
    6.7594   -9.6605    0.0000 O   0  0  0  0  0  0  0  0  0  0  0  0
    8.2624   -8.9797    0.0000 H   0  0  0  0  0  0  0  0  0  0  0  0
    8.7709  -11.1024    0.0000 H   0  0  0  0  0  0  0  0  0  0  0  0
  1  2  1  0  0  0  0
  2  3  1  0  0  0  0
  3  4  1  0  0  0  0
  4  5  1  0  0  0  0
  5  6  1  0  0  0  0
  6  1  1  0  0  0  0
  1  7  1  1  0  0  0
  2  8  1  1  0  0  0
  4  9  1  1  0  0  0
  3 10  1  6  0  0  0
  5 11  1  6  0  0  0
 12  7  1  6  0  0  0
 12 13  1  0  0  0  0
 13 14  1  0  0  0  0
 14 15  1  0  0  0  0
 15 16  1  0  0  0  0
 16 12  1  0  0  0  0
 15 17  1  6  0  0  0
 16 18  1  1  0  0  0
 14 19  1  1  0  0  0
 12 20  1  0  0  0  0
 20 21  1  0  0  0  0
 11 22  1  0  0  0  0
 22 23  1  0  0  0  0
 23 24  2  0  0  0  0
 23 25  1  0  0  0  0
 25 26  2  0  0  0  0
 25 27  1  0  0  0  0
 26 28  1  0  0  0  0
 26 29  1  0  0  0  0
 28 30  2  0  0  0  0
 30 31  1  0  0  0  0
 31 32  2  0  0  0  0
 32 33  1  0  0  0  0
 33 34  2  0  0  0  0
 34 28  1  0  0  0  0
 32 35  1  0  0  0  0
 31 36  1  0  0  0  0
 36 37  1  0  0  0  0
 38 39  2  0  0  0  0
 39 40  1  0  0  0  0
 40 41  2  0  0  0  0
 41 42  1  0  0  0  0
 42 43  2  0  0  0  0
 43 38  1  0  0  0  0
 41 44  1  0  0  0  0
 38 45  1  0  0  0  0
 45 46  2  0  0  0  0
 46 47  1  0  0  0  0
 47 48  2  0  0  0  0
 46 49  1  0  0  0  0
 45 50  1  0  0  0  0
 51 52  2  0  0  0  0
 52 53  1  0  0  0  0
 53 54  2  0  0  0  0
 54 55  1  0  0  0  0
 55 56  2  0  0  0  0
 56 51  1  0  0  0  0
 54 57  1  0  0  0  0
 51 58  1  0  0  0  0
 58 59  2  0  0  0  0
 59 60  1  0  0  0  0
 60 61  1  0  0  0  0
 60 62  2  0  0  0  0
 59 63  1  0  0  0  0
 58 64  1  0  0  0  0
 65 66  2  0  0  0  0
 66 67  1  0  0  0  0
 67 68  2  0  0  0  0
 68 69  1  0  0  0  0
 69 70  2  0  0  0  0
 70 65  1  0  0  0  0
 68 71  1  0  0  0  0
 65 72  1  0  0  0  0
 72 73  2  0  0  0  0
 73 74  1  0  0  0  0
 74 75  2  0  0  0  0
 73 76  1  0  0  0  0
 72 77  1  0  0  0  0
 21 74  1  0  0  0  0
 47 18  1  0  0  0  0
 19 61  1  0  0  0  0
M  END
>  <cdx:fragmentId>
5

$$$$
