50100.cdx
  Mrv1902 05222410222D          

 20 22  0  0  0  0            999 V2000
    4.1024   -8.4150    0.0000 C   0  0  0  0  0  0  0  0  0  0  0  0
    4.1024   -9.2400    0.0000 C   0  0  0  0  0  0  0  0  0  0  0  0
    4.8169   -9.6525    0.0000 C   0  0  0  0  0  0  0  0  0  0  0  0
    5.5314   -9.2400    0.0000 C   0  0  0  0  0  0  0  0  0  0  0  0
    5.5314   -8.4150    0.0000 C   0  0  0  0  0  0  0  0  0  0  0  0
    4.8169   -8.0025    0.0000 C   0  0  0  0  0  0  0  0  0  0  0  0
    6.2458   -9.6525    0.0000 C   0  0  0  0  0  0  0  0  0  0  0  0
    6.9603   -9.2400    0.0000 C   0  0  0  0  0  0  0  0  0  0  0  0
    6.9603   -8.4150    0.0000 C   0  0  0  0  0  0  0  0  0  0  0  0
    6.2458   -8.0025    0.0000 C   0  0  0  0  0  0  0  0  0  0  0  0
    7.6748   -9.6525    0.0000 C   0  0  0  0  0  0  0  0  0  0  0  0
    8.3893   -9.2400    0.0000 C   0  0  0  0  0  0  0  0  0  0  0  0
    8.3893   -8.4150    0.0000 C   0  0  0  0  0  0  0  0  0  0  0  0
    7.6748   -8.0025    0.0000 C   0  0  0  0  0  0  0  0  0  0  0  0
    3.3880   -9.6525    0.0000 O   0  0  0  0  0  0  0  0  0  0  0  0
    6.2458   -7.1775    0.0000 O   0  0  0  0  0  0  0  0  0  0  0  0
    6.2458  -10.4775    0.0000 O   0  0  0  0  0  0  0  0  0  0  0  0
    7.6748   -7.1775    0.0000 O   0  0  0  0  0  0  0  0  0  0  0  0
    9.1037   -8.0025    0.0000 C   0  0  0  0  0  0  0  0  0  0  0  0
    9.1037   -9.6525    0.0000 O   0  0  0  0  0  0  0  0  0  0  0  0
  1  2  1  0  0  0  0
  2  3  2  0  0  0  0
  3  4  1  0  0  0  0
  4  5  2  0  0  0  0
  5  6  1  0  0  0  0
  6  1  2  0  0  0  0
  4  7  1  0  0  0  0
  7  8  1  0  0  0  0
  8  9  2  0  0  0  0
  9 10  1  0  0  0  0
 10  5  1  0  0  0  0
  8 11  1  0  0  0  0
 11 12  2  0  0  0  0
 12 13  1  0  0  0  0
 13 14  2  0  0  0  0
 14  9  1  0  0  0  0
  2 15  1  0  0  0  0
 10 16  2  0  0  0  0
  7 17  2  0  0  0  0
 14 18  1  0  0  0  0
 13 19  1  0  0  0  0
 12 20  1  0  0  0  0
M  END
>  <cdx:fragmentId>
5

$$$$
