50105.cdx
  Mrv1902 05222410202D          

 22 24  0  0  0  0            999 V2000
    5.2712   -6.6550    0.0000 C   0  0  0  0  0  0  0  0  0  0  0  0
    5.2712   -7.4800    0.0000 C   0  0  0  0  0  0  0  0  0  0  0  0
    5.9856   -7.8925    0.0000 C   0  0  0  0  0  0  0  0  0  0  0  0
    6.7001   -7.4800    0.0000 C   0  0  0  0  0  0  0  0  0  0  0  0
    6.7001   -6.6550    0.0000 C   0  0  0  0  0  0  0  0  0  0  0  0
    5.9856   -6.2425    0.0000 C   0  0  0  0  0  0  0  0  0  0  0  0
    7.4146   -7.8925    0.0000 O   0  0  0  0  0  0  0  0  0  0  0  0
    8.1291   -7.4800    0.0000 C   0  0  0  0  0  0  0  0  0  0  0  0
    8.1291   -6.6550    0.0000 C   0  0  0  0  0  0  0  0  0  0  0  0
    7.4146   -6.2425    0.0000 C   0  0  0  0  0  0  0  0  0  0  0  0
    8.8435   -7.8925    0.0000 C   0  0  0  0  0  0  0  0  0  0  0  0
    9.5580   -7.4800    0.0000 C   0  0  0  0  0  0  0  0  0  0  0  0
    9.5580   -6.6550    0.0000 C   0  0  0  0  0  0  0  0  0  0  0  0
    8.8435   -6.2425    0.0000 C   0  0  0  0  0  0  0  0  0  0  0  0
    4.5567   -6.2425    0.0000 O   0  0  0  0  0  0  0  0  0  0  0  0
    7.4146   -5.4175    0.0000 O   0  0  0  0  0  0  0  0  0  0  0  0
    8.8435   -5.4175    0.0000 O   0  0  0  0  0  0  0  0  0  0  0  0
   10.2725   -7.8925    0.0000 O   0  0  0  0  0  0  0  0  0  0  0  0
   10.2725   -6.2425    0.0000 O   0  0  0  0  0  0  0  0  0  0  0  0
   10.9869   -6.6550    0.0000 C   0  0  0  0  0  0  0  0  0  0  0  0
    4.5567   -7.8925    0.0000 O   0  0  0  0  0  0  0  0  0  0  0  0
    3.8422   -7.4800    0.0000 C   0  0  0  0  0  0  0  0  0  0  0  0
  1  2  2  0  0  0  0
  2  3  1  0  0  0  0
  3  4  2  0  0  0  0
  4  5  1  0  0  0  0
  5  6  2  0  0  0  0
  6  1  1  0  0  0  0
  4  7  1  0  0  0  0
  7  8  1  0  0  0  0
  8  9  2  0  0  0  0
  9 10  1  0  0  0  0
 10  5  1  0  0  0  0
  8 11  1  0  0  0  0
 11 12  2  0  0  0  0
 12 13  1  0  0  0  0
 13 14  2  0  0  0  0
 14  9  1  0  0  0  0
  1 15  1  0  0  0  0
 10 16  2  0  0  0  0
 14 17  1  0  0  0  0
 12 18  1  0  0  0  0
 13 19  1  0  0  0  0
 19 20  1  0  0  0  0
  2 21  1  0  0  0  0
 21 22  1  0  0  0  0
M  END
>  <cdx:fragmentId>
5

$$$$
