50112.cdx
  Mrv1902 05222410212D          

 13 14  0  0  0  0            999 V2000
    5.0306   -7.3838    0.0000 C   0  0  0  0  0  0  0  0  0  0  0  0
    5.0306   -8.2088    0.0000 C   0  0  0  0  0  0  0  0  0  0  0  0
    5.7450   -8.6212    0.0000 C   0  0  0  0  0  0  0  0  0  0  0  0
    6.4595   -8.2088    0.0000 C   0  0  0  0  0  0  0  0  0  0  0  0
    6.4595   -7.3838    0.0000 C   0  0  0  0  0  0  0  0  0  0  0  0
    5.7450   -6.9712    0.0000 C   0  0  0  0  0  0  0  0  0  0  0  0
    7.1740   -8.6212    0.0000 C   0  0  0  0  0  0  0  0  0  0  0  0
    7.8884   -8.2088    0.0000 C   0  0  0  0  0  0  0  0  0  0  0  0
    7.8884   -7.3838    0.0000 C   0  0  0  0  0  0  0  0  0  0  0  0
    7.1740   -6.9712    0.0000 C   0  0  0  0  0  0  0  0  0  0  0  0
    5.7450   -9.4462    0.0000 C   0  0  0  0  0  0  0  0  0  0  0  0
    5.7450   -6.1463    0.0000 C   0  0  0  0  0  0  0  0  0  0  0  0
    8.6029   -8.6212    0.0000 C   0  0  0  0  0  0  0  0  0  0  0  0
  1  2  2  0  0  0  0
  2  3  1  0  0  0  0
  3  4  2  0  0  0  0
  4  5  1  0  0  0  0
  5  6  2  0  0  0  0
  6  1  1  0  0  0  0
  4  7  1  0  0  0  0
  7  8  2  0  0  0  0
  8  9  1  0  0  0  0
  9 10  2  0  0  0  0
 10  5  1  0  0  0  0
  3 11  1  0  0  0  0
  6 12  1  0  0  0  0
  8 13  1  0  0  0  0
M  END
>  <cdx:fragmentId>
5

$$$$
