50114.cdx
  Mrv1902 05222410222D          

 30 33  0  0  0  0            999 V2000
    4.8587   -4.4688    0.0000 C   0  0  0  0  0  0  0  0  0  0  0  0
    4.8587   -5.2938    0.0000 C   0  0  0  0  0  0  0  0  0  0  0  0
    5.5731   -5.7062    0.0000 C   0  0  0  0  0  0  0  0  0  0  0  0
    6.2876   -5.2938    0.0000 C   0  0  2  0  0  0  0  0  0  0  0  0
    6.2876   -4.4688    0.0000 C   0  0  2  0  0  0  0  0  0  0  0  0
    5.5731   -4.0563    0.0000 C   0  0  1  0  0  0  0  0  0  0  0  0
    7.0021   -5.7062    0.0000 C   0  0  1  0  0  0  0  0  0  0  0  0
    7.7166   -5.2938    0.0000 C   0  0  1  0  0  0  0  0  0  0  0  0
    7.7166   -4.4688    0.0000 C   0  0  0  0  0  0  0  0  0  0  0  0
    7.0021   -4.0563    0.0000 C   0  0  0  0  0  0  0  0  0  0  0  0
    6.2876   -3.6437    0.0000 C   0  0  0  0  0  0  0  0  0  0  0  0
    6.2876   -6.1188    0.0000 H   0  0  0  0  0  0  0  0  0  0  0  0
    8.4310   -5.7062    0.0000 C   0  0  0  0  0  0  0  0  0  0  0  0
    5.1606   -3.3418    0.0000 H   0  0  0  0  0  0  0  0  0  0  0  0
    5.7867   -4.8531    0.0000 O   0  0  0  0  0  0  0  0  0  0  0  0
    8.4310   -6.5313    0.0000 C   0  0  0  0  0  0  0  0  0  0  0  0
    9.1455   -5.2938    0.0000 C   0  0  0  0  0  0  0  0  0  0  0  0
    5.5731   -6.5313    0.0000 C   0  0  0  0  0  0  0  0  0  0  0  0
    5.3601   -8.0729    0.0000 C   0  0  2  0  0  0  0  0  0  0  0  0
    5.7782   -8.7841    0.0000 C   0  0  2  0  0  0  0  0  0  0  0  0
    6.6032   -8.7777    0.0000 C   0  0  1  0  0  0  0  0  0  0  0  0
    7.0101   -8.0600    0.0000 C   0  0  2  0  0  0  0  0  0  0  0  0
    6.5920   -7.3488    0.0000 C   0  0  1  0  0  0  0  0  0  0  0  0
    5.7670   -7.3552    0.0000 O   0  0  0  0  0  0  0  0  0  0  0  0
    6.9989   -6.6311    0.0000 O   0  0  0  0  0  0  0  0  0  0  0  0
    4.5352   -8.0794    0.0000 C   0  0  0  0  0  0  0  0  0  0  0  0
    7.0213   -9.4889    0.0000 O   0  0  0  0  0  0  0  0  0  0  0  0
    7.8351   -8.0536    0.0000 O   0  0  0  0  0  0  0  0  0  0  0  0
    5.3713   -9.5018    0.0000 O   0  0  0  0  0  0  0  0  0  0  0  0
    4.1283   -8.7970    0.0000 O   0  0  0  0  0  0  0  0  0  0  0  0
  1  2  1  0  0  0  0
  2  3  1  0  0  0  0
  3  4  1  0  0  0  0
  4  5  1  0  0  0  0
  5  6  1  0  0  0  0
  6  1  1  0  0  0  0
  4  7  1  0  0  0  0
  7  8  1  0  0  0  0
  8  9  1  0  0  0  0
  9 10  1  0  0  0  0
 10  5  1  0  0  0  0
  5 11  1  1  0  0  0
  4 12  1  1  0  0  0
  8 13  1  1  0  0  0
  6 14  1  6  0  0  0
  6 15  1  0  0  0  0
  3 15  1  0  0  0  0
 13 16  1  0  0  0  0
 13 17  1  0  0  0  0
  3 18  1  0  0  0  0
 19 20  1  0  0  0  0
 20 21  1  0  0  0  0
 21 22  1  0  0  0  0
 22 23  1  0  0  0  0
 23 24  1  0  0  0  0
 24 19  1  0  0  0  0
 23 25  1  1  0  0  0
 19 26  1  1  0  0  0
 21 27  1  1  0  0  0
 22 28  1  6  0  0  0
 20 29  1  6  0  0  0
 26 30  1  0  0  0  0
  7 25  1  1  0  0  0
M  END
>  <cdx:fragmentId>
6

$$$$
