50111.cdx
  Mrv1902 05222410202D          

 44 47  0  0  0  0            999 V2000
    5.7387   -8.6487    0.0000 C   0  0  2  0  0  0  0  0  0  0  0  0
    5.7387   -9.4738    0.0000 C   0  0  2  0  0  0  0  0  0  0  0  0
    6.4531   -9.8863    0.0000 C   0  0  1  0  0  0  0  0  0  0  0  0
    7.1676   -9.4738    0.0000 C   0  0  2  0  0  0  0  0  0  0  0  0
    7.1676   -8.6487    0.0000 C   0  0  1  0  0  0  0  0  0  0  0  0
    6.4531   -8.2363    0.0000 O   0  0  0  0  0  0  0  0  0  0  0  0
    5.0242   -8.2363    0.0000 C   0  0  0  0  0  0  0  0  0  0  0  0
    7.8821   -8.2363    0.0000 O   0  0  0  0  0  0  0  0  0  0  0  0
    5.0242   -9.8863    0.0000 O   0  0  0  0  0  0  0  0  0  0  0  0
    7.8821   -9.8863    0.0000 O   0  0  0  0  0  0  0  0  0  0  0  0
    4.3097   -8.6487    0.0000 O   0  0  0  0  0  0  0  0  0  0  0  0
    8.5966   -9.4738    0.0000 C   0  0  0  0  0  0  0  0  0  0  0  0
    9.3110   -9.8863    0.0000 C   0  0  0  0  0  0  0  0  0  0  0  0
    8.5966   -8.6487    0.0000 O   0  0  0  0  0  0  0  0  0  0  0  0
   10.0255   -9.4738    0.0000 C   0  0  0  0  0  0  0  0  0  0  0  0
   10.7400   -9.8863    0.0000 C   0  0  0  0  0  0  0  0  0  0  0  0
   10.7400  -10.7112    0.0000 C   0  0  0  0  0  0  0  0  0  0  0  0
   11.4544  -11.1237    0.0000 C   0  0  0  0  0  0  0  0  0  0  0  0
   12.1689  -10.7112    0.0000 C   0  0  0  0  0  0  0  0  0  0  0  0
   12.1689   -9.8863    0.0000 C   0  0  0  0  0  0  0  0  0  0  0  0
   11.4544   -9.4738    0.0000 C   0  0  0  0  0  0  0  0  0  0  0  0
    8.6124   -6.1737    0.0000 C   0  0  0  0  0  0  0  0  0  0  0  0
    8.6124   -6.9988    0.0000 C   0  0  0  0  0  0  0  0  0  0  0  0
    9.3269   -7.4112    0.0000 C   0  0  0  0  0  0  0  0  0  0  0  0
   10.0414   -6.9988    0.0000 C   0  0  0  0  0  0  0  0  0  0  0  0
   10.0414   -6.1737    0.0000 C   0  0  0  0  0  0  0  0  0  0  0  0
    9.3269   -5.7612    0.0000 C   0  0  0  0  0  0  0  0  0  0  0  0
    7.8980   -7.4112    0.0000 C   0  0  0  0  0  0  0  0  0  0  0  0
    7.1835   -6.9988    0.0000 O   0  0  0  0  0  0  0  0  0  0  0  0
    9.3269   -4.9363    0.0000 O   0  0  0  0  0  0  0  0  0  0  0  0
   10.7558   -5.7612    0.0000 O   0  0  0  0  0  0  0  0  0  0  0  0
   10.7558   -7.4112    0.0000 O   0  0  0  0  0  0  0  0  0  0  0  0
    7.1294  -13.6063    0.0000 O   0  0  0  0  0  0  0  0  0  0  0  0
    5.6931  -14.4185    0.0000 O   0  0  0  0  0  0  0  0  0  0  0  0
    4.2716  -13.5807    0.0000 O   0  0  0  0  0  0  0  0  0  0  0  0
    5.0119  -10.6997    0.0000 O   0  0  0  0  0  0  0  0  0  0  0  0
    5.7226  -11.1186    0.0000 C   0  0  0  0  0  0  0  0  0  0  0  0
    4.9898  -13.1746    0.0000 C   0  0  0  0  0  0  0  0  0  0  0  0
    5.7005  -13.5935    0.0000 C   0  0  0  0  0  0  0  0  0  0  0  0
    6.4186  -13.1874    0.0000 C   0  0  0  0  0  0  0  0  0  0  0  0
    6.4260  -12.3624    0.0000 C   0  0  0  0  0  0  0  0  0  0  0  0
    5.7153  -11.9436    0.0000 C   0  0  0  0  0  0  0  0  0  0  0  0
    4.9971  -12.3497    0.0000 C   0  0  0  0  0  0  0  0  0  0  0  0
    6.4531  -10.7112    0.0000 O   0  0  0  0  0  0  0  0  0  0  0  0
  1  2  1  0  0  0  0
  2  3  1  0  0  0  0
  3  4  1  0  0  0  0
  4  5  1  0  0  0  0
  5  6  1  0  0  0  0
  6  1  1  0  0  0  0
  1  7  1  1  0  0  0
 37 44  1  0  0  0  0
  3 44  1  1  0  0  0
  5  8  1  1  0  0  0
  2  9  1  6  0  0  0
  4 10  1  6  0  0  0
  7 11  1  0  0  0  0
 10 12  1  0  0  0  0
 12 13  1  0  0  0  0
 12 14  2  0  0  0  0
 13 15  2  0  0  0  0
 15 16  1  0  0  0  0
 16 17  2  0  0  0  0
 17 18  1  0  0  0  0
 18 19  2  0  0  0  0
 19 20  1  0  0  0  0
 20 21  2  0  0  0  0
 21 16  1  0  0  0  0
 22 23  2  0  0  0  0
 23 24  1  0  0  0  0
 24 25  2  0  0  0  0
 25 26  1  0  0  0  0
 26 27  2  0  0  0  0
 27 22  1  0  0  0  0
 23 28  1  0  0  0  0
 28 29  2  0  0  0  0
 27 30  1  0  0  0  0
 26 31  1  0  0  0  0
 25 32  1  0  0  0  0
 40 33  1  0  0  0  0
 39 34  1  0  0  0  0
 38 35  1  0  0  0  0
 37 36  2  0  0  0  0
 42 37  1  0  0  0  0
 38 43  1  0  0  0  0
 39 38  2  0  0  0  0
 40 39  1  0  0  0  0
 41 40  2  0  0  0  0
 42 41  1  0  0  0  0
 43 42  2  0  0  0  0
 28  8  1  0  0  0  0
M  END
>  <cdx:fragmentId>
5

$$$$
