50110.cdx
  Mrv1902 05222410212D          

 24 26  0  0  0  0            999 V2000
    6.6065   -6.8892    0.0000 N   0  0  0  0  0  0  0  0  0  0  0  0
    7.0914   -7.5567    0.0000 C   0  0  0  0  0  0  0  0  0  0  0  0
    9.1539   -9.7001    0.0000 N   0  3  0  0  0  0  0  0  0  0  0  0
    8.3289   -9.7001    0.0000 O   0  0  0  0  0  0  0  0  0  0  0  0
    6.6065   -8.2241    0.0000 N   0  0  0  0  0  0  0  0  0  0  0  0
    5.8219   -7.9692    0.0000 C   0  0  0  0  0  0  0  0  0  0  0  0
    5.1074   -8.3817    0.0000 N   0  0  0  0  0  0  0  0  0  0  0  0
    4.3929   -7.9692    0.0000 C   0  0  0  0  0  0  0  0  0  0  0  0
    4.3929   -7.1442    0.0000 N   0  0  0  0  0  0  0  0  0  0  0  0
    5.1074   -6.7317    0.0000 C   0  0  0  0  0  0  0  0  0  0  0  0
    5.8219   -7.1442    0.0000 C   0  0  0  0  0  0  0  0  0  0  0  0
    3.6785   -8.3817    0.0000 O   0  0  0  0  0  0  0  0  0  0  0  0
    5.1074   -5.9067    0.0000 O   0  0  0  0  0  0  0  0  0  0  0  0
    5.1074   -9.2067    0.0000 C   0  0  0  0  0  0  0  0  0  0  0  0
    3.6785   -6.7317    0.0000 C   0  0  0  0  0  0  0  0  0  0  0  0
    9.5664  -10.4146    0.0000 O   0  5  0  0  0  0  0  0  0  0  0  0
    9.5664   -7.5567    0.0000 C   0  0  0  0  0  0  0  0  0  0  0  0
   10.3914   -7.5567    0.0000 C   0  0  0  0  0  0  0  0  0  0  0  0
   10.8039   -8.2712    0.0000 C   0  0  0  0  0  0  0  0  0  0  0  0
   10.3914   -8.9856    0.0000 C   0  0  0  0  0  0  0  0  0  0  0  0
    9.5664   -8.9856    0.0000 C   0  0  0  0  0  0  0  0  0  0  0  0
    9.1539   -8.2712    0.0000 C   0  0  0  0  0  0  0  0  0  0  0  0
    8.3289   -8.2712    0.0000 C   0  0  0  0  0  0  0  0  0  0  0  0
    7.9164   -7.5567    0.0000 C   0  0  0  0  0  0  0  0  0  0  0  0
  2 24  1  0  0  0  0
 23 22  1  0  0  0  0
 21  3  1  0  0  0  0
 22 17  2  0  0  0  0
 18 17  1  0  0  0  0
 19 18  2  0  0  0  0
 20 19  1  0  0  0  0
 21 20  2  0  0  0  0
 22 21  1  0  0  0  0
 24 23  2  0  0  0  0
  1  2  1  0  0  0  0
  2  5  2  0  0  0  0
  5  6  1  0  0  0  0
  3  4  2  0  0  0  0
  3 16  1  0  0  0  0
  6  7  1  0  0  0  0
  7  8  1  0  0  0  0
  8  9  1  0  0  0  0
  9 10  1  0  0  0  0
 10 11  1  0  0  0  0
  1 11  1  0  0  0  0
  6 11  2  0  0  0  0
  8 12  2  0  0  0  0
 10 13  2  0  0  0  0
  7 14  1  0  0  0  0
  9 15  1  0  0  0  0
M  CHG  2   3   1  16  -1
M  END
>  <cdx:fragmentId>
5

$$$$
