50121.cdx
  Mrv1902 05222410252D          

 11 10  0  0  0  0            999 V2000
    8.8763   -8.4448    0.0000 C   0  0  0  0  0  0  0  0  0  0  0  0
    8.1619   -8.8573    0.0000 C   0  0  0  0  0  0  0  0  0  0  0  0
    7.4474   -8.4448    0.0000 C   0  0  0  0  0  0  0  0  0  0  0  0
    6.7329   -8.8573    0.0000 C   0  0  0  0  0  0  0  0  0  0  0  0
    6.0184   -8.4448    0.0000 C   0  0  0  0  0  0  0  0  0  0  0  0
    5.3040   -8.8573    0.0000 O   0  0  0  0  0  0  0  0  0  0  0  0
    4.5895   -8.4448    0.0000 C   0  0  0  0  0  0  0  0  0  0  0  0
    3.8750   -8.8573    0.0000 C   0  0  0  0  0  0  0  0  0  0  0  0
    6.0184   -7.6198    0.0000 C   0  0  0  0  0  0  0  0  0  0  0  0
    6.7329   -7.2073    0.0000 C   0  0  0  0  0  0  0  0  0  0  0  0
    4.5895   -7.6198    0.0000 O   0  0  0  0  0  0  0  0  0  0  0  0
  1  2  1  0  0  0  0
  2  3  1  0  0  0  0
  3  4  1  0  0  0  0
  4  5  1  0  0  0  0
  5  6  1  0  0  0  0
  6  7  1  0  0  0  0
  7  8  1  0  0  0  0
  5  9  1  0  0  0  0
  9 10  2  0  0  0  0
  7 11  2  0  0  0  0
M  END
>  <cdx:fragmentId>
3

$$$$
