50122.cdx
  Mrv1902 05222410252D          

 22 24  0  0  0  0            999 V2000
    5.0787   -6.0833    0.0000 C   0  0  0  0  0  0  0  0  0  0  0  0
    5.0787   -6.9083    0.0000 C   0  0  0  0  0  0  0  0  0  0  0  0
    5.7931   -7.3208    0.0000 C   0  0  0  0  0  0  0  0  0  0  0  0
    6.5076   -6.9083    0.0000 C   0  0  0  0  0  0  0  0  0  0  0  0
    6.5076   -6.0833    0.0000 C   0  0  0  0  0  0  0  0  0  0  0  0
    5.7931   -5.6708    0.0000 C   0  0  0  0  0  0  0  0  0  0  0  0
    7.2221   -7.3208    0.0000 O   0  0  0  0  0  0  0  0  0  0  0  0
    7.9366   -6.9083    0.0000 C   0  0  0  0  0  0  0  0  0  0  0  0
    7.9366   -6.0833    0.0000 C   0  0  0  0  0  0  0  0  0  0  0  0
    7.2221   -5.6708    0.0000 C   0  0  0  0  0  0  0  0  0  0  0  0
    8.6510   -7.3208    0.0000 C   0  0  0  0  0  0  0  0  0  0  0  0
    9.3655   -6.9083    0.0000 C   0  0  0  0  0  0  0  0  0  0  0  0
    9.3655   -6.0833    0.0000 C   0  0  0  0  0  0  0  0  0  0  0  0
    8.6510   -5.6708    0.0000 C   0  0  0  0  0  0  0  0  0  0  0  0
    4.3642   -7.3208    0.0000 O   0  0  0  0  0  0  0  0  0  0  0  0
    3.6497   -6.9083    0.0000 C   0  0  0  0  0  0  0  0  0  0  0  0
    4.3642   -5.6708    0.0000 O   0  0  0  0  0  0  0  0  0  0  0  0
    3.6497   -6.0833    0.0000 C   0  0  0  0  0  0  0  0  0  0  0  0
    7.2221   -4.8458    0.0000 O   0  0  0  0  0  0  0  0  0  0  0  0
    8.6510   -4.8458    0.0000 O   0  0  0  0  0  0  0  0  0  0  0  0
   10.0800   -7.3208    0.0000 O   0  0  0  0  0  0  0  0  0  0  0  0
   10.7944   -6.9083    0.0000 C   0  0  0  0  0  0  0  0  0  0  0  0
  1  2  2  0  0  0  0
  2  3  1  0  0  0  0
  3  4  2  0  0  0  0
  4  5  1  0  0  0  0
  5  6  2  0  0  0  0
  6  1  1  0  0  0  0
  4  7  1  0  0  0  0
  7  8  1  0  0  0  0
  8  9  1  0  0  0  0
  9 10  1  0  0  0  0
 10  5  1  0  0  0  0
  8 11  2  0  0  0  0
 11 12  1  0  0  0  0
 12 13  2  0  0  0  0
 13 14  1  0  0  0  0
 14  9  2  0  0  0  0
  2 15  1  0  0  0  0
 15 16  1  0  0  0  0
  1 17  1  0  0  0  0
 17 18  1  0  0  0  0
 10 19  2  0  0  0  0
 14 20  1  0  0  0  0
 12 21  1  0  0  0  0
 21 22  1  0  0  0  0
M  END
>  <cdx:fragmentId>
5

$$$$
