50125.cdx
  Mrv1902 05222410232D          

 15 17  0  0  0  0            999 V2000
    4.3156   -7.3001    0.0000 C   0  0  0  0  0  0  0  0  0  0  0  0
    4.3156   -8.1251    0.0000 C   0  0  0  0  0  0  0  0  0  0  0  0
    5.0300   -8.5376    0.0000 C   0  0  0  0  0  0  0  0  0  0  0  0
    5.7445   -8.1251    0.0000 C   0  0  0  0  0  0  0  0  0  0  0  0
    5.7445   -7.3001    0.0000 C   0  0  0  0  0  0  0  0  0  0  0  0
    5.0300   -6.8876    0.0000 C   0  0  0  0  0  0  0  0  0  0  0  0
    6.4590   -8.5376    0.0000 C   0  0  0  0  0  0  0  0  0  0  0  0
    7.1734   -8.1251    0.0000 C   0  0  0  0  0  0  0  0  0  0  0  0
    7.1734   -7.3001    0.0000 C   0  0  0  0  0  0  0  0  0  0  0  0
    6.4590   -6.8876    0.0000 C   0  0  0  0  0  0  0  0  0  0  0  0
    7.8879   -8.5376    0.0000 C   0  0  0  0  0  0  0  0  0  0  0  0
    8.6024   -8.1251    0.0000 C   0  0  0  0  0  0  0  0  0  0  0  0
    8.6024   -7.3001    0.0000 C   0  0  0  0  0  0  0  0  0  0  0  0
    7.8879   -6.8876    0.0000 C   0  0  0  0  0  0  0  0  0  0  0  0
    7.8879   -6.0626    0.0000 C   0  0  0  0  0  0  0  0  0  0  0  0
  1  2  2  0  0  0  0
  2  3  1  0  0  0  0
  3  4  2  0  0  0  0
  4  5  1  0  0  0  0
  5  6  2  0  0  0  0
  6  1  1  0  0  0  0
  4  7  1  0  0  0  0
  7  8  2  0  0  0  0
  8  9  1  0  0  0  0
  9 10  2  0  0  0  0
 10  5  1  0  0  0  0
  8 11  1  0  0  0  0
 11 12  2  0  0  0  0
 12 13  1  0  0  0  0
 13 14  2  0  0  0  0
 14  9  1  0  0  0  0
 14 15  1  0  0  0  0
M  END
>  <cdx:fragmentId>
5

$$$$
