50120.cdx
  Mrv1902 05222410252D          

  8  8  0  0  0  0            999 V2000
    6.3411   -8.8981    0.0000 C   0  0  0  0  0  0  0  0  0  0  0  0
    6.5879   -9.6854    0.0000 C   0  0  0  0  0  0  0  0  0  0  0  0
    7.4128   -9.6940    0.0000 C   0  0  0  0  0  0  0  0  0  0  0  0
    7.6760   -8.9120    0.0000 C   0  0  0  0  0  0  0  0  0  0  0  0
    7.0136   -8.4202    0.0000 C   0  0  0  0  0  0  0  0  0  0  0  0
    7.0222   -7.5952    0.0000 C   0  0  0  0  0  0  0  0  0  0  0  0
    7.7367   -7.1827    0.0000 C   0  0  0  0  0  0  0  0  0  0  0  0
    8.3904   -8.4995    0.0000 C   0  0  0  0  0  0  0  0  0  0  0  0
  1  2  1  0  0  0  0
  2  3  1  0  0  0  0
  3  4  1  0  0  0  0
  4  5  1  0  0  0  0
  5  1  1  0  0  0  0
  5  6  1  0  0  0  0
  6  7  1  0  0  0  0
  4  8  1  0  0  0  0
M  END
>  <cdx:fragmentId>
5

$$$$
