50129.cdx
  Mrv1902 05222410232D          

 14 14  0  0  0  0            999 V2000
    6.0068   -6.4889    0.0000 C   0  0  2  0  0  0  0  0  0  0  0  0
    6.0068   -7.3139    0.0000 C   0  0  2  0  0  0  0  0  0  0  0  0
    6.7213   -7.7264    0.0000 C   0  0  1  0  0  0  0  0  0  0  0  0
    7.4357   -7.3139    0.0000 C   0  0  2  0  0  0  0  0  0  0  0  0
    7.4357   -6.4889    0.0000 C   0  0  1  0  0  0  0  0  0  0  0  0
    6.7213   -6.0764    0.0000 O   0  0  0  0  0  0  0  0  0  0  0  0
    5.2923   -6.0764    0.0000 C   0  0  0  0  0  0  0  0  0  0  0  0
    8.1502   -6.0764    0.0000 O   0  0  0  0  0  0  0  0  0  0  0  0
    6.7213   -8.5514    0.0000 O   0  0  0  0  0  0  0  0  0  0  0  0
    5.2923   -7.7264    0.0000 O   0  0  0  0  0  0  0  0  0  0  0  0
    8.1502   -7.7264    0.0000 O   0  0  0  0  0  0  0  0  0  0  0  0
    4.5779   -6.4889    0.0000 O   0  0  0  0  0  0  0  0  0  0  0  0
    8.8647   -6.4889    0.0000 C   0  0  0  0  0  0  0  0  0  0  0  0
    9.5792   -6.0764    0.0000 C   0  0  0  0  0  0  0  0  0  0  0  0
  1  2  1  0  0  0  0
  2  3  1  0  0  0  0
  3  4  1  0  0  0  0
  4  5  1  0  0  0  0
  5  6  1  0  0  0  0
  6  1  1  0  0  0  0
  1  7  1  1  0  0  0
  5  8  1  1  0  0  0
  3  9  1  1  0  0  0
  2 10  1  6  0  0  0
  4 11  1  6  0  0  0
  7 12  1  0  0  0  0
  8 13  1  0  0  0  0
 13 14  1  0  0  0  0
M  END
>  <cdx:fragmentId>
5

$$$$
