50126.cdx
  Mrv1902 05222410242D          

 13 12  0  0  0  0            999 V2000
    4.6950   -8.8197    0.0000 C   0  0  0  0  0  0  0  0  0  0  0  0
    3.9805   -9.2322    0.0000 C   0  0  0  0  0  0  0  0  0  0  0  0
    4.6950   -7.9947    0.0000 O   0  0  0  0  0  0  0  0  0  0  0  0
    5.4095   -9.2322    0.0000 O   0  0  0  0  0  0  0  0  0  0  0  0
    5.4095   -7.5822    0.0000 C   0  0  0  0  0  0  0  0  0  0  0  0
    6.1239   -7.9947    0.0000 C   0  0  0  0  0  0  0  0  0  0  0  0
    6.1239   -8.8197    0.0000 C   0  0  0  0  0  0  0  0  0  0  0  0
    6.8384   -9.2322    0.0000 C   0  0  0  0  0  0  0  0  0  0  0  0
    7.5529   -8.8197    0.0000 C   0  0  0  0  0  0  0  0  0  0  0  0
    8.2674   -9.2322    0.0000 C   0  0  0  0  0  0  0  0  0  0  0  0
    8.9818   -8.8197    0.0000 C   0  0  0  0  0  0  0  0  0  0  0  0
    9.6963   -9.2322    0.0000 C   0  0  0  0  0  0  0  0  0  0  0  0
   10.4108   -8.8197    0.0000 C   0  0  0  0  0  0  0  0  0  0  0  0
  1  2  1  0  0  0  0
  1  3  2  0  0  0  0
  1  4  1  0  0  0  0
  5  6  2  0  0  0  0
  6  7  1  0  0  0  0
  7  8  1  0  0  0  0
  8  9  1  0  0  0  0
  9 10  1  0  0  0  0
 10 11  1  0  0  0  0
 11 12  1  0  0  0  0
 12 13  1  0  0  0  0
  4  7  1  0  0  0  0
M  END
>  <cdx:fragmentId>
13

$$$$
