50131.cdx
  Mrv1902 05222410232D          

 17 17  0  0  0  0            999 V2000
    6.6393   -6.1589    0.0000 C   0  0  0  0  0  0  0  0  0  0  0  0
    6.6393   -6.9839    0.0000 C   0  0  0  0  0  0  0  0  0  0  0  0
    7.3538   -7.3964    0.0000 C   0  0  0  0  0  0  0  0  0  0  0  0
    8.0682   -6.9839    0.0000 C   0  0  0  0  0  0  0  0  0  0  0  0
    8.0682   -6.1589    0.0000 C   0  0  0  0  0  0  0  0  0  0  0  0
    7.3538   -5.7464    0.0000 C   0  0  0  0  0  0  0  0  0  0  0  0
    5.9248   -5.7464    0.0000 O   0  0  0  0  0  0  0  0  0  0  0  0
    7.3538   -4.9214    0.0000 O   0  0  0  0  0  0  0  0  0  0  0  0
    8.7827   -5.7464    0.0000 O   0  0  0  0  0  0  0  0  0  0  0  0
    7.3538   -8.2214    0.0000 C   0  0  0  0  0  0  0  0  0  0  0  0
    6.6393   -8.6339    0.0000 O   0  0  0  0  0  0  0  0  0  0  0  0
    8.0682   -8.6339    0.0000 O   0  0  0  0  0  0  0  0  0  0  0  0
    6.6393   -9.4589    0.0000 C   0  0  0  0  0  0  0  0  0  0  0  0
    5.9248   -9.8714    0.0000 C   0  0  0  0  0  0  0  0  0  0  0  0
    5.9248  -10.6964    0.0000 C   0  0  0  0  0  0  0  0  0  0  0  0
    5.2104  -11.1089    0.0000 O   0  0  0  0  0  0  0  0  0  0  0  0
    5.2104   -9.4589    0.0000 O   0  0  0  0  0  0  0  0  0  0  0  0
  1  2  2  0  0  0  0
  2  3  1  0  0  0  0
  3  4  2  0  0  0  0
  4  5  1  0  0  0  0
  5  6  2  0  0  0  0
  6  1  1  0  0  0  0
  1  7  1  0  0  0  0
  6  8  1  0  0  0  0
  5  9  1  0  0  0  0
  3 10  1  0  0  0  0
 10 11  1  0  0  0  0
 10 12  2  0  0  0  0
 11 13  1  0  0  0  0
 13 14  1  0  0  0  0
 14 15  1  0  0  0  0
 15 16  1  0  0  0  0
 14 17  1  0  0  0  0
M  END
>  <cdx:fragmentId>
5

$$$$
