50134.cdx
  Mrv1902 05222410252D          

 47 51  0  0  0  0            999 V2000
    9.1418   -8.1114    0.0000 C   0  0  0  0  0  0  0  0  0  0  0  0
    9.1418   -8.9364    0.0000 C   0  0  0  0  0  0  0  0  0  0  0  0
    9.8563   -9.3489    0.0000 C   0  0  0  0  0  0  0  0  0  0  0  0
   10.5707   -8.9364    0.0000 C   0  0  0  0  0  0  0  0  0  0  0  0
   10.5707   -8.1114    0.0000 C   0  0  0  0  0  0  0  0  0  0  0  0
    9.8563   -7.6989    0.0000 O   0  0  0  0  0  0  0  0  0  0  0  0
    9.8563  -10.1739    0.0000 C   0  0  2  0  0  0  0  0  0  0  0  0
   10.5707  -10.5864    0.0000 C   0  0  1  0  0  0  0  0  0  0  0  0
   11.2852  -10.1739    0.0000 O   0  0  0  0  0  0  0  0  0  0  0  0
   11.2852   -9.3489    0.0000 C   0  0  0  0  0  0  0  0  0  0  0  0
    5.5986   -6.8189    0.0000 C   0  0  2  0  0  0  0  0  0  0  0  0
    4.8825   -6.4092    0.0000 C   0  0  2  0  0  0  0  0  0  0  0  0
    4.1697   -6.8245    0.0000 C   0  0  1  0  0  0  0  0  0  0  0  0
    4.1730   -7.6495    0.0000 C   0  0  2  0  0  0  0  0  0  0  0  0
    4.8891   -8.0592    0.0000 C   0  0  1  0  0  0  0  0  0  0  0  0
    5.6019   -7.6438    0.0000 O   0  0  0  0  0  0  0  0  0  0  0  0
    4.8923   -8.8842    0.0000 O   0  0  0  0  0  0  0  0  0  0  0  0
    6.3114   -6.4035    0.0000 C   0  0  0  0  0  0  0  0  0  0  0  0
    3.4536   -6.4149    0.0000 O   0  0  0  0  0  0  0  0  0  0  0  0
    3.4601   -8.0649    0.0000 O   0  0  0  0  0  0  0  0  0  0  0  0
    4.8792   -5.5842    0.0000 O   0  0  0  0  0  0  0  0  0  0  0  0
    6.3081   -5.5785    0.0000 O   0  0  0  0  0  0  0  0  0  0  0  0
    8.4506  -11.8321    0.0000 C   0  0  2  0  0  0  0  0  0  0  0  0
    8.4506  -12.6571    0.0000 C   0  0  2  0  0  0  0  0  0  0  0  0
    9.1651  -13.0696    0.0000 C   0  0  1  0  0  0  0  0  0  0  0  0
    9.8795  -12.6571    0.0000 C   0  0  2  0  0  0  0  0  0  0  0  0
    9.8795  -11.8321    0.0000 C   0  0  1  0  0  0  0  0  0  0  0  0
    9.1651  -11.4196    0.0000 O   0  0  0  0  0  0  0  0  0  0  0  0
   10.5940  -11.4196    0.0000 O   0  0  0  0  0  0  0  0  0  0  0  0
    7.7361  -11.4196    0.0000 C   0  0  0  0  0  0  0  0  0  0  0  0
    9.1651  -13.8946    0.0000 O   0  0  0  0  0  0  0  0  0  0  0  0
   10.5940  -13.0696    0.0000 O   0  0  0  0  0  0  0  0  0  0  0  0
    7.7361  -13.0696    0.0000 O   0  0  0  0  0  0  0  0  0  0  0  0
    5.5873  -10.1473    0.0000 C   0  0  2  0  0  0  0  0  0  0  0  0
    4.8668  -10.5491    0.0000 C   0  0  2  0  0  0  0  0  0  0  0  0
    4.8545  -11.3740    0.0000 C   0  0  1  0  0  0  0  0  0  0  0  0
    5.5627  -11.7971    0.0000 C   0  0  2  0  0  0  0  0  0  0  0  0
    6.2833  -11.3953    0.0000 C   0  0  1  0  0  0  0  0  0  0  0  0
    6.2956  -10.5704    0.0000 O   0  0  0  0  0  0  0  0  0  0  0  0
    6.9915  -11.8184    0.0000 O   0  0  0  0  0  0  0  0  0  0  0  0
    5.5996   -9.3224    0.0000 C   0  0  0  0  0  0  0  0  0  0  0  0
    4.1339  -11.7758    0.0000 O   0  0  0  0  0  0  0  0  0  0  0  0
    5.5504  -12.6220    0.0000 O   0  0  0  0  0  0  0  0  0  0  0  0
    4.1585  -10.1260    0.0000 O   0  0  0  0  0  0  0  0  0  0  0  0
   11.2852   -7.6989    0.0000 O   0  0  0  0  0  0  0  0  0  0  0  0
    9.1418  -10.5864    0.0000 C   0  0  0  0  0  0  0  0  0  0  0  0
    8.4273  -10.1739    0.0000 C   0  0  0  0  0  0  0  0  0  0  0  0
  1  2  1  0  0  0  0
  2  3  2  0  0  0  0
  3  4  1  0  0  0  0
  4  5  1  0  0  0  0
  5  6  1  0  0  0  0
  6  1  1  0  0  0  0
  3  7  1  0  0  0  0
  7  8  1  0  0  0  0
  8  9  1  0  0  0  0
  9 10  1  0  0  0  0
 10  4  2  0  0  0  0
 11 12  1  0  0  0  0
 12 13  1  0  0  0  0
 13 14  1  0  0  0  0
 14 15  1  0  0  0  0
 15 16  1  0  0  0  0
 16 11  1  0  0  0  0
 15 17  1  1  0  0  0
 11 18  1  1  0  0  0
 13 19  1  1  0  0  0
 14 20  1  6  0  0  0
 12 21  1  6  0  0  0
 18 22  1  0  0  0  0
 23 24  1  0  0  0  0
 24 25  1  0  0  0  0
 25 26  1  0  0  0  0
 26 27  1  0  0  0  0
 27 28  1  0  0  0  0
 28 23  1  0  0  0  0
 27 29  1  1  0  0  0
 23 30  1  1  0  0  0
 25 31  1  1  0  0  0
 26 32  1  6  0  0  0
 24 33  1  6  0  0  0
 34 35  1  0  0  0  0
 35 36  1  0  0  0  0
 36 37  1  0  0  0  0
 37 38  1  0  0  0  0
 38 39  1  0  0  0  0
 39 34  1  0  0  0  0
 38 40  1  1  0  0  0
 34 41  1  1  0  0  0
 36 42  1  1  0  0  0
 37 43  1  6  0  0  0
 35 44  1  6  0  0  0
 41 17  1  0  0  0  0
 30 40  1  0  0  0  0
  5 45  2  0  0  0  0
  7 46  1  6  0  0  0
 46 47  2  0  0  0  0
  8 29  1  1  0  0  0
M  END
>  <cdx:fragmentId>
36

$$$$
