50132.cdx
  Mrv1902 05222410242D          

 28 29  0  0  0  0            999 V2000
    5.7112   -5.7475    0.0000 C   0  0  0  0  0  0  0  0  0  0  0  0
    5.7112   -6.5725    0.0000 C   0  0  0  0  0  0  0  0  0  0  0  0
    6.4256   -6.9850    0.0000 C   0  0  2  0  0  0  0  0  0  0  0  0
    7.1401   -6.5725    0.0000 C   0  0  1  0  0  0  0  0  0  0  0  0
    7.1401   -5.7475    0.0000 C   0  0  0  0  0  0  0  0  0  0  0  0
    6.4256   -5.3350    0.0000 O   0  0  0  0  0  0  0  0  0  0  0  0
    7.8546   -5.3350    0.0000 O   0  0  0  0  0  0  0  0  0  0  0  0
    7.8546   -6.9850    0.0000 C   0  0  0  0  0  0  0  0  0  0  0  0
    8.5691   -6.5725    0.0000 O   0  0  0  0  0  0  0  0  0  0  0  0
    6.4256   -7.8100    0.0000 C   0  0  2  0  0  0  0  0  0  0  0  0
    7.1401   -8.2225    0.0000 C   0  0  0  0  0  0  0  0  0  0  0  0
    5.7112   -8.2225    0.0000 C   0  0  0  0  0  0  0  0  0  0  0  0
    5.7112   -9.0475    0.0000 C   0  0  0  0  0  0  0  0  0  0  0  0
    5.4891  -10.4974    0.0000 C   0  0  2  0  0  0  0  0  0  0  0  0
    5.9035  -11.2107    0.0000 C   0  0  2  0  0  0  0  0  0  0  0  0
    6.7285  -11.2085    0.0000 C   0  0  1  0  0  0  0  0  0  0  0  0
    7.1391  -10.4930    0.0000 C   0  0  2  0  0  0  0  0  0  0  0  0
    6.7247   -9.7796    0.0000 C   0  0  1  0  0  0  0  0  0  0  0  0
    5.8997   -9.7818    0.0000 O   0  0  0  0  0  0  0  0  0  0  0  0
    7.1353   -9.0640    0.0000 O   0  0  0  0  0  0  0  0  0  0  0  0
    4.6641  -10.4996    0.0000 C   0  0  0  0  0  0  0  0  0  0  0  0
    7.1429  -11.9219    0.0000 O   0  0  0  0  0  0  0  0  0  0  0  0
    5.7112   -7.3975    0.0000 H   0  0  0  0  0  0  0  0  0  0  0  0
    7.1401   -7.3975    0.0000 H   0  0  0  0  0  0  0  0  0  0  0  0
    7.9641  -10.4908    0.0000 O   0  0  0  0  0  0  0  0  0  0  0  0
    5.4930  -11.9263    0.0000 O   0  0  0  0  0  0  0  0  0  0  0  0
    7.8546   -6.1600    0.0000 H   0  0  0  0  0  0  0  0  0  0  0  0
    4.2535  -11.2152    0.0000 O   0  0  0  0  0  0  0  0  0  0  0  0
  1  2  1  0  0  0  0
  2  3  1  0  0  0  0
  3  4  1  0  0  0  0
  4  5  1  0  0  0  0
  5  6  1  0  0  0  0
  6  1  1  0  0  0  0
  5  7  2  0  0  0  0
  4  8  1  0  0  0  0
  8  9  1  0  0  0  0
  3 10  1  0  0  0  0
 10 11  1  0  0  0  0
 10 12  1  0  0  0  0
 12 13  2  0  0  0  0
 14 15  1  0  0  0  0
 15 16  1  0  0  0  0
 16 17  1  0  0  0  0
 17 18  1  0  0  0  0
 18 19  1  0  0  0  0
 19 14  1  0  0  0  0
 18 20  1  1  0  0  0
 14 21  1  1  0  0  0
 16 22  1  1  0  0  0
  3 23  1  1  0  0  0
 10 24  1  1  0  0  0
 17 25  1  6  0  0  0
 15 26  1  6  0  0  0
  4 27  1  6  0  0  0
 21 28  1  0  0  0  0
 11 20  1  0  0  0  0
M  END
>  <cdx:fragmentId>
5

$$$$
