50130.cdx
  Mrv1902 05222410232D          

 30 31  0  0  0  0            999 V2000
    8.0579   -8.5667    0.0000 C   0  0  0  0  0  0  0  0  0  0  0  0
    7.3415   -8.9757    0.0000 C   0  0  0  0  0  0  0  0  0  0  0  0
    7.3375   -9.8007    0.0000 O   0  0  0  0  0  0  0  0  0  0  0  0
    6.6290   -8.5598    0.0000 C   0  0  0  0  0  0  0  0  0  0  0  0
    5.2031   -7.7174    0.0000 O   0  0  0  0  0  0  0  0  0  0  0  0
    5.1996   -8.5424    0.0000 C   0  0  0  0  0  0  0  0  0  0  0  0
    4.4834   -8.9519    0.0000 C   0  0  0  0  0  0  0  0  0  0  0  0
    3.7706   -8.5364    0.0000 C   0  0  0  0  0  0  0  0  0  0  0  0
    3.0510   -9.7709    0.0000 C   0  0  0  0  0  0  0  0  0  0  0  0
    3.0544   -8.9459    0.0000 C   0  0  0  0  0  0  0  0  0  0  0  0
    2.3417   -8.5304    0.0000 C   0  0  0  0  0  0  0  0  0  0  0  0
    1.6255   -8.9399    0.0000 C   0  0  0  0  0  0  0  0  0  0  0  0
    1.6220   -9.7649    0.0000 C   0  0  0  0  0  0  0  0  0  0  0  0
    2.3348  -10.1804    0.0000 C   0  0  0  0  0  0  0  0  0  0  0  0
    0.9058  -10.1744    0.0000 O   0  0  0  0  0  0  0  0  0  0  0  0
    0.9128   -8.5244    0.0000 O   0  0  0  0  0  0  0  0  0  0  0  0
    0.1966   -8.9339    0.0000 C   0  0  0  0  0  0  0  0  0  0  0  0
    5.9125   -8.9688    0.0000 O   0  0  0  0  0  0  0  0  0  0  0  0
    8.7704   -8.9827    0.0000 O   0  0  0  0  0  0  0  0  0  0  0  0
    9.4869   -8.5737    0.0000 C   0  0  0  0  0  0  0  0  0  0  0  0
   10.1993   -8.9897    0.0000 C   0  0  0  0  0  0  0  0  0  0  0  0
    9.4909   -7.7487    0.0000 O   0  0  0  0  0  0  0  0  0  0  0  0
   10.9158   -8.5807    0.0000 C   0  0  0  0  0  0  0  0  0  0  0  0
   11.6282   -8.9966    0.0000 C   0  0  0  0  0  0  0  0  0  0  0  0
   11.6222   -9.8216    0.0000 C   0  0  0  0  0  0  0  0  0  0  0  0
   12.3337  -10.2393    0.0000 C   0  0  0  0  0  0  0  0  0  0  0  0
   13.0511   -9.8216    0.0000 C   0  0  0  0  0  0  0  0  0  0  0  0
   13.0511   -8.9966    0.0000 C   0  0  0  0  0  0  0  0  0  0  0  0
   12.3337   -8.5789    0.0000 C   0  0  0  0  0  0  0  0  0  0  0  0
   13.7663  -10.2328    0.0000 O   0  0  0  0  0  0  0  0  0  0  0  0
  1  2  1  0  0  0  0
  2  3  1  0  0  0  0
  2  4  1  0  0  0  0
  6 18  1  0  0  0  0
  4 18  1  0  0  0  0
  6  5  2  0  0  0  0
  7  6  1  0  0  0  0
  8  7  2  0  0  0  0
 10  8  1  0  0  0  0
  9 10  2  0  0  0  0
 10 11  1  0  0  0  0
 11 12  2  0  0  0  0
 12 13  1  0  0  0  0
 13 14  2  0  0  0  0
 14  9  1  0  0  0  0
 13 15  1  0  0  0  0
 12 16  1  0  0  0  0
 16 17  1  0  0  0  0
  1 19  1  0  0  0  0
 19 20  1  0  0  0  0
 20 21  1  0  0  0  0
 20 22  2  0  0  0  0
 21 23  2  0  0  0  0
 23 24  1  0  0  0  0
 24 25  2  0  0  0  0
 25 26  1  0  0  0  0
 26 27  2  0  0  0  0
 27 28  1  0  0  0  0
 28 29  2  0  0  0  0
 29 24  1  0  0  0  0
 27 30  1  0  0  0  0
M  END
>  <cdx:fragmentId>
5

$$$$
