50138.cdx
  Mrv1902 05222410212D          

 43 47  0  0  0  0            999 V2000
    3.5593   -7.8375    0.0000 C   0  0  0  0  0  0  0  0  0  0  0  0
    3.5593   -8.6625    0.0000 C   0  0  0  0  0  0  0  0  0  0  0  0
    4.2738   -9.0750    0.0000 C   0  0  0  0  0  0  0  0  0  0  0  0
    4.9882   -8.6625    0.0000 C   0  0  0  0  0  0  0  0  0  0  0  0
    4.9882   -7.8375    0.0000 C   0  0  0  0  0  0  0  0  0  0  0  0
    4.2738   -7.4250    0.0000 C   0  0  0  0  0  0  0  0  0  0  0  0
    5.7027   -9.0750    0.0000 C   0  0  0  0  0  0  0  0  0  0  0  0
    6.4172   -8.6625    0.0000 C   0  0  0  0  0  0  0  0  0  0  0  0
    6.4172   -7.8375    0.0000 C   0  0  0  0  0  0  0  0  0  0  0  0
    5.7027   -7.4250    0.0000 O   0  0  0  0  0  0  0  0  0  0  0  0
    7.1317   -7.4250    0.0000 C   0  0  0  0  0  0  0  0  0  0  0  0
    7.1317   -6.6000    0.0000 C   0  0  0  0  0  0  0  0  0  0  0  0
    7.8461   -7.8375    0.0000 C   0  0  0  0  0  0  0  0  0  0  0  0
    8.5606   -7.4250    0.0000 C   0  0  0  0  0  0  0  0  0  0  0  0
    8.5606   -6.6000    0.0000 C   0  0  0  0  0  0  0  0  0  0  0  0
    7.8461   -6.1875    0.0000 C   0  0  0  0  0  0  0  0  0  0  0  0
    4.2738   -9.9000    0.0000 O   0  0  0  0  0  0  0  0  0  0  0  0
    5.7027   -9.9000    0.0000 O   0  0  0  0  0  0  0  0  0  0  0  0
    2.8448   -7.4250    0.0000 O   0  0  0  0  0  0  0  0  0  0  0  0
    7.8461   -5.3625    0.0000 O   0  0  0  0  0  0  0  0  0  0  0  0
    9.2751   -6.1875    0.0000 O   0  0  0  0  0  0  0  0  0  0  0  0
    6.3585  -11.2300    0.0000 C   0  0  2  0  0  0  0  0  0  0  0  0
    7.0743  -11.6402    0.0000 C   0  0  1  0  0  0  0  0  0  0  0  0
    7.7875  -11.2254    0.0000 C   0  0  1  0  0  0  0  0  0  0  0  0
    7.7848  -10.4004    0.0000 C   0  0  2  0  0  0  0  0  0  0  0  0
    7.0691   -9.9902    0.0000 C   0  0  1  0  0  0  0  0  0  0  0  0
    6.3559  -10.4050    0.0000 O   0  0  0  0  0  0  0  0  0  0  0  0
    8.5032  -11.6357    0.0000 O   0  0  0  0  0  0  0  0  0  0  0  0
    8.4980   -9.9857    0.0000 O   0  0  0  0  0  0  0  0  0  0  0  0
    5.6454  -11.6447    0.0000 C   0  0  0  0  0  0  0  0  0  0  0  0
    5.6480  -12.4697    0.0000 O   0  0  0  0  0  0  0  0  0  0  0  0
    7.0665   -9.1652    0.0000 O   0  0  0  0  0  0  0  0  0  0  0  0
    7.0769  -12.4652    0.0000 O   0  0  0  0  0  0  0  0  0  0  0  0
    4.2108  -12.4498    0.0000 O   0  0  0  0  0  0  0  0  0  0  0  0
    4.9205  -12.8703    0.0000 C   0  0  2  0  0  0  0  0  0  0  0  0
    3.4917  -12.8541    0.0000 C   0  0  2  0  0  0  0  0  0  0  0  0
    3.4823  -13.6791    0.0000 C   0  0  1  0  0  0  0  0  0  0  0  0
    4.1921  -14.0997    0.0000 C   0  0  2  0  0  0  0  0  0  0  0  0
    4.9112  -13.6953    0.0000 C   0  0  1  0  0  0  0  0  0  0  0  0
    2.7819  -12.4336    0.0000 C   0  0  0  0  0  0  0  0  0  0  0  0
    4.1827  -14.9246    0.0000 O   0  0  0  0  0  0  0  0  0  0  0  0
    5.6209  -14.1158    0.0000 O   0  0  0  0  0  0  0  0  0  0  0  0
    2.7632  -14.0835    0.0000 O   0  0  0  0  0  0  0  0  0  0  0  0
  1  2  2  0  0  0  0
  2  3  1  0  0  0  0
  3  4  2  0  0  0  0
  4  5  1  0  0  0  0
  5  6  2  0  0  0  0
  6  1  1  0  0  0  0
  4  7  1  0  0  0  0
  7  8  1  0  0  0  0
  8  9  2  0  0  0  0
  9 10  1  0  0  0  0
 10  5  1  0  0  0  0
  9 11  1  0  0  0  0
 11 12  1  0  0  0  0
 11 13  2  0  0  0  0
 13 14  1  0  0  0  0
 14 15  2  0  0  0  0
 15 16  1  0  0  0  0
 16 12  2  0  0  0  0
  3 17  1  0  0  0  0
 18  7  2  0  0  0  0
  1 19  1  0  0  0  0
 16 20  1  0  0  0  0
 15 21  1  0  0  0  0
 22 23  1  0  0  0  0
 23 24  1  0  0  0  0
 24 25  1  0  0  0  0
 25 26  1  0  0  0  0
 26 27  1  0  0  0  0
 27 22  1  0  0  0  0
 24 28  1  1  0  0  0
 25 29  1  6  0  0  0
 22 30  1  1  0  0  0
 30 31  1  0  0  0  0
 26 32  1  1  0  0  0
 23 33  1  1  0  0  0
  8 32  1  0  0  0  0
 34 35  1  0  0  0  0
 34 36  1  0  0  0  0
 36 37  1  0  0  0  0
 37 38  1  0  0  0  0
 38 39  1  0  0  0  0
 39 35  1  0  0  0  0
 36 40  1  6  0  0  0
 38 41  1  6  0  0  0
 39 42  1  6  0  0  0
 37 43  1  1  0  0  0
 35 31  1  1  0  0  0
M  END
>  <cdx:fragmentId>
212

$$$$
