50137.cdx
  Mrv1902 05222410252D          

 43 47  0  0  0  0            999 V2000
    3.5593   -7.8375    0.0000 C   0  0  0  0  0  0  0  0  0  0  0  0
    3.5593   -8.6625    0.0000 C   0  0  0  0  0  0  0  0  0  0  0  0
    4.2738   -9.0750    0.0000 C   0  0  0  0  0  0  0  0  0  0  0  0
    4.9882   -8.6625    0.0000 C   0  0  0  0  0  0  0  0  0  0  0  0
    4.9882   -7.8375    0.0000 C   0  0  0  0  0  0  0  0  0  0  0  0
    4.2738   -7.4250    0.0000 C   0  0  0  0  0  0  0  0  0  0  0  0
    5.7027   -9.0750    0.0000 C   0  0  0  0  0  0  0  0  0  0  0  0
    6.4172   -8.6625    0.0000 C   0  0  0  0  0  0  0  0  0  0  0  0
    6.4172   -7.8375    0.0000 C   0  0  0  0  0  0  0  0  0  0  0  0
    5.7027   -7.4250    0.0000 O   0  0  0  0  0  0  0  0  0  0  0  0
    7.1317   -7.4250    0.0000 C   0  0  0  0  0  0  0  0  0  0  0  0
    7.1317   -6.6000    0.0000 C   0  0  0  0  0  0  0  0  0  0  0  0
    7.8461   -7.8375    0.0000 C   0  0  0  0  0  0  0  0  0  0  0  0
    8.5606   -7.4250    0.0000 C   0  0  0  0  0  0  0  0  0  0  0  0
    8.5606   -6.6000    0.0000 C   0  0  0  0  0  0  0  0  0  0  0  0
    7.8461   -6.1875    0.0000 C   0  0  0  0  0  0  0  0  0  0  0  0
    4.2738   -9.9000    0.0000 O   0  0  0  0  0  0  0  0  0  0  0  0
    5.7027   -9.9000    0.0000 O   0  0  0  0  0  0  0  0  0  0  0  0
    2.8448   -7.4250    0.0000 O   0  0  0  0  0  0  0  0  0  0  0  0
    7.8461   -5.3625    0.0000 O   0  0  0  0  0  0  0  0  0  0  0  0
    9.2751   -6.1875    0.0000 O   0  0  0  0  0  0  0  0  0  0  0  0
    6.3585  -11.2300    0.0000 C   0  0  2  0  0  0  0  0  0  0  0  0
    7.0743  -11.6402    0.0000 C   0  0  1  0  0  0  0  0  0  0  0  0
    7.7875  -11.2254    0.0000 C   0  0  1  0  0  0  0  0  0  0  0  0
    7.7848  -10.4004    0.0000 C   0  0  2  0  0  0  0  0  0  0  0  0
    7.0691   -9.9902    0.0000 C   0  0  1  0  0  0  0  0  0  0  0  0
    6.3559  -10.4050    0.0000 O   0  0  0  0  0  0  0  0  0  0  0  0
    8.5032  -11.6357    0.0000 O   0  0  0  0  0  0  0  0  0  0  0  0
    9.2164  -11.2209    0.0000 O   0  0  0  0  0  0  0  0  0  0  0  0
    9.2138  -10.3959    0.0000 C   0  0  1  0  0  0  0  0  0  0  0  0
    8.4980   -9.9857    0.0000 O   0  0  0  0  0  0  0  0  0  0  0  0
    9.9322  -11.6312    0.0000 C   0  0  2  0  0  0  0  0  0  0  0  0
   10.6453  -11.2164    0.0000 C   0  0  1  0  0  0  0  0  0  0  0  0
   10.6427  -10.3914    0.0000 C   0  0  2  0  0  0  0  0  0  0  0  0
    9.9269   -9.9812    0.0000 C   0  0  1  0  0  0  0  0  0  0  0  0
    5.6454  -11.6447    0.0000 C   0  0  0  0  0  0  0  0  0  0  0  0
    5.6480  -12.4697    0.0000 O   0  0  0  0  0  0  0  0  0  0  0  0
    9.9348  -12.4562    0.0000 C   0  0  0  0  0  0  0  0  0  0  0  0
   11.3559   -9.9767    0.0000 O   0  0  0  0  0  0  0  0  0  0  0  0
    7.0665   -9.1652    0.0000 O   0  0  0  0  0  0  0  0  0  0  0  0
    7.0769  -12.4652    0.0000 O   0  0  0  0  0  0  0  0  0  0  0  0
    9.9243   -9.1562    0.0000 O   0  0  0  0  0  0  0  0  0  0  0  0
   11.3611  -11.6266    0.0000 O   0  0  0  0  0  0  0  0  0  0  0  0
  1  2  2  0  0  0  0
  2  3  1  0  0  0  0
  3  4  2  0  0  0  0
  4  5  1  0  0  0  0
  5  6  2  0  0  0  0
  6  1  1  0  0  0  0
  4  7  1  0  0  0  0
  7  8  1  0  0  0  0
  8  9  2  0  0  0  0
  9 10  1  0  0  0  0
 10  5  1  0  0  0  0
  9 11  1  0  0  0  0
 11 12  1  0  0  0  0
 11 13  2  0  0  0  0
 13 14  1  0  0  0  0
 14 15  2  0  0  0  0
 15 16  1  0  0  0  0
 16 12  2  0  0  0  0
  3 17  1  0  0  0  0
 18  7  2  0  0  0  0
  1 19  1  0  0  0  0
 16 20  1  0  0  0  0
 15 21  1  0  0  0  0
 22 23  1  0  0  0  0
 23 24  1  0  0  0  0
 24 25  1  0  0  0  0
 25 26  1  0  0  0  0
 26 27  1  0  0  0  0
 27 22  1  0  0  0  0
 24 28  1  1  0  0  0
 29 30  1  0  0  0  0
 30 31  1  1  0  0  0
 25 31  1  6  0  0  0
 29 32  1  0  0  0  0
 32 33  1  0  0  0  0
 33 34  1  0  0  0  0
 34 35  1  0  0  0  0
 35 30  1  0  0  0  0
 22 36  1  1  0  0  0
 36 37  1  0  0  0  0
 32 38  1  6  0  0  0
 34 39  1  6  0  0  0
 26 40  1  1  0  0  0
 23 41  1  1  0  0  0
 35 42  1  6  0  0  0
 33 43  1  1  0  0  0
  8 40  1  0  0  0  0
M  END
>  <cdx:fragmentId>
212

$$$$
