50136.cdx
  Mrv1902 05222410252D          

 36 39  0  0  0  0            999 V2000
    8.0418   -5.3339    0.0000 C   0  0  0  0  0  0  0  0  0  0  0  0
    8.0418   -6.1589    0.0000 C   0  0  0  0  0  0  0  0  0  0  0  0
    8.7563   -6.5714    0.0000 C   0  0  0  0  0  0  0  0  0  0  0  0
    9.4707   -6.1589    0.0000 C   0  0  0  0  0  0  0  0  0  0  0  0
    9.4707   -5.3339    0.0000 C   0  0  0  0  0  0  0  0  0  0  0  0
    8.7563   -4.9214    0.0000 O   0  0  0  0  0  0  0  0  0  0  0  0
    8.7563   -7.3964    0.0000 C   0  0  2  0  0  0  0  0  0  0  0  0
    9.4707   -7.8089    0.0000 C   0  0  1  0  0  0  0  0  0  0  0  0
   10.1852   -7.3964    0.0000 O   0  0  0  0  0  0  0  0  0  0  0  0
   10.1852   -6.5714    0.0000 C   0  0  0  0  0  0  0  0  0  0  0  0
    7.3506   -9.0546    0.0000 C   0  0  2  0  0  0  0  0  0  0  0  0
    7.3506   -9.8796    0.0000 C   0  0  2  0  0  0  0  0  0  0  0  0
    8.0651  -10.2921    0.0000 C   0  0  1  0  0  0  0  0  0  0  0  0
    8.7795   -9.8796    0.0000 C   0  0  2  0  0  0  0  0  0  0  0  0
    8.7795   -9.0546    0.0000 C   0  0  1  0  0  0  0  0  0  0  0  0
    8.0651   -8.6421    0.0000 O   0  0  0  0  0  0  0  0  0  0  0  0
    9.4940   -8.6421    0.0000 O   0  0  0  0  0  0  0  0  0  0  0  0
    6.6361   -8.6421    0.0000 C   0  0  0  0  0  0  0  0  0  0  0  0
    8.0651  -11.1171    0.0000 O   0  0  0  0  0  0  0  0  0  0  0  0
    9.4940  -10.2921    0.0000 O   0  0  0  0  0  0  0  0  0  0  0  0
    6.6361  -10.2921    0.0000 O   0  0  0  0  0  0  0  0  0  0  0  0
    6.6361   -7.8171    0.0000 O   0  0  0  0  0  0  0  0  0  0  0  0
   10.1852   -4.9214    0.0000 O   0  0  0  0  0  0  0  0  0  0  0  0
    8.0418   -7.8089    0.0000 C   0  0  0  0  0  0  0  0  0  0  0  0
    7.3273   -7.3964    0.0000 C   0  0  0  0  0  0  0  0  0  0  0  0
    5.9132   -9.8947    0.0000 C   0  0  2  0  0  0  0  0  0  0  0  0
    5.8959   -9.0698    0.0000 O   0  0  0  0  0  0  0  0  0  0  0  0
    5.1730   -8.6724    0.0000 C   0  0  1  0  0  0  0  0  0  0  0  0
    4.4673   -9.0997    0.0000 C   0  0  2  0  0  0  0  0  0  0  0  0
    4.4846   -9.9246    0.0000 C   0  0  1  0  0  0  0  0  0  0  0  0
    5.2075  -10.3220    0.0000 C   0  0  1  0  0  0  0  0  0  0  0  0
    5.1557   -7.8476    0.0000 C   0  0  0  0  0  0  0  0  0  0  0  0
    3.7789  -10.3519    0.0000 O   0  0  0  0  0  0  0  0  0  0  0  0
    5.2248  -11.1468    0.0000 O   0  0  0  0  0  0  0  0  0  0  0  0
    3.7443   -8.7023    0.0000 O   0  0  0  0  0  0  0  0  0  0  0  0
    4.4328   -7.4501    0.0000 O   0  0  0  0  0  0  0  0  0  0  0  0
  1  2  1  0  0  0  0
  2  3  2  0  0  0  0
  3  4  1  0  0  0  0
  4  5  1  0  0  0  0
  5  6  1  0  0  0  0
  6  1  1  0  0  0  0
  3  7  1  0  0  0  0
  7  8  1  0  0  0  0
  8  9  1  0  0  0  0
  9 10  1  0  0  0  0
 10  4  2  0  0  0  0
 11 12  1  0  0  0  0
 12 13  1  0  0  0  0
 13 14  1  0  0  0  0
 14 15  1  0  0  0  0
 15 16  1  0  0  0  0
 16 11  1  0  0  0  0
 15 17  1  1  0  0  0
 11 18  1  1  0  0  0
 13 19  1  1  0  0  0
 14 20  1  6  0  0  0
 12 21  1  6  0  0  0
 18 22  1  0  0  0  0
  5 23  2  0  0  0  0
  7 24  1  6  0  0  0
 24 25  2  0  0  0  0
  8 17  1  1  0  0  0
 26 21  1  1  0  0  0
 26 27  1  0  0  0  0
 27 28  1  0  0  0  0
 28 29  1  0  0  0  0
 29 30  1  0  0  0  0
 30 31  1  0  0  0  0
 31 26  1  0  0  0  0
 28 32  1  1  0  0  0
 30 33  1  1  0  0  0
 31 34  1  6  0  0  0
 29 35  1  6  0  0  0
 32 36  1  0  0  0  0
M  END
>  <cdx:fragmentId>
36

$$$$
