501319.cdx
  Mrv1902 05222410222D          

 53 57  0  0  0  0            999 V2000
    5.7055   -7.6280    0.0000 C   0  0  2  0  0  0  0  0  0  0  0  0
    7.1344   -5.9780    0.0000 H   0  0  0  0  0  0  0  0  0  0  0  0
    7.1344   -5.1530    0.0000 O   0  0  0  0  0  0  0  0  0  0  0  0
    6.4200   -5.5655    0.0000 C   0  0  2  0  0  0  0  0  0  0  0  0
    5.7055   -5.1530    0.0000 C   0  0  1  0  0  0  0  0  0  0  0  0
    5.7055   -4.3280    0.0000 C   0  0  2  0  0  0  0  0  0  0  0  0
    6.4200   -3.9155    0.0000 C   0  0  1  0  0  0  0  0  0  0  0  0
    7.1344   -4.3280    0.0000 C   0  0  1  0  0  0  0  0  0  0  0  0
    7.8489   -3.9155    0.0000 C   0  0  0  0  0  0  0  0  0  0  0  0
    7.8489   -3.0905    0.0000 O   0  0  0  0  0  0  0  0  0  0  0  0
    6.4200   -3.0905    0.0000 O   0  0  0  0  0  0  0  0  0  0  0  0
    6.4943   -9.0777    0.0000 O   0  0  0  0  0  0  0  0  0  0  0  0
    5.7055   -5.9780    0.0000 O   0  0  0  0  0  0  0  0  0  0  0  0
    7.8489   -8.8655    0.0000 O   0  0  0  0  0  0  0  0  0  0  0  0
   12.1357   -6.3905    0.0000 O   0  0  0  0  0  0  0  0  0  0  0  0
    9.9923   -6.8030    0.0000 C   0  0  0  0  0  0  0  0  0  0  0  0
   10.7068   -6.3905    0.0000 C   0  0  0  0  0  0  0  0  0  0  0  0
   11.4213   -6.8030    0.0000 C   0  0  0  0  0  0  0  0  0  0  0  0
   11.4213   -7.6280    0.0000 C   0  0  0  0  0  0  0  0  0  0  0  0
   10.7068   -8.0405    0.0000 C   0  0  0  0  0  0  0  0  0  0  0  0
    9.9923   -7.6280    0.0000 C   0  0  0  0  0  0  0  0  0  0  0  0
    9.2778   -8.0405    0.0000 C   0  0  0  0  0  0  0  0  0  0  0  0
    8.5634   -7.6280    0.0000 C   0  0  0  0  0  0  0  0  0  0  0  0
    7.8489   -8.0405    0.0000 C   0  0  0  0  0  0  0  0  0  0  0  0
    5.8274  -10.5869    0.0000 O   0  0  0  0  0  0  0  0  0  0  0  0
    4.1869  -10.7639    0.0000 O   0  0  0  0  0  0  0  0  0  0  0  0
    2.8799  -10.1863    0.0000 O   0  0  0  0  0  0  0  0  0  0  0  0
    3.2134   -9.4317    0.0000 C   0  0  0  0  0  0  0  0  0  0  0  0
    4.0336   -9.3432    0.0000 C   0  0  2  0  0  0  0  0  0  0  0  0
    4.5204  -10.0093    0.0000 C   0  0  2  0  0  0  0  0  0  0  0  0
    5.3406   -9.9208    0.0000 C   0  0  1  0  0  0  0  0  0  0  0  0
    5.6741   -9.1662    0.0000 C   0  0  2  0  0  0  0  0  0  0  0  0
    4.9910   -3.9155    0.0000 O   0  0  0  0  0  0  0  0  0  0  0  0
    4.9910   -5.5655    0.0000 O   0  0  0  0  0  0  0  0  0  0  0  0
    5.1873   -8.5001    0.0000 C   0  0  1  0  0  0  0  0  0  0  0  0
    4.3671   -8.5886    0.0000 O   0  0  0  0  0  0  0  0  0  0  0  0
    1.8999   -8.4460    0.0000 O   0  0  0  0  0  0  0  0  0  0  0  0
    4.0767   -8.2843    0.0000 C   0  0  0  0  0  0  0  0  0  0  0  0
    3.3192   -8.6114    0.0000 C   0  0  0  0  0  0  0  0  0  0  0  0
    2.6573   -8.1190    0.0000 C   0  0  0  0  0  0  0  0  0  0  0  0
    2.7528   -7.2995    0.0000 C   0  0  0  0  0  0  0  0  0  0  0  0
    3.5102   -6.9725    0.0000 C   0  0  0  0  0  0  0  0  0  0  0  0
    4.1721   -7.4649    0.0000 C   0  0  0  0  0  0  0  0  0  0  0  0
    4.9295   -7.1378    0.0000 C   0  0  0  0  0  0  0  0  0  0  0  0
    6.4200   -8.6593    0.0000 O   0  0  0  0  0  0  0  0  0  0  0  0
    4.9910   -6.3905    0.0000 O   0  0  0  0  0  0  0  0  0  0  0  0
    7.8489   -6.3905    0.0000 O   0  0  0  0  0  0  0  0  0  0  0  0
    7.1344   -7.6280    0.0000 C   0  0  0  0  0  0  0  0  0  0  0  0
    6.4200   -8.0405    0.0000 C   0  0  0  0  0  0  0  0  0  0  0  0
    5.7055   -6.8030    0.0000 C   0  0  0  0  0  0  0  0  0  0  0  0
    6.4200   -6.3905    0.0000 C   0  0  2  0  0  0  0  0  0  0  0  0
    7.1344   -6.8030    0.0000 C   0  0  0  0  0  0  0  0  0  0  0  0
    4.7748   -7.7856    0.0000 H   0  0  0  0  0  0  0  0  0  0  0  0
 51 13  1  6  0  0  0
 48 24  2  0  0  0  0
 24 14  1  0  0  0  0
 22 21  1  0  0  0  0
 18 15  1  0  0  0  0
 21 16  2  0  0  0  0
 17 16  1  0  0  0  0
 18 17  2  0  0  0  0
 19 18  1  0  0  0  0
 20 19  2  0  0  0  0
 21 20  1  0  0  0  0
 23 22  2  0  0  0  0
 24 23  1  0  0  0  0
 32 12  1  6  0  0  0
 31 25  1  1  0  0  0
 30 26  1  6  0  0  0
 29 28  1  1  0  0  0
 28 27  1  0  0  0  0
 36 29  1  0  0  0  0
 30 29  1  0  0  0  0
 31 30  1  0  0  0  0
 51  4  1  0  0  0  0
  4  2  1  6  0  0  0
 32 31  1  0  0  0  0
 35 32  1  0  0  0  0
 35 36  1  0  0  0  0
 44 43  1  0  0  0  0
 40 37  1  0  0  0  0
 43 38  2  0  0  0  0
 39 38  1  0  0  0  0
 40 39  2  0  0  0  0
 41 40  1  0  0  0  0
 42 41  2  0  0  0  0
 43 42  1  0  0  0  0
 49 45  2  0  0  0  0
 50 46  2  0  0  0  0
 52 47  2  0  0  0  0
 52 48  1  0  0  0  0
 49 48  1  0  0  0  0
  1 49  1  0  0  0  0
 50  1  1  0  0  0  0
 51 50  1  0  0  0  0
 52 51  1  0  0  0  0
  4  3  1  0  0  0  0
  4  5  1  0  0  0  0
  5  6  1  0  0  0  0
  6  7  1  0  0  0  0
  7  8  1  0  0  0  0
  3  8  1  0  0  0  0
  9 10  1  0  0  0  0
  8  9  1  1  0  0  0
  7 11  1  6  0  0  0
  1 35  1  0  0  0  0
  1 44  1  6  0  0  0
 35 53  1  6  0  0  0
  6 33  1  1  0  0  0
  5 34  1  6  0  0  0
M  END
>  <cdx:groupId>
247278

>  <cdx:fragmentId>
247140

$$$$
