50149.cdx
  Mrv1902 05222410192D          

 43 45  0  0  0  0            999 V2000
    7.6294   -4.6011    0.0000 C   0  0  0  0  0  0  0  0  0  0  0  0
    8.1085   -3.9295    0.0000 C   0  0  0  0  0  0  0  0  0  0  0  0
    8.9297   -4.0086    0.0000 C   0  0  0  0  0  0  0  0  0  0  0  0
    7.9714   -5.3518    0.0000 O   0  0  0  0  0  0  0  0  0  0  0  0
    6.8082   -4.5219    0.0000 O   0  0  0  0  0  0  0  0  0  0  0  0
    9.4089   -3.3370    0.0000 C   0  0  0  0  0  0  0  0  0  0  0  0
    9.0668   -2.5863    0.0000 C   0  0  0  0  0  0  0  0  0  0  0  0
    9.5460   -1.9147    0.0000 C   0  0  0  0  0  0  0  0  0  0  0  0
   10.3672   -1.9938    0.0000 C   0  0  0  0  0  0  0  0  0  0  0  0
   10.7092   -2.7446    0.0000 C   0  0  0  0  0  0  0  0  0  0  0  0
   10.2301   -3.4162    0.0000 C   0  0  0  0  0  0  0  0  0  0  0  0
   10.8463   -1.3222    0.0000 O   0  0  0  0  0  0  0  0  0  0  0  0
    5.9275   -6.4666    0.0000 O   0  0  0  0  0  0  0  0  0  0  0  0
    6.5908   -5.9759    0.0000 C   0  0  1  0  0  0  0  0  0  0  0  0
    6.3291   -5.1935    0.0000 C   0  0  2  0  0  0  0  0  0  0  0  0
    5.5041   -5.2007    0.0000 C   0  0  1  0  0  0  0  0  0  0  0  0
    5.2559   -5.9875    0.0000 C   0  0  1  0  0  0  0  0  0  0  0  0
    4.4735   -6.2492    0.0000 C   0  0  0  0  0  0  0  0  0  0  0  0
    3.8902   -5.6658    0.0000 O   0  0  0  0  0  0  0  0  0  0  0  0
    5.0134   -4.5374    0.0000 O   0  0  0  0  0  0  0  0  0  0  0  0
    7.4045   -5.8399    0.0000 C   0  0  0  0  0  0  0  0  0  0  0  0
    7.1741   -6.5593    0.0000 O   0  0  0  0  0  0  0  0  0  0  0  0
    7.1741   -7.3843    0.0000 C   0  0  1  0  0  0  0  0  0  0  0  0
    6.4597   -7.7968    0.0000 O   0  0  0  0  0  0  0  0  0  0  0  0
    6.4597   -8.6218    0.0000 C   0  0  1  0  0  0  0  0  0  0  0  0
    7.1741   -9.0343    0.0000 C   0  0  2  0  0  0  0  0  0  0  0  0
    7.8886   -8.6218    0.0000 C   0  0  1  0  0  0  0  0  0  0  0  0
    7.8886   -7.7968    0.0000 C   0  0  1  0  0  0  0  0  0  0  0  0
    5.7452   -9.0343    0.0000 C   0  0  0  0  0  0  0  0  0  0  0  0
    8.6031   -7.3843    0.0000 O   0  0  0  0  0  0  0  0  0  0  0  0
    7.1741   -9.8593    0.0000 O   0  0  0  0  0  0  0  0  0  0  0  0
    5.0307   -8.6218    0.0000 O   0  0  0  0  0  0  0  0  0  0  0  0
    7.9292   -6.4765    0.0000 O   0  0  0  0  0  0  0  0  0  0  0  0
    7.8886  -10.2718    0.0000 O   0  0  0  0  0  0  0  0  0  0  0  0
    9.3175  -10.2718    0.0000 C   0  0  0  0  0  0  0  0  0  0  0  0
    8.6031   -9.8593    0.0000 C   0  0  0  0  0  0  0  0  0  0  0  0
    8.6031   -9.0343    0.0000 O   0  0  0  0  0  0  0  0  0  0  0  0
    9.3175   -7.7968    0.0000 C   0  0  0  0  0  0  0  0  0  0  0  0
   10.0320   -7.3843    0.0000 C   0  0  0  0  0  0  0  0  0  0  0  0
    9.3175   -8.6218    0.0000 O   0  0  0  0  0  0  0  0  0  0  0  0
    6.4597  -10.2718    0.0000 C   0  0  0  0  0  0  0  0  0  0  0  0
    5.7452   -9.8593    0.0000 C   0  0  0  0  0  0  0  0  0  0  0  0
    6.4597  -11.0968    0.0000 O   0  0  0  0  0  0  0  0  0  0  0  0
  1  2  1  0  0  0  0
  2  3  2  0  0  0  0
  1  4  2  0  0  0  0
  1  5  1  0  0  0  0
  6  7  1  0  0  0  0
  7  8  2  0  0  0  0
  8  9  1  0  0  0  0
  9 10  2  0  0  0  0
 10 11  1  0  0  0  0
  6 11  2  0  0  0  0
  9 12  1  0  0  0  0
  3  6  1  0  0  0  0
 13 14  1  0  0  0  0
 14 15  1  0  0  0  0
 15 16  1  0  0  0  0
 16 17  1  0  0  0  0
 13 17  1  0  0  0  0
 18 19  1  0  0  0  0
 17 18  1  6  0  0  0
 16 20  1  1  0  0  0
 15  5  1  6  0  0  0
 14 21  1  0  0  0  0
 14 22  1  6  0  0  0
 23 22  1  6  0  0  0
 23 24  1  0  0  0  0
 24 25  1  0  0  0  0
 25 26  1  0  0  0  0
 26 27  1  0  0  0  0
 27 28  1  0  0  0  0
 28 23  1  0  0  0  0
 25 29  1  1  0  0  0
 36 34  2  0  0  0  0
 27 37  1  1  0  0  0
 28 30  1  6  0  0  0
 26 31  1  6  0  0  0
 29 32  1  0  0  0  0
 21 33  1  0  0  0  0
 36 35  1  0  0  0  0
 37 36  1  0  0  0  0
 30 38  1  0  0  0  0
 38 39  1  0  0  0  0
 38 40  2  0  0  0  0
 31 41  1  0  0  0  0
 41 42  1  0  0  0  0
 41 43  2  0  0  0  0
M  END
>  <cdx:fragmentId>
204591

$$$$
