50143.cdx
  Mrv1902 05222410282D          

 45 49  0  0  0  0            999 V2000
    3.0304   -6.5277    0.0000 C   0  0  0  0  0  0  0  0  0  0  0  0
    3.0242   -7.3527    0.0000 C   0  0  0  0  0  0  0  0  0  0  0  0
    3.7356   -7.7705    0.0000 C   0  0  0  0  0  0  0  0  0  0  0  0
    4.4531   -7.3633    0.0000 C   0  0  0  0  0  0  0  0  0  0  0  0
    4.4593   -6.5383    0.0000 C   0  0  0  0  0  0  0  0  0  0  0  0
    3.7479   -6.1205    0.0000 C   0  0  0  0  0  0  0  0  0  0  0  0
    5.1645   -7.7811    0.0000 C   0  0  0  0  0  0  0  0  0  0  0  0
    5.8820   -7.3740    0.0000 C   0  0  0  0  0  0  0  0  0  0  0  0
    5.8882   -6.5490    0.0000 C   0  0  0  0  0  0  0  0  0  0  0  0
    5.1768   -6.1312    0.0000 O   0  0  0  0  0  0  0  0  0  0  0  0
    3.7294   -8.5954    0.0000 O   0  0  0  0  0  0  0  0  0  0  0  0
    5.1583   -8.6061    0.0000 O   0  0  0  0  0  0  0  0  0  0  0  0
    6.5934   -7.7918    0.0000 O   0  0  0  0  0  0  0  0  0  0  0  0
    7.3171   -6.5596    0.0000 C   0  0  0  0  0  0  0  0  0  0  0  0
    6.6057   -6.1418    0.0000 C   0  0  0  0  0  0  0  0  0  0  0  0
    8.0346   -6.1525    0.0000 C   0  0  0  0  0  0  0  0  0  0  0  0
    8.0407   -5.3275    0.0000 C   0  0  0  0  0  0  0  0  0  0  0  0
    7.3294   -4.9097    0.0000 C   0  0  0  0  0  0  0  0  0  0  0  0
    6.6118   -5.3168    0.0000 C   0  0  0  0  0  0  0  0  0  0  0  0
    2.3190   -6.1099    0.0000 O   0  0  0  0  0  0  0  0  0  0  0  0
    7.3355   -4.0847    0.0000 O   0  0  0  0  0  0  0  0  0  0  0  0
    8.7583   -4.9203    0.0000 O   0  0  0  0  0  0  0  0  0  0  0  0
    8.0500   -3.6722    0.0000 C   0  0  0  0  0  0  0  0  0  0  0  0
    5.8920  -10.0013    0.0000 C   0  0  2  0  0  0  0  0  0  0  0  0
    6.6101  -10.4075    0.0000 C   0  0  2  0  0  0  0  0  0  0  0  0
    7.3209   -9.9888    0.0000 C   0  0  1  0  0  0  0  0  0  0  0  0
    7.3137   -9.1638    0.0000 C   0  0  2  0  0  0  0  0  0  0  0  0
    6.5957   -8.7576    0.0000 C   0  0  1  0  0  0  0  0  0  0  0  0
    5.8848   -9.1763    0.0000 O   0  0  0  0  0  0  0  0  0  0  0  0
    8.0390  -10.3951    0.0000 O   0  0  0  0  0  0  0  0  0  0  0  0
    8.7498   -9.9764    0.0000 O   0  0  0  0  0  0  0  0  0  0  0  0
    8.7426   -9.1514    0.0000 C   0  0  1  0  0  0  0  0  0  0  0  0
    8.0246   -8.7451    0.0000 O   0  0  0  0  0  0  0  0  0  0  0  0
    9.4678  -10.3826    0.0000 C   0  0  1  0  0  0  0  0  0  0  0  0
   10.1787   -9.9639    0.0000 C   0  0  2  0  0  0  0  0  0  0  0  0
   10.1715   -9.1389    0.0000 C   0  0  1  0  0  0  0  0  0  0  0  0
    9.4534   -8.7327    0.0000 C   0  0  1  0  0  0  0  0  0  0  0  0
    5.1812  -10.4200    0.0000 C   0  0  0  0  0  0  0  0  0  0  0  0
    5.1884  -11.2450    0.0000 O   0  0  0  0  0  0  0  0  0  0  0  0
    6.6173  -11.2325    0.0000 O   0  0  0  0  0  0  0  0  0  0  0  0
    9.4462   -7.9077    0.0000 O   0  0  0  0  0  0  0  0  0  0  0  0
   10.8823   -8.7202    0.0000 O   0  0  0  0  0  0  0  0  0  0  0  0
   10.8967  -10.3701    0.0000 O   0  0  0  0  0  0  0  0  0  0  0  0
    9.4750  -11.2076    0.0000 C   0  0  0  0  0  0  0  0  0  0  0  0
   10.1895  -11.6201    0.0000 O   0  0  0  0  0  0  0  0  0  0  0  0
  1  2  2  0  0  0  0
  2  3  1  0  0  0  0
  3  4  2  0  0  0  0
  4  5  1  0  0  0  0
  5  6  2  0  0  0  0
  6  1  1  0  0  0  0
  4  7  1  0  0  0  0
  7  8  1  0  0  0  0
  8  9  2  0  0  0  0
  9 10  1  0  0  0  0
 10  5  1  0  0  0  0
  3 11  1  0  0  0  0
 12  7  2  0  0  0  0
  8 13  1  0  0  0  0
 14 15  2  0  0  0  0
 15  9  1  0  0  0  0
 14 16  1  0  0  0  0
 16 17  2  0  0  0  0
 17 18  1  0  0  0  0
 18 19  2  0  0  0  0
 19 15  1  0  0  0  0
  1 20  1  0  0  0  0
 18 21  1  0  0  0  0
 17 22  1  0  0  0  0
 21 23  1  0  0  0  0
 24 25  1  0  0  0  0
 25 26  1  0  0  0  0
 26 27  1  0  0  0  0
 27 28  1  0  0  0  0
 28 29  1  0  0  0  0
 29 24  1  0  0  0  0
 26 30  1  1  0  0  0
 31 32  1  0  0  0  0
 32 33  1  1  0  0  0
 27 33  1  6  0  0  0
 31 34  1  0  0  0  0
 34 35  1  0  0  0  0
 35 36  1  0  0  0  0
 36 37  1  0  0  0  0
 37 32  1  0  0  0  0
 24 38  1  1  0  0  0
 38 39  1  0  0  0  0
 25 40  1  6  0  0  0
 37 41  1  6  0  0  0
 36 42  1  1  0  0  0
 35 43  1  6  0  0  0
 34 44  1  1  0  0  0
 44 45  1  0  0  0  0
 28 13  1  1  0  0  0
M  END
>  <cdx:fragmentId>
5

$$$$
