50142.cdx
  Mrv1902 05222410282D          

 41 45  0  0  0  0            999 V2000
    3.7243   -8.6820    0.0000 C   0  0  0  0  0  0  0  0  0  0  0  0
    3.7243   -9.5070    0.0000 C   0  0  0  0  0  0  0  0  0  0  0  0
    4.4388   -9.9195    0.0000 C   0  0  0  0  0  0  0  0  0  0  0  0
    5.1532   -9.5070    0.0000 C   0  0  0  0  0  0  0  0  0  0  0  0
    5.1532   -8.6820    0.0000 C   0  0  0  0  0  0  0  0  0  0  0  0
    4.4388   -8.2695    0.0000 C   0  0  0  0  0  0  0  0  0  0  0  0
    5.8677   -9.9195    0.0000 C   0  0  0  0  0  0  0  0  0  0  0  0
    6.5822   -9.5070    0.0000 C   0  0  0  0  0  0  0  0  0  0  0  0
    6.5822   -8.6820    0.0000 C   0  0  0  0  0  0  0  0  0  0  0  0
    5.8677   -8.2695    0.0000 O   0  0  0  0  0  0  0  0  0  0  0  0
    7.2967   -8.2695    0.0000 C   0  0  0  0  0  0  0  0  0  0  0  0
    7.2967   -7.4445    0.0000 C   0  0  0  0  0  0  0  0  0  0  0  0
    8.0111   -8.6820    0.0000 C   0  0  0  0  0  0  0  0  0  0  0  0
    8.7256   -8.2695    0.0000 C   0  0  0  0  0  0  0  0  0  0  0  0
    8.7256   -7.4445    0.0000 C   0  0  0  0  0  0  0  0  0  0  0  0
    8.0111   -7.0320    0.0000 C   0  0  0  0  0  0  0  0  0  0  0  0
    4.4388  -10.7445    0.0000 O   0  0  0  0  0  0  0  0  0  0  0  0
    5.8677  -10.7445    0.0000 O   0  0  0  0  0  0  0  0  0  0  0  0
    3.0098   -8.2695    0.0000 O   0  0  0  0  0  0  0  0  0  0  0  0
    7.2967   -9.9195    0.0000 O   0  0  0  0  0  0  0  0  0  0  0  0
    9.4401   -7.0320    0.0000 O   0  0  0  0  0  0  0  0  0  0  0  0
    8.0111   -6.2070    0.0000 O   0  0  0  0  0  0  0  0  0  0  0  0
    6.6183  -11.9968    0.0000 C   0  0  2  0  0  0  0  0  0  0  0  0
    7.3383  -12.3995    0.0000 C   0  0  2  0  0  0  0  0  0  0  0  0
    8.0471  -11.9772    0.0000 C   0  0  1  0  0  0  0  0  0  0  0  0
    8.0358  -11.1523    0.0000 C   0  0  2  0  0  0  0  0  0  0  0  0
    7.3157  -10.7496    0.0000 C   0  0  1  0  0  0  0  0  0  0  0  0
    6.6069  -11.1719    0.0000 O   0  0  0  0  0  0  0  0  0  0  0  0
    5.9095  -12.4191    0.0000 C   0  0  0  0  0  0  0  0  0  0  0  0
    8.7671  -12.3799    0.0000 O   0  0  0  0  0  0  0  0  0  0  0  0
    7.3497  -13.2244    0.0000 O   0  0  0  0  0  0  0  0  0  0  0  0
    8.7445  -10.7300    0.0000 O   0  0  0  0  0  0  0  0  0  0  0  0
    5.9209  -13.2440    0.0000 O   0  0  0  0  0  0  0  0  0  0  0  0
   10.8485  -10.0138    0.0000 C   0  0  0  0  0  0  0  0  0  0  0  0
   11.2624   -9.3002    0.0000 C   0  0  0  0  0  0  0  0  0  0  0  0
   10.8513   -8.5849    0.0000 C   0  0  0  0  0  0  0  0  0  0  0  0
   10.0263   -8.5832    0.0000 C   0  0  0  0  0  0  0  0  0  0  0  0
    9.6124   -9.2968    0.0000 C   0  0  0  0  0  0  0  0  0  0  0  0
   10.0235  -10.0121    0.0000 C   0  0  0  0  0  0  0  0  0  0  0  0
    9.6095  -10.7258    0.0000 C   0  0  0  0  0  0  0  0  0  0  0  0
   10.0206  -11.4411    0.0000 O   0  0  0  0  0  0  0  0  0  0  0  0
  1  2  2  0  0  0  0
  2  3  1  0  0  0  0
  3  4  2  0  0  0  0
  4  5  1  0  0  0  0
  5  6  2  0  0  0  0
  6  1  1  0  0  0  0
  4  7  1  0  0  0  0
  7  8  1  0  0  0  0
  8  9  2  0  0  0  0
  9 10  1  0  0  0  0
 10  5  1  0  0  0  0
  9 11  1  0  0  0  0
 11 12  1  0  0  0  0
 11 13  2  0  0  0  0
 13 14  1  0  0  0  0
 14 15  2  0  0  0  0
 15 16  1  0  0  0  0
 16 12  2  0  0  0  0
  3 17  1  0  0  0  0
 18  7  2  0  0  0  0
  1 19  1  0  0  0  0
  8 20  1  0  0  0  0
 15 21  1  0  0  0  0
 16 22  1  0  0  0  0
 23 24  1  0  0  0  0
 24 25  1  0  0  0  0
 25 26  1  0  0  0  0
 26 27  1  0  0  0  0
 27 28  1  0  0  0  0
 28 23  1  0  0  0  0
 23 29  1  1  0  0  0
 25 30  1  1  0  0  0
 24 31  1  6  0  0  0
 26 32  1  6  0  0  0
 29 33  1  0  0  0  0
 27 20  1  1  0  0  0
 34 35  2  0  0  0  0
 35 36  1  0  0  0  0
 36 37  2  0  0  0  0
 37 38  1  0  0  0  0
 38 39  2  0  0  0  0
 39 34  1  0  0  0  0
 39 40  1  0  0  0  0
 40 41  2  0  0  0  0
 40 32  1  0  0  0  0
M  END
>  <cdx:fragmentId>
5

$$$$
