50140.cdx
  Mrv1902 05222410272D          

 35 38  0  0  0  0            999 V2000
    9.7095   -9.5480    0.0000 O   0  0  0  0  0  0  0  0  0  0  0  0
    6.8516  -10.3730    0.0000 O   0  0  0  0  0  0  0  0  0  0  0  0
    5.4226   -7.8980    0.0000 O   0  0  0  0  0  0  0  0  0  0  0  0
   11.8529   -6.6605    0.0000 O   0  0  0  0  0  0  0  0  0  0  0  0
   12.5673   -7.8980    0.0000 C   0  0  0  0  0  0  0  0  0  0  0  0
   11.8529   -8.3105    0.0000 O   0  0  0  0  0  0  0  0  0  0  0  0
    9.7095   -7.0730    0.0000 C   0  0  0  0  0  0  0  0  0  0  0  0
   10.4239   -6.6605    0.0000 C   0  0  0  0  0  0  0  0  0  0  0  0
   11.1384   -7.0730    0.0000 C   0  0  0  0  0  0  0  0  0  0  0  0
   11.1384   -7.8980    0.0000 C   0  0  0  0  0  0  0  0  0  0  0  0
   10.4239   -8.3105    0.0000 C   0  0  0  0  0  0  0  0  0  0  0  0
    9.7095   -7.8980    0.0000 C   0  0  0  0  0  0  0  0  0  0  0  0
    8.2805  -10.3730    0.0000 O   0  0  0  0  0  0  0  0  0  0  0  0
    8.2805   -7.8980    0.0000 O   0  0  0  0  0  0  0  0  0  0  0  0
    7.5660   -8.3105    0.0000 C   0  0  0  0  0  0  0  0  0  0  0  0
    6.8516   -7.8980    0.0000 C   0  0  0  0  0  0  0  0  0  0  0  0
    6.1371   -8.3105    0.0000 C   0  0  0  0  0  0  0  0  0  0  0  0
    6.1371   -9.1355    0.0000 C   0  0  0  0  0  0  0  0  0  0  0  0
    6.8516   -9.5480    0.0000 C   0  0  0  0  0  0  0  0  0  0  0  0
    7.5660   -9.1355    0.0000 C   0  0  0  0  0  0  0  0  0  0  0  0
    8.2805   -9.5480    0.0000 C   0  0  0  0  0  0  0  0  0  0  0  0
    8.9950   -9.1355    0.0000 C   0  0  0  0  0  0  0  0  0  0  0  0
    8.9950   -8.3105    0.0000 C   0  0  0  0  0  0  0  0  0  0  0  0
    4.7082   -8.3105    0.0000 C   0  0  2  0  0  0  0  0  0  0  0  0
    3.9937   -7.8980    0.0000 O   0  0  0  0  0  0  0  0  0  0  0  0
    3.2792   -8.3105    0.0000 C   0  0  1  0  0  0  0  0  0  0  0  0
    3.2792   -9.1355    0.0000 C   0  0  2  0  0  0  0  0  0  0  0  0
    3.9937   -9.5480    0.0000 C   0  0  1  0  0  0  0  0  0  0  0  0
    4.7082   -9.1355    0.0000 C   0  0  1  0  0  0  0  0  0  0  0  0
    2.5647   -7.8980    0.0000 C   0  0  0  0  0  0  0  0  0  0  0  0
    3.9937  -10.3730    0.0000 O   0  0  0  0  0  0  0  0  0  0  0  0
    2.5647   -9.5480    0.0000 O   0  0  0  0  0  0  0  0  0  0  0  0
    5.4226   -9.5480    0.0000 O   0  0  0  0  0  0  0  0  0  0  0  0
    1.8503   -8.3105    0.0000 O   0  0  0  0  0  0  0  0  0  0  0  0
    2.5647   -7.0730    0.0000 O   0  0  0  0  0  0  0  0  0  0  0  0
 22  1  1  0  0  0  0
 19  2  1  0  0  0  0
 17  3  1  0  0  0  0
 23 12  1  0  0  0  0
  9  4  1  0  0  0  0
 10  6  1  0  0  0  0
  6  5  1  0  0  0  0
 12  7  2  0  0  0  0
  8  7  1  0  0  0  0
  9  8  2  0  0  0  0
 10  9  1  0  0  0  0
 11 10  2  0  0  0  0
 12 11  1  0  0  0  0
 21 13  2  0  0  0  0
 23 14  1  0  0  0  0
 15 14  1  0  0  0  0
 20 15  2  0  0  0  0
 16 15  1  0  0  0  0
 17 16  2  0  0  0  0
 18 17  1  0  0  0  0
 19 18  2  0  0  0  0
 20 19  1  0  0  0  0
 21 20  1  0  0  0  0
 22 21  1  0  0  0  0
 23 22  2  0  0  0  0
 24  3  1  1  0  0  0
 24 25  1  0  0  0  0
 25 26  1  0  0  0  0
 26 27  1  0  0  0  0
 27 28  1  0  0  0  0
 28 29  1  0  0  0  0
 29 24  1  0  0  0  0
 26 30  1  1  0  0  0
 28 31  1  1  0  0  0
 27 32  1  6  0  0  0
 29 33  1  6  0  0  0
 30 34  1  0  0  0  0
 30 35  2  0  0  0  0
M  END
>  <cdx:fragmentId>
5

$$$$
