50159.cdx
  Mrv1902 05222410192D          

 16 18  0  0  0  0            999 V2000
    7.1068   -6.2070    0.0000 C   0  0  2  0  0  0  0  0  0  0  0  0
    7.1068   -7.0320    0.0000 C   0  0  0  0  0  0  0  0  0  0  0  0
    7.8213   -7.4445    0.0000 C   0  0  1  0  0  0  0  0  0  0  0  0
    8.5357   -7.0320    0.0000 C   0  0  0  0  0  0  0  0  0  0  0  0
    8.5357   -6.2070    0.0000 C   0  0  0  0  0  0  0  0  0  0  0  0
    7.8213   -5.7945    0.0000 C   0  0  0  0  0  0  0  0  0  0  0  0
    6.3099   -6.4206    0.0000 C   0  0  0  0  0  0  0  0  0  0  0  0
    7.2379   -8.0279    0.0000 C   0  0  0  0  0  0  0  0  0  0  0  0
    6.0964   -7.2174    0.0000 C   0  0  0  0  0  0  0  0  0  0  0  0
    6.4410   -7.8144    0.0000 C   0  0  0  0  0  0  0  0  0  0  0  0
    5.5130   -6.2070    0.0000 C   0  0  0  0  0  0  0  0  0  0  0  0
    5.2995   -7.0039    0.0000 C   0  0  0  0  0  0  0  0  0  0  0  0
    4.5026   -6.7904    0.0000 C   0  0  0  0  0  0  0  0  0  0  0  0
    5.0860   -7.8008    0.0000 C   0  0  0  0  0  0  0  0  0  0  0  0
    6.3923   -5.7945    0.0000 O   0  0  0  0  0  0  0  0  0  0  0  0
    7.8213   -8.2695    0.0000 C   0  0  0  0  0  0  0  0  0  0  0  0
  1  2  1  0  0  0  0
  2  3  1  0  0  0  0
  3  4  1  0  0  0  0
  4  5  1  0  0  0  0
  5  6  1  0  0  0  0
  6  1  1  0  0  0  0
  1  7  1  0  0  0  0
  3  8  1  0  0  0  0
  7  9  1  0  0  0  0
  8 10  1  0  0  0  0
  9 10  1  0  0  0  0
  7 11  1  0  0  0  0
 11 12  1  0  0  0  0
 12  9  1  0  0  0  0
 12 13  1  0  0  0  0
 12 14  1  0  0  0  0
  1 15  1  6  0  0  0
  3 16  1  6  0  0  0
M  END
>  <cdx:fragmentId>
5

$$$$
