50154.cdx
  Mrv1902 05222410272D          

 33 35  0  0  0  0            999 V2000
    4.2924   -7.1819    0.0000 C   0  0  0  0  0  0  0  0  0  0  0  0
    4.2924   -8.0069    0.0000 C   0  0  0  0  0  0  0  0  0  0  0  0
    5.0069   -8.4194    0.0000 C   0  0  0  0  0  0  0  0  0  0  0  0
    5.7213   -8.0069    0.0000 C   0  0  0  0  0  0  0  0  0  0  0  0
    5.7213   -7.1819    0.0000 C   0  0  0  0  0  0  0  0  0  0  0  0
    5.0069   -6.7694    0.0000 C   0  0  0  0  0  0  0  0  0  0  0  0
    3.5779   -6.7694    0.0000 O   0  0  0  0  0  0  0  0  0  0  0  0
    3.5779   -8.4194    0.0000 O   0  0  0  0  0  0  0  0  0  0  0  0
    6.4358   -6.7694    0.0000 C   0  0  0  0  0  0  0  0  0  0  0  0
    7.1503   -7.1819    0.0000 C   0  0  0  0  0  0  0  0  0  0  0  0
    7.8647   -6.7694    0.0000 C   0  0  0  0  0  0  0  0  0  0  0  0
    8.5792   -7.1819    0.0000 O   0  0  0  0  0  0  0  0  0  0  0  0
    7.8647   -5.9444    0.0000 O   0  0  0  0  0  0  0  0  0  0  0  0
    9.2937   -6.7694    0.0000 C   0  0  1  0  0  0  0  0  0  0  0  0
   10.0081   -7.1819    0.0000 C   0  0  2  0  0  0  0  0  0  0  0  0
   10.7226   -6.7694    0.0000 C   0  0  1  0  0  0  0  0  0  0  0  0
   10.7226   -5.9444    0.0000 C   0  0  0  0  0  0  0  0  0  0  0  0
   10.0081   -5.5319    0.0000 C   0  0  2  0  0  0  0  0  0  0  0  0
    9.2937   -5.9444    0.0000 C   0  0  0  0  0  0  0  0  0  0  0  0
   10.0081   -8.0069    0.0000 O   0  0  0  0  0  0  0  0  0  0  0  0
    9.5956   -4.8174    0.0000 O   0  0  0  0  0  0  0  0  0  0  0  0
   11.4371   -7.1819    0.0000 O   0  0  0  0  0  0  0  0  0  0  0  0
   10.4206   -4.8174    0.0000 C   0  0  0  0  0  0  0  0  0  0  0  0
   10.0081   -4.1030    0.0000 O   0  0  0  0  0  0  0  0  0  0  0  0
   11.2456   -4.8174    0.0000 O   0  0  0  0  0  0  0  0  0  0  0  0
   10.7226   -8.4194    0.0000 C   0  0  0  0  0  0  0  0  0  0  0  0
   10.7226   -9.2444    0.0000 C   0  0  0  0  0  0  0  0  0  0  0  0
   11.4371   -8.0069    0.0000 O   0  0  0  0  0  0  0  0  0  0  0  0
   10.0081   -9.6569    0.0000 C   0  0  0  0  0  0  0  0  0  0  0  0
   10.0081  -10.4819    0.0000 C   0  0  0  0  0  0  0  0  0  0  0  0
   10.7226  -10.8944    0.0000 C   0  0  0  0  0  0  0  0  0  0  0  0
   11.4371  -10.4819    0.0000 C   0  0  0  0  0  0  0  0  0  0  0  0
   11.4371   -9.6569    0.0000 C   0  0  0  0  0  0  0  0  0  0  0  0
  1  2  2  0  0  0  0
  2  3  1  0  0  0  0
  3  4  2  0  0  0  0
  4  5  1  0  0  0  0
  5  6  2  0  0  0  0
  6  1  1  0  0  0  0
  1  7  1  0  0  0  0
  2  8  1  0  0  0  0
  5  9  1  0  0  0  0
  9 10  2  0  0  0  0
 10 11  1  0  0  0  0
 11 12  1  0  0  0  0
 11 13  2  0  0  0  0
 14 12  1  6  0  0  0
 14 15  1  0  0  0  0
 15 16  1  0  0  0  0
 16 17  1  0  0  0  0
 17 18  1  0  0  0  0
 18 19  1  0  0  0  0
 19 14  1  0  0  0  0
 15 20  1  6  0  0  0
 18 21  1  6  0  0  0
 16 22  1  1  0  0  0
 18 23  1  0  0  0  0
 23 24  2  0  0  0  0
 23 25  1  0  0  0  0
 20 26  1  0  0  0  0
 26 27  1  0  0  0  0
 26 28  2  0  0  0  0
 27 29  2  0  0  0  0
 29 30  1  0  0  0  0
 30 31  2  0  0  0  0
 31 32  1  0  0  0  0
 32 33  2  0  0  0  0
 33 27  1  0  0  0  0
M  END
>  <cdx:fragmentId>
6

$$$$
