50152.cdx
  Mrv1902 05222410262D          

 49 51  0  0  0  0            999 V2000
    8.9720   -4.6869    0.0000 O   0  0  0  0  0  0  0  0  0  0  0  0
    8.0913   -6.6316    0.0000 O   0  0  0  0  0  0  0  0  0  0  0  0
    8.7546   -6.1409    0.0000 C   0  0  1  0  0  0  0  0  0  0  0  0
    8.4928   -5.3585    0.0000 C   0  0  2  0  0  0  0  0  0  0  0  0
    7.6679   -5.3657    0.0000 C   0  0  1  0  0  0  0  0  0  0  0  0
    7.4197   -6.1525    0.0000 C   0  0  1  0  0  0  0  0  0  0  0  0
    6.6373   -6.4142    0.0000 C   0  0  0  0  0  0  0  0  0  0  0  0
    5.9229   -6.0017    0.0000 O   0  0  0  0  0  0  0  0  0  0  0  0
    7.1772   -4.7024    0.0000 O   0  0  0  0  0  0  0  0  0  0  0  0
    9.5683   -6.0049    0.0000 C   0  0  0  0  0  0  0  0  0  0  0  0
    9.3379   -6.7243    0.0000 O   0  0  0  0  0  0  0  0  0  0  0  0
    9.3379   -7.5493    0.0000 C   0  0  1  0  0  0  0  0  0  0  0  0
    8.6234   -7.9618    0.0000 O   0  0  0  0  0  0  0  0  0  0  0  0
    8.6234   -8.7868    0.0000 C   0  0  1  0  0  0  0  0  0  0  0  0
    9.3379   -9.1993    0.0000 C   0  0  2  0  0  0  0  0  0  0  0  0
   10.0524   -8.7868    0.0000 C   0  0  1  0  0  0  0  0  0  0  0  0
   10.0524   -7.9618    0.0000 C   0  0  1  0  0  0  0  0  0  0  0  0
    7.9090   -9.1993    0.0000 C   0  0  0  0  0  0  0  0  0  0  0  0
   10.7669   -9.1993    0.0000 O   0  0  0  0  0  0  0  0  0  0  0  0
   10.7669   -7.5493    0.0000 O   0  0  0  0  0  0  0  0  0  0  0  0
    9.3379  -10.0243    0.0000 O   0  0  0  0  0  0  0  0  0  0  0  0
   10.0930   -6.6415    0.0000 O   0  0  0  0  0  0  0  0  0  0  0  0
    7.5063   -3.9459    0.0000 C   0  0  0  0  0  0  0  0  0  0  0  0
    7.0156   -3.2827    0.0000 O   0  0  0  0  0  0  0  0  0  0  0  0
    8.3260   -3.8526    0.0000 C   0  0  0  0  0  0  0  0  0  0  0  0
   10.7669  -10.0243    0.0000 C   0  0  0  0  0  0  0  0  0  0  0  0
   10.0524  -10.4368    0.0000 O   0  0  0  0  0  0  0  0  0  0  0  0
   11.4813  -10.4368    0.0000 C   0  0  0  0  0  0  0  0  0  0  0  0
    7.1945   -8.7868    0.0000 O   0  0  0  0  0  0  0  0  0  0  0  0
    6.4800   -9.1993    0.0000 C   0  0  0  0  0  0  0  0  0  0  0  0
    5.7656   -8.7868    0.0000 C   0  0  0  0  0  0  0  0  0  0  0  0
    6.4800  -10.0243    0.0000 O   0  0  0  0  0  0  0  0  0  0  0  0
    8.6234  -10.4368    0.0000 C   0  0  0  0  0  0  0  0  0  0  0  0
    7.9090  -10.0243    0.0000 C   0  0  0  0  0  0  0  0  0  0  0  0
    8.6234  -11.2618    0.0000 O   0  0  0  0  0  0  0  0  0  0  0  0
    5.2084   -6.4142    0.0000 C   0  0  0  0  0  0  0  0  0  0  0  0
    4.4939   -6.0017    0.0000 C   0  0  0  0  0  0  0  0  0  0  0  0
    5.2084   -7.2392    0.0000 O   0  0  0  0  0  0  0  0  0  0  0  0
    3.7794   -6.4142    0.0000 C   0  0  0  0  0  0  0  0  0  0  0  0
    3.0650   -6.0017    0.0000 C   0  0  0  0  0  0  0  0  0  0  0  0
    3.0650   -5.1767    0.0000 C   0  0  0  0  0  0  0  0  0  0  0  0
    2.3505   -4.7642    0.0000 C   0  0  0  0  0  0  0  0  0  0  0  0
    1.6360   -5.1767    0.0000 C   0  0  0  0  0  0  0  0  0  0  0  0
    1.6360   -6.0017    0.0000 C   0  0  0  0  0  0  0  0  0  0  0  0
    2.3505   -6.4142    0.0000 C   0  0  0  0  0  0  0  0  0  0  0  0
    0.9216   -4.7642    0.0000 O   0  0  0  0  0  0  0  0  0  0  0  0
   11.4813   -7.9618    0.0000 C   0  0  0  0  0  0  0  0  0  0  0  0
   12.1958   -7.5493    0.0000 C   0  0  0  0  0  0  0  0  0  0  0  0
   11.4813   -8.7868    0.0000 O   0  0  0  0  0  0  0  0  0  0  0  0
  2  3  1  0  0  0  0
  3  4  1  0  0  0  0
  4  5  1  0  0  0  0
  5  6  1  0  0  0  0
  2  6  1  0  0  0  0
  7  8  1  0  0  0  0
  6  7  1  6  0  0  0
  5  9  1  1  0  0  0
  4  1  1  6  0  0  0
  3 10  1  0  0  0  0
  3 11  1  6  0  0  0
 12 11  1  6  0  0  0
 12 13  1  0  0  0  0
 13 14  1  0  0  0  0
 14 15  1  0  0  0  0
 15 16  1  0  0  0  0
 16 17  1  0  0  0  0
 17 12  1  0  0  0  0
 14 18  1  1  0  0  0
 16 19  1  1  0  0  0
 17 20  1  6  0  0  0
 15 21  1  6  0  0  0
 10 22  1  0  0  0  0
  9 23  1  0  0  0  0
 23 24  2  0  0  0  0
 23 25  1  0  0  0  0
 19 26  1  0  0  0  0
 26 27  2  0  0  0  0
 26 28  1  0  0  0  0
 18 29  1  0  0  0  0
 29 30  1  0  0  0  0
 30 31  1  0  0  0  0
 30 32  2  0  0  0  0
 21 33  1  0  0  0  0
 33 34  1  0  0  0  0
 33 35  2  0  0  0  0
  8 36  1  0  0  0  0
 36 37  1  0  0  0  0
 36 38  2  0  0  0  0
 37 39  2  0  0  0  0
 39 40  1  0  0  0  0
 40 41  2  0  0  0  0
 41 42  1  0  0  0  0
 42 43  2  0  0  0  0
 43 44  1  0  0  0  0
 44 45  2  0  0  0  0
 45 40  1  0  0  0  0
 43 46  1  0  0  0  0
 20 47  1  0  0  0  0
 47 48  1  0  0  0  0
 47 49  2  0  0  0  0
M  END
>  <cdx:fragmentId>
204591

$$$$
