50153.cdx
  Mrv1902 05222410262D          

 38 40  0  0  0  0            999 V2000
    2.8624   -7.0719    0.0000 C   0  0  0  0  0  0  0  0  0  0  0  0
    2.8624   -7.8969    0.0000 C   0  0  0  0  0  0  0  0  0  0  0  0
    3.5769   -8.3094    0.0000 C   0  0  0  0  0  0  0  0  0  0  0  0
    4.2913   -7.8969    0.0000 C   0  0  0  0  0  0  0  0  0  0  0  0
    4.2913   -7.0719    0.0000 C   0  0  0  0  0  0  0  0  0  0  0  0
    3.5769   -6.6594    0.0000 C   0  0  0  0  0  0  0  0  0  0  0  0
    2.1479   -6.6594    0.0000 O   0  0  0  0  0  0  0  0  0  0  0  0
    2.1479   -8.3094    0.0000 O   0  0  0  0  0  0  0  0  0  0  0  0
    5.0058   -6.6594    0.0000 C   0  0  0  0  0  0  0  0  0  0  0  0
    5.7203   -7.0719    0.0000 C   0  0  0  0  0  0  0  0  0  0  0  0
    6.4347   -6.6594    0.0000 C   0  0  0  0  0  0  0  0  0  0  0  0
    7.1492   -7.0719    0.0000 O   0  0  0  0  0  0  0  0  0  0  0  0
    6.4347   -5.8344    0.0000 O   0  0  0  0  0  0  0  0  0  0  0  0
    7.8637   -6.6594    0.0000 C   0  0  1  0  0  0  0  0  0  0  0  0
    8.5781   -7.0719    0.0000 C   0  0  1  0  0  0  0  0  0  0  0  0
    9.2926   -6.6594    0.0000 C   0  0  1  0  0  0  0  0  0  0  0  0
    9.2926   -5.8344    0.0000 C   0  0  0  0  0  0  0  0  0  0  0  0
    8.5781   -5.4219    0.0000 C   0  0  1  0  0  0  0  0  0  0  0  0
    7.8637   -5.8344    0.0000 C   0  0  0  0  0  0  0  0  0  0  0  0
    8.5781   -7.8969    0.0000 O   0  0  0  0  0  0  0  0  0  0  0  0
    8.1656   -4.7074    0.0000 O   0  0  0  0  0  0  0  0  0  0  0  0
   10.0071   -7.0719    0.0000 O   0  0  0  0  0  0  0  0  0  0  0  0
    8.9906   -4.7074    0.0000 C   0  0  0  0  0  0  0  0  0  0  0  0
    8.5781   -3.9930    0.0000 O   0  0  0  0  0  0  0  0  0  0  0  0
    9.8156   -4.7074    0.0000 O   0  0  0  0  0  0  0  0  0  0  0  0
    9.2926   -8.3094    0.0000 C   0  0  0  0  0  0  0  0  0  0  0  0
   10.0071   -7.8969    0.0000 O   0  0  0  0  0  0  0  0  0  0  0  0
    9.2926   -9.1344    0.0000 C   0  0  0  0  0  0  0  0  0  0  0  0
   10.0071   -9.5469    0.0000 C   0  0  0  0  0  0  0  0  0  0  0  0
   10.0071  -10.3719    0.0000 C   0  0  0  0  0  0  0  0  0  0  0  0
    9.2926  -10.7844    0.0000 C   0  0  0  0  0  0  0  0  0  0  0  0
    9.2926  -11.6094    0.0000 C   0  0  0  0  0  0  0  0  0  0  0  0
   10.0071  -12.0219    0.0000 C   0  0  0  0  0  0  0  0  0  0  0  0
   10.7216  -11.6094    0.0000 C   0  0  0  0  0  0  0  0  0  0  0  0
   10.7216  -10.7844    0.0000 C   0  0  0  0  0  0  0  0  0  0  0  0
   10.0071  -12.8469    0.0000 O   0  0  0  0  0  0  0  0  0  0  0  0
   11.4360  -12.0219    0.0000 O   0  0  0  0  0  0  0  0  0  0  0  0
   11.4360  -12.8469    0.0000 C   0  0  0  0  0  0  0  0  0  0  0  0
  1  2  2  0  0  0  0
  2  3  1  0  0  0  0
  3  4  2  0  0  0  0
  4  5  1  0  0  0  0
  5  6  2  0  0  0  0
  6  1  1  0  0  0  0
  1  7  1  0  0  0  0
  2  8  1  0  0  0  0
  5  9  1  0  0  0  0
  9 10  2  0  0  0  0
 10 11  1  0  0  0  0
 11 12  1  0  0  0  0
 11 13  2  0  0  0  0
 14 12  1  6  0  0  0
 14 15  1  0  0  0  0
 15 16  1  0  0  0  0
 16 17  1  0  0  0  0
 17 18  1  0  0  0  0
 18 19  1  0  0  0  0
 19 14  1  0  0  0  0
 15 20  1  1  0  0  0
 18 21  1  1  0  0  0
 16 22  1  1  0  0  0
 18 23  1  0  0  0  0
 23 24  2  0  0  0  0
 23 25  1  0  0  0  0
 20 26  1  0  0  0  0
 26 27  2  0  0  0  0
 26 28  1  0  0  0  0
 28 29  2  0  0  0  0
 29 30  1  0  0  0  0
 30 31  2  0  0  0  0
 31 32  1  0  0  0  0
 32 33  2  0  0  0  0
 33 34  1  0  0  0  0
 34 35  2  0  0  0  0
 35 30  1  0  0  0  0
 33 36  1  0  0  0  0
 34 37  1  0  0  0  0
 37 38  1  0  0  0  0
M  END
>  <cdx:fragmentId>
162

$$$$
