50167.cdx
  Mrv1902 05222410182D          

 28 30  0  0  0  0            999 V2000
   10.3924   -6.2096    0.0000 O   0  0  0  0  0  0  0  0  0  0  0  0
    6.1060   -6.2729    0.0000 C   0  0  0  0  0  0  0  0  0  0  0  0
    6.8143   -5.8499    0.0000 O   0  0  0  0  0  0  0  0  0  0  0  0
    9.6963   -8.2825    0.0000 C   0  0  0  0  0  0  0  0  0  0  0  0
    9.6963   -7.4575    0.0000 C   0  0  0  0  0  0  0  0  0  0  0  0
    7.5104   -4.6020    0.0000 O   0  0  0  0  0  0  0  0  0  0  0  0
    8.2565   -8.3121    0.0000 O   0  0  0  0  0  0  0  0  0  0  0  0
    7.5348   -6.2518    0.0000 C   0  0  1  0  0  0  0  0  0  0  0  0
    7.5470   -7.0767    0.0000 O   0  0  0  0  0  0  0  0  0  0  0  0
    6.1131   -8.7246    0.0000 C   0  0  2  0  0  0  0  0  0  0  0  0
    6.1131   -9.5496    0.0000 C   0  0  2  0  0  0  0  0  0  0  0  0
    6.8276   -9.9621    0.0000 C   0  0  1  0  0  0  0  0  0  0  0  0
    7.5420   -9.5496    0.0000 C   0  0  2  0  0  0  0  0  0  0  0  0
    7.5420   -8.7246    0.0000 C   0  0  1  0  0  0  0  0  0  0  0  0
    6.8276   -8.3121    0.0000 O   0  0  0  0  0  0  0  0  0  0  0  0
    8.2675   -7.4786    0.0000 C   0  0  2  0  0  0  0  0  0  0  0  0
    5.3986   -8.3121    0.0000 C   0  0  0  0  0  0  0  0  0  0  0  0
    6.8276  -10.7871    0.0000 O   0  0  0  0  0  0  0  0  0  0  0  0
    8.2565   -9.9621    0.0000 O   0  0  0  0  0  0  0  0  0  0  0  0
    5.3986   -9.9621    0.0000 O   0  0  0  0  0  0  0  0  0  0  0  0
    4.6540   -8.7109    0.0000 O   0  0  0  0  0  0  0  0  0  0  0  0
    8.9758   -7.0556    0.0000 C   0  0  0  0  0  0  0  0  0  0  0  0
    8.9392   -4.5809    0.0000 O   0  0  0  0  0  0  0  0  0  0  0  0
    8.2309   -5.0039    0.0000 C   0  0  0  0  0  0  0  0  0  0  0  0
    8.2431   -5.8288    0.0000 C   0  0  0  0  0  0  0  0  0  0  0  0
    8.9636   -6.2307    0.0000 C   0  0  0  0  0  0  0  0  0  0  0  0
    9.6719   -5.8077    0.0000 C   0  0  2  0  0  0  0  0  0  0  0  0
    9.6597   -4.9828    0.0000 C   0  0  0  0  0  0  0  0  0  0  0  0
 27  1  1  6  0  0  0
  3  2  1  0  0  0  0
  8  3  1  6  0  0  0
 16  7  1  6  0  0  0
  5  4  1  0  0  0  0
 22  5  2  0  0  0  0
 24  6  2  0  0  0  0
  8 25  1  0  0  0  0
  9  8  1  0  0  0  0
 16  9  1  0  0  0  0
 22 16  1  0  0  0  0
 26 22  1  0  0  0  0
 10 11  1  0  0  0  0
 11 12  1  0  0  0  0
 12 13  1  0  0  0  0
 13 14  1  0  0  0  0
 14 15  1  0  0  0  0
 15 10  1  0  0  0  0
 14  7  1  1  0  0  0
 10 17  1  1  0  0  0
 12 18  1  1  0  0  0
 13 19  1  6  0  0  0
 11 20  1  6  0  0  0
 17 21  1  0  0  0  0
 23 28  1  0  0  0  0
 24 23  1  0  0  0  0
 25 24  1  0  0  0  0
 26 25  2  0  0  0  0
 27 26  1  0  0  0  0
 28 27  1  0  0  0  0
M  END
>  <cdx:fragmentId>
196

$$$$
