50163.cdx
  Mrv1902 05222410202D          

 38 40  0  0  0  0            999 V2000
    3.3886  -12.9569    0.0000 C   0  0  0  0  0  0  0  0  0  0  0  0
    3.3886  -12.1319    0.0000 O   0  0  0  0  0  0  0  0  0  0  0  0
    4.8175  -12.9569    0.0000 O   0  0  0  0  0  0  0  0  0  0  0  0
    4.1031  -10.8944    0.0000 C   0  0  0  0  0  0  0  0  0  0  0  0
    4.1031  -11.7194    0.0000 C   0  0  0  0  0  0  0  0  0  0  0  0
    4.8175  -12.1319    0.0000 C   0  0  0  0  0  0  0  0  0  0  0  0
    5.5320  -11.7194    0.0000 C   0  0  0  0  0  0  0  0  0  0  0  0
    5.5320  -10.8944    0.0000 C   0  0  0  0  0  0  0  0  0  0  0  0
    4.8175  -10.4819    0.0000 C   0  0  0  0  0  0  0  0  0  0  0  0
    4.8175   -9.6569    0.0000 C   0  0  0  0  0  0  0  0  0  0  0  0
    5.5320   -9.2444    0.0000 C   0  0  0  0  0  0  0  0  0  0  0  0
    4.8175   -8.0069    0.0000 O   0  0  0  0  0  0  0  0  0  0  0  0
    5.5320   -8.4194    0.0000 C   0  0  0  0  0  0  0  0  0  0  0  0
    6.2465   -5.5319    0.0000 C   0  0  1  0  0  0  0  0  0  0  0  0
    5.8340   -4.8174    0.0000 O   0  0  0  0  0  0  0  0  0  0  0  0
    6.6590   -4.8174    0.0000 C   0  0  0  0  0  0  0  0  0  0  0  0
    6.2465   -4.1030    0.0000 O   0  0  0  0  0  0  0  0  0  0  0  0
    7.4840   -4.8174    0.0000 O   0  0  0  0  0  0  0  0  0  0  0  0
    4.8175   -7.1819    0.0000 O   0  0  0  0  0  0  0  0  0  0  0  0
    6.2465   -8.0069    0.0000 O   0  0  0  0  0  0  0  0  0  0  0  0
    6.9609   -5.9444    0.0000 C   0  0  0  0  0  0  0  0  0  0  0  0
    5.5320   -5.9444    0.0000 C   0  0  0  0  0  0  0  0  0  0  0  0
    5.5320   -6.7694    0.0000 C   0  0  2  0  0  0  0  0  0  0  0  0
    6.2465   -7.1819    0.0000 C   0  0  1  0  0  0  0  0  0  0  0  0
    6.9609   -6.7694    0.0000 C   0  0  2  0  0  0  0  0  0  0  0  0
    8.3899   -5.9444    0.0000 O   0  0  0  0  0  0  0  0  0  0  0  0
    7.6754   -7.1819    0.0000 O   0  0  0  0  0  0  0  0  0  0  0  0
    8.3899   -6.7694    0.0000 C   0  0  0  0  0  0  0  0  0  0  0  0
    9.1043   -7.1819    0.0000 C   0  0  0  0  0  0  0  0  0  0  0  0
    9.8188   -6.7694    0.0000 C   0  0  0  0  0  0  0  0  0  0  0  0
   12.6767   -8.4194    0.0000 O   0  0  0  0  0  0  0  0  0  0  0  0
   12.6767   -6.7694    0.0000 O   0  0  0  0  0  0  0  0  0  0  0  0
   11.2478   -6.7694    0.0000 C   0  0  0  0  0  0  0  0  0  0  0  0
   10.5333   -7.1819    0.0000 C   0  0  0  0  0  0  0  0  0  0  0  0
   10.5333   -8.0069    0.0000 C   0  0  0  0  0  0  0  0  0  0  0  0
   11.2478   -8.4194    0.0000 C   0  0  0  0  0  0  0  0  0  0  0  0
   11.9622   -8.0069    0.0000 C   0  0  0  0  0  0  0  0  0  0  0  0
   11.9622   -7.1819    0.0000 C   0  0  0  0  0  0  0  0  0  0  0  0
  2  1  1  0  0  0  0
  5  2  1  0  0  0  0
  6  3  1  0  0  0  0
  4  9  1  0  0  0  0
  5  4  2  0  0  0  0
  6  5  1  0  0  0  0
  7  6  2  0  0  0  0
  8  7  1  0  0  0  0
  9  8  2  0  0  0  0
 10  9  1  0  0  0  0
 11 10  2  0  0  0  0
 13 11  1  0  0  0  0
 13 12  2  0  0  0  0
 20 13  1  0  0  0  0
 23 19  1  6  0  0  0
 24 20  1  1  0  0  0
 21 25  1  0  0  0  0
 14 21  1  0  0  0  0
 22 14  1  0  0  0  0
 23 22  1  0  0  0  0
 24 23  1  0  0  0  0
 25 24  1  0  0  0  0
 25 27  1  1  0  0  0
 28 26  2  0  0  0  0
 28 27  1  0  0  0  0
 29 28  1  0  0  0  0
 30 29  2  0  0  0  0
 34 30  1  0  0  0  0
 37 31  1  0  0  0  0
 38 32  1  0  0  0  0
 33 38  1  0  0  0  0
 34 33  2  0  0  0  0
 35 34  1  0  0  0  0
 36 35  2  0  0  0  0
 37 36  1  0  0  0  0
 38 37  2  0  0  0  0
 14 15  1  1  0  0  0
 14 16  1  0  0  0  0
 16 17  2  0  0  0  0
 16 18  1  0  0  0  0
M  END
>  <cdx:fragmentId>
162

$$$$
