50161.cdx
  Mrv1902 05222410192D          

 37 41  0  0  0  0            999 V2000
    2.9199  -11.1845    0.0000 O   0  0  0  0  0  0  0  0  0  0  0  0
    3.6344  -12.4220    0.0000 O   0  0  0  0  0  0  0  0  0  0  0  0
    4.3489  -12.0095    0.0000 C   0  0  2  0  0  0  0  0  0  0  0  0
    4.3489  -11.1845    0.0000 C   0  0  1  0  0  0  0  0  0  0  0  0
    3.6344  -10.7720    0.0000 C   0  0  0  0  0  0  0  0  0  0  0  0
    5.0633  -12.4220    0.0000 C   0  0  1  0  0  0  0  0  0  0  0  0
    5.7778  -12.0095    0.0000 C   0  0  2  0  0  0  0  0  0  0  0  0
    5.7778  -11.1845    0.0000 C   0  0  1  0  0  0  0  0  0  0  0  0
    5.0633  -10.7720    0.0000 O   0  0  0  0  0  0  0  0  0  0  0  0
    6.4923  -10.7720    0.0000 O   0  0  0  0  0  0  0  0  0  0  0  0
    6.4923   -9.9470    0.0000 C   0  0  2  0  0  0  0  0  0  0  0  0
    5.7778   -9.5345    0.0000 O   0  0  0  0  0  0  0  0  0  0  0  0
    7.2068   -9.5345    0.0000 C   0  0  1  0  0  0  0  0  0  0  0  0
    7.2068   -8.7095    0.0000 C   0  0  1  0  0  0  0  0  0  0  0  0
    6.4923   -8.2970    0.0000 C   0  0  0  0  0  0  0  0  0  0  0  0
    5.7778   -8.7095    0.0000 C   0  0  0  0  0  0  0  0  0  0  0  0
    7.9914   -9.7895    0.0000 C   0  0  2  0  0  0  0  0  0  0  0  0
    8.4763   -9.1220    0.0000 C   0  0  2  0  0  0  0  0  0  0  0  0
    7.9914   -8.4546    0.0000 C   0  0  1  0  0  0  0  0  0  0  0  0
    8.2463   -7.6700    0.0000 O   0  0  0  0  0  0  0  0  0  0  0  0
    9.0432   -7.4564    0.0000 C   0  0  0  0  0  0  0  0  0  0  0  0
    9.2567   -6.6595    0.0000 C   0  0  0  0  0  0  0  0  0  0  0  0
    9.6266   -8.0398    0.0000 O   0  0  0  0  0  0  0  0  0  0  0  0
   10.0536   -6.4460    0.0000 C   0  0  0  0  0  0  0  0  0  0  0  0
   10.2671   -5.6491    0.0000 C   0  0  0  0  0  0  0  0  0  0  0  0
    9.6838   -5.0658    0.0000 C   0  0  0  0  0  0  0  0  0  0  0  0
    8.8869   -5.2793    0.0000 C   0  0  0  0  0  0  0  0  0  0  0  0
    8.6734   -6.0762    0.0000 C   0  0  0  0  0  0  0  0  0  0  0  0
    9.8973   -4.2689    0.0000 O   0  0  0  0  0  0  0  0  0  0  0  0
    8.8119   -9.8757    0.0000 O   0  0  0  0  0  0  0  0  0  0  0  0
    7.7779  -10.5864    0.0000 C   0  0  0  0  0  0  0  0  0  0  0  0
    8.1904  -11.3008    0.0000 O   0  0  0  0  0  0  0  0  0  0  0  0
    5.0633  -13.2470    0.0000 O   0  0  0  0  0  0  0  0  0  0  0  0
    9.1908   -8.7095    0.0000 H   0  0  0  0  0  0  0  0  0  0  0  0
    7.2068   -7.8845    0.0000 H   0  0  0  0  0  0  0  0  0  0  0  0
    7.2068  -10.3595    0.0000 H   0  0  0  0  0  0  0  0  0  0  0  0
    6.4923  -12.4220    0.0000 O   0  0  0  0  0  0  0  0  0  0  0  0
  3  2  1  6  0  0  0
  3  4  1  0  0  0  0
  4  5  1  1  0  0  0
  5  1  1  0  0  0  0
  3  6  1  0  0  0  0
  6  7  1  0  0  0  0
  7  8  1  0  0  0  0
  8  9  1  0  0  0  0
  9  4  1  0  0  0  0
  8 10  1  1  0  0  0
 11 10  1  6  0  0  0
 11 12  1  0  0  0  0
 11 13  1  0  0  0  0
 13 14  1  0  0  0  0
 14 15  1  0  0  0  0
 15 16  2  0  0  0  0
 16 12  1  0  0  0  0
 13 17  1  0  0  0  0
 17 18  1  0  0  0  0
 18 19  1  0  0  0  0
 19 14  1  0  0  0  0
 19 20  1  6  0  0  0
 20 21  1  0  0  0  0
 21 22  1  0  0  0  0
 21 23  2  0  0  0  0
 22 24  2  0  0  0  0
 24 25  1  0  0  0  0
 25 26  2  0  0  0  0
 26 27  1  0  0  0  0
 27 28  2  0  0  0  0
 28 22  1  0  0  0  0
 26 29  1  0  0  0  0
 17 30  1  0  0  0  0
 30 18  1  0  0  0  0
 17 31  1  1  0  0  0
 31 32  1  0  0  0  0
  6 33  1  1  0  0  0
 18 34  1  1  0  0  0
 14 35  1  6  0  0  0
 13 36  1  6  0  0  0
  7 37  1  6  0  0  0
M  END
>  <cdx:fragmentId>
5

$$$$
