50168.cdx
  Mrv1902 05222410272D          

 37 40  0  0  0  0            999 V2000
    9.3519   -8.2104    0.0000 C   0  0  1  0  0  0  0  0  0  0  0  0
   10.0605   -7.7879    0.0000 C   0  0  1  0  0  0  0  0  0  0  0  0
   10.0489   -6.9630    0.0000 C   0  0  1  0  0  0  0  0  0  0  0  0
    9.3287   -6.5606    0.0000 C   0  0  0  0  0  0  0  0  0  0  0  0
    8.6201   -6.9831    0.0000 C   0  0  0  0  0  0  0  0  0  0  0  0
    8.6317   -7.8080    0.0000 O   0  0  0  0  0  0  0  0  0  0  0  0
   10.8298   -6.6970    0.0000 C   0  0  0  0  0  0  0  0  0  0  0  0
   11.3241   -7.3576    0.0000 C   0  0  1  0  0  0  0  0  0  0  0  0
   10.8486   -8.0318    0.0000 C   0  0  2  0  0  0  0  0  0  0  0  0
    9.3170   -5.7357    0.0000 C   0  0  0  0  0  0  0  0  0  0  0  0
   10.0256   -5.3132    0.0000 O   0  0  0  0  0  0  0  0  0  0  0  0
    8.5968   -5.3333    0.0000 O   0  0  0  0  0  0  0  0  0  0  0  0
    9.3635   -9.0354    0.0000 O   0  0  0  0  0  0  0  0  0  0  0  0
    7.9346   -9.0354    0.0000 O   0  0  0  0  0  0  0  0  0  0  0  0
    8.6490   -9.4479    0.0000 C   0  0  2  0  0  0  0  0  0  0  0  0
    8.6490  -10.2729    0.0000 C   0  0  1  0  0  0  0  0  0  0  0  0
    7.9346  -10.6854    0.0000 C   0  0  2  0  0  0  0  0  0  0  0  0
    7.2201  -10.2729    0.0000 C   0  0  1  0  0  0  0  0  0  0  0  0
    7.2201   -9.4479    0.0000 C   0  0  1  0  0  0  0  0  0  0  0  0
    6.5056   -9.0354    0.0000 C   0  0  0  0  0  0  0  0  0  0  0  0
    6.5056  -10.6854    0.0000 O   0  0  0  0  0  0  0  0  0  0  0  0
    7.9346  -11.5104    0.0000 O   0  0  0  0  0  0  0  0  0  0  0  0
    9.3635  -10.6854    0.0000 O   0  0  0  0  0  0  0  0  0  0  0  0
   11.1146   -8.8127    0.0000 C   0  0  0  0  0  0  0  0  0  0  0  0
   12.1490   -7.3460    0.0000 O   0  0  0  0  0  0  0  0  0  0  0  0
   10.1235   -6.1414    0.0000 H   0  0  0  0  0  0  0  0  0  0  0  0
   10.1583   -8.6071    0.0000 H   0  0  0  0  0  0  0  0  0  0  0  0
    4.3749  -10.2945    0.0000 O   0  0  0  0  0  0  0  0  0  0  0  0
    2.9336   -9.4913    0.0000 O   0  0  0  0  0  0  0  0  0  0  0  0
    2.9085   -7.8415    0.0000 O   0  0  0  0  0  0  0  0  0  0  0  0
    4.3373   -7.8198    0.0000 C   0  0  0  0  0  0  0  0  0  0  0  0
    3.6292   -8.2431    0.0000 C   0  0  2  0  0  0  0  0  0  0  0  0
    3.6417   -9.0680    0.0000 C   0  0  1  0  0  0  0  0  0  0  0  0
    4.3624   -9.4696    0.0000 C   0  0  2  0  0  0  0  0  0  0  0  0
    5.0705   -9.0463    0.0000 C   0  0  2  0  0  0  0  0  0  0  0  0
    5.0579   -8.2214    0.0000 O   0  0  0  0  0  0  0  0  0  0  0  0
    5.7911   -9.4479    0.0000 O   0  0  0  0  0  0  0  0  0  0  0  0
 35 37  1  6  0  0  0
 34 28  1  6  0  0  0
 33 29  1  1  0  0  0
 32 30  1  6  0  0  0
 36 31  1  0  0  0  0
 32 31  1  0  0  0  0
 33 32  1  0  0  0  0
 34 33  1  0  0  0  0
 35 34  1  0  0  0  0
 36 35  1  0  0  0  0
  1  2  1  0  0  0  0
  2  3  1  0  0  0  0
  3  4  1  0  0  0  0
  4  5  2  0  0  0  0
  5  6  1  0  0  0  0
  1  6  1  0  0  0  0
  7  8  1  0  0  0  0
  8  9  1  0  0  0  0
  9  2  1  0  0  0  0
  7  3  1  0  0  0  0
 10 11  2  0  0  0  0
 10 12  1  0  0  0  0
  4 10  1  0  0  0  0
 14 15  1  0  0  0  0
 15 16  1  0  0  0  0
 16 17  1  0  0  0  0
 17 18  1  0  0  0  0
 18 19  1  0  0  0  0
 14 19  1  0  0  0  0
 20 37  1  0  0  0  0
 19 20  1  1  0  0  0
 18 21  1  6  0  0  0
 17 22  1  1  0  0  0
 16 23  1  6  0  0  0
 15 13  1  1  0  0  0
  1 13  1  6  0  0  0
  9 24  1  6  0  0  0
  8 25  1  6  0  0  0
  3 26  1  6  0  0  0
  2 27  1  6  0  0  0
M  END
>  <cdx:groupId>
122

>  <cdx:fragmentId>
47

$$$$
