50177.cdx
  Mrv1902 05222410202D          

 52 59  0  0  0  0            999 V2000
    9.2909   -7.2044    0.0000 C   0  0  2  0  0  0  0  0  0  0  0  0
    8.8060   -7.8718    0.0000 C   0  0  1  0  0  0  0  0  0  0  0  0
    8.0214   -7.6169    0.0000 C   0  0  1  0  0  0  0  0  0  0  0  0
    7.3069   -8.0294    0.0000 C   0  0  2  0  0  0  0  0  0  0  0  0
    7.3069   -8.8544    0.0000 C   0  0  0  0  0  0  0  0  0  0  0  0
    6.5924   -9.2669    0.0000 C   0  0  0  0  0  0  0  0  0  0  0  0
    5.8780   -8.8544    0.0000 C   0  0  1  0  0  0  0  0  0  0  0  0
    5.1635   -9.2669    0.0000 C   0  0  1  0  0  0  0  0  0  0  0  0
    4.4490   -8.8544    0.0000 C   0  0  2  0  0  0  0  0  0  0  0  0
    4.4490   -8.0294    0.0000 C   0  0  0  0  0  0  0  0  0  0  0  0
    5.1635   -7.6169    0.0000 C   0  0  0  0  0  0  0  0  0  0  0  0
    5.8780   -8.0294    0.0000 C   0  0  1  0  0  0  0  0  0  0  0  0
    5.8780   -7.2044    0.0000 C   0  0  0  0  0  0  0  0  0  0  0  0
    6.5924   -7.6169    0.0000 C   0  0  1  0  0  0  0  0  0  0  0  0
    6.5924   -6.7919    0.0000 C   0  0  0  0  0  0  0  0  0  0  0  0
    7.3069   -6.3794    0.0000 C   0  0  0  0  0  0  0  0  0  0  0  0
    8.0214   -6.7919    0.0000 C   0  0  2  0  0  0  0  0  0  0  0  0
    8.8060   -6.5370    0.0000 C   0  0  1  0  0  0  0  0  0  0  0  0
    9.0255   -5.7417    0.0000 C   0  0  1  0  0  0  0  0  0  0  0  0
    9.7841   -5.4174    0.0000 C   0  0  0  0  0  0  0  0  0  0  0  0
   10.5106   -5.8084    0.0000 C   0  0  2  0  0  0  0  0  0  0  0  0
   10.6579   -6.6201    0.0000 C   0  0  2  0  0  0  0  0  0  0  0  0
   10.1151   -7.2414    0.0000 O   0  0  0  0  0  0  0  0  0  0  0  0
    9.4988   -6.1539    0.0000 O   0  0  0  0  0  0  0  0  0  0  0  0
    9.0609   -8.6565    0.0000 O   0  0  0  0  0  0  0  0  0  0  0  0
    3.7346   -9.2669    0.0000 O   0  0  0  0  0  0  0  0  0  0  0  0
    8.4042   -5.1989    0.0000 C   0  0  0  0  0  0  0  0  0  0  0  0
    8.0214   -5.9669    0.0000 C   0  0  0  0  0  0  0  0  0  0  0  0
    5.5760   -9.9814    0.0000 C   0  0  0  0  0  0  0  0  0  0  0  0
    4.7510   -9.9814    0.0000 C   0  0  0  0  0  0  0  0  0  0  0  0
    8.0214   -8.4419    0.0000 C   0  0  0  0  0  0  0  0  0  0  0  0
   11.2396   -7.6365    0.0000 C   0  0  0  0  0  0  0  0  0  0  0  0
   11.4532   -6.8396    0.0000 C   0  0  0  0  0  0  0  0  0  0  0  0
   11.6667   -6.0427    0.0000 C   0  0  0  0  0  0  0  0  0  0  0  0
   12.2484   -7.0591    0.0000 O   0  0  0  0  0  0  0  0  0  0  0  0
    7.3069   -7.2044    0.0000 H   0  0  0  0  0  0  0  0  0  0  0  0
    5.8780   -9.6794    0.0000 H   0  0  0  0  0  0  0  0  0  0  0  0
    8.3178   -5.8719    0.0000 H   0  0  0  0  0  0  0  0  0  0  0  0
   11.1780   -5.3235    0.0000 H   0  0  0  0  0  0  0  0  0  0  0  0
   11.3724   -6.2076    0.0000 H   0  0  0  0  0  0  0  0  0  0  0  0
   12.8361   -6.4801    0.0000 C   0  0  0  0  0  0  0  0  0  0  0  0
   13.6314   -6.6996    0.0000 C   0  0  0  0  0  0  0  0  0  0  0  0
   12.6286   -5.6816    0.0000 O   0  0  0  0  0  0  0  0  0  0  0  0
    3.0201   -8.8544    0.0000 C   0  0  2  0  0  0  0  0  0  0  0  0
    3.0201   -8.0294    0.0000 O   0  0  0  0  0  0  0  0  0  0  0  0
    2.3056   -7.6169    0.0000 C   0  0  0  0  0  0  0  0  0  0  0  0
    1.5911   -8.0294    0.0000 C   0  0  1  0  0  0  0  0  0  0  0  0
    1.5911   -8.8544    0.0000 C   0  0  1  0  0  0  0  0  0  0  0  0
    2.3056   -9.2669    0.0000 C   0  0  1  0  0  0  0  0  0  0  0  0
    2.3056  -10.0919    0.0000 O   0  0  0  0  0  0  0  0  0  0  0  0
    0.8767   -9.2669    0.0000 O   0  0  0  0  0  0  0  0  0  0  0  0
    0.8767   -7.6169    0.0000 O   0  0  0  0  0  0  0  0  0  0  0  0
  1  2  1  0  0  0  0
  2  3  1  0  0  0  0
  3  4  1  0  0  0  0
  4  5  1  0  0  0  0
  5  6  1  0  0  0  0
  6  7  1  0  0  0  0
  7  8  1  0  0  0  0
  8  9  1  0  0  0  0
  9 10  1  0  0  0  0
 10 11  1  0  0  0  0
 11 12  1  0  0  0  0
 12 13  1  1  0  0  0
 14 13  1  1  0  0  0
 14 15  1  0  0  0  0
 15 16  1  0  0  0  0
 16 17  1  0  0  0  0
 17 18  1  0  0  0  0
 18 19  1  0  0  0  0
 19 20  1  0  0  0  0
 20 21  1  0  0  0  0
 21 22  1  0  0  0  0
 22 23  1  0  0  0  0
  1 23  1  0  0  0  0
  1 24  1  1  0  0  0
 21 24  1  0  0  0  0
  1 18  1  0  0  0  0
  3 17  1  0  0  0  0
 12 14  1  0  0  0  0
  4 14  1  0  0  0  0
  7 12  1  0  0  0  0
  2 25  1  6  0  0  0
  9 26  1  1  0  0  0
 19 27  1  6  0  0  0
 17 28  1  1  0  0  0
  8 29  1  0  0  0  0
  8 30  1  1  0  0  0
  3 31  1  6  0  0  0
 32 33  1  0  0  0  0
 33 34  1  0  0  0  0
 33 35  1  0  0  0  0
 22 33  1  0  0  0  0
  4 36  1  1  0  0  0
  7 37  1  6  0  0  0
 18 38  1  6  0  0  0
 21 39  1  1  0  0  0
 22 40  1  6  0  0  0
 35 41  1  0  0  0  0
 41 42  1  0  0  0  0
 41 43  2  0  0  0  0
 44 26  1  1  0  0  0
 44 45  1  0  0  0  0
 45 46  1  0  0  0  0
 46 47  1  0  0  0  0
 47 48  1  0  0  0  0
 48 49  1  0  0  0  0
 49 44  1  0  0  0  0
 49 50  1  6  0  0  0
 48 51  1  1  0  0  0
 47 52  1  1  0  0  0
M  END
>  <cdx:fragmentId>
74183

$$$$
