50170.cdx
  Mrv1902 05222410192D          

 38 43  0  0  0  0            999 V2000
    2.9062  -11.4526    0.0000 C   0  0  0  0  0  0  0  0  0  0  0  0
    2.9062  -12.2776    0.0000 C   0  0  1  0  0  0  0  0  0  0  0  0
    3.6206  -12.6901    0.0000 C   0  0  0  0  0  0  0  0  0  0  0  0
    4.3351  -12.2776    0.0000 C   0  0  1  0  0  0  0  0  0  0  0  0
    4.3351  -11.4526    0.0000 C   0  0  2  0  0  0  0  0  0  0  0  0
    3.6206  -11.0401    0.0000 C   0  0  0  0  0  0  0  0  0  0  0  0
    5.0496  -12.6901    0.0000 C   0  0  0  0  0  0  0  0  0  0  0  0
    5.7641  -12.2776    0.0000 C   0  0  0  0  0  0  0  0  0  0  0  0
    5.7641  -11.4526    0.0000 C   0  0  2  0  0  0  0  0  0  0  0  0
    5.0496  -11.0401    0.0000 C   0  0  2  0  0  0  0  0  0  0  0  0
    5.0496  -13.5151    0.0000 O   0  0  0  0  0  0  0  0  0  0  0  0
    2.1917  -12.6901    0.0000 O   0  0  0  0  0  0  0  0  0  0  0  0
    4.3351  -10.6276    0.0000 C   0  0  0  0  0  0  0  0  0  0  0  0
    6.3772  -10.9006    0.0000 C   0  0  1  0  0  0  0  0  0  0  0  0
    6.0416  -10.1469    0.0000 C   0  0  1  0  0  0  0  0  0  0  0  0
    5.2211  -10.2332    0.0000 C   0  0  0  0  0  0  0  0  0  0  0  0
    7.1976  -10.9869    0.0000 C   0  0  0  0  0  0  0  0  0  0  0  0
    7.6826  -10.3194    0.0000 C   0  0  0  0  0  0  0  0  0  0  0  0
    7.3470   -9.5657    0.0000 C   0  0  2  0  0  0  0  0  0  0  0  0
    6.5265   -9.4795    0.0000 C   0  0  1  0  0  0  0  0  0  0  0  0
    7.8319   -8.8983    0.0000 C   0  0  2  0  0  0  0  0  0  0  0  0
    7.4964   -8.1446    0.0000 C   0  0  2  0  0  0  0  0  0  0  0  0
    6.6759   -8.0584    0.0000 N   0  0  0  0  0  0  0  0  0  0  0  0
    6.1910   -8.7258    0.0000 C   0  0  0  0  0  0  0  0  0  0  0  0
    7.9813   -7.4772    0.0000 C   0  0  0  0  0  0  0  0  0  0  0  0
    7.6457   -6.7235    0.0000 C   0  0  0  0  0  0  0  0  0  0  0  0
    6.8253   -6.6373    0.0000 C   0  0  1  0  0  0  0  0  0  0  0  0
    6.3403   -7.3047    0.0000 C   0  0  0  0  0  0  0  0  0  0  0  0
    6.4897   -5.8836    0.0000 C   0  0  0  0  0  0  0  0  0  0  0  0
    4.3351  -13.1026    0.0000 H   0  0  0  0  0  0  0  0  0  0  0  0
    6.7897  -11.6151    0.0000 H   0  0  0  0  0  0  0  0  0  0  0  0
    5.6291   -9.4325    0.0000 H   0  0  0  0  0  0  0  0  0  0  0  0
    6.9390  -10.1940    0.0000 H   0  0  0  0  0  0  0  0  0  0  0  0
    6.9345   -8.8513    0.0000 H   0  0  0  0  0  0  0  0  0  0  0  0
    8.6524   -8.9845    0.0000 C   0  0  0  0  0  0  0  0  0  0  0  0
    7.0839   -7.4302    0.0000 H   0  0  0  0  0  0  0  0  0  0  0  0
    5.0496  -11.8651    0.0000 H   0  0  0  0  0  0  0  0  0  0  0  0
    6.3474  -12.0360    0.0000 H   0  0  0  0  0  0  0  0  0  0  0  0
  1  2  1  0  0  0  0
  2  3  1  0  0  0  0
  3  4  1  0  0  0  0
  4  5  1  0  0  0  0
  5  6  1  0  0  0  0
  6  1  1  0  0  0  0
  4  7  1  0  0  0  0
  7  8  1  0  0  0  0
  8  9  1  0  0  0  0
  9 10  1  0  0  0  0
 10  5  1  0  0  0  0
  7 11  2  0  0  0  0
  2 12  1  1  0  0  0
  5 13  1  1  0  0  0
  9 14  1  0  0  0  0
 14 15  1  0  0  0  0
 15 16  1  0  0  0  0
 16 10  1  0  0  0  0
 14 17  1  0  0  0  0
 17 18  1  0  0  0  0
 18 19  1  0  0  0  0
 19 20  1  0  0  0  0
 20 15  1  0  0  0  0
 19 21  1  0  0  0  0
 21 22  1  0  0  0  0
 22 23  1  0  0  0  0
 23 24  1  0  0  0  0
 24 20  1  0  0  0  0
 22 25  1  0  0  0  0
 25 26  1  0  0  0  0
 26 27  1  0  0  0  0
 27 28  1  0  0  0  0
 28 23  1  0  0  0  0
 27 29  1  1  0  0  0
  4 30  1  6  0  0  0
 14 31  1  6  0  0  0
 15 32  1  6  0  0  0
 20 33  1  1  0  0  0
 19 34  1  1  0  0  0
 21 35  1  6  0  0  0
 22 36  1  1  0  0  0
 10 37  1  6  0  0  0
  9 38  1  1  0  0  0
M  END
>  <cdx:fragmentId>
5

$$$$
