50173.cdx
  Mrv1902 05222410182D          

 49 55  0  0  0  0            999 V2000
    5.5462  -10.1258    0.0000 C   0  0  0  0  0  0  0  0  0  0  0  0
    5.5462  -10.9508    0.0000 C   0  0  1  0  0  0  0  0  0  0  0  0
    6.2606  -11.3633    0.0000 C   0  0  1  0  0  0  0  0  0  0  0  0
    6.9751  -10.9508    0.0000 C   0  0  1  0  0  0  0  0  0  0  0  0
    6.9751  -10.1258    0.0000 C   0  0  2  0  0  0  0  0  0  0  0  0
    6.2606   -9.7133    0.0000 C   0  0  0  0  0  0  0  0  0  0  0  0
    7.6896  -11.3633    0.0000 C   0  0  0  0  0  0  0  0  0  0  0  0
    8.4041  -10.9508    0.0000 C   0  0  0  0  0  0  0  0  0  0  0  0
    8.4041  -10.1258    0.0000 C   0  0  0  0  0  0  0  0  0  0  0  0
    7.6896   -9.7133    0.0000 C   0  0  1  0  0  0  0  0  0  0  0  0
    9.1185   -9.7133    0.0000 C   0  0  1  0  0  0  0  0  0  0  0  0
    9.1185   -8.8883    0.0000 C   0  0  2  0  0  0  0  0  0  0  0  0
    8.4041   -8.4758    0.0000 C   0  0  1  0  0  0  0  0  0  0  0  0
    7.6896   -8.8883    0.0000 C   0  0  0  0  0  0  0  0  0  0  0  0
    9.9032   -9.9682    0.0000 C   0  0  0  0  0  0  0  0  0  0  0  0
   10.3881   -9.3008    0.0000 C   0  0  0  0  0  0  0  0  0  0  0  0
    9.9032   -8.6333    0.0000 C   0  0  2  0  0  0  0  0  0  0  0  0
    9.9032   -7.8083    0.0000 C   0  0  2  0  0  0  0  0  0  0  0  0
    9.9032   -6.1583    0.0000 O   0  0  0  0  0  0  0  0  0  0  0  0
   11.2131   -9.3008    0.0000 O   0  0  0  0  0  0  0  0  0  0  0  0
    4.7746  -11.4183    0.0000 O   0  0  0  0  0  0  0  0  0  0  0  0
    1.9171  -11.3730    0.0000 O   0  0  0  0  0  0  0  0  0  0  0  0
    3.3328  -12.2205    0.0000 O   0  0  0  0  0  0  0  0  0  0  0  0
    1.9432   -9.7232    0.0000 O   0  0  0  0  0  0  0  0  0  0  0  0
    3.3458  -11.3956    0.0000 C   0  0  1  0  0  0  0  0  0  0  0  0
    4.0667  -10.9945    0.0000 C   0  0  1  0  0  0  0  0  0  0  0  0
    4.0798  -10.1696    0.0000 O   0  0  0  0  0  0  0  0  0  0  0  0
    3.3720   -9.7458    0.0000 C   0  0  0  0  0  0  0  0  0  0  0  0
    2.6511  -10.1470    0.0000 C   0  0  2  0  0  0  0  0  0  0  0  0
    2.6380  -10.9718    0.0000 C   0  0  2  0  0  0  0  0  0  0  0  0
    5.8481  -12.0777    0.0000 C   0  0  0  0  0  0  0  0  0  0  0  0
    6.9751   -9.3008    0.0000 C   0  0  0  0  0  0  0  0  0  0  0  0
    9.1185   -8.0633    0.0000 C   0  0  0  0  0  0  0  0  0  0  0  0
    6.6731  -12.0777    0.0000 C   0  0  0  0  0  0  0  0  0  0  0  0
    6.9751  -11.7758    0.0000 H   0  0  0  0  0  0  0  0  0  0  0  0
    9.1185  -10.5383    0.0000 C   0  0  0  0  0  0  0  0  0  0  0  0
    9.1887   -7.3958    0.0000 C   0  0  0  0  0  0  0  0  0  0  0  0
    8.4041   -7.6508    0.0000 O   0  0  0  0  0  0  0  0  0  0  0  0
   10.6176   -6.5708    0.0000 C   0  0  0  0  0  0  0  0  0  0  0  0
   10.6176   -7.3958    0.0000 C   0  0  0  0  0  0  0  0  0  0  0  0
    7.6896   -7.2383    0.0000 C   0  0  0  0  0  0  0  0  0  0  0  0
    6.9751   -7.6508    0.0000 C   0  0  0  0  0  0  0  0  0  0  0  0
    7.6896   -6.4133    0.0000 O   0  0  0  0  0  0  0  0  0  0  0  0
   10.6176   -8.2208    0.0000 H   0  0  0  0  0  0  0  0  0  0  0  0
   11.3321   -6.1583    0.0000 C   0  0  2  0  0  0  0  0  0  0  0  0
   12.1290   -6.3719    0.0000 O   0  0  0  0  0  0  0  0  0  0  0  0
   11.9155   -5.5750    0.0000 C   0  0  0  0  0  0  0  0  0  0  0  0
   11.7019   -4.7781    0.0000 C   0  0  0  0  0  0  0  0  0  0  0  0
   12.4988   -4.9916    0.0000 C   0  0  0  0  0  0  0  0  0  0  0  0
  1  2  1  0  0  0  0
  2  3  1  0  0  0  0
  3  4  1  0  0  0  0
  4  5  1  0  0  0  0
  5  6  1  0  0  0  0
  6  1  1  0  0  0  0
  4  7  1  0  0  0  0
  7  8  1  0  0  0  0
  8  9  2  0  0  0  0
  9 10  1  0  0  0  0
 10  5  1  0  0  0  0
  9 11  1  0  0  0  0
 11 12  1  0  0  0  0
 12 13  1  0  0  0  0
 13 14  1  0  0  0  0
 14 10  1  0  0  0  0
 11 15  1  0  0  0  0
 15 16  1  0  0  0  0
 16 17  1  0  0  0  0
 17 12  1  0  0  0  0
 17 18  1  0  0  0  0
 18 40  1  0  0  0  0
 39 19  2  0  0  0  0
 16 20  2  0  0  0  0
 26 21  1  1  0  0  0
 30 22  1  1  0  0  0
 25 23  1  6  0  0  0
 29 24  1  6  0  0  0
 25 30  1  0  0  0  0
 26 25  1  0  0  0  0
 27 26  1  0  0  0  0
 28 27  1  0  0  0  0
 29 28  1  0  0  0  0
 30 29  1  0  0  0  0
  3 31  1  1  0  0  0
  5 32  1  1  0  0  0
 10 32  1  1  0  0  0
 12 33  1  1  0  0  0
  2 21  1  1  0  0  0
  3 34  1  6  0  0  0
  4 35  1  6  0  0  0
 11 36  1  6  0  0  0
 18 37  1  6  0  0  0
 13 38  1  1  0  0  0
 40 39  1  0  0  0  0
 38 41  1  0  0  0  0
 41 42  1  0  0  0  0
 41 43  2  0  0  0  0
 17 44  1  6  0  0  0
 45 39  1  1  0  0  0
 45 46  1  0  0  0  0
 45 47  1  0  0  0  0
 47 46  1  0  0  0  0
 47 48  1  0  0  0  0
 47 49  1  0  0  0  0
M  END
>  <cdx:fragmentId>
5

$$$$
