50176.cdx
  Mrv1902 05222410202D          

 37 40  0  0  0  0            999 V2000
    9.1855  -10.3950    0.0000 C   0  0  0  0  0  0  0  0  0  0  0  0
    9.1855  -11.2200    0.0000 C   0  0  0  0  0  0  0  0  0  0  0  0
    9.9000  -11.6325    0.0000 O   0  0  0  0  0  0  0  0  0  0  0  0
   10.6145  -11.2200    0.0000 C   0  0  1  0  0  0  0  0  0  0  0  0
   10.6145  -10.3950    0.0000 C   0  0  0  0  0  0  0  0  0  0  0  0
    9.9000   -9.9825    0.0000 C   0  0  0  0  0  0  0  0  0  0  0  0
    8.4711   -9.9825    0.0000 C   0  0  0  0  0  0  0  0  0  0  0  0
    7.7566  -10.3950    0.0000 C   0  0  0  0  0  0  0  0  0  0  0  0
    7.7566  -11.2200    0.0000 C   0  0  0  0  0  0  0  0  0  0  0  0
    8.4711  -11.6325    0.0000 C   0  0  0  0  0  0  0  0  0  0  0  0
   11.0270  -11.9345    0.0000 C   0  0  0  0  0  0  0  0  0  0  0  0
   11.4395  -11.2200    0.0000 C   0  0  0  0  0  0  0  0  0  0  0  0
    7.0421   -9.9825    0.0000 C   0  0  0  0  0  0  0  0  0  0  0  0
    6.3276  -10.3950    0.0000 O   0  0  0  0  0  0  0  0  0  0  0  0
    7.0421   -9.1575    0.0000 O   0  0  0  0  0  0  0  0  0  0  0  0
    5.6132   -9.9825    0.0000 C   0  0  2  0  0  0  0  0  0  0  0  0
    5.6132   -9.1575    0.0000 O   0  0  0  0  0  0  0  0  0  0  0  0
    4.8987   -8.7450    0.0000 C   0  0  1  0  0  0  0  0  0  0  0  0
    4.1842   -9.1575    0.0000 C   0  0  2  0  0  0  0  0  0  0  0  0
    4.1842   -9.9825    0.0000 C   0  0  1  0  0  0  0  0  0  0  0  0
    4.8987  -10.3950    0.0000 C   0  0  1  0  0  0  0  0  0  0  0  0
    4.8987   -7.9200    0.0000 C   0  0  0  0  0  0  0  0  0  0  0  0
    3.4698  -10.3950    0.0000 O   0  0  0  0  0  0  0  0  0  0  0  0
    4.8987  -11.2200    0.0000 O   0  0  0  0  0  0  0  0  0  0  0  0
    3.4698   -8.7450    0.0000 O   0  0  0  0  0  0  0  0  0  0  0  0
    4.1842   -7.5075    0.0000 O   0  0  0  0  0  0  0  0  0  0  0  0
    4.1842   -6.6825    0.0000 C   0  0  2  0  0  0  0  0  0  0  0  0
    4.8987   -6.2700    0.0000 O   0  0  0  0  0  0  0  0  0  0  0  0
    4.8987   -5.4450    0.0000 C   0  0  1  0  0  0  0  0  0  0  0  0
    4.1842   -5.0325    0.0000 C   0  0  2  0  0  0  0  0  0  0  0  0
    3.4698   -5.4450    0.0000 C   0  0  1  0  0  0  0  0  0  0  0  0
    3.4698   -6.2700    0.0000 C   0  0  1  0  0  0  0  0  0  0  0  0
    5.6132   -5.0325    0.0000 C   0  0  0  0  0  0  0  0  0  0  0  0
    2.7553   -5.0325    0.0000 O   0  0  0  0  0  0  0  0  0  0  0  0
    4.1842   -4.2075    0.0000 O   0  0  0  0  0  0  0  0  0  0  0  0
    2.7553   -6.6825    0.0000 O   0  0  0  0  0  0  0  0  0  0  0  0
    5.6132   -4.2075    0.0000 O   0  0  0  0  0  0  0  0  0  0  0  0
  1  2  2  0  0  0  0
  2  3  1  0  0  0  0
  3  4  1  0  0  0  0
  4  5  1  0  0  0  0
  5  6  2  0  0  0  0
  6  1  1  0  0  0  0
  1  7  1  0  0  0  0
  7  8  2  0  0  0  0
  8  9  1  0  0  0  0
  9 10  2  0  0  0  0
 10  2  1  0  0  0  0
  4 11  1  1  0  0  0
  4 12  1  6  0  0  0
  8 13  1  0  0  0  0
 13 14  1  0  0  0  0
 13 15  2  0  0  0  0
 16 14  1  1  0  0  0
 16 17  1  0  0  0  0
 17 18  1  0  0  0  0
 18 19  1  0  0  0  0
 19 20  1  0  0  0  0
 20 21  1  0  0  0  0
 21 16  1  0  0  0  0
 18 22  1  1  0  0  0
 20 23  1  1  0  0  0
 21 24  1  6  0  0  0
 19 25  1  6  0  0  0
 22 26  1  0  0  0  0
 27 26  1  1  0  0  0
 27 28  1  0  0  0  0
 28 29  1  0  0  0  0
 29 30  1  0  0  0  0
 30 31  1  0  0  0  0
 31 32  1  0  0  0  0
 32 27  1  0  0  0  0
 29 33  1  1  0  0  0
 31 34  1  1  0  0  0
 30 35  1  6  0  0  0
 32 36  1  6  0  0  0
 33 37  1  0  0  0  0
M  END
>  <cdx:fragmentId>
343

$$$$
