50181.cdx
  Mrv1902 05222410282D          

  8  7  0  0  0  0            999 V2000
    4.8513   -6.0901    0.0000 C   0  0  0  0  0  0  0  0  0  0  0  0
    5.5657   -5.6776    0.0000 C   0  0  0  0  0  0  0  0  0  0  0  0
    6.2802   -6.0901    0.0000 C   0  0  0  0  0  0  0  0  0  0  0  0
    6.9947   -5.6776    0.0000 C   0  0  0  0  0  0  0  0  0  0  0  0
    7.7092   -6.0901    0.0000 C   0  0  0  0  0  0  0  0  0  0  0  0
    8.4236   -5.6776    0.0000 C   0  0  0  0  0  0  0  0  0  0  0  0
    9.1381   -6.0901    0.0000 C   0  0  0  0  0  0  0  0  0  0  0  0
    5.5657   -4.8526    0.0000 O   0  0  0  0  0  0  0  0  0  0  0  0
  1  2  1  0  0  0  0
  2  3  1  0  0  0  0
  3  4  1  0  0  0  0
  4  5  1  0  0  0  0
  5  6  1  0  0  0  0
  6  7  1  0  0  0  0
  2  8  2  0  0  0  0
M  END
>  <cdx:fragmentId>
3

$$$$
