50187.cdx
  Mrv1902 05222410262D          

 37 41  0  0  0  0            999 V2000
    3.7518   -9.3351    0.0000 C   0  0  1  0  0  0  0  0  0  0  0  0
    3.7518  -10.1601    0.0000 C   0  0  1  0  0  0  0  0  0  0  0  0
    4.4663  -10.5726    0.0000 C   0  0  0  0  0  0  0  0  0  0  0  0
    5.1807  -10.1601    0.0000 C   0  0  1  0  0  0  0  0  0  0  0  0
    5.1807   -9.3351    0.0000 C   0  0  2  0  0  0  0  0  0  0  0  0
    4.4663   -8.9226    0.0000 C   0  0  0  0  0  0  0  0  0  0  0  0
    5.8952  -10.5726    0.0000 C   0  0  0  0  0  0  0  0  0  0  0  0
    6.6097  -10.1601    0.0000 C   0  0  0  0  0  0  0  0  0  0  0  0
    6.6097   -9.3351    0.0000 C   0  0  2  0  0  0  0  0  0  0  0  0
    5.8952   -8.9226    0.0000 C   0  0  2  0  0  0  0  0  0  0  0  0
    7.2228   -8.7831    0.0000 C   0  0  0  0  0  0  0  0  0  0  0  0
    6.8872   -8.0294    0.0000 C   0  0  0  0  0  0  0  0  0  0  0  0
    6.0667   -8.1157    0.0000 C   0  0  0  0  0  0  0  0  0  0  0  0
    8.0433   -8.8694    0.0000 C   0  0  0  0  0  0  0  0  0  0  0  0
    8.5282   -8.2019    0.0000 C   0  0  0  0  0  0  0  0  0  0  0  0
    8.1926   -7.4482    0.0000 C   0  0  0  0  0  0  0  0  0  0  0  0
    7.3721   -7.3620    0.0000 C   0  0  0  0  0  0  0  0  0  0  0  0
    8.6051   -6.7338    0.0000 C   0  0  1  0  0  0  0  0  0  0  0  0
    9.5126   -6.7338    0.0000 C   0  0  1  0  0  0  0  0  0  0  0  0
    9.5126   -7.5588    0.0000 C   0  0  1  0  0  0  0  0  0  0  0  0
   10.2271   -7.9713    0.0000 C   0  0  0  0  0  0  0  0  0  0  0  0
   10.9416   -7.5588    0.0000 C   0  0  1  0  0  0  0  0  0  0  0  0
   10.9416   -6.7338    0.0000 C   0  0  0  0  0  0  0  0  0  0  0  0
   10.2271   -6.3213    0.0000 N   0  0  0  0  0  0  0  0  0  0  0  0
    5.8952  -11.3976    0.0000 O   0  0  0  0  0  0  0  0  0  0  0  0
    7.0366   -6.6083    0.0000 C   0  0  0  0  0  0  0  0  0  0  0  0
    3.0373  -10.5726    0.0000 O   0  0  0  0  0  0  0  0  0  0  0  0
    5.1807   -8.5101    0.0000 C   0  0  0  0  0  0  0  0  0  0  0  0
    7.3242   -9.7476    0.0000 H   0  0  0  0  0  0  0  0  0  0  0  0
    8.7982   -7.9713    0.0000 O   0  0  0  0  0  0  0  0  0  0  0  0
    8.6051   -5.9088    0.0000 H   0  0  0  0  0  0  0  0  0  0  0  0
    9.5126   -5.9088    0.0000 H   0  0  0  0  0  0  0  0  0  0  0  0
   11.6560   -7.9713    0.0000 C   0  0  0  0  0  0  0  0  0  0  0  0
    3.0373   -8.9226    0.0000 O   0  0  0  0  0  0  0  0  0  0  0  0
    5.1807  -10.9851    0.0000 H   0  0  0  0  0  0  0  0  0  0  0  0
    5.8952   -9.7476    0.0000 H   0  0  0  0  0  0  0  0  0  0  0  0
    7.8907   -6.3213    0.0000 C   0  0  0  0  0  0  0  0  0  0  0  0
  1  2  1  0  0  0  0
  2  3  1  0  0  0  0
  3  4  1  0  0  0  0
  4  5  1  0  0  0  0
  5  6  1  0  0  0  0
  6  1  1  0  0  0  0
  4  7  1  0  0  0  0
  7  8  1  0  0  0  0
  8  9  1  0  0  0  0
  9 10  1  0  0  0  0
 10  5  1  0  0  0  0
  9 11  1  0  0  0  0
 11 12  2  0  0  0  0
 12 13  1  0  0  0  0
 13 10  1  0  0  0  0
 11 14  1  0  0  0  0
 14 15  2  0  0  0  0
 15 16  1  0  0  0  0
 16 17  2  0  0  0  0
 17 12  1  0  0  0  0
 16 18  1  0  0  0  0
 18 19  1  0  0  0  0
 19 20  1  0  0  0  0
 20 21  1  0  0  0  0
 21 22  1  0  0  0  0
 22 23  1  0  0  0  0
 23 24  1  0  0  0  0
 24 19  1  0  0  0  0
  7 25  2  0  0  0  0
 17 26  1  0  0  0  0
  2 27  1  1  0  0  0
  5 28  1  1  0  0  0
  9 29  1  1  0  0  0
 20 30  1  1  0  0  0
 18 31  1  1  0  0  0
 19 32  1  1  0  0  0
 22 33  1  1  0  0  0
  1 34  1  6  0  0  0
  4 35  1  6  0  0  0
 10 36  1  6  0  0  0
 18 37  1  6  0  0  0
M  END
>  <cdx:fragmentId>
5

$$$$
