50189.cdx
  Mrv1902 05222410202D          

 14 14  0  0  0  0            999 V2000
    6.8731   -8.4276    0.0000 C   0  0  0  0  0  0  0  0  0  0  0  0
    6.8731   -9.2526    0.0000 C   0  0  0  0  0  0  0  0  0  0  0  0
    7.5875   -9.6651    0.0000 C   0  0  0  0  0  0  0  0  0  0  0  0
    8.3020   -9.2526    0.0000 C   0  0  0  0  0  0  0  0  0  0  0  0
    8.3020   -8.4276    0.0000 C   0  0  0  0  0  0  0  0  0  0  0  0
    7.5875   -8.0151    0.0000 C   0  0  0  0  0  0  0  0  0  0  0  0
    7.5875  -10.4901    0.0000 C   0  0  0  0  0  0  0  0  0  0  0  0
    7.5875   -7.1901    0.0000 C   0  0  0  0  0  0  0  0  0  0  0  0
    6.8731   -6.7776    0.0000 C   0  0  0  0  0  0  0  0  0  0  0  0
    8.3020   -6.7776    0.0000 C   0  0  0  0  0  0  0  0  0  0  0  0
    6.1586   -8.0151    0.0000 O   0  0  0  0  0  0  0  0  0  0  0  0
    5.4441   -8.4276    0.0000 C   0  0  0  0  0  0  0  0  0  0  0  0
    4.7296   -8.0151    0.0000 O   0  0  0  0  0  0  0  0  0  0  0  0
    5.4441   -9.2526    0.0000 C   0  0  0  0  0  0  0  0  0  0  0  0
  1  2  1  0  0  0  0
  2  3  2  0  0  0  0
  3  4  1  0  0  0  0
  4  5  1  0  0  0  0
  5  6  1  0  0  0  0
  6  1  1  0  0  0  0
  3  7  1  0  0  0  0
  6  8  1  0  0  0  0
  8  9  1  0  0  0  0
  8 10  1  0  0  0  0
  1 11  1  0  0  0  0
 11 12  1  0  0  0  0
 12 13  2  0  0  0  0
 12 14  1  0  0  0  0
M  END
>  <cdx:fragmentId>
5

$$$$
