50185.cdx
  Mrv1902 05222410262D          

 50 54  0  0  0  0            999 V2000
    9.3068   -5.1689    0.0000 C   0  0  0  0  0  0  0  0  0  0  0  0
    9.3068   -5.9939    0.0000 C   0  0  0  0  0  0  0  0  0  0  0  0
   10.0213   -6.4064    0.0000 C   0  0  2  0  0  0  0  0  0  0  0  0
   10.7357   -5.9939    0.0000 C   0  0  0  0  0  0  0  0  0  0  0  0
   10.7357   -5.1689    0.0000 C   0  0  0  0  0  0  0  0  0  0  0  0
   10.0213   -4.7564    0.0000 O   0  0  0  0  0  0  0  0  0  0  0  0
   10.0213   -7.2314    0.0000 C   0  0  2  0  0  0  0  0  0  0  0  0
   10.7357   -7.6439    0.0000 C   0  0  1  0  0  0  0  0  0  0  0  0
   11.4502   -7.2314    0.0000 O   0  0  0  0  0  0  0  0  0  0  0  0
   11.4502   -6.4064    0.0000 C   0  0  0  0  0  0  0  0  0  0  0  0
    8.6156   -8.8896    0.0000 C   0  0  2  0  0  0  0  0  0  0  0  0
    8.6156   -9.7146    0.0000 C   0  0  2  0  0  0  0  0  0  0  0  0
    9.3301  -10.1271    0.0000 C   0  0  1  0  0  0  0  0  0  0  0  0
   10.0445   -9.7146    0.0000 C   0  0  2  0  0  0  0  0  0  0  0  0
   10.0445   -8.8896    0.0000 C   0  0  1  0  0  0  0  0  0  0  0  0
    9.3301   -8.4771    0.0000 O   0  0  0  0  0  0  0  0  0  0  0  0
   10.7590   -8.4771    0.0000 O   0  0  0  0  0  0  0  0  0  0  0  0
    9.3301  -10.9521    0.0000 O   0  0  0  0  0  0  0  0  0  0  0  0
   10.7590  -10.1271    0.0000 O   0  0  0  0  0  0  0  0  0  0  0  0
    7.1867   -8.8896    0.0000 O   0  0  0  0  0  0  0  0  0  0  0  0
    7.9011   -8.4771    0.0000 C   0  0  0  0  0  0  0  0  0  0  0  0
   11.4502   -4.7564    0.0000 O   0  0  0  0  0  0  0  0  0  0  0  0
    9.3068   -7.6439    0.0000 C   0  0  0  0  0  0  0  0  0  0  0  0
    8.5923   -7.2314    0.0000 C   0  0  0  0  0  0  0  0  0  0  0  0
    9.3068   -6.8189    0.0000 O   0  0  0  0  0  0  0  0  0  0  0  0
    8.6156  -11.3646    0.0000 O   0  0  0  0  0  0  0  0  0  0  0  0
    7.1867  -11.3646    0.0000 C   0  0  0  0  0  0  0  0  0  0  0  0
    7.9011  -10.9521    0.0000 C   0  0  0  0  0  0  0  0  0  0  0  0
    7.9011  -10.1271    0.0000 O   0  0  0  0  0  0  0  0  0  0  0  0
    6.4722   -8.4771    0.0000 C   0  0  0  0  0  0  0  0  0  0  0  0
    5.7577   -8.8896    0.0000 C   0  0  0  0  0  0  0  0  0  0  0  0
    6.4722   -7.6521    0.0000 O   0  0  0  0  0  0  0  0  0  0  0  0
    5.0432   -8.4771    0.0000 C   0  0  0  0  0  0  0  0  0  0  0  0
    4.3288   -8.8896    0.0000 C   0  0  0  0  0  0  0  0  0  0  0  0
    4.3288   -9.7146    0.0000 C   0  0  0  0  0  0  0  0  0  0  0  0
    5.0432  -10.1271    0.0000 C   0  0  0  0  0  0  0  0  0  0  0  0
    5.7577   -9.7146    0.0000 C   0  0  0  0  0  0  0  0  0  0  0  0
    6.4722  -10.1271    0.0000 O   0  0  0  0  0  0  0  0  0  0  0  0
    5.0432  -10.9521    0.0000 O   0  0  0  0  0  0  0  0  0  0  0  0
    4.3288  -11.3646    0.0000 C   0  0  2  0  0  0  0  0  0  0  0  0
    3.6143  -10.9521    0.0000 O   0  0  0  0  0  0  0  0  0  0  0  0
    2.8998  -11.3646    0.0000 C   0  0  1  0  0  0  0  0  0  0  0  0
    2.8998  -12.1896    0.0000 C   0  0  2  0  0  0  0  0  0  0  0  0
    3.6143  -12.6021    0.0000 C   0  0  1  0  0  0  0  0  0  0  0  0
    4.3288  -12.1896    0.0000 C   0  0  1  0  0  0  0  0  0  0  0  0
    2.1854  -10.9521    0.0000 C   0  0  0  0  0  0  0  0  0  0  0  0
    3.6143  -13.4271    0.0000 O   0  0  0  0  0  0  0  0  0  0  0  0
    5.0432  -12.6021    0.0000 O   0  0  0  0  0  0  0  0  0  0  0  0
    2.1854  -12.6021    0.0000 O   0  0  0  0  0  0  0  0  0  0  0  0
    1.4709  -11.3646    0.0000 O   0  0  0  0  0  0  0  0  0  0  0  0
  1  2  1  0  0  0  0
  2  3  1  0  0  0  0
  3  4  1  0  0  0  0
  4  5  1  0  0  0  0
  5  6  1  0  0  0  0
  6  1  1  0  0  0  0
  3  7  1  0  0  0  0
  7  8  1  0  0  0  0
  8  9  1  0  0  0  0
  9 10  1  0  0  0  0
 10  4  2  0  0  0  0
 11 12  1  0  0  0  0
 12 13  1  0  0  0  0
 13 14  1  0  0  0  0
 14 15  1  0  0  0  0
 15 16  1  0  0  0  0
 16 11  1  0  0  0  0
 15 17  1  1  0  0  0
 21 20  1  0  0  0  0
 11 21  1  1  0  0  0
 13 18  1  1  0  0  0
 14 19  1  6  0  0  0
 28 26  2  0  0  0  0
 12 29  1  6  0  0  0
  5 22  2  0  0  0  0
  7 23  1  6  0  0  0
 23 24  2  0  0  0  0
  8 17  1  1  0  0  0
  3 25  1  1  0  0  0
 28 27  1  0  0  0  0
 29 28  1  0  0  0  0
 20 30  1  0  0  0  0
 30 31  1  0  0  0  0
 30 32  2  0  0  0  0
 31 33  2  0  0  0  0
 33 34  1  0  0  0  0
 34 35  2  0  0  0  0
 35 36  1  0  0  0  0
 36 37  2  0  0  0  0
 37 31  1  0  0  0  0
 37 38  1  0  0  0  0
 36 39  1  0  0  0  0
 40 39  1  1  0  0  0
 40 41  1  0  0  0  0
 41 42  1  0  0  0  0
 42 43  1  0  0  0  0
 43 44  1  0  0  0  0
 44 45  1  0  0  0  0
 45 40  1  0  0  0  0
 42 46  1  1  0  0  0
 44 47  1  1  0  0  0
 45 48  1  6  0  0  0
 43 49  1  6  0  0  0
 46 50  1  0  0  0  0
M  END
>  <cdx:fragmentId>
36

$$$$
