50184.cdx
  Mrv1902 05222410262D          

 63 68  0  0  0  0            999 V2000
    9.3068   -5.1689    0.0000 C   0  0  0  0  0  0  0  0  0  0  0  0
    9.3068   -5.9939    0.0000 C   0  0  0  0  0  0  0  0  0  0  0  0
   10.0213   -6.4064    0.0000 C   0  0  2  0  0  0  0  0  0  0  0  0
   10.7357   -5.9939    0.0000 C   0  0  0  0  0  0  0  0  0  0  0  0
   10.7357   -5.1689    0.0000 C   0  0  0  0  0  0  0  0  0  0  0  0
   10.0213   -4.7564    0.0000 O   0  0  0  0  0  0  0  0  0  0  0  0
   10.0213   -7.2314    0.0000 C   0  0  2  0  0  0  0  0  0  0  0  0
   10.7357   -7.6439    0.0000 C   0  0  1  0  0  0  0  0  0  0  0  0
   11.4502   -7.2314    0.0000 O   0  0  0  0  0  0  0  0  0  0  0  0
   11.4502   -6.4064    0.0000 C   0  0  0  0  0  0  0  0  0  0  0  0
    8.6156   -8.8896    0.0000 C   0  0  2  0  0  0  0  0  0  0  0  0
    8.6156   -9.7146    0.0000 C   0  0  2  0  0  0  0  0  0  0  0  0
    9.3301  -10.1271    0.0000 C   0  0  1  0  0  0  0  0  0  0  0  0
   10.0445   -9.7146    0.0000 C   0  0  2  0  0  0  0  0  0  0  0  0
   10.0445   -8.8896    0.0000 C   0  0  1  0  0  0  0  0  0  0  0  0
    9.3301   -8.4771    0.0000 O   0  0  0  0  0  0  0  0  0  0  0  0
   10.7590   -8.4771    0.0000 O   0  0  0  0  0  0  0  0  0  0  0  0
    9.3301  -10.9521    0.0000 O   0  0  0  0  0  0  0  0  0  0  0  0
   10.7590  -10.1271    0.0000 O   0  0  0  0  0  0  0  0  0  0  0  0
    7.1867   -8.8896    0.0000 O   0  0  0  0  0  0  0  0  0  0  0  0
    7.9011   -8.4771    0.0000 C   0  0  0  0  0  0  0  0  0  0  0  0
   11.4502   -4.7564    0.0000 O   0  0  0  0  0  0  0  0  0  0  0  0
    9.3068   -7.6439    0.0000 C   0  0  0  0  0  0  0  0  0  0  0  0
    8.5923   -7.2314    0.0000 C   0  0  0  0  0  0  0  0  0  0  0  0
    9.3068   -6.8189    0.0000 O   0  0  0  0  0  0  0  0  0  0  0  0
   10.0445  -11.3646    0.0000 C   0  0  0  0  0  0  0  0  0  0  0  0
   10.0445  -12.1896    0.0000 O   0  0  0  0  0  0  0  0  0  0  0  0
   10.7590  -10.9521    0.0000 C   0  0  0  0  0  0  0  0  0  0  0  0
    8.6156  -11.3646    0.0000 O   0  0  0  0  0  0  0  0  0  0  0  0
    7.1867  -11.3646    0.0000 C   0  0  0  0  0  0  0  0  0  0  0  0
    7.9011  -10.9521    0.0000 C   0  0  0  0  0  0  0  0  0  0  0  0
    7.9011  -10.1271    0.0000 O   0  0  0  0  0  0  0  0  0  0  0  0
    6.4722   -8.4771    0.0000 C   0  0  0  0  0  0  0  0  0  0  0  0
    5.7577   -8.8896    0.0000 C   0  0  0  0  0  0  0  0  0  0  0  0
    6.4722   -7.6521    0.0000 O   0  0  0  0  0  0  0  0  0  0  0  0
    5.0432   -8.4771    0.0000 C   0  0  0  0  0  0  0  0  0  0  0  0
    4.3288   -8.8896    0.0000 C   0  0  0  0  0  0  0  0  0  0  0  0
    4.3288   -9.7146    0.0000 C   0  0  0  0  0  0  0  0  0  0  0  0
    5.0432  -10.1271    0.0000 C   0  0  0  0  0  0  0  0  0  0  0  0
    5.7577   -9.7146    0.0000 C   0  0  0  0  0  0  0  0  0  0  0  0
    6.4722  -10.1271    0.0000 O   0  0  0  0  0  0  0  0  0  0  0  0
    5.0432  -10.9521    0.0000 O   0  0  0  0  0  0  0  0  0  0  0  0
    4.3288  -11.3646    0.0000 C   0  0  2  0  0  0  0  0  0  0  0  0
    3.6143  -10.9521    0.0000 O   0  0  0  0  0  0  0  0  0  0  0  0
    2.8998  -11.3646    0.0000 C   0  0  1  0  0  0  0  0  0  0  0  0
    2.8998  -12.1896    0.0000 C   0  0  2  0  0  0  0  0  0  0  0  0
    3.6143  -12.6021    0.0000 C   0  0  1  0  0  0  0  0  0  0  0  0
    4.3288  -12.1896    0.0000 C   0  0  1  0  0  0  0  0  0  0  0  0
    2.1854  -10.9521    0.0000 C   0  0  0  0  0  0  0  0  0  0  0  0
    3.6143  -13.4271    0.0000 O   0  0  0  0  0  0  0  0  0  0  0  0
    5.0432  -12.6021    0.0000 O   0  0  0  0  0  0  0  0  0  0  0  0
    2.1854  -12.6021    0.0000 O   0  0  0  0  0  0  0  0  0  0  0  0
    1.4709  -11.3646    0.0000 O   0  0  0  0  0  0  0  0  0  0  0  0
   11.4735   -9.7146    0.0000 C   0  0  0  0  0  0  0  0  0  0  0  0
   12.1880  -10.1271    0.0000 C   0  0  0  0  0  0  0  0  0  0  0  0
   11.4735   -8.8896    0.0000 O   0  0  0  0  0  0  0  0  0  0  0  0
   12.1880  -10.9521    0.0000 C   0  0  0  0  0  0  0  0  0  0  0  0
   12.9024  -11.3646    0.0000 C   0  0  0  0  0  0  0  0  0  0  0  0
   13.6169  -10.9521    0.0000 C   0  0  0  0  0  0  0  0  0  0  0  0
   13.6169  -10.1271    0.0000 C   0  0  0  0  0  0  0  0  0  0  0  0
   12.9024   -9.7146    0.0000 C   0  0  0  0  0  0  0  0  0  0  0  0
   11.4735  -11.3646    0.0000 O   0  0  0  0  0  0  0  0  0  0  0  0
   12.9024  -12.1896    0.0000 O   0  0  0  0  0  0  0  0  0  0  0  0
  1  2  1  0  0  0  0
  2  3  1  0  0  0  0
  3  4  1  0  0  0  0
  4  5  1  0  0  0  0
  5  6  1  0  0  0  0
  6  1  1  0  0  0  0
  3  7  1  0  0  0  0
  7  8  1  0  0  0  0
  8  9  1  0  0  0  0
  9 10  1  0  0  0  0
 10  4  2  0  0  0  0
 11 12  1  0  0  0  0
 12 13  1  0  0  0  0
 13 14  1  0  0  0  0
 14 15  1  0  0  0  0
 15 16  1  0  0  0  0
 16 11  1  0  0  0  0
 15 17  1  1  0  0  0
 21 20  1  0  0  0  0
 11 21  1  1  0  0  0
 13 18  1  1  0  0  0
 14 19  1  6  0  0  0
 31 29  2  0  0  0  0
 12 32  1  6  0  0  0
  5 22  2  0  0  0  0
  7 23  1  6  0  0  0
 23 24  2  0  0  0  0
  8 17  1  1  0  0  0
  3 25  1  1  0  0  0
 18 26  1  0  0  0  0
 26 27  2  0  0  0  0
 26 28  1  0  0  0  0
 31 30  1  0  0  0  0
 32 31  1  0  0  0  0
 20 33  1  0  0  0  0
 33 34  1  0  0  0  0
 33 35  2  0  0  0  0
 34 36  2  0  0  0  0
 36 37  1  0  0  0  0
 37 38  2  0  0  0  0
 38 39  1  0  0  0  0
 39 40  2  0  0  0  0
 40 34  1  0  0  0  0
 40 41  1  0  0  0  0
 39 42  1  0  0  0  0
 43 42  1  1  0  0  0
 43 44  1  0  0  0  0
 44 45  1  0  0  0  0
 45 46  1  0  0  0  0
 46 47  1  0  0  0  0
 47 48  1  0  0  0  0
 48 43  1  0  0  0  0
 45 49  1  1  0  0  0
 47 50  1  1  0  0  0
 48 51  1  6  0  0  0
 46 52  1  6  0  0  0
 49 53  1  0  0  0  0
 19 54  1  0  0  0  0
 54 55  1  0  0  0  0
 54 56  2  0  0  0  0
 55 57  2  0  0  0  0
 57 58  1  0  0  0  0
 58 59  2  0  0  0  0
 59 60  1  0  0  0  0
 60 61  2  0  0  0  0
 61 55  1  0  0  0  0
 57 62  1  0  0  0  0
 58 63  1  0  0  0  0
M  END
>  <cdx:fragmentId>
36

$$$$
