50182.cdx
  Mrv1902 05222410272D          

 37 41  0  0  0  0            999 V2000
    3.7788   -6.6682    0.0000 C   0  0  0  0  0  0  0  0  0  0  0  0
    3.3663   -7.3826    0.0000 C   0  0  0  0  0  0  0  0  0  0  0  0
    3.7788   -8.0971    0.0000 C   0  0  0  0  0  0  0  0  0  0  0  0
    4.6038   -8.0971    0.0000 C   0  0  0  0  0  0  0  0  0  0  0  0
    5.0163   -7.3826    0.0000 C   0  0  0  0  0  0  0  0  0  0  0  0
    4.6038   -6.6682    0.0000 C   0  0  0  0  0  0  0  0  0  0  0  0
    5.0163   -8.8116    0.0000 C   0  0  0  0  0  0  0  0  0  0  0  0
    5.8413   -8.8116    0.0000 C   0  0  0  0  0  0  0  0  0  0  0  0
    6.2538   -8.0971    0.0000 C   0  0  0  0  0  0  0  0  0  0  0  0
    5.8413   -7.3826    0.0000 C   0  0  0  0  0  0  0  0  0  0  0  0
    7.0788   -8.0971    0.0000 C   0  0  0  0  0  0  0  0  0  0  0  0
    7.4913   -7.3826    0.0000 C   0  0  0  0  0  0  0  0  0  0  0  0
    7.0788   -6.6682    0.0000 C   0  0  0  0  0  0  0  0  0  0  0  0
    6.2538   -6.6682    0.0000 C   0  0  0  0  0  0  0  0  0  0  0  0
    7.4913   -8.8116    0.0000 C   0  0  0  0  0  0  0  0  0  0  0  0
    8.3163   -8.8116    0.0000 C   0  0  0  0  0  0  0  0  0  0  0  0
    8.7288   -8.0971    0.0000 C   0  0  0  0  0  0  0  0  0  0  0  0
    8.3163   -7.3826    0.0000 C   0  0  0  0  0  0  0  0  0  0  0  0
    9.5538   -8.0971    0.0000 C   0  0  0  0  0  0  0  0  0  0  0  0
    9.9663   -7.3826    0.0000 C   0  0  0  0  0  0  0  0  0  0  0  0
    9.5538   -6.6682    0.0000 C   0  0  0  0  0  0  0  0  0  0  0  0
    8.7288   -6.6682    0.0000 C   0  0  0  0  0  0  0  0  0  0  0  0
    9.9663   -5.9537    0.0000 O   0  0  0  0  0  0  0  0  0  0  0  0
   10.7913   -7.3826    0.0000 O   0  0  0  0  0  0  0  0  0  0  0  0
    9.5538   -8.9221    0.0000 C   0  0  0  0  0  0  0  0  0  0  0  0
   10.3507   -8.3106    0.0000 C   0  0  0  0  0  0  0  0  0  0  0  0
   10.5642   -9.1075    0.0000 O   0  0  0  0  0  0  0  0  0  0  0  0
    7.9038   -6.6682    0.0000 C   0  0  0  0  0  0  0  0  0  0  0  0
    6.8652   -8.8940    0.0000 C   0  0  0  0  0  0  0  0  0  0  0  0
    6.4673   -8.8940    0.0000 C   0  0  0  0  0  0  0  0  0  0  0  0
    4.1913   -8.8116    0.0000 C   0  0  0  0  0  0  0  0  0  0  0  0
    4.6038   -9.5261    0.0000 O   0  0  0  0  0  0  0  0  0  0  0  0
    3.3663   -8.8116    0.0000 O   0  0  0  0  0  0  0  0  0  0  0  0
    3.0643   -6.2557    0.0000 C   0  0  0  0  0  0  0  0  0  0  0  0
    3.7788   -5.8432    0.0000 C   0  0  0  0  0  0  0  0  0  0  0  0
    3.0643   -5.4307    0.0000 O   0  0  0  0  0  0  0  0  0  0  0  0
    2.3498   -6.6682    0.0000 O   0  0  0  0  0  0  0  0  0  0  0  0
  1  2  1  0  0  0  0
  2  3  1  0  0  0  0
  3  4  1  0  0  0  0
  4  5  1  0  0  0  0
  5  6  1  0  0  0  0
  6  1  1  0  0  0  0
  4  7  1  0  0  0  0
  7  8  1  0  0  0  0
  8  9  1  0  0  0  0
  9 10  1  0  0  0  0
 10  5  1  0  0  0  0
  9 11  1  0  0  0  0
 11 12  1  0  0  0  0
 12 13  1  0  0  0  0
 13 14  1  0  0  0  0
 14 10  2  0  0  0  0
 11 15  1  0  0  0  0
 15 16  1  0  0  0  0
 16 17  1  0  0  0  0
 17 18  1  0  0  0  0
 18 12  1  0  0  0  0
 17 19  1  0  0  0  0
 19 20  1  0  0  0  0
 20 21  1  0  0  0  0
 21 22  1  0  0  0  0
 22 18  1  0  0  0  0
 21 23  1  0  0  0  0
 20 24  1  0  0  0  0
 19 25  1  0  0  0  0
 19 26  1  0  0  0  0
 26 27  1  0  0  0  0
 18 28  1  0  0  0  0
 11 29  1  0  0  0  0
  9 30  1  0  0  0  0
  4 31  1  0  0  0  0
 31 32  1  0  0  0  0
 31 33  2  0  0  0  0
  1 34  1  0  0  0  0
  1 35  1  0  0  0  0
 34 36  1  0  0  0  0
 34 37  2  0  0  0  0
M  END
>  <cdx:fragmentId>
5

$$$$
