50180.cdx
  Mrv1902 05222410282D          

 17 19  0  0  0  0            999 V2000
    4.9916   -6.8670    0.0000 C   0  0  0  0  0  0  0  0  0  0  0  0
    4.9916   -7.6920    0.0000 C   0  0  1  0  0  0  0  0  0  0  0  0
    5.6366   -8.2064    0.0000 C   0  0  1  0  0  0  0  0  0  0  0  0
    6.4409   -8.0228    0.0000 C   0  0  0  0  0  0  0  0  0  0  0  0
    6.7989   -7.2795    0.0000 C   0  0  0  0  0  0  0  0  0  0  0  0
    6.4409   -6.5362    0.0000 C   0  0  0  0  0  0  0  0  0  0  0  0
    5.6366   -6.3526    0.0000 C   0  0  1  0  0  0  0  0  0  0  0  0
    6.9553   -5.8912    0.0000 C   0  0  0  0  0  0  0  0  0  0  0  0
    4.5791   -6.1526    0.0000 C   0  0  0  0  0  0  0  0  0  0  0  0
    4.1947   -7.0806    0.0000 C   0  0  0  0  0  0  0  0  0  0  0  0
    4.3031   -8.1465    0.0000 C   0  0  0  0  0  0  0  0  0  0  0  0
    4.5225   -8.9418    0.0000 C   0  0  0  0  0  0  0  0  0  0  0  0
    5.3467   -8.9788    0.0000 C   0  0  2  0  0  0  0  0  0  0  0  0
    5.9051   -7.2870    0.0000 C   0  0  0  0  0  0  0  0  0  0  0  0
    4.1947   -7.4785    0.0000 H   0  0  0  0  0  0  0  0  0  0  0  0
    5.8012   -9.6673    0.0000 C   0  0  0  0  0  0  0  0  0  0  0  0
    5.4530   -5.5483    0.0000 H   0  0  0  0  0  0  0  0  0  0  0  0
  1  2  1  0  0  0  0
  2  3  1  0  0  0  0
  3  4  1  0  0  0  0
  4  5  1  0  0  0  0
  5  6  1  0  0  0  0
  6  7  1  0  0  0  0
  7  1  1  0  0  0  0
  6  8  2  0  0  0  0
  1  9  1  0  0  0  0
  1 10  1  0  0  0  0
  2 11  1  0  0  0  0
 11 12  1  0  0  0  0
 12 13  1  0  0  0  0
 13  3  1  0  0  0  0
  7 14  1  0  0  0  0
  3 14  1  6  0  0  0
  2 15  1  6  0  0  0
 13 16  1  1  0  0  0
  7 17  1  6  0  0  0
M  END
>  <cdx:fragmentId>
5

$$$$
