50193.cdx
  Mrv1902 05222410262D          

 25 27  0  0  0  0            999 V2000
   12.0977   -7.7751    0.0000 O   0  0  0  0  0  0  0  0  0  0  0  0
   12.5827   -7.1076    0.0000 C   0  0  0  0  0  0  0  0  0  0  0  0
   12.0977   -6.4402    0.0000 O   0  0  0  0  0  0  0  0  0  0  0  0
    9.8842   -7.5201    0.0000 C   0  0  0  0  0  0  0  0  0  0  0  0
   10.5987   -7.9326    0.0000 C   0  0  0  0  0  0  0  0  0  0  0  0
   11.3131   -7.5201    0.0000 C   0  0  0  0  0  0  0  0  0  0  0  0
   11.3131   -6.6951    0.0000 C   0  0  0  0  0  0  0  0  0  0  0  0
   10.5987   -6.2826    0.0000 C   0  0  0  0  0  0  0  0  0  0  0  0
    3.4539   -5.4576    0.0000 O   0  0  0  0  0  0  0  0  0  0  0  0
    2.0250   -6.2826    0.0000 C   0  0  0  0  0  0  0  0  0  0  0  0
    1.3105   -6.6951    0.0000 C   0  0  0  0  0  0  0  0  0  0  0  0
    1.3105   -7.5201    0.0000 C   0  0  0  0  0  0  0  0  0  0  0  0
    2.0250   -7.9326    0.0000 C   0  0  0  0  0  0  0  0  0  0  0  0
    2.7395   -7.5201    0.0000 C   0  0  0  0  0  0  0  0  0  0  0  0
    2.7395   -6.6951    0.0000 N   0  0  0  0  0  0  0  0  0  0  0  0
    3.4539   -6.2826    0.0000 C   0  0  0  0  0  0  0  0  0  0  0  0
    4.1684   -6.6951    0.0000 C   0  0  0  0  0  0  0  0  0  0  0  0
    4.8829   -6.2826    0.0000 C   0  0  0  0  0  0  0  0  0  0  0  0
    5.5974   -6.6951    0.0000 C   0  0  0  0  0  0  0  0  0  0  0  0
    6.3118   -6.2826    0.0000 C   0  0  0  0  0  0  0  0  0  0  0  0
    7.0263   -6.6951    0.0000 C   0  0  0  0  0  0  0  0  0  0  0  0
    7.7408   -6.2826    0.0000 C   0  0  0  0  0  0  0  0  0  0  0  0
    8.4552   -6.6951    0.0000 C   0  0  0  0  0  0  0  0  0  0  0  0
    9.1697   -6.2826    0.0000 C   0  0  0  0  0  0  0  0  0  0  0  0
    9.8842   -6.6951    0.0000 C   0  0  0  0  0  0  0  0  0  0  0  0
  1  6  1  0  0  0  0
  2  1  1  0  0  0  0
  3  2  1  0  0  0  0
  7  3  1  0  0  0  0
  4 25  1  0  0  0  0
  5  4  2  0  0  0  0
  6  5  1  0  0  0  0
  7  6  2  0  0  0  0
  8  7  1  0  0  0  0
 25  8  2  0  0  0  0
 16  9  2  0  0  0  0
 10 15  1  0  0  0  0
 11 10  1  0  0  0  0
 12 11  1  0  0  0  0
 13 12  1  0  0  0  0
 14 13  1  0  0  0  0
 15 14  1  0  0  0  0
 16 15  1  0  0  0  0
 17 16  1  0  0  0  0
 18 17  2  0  0  0  0
 19 18  1  0  0  0  0
 20 19  1  0  0  0  0
 21 20  1  0  0  0  0
 22 21  1  0  0  0  0
 23 22  1  0  0  0  0
 24 23  1  0  0  0  0
 25 24  1  0  0  0  0
M  END
>  <cdx:fragmentId>
3

$$$$
