50199.cdx
  Mrv1902 05222410182D          

 28 27  0  0  0  0            999 V2000
   14.4861   -7.7985    0.0000 C   0  0  0  0  0  0  0  0  0  0  0  0
   15.1986   -7.3826    0.0000 C   0  0  0  0  0  0  0  0  0  0  0  0
   15.9104   -7.7718    0.0000 C   0  0  0  0  0  0  0  0  0  0  0  0
   15.9355   -8.5964    0.0000 C   0  0  0  0  0  0  0  0  0  0  0  0
   16.6621   -8.9870    0.0000 C   0  0  0  0  0  0  0  0  0  0  0  0
   16.6900   -9.8115    0.0000 C   0  0  0  0  0  0  0  0  0  0  0  0
   17.4181  -10.1996    0.0000 C   0  0  0  0  0  0  0  0  0  0  0  0
   17.4474  -11.0241    0.0000 C   0  0  0  0  0  0  0  0  0  0  0  0
   18.1761  -11.4109    0.0000 C   0  0  0  0  0  0  0  0  0  0  0  0
   18.2062  -12.2354    0.0000 C   0  0  0  0  0  0  0  0  0  0  0  0
   13.7696   -7.3894    0.0000 C   0  0  0  0  0  0  0  0  0  0  0  0
   13.0571   -7.8054    0.0000 C   0  0  0  0  0  0  0  0  0  0  0  0
   12.3407   -7.3963    0.0000 C   0  0  0  0  0  0  0  0  0  0  0  0
   11.6282   -7.8122    0.0000 C   0  0  0  0  0  0  0  0  0  0  0  0
   10.9118   -7.4031    0.0000 C   0  0  0  0  0  0  0  0  0  0  0  0
   10.1993   -7.8190    0.0000 C   0  0  0  0  0  0  0  0  0  0  0  0
    9.4829   -7.4099    0.0000 C   0  0  0  0  0  0  0  0  0  0  0  0
    8.7704   -7.8258    0.0000 C   0  0  0  0  0  0  0  0  0  0  0  0
    8.0539   -7.4167    0.0000 C   0  0  0  0  0  0  0  0  0  0  0  0
    7.3414   -7.8326    0.0000 C   0  0  0  0  0  0  0  0  0  0  0  0
    6.6250   -7.4236    0.0000 C   0  0  0  0  0  0  0  0  0  0  0  0
    5.9125   -7.8395    0.0000 C   0  0  0  0  0  0  0  0  0  0  0  0
    5.1961   -7.4304    0.0000 N   0  0  0  0  0  0  0  0  0  0  0  0
    5.9165   -8.6645    0.0000 O   0  0  0  0  0  0  0  0  0  0  0  0
    4.4836   -7.8463    0.0000 C   0  0  0  0  0  0  0  0  0  0  0  0
    3.7672   -7.4372    0.0000 C   0  0  0  0  0  0  0  0  0  0  0  0
    3.0547   -7.8531    0.0000 C   0  0  0  0  0  0  0  0  0  0  0  0
    3.7632   -6.6122    0.0000 C   0  0  0  0  0  0  0  0  0  0  0  0
  2  3  2  0  0  0  0
  2  1  1  0  0  0  0
  3  4  1  0  0  0  0
  4  5  1  0  0  0  0
  5  6  1  0  0  0  0
  6  7  1  0  0  0  0
  7  8  1  0  0  0  0
  8  9  1  0  0  0  0
  9 10  1  0  0  0  0
  1 11  1  0  0  0  0
 11 12  1  0  0  0  0
 12 13  1  0  0  0  0
 13 14  1  0  0  0  0
 14 15  1  0  0  0  0
 15 16  1  0  0  0  0
 16 17  1  0  0  0  0
 17 18  1  0  0  0  0
 18 19  2  0  0  0  0
 19 20  1  0  0  0  0
 20 21  2  0  0  0  0
 21 22  1  0  0  0  0
 22 23  1  0  0  0  0
 22 24  2  0  0  0  0
 23 25  1  0  0  0  0
 25 26  1  0  0  0  0
 26 27  1  0  0  0  0
 26 28  1  0  0  0  0
M  END
>  <cdx:fragmentId>
213

$$$$
