50195.cdx
  Mrv1902 05222410282D          

 27 29  0  0  0  0            999 V2000
    2.6289   -7.2589    0.0000 O   0  0  0  0  0  0  0  0  0  0  0  0
   12.7017   -9.5763    0.0000 O   0  0  0  0  0  0  0  0  0  0  0  0
   13.1866   -8.9089    0.0000 C   0  0  0  0  0  0  0  0  0  0  0  0
   12.7017   -8.2415    0.0000 O   0  0  0  0  0  0  0  0  0  0  0  0
   10.4881   -9.3214    0.0000 C   0  0  0  0  0  0  0  0  0  0  0  0
   11.2026   -9.7339    0.0000 C   0  0  0  0  0  0  0  0  0  0  0  0
   11.9171   -9.3214    0.0000 C   0  0  0  0  0  0  0  0  0  0  0  0
   11.9171   -8.4964    0.0000 C   0  0  0  0  0  0  0  0  0  0  0  0
   11.2026   -8.0839    0.0000 C   0  0  0  0  0  0  0  0  0  0  0  0
    1.2000   -8.0839    0.0000 C   0  0  0  0  0  0  0  0  0  0  0  0
    0.4855   -8.4964    0.0000 C   0  0  0  0  0  0  0  0  0  0  0  0
    0.4855   -9.3214    0.0000 C   0  0  0  0  0  0  0  0  0  0  0  0
    1.2000   -9.7339    0.0000 C   0  0  0  0  0  0  0  0  0  0  0  0
    1.9145   -9.3214    0.0000 C   0  0  0  0  0  0  0  0  0  0  0  0
    1.9145   -8.4964    0.0000 N   0  0  0  0  0  0  0  0  0  0  0  0
    2.6289   -8.0839    0.0000 C   0  0  0  0  0  0  0  0  0  0  0  0
    3.3434   -8.4964    0.0000 C   0  0  0  0  0  0  0  0  0  0  0  0
    4.0579   -8.0839    0.0000 C   0  0  0  0  0  0  0  0  0  0  0  0
    4.7724   -8.4964    0.0000 C   0  0  0  0  0  0  0  0  0  0  0  0
    5.4868   -8.0839    0.0000 C   0  0  0  0  0  0  0  0  0  0  0  0
    6.2013   -8.4964    0.0000 C   0  0  0  0  0  0  0  0  0  0  0  0
    6.9158   -8.0839    0.0000 C   0  0  0  0  0  0  0  0  0  0  0  0
    7.6302   -8.4964    0.0000 C   0  0  0  0  0  0  0  0  0  0  0  0
    8.3447   -8.0839    0.0000 C   0  0  0  0  0  0  0  0  0  0  0  0
    9.0592   -8.4964    0.0000 C   0  0  0  0  0  0  0  0  0  0  0  0
    9.7737   -8.0839    0.0000 C   0  0  0  0  0  0  0  0  0  0  0  0
   10.4881   -8.4964    0.0000 C   0  0  0  0  0  0  0  0  0  0  0  0
 16  1  2  0  0  0  0
  2  7  1  0  0  0  0
  3  2  1  0  0  0  0
  4  3  1  0  0  0  0
  8  4  1  0  0  0  0
  5 27  1  0  0  0  0
  6  5  2  0  0  0  0
  7  6  1  0  0  0  0
  8  7  2  0  0  0  0
  9  8  1  0  0  0  0
 27  9  2  0  0  0  0
 10 15  1  0  0  0  0
 11 10  1  0  0  0  0
 12 11  1  0  0  0  0
 13 12  1  0  0  0  0
 14 13  1  0  0  0  0
 15 14  1  0  0  0  0
 16 15  1  0  0  0  0
 17 16  1  0  0  0  0
 18 17  2  0  0  0  0
 19 18  1  0  0  0  0
 20 19  2  0  0  0  0
 21 20  1  0  0  0  0
 22 21  1  0  0  0  0
 23 22  1  0  0  0  0
 24 23  1  0  0  0  0
 25 24  1  0  0  0  0
 26 25  2  0  0  0  0
 27 26  1  0  0  0  0
M  END
>  <cdx:fragmentId>
3

$$$$
