50192.cdx
  Mrv1902 05222410272D          

 21 21  0  0  0  0            999 V2000
    3.0418   -4.4539    0.0000 O   0  0  0  0  0  0  0  0  0  0  0  0
    1.6129   -5.2789    0.0000 C   0  0  0  0  0  0  0  0  0  0  0  0
    0.8984   -5.6914    0.0000 C   0  0  0  0  0  0  0  0  0  0  0  0
    0.8984   -6.5164    0.0000 C   0  0  0  0  0  0  0  0  0  0  0  0
    1.6129   -6.9289    0.0000 C   0  0  0  0  0  0  0  0  0  0  0  0
    2.3274   -6.5164    0.0000 C   0  0  0  0  0  0  0  0  0  0  0  0
    2.3274   -5.6914    0.0000 N   0  0  0  0  0  0  0  0  0  0  0  0
    3.0418   -5.2789    0.0000 C   0  0  0  0  0  0  0  0  0  0  0  0
    3.7563   -5.6914    0.0000 C   0  0  0  0  0  0  0  0  0  0  0  0
    4.4708   -5.2789    0.0000 C   0  0  0  0  0  0  0  0  0  0  0  0
    5.1852   -5.6914    0.0000 C   0  0  0  0  0  0  0  0  0  0  0  0
    5.8997   -5.2789    0.0000 C   0  0  0  0  0  0  0  0  0  0  0  0
    6.6142   -5.6914    0.0000 C   0  0  0  0  0  0  0  0  0  0  0  0
    7.3287   -5.2789    0.0000 C   0  0  0  0  0  0  0  0  0  0  0  0
    8.0431   -5.6914    0.0000 C   0  0  0  0  0  0  0  0  0  0  0  0
    8.7576   -5.2789    0.0000 C   0  0  0  0  0  0  0  0  0  0  0  0
    9.4721   -5.6914    0.0000 C   0  0  0  0  0  0  0  0  0  0  0  0
   10.1865   -5.2789    0.0000 C   0  0  0  0  0  0  0  0  0  0  0  0
   10.9010   -5.6914    0.0000 C   0  0  0  0  0  0  0  0  0  0  0  0
   11.6155   -5.2789    0.0000 C   0  0  0  0  0  0  0  0  0  0  0  0
   12.3300   -5.6914    0.0000 C   0  0  0  0  0  0  0  0  0  0  0  0
  8  1  2  0  0  0  0
  2  7  1  0  0  0  0
  3  2  1  0  0  0  0
  4  3  1  0  0  0  0
  5  4  1  0  0  0  0
  6  5  1  0  0  0  0
  7  6  1  0  0  0  0
  8  7  1  0  0  0  0
  9  8  1  0  0  0  0
 10  9  2  0  0  0  0
 11 10  1  0  0  0  0
 12 11  2  0  0  0  0
 13 12  1  0  0  0  0
 14 13  1  0  0  0  0
 15 14  1  0  0  0  0
 16 15  1  0  0  0  0
 17 16  1  0  0  0  0
 18 17  1  0  0  0  0
 19 18  1  0  0  0  0
 20 19  1  0  0  0  0
 21 20  1  0  0  0  0
M  END
>  <cdx:fragmentId>
3

$$$$
