50194.cdx
  Mrv1902 05222410282D          

 22 21  0  0  0  0            999 V2000
    3.2404   -6.8739    0.0000 O   0  0  0  0  0  0  0  0  0  0  0  0
    1.0970   -8.9364    0.0000 C   0  0  0  0  0  0  0  0  0  0  0  0
    0.3825   -7.6989    0.0000 C   0  0  0  0  0  0  0  0  0  0  0  0
    1.0970   -8.1114    0.0000 C   0  0  0  0  0  0  0  0  0  0  0  0
    1.8115   -7.6989    0.0000 C   0  0  0  0  0  0  0  0  0  0  0  0
    2.5259   -8.1114    0.0000 N   0  0  0  0  0  0  0  0  0  0  0  0
    3.2404   -7.6989    0.0000 C   0  0  0  0  0  0  0  0  0  0  0  0
    3.9549   -8.1114    0.0000 C   0  0  0  0  0  0  0  0  0  0  0  0
    4.6694   -7.6989    0.0000 C   0  0  0  0  0  0  0  0  0  0  0  0
    5.3838   -8.1114    0.0000 C   0  0  0  0  0  0  0  0  0  0  0  0
    6.0983   -7.6989    0.0000 C   0  0  0  0  0  0  0  0  0  0  0  0
    6.8128   -8.1114    0.0000 C   0  0  0  0  0  0  0  0  0  0  0  0
    7.5272   -7.6989    0.0000 C   0  0  0  0  0  0  0  0  0  0  0  0
    8.2417   -8.1114    0.0000 C   0  0  0  0  0  0  0  0  0  0  0  0
    8.9562   -7.6989    0.0000 C   0  0  0  0  0  0  0  0  0  0  0  0
    9.6706   -8.1114    0.0000 C   0  0  0  0  0  0  0  0  0  0  0  0
   10.3851   -7.6989    0.0000 C   0  0  0  0  0  0  0  0  0  0  0  0
   11.0996   -8.1114    0.0000 C   0  0  0  0  0  0  0  0  0  0  0  0
   11.8141   -7.6989    0.0000 C   0  0  0  0  0  0  0  0  0  0  0  0
   12.5285   -8.1114    0.0000 C   0  0  0  0  0  0  0  0  0  0  0  0
   13.2430   -7.6989    0.0000 C   0  0  0  0  0  0  0  0  0  0  0  0
   13.9575   -8.1114    0.0000 C   0  0  0  0  0  0  0  0  0  0  0  0
  7  1  2  0  0  0  0
  4  2  1  0  0  0  0
  4  3  1  0  0  0  0
  5  4  1  0  0  0  0
  6  5  1  0  0  0  0
  7  6  1  0  0  0  0
  8  7  1  0  0  0  0
  9  8  2  0  0  0  0
 10  9  1  0  0  0  0
 11 10  2  0  0  0  0
 12 11  1  0  0  0  0
 13 12  1  0  0  0  0
 14 13  1  0  0  0  0
 15 14  1  0  0  0  0
 16 15  1  0  0  0  0
 17 16  1  0  0  0  0
 18 17  1  0  0  0  0
 19 18  1  0  0  0  0
 20 19  1  0  0  0  0
 21 20  1  0  0  0  0
 22 21  1  0  0  0  0
M  END
>  <cdx:fragmentId>
3

$$$$
