50196.cdx
  Mrv1902 05222410272D          

 17 16  0  0  0  0            999 V2000
    5.0967   -5.2101    0.0000 O   0  0  0  0  0  0  0  0  0  0  0  0
    2.9532   -7.2726    0.0000 C   0  0  0  0  0  0  0  0  0  0  0  0
    2.2388   -6.0351    0.0000 C   0  0  0  0  0  0  0  0  0  0  0  0
    2.9532   -6.4476    0.0000 C   0  0  0  0  0  0  0  0  0  0  0  0
    3.6677   -6.0351    0.0000 C   0  0  0  0  0  0  0  0  0  0  0  0
    4.3822   -6.4476    0.0000 N   0  0  0  0  0  0  0  0  0  0  0  0
    5.0967   -6.0351    0.0000 C   0  0  0  0  0  0  0  0  0  0  0  0
    5.8111   -6.4476    0.0000 C   0  0  0  0  0  0  0  0  0  0  0  0
    6.5256   -6.0351    0.0000 C   0  0  0  0  0  0  0  0  0  0  0  0
    7.2401   -6.4476    0.0000 C   0  0  0  0  0  0  0  0  0  0  0  0
    7.9545   -6.0351    0.0000 C   0  0  0  0  0  0  0  0  0  0  0  0
    8.6690   -6.4476    0.0000 C   0  0  0  0  0  0  0  0  0  0  0  0
    9.3835   -6.0351    0.0000 C   0  0  0  0  0  0  0  0  0  0  0  0
   10.0980   -6.4476    0.0000 C   0  0  0  0  0  0  0  0  0  0  0  0
   10.8124   -6.0351    0.0000 C   0  0  0  0  0  0  0  0  0  0  0  0
   11.5269   -6.4476    0.0000 C   0  0  0  0  0  0  0  0  0  0  0  0
   12.2414   -6.0351    0.0000 C   0  0  0  0  0  0  0  0  0  0  0  0
  7  1  2  0  0  0  0
  4  2  1  0  0  0  0
  4  3  1  0  0  0  0
  5  4  1  0  0  0  0
  6  5  1  0  0  0  0
  7  6  1  0  0  0  0
  8  7  1  0  0  0  0
  9  8  2  0  0  0  0
 10  9  1  0  0  0  0
 11 10  2  0  0  0  0
 12 11  1  0  0  0  0
 13 12  1  0  0  0  0
 14 13  1  0  0  0  0
 15 14  1  0  0  0  0
 16 15  1  0  0  0  0
 17 16  1  0  0  0  0
M  END
>  <cdx:fragmentId>
3

$$$$
