50205.cdx
  Mrv1902 05222410182D          

 18 20  0  0  0  0            999 V2000
    4.5081   -7.7676    0.0000 C   0  0  0  0  0  0  0  0  0  0  0  0
    4.5081   -8.5926    0.0000 C   0  0  0  0  0  0  0  0  0  0  0  0
    5.2225   -9.0051    0.0000 C   0  0  2  0  0  0  0  0  0  0  0  0
    5.9370   -8.5926    0.0000 C   0  0  1  0  0  0  0  0  0  0  0  0
    5.9370   -7.7676    0.0000 C   0  0  0  0  0  0  0  0  0  0  0  0
    5.2225   -7.3551    0.0000 C   0  0  0  0  0  0  0  0  0  0  0  0
    6.6515   -9.0051    0.0000 C   0  0  1  0  0  0  0  0  0  0  0  0
    7.3659   -8.5926    0.0000 C   0  0  1  0  0  0  0  0  0  0  0  0
    7.3659   -7.7676    0.0000 C   0  0  0  0  0  0  0  0  0  0  0  0
    6.6515   -7.3551    0.0000 C   0  0  0  0  0  0  0  0  0  0  0  0
    7.3659   -9.4176    0.0000 C   0  0  0  0  0  0  0  0  0  0  0  0
    5.2225   -9.8301    0.0000 C   0  0  0  0  0  0  0  0  0  0  0  0
    5.9370   -9.4176    0.0000 C   0  0  0  0  0  0  0  0  0  0  0  0
    6.4379   -9.8020    0.0000 H   0  0  0  0  0  0  0  0  0  0  0  0
    8.1628   -8.8062    0.0000 H   0  0  0  0  0  0  0  0  0  0  0  0
    7.1524  -10.2145    0.0000 C   0  0  0  0  0  0  0  0  0  0  0  0
    8.1628   -9.6312    0.0000 C   0  0  0  0  0  0  0  0  0  0  0  0
    3.7936   -9.0051    0.0000 O   0  0  0  0  0  0  0  0  0  0  0  0
  1  2  1  0  0  0  0
  2  3  1  0  0  0  0
  3  4  1  0  0  0  0
  4  5  1  0  0  0  0
  5  6  1  0  0  0  0
  6  1  1  0  0  0  0
  4  7  1  0  0  0  0
  7  8  1  0  0  0  0
  8  9  1  0  0  0  0
  9 10  1  0  0  0  0
 10  5  2  0  0  0  0
  7 11  1  0  0  0  0
 11  8  1  0  0  0  0
  3 12  1  6  0  0  0
  4 13  1  6  0  0  0
  7 14  1  6  0  0  0
  8 15  1  6  0  0  0
 11 16  1  0  0  0  0
 11 17  1  0  0  0  0
  2 18  2  0  0  0  0
M  END
>  <cdx:fragmentId>
5

$$$$
