50201.cdx
  Mrv1902 05222410202D          

 29 30  0  0  0  0            999 V2000
    6.0423   -9.3918    0.0000 C   0  0  0  0  0  0  0  0  0  0  0  0
    6.7617   -8.9881    0.0000 C   0  0  0  0  0  0  0  0  0  0  0  0
    7.4711   -9.4093    0.0000 C   0  0  0  0  0  0  0  0  0  0  0  0
    8.1906   -9.0056    0.0000 C   0  0  0  0  0  0  0  0  0  0  0  0
    8.8999   -9.4268    0.0000 C   0  0  0  0  0  0  0  0  0  0  0  0
    9.6194   -9.0231    0.0000 C   0  0  0  0  0  0  0  0  0  0  0  0
   10.3288   -9.4443    0.0000 C   0  0  0  0  0  0  0  0  0  0  0  0
   11.0482   -9.0406    0.0000 C   0  0  0  0  0  0  0  0  0  0  0  0
   11.7576   -9.4618    0.0000 C   0  0  0  0  0  0  0  0  0  0  0  0
   12.4771   -9.0581    0.0000 C   0  0  0  0  0  0  0  0  0  0  0  0
   13.1864   -9.4793    0.0000 C   0  0  0  0  0  0  0  0  0  0  0  0
   13.9059   -9.0756    0.0000 C   0  0  0  0  0  0  0  0  0  0  0  0
   14.6153   -9.4968    0.0000 C   0  0  0  0  0  0  0  0  0  0  0  0
   15.3347   -9.0931    0.0000 C   0  0  0  0  0  0  0  0  0  0  0  0
   16.0441   -9.5143    0.0000 C   0  0  0  0  0  0  0  0  0  0  0  0
   16.7636   -9.1106    0.0000 N   0  0  0  0  0  0  0  0  0  0  0  0
   17.4729   -9.5318    0.0000 C   0  0  0  0  0  0  0  0  0  0  0  0
   18.1924   -9.1281    0.0000 C   0  0  0  0  0  0  0  0  0  0  0  0
   18.9018   -9.5493    0.0000 C   0  0  0  0  0  0  0  0  0  0  0  0
   18.2025   -8.3032    0.0000 C   0  0  0  0  0  0  0  0  0  0  0  0
   16.0340  -10.3393    0.0000 O   0  0  0  0  0  0  0  0  0  0  0  0
    5.3329   -8.9706    0.0000 C   0  0  0  0  0  0  0  0  0  0  0  0
    4.6134   -9.3743    0.0000 C   0  0  0  0  0  0  0  0  0  0  0  0
    4.6033  -10.1993    0.0000 C   0  0  0  0  0  0  0  0  0  0  0  0
    5.3127  -10.6205    0.0000 C   0  0  0  0  0  0  0  0  0  0  0  0
    6.0322  -10.2168    0.0000 C   0  0  0  0  0  0  0  0  0  0  0  0
    3.8320   -9.1098    0.0000 O   0  0  0  0  0  0  0  0  0  0  0  0
    3.3389   -9.7713    0.0000 C   0  0  0  0  0  0  0  0  0  0  0  0
    3.8156  -10.4446    0.0000 O   0  0  0  0  0  0  0  0  0  0  0  0
  1  2  1  0  0  0  0
  2  3  2  0  0  0  0
  3  4  1  0  0  0  0
  4  5  1  0  0  0  0
  5  6  1  0  0  0  0
  6  7  1  0  0  0  0
  7  8  1  0  0  0  0
  8  9  1  0  0  0  0
  9 10  1  0  0  0  0
 10 11  1  0  0  0  0
 11 12  2  0  0  0  0
 12 13  1  0  0  0  0
 13 14  2  0  0  0  0
 14 15  1  0  0  0  0
 15 16  1  0  0  0  0
 16 17  1  0  0  0  0
 17 18  1  0  0  0  0
 18 19  1  0  0  0  0
 18 20  1  0  0  0  0
 15 21  2  0  0  0  0
  1 22  2  0  0  0  0
 22 23  1  0  0  0  0
 23 24  2  0  0  0  0
 24 25  1  0  0  0  0
 25 26  2  0  0  0  0
 26  1  1  0  0  0  0
 23 27  1  0  0  0  0
 27 28  1  0  0  0  0
 28 29  1  0  0  0  0
 29 24  1  0  0  0  0
M  END
>  <cdx:fragmentId>
3

$$$$
