50209.cdx
  Mrv1902 05222410282D          

 39 42  0  0  0  0            999 V2000
   14.1196   -8.2498    0.0000 C   0  0  0  0  0  0  0  0  0  0  0  0
   13.4044   -7.8386    0.0000 O   0  0  0  0  0  0  0  0  0  0  0  0
   12.6907   -8.2524    0.0000 C   0  0  0  0  0  0  0  0  0  0  0  0
   12.6922   -9.0774    0.0000 C   0  0  0  0  0  0  0  0  0  0  0  0
   13.4075   -9.4886    0.0000 O   0  0  0  0  0  0  0  0  0  0  0  0
   11.9755   -7.8412    0.0000 C   0  0  0  0  0  0  0  0  0  0  0  0
   11.2618   -8.2551    0.0000 C   0  0  0  0  0  0  0  0  0  0  0  0
   11.2633   -9.0801    0.0000 C   0  0  0  0  0  0  0  0  0  0  0  0
   11.9785   -9.4912    0.0000 C   0  0  0  0  0  0  0  0  0  0  0  0
   11.9739   -7.0162    0.0000 O   0  0  0  0  0  0  0  0  0  0  0  0
   10.5450   -7.0189    0.0000 C   0  0  0  0  0  0  0  0  0  0  0  0
   10.5465   -7.8439    0.0000 C   0  0  0  0  0  0  0  0  0  0  0  0
    9.8298   -6.6077    0.0000 O   0  0  0  0  0  0  0  0  0  0  0  0
    9.1161   -7.0216    0.0000 C   0  0  0  0  0  0  0  0  0  0  0  0
    9.1176   -7.8466    0.0000 C   0  0  0  0  0  0  0  0  0  0  0  0
    9.8328   -8.2577    0.0000 C   0  0  0  0  0  0  0  0  0  0  0  0
    8.4008   -6.6104    0.0000 C   0  0  0  0  0  0  0  0  0  0  0  0
    7.6871   -7.0242    0.0000 C   0  0  0  0  0  0  0  0  0  0  0  0
    7.6887   -7.8492    0.0000 C   0  0  0  0  0  0  0  0  0  0  0  0
    8.4039   -8.2604    0.0000 C   0  0  0  0  0  0  0  0  0  0  0  0
    6.9719   -6.6130    0.0000 O   0  0  0  0  0  0  0  0  0  0  0  0
    6.2582   -7.0269    0.0000 C   0  0  1  0  0  0  0  0  0  0  0  0
    6.2597   -7.8519    0.0000 C   0  0  2  0  0  0  0  0  0  0  0  0
    6.9750   -8.2630    0.0000 O   0  0  0  0  0  0  0  0  0  0  0  0
    5.5429   -6.6157    0.0000 O   0  0  0  0  0  0  0  0  0  0  0  0
    4.8292   -7.0295    0.0000 C   0  0  1  0  0  0  0  0  0  0  0  0
    4.8308   -7.8545    0.0000 C   0  0  2  0  0  0  0  0  0  0  0  0
    5.5460   -8.2657    0.0000 C   0  0  2  0  0  0  0  0  0  0  0  0
   13.4090  -10.3136    0.0000 C   0  0  0  0  0  0  0  0  0  0  0  0
    4.1140   -6.6183    0.0000 C   0  0  0  0  0  0  0  0  0  0  0  0
    3.4003   -7.0322    0.0000 O   0  0  0  0  0  0  0  0  0  0  0  0
    5.5475   -9.0907    0.0000 O   0  0  0  0  0  0  0  0  0  0  0  0
    4.1171   -8.2683    0.0000 O   0  0  0  0  0  0  0  0  0  0  0  0
    2.6851   -6.6210    0.0000 C   0  0  0  0  0  0  0  0  0  0  0  0
    1.9714   -7.0348    0.0000 C   0  0  0  0  0  0  0  0  0  0  0  0
    1.2561   -6.6237    0.0000 C   0  0  0  0  0  0  0  0  0  0  0  0
    0.5424   -7.0375    0.0000 O   0  0  0  0  0  0  0  0  0  0  0  0
    2.6835   -5.7960    0.0000 O   0  0  0  0  0  0  0  0  0  0  0  0
    1.2546   -5.7987    0.0000 O   0  0  0  0  0  0  0  0  0  0  0  0
  1  2  1  0  0  0  0
  2  3  1  0  0  0  0
  3  4  1  0  0  0  0
  4  5  1  0  0  0  0
  3  6  2  0  0  0  0
  6  7  1  0  0  0  0
  7  8  2  0  0  0  0
  8  9  1  0  0  0  0
  9  4  2  0  0  0  0
  6 10  1  0  0  0  0
 11 12  1  0  0  0  0
 12  7  1  0  0  0  0
 11 13  1  0  0  0  0
 13 14  1  0  0  0  0
 14 15  2  0  0  0  0
 15 16  1  0  0  0  0
 16 12  1  0  0  0  0
 14 17  1  0  0  0  0
 17 18  2  0  0  0  0
 18 19  1  0  0  0  0
 19 20  2  0  0  0  0
 20 15  1  0  0  0  0
 18 21  1  0  0  0  0
 22 21  1  1  0  0  0
 22 23  1  0  0  0  0
 23 24  1  6  0  0  0
 22 25  1  0  0  0  0
 25 26  1  0  0  0  0
 26 27  1  0  0  0  0
 27 28  1  0  0  0  0
 28 23  1  0  0  0  0
  5 29  1  0  0  0  0
 26 30  1  1  0  0  0
 30 31  1  0  0  0  0
 28 32  1  1  0  0  0
 27 33  1  6  0  0  0
 31 34  1  0  0  0  0
 34 35  1  0  0  0  0
 35 36  1  0  0  0  0
 36 37  1  0  0  0  0
 34 38  2  0  0  0  0
 36 39  2  0  0  0  0
M  END
>  <cdx:fragmentId>
5

$$$$
