50207.cdx
  Mrv1902 05222410182D          

 62 69  0  0  0  0            999 V2000
    3.2981   -8.7714    0.0000 C   0  0  1  0  0  0  0  0  0  0  0  0
    3.2981   -9.5964    0.0000 C   0  0  1  0  0  0  0  0  0  0  0  0
    4.0125  -10.0089    0.0000 C   0  0  2  0  0  0  0  0  0  0  0  0
    4.7270   -9.5964    0.0000 C   0  0  1  0  0  0  0  0  0  0  0  0
    4.7270   -8.7714    0.0000 O   0  0  0  0  0  0  0  0  0  0  0  0
    4.0125   -8.3589    0.0000 C   0  0  2  0  0  0  0  0  0  0  0  0
    5.4415  -10.0089    0.0000 O   0  0  0  0  0  0  0  0  0  0  0  0
    6.1559   -9.5964    0.0000 C   0  0  1  0  0  0  0  0  0  0  0  0
    6.1559   -8.7714    0.0000 C   0  0  0  0  0  0  0  0  0  0  0  0
    6.8704  -10.0089    0.0000 C   0  0  1  0  0  0  0  0  0  0  0  0
    7.5849   -9.5964    0.0000 C   0  0  0  0  0  0  0  0  0  0  0  0
    7.5849   -8.7714    0.0000 C   0  0  2  0  0  0  0  0  0  0  0  0
    6.8704   -8.3589    0.0000 C   0  0  0  0  0  0  0  0  0  0  0  0
    8.2994  -10.0089    0.0000 C   0  0  0  0  0  0  0  0  0  0  0  0
    9.0138   -9.5964    0.0000 C   0  0  0  0  0  0  0  0  0  0  0  0
    9.0138   -8.7714    0.0000 C   0  0  0  0  0  0  0  0  0  0  0  0
    8.2994   -8.3589    0.0000 C   0  0  0  0  0  0  0  0  0  0  0  0
    2.5836  -10.0089    0.0000 O   0  0  0  0  0  0  0  0  0  0  0  0
    2.5836  -10.8339    0.0000 O   0  0  0  0  0  0  0  0  0  0  0  0
    3.2981  -11.2464    0.0000 C   0  0  1  0  0  0  0  0  0  0  0  0
    4.0125  -10.8339    0.0000 O   0  0  0  0  0  0  0  0  0  0  0  0
    1.8691  -11.2464    0.0000 C   0  0  0  0  0  0  0  0  0  0  0  0
    1.8691  -12.0714    0.0000 C   0  0  2  0  0  0  0  0  0  0  0  0
    2.5836  -12.4839    0.0000 C   0  0  1  0  0  0  0  0  0  0  0  0
    3.2981  -12.0714    0.0000 C   0  0  1  0  0  0  0  0  0  0  0  0
    2.5836  -13.3089    0.0000 O   0  0  0  0  0  0  0  0  0  0  0  0
    3.2981  -13.7214    0.0000 O   0  0  0  0  0  0  0  0  0  0  0  0
    4.0125  -13.3089    0.0000 C   0  0  1  0  0  0  0  0  0  0  0  0
    4.0125  -12.4839    0.0000 O   0  0  0  0  0  0  0  0  0  0  0  0
    3.2981  -14.5464    0.0000 C   0  0  0  0  0  0  0  0  0  0  0  0
    4.0125  -14.9589    0.0000 C   0  0  1  0  0  0  0  0  0  0  0  0
    4.7270  -14.5464    0.0000 C   0  0  2  0  0  0  0  0  0  0  0  0
    4.7270  -13.7214    0.0000 C   0  0  1  0  0  0  0  0  0  0  0  0
    9.7283   -8.3589    0.0000 C   0  0  1  0  0  0  0  0  0  0  0  0
    9.7283   -7.5339    0.0000 C   0  0  0  0  0  0  0  0  0  0  0  0
    9.0138   -7.1214    0.0000 C   0  0  0  0  0  0  0  0  0  0  0  0
    8.2994   -7.5339    0.0000 C   0  0  0  0  0  0  0  0  0  0  0  0
   10.4428   -8.7714    0.0000 C   0  0  0  0  0  0  0  0  0  0  0  0
   11.1572   -8.3589    0.0000 C   0  0  0  0  0  0  0  0  0  0  0  0
   11.1572   -7.5339    0.0000 C   0  0  2  0  0  0  0  0  0  0  0  0
   10.4428   -7.1214    0.0000 C   0  0  0  0  0  0  0  0  0  0  0  0
   11.8717   -7.1214    0.0000 C   0  0  1  0  0  0  0  0  0  0  0  0
   11.8717   -6.2964    0.0000 C   0  0  0  0  0  0  0  0  0  0  0  0
   11.1572   -5.8839    0.0000 C   0  0  2  0  0  0  0  0  0  0  0  0
   10.4428   -6.2964    0.0000 C   0  0  0  0  0  0  0  0  0  0  0  0
    4.0125   -7.5339    0.0000 C   0  0  0  0  0  0  0  0  0  0  0  0
    3.2981   -7.1214    0.0000 O   0  0  0  0  0  0  0  0  0  0  0  0
    4.7270   -7.1214    0.0000 O   0  0  0  0  0  0  0  0  0  0  0  0
   10.7447   -5.1694    0.0000 C   0  0  0  0  0  0  0  0  0  0  0  0
   12.5862   -7.5339    0.0000 O   0  0  0  0  0  0  0  0  0  0  0  0
    7.2829  -10.7234    0.0000 C   0  0  0  0  0  0  0  0  0  0  0  0
    8.1079  -10.7234    0.0000 O   0  0  0  0  0  0  0  0  0  0  0  0
    4.0125  -15.7839    0.0000 O   0  0  0  0  0  0  0  0  0  0  0  0
    7.5849   -7.9464    0.0000 C   0  0  0  0  0  0  0  0  0  0  0  0
   11.8717   -7.9464    0.0000 C   0  0  0  0  0  0  0  0  0  0  0  0
   11.5697   -5.1694    0.0000 C   0  0  0  0  0  0  0  0  0  0  0  0
    5.4415  -14.9589    0.0000 O   0  0  0  0  0  0  0  0  0  0  0  0
    5.4415  -13.3089    0.0000 O   0  0  0  0  0  0  0  0  0  0  0  0
    1.1546  -12.4839    0.0000 O   0  0  0  0  0  0  0  0  0  0  0  0
    2.5836   -8.3589    0.0000 O   0  0  0  0  0  0  0  0  0  0  0  0
    6.4579  -10.7234    0.0000 C   0  0  0  0  0  0  0  0  0  0  0  0
    9.7283   -9.1839    0.0000 C   0  0  0  0  0  0  0  0  0  0  0  0
  1  2  1  0  0  0  0
  2  3  1  0  0  0  0
  3  4  1  0  0  0  0
  4  5  1  0  0  0  0
  5  6  1  0  0  0  0
  6  1  1  0  0  0  0
  4  7  1  1  0  0  0
  8  7  1  1  0  0  0
  8  9  1  0  0  0  0
  8 10  1  0  0  0  0
 10 11  1  0  0  0  0
 11 12  1  0  0  0  0
 12 13  1  0  0  0  0
 13  9  1  0  0  0  0
 11 14  1  0  0  0  0
 14 15  1  0  0  0  0
 15 16  1  0  0  0  0
 16 17  1  0  0  0  0
 17 12  1  0  0  0  0
  2 18  1  1  0  0  0
 19 20  1  0  0  0  0
 20 21  1  1  0  0  0
  3 21  1  6  0  0  0
 19 22  1  0  0  0  0
 22 23  1  0  0  0  0
 23 24  1  0  0  0  0
 24 25  1  0  0  0  0
 25 20  1  0  0  0  0
 24 26  1  1  0  0  0
 27 28  1  0  0  0  0
 28 29  1  1  0  0  0
 25 29  1  6  0  0  0
 27 30  1  0  0  0  0
 30 31  1  0  0  0  0
 31 32  1  0  0  0  0
 32 33  1  0  0  0  0
 33 28  1  0  0  0  0
 16 34  1  0  0  0  0
 34 35  1  0  0  0  0
 35 36  2  0  0  0  0
 36 37  1  0  0  0  0
 37 17  1  0  0  0  0
 34 38  1  0  0  0  0
 38 39  1  0  0  0  0
 39 40  1  0  0  0  0
 40 41  1  0  0  0  0
 41 35  1  0  0  0  0
 40 42  1  0  0  0  0
 42 43  1  0  0  0  0
 43 44  1  0  0  0  0
 44 45  1  0  0  0  0
 45 41  1  0  0  0  0
  6 46  1  1  0  0  0
 46 47  2  0  0  0  0
 46 48  1  0  0  0  0
 44 49  1  6  0  0  0
 42 50  1  1  0  0  0
 10 51  1  1  0  0  0
 51 52  1  0  0  0  0
 31 53  1  1  0  0  0
 12 54  1  1  0  0  0
 40 55  1  1  0  0  0
 44 56  1  1  0  0  0
 32 57  1  6  0  0  0
 33 58  1  6  0  0  0
 23 59  1  6  0  0  0
  1 60  1  6  0  0  0
 10 61  1  6  0  0  0
 34 62  1  6  0  0  0
M  END
>  <cdx:fragmentId>
5

$$$$
