50200.cdx
  Mrv1902 05222410202D          

 29 31  0  0  0  0            999 V2000
   12.2924  -10.6261    0.0000 C   0  0  0  0  0  0  0  0  0  0  0  0
   11.5779  -10.2136    0.0000 C   0  0  0  0  0  0  0  0  0  0  0  0
   11.5779   -9.3886    0.0000 C   0  0  0  0  0  0  0  0  0  0  0  0
   12.2924   -8.9761    0.0000 C   0  0  0  0  0  0  0  0  0  0  0  0
   13.0068  -10.2136    0.0000 C   0  0  0  0  0  0  0  0  0  0  0  0
   13.0068   -9.3886    0.0000 C   0  0  0  0  0  0  0  0  0  0  0  0
   13.7915   -9.1337    0.0000 O   0  0  0  0  0  0  0  0  0  0  0  0
   14.2764   -9.8011    0.0000 C   0  0  0  0  0  0  0  0  0  0  0  0
   13.7915  -10.4685    0.0000 O   0  0  0  0  0  0  0  0  0  0  0  0
    0.8608   -8.9761    0.0000 C   0  0  0  0  0  0  0  0  0  0  0  0
    0.1464   -9.3886    0.0000 C   0  0  0  0  0  0  0  0  0  0  0  0
    0.1464  -10.2136    0.0000 C   0  0  0  0  0  0  0  0  0  0  0  0
    0.8608  -10.6261    0.0000 C   0  0  0  0  0  0  0  0  0  0  0  0
    1.5753  -10.2136    0.0000 C   0  0  0  0  0  0  0  0  0  0  0  0
    1.5753   -9.3886    0.0000 N   0  0  0  0  0  0  0  0  0  0  0  0
    2.2898   -8.1511    0.0000 O   0  0  0  0  0  0  0  0  0  0  0  0
   10.8634   -8.9761    0.0000 C   0  0  0  0  0  0  0  0  0  0  0  0
   10.1490   -9.3886    0.0000 C   0  0  0  0  0  0  0  0  0  0  0  0
    9.4345   -8.9761    0.0000 C   0  0  0  0  0  0  0  0  0  0  0  0
    8.7200   -9.3886    0.0000 C   0  0  0  0  0  0  0  0  0  0  0  0
    8.0055   -8.9761    0.0000 C   0  0  0  0  0  0  0  0  0  0  0  0
    7.2911   -9.3886    0.0000 C   0  0  0  0  0  0  0  0  0  0  0  0
    6.5766   -8.9761    0.0000 C   0  0  0  0  0  0  0  0  0  0  0  0
    5.8621   -9.3886    0.0000 C   0  0  0  0  0  0  0  0  0  0  0  0
    5.1477   -8.9761    0.0000 C   0  0  0  0  0  0  0  0  0  0  0  0
    4.4332   -9.3886    0.0000 C   0  0  0  0  0  0  0  0  0  0  0  0
    3.7187   -8.9761    0.0000 C   0  0  0  0  0  0  0  0  0  0  0  0
    3.0042   -9.3886    0.0000 C   0  0  0  0  0  0  0  0  0  0  0  0
    2.2898   -8.9761    0.0000 C   0  0  0  0  0  0  0  0  0  0  0  0
 17  3  1  0  0  0  0
  4  6  2  0  0  0  0
  1  5  2  0  0  0  0
  2  1  1  0  0  0  0
  3  2  2  0  0  0  0
  4  3  1  0  0  0  0
  9  5  1  0  0  0  0
  6  5  1  0  0  0  0
  7  6  1  0  0  0  0
  8  7  1  0  0  0  0
  9  8  1  0  0  0  0
 29 15  1  0  0  0  0
 15 10  1  0  0  0  0
 11 10  1  0  0  0  0
 12 11  1  0  0  0  0
 13 12  1  0  0  0  0
 14 13  1  0  0  0  0
 15 14  1  0  0  0  0
 29 16  2  0  0  0  0
 18 17  2  0  0  0  0
 19 18  1  0  0  0  0
 20 19  1  0  0  0  0
 21 20  1  0  0  0  0
 22 21  1  0  0  0  0
 23 22  1  0  0  0  0
 24 23  1  0  0  0  0
 25 24  1  0  0  0  0
 26 25  2  0  0  0  0
 27 26  1  0  0  0  0
 28 27  2  0  0  0  0
 29 28  1  0  0  0  0
M  END
>  <cdx:fragmentId>
163808

$$$$
