50206.cdx
  Mrv1902 05222410192D          

 17 19  0  0  0  0            999 V2000
    5.7414   -5.2948    0.0000 C   0  0  0  0  0  0  0  0  0  0  0  0
    5.7280   -6.1196    0.0000 C   0  0  0  0  0  0  0  0  0  0  0  0
    6.4357   -6.5437    0.0000 C   0  0  2  0  0  0  0  0  0  0  0  0
    7.1568   -6.1429    0.0000 C   0  0  1  0  0  0  0  0  0  0  0  0
    7.1702   -5.3180    0.0000 C   0  0  0  0  0  0  0  0  0  0  0  0
    6.4625   -4.8939    0.0000 C   0  0  0  0  0  0  0  0  0  0  0  0
    7.8644   -6.5669    0.0000 C   0  0  1  0  0  0  0  0  0  0  0  0
    8.5855   -6.1661    0.0000 C   0  0  1  0  0  0  0  0  0  0  0  0
    8.5989   -5.3412    0.0000 C   0  0  0  0  0  0  0  0  0  0  0  0
    7.8913   -4.9171    0.0000 C   0  0  0  0  0  0  0  0  0  0  0  0
    8.5721   -6.9910    0.0000 C   0  0  0  0  0  0  0  0  0  0  0  0
    6.4223   -7.3686    0.0000 C   0  0  0  0  0  0  0  0  0  0  0  0
    7.1434   -6.9678    0.0000 C   0  0  0  0  0  0  0  0  0  0  0  0
    7.6380   -7.3602    0.0000 H   0  0  0  0  0  0  0  0  0  0  0  0
    9.3788   -6.3925    0.0000 H   0  0  0  0  0  0  0  0  0  0  0  0
    8.3457   -7.7843    0.0000 C   0  0  0  0  0  0  0  0  0  0  0  0
    9.3654   -7.2174    0.0000 C   0  0  0  0  0  0  0  0  0  0  0  0
  1  2  1  0  0  0  0
  2  3  1  0  0  0  0
  3  4  1  0  0  0  0
  4  5  1  0  0  0  0
  5  6  2  0  0  0  0
  6  1  1  0  0  0  0
  4  7  1  0  0  0  0
  7  8  1  0  0  0  0
  8  9  1  0  0  0  0
  9 10  1  0  0  0  0
 10  5  1  0  0  0  0
  7 11  1  0  0  0  0
 11  8  1  0  0  0  0
  3 12  1  6  0  0  0
  4 13  1  6  0  0  0
  7 14  1  6  0  0  0
  8 15  1  6  0  0  0
 11 16  1  0  0  0  0
 11 17  1  0  0  0  0
M  END
>  <cdx:fragmentId>
5

$$$$
