50216.cdx
  Mrv1902 05222410192D          

 15 15  0  0  0  0            999 V2000
    6.3386   -4.1258    0.0000 C   0  0  0  0  0  0  0  0  0  0  0  0
    5.6241   -4.5383    0.0000 C   0  0  0  0  0  0  0  0  0  0  0  0
    5.6241   -5.3633    0.0000 C   0  0  0  0  0  0  0  0  0  0  0  0
    4.9096   -5.7758    0.0000 C   0  0  0  0  0  0  0  0  0  0  0  0
    4.1952   -5.3633    0.0000 C   0  0  0  0  0  0  0  0  0  0  0  0
    4.1952   -4.5383    0.0000 C   0  0  0  0  0  0  0  0  0  0  0  0
    4.9096   -4.1258    0.0000 C   0  0  0  0  0  0  0  0  0  0  0  0
    6.3386   -3.3008    0.0000 O   0  0  0  0  0  0  0  0  0  0  0  0
    7.0531   -4.5383    0.0000 O   0  0  0  0  0  0  0  0  0  0  0  0
    6.3386   -5.7758    0.0000 O   0  0  0  0  0  0  0  0  0  0  0  0
    7.7675   -4.1258    0.0000 C   0  0  0  0  0  0  0  0  0  0  0  0
    8.4820   -4.5383    0.0000 C   0  0  0  0  0  0  0  0  0  0  0  0
    9.1965   -4.1258    0.0000 C   0  0  0  0  0  0  0  0  0  0  0  0
    9.1965   -3.3008    0.0000 C   0  0  0  0  0  0  0  0  0  0  0  0
    9.9109   -4.5383    0.0000 C   0  0  0  0  0  0  0  0  0  0  0  0
  1  2  1  0  0  0  0
  2  3  1  0  0  0  0
  3  4  2  0  0  0  0
  4  5  1  0  0  0  0
  5  6  2  0  0  0  0
  6  7  1  0  0  0  0
  2  7  2  0  0  0  0
  1  8  2  0  0  0  0
  1  9  1  0  0  0  0
  3 10  1  0  0  0  0
 11 12  1  0  0  0  0
 12 13  2  0  0  0  0
 13 14  1  0  0  0  0
 13 15  1  0  0  0  0
  9 11  1  0  0  0  0
M  END
>  <cdx:fragmentId>
5

$$$$
