50211.cdx
  Mrv1902 05222410182D          

 20 21  0  0  0  0            999 V2000
    4.3706   -9.8714    0.0000 C   0  0  0  0  0  0  0  0  0  0  0  0
    4.3706  -10.6964    0.0000 C   0  0  0  0  0  0  0  0  0  0  0  0
    5.0850  -11.1089    0.0000 C   0  0  0  0  0  0  0  0  0  0  0  0
    5.7995  -10.6964    0.0000 C   0  0  0  0  0  0  0  0  0  0  0  0
    5.7995   -9.8714    0.0000 C   0  0  0  0  0  0  0  0  0  0  0  0
    5.0850   -9.4589    0.0000 C   0  0  0  0  0  0  0  0  0  0  0  0
    6.5140   -9.4589    0.0000 C   0  0  0  0  0  0  0  0  0  0  0  0
    6.5140   -8.6339    0.0000 C   0  0  0  0  0  0  0  0  0  0  0  0
    7.2284   -8.2214    0.0000 C   0  0  0  0  0  0  0  0  0  0  0  0
    7.9429   -8.6339    0.0000 C   0  0  0  0  0  0  0  0  0  0  0  0
    8.6574   -8.2214    0.0000 C   0  0  0  0  0  0  0  0  0  0  0  0
    8.6574   -7.3964    0.0000 C   0  0  0  0  0  0  0  0  0  0  0  0
    7.9429   -6.9839    0.0000 C   0  0  0  0  0  0  0  0  0  0  0  0
    7.2284   -7.3964    0.0000 C   0  0  0  0  0  0  0  0  0  0  0  0
    6.5140   -6.9839    0.0000 O   0  0  0  0  0  0  0  0  0  0  0  0
    7.9429   -6.1589    0.0000 O   0  0  0  0  0  0  0  0  0  0  0  0
    9.3719   -6.9839    0.0000 O   0  0  0  0  0  0  0  0  0  0  0  0
   10.0863   -7.3964    0.0000 C   0  0  0  0  0  0  0  0  0  0  0  0
    9.3719   -8.6339    0.0000 O   0  0  0  0  0  0  0  0  0  0  0  0
    9.3719   -9.4589    0.0000 C   0  0  0  0  0  0  0  0  0  0  0  0
  1  2  2  0  0  0  0
  2  3  1  0  0  0  0
  3  4  2  0  0  0  0
  4  5  1  0  0  0  0
  5  6  2  0  0  0  0
  6  1  1  0  0  0  0
  5  7  1  0  0  0  0
  7  8  1  0  0  0  0
  8  9  1  0  0  0  0
  9 10  2  0  0  0  0
 10 11  1  0  0  0  0
 11 12  2  0  0  0  0
 12 13  1  0  0  0  0
 13 14  2  0  0  0  0
 14  9  1  0  0  0  0
 14 15  1  0  0  0  0
 13 16  1  0  0  0  0
 12 17  1  0  0  0  0
 17 18  1  0  0  0  0
 11 19  1  0  0  0  0
 19 20  1  0  0  0  0
M  END
>  <cdx:fragmentId>
5

$$$$
