50215.cdx
  Mrv1902 05222410202D          

 43 47  0  0  0  0            999 V2000
    3.7931   -9.4176    0.0000 C   0  0  0  0  0  0  0  0  0  0  0  0
    3.7931  -10.2426    0.0000 C   0  0  0  0  0  0  0  0  0  0  0  0
    4.5075  -10.6551    0.0000 C   0  0  0  0  0  0  0  0  0  0  0  0
    5.2220  -10.2426    0.0000 C   0  0  0  0  0  0  0  0  0  0  0  0
    5.2220   -9.4176    0.0000 C   0  0  0  0  0  0  0  0  0  0  0  0
    4.5075   -9.0051    0.0000 C   0  0  0  0  0  0  0  0  0  0  0  0
    5.9365  -10.6551    0.0000 O   0  0  0  0  0  0  0  0  0  0  0  0
    6.6509  -10.2426    0.0000 C   0  0  0  0  0  0  0  0  0  0  0  0
    6.6509   -9.4176    0.0000 C   0  0  0  0  0  0  0  0  0  0  0  0
    5.9365   -9.0051    0.0000 C   0  0  0  0  0  0  0  0  0  0  0  0
    7.3654   -9.0051    0.0000 C   0  0  0  0  0  0  0  0  0  0  0  0
    7.3654   -8.1801    0.0000 C   0  0  0  0  0  0  0  0  0  0  0  0
    5.9365   -8.1801    0.0000 O   0  0  0  0  0  0  0  0  0  0  0  0
    8.0799   -9.4176    0.0000 C   0  0  0  0  0  0  0  0  0  0  0  0
    8.7944   -9.0051    0.0000 C   0  0  0  0  0  0  0  0  0  0  0  0
    8.7944   -8.1801    0.0000 C   0  0  0  0  0  0  0  0  0  0  0  0
    8.0799   -7.7676    0.0000 C   0  0  0  0  0  0  0  0  0  0  0  0
    3.0786  -10.6551    0.0000 O   0  0  0  0  0  0  0  0  0  0  0  0
    9.5088   -7.7676    0.0000 O   0  0  0  0  0  0  0  0  0  0  0  0
    9.5088   -9.4176    0.0000 O   0  0  0  0  0  0  0  0  0  0  0  0
    9.5088  -10.2426    0.0000 C   0  0  0  0  0  0  0  0  0  0  0  0
    2.3567  -12.7099    0.0000 C   0  0  2  0  0  0  0  0  0  0  0  0
    3.0727  -13.1197    0.0000 C   0  0  2  0  0  0  0  0  0  0  0  0
    3.7856  -12.7044    0.0000 C   0  0  1  0  0  0  0  0  0  0  0  0
    3.7824  -11.8795    0.0000 C   0  0  2  0  0  0  0  0  0  0  0  0
    3.0664  -11.4697    0.0000 C   0  0  1  0  0  0  0  0  0  0  0  0
    2.3535  -11.8849    0.0000 O   0  0  0  0  0  0  0  0  0  0  0  0
    1.6438  -13.1252    0.0000 C   0  0  0  0  0  0  0  0  0  0  0  0
    4.5017  -13.1142    0.0000 O   0  0  0  0  0  0  0  0  0  0  0  0
    4.4953  -11.4642    0.0000 O   0  0  0  0  0  0  0  0  0  0  0  0
    3.0759  -13.9447    0.0000 O   0  0  0  0  0  0  0  0  0  0  0  0
    1.6470  -13.9502    0.0000 O   0  0  0  0  0  0  0  0  0  0  0  0
   10.2328   -5.6978    0.0000 C   0  0  2  0  0  0  0  0  0  0  0  0
    9.5201   -5.2823    0.0000 C   0  0  2  0  0  0  0  0  0  0  0  0
    8.8039   -5.6917    0.0000 C   0  0  1  0  0  0  0  0  0  0  0  0
    8.8004   -6.5167    0.0000 C   0  0  2  0  0  0  0  0  0  0  0  0
    9.5131   -6.9323    0.0000 C   0  0  1  0  0  0  0  0  0  0  0  0
   10.2293   -6.5228    0.0000 O   0  0  0  0  0  0  0  0  0  0  0  0
   10.9491   -5.2884    0.0000 C   0  0  0  0  0  0  0  0  0  0  0  0
    8.0912   -5.2761    0.0000 O   0  0  0  0  0  0  0  0  0  0  0  0
    8.0841   -6.9261    0.0000 O   0  0  0  0  0  0  0  0  0  0  0  0
    9.5237   -4.4573    0.0000 O   0  0  0  0  0  0  0  0  0  0  0  0
   10.9526   -4.4634    0.0000 O   0  0  0  0  0  0  0  0  0  0  0  0
  1  2  1  0  0  0  0
  2  3  2  0  0  0  0
  3  4  1  0  0  0  0
  4  5  2  0  0  0  0
  5  6  1  0  0  0  0
  6  1  2  0  0  0  0
  4  7  1  0  0  0  0
  7  8  1  0  0  0  0
  8  9  2  0  0  0  0
  9 10  1  0  0  0  0
 10  5  1  0  0  0  0
  9 11  1  0  0  0  0
 11 12  1  0  0  0  0
 13 10  2  0  0  0  0
 11 14  2  0  0  0  0
 14 15  1  0  0  0  0
 15 16  2  0  0  0  0
 16 17  1  0  0  0  0
 17 12  2  0  0  0  0
  2 18  1  0  0  0  0
 16 19  1  0  0  0  0
 15 20  1  0  0  0  0
 20 21  1  0  0  0  0
 22 23  1  0  0  0  0
 23 24  1  0  0  0  0
 24 25  1  0  0  0  0
 25 26  1  0  0  0  0
 26 27  1  0  0  0  0
 27 22  1  0  0  0  0
 22 28  1  1  0  0  0
 24 29  1  1  0  0  0
 25 30  1  6  0  0  0
 23 31  1  6  0  0  0
 28 32  1  0  0  0  0
 33 34  1  0  0  0  0
 34 35  1  0  0  0  0
 35 36  1  0  0  0  0
 36 37  1  0  0  0  0
 37 38  1  0  0  0  0
 38 33  1  0  0  0  0
 33 39  1  1  0  0  0
 35 40  1  1  0  0  0
 36 41  1  6  0  0  0
 34 42  1  6  0  0  0
 39 43  1  0  0  0  0
 26 18  1  1  0  0  0
 37 19  1  1  0  0  0
M  END
>  <cdx:fragmentId>
5

$$$$
