50213.cdx
  Mrv1902 05222410182D          

 40 44  0  0  0  0            999 V2000
    3.4493   -5.9801    0.0000 C   0  0  0  0  0  0  0  0  0  0  0  0
    3.4493   -6.8051    0.0000 C   0  0  0  0  0  0  0  0  0  0  0  0
    4.1638   -7.2176    0.0000 C   0  0  0  0  0  0  0  0  0  0  0  0
    4.8782   -6.8051    0.0000 C   0  0  0  0  0  0  0  0  0  0  0  0
    4.8782   -5.9801    0.0000 C   0  0  0  0  0  0  0  0  0  0  0  0
    4.1638   -5.5676    0.0000 C   0  0  0  0  0  0  0  0  0  0  0  0
    5.5927   -7.2176    0.0000 C   0  0  0  0  0  0  0  0  0  0  0  0
    6.3072   -6.8051    0.0000 C   0  0  0  0  0  0  0  0  0  0  0  0
    6.3072   -5.9801    0.0000 C   0  0  0  0  0  0  0  0  0  0  0  0
    5.5927   -5.5676    0.0000 O   0  0  0  0  0  0  0  0  0  0  0  0
    5.5927   -8.0426    0.0000 O   0  0  0  0  0  0  0  0  0  0  0  0
    7.0217   -8.0426    0.0000 C   0  0  0  0  0  0  0  0  0  0  0  0
    7.0217   -7.2176    0.0000 C   0  0  0  0  0  0  0  0  0  0  0  0
    7.7361   -8.4551    0.0000 C   0  0  0  0  0  0  0  0  0  0  0  0
    8.4506   -8.0426    0.0000 C   0  0  0  0  0  0  0  0  0  0  0  0
    8.4506   -7.2176    0.0000 C   0  0  0  0  0  0  0  0  0  0  0  0
    7.7361   -6.8051    0.0000 C   0  0  0  0  0  0  0  0  0  0  0  0
    2.7348   -5.5676    0.0000 O   0  0  0  0  0  0  0  0  0  0  0  0
    8.5020  -10.5500    0.0000 C   0  0  2  0  0  0  0  0  0  0  0  0
    9.2163  -10.9627    0.0000 C   0  0  2  0  0  0  0  0  0  0  0  0
    9.9309  -10.5504    0.0000 C   0  0  1  0  0  0  0  0  0  0  0  0
    9.9311   -9.7254    0.0000 C   0  0  2  0  0  0  0  0  0  0  0  0
    9.2168   -9.3127    0.0000 C   0  0  1  0  0  0  0  0  0  0  0  0
    8.5022   -9.7250    0.0000 O   0  0  0  0  0  0  0  0  0  0  0  0
    9.2170   -8.4877    0.0000 O   0  0  0  0  0  0  0  0  0  0  0  0
    7.7874  -10.9623    0.0000 C   0  0  0  0  0  0  0  0  0  0  0  0
   10.6453  -10.9630    0.0000 O   0  0  0  0  0  0  0  0  0  0  0  0
   10.6457   -9.3130    0.0000 O   0  0  0  0  0  0  0  0  0  0  0  0
    9.2161  -11.7877    0.0000 O   0  0  0  0  0  0  0  0  0  0  0  0
    7.7872  -11.7873    0.0000 O   0  0  0  0  0  0  0  0  0  0  0  0
    5.6487  -12.1621    0.0000 C   0  0  1  0  0  0  0  0  0  0  0  0
    5.6361  -12.9870    0.0000 C   0  0  1  0  0  0  0  0  0  0  0  0
    6.3443  -13.4103    0.0000 C   0  0  2  0  0  0  0  0  0  0  0  0
    7.0649  -13.0087    0.0000 C   0  0  2  0  0  0  0  0  0  0  0  0
    7.0774  -12.1838    0.0000 C   0  0  1  0  0  0  0  0  0  0  0  0
    6.3693  -11.7605    0.0000 O   0  0  0  0  0  0  0  0  0  0  0  0
    4.9405  -11.7388    0.0000 C   0  0  0  0  0  0  0  0  0  0  0  0
    6.3318  -14.2352    0.0000 O   0  0  0  0  0  0  0  0  0  0  0  0
    7.7731  -13.4320    0.0000 O   0  0  0  0  0  0  0  0  0  0  0  0
    4.9155  -13.3886    0.0000 O   0  0  0  0  0  0  0  0  0  0  0  0
  1  2  2  0  0  0  0
  2  3  1  0  0  0  0
  3  4  2  0  0  0  0
  4  5  1  0  0  0  0
  5  6  2  0  0  0  0
  6  1  1  0  0  0  0
  4  7  1  0  0  0  0
  7  8  1  0  0  0  0
  8  9  2  0  0  0  0
  9 10  1  0  0  0  0
 10  5  1  0  0  0  0
  7 11  2  0  0  0  0
 12 13  2  0  0  0  0
 13  8  1  0  0  0  0
 12 14  1  0  0  0  0
 14 15  2  0  0  0  0
 15 16  1  0  0  0  0
 16 17  2  0  0  0  0
 17 13  1  0  0  0  0
  1 18  1  0  0  0  0
 19 20  1  0  0  0  0
 20 21  1  0  0  0  0
 21 22  1  0  0  0  0
 22 23  1  0  0  0  0
 23 24  1  0  0  0  0
 24 19  1  0  0  0  0
 23 25  1  1  0  0  0
 19 26  1  1  0  0  0
 21 27  1  1  0  0  0
 22 28  1  6  0  0  0
 20 29  1  6  0  0  0
 26 30  1  0  0  0  0
 31 32  1  0  0  0  0
 32 33  1  0  0  0  0
 33 34  1  0  0  0  0
 34 35  1  0  0  0  0
 35 36  1  0  0  0  0
 36 31  1  0  0  0  0
 31 37  1  6  0  0  0
 33 38  1  6  0  0  0
 34 39  1  6  0  0  0
 32 40  1  1  0  0  0
 35 30  1  1  0  0  0
 15 25  1  0  0  0  0
M  END
>  <cdx:fragmentId>
68

$$$$
