50214.cdx
  Mrv1902 05222410202D          

 32 35  0  0  0  0            999 V2000
    3.7931   -9.4176    0.0000 C   0  0  0  0  0  0  0  0  0  0  0  0
    3.7931  -10.2426    0.0000 C   0  0  0  0  0  0  0  0  0  0  0  0
    4.5075  -10.6551    0.0000 C   0  0  0  0  0  0  0  0  0  0  0  0
    5.2220  -10.2426    0.0000 C   0  0  0  0  0  0  0  0  0  0  0  0
    5.2220   -9.4176    0.0000 C   0  0  0  0  0  0  0  0  0  0  0  0
    4.5075   -9.0051    0.0000 C   0  0  0  0  0  0  0  0  0  0  0  0
    5.9365  -10.6551    0.0000 O   0  0  0  0  0  0  0  0  0  0  0  0
    6.6509  -10.2426    0.0000 C   0  0  0  0  0  0  0  0  0  0  0  0
    6.6509   -9.4176    0.0000 C   0  0  0  0  0  0  0  0  0  0  0  0
    5.9365   -9.0051    0.0000 C   0  0  0  0  0  0  0  0  0  0  0  0
    7.3654   -9.0051    0.0000 C   0  0  0  0  0  0  0  0  0  0  0  0
    7.3654   -8.1801    0.0000 C   0  0  0  0  0  0  0  0  0  0  0  0
    5.9365   -8.1801    0.0000 O   0  0  0  0  0  0  0  0  0  0  0  0
    8.0799   -9.4176    0.0000 C   0  0  0  0  0  0  0  0  0  0  0  0
    8.7944   -9.0051    0.0000 C   0  0  0  0  0  0  0  0  0  0  0  0
    8.7944   -8.1801    0.0000 C   0  0  0  0  0  0  0  0  0  0  0  0
    8.0799   -7.7676    0.0000 C   0  0  0  0  0  0  0  0  0  0  0  0
    3.0786  -10.6551    0.0000 O   0  0  0  0  0  0  0  0  0  0  0  0
    9.5088   -7.7676    0.0000 O   0  0  0  0  0  0  0  0  0  0  0  0
    9.5088   -9.4176    0.0000 O   0  0  0  0  0  0  0  0  0  0  0  0
    9.5088  -10.2426    0.0000 C   0  0  0  0  0  0  0  0  0  0  0  0
   10.2333   -5.7013    0.0000 C   0  0  2  0  0  0  0  0  0  0  0  0
    9.5198   -5.2872    0.0000 C   0  0  2  0  0  0  0  0  0  0  0  0
    8.8044   -5.6981    0.0000 C   0  0  1  0  0  0  0  0  0  0  0  0
    8.8025   -6.5231    0.0000 C   0  0  2  0  0  0  0  0  0  0  0  0
    9.5161   -6.9372    0.0000 C   0  0  1  0  0  0  0  0  0  0  0  0
   10.2315   -6.5263    0.0000 O   0  0  0  0  0  0  0  0  0  0  0  0
   10.9487   -5.2904    0.0000 C   0  0  0  0  0  0  0  0  0  0  0  0
    8.0908   -5.2840    0.0000 O   0  0  0  0  0  0  0  0  0  0  0  0
   10.9505   -4.4654    0.0000 O   0  0  0  0  0  0  0  0  0  0  0  0
    9.5216   -4.4622    0.0000 O   0  0  0  0  0  0  0  0  0  0  0  0
    8.0871   -6.9340    0.0000 O   0  0  0  0  0  0  0  0  0  0  0  0
  1  2  1  0  0  0  0
  2  3  2  0  0  0  0
  3  4  1  0  0  0  0
  4  5  2  0  0  0  0
  5  6  1  0  0  0  0
  6  1  2  0  0  0  0
  4  7  1  0  0  0  0
  7  8  1  0  0  0  0
  8  9  2  0  0  0  0
  9 10  1  0  0  0  0
 10  5  1  0  0  0  0
  9 11  1  0  0  0  0
 11 12  1  0  0  0  0
 13 10  2  0  0  0  0
 11 14  2  0  0  0  0
 14 15  1  0  0  0  0
 15 16  2  0  0  0  0
 16 17  1  0  0  0  0
 17 12  2  0  0  0  0
  2 18  1  0  0  0  0
 16 19  1  0  0  0  0
 15 20  1  0  0  0  0
 20 21  1  0  0  0  0
 22 23  1  0  0  0  0
 23 24  1  0  0  0  0
 24 25  1  0  0  0  0
 25 26  1  0  0  0  0
 26 27  1  0  0  0  0
 27 22  1  0  0  0  0
 22 28  1  1  0  0  0
 24 29  1  1  0  0  0
 28 30  1  0  0  0  0
 23 31  1  6  0  0  0
 25 32  1  6  0  0  0
 26 19  1  1  0  0  0
M  END
>  <cdx:fragmentId>
5

$$$$
