50212.cdx
  Mrv1902 05222410192D          

 32 36  0  0  0  0            999 V2000
    4.7861  -11.4700    0.0000 C   0  0  0  0  0  0  0  0  0  0  0  0
    5.6111  -11.4700    0.0000 C   0  0  0  0  0  0  0  0  0  0  0  0
    3.7696  -10.7471    0.0000 O   0  0  0  0  0  0  0  0  0  0  0  0
    5.9252   -8.6973    0.0000 C   0  0  0  0  0  0  0  0  0  0  0  0
    8.0613   -9.9474    0.0000 C   0  0  0  0  0  0  0  0  0  0  0  0
    8.0759   -7.4725    0.0000 C   0  0  0  0  0  0  0  0  0  0  0  0
   10.2071   -9.5476    0.0000 O   0  0  0  0  0  0  0  0  0  0  0  0
   10.2119   -8.7226    0.0000 C   0  0  0  0  0  0  0  0  0  0  0  0
    8.0807   -6.6475    0.0000 C   0  0  0  0  0  0  0  0  0  0  0  0
    9.5145   -5.8309    0.0000 C   0  0  0  0  0  0  0  0  0  0  0  0
    5.2083   -9.1056    0.0000 C   0  0  0  0  0  0  0  0  0  0  0  0
    4.4914   -9.5139    0.0000 C   0  0  0  0  0  0  0  0  0  0  0  0
    4.4865  -10.3389    0.0000 C   0  0  1  0  0  0  0  0  0  0  0  0
    5.1986  -10.7556    0.0000 C   0  0  1  0  0  0  0  0  0  0  0  0
    5.9203   -9.5223    0.0000 C   0  0  2  0  0  0  0  0  0  0  0  0
    5.9155  -10.3473    0.0000 C   0  0  0  0  0  0  0  0  0  0  0  0
    6.6275  -10.7640    0.0000 C   0  0  0  0  0  0  0  0  0  0  0  0
    7.3444  -10.3557    0.0000 C   0  0  0  0  0  0  0  0  0  0  0  0
    7.3590   -7.8808    0.0000 C   0  0  0  0  0  0  0  0  0  0  0  0
    6.6421   -8.2890    0.0000 C   0  0  0  0  0  0  0  0  0  0  0  0
    6.6372   -9.1140    0.0000 C   0  0  0  0  0  0  0  0  0  0  0  0
    7.3492   -9.5307    0.0000 C   0  0  0  0  0  0  0  0  0  0  0  0
    8.0710   -8.2975    0.0000 C   0  0  1  0  0  0  0  0  0  0  0  0
    8.0661   -9.1225    0.0000 C   0  0  1  0  0  0  0  0  0  0  0  0
    8.7782   -9.5392    0.0000 C   0  0  0  0  0  0  0  0  0  0  0  0
    9.4950   -9.1309    0.0000 C   0  0  2  0  0  0  0  0  0  0  0  0
    8.7928   -7.0642    0.0000 C   0  0  2  0  0  0  0  0  0  0  0  0
    8.7879   -7.8892    0.0000 C   0  0  0  0  0  0  0  0  0  0  0  0
    9.4999   -8.3059    0.0000 C   0  0  1  0  0  0  0  0  0  0  0  0
   10.2168   -7.8976    0.0000 C   0  0  0  0  0  0  0  0  0  0  0  0
   10.2217   -7.0726    0.0000 C   0  0  0  0  0  0  0  0  0  0  0  0
    9.5096   -6.6559    0.0000 C   0  0  1  0  0  0  0  0  0  0  0  0
 14  1  1  1  0  0  0
 14  2  1  6  0  0  0
 13  3  1  1  0  0  0
 15  4  1  1  0  0  0
 24  5  1  1  0  0  0
 23  6  1  6  0  0  0
 26  7  1  6  0  0  0
 29  8  1  1  0  0  0
 27  9  1  1  0  0  0
 32 10  1  6  0  0  0
 11 15  1  0  0  0  0
 12 11  1  0  0  0  0
 13 12  1  0  0  0  0
 14 13  1  0  0  0  0
 16 14  1  0  0  0  0
 15 21  1  0  0  0  0
 16 15  1  0  0  0  0
 17 16  1  0  0  0  0
 18 17  1  0  0  0  0
 22 18  2  0  0  0  0
 19 23  1  0  0  0  0
 20 19  1  0  0  0  0
 21 20  1  0  0  0  0
 22 21  1  0  0  0  0
 24 22  1  0  0  0  0
 23 28  1  0  0  0  0
 24 23  1  0  0  0  0
 25 24  1  0  0  0  0
 26 25  1  0  0  0  0
 29 26  1  0  0  0  0
 27 32  1  0  0  0  0
 28 27  1  0  0  0  0
 29 28  1  0  0  0  0
 30 29  1  0  0  0  0
 31 30  1  0  0  0  0
 32 31  1  0  0  0  0
M  END
>  <cdx:fragmentId>
5

$$$$
