50218.cdx
  Mrv1902 05222410262D          

 41 45  0  0  0  0            999 V2000
    7.7668   -9.2251    0.0000 C   0  0  0  0  0  0  0  0  0  0  0  0
    7.7668  -10.0501    0.0000 C   0  0  0  0  0  0  0  0  0  0  0  0
    8.4813  -10.4626    0.0000 C   0  0  0  0  0  0  0  0  0  0  0  0
    9.1957  -10.0501    0.0000 C   0  0  0  0  0  0  0  0  0  0  0  0
    9.1957   -9.2251    0.0000 C   0  0  0  0  0  0  0  0  0  0  0  0
    8.4813   -8.8126    0.0000 C   0  0  0  0  0  0  0  0  0  0  0  0
    9.9102  -10.4626    0.0000 O   0  0  0  0  0  0  0  0  0  0  0  0
   10.6247  -10.0501    0.0000 C   0  0  0  0  0  0  0  0  0  0  0  0
   10.6247   -9.2251    0.0000 C   0  0  0  0  0  0  0  0  0  0  0  0
    9.9102   -8.8126    0.0000 C   0  0  0  0  0  0  0  0  0  0  0  0
   11.3392   -8.8126    0.0000 C   0  0  0  0  0  0  0  0  0  0  0  0
   11.3392   -7.9876    0.0000 C   0  0  0  0  0  0  0  0  0  0  0  0
    9.9102   -7.9876    0.0000 O   0  0  0  0  0  0  0  0  0  0  0  0
   12.0536   -9.2251    0.0000 C   0  0  0  0  0  0  0  0  0  0  0  0
   12.7681   -8.8126    0.0000 C   0  0  0  0  0  0  0  0  0  0  0  0
   12.7681   -7.9876    0.0000 C   0  0  0  0  0  0  0  0  0  0  0  0
   12.0536   -7.5751    0.0000 C   0  0  0  0  0  0  0  0  0  0  0  0
    7.0523  -10.4626    0.0000 O   0  0  0  0  0  0  0  0  0  0  0  0
   13.4826   -7.5751    0.0000 O   0  0  0  0  0  0  0  0  0  0  0  0
    4.9206  -10.8751    0.0000 C   0  0  2  0  0  0  0  0  0  0  0  0
    4.9206  -11.7001    0.0000 C   0  0  2  0  0  0  0  0  0  0  0  0
    5.6350  -12.1126    0.0000 C   0  0  1  0  0  0  0  0  0  0  0  0
    6.3495  -11.7001    0.0000 C   0  0  2  0  0  0  0  0  0  0  0  0
    6.3495  -10.8751    0.0000 C   0  0  1  0  0  0  0  0  0  0  0  0
    5.6350  -10.4626    0.0000 O   0  0  0  0  0  0  0  0  0  0  0  0
    4.2061  -10.4626    0.0000 C   0  0  0  0  0  0  0  0  0  0  0  0
    5.6350  -12.9376    0.0000 O   0  0  0  0  0  0  0  0  0  0  0  0
    7.0640  -12.1126    0.0000 O   0  0  0  0  0  0  0  0  0  0  0  0
    4.2061  -12.1126    0.0000 O   0  0  0  0  0  0  0  0  0  0  0  0
    3.4916  -10.8751    0.0000 O   0  0  0  0  0  0  0  0  0  0  0  0
    2.0740  -12.5199    0.0000 C   0  0  2  0  0  0  0  0  0  0  0  0
    2.0740  -13.3449    0.0000 C   0  0  2  0  0  0  0  0  0  0  0  0
    2.7885  -13.7574    0.0000 C   0  0  1  0  0  0  0  0  0  0  0  0
    3.5030  -13.3449    0.0000 C   0  0  2  0  0  0  0  0  0  0  0  0
    3.5030  -12.5199    0.0000 C   0  0  2  0  0  0  0  0  0  0  0  0
    2.7885  -12.1074    0.0000 O   0  0  0  0  0  0  0  0  0  0  0  0
    1.3596  -12.1074    0.0000 C   0  0  0  0  0  0  0  0  0  0  0  0
    2.7885  -14.5824    0.0000 O   0  0  0  0  0  0  0  0  0  0  0  0
    4.2175  -13.7574    0.0000 O   0  0  0  0  0  0  0  0  0  0  0  0
    1.3596  -13.7574    0.0000 O   0  0  0  0  0  0  0  0  0  0  0  0
    0.6451  -12.5199    0.0000 O   0  0  0  0  0  0  0  0  0  0  0  0
  1  2  1  0  0  0  0
  2  3  2  0  0  0  0
  3  4  1  0  0  0  0
  4  5  2  0  0  0  0
  5  6  1  0  0  0  0
  6  1  2  0  0  0  0
  4  7  1  0  0  0  0
  7  8  1  0  0  0  0
  8  9  2  0  0  0  0
  9 10  1  0  0  0  0
 10  5  1  0  0  0  0
  9 11  1  0  0  0  0
 11 12  1  0  0  0  0
 13 10  2  0  0  0  0
 11 14  2  0  0  0  0
 14 15  1  0  0  0  0
 15 16  2  0  0  0  0
 16 17  1  0  0  0  0
 17 12  2  0  0  0  0
  2 18  1  0  0  0  0
 16 19  1  0  0  0  0
 20 21  1  0  0  0  0
 21 22  1  0  0  0  0
 22 23  1  0  0  0  0
 23 24  1  0  0  0  0
 24 25  1  0  0  0  0
 25 20  1  0  0  0  0
 20 26  1  1  0  0  0
 22 27  1  1  0  0  0
 23 28  1  6  0  0  0
 21 29  1  6  0  0  0
 26 30  1  0  0  0  0
 31 32  1  0  0  0  0
 32 33  1  0  0  0  0
 33 34  1  0  0  0  0
 34 35  1  0  0  0  0
 35 36  1  0  0  0  0
 36 31  1  0  0  0  0
 31 37  1  1  0  0  0
 33 38  1  1  0  0  0
 34 39  1  6  0  0  0
 32 40  1  6  0  0  0
 37 41  1  0  0  0  0
 35 29  1  6  0  0  0
 24 18  1  1  0  0  0
M  END
>  <cdx:fragmentId>
263

$$$$
