50210.cdx
  Mrv1902 05222410182D          

 41 45  0  0  0  0            999 V2000
    7.1343   -8.1114    0.0000 C   0  0  0  0  0  0  0  0  0  0  0  0
    7.1343   -8.9364    0.0000 C   0  0  0  0  0  0  0  0  0  0  0  0
    7.8488   -9.3489    0.0000 C   0  0  0  0  0  0  0  0  0  0  0  0
    8.5632   -8.9364    0.0000 C   0  0  0  0  0  0  0  0  0  0  0  0
    8.5632   -8.1114    0.0000 C   0  0  0  0  0  0  0  0  0  0  0  0
    7.8488   -7.6989    0.0000 C   0  0  0  0  0  0  0  0  0  0  0  0
    9.2777   -9.3489    0.0000 C   0  0  1  0  0  0  0  0  0  0  0  0
    9.9922   -8.9364    0.0000 C   0  0  1  0  0  0  0  0  0  0  0  0
    9.9922   -8.1114    0.0000 C   0  0  0  0  0  0  0  0  0  0  0  0
    9.2777   -7.6989    0.0000 O   0  0  0  0  0  0  0  0  0  0  0  0
   10.7067   -9.3489    0.0000 C   0  0  0  0  0  0  0  0  0  0  0  0
   11.4211   -8.9364    0.0000 C   0  0  0  0  0  0  0  0  0  0  0  0
   10.7067  -10.1739    0.0000 C   0  0  0  0  0  0  0  0  0  0  0  0
   11.4211  -10.5864    0.0000 C   0  0  0  0  0  0  0  0  0  0  0  0
   12.1356  -10.1739    0.0000 C   0  0  0  0  0  0  0  0  0  0  0  0
   12.1356   -9.3489    0.0000 C   0  0  0  0  0  0  0  0  0  0  0  0
    9.2777  -10.1739    0.0000 C   0  0  0  0  0  0  0  0  0  0  0  0
    6.4198   -7.6989    0.0000 O   0  0  0  0  0  0  0  0  0  0  0  0
   11.4211  -11.4114    0.0000 O   0  0  0  0  0  0  0  0  0  0  0  0
   12.1356  -11.8239    0.0000 C   0  0  0  0  0  0  0  0  0  0  0  0
   12.8501  -10.5864    0.0000 O   0  0  0  0  0  0  0  0  0  0  0  0
   13.5645  -10.1739    0.0000 C   0  0  0  0  0  0  0  0  0  0  0  0
    5.7054   -8.1114    0.0000 C   0  0  1  0  0  0  0  0  0  0  0  0
    5.7054   -8.9364    0.0000 C   0  0  1  0  0  0  0  0  0  0  0  0
    4.9909   -7.6989    0.0000 O   0  0  0  0  0  0  0  0  0  0  0  0
    4.2764   -8.1114    0.0000 C   0  0  1  0  0  0  0  0  0  0  0  0
    4.2764   -8.9364    0.0000 C   0  0  2  0  0  0  0  0  0  0  0  0
    4.9909   -9.3489    0.0000 C   0  0  2  0  0  0  0  0  0  0  0  0
    3.5619   -7.6989    0.0000 C   0  0  0  0  0  0  0  0  0  0  0  0
    2.8475   -8.1114    0.0000 O   0  0  0  0  0  0  0  0  0  0  0  0
    2.1330   -7.6989    0.0000 C   0  0  0  0  0  0  0  0  0  0  0  0
    1.4185   -8.1114    0.0000 C   0  0  0  0  0  0  0  0  0  0  0  0
    2.1330   -6.8739    0.0000 O   0  0  0  0  0  0  0  0  0  0  0  0
    1.4185   -8.9364    0.0000 C   0  0  0  0  0  0  0  0  0  0  0  0
    2.1330   -9.3489    0.0000 O   0  0  0  0  0  0  0  0  0  0  0  0
    0.7041   -9.3489    0.0000 O   0  0  0  0  0  0  0  0  0  0  0  0
    4.9909  -10.1739    0.0000 O   0  0  0  0  0  0  0  0  0  0  0  0
    3.5619   -9.3489    0.0000 O   0  0  0  0  0  0  0  0  0  0  0  0
    6.4198   -9.3489    0.0000 O   0  0  0  0  0  0  0  0  0  0  0  0
   10.7067   -8.5239    0.0000 H   0  0  0  0  0  0  0  0  0  0  0  0
    8.5632   -9.7614    0.0000 H   0  0  0  0  0  0  0  0  0  0  0  0
  1  2  2  0  0  0  0
  2  3  1  0  0  0  0
  3  4  2  0  0  0  0
  4  5  1  0  0  0  0
  5  6  2  0  0  0  0
  6  1  1  0  0  0  0
  4  7  1  0  0  0  0
  7  8  1  0  0  0  0
  8  9  1  0  0  0  0
  9 10  1  0  0  0  0
 10  5  1  0  0  0  0
  8 11  1  0  0  0  0
 11 12  1  0  0  0  0
 11 13  2  0  0  0  0
 13 14  1  0  0  0  0
 14 15  2  0  0  0  0
 15 16  1  0  0  0  0
 16 12  2  0  0  0  0
  7 17  1  0  0  0  0
 17 13  1  0  0  0  0
  1 18  1  0  0  0  0
 14 19  1  0  0  0  0
 19 20  1  0  0  0  0
 15 21  1  0  0  0  0
 21 22  1  0  0  0  0
 23 18  1  1  0  0  0
 23 24  1  0  0  0  0
 23 25  1  0  0  0  0
 25 26  1  0  0  0  0
 26 27  1  0  0  0  0
 27 28  1  0  0  0  0
 28 24  1  0  0  0  0
 26 29  1  1  0  0  0
 29 30  1  0  0  0  0
 30 31  1  0  0  0  0
 31 32  1  0  0  0  0
 31 33  2  0  0  0  0
 32 34  1  0  0  0  0
 34 35  1  0  0  0  0
 34 36  2  0  0  0  0
 28 37  1  1  0  0  0
 27 38  1  6  0  0  0
 24 39  1  6  0  0  0
  8 40  1  6  0  0  0
  7 41  1  6  0  0  0
M  END
>  <cdx:fragmentId>
5

$$$$
