50220.cdx
  Mrv1902 05222410282D          

 31 34  0  0  0  0            999 V2000
    6.3436  -10.3074    0.0000 C   0  0  0  0  0  0  0  0  0  0  0  0
    6.3391   -9.4825    0.0000 C   0  0  0  0  0  0  0  0  0  0  0  0
    7.0513   -9.0660    0.0000 C   0  0  0  0  0  0  0  0  0  0  0  0
    7.7680   -9.4746    0.0000 C   0  0  0  0  0  0  0  0  0  0  0  0
    7.7725  -10.2996    0.0000 C   0  0  0  0  0  0  0  0  0  0  0  0
    7.0604  -10.7160    0.0000 C   0  0  0  0  0  0  0  0  0  0  0  0
    8.4802   -9.0581    0.0000 O   0  0  0  0  0  0  0  0  0  0  0  0
    9.1969   -9.4667    0.0000 C   0  0  0  0  0  0  0  0  0  0  0  0
    9.2015  -10.2917    0.0000 C   0  0  0  0  0  0  0  0  0  0  0  0
    8.4893  -10.7081    0.0000 C   0  0  0  0  0  0  0  0  0  0  0  0
    9.9182  -10.7002    0.0000 C   0  0  0  0  0  0  0  0  0  0  0  0
    9.9228  -11.5252    0.0000 C   0  0  0  0  0  0  0  0  0  0  0  0
    8.4938  -11.5331    0.0000 O   0  0  0  0  0  0  0  0  0  0  0  0
   10.6304  -10.2838    0.0000 C   0  0  0  0  0  0  0  0  0  0  0  0
   11.3471  -10.6923    0.0000 C   0  0  0  0  0  0  0  0  0  0  0  0
   11.3517  -11.5173    0.0000 C   0  0  0  0  0  0  0  0  0  0  0  0
   10.6395  -11.9338    0.0000 C   0  0  0  0  0  0  0  0  0  0  0  0
    5.6223   -9.0739    0.0000 O   0  0  0  0  0  0  0  0  0  0  0  0
   12.0684  -11.9259    0.0000 O   0  0  0  0  0  0  0  0  0  0  0  0
    3.4906   -9.4864    0.0000 C   0  0  2  0  0  0  0  0  0  0  0  0
    3.4906  -10.3114    0.0000 C   0  0  2  0  0  0  0  0  0  0  0  0
    4.2050  -10.7239    0.0000 C   0  0  1  0  0  0  0  0  0  0  0  0
    4.9195  -10.3114    0.0000 C   0  0  2  0  0  0  0  0  0  0  0  0
    4.9195   -9.4864    0.0000 C   0  0  1  0  0  0  0  0  0  0  0  0
    4.2050   -9.0739    0.0000 O   0  0  0  0  0  0  0  0  0  0  0  0
    2.7761   -9.0739    0.0000 C   0  0  0  0  0  0  0  0  0  0  0  0
    4.2050  -11.5489    0.0000 O   0  0  0  0  0  0  0  0  0  0  0  0
    5.6340  -10.7239    0.0000 O   0  0  0  0  0  0  0  0  0  0  0  0
    2.7761  -10.7239    0.0000 O   0  0  0  0  0  0  0  0  0  0  0  0
    2.0616   -9.4864    0.0000 O   0  0  0  0  0  0  0  0  0  0  0  0
    2.7761   -8.2489    0.0000 O   0  0  0  0  0  0  0  0  0  0  0  0
  1  2  1  0  0  0  0
  2  3  2  0  0  0  0
  3  4  1  0  0  0  0
  4  5  2  0  0  0  0
  5  6  1  0  0  0  0
  6  1  2  0  0  0  0
  4  7  1  0  0  0  0
  7  8  1  0  0  0  0
  8  9  2  0  0  0  0
  9 10  1  0  0  0  0
 10  5  1  0  0  0  0
  9 11  1  0  0  0  0
 11 12  1  0  0  0  0
 13 10  2  0  0  0  0
 11 14  2  0  0  0  0
 14 15  1  0  0  0  0
 15 16  2  0  0  0  0
 16 17  1  0  0  0  0
 17 12  2  0  0  0  0
  2 18  1  0  0  0  0
 16 19  1  0  0  0  0
 20 21  1  0  0  0  0
 21 22  1  0  0  0  0
 22 23  1  0  0  0  0
 23 24  1  0  0  0  0
 24 25  1  0  0  0  0
 25 20  1  0  0  0  0
 20 26  1  1  0  0  0
 22 27  1  1  0  0  0
 23 28  1  6  0  0  0
 21 29  1  6  0  0  0
 26 30  1  0  0  0  0
 24 18  1  1  0  0  0
 26 31  2  0  0  0  0
M  END
>  <cdx:fragmentId>
263

$$$$
