50226.cdx
  Mrv1902 05222410262D          

 15 15  0  0  0  0            999 V2000
    6.3918   -9.9951    0.0000 C   0  0  0  0  0  0  0  0  0  0  0  0
    6.3918  -10.8201    0.0000 C   0  0  0  0  0  0  0  0  0  0  0  0
    7.1063  -11.2326    0.0000 C   0  0  0  0  0  0  0  0  0  0  0  0
    7.8207  -10.8201    0.0000 C   0  0  0  0  0  0  0  0  0  0  0  0
    7.8207   -9.9951    0.0000 C   0  0  0  0  0  0  0  0  0  0  0  0
    7.1063   -9.5826    0.0000 C   0  0  0  0  0  0  0  0  0  0  0  0
    7.1063   -8.7576    0.0000 C   0  0  0  0  0  0  0  0  0  0  0  0
    6.3918   -8.3451    0.0000 O   0  0  0  0  0  0  0  0  0  0  0  0
    7.8207   -8.3451    0.0000 O   0  0  0  0  0  0  0  0  0  0  0  0
    8.5352  -11.2326    0.0000 C   0  0  0  0  0  0  0  0  0  0  0  0
    7.1063  -12.0576    0.0000 C   0  0  0  0  0  0  0  0  0  0  0  0
    6.3918  -12.4701    0.0000 C   0  0  0  0  0  0  0  0  0  0  0  0
    6.3918  -13.2951    0.0000 C   0  0  0  0  0  0  0  0  0  0  0  0
    5.6773  -13.7076    0.0000 C   0  0  0  0  0  0  0  0  0  0  0  0
    7.1063  -13.7076    0.0000 O   0  0  0  0  0  0  0  0  0  0  0  0
  1  2  2  0  0  0  0
  2  3  1  0  0  0  0
  3  4  2  0  0  0  0
  4  5  1  0  0  0  0
  5  6  2  0  0  0  0
  6  1  1  0  0  0  0
  6  7  1  0  0  0  0
  7  8  2  0  0  0  0
  7  9  1  0  0  0  0
  4 10  1  0  0  0  0
  3 11  1  0  0  0  0
 11 12  1  0  0  0  0
 12 13  1  0  0  0  0
 13 14  1  0  0  0  0
 13 15  2  0  0  0  0
M  END
>  <cdx:fragmentId>
5

$$$$
