50223.cdx
  Mrv1902 05222410272D          

 43 47  0  0  0  0            999 V2000
    4.8106   -6.6401    0.0000 C   0  0  0  0  0  0  0  0  0  0  0  0
    4.8106   -7.4651    0.0000 C   0  0  0  0  0  0  0  0  0  0  0  0
    5.5250   -7.8776    0.0000 C   0  0  0  0  0  0  0  0  0  0  0  0
    6.2395   -7.4651    0.0000 C   0  0  0  0  0  0  0  0  0  0  0  0
    6.2395   -6.6401    0.0000 C   0  0  0  0  0  0  0  0  0  0  0  0
    5.5250   -6.2276    0.0000 C   0  0  0  0  0  0  0  0  0  0  0  0
    6.9540   -7.8776    0.0000 O   0  0  0  0  0  0  0  0  0  0  0  0
    7.6684   -7.4651    0.0000 C   0  0  0  0  0  0  0  0  0  0  0  0
    7.6684   -6.6401    0.0000 C   0  0  0  0  0  0  0  0  0  0  0  0
    6.9540   -6.2276    0.0000 C   0  0  0  0  0  0  0  0  0  0  0  0
    8.3829   -6.2276    0.0000 C   0  0  0  0  0  0  0  0  0  0  0  0
    8.3829   -5.4026    0.0000 C   0  0  0  0  0  0  0  0  0  0  0  0
    6.9540   -5.4026    0.0000 O   0  0  0  0  0  0  0  0  0  0  0  0
    9.0974   -6.6401    0.0000 C   0  0  0  0  0  0  0  0  0  0  0  0
    9.8119   -6.2276    0.0000 C   0  0  0  0  0  0  0  0  0  0  0  0
    9.8119   -5.4026    0.0000 C   0  0  0  0  0  0  0  0  0  0  0  0
    9.0974   -4.9901    0.0000 C   0  0  0  0  0  0  0  0  0  0  0  0
    4.0961   -7.8776    0.0000 O   0  0  0  0  0  0  0  0  0  0  0  0
   10.5263   -4.9901    0.0000 O   0  0  0  0  0  0  0  0  0  0  0  0
   10.5263   -6.6401    0.0000 O   0  0  0  0  0  0  0  0  0  0  0  0
    5.5250   -8.7026    0.0000 C   0  0  1  0  0  0  0  0  0  0  0  0
    4.8106   -9.1151    0.0000 C   0  0  1  0  0  0  0  0  0  0  0  0
    4.8106   -9.9401    0.0000 C   0  0  2  0  0  0  0  0  0  0  0  0
    5.5250  -10.3526    0.0000 C   0  0  1  0  0  0  0  0  0  0  0  0
    6.2395   -9.9401    0.0000 C   0  0  2  0  0  0  0  0  0  0  0  0
    6.2395   -9.1151    0.0000 O   0  0  0  0  0  0  0  0  0  0  0  0
    4.0961   -8.7026    0.0000 O   0  0  0  0  0  0  0  0  0  0  0  0
    5.5250  -11.1776    0.0000 O   0  0  0  0  0  0  0  0  0  0  0  0
    6.2395   -8.2901    0.0000 H   0  0  0  0  0  0  0  0  0  0  0  0
    4.0961  -10.3526    0.0000 O   0  0  0  0  0  0  0  0  0  0  0  0
    6.9540  -10.3526    0.0000 C   0  0  0  0  0  0  0  0  0  0  0  0
    6.9540  -11.1776    0.0000 O   0  0  0  0  0  0  0  0  0  0  0  0
    7.3922  -13.3188    0.0000 C   0  0  2  0  0  0  0  0  0  0  0  0
    8.2171  -13.3138    0.0000 C   0  0  2  0  0  0  0  0  0  0  0  0
    8.6254  -12.5969    0.0000 C   0  0  1  0  0  0  0  0  0  0  0  0
    8.2086  -11.8849    0.0000 C   0  0  2  0  0  0  0  0  0  0  0  0
    7.3837  -11.8898    0.0000 C   0  0  1  0  0  0  0  0  0  0  0  0
    6.9754  -12.6067    0.0000 O   0  0  0  0  0  0  0  0  0  0  0  0
    6.9839  -14.0357    0.0000 C   0  0  0  0  0  0  0  0  0  0  0  0
    9.4504  -12.5920    0.0000 O   0  0  0  0  0  0  0  0  0  0  0  0
    8.6169  -11.1680    0.0000 O   0  0  0  0  0  0  0  0  0  0  0  0
    8.6339  -14.0259    0.0000 O   0  0  0  0  0  0  0  0  0  0  0  0
    7.4007  -14.7477    0.0000 O   0  0  0  0  0  0  0  0  0  0  0  0
  1  2  1  0  0  0  0
  2  3  2  0  0  0  0
  3  4  1  0  0  0  0
  4  5  2  0  0  0  0
  5  6  1  0  0  0  0
  6  1  2  0  0  0  0
  4  7  1  0  0  0  0
  7  8  1  0  0  0  0
  8  9  2  0  0  0  0
  9 10  1  0  0  0  0
 10  5  1  0  0  0  0
  9 11  1  0  0  0  0
 11 12  1  0  0  0  0
 13 10  2  0  0  0  0
 11 14  2  0  0  0  0
 14 15  1  0  0  0  0
 15 16  2  0  0  0  0
 16 17  1  0  0  0  0
 17 12  2  0  0  0  0
  2 18  1  0  0  0  0
 16 19  1  0  0  0  0
 15 20  1  0  0  0  0
  3 21  1  0  0  0  0
 21 22  1  0  0  0  0
 22 23  1  0  0  0  0
 23 24  1  0  0  0  0
 24 25  1  0  0  0  0
 25 26  1  0  0  0  0
 26 21  1  0  0  0  0
 22 27  1  1  0  0  0
 24 28  1  1  0  0  0
 21 29  1  1  0  0  0
 23 30  1  6  0  0  0
 25 31  1  6  0  0  0
 31 32  1  0  0  0  0
 33 34  1  0  0  0  0
 34 35  1  0  0  0  0
 35 36  1  0  0  0  0
 36 37  1  0  0  0  0
 37 38  1  0  0  0  0
 38 33  1  0  0  0  0
 33 39  1  1  0  0  0
 35 40  1  1  0  0  0
 36 41  1  6  0  0  0
 34 42  1  6  0  0  0
 39 43  1  0  0  0  0
 37 32  1  1  0  0  0
M  END
>  <cdx:fragmentId>
263

$$$$
