50224.cdx
  Mrv1902 05222410262D          

 10 10  0  0  0  0            999 V2000
    7.9396   -9.4244    0.0000 C   0  0  0  0  0  0  0  0  0  0  0  0
    7.1146   -9.4242    0.0000 C   0  0  0  0  0  0  0  0  0  0  0  0
    6.8598   -8.6395    0.0000 C   0  0  0  0  0  0  0  0  0  0  0  0
    7.5274   -8.1548    0.0000 C   0  0  0  0  0  0  0  0  0  0  0  0
    8.1947   -8.6399    0.0000 C   0  0  0  0  0  0  0  0  0  0  0  0
    8.7469   -8.0269    0.0000 C   0  0  0  0  0  0  0  0  0  0  0  0
    9.0016   -8.8116    0.0000 C   0  0  0  0  0  0  0  0  0  0  0  0
    6.0753   -8.3844    0.0000 C   0  0  0  0  0  0  0  0  0  0  0  0
    5.9040   -7.5773    0.0000 C   0  0  0  0  0  0  0  0  0  0  0  0
    5.4620   -8.9362    0.0000 C   0  0  0  0  0  0  0  0  0  0  0  0
  1  2  2  0  0  0  0
  2  3  1  0  0  0  0
  3  4  1  0  0  0  0
  4  5  1  0  0  0  0
  1  5  1  0  0  0  0
  5  6  1  0  0  0  0
  5  7  1  0  0  0  0
  8  9  2  0  0  0  0
  8 10  1  0  0  0  0
  3  8  1  0  0  0  0
M  END
>  <cdx:fragmentId>
5

$$$$
