50234.cdx
  Mrv1902 05222410282D          

 21 22  0  0  0  0            999 V2000
    6.8043   -9.5689    0.0000 C   0  0  2  0  0  0  0  0  0  0  0  0
    6.8043  -10.3939    0.0000 C   0  0  2  0  0  0  0  0  0  0  0  0
    7.5188  -10.8064    0.0000 C   0  0  1  0  0  0  0  0  0  0  0  0
    8.2332  -10.3939    0.0000 C   0  0  2  0  0  0  0  0  0  0  0  0
    8.2332   -9.5689    0.0000 C   0  0  1  0  0  0  0  0  0  0  0  0
    7.5188   -9.1564    0.0000 O   0  0  0  0  0  0  0  0  0  0  0  0
    6.0898   -9.1564    0.0000 C   0  0  0  0  0  0  0  0  0  0  0  0
    8.9477   -9.1564    0.0000 O   0  0  0  0  0  0  0  0  0  0  0  0
    7.5188  -11.6314    0.0000 O   0  0  0  0  0  0  0  0  0  0  0  0
    6.0898  -10.8064    0.0000 O   0  0  0  0  0  0  0  0  0  0  0  0
    8.9477  -10.8064    0.0000 O   0  0  0  0  0  0  0  0  0  0  0  0
    6.0898   -8.3314    0.0000 O   0  0  0  0  0  0  0  0  0  0  0  0
    8.9477   -8.3314    0.0000 C   0  0  0  0  0  0  0  0  0  0  0  0
    9.6622   -7.9189    0.0000 C   0  0  0  0  0  0  0  0  0  0  0  0
    9.6622   -7.0939    0.0000 C   0  0  0  0  0  0  0  0  0  0  0  0
    8.9477   -6.6814    0.0000 C   0  0  0  0  0  0  0  0  0  0  0  0
    8.2332   -7.0939    0.0000 C   0  0  0  0  0  0  0  0  0  0  0  0
    8.2332   -7.9189    0.0000 C   0  0  0  0  0  0  0  0  0  0  0  0
    7.5188   -8.3314    0.0000 O   0  0  0  0  0  0  0  0  0  0  0  0
   10.3767   -6.6814    0.0000 O   0  0  0  0  0  0  0  0  0  0  0  0
   10.3767   -5.8564    0.0000 C   0  0  0  0  0  0  0  0  0  0  0  0
  1  2  1  0  0  0  0
  2  3  1  0  0  0  0
  3  4  1  0  0  0  0
  4  5  1  0  0  0  0
  5  6  1  0  0  0  0
  6  1  1  0  0  0  0
  1  7  1  1  0  0  0
  5  8  1  1  0  0  0
  3  9  1  1  0  0  0
  2 10  1  6  0  0  0
  4 11  1  6  0  0  0
  7 12  1  0  0  0  0
  8 13  1  0  0  0  0
 13 14  2  0  0  0  0
 14 15  1  0  0  0  0
 15 16  2  0  0  0  0
 16 17  1  0  0  0  0
 17 18  2  0  0  0  0
 18 13  1  0  0  0  0
 18 19  1  0  0  0  0
 15 20  1  0  0  0  0
 20 21  1  0  0  0  0
M  END
>  <cdx:fragmentId>
5

$$$$
