50231.cdx
  Mrv1902 05222410262D          

 23 25  0  0  0  0            999 V2000
    4.4943   -8.3451    0.0000 C   0  0  2  0  0  0  0  0  0  0  0  0
    4.4943   -9.1701    0.0000 C   0  0  0  0  0  0  0  0  0  0  0  0
    5.2088   -9.5826    0.0000 O   0  0  0  0  0  0  0  0  0  0  0  0
    5.9232   -9.1701    0.0000 C   0  0  0  0  0  0  0  0  0  0  0  0
    5.9232   -8.3451    0.0000 C   0  0  0  0  0  0  0  0  0  0  0  0
    5.2088   -7.9326    0.0000 C   0  0  0  0  0  0  0  0  0  0  0  0
    6.6377   -9.5826    0.0000 C   0  0  0  0  0  0  0  0  0  0  0  0
    7.3522   -9.1701    0.0000 C   0  0  0  0  0  0  0  0  0  0  0  0
    7.3522   -8.3451    0.0000 C   0  0  0  0  0  0  0  0  0  0  0  0
    6.6377   -7.9326    0.0000 C   0  0  0  0  0  0  0  0  0  0  0  0
    8.0667   -9.5826    0.0000 O   0  0  0  0  0  0  0  0  0  0  0  0
    8.7811   -9.1701    0.0000 C   0  0  0  0  0  0  0  0  0  0  0  0
    8.7811   -8.3451    0.0000 C   0  0  0  0  0  0  0  0  0  0  0  0
    8.0667   -7.9326    0.0000 C   0  0  0  0  0  0  0  0  0  0  0  0
    6.6377   -7.1076    0.0000 O   0  0  0  0  0  0  0  0  0  0  0  0
    8.0667   -7.1076    0.0000 O   0  0  0  0  0  0  0  0  0  0  0  0
    9.4956   -9.5826    0.0000 C   0  0  0  0  0  0  0  0  0  0  0  0
    3.6974   -9.3837    0.0000 C   0  0  0  0  0  0  0  0  0  0  0  0
    4.2808   -9.9670    0.0000 C   0  0  0  0  0  0  0  0  0  0  0  0
    3.7798   -7.9326    0.0000 O   0  0  0  0  0  0  0  0  0  0  0  0
    3.7798   -7.1076    0.0000 C   0  0  0  0  0  0  0  0  0  0  0  0
    3.0654   -6.6951    0.0000 C   0  0  0  0  0  0  0  0  0  0  0  0
    4.4943   -6.6951    0.0000 O   0  0  0  0  0  0  0  0  0  0  0  0
  1  2  1  0  0  0  0
  2  3  1  0  0  0  0
  3  4  1  0  0  0  0
  4  5  2  0  0  0  0
  5  6  1  0  0  0  0
  6  1  1  0  0  0  0
  4  7  1  0  0  0  0
  7  8  2  0  0  0  0
  8  9  1  0  0  0  0
  9 10  2  0  0  0  0
 10  5  1  0  0  0  0
  8 11  1  0  0  0  0
 11 12  1  0  0  0  0
 12 13  2  0  0  0  0
 13 14  1  0  0  0  0
 14  9  1  0  0  0  0
 10 15  1  0  0  0  0
 14 16  2  0  0  0  0
 12 17  1  0  0  0  0
  2 18  1  0  0  0  0
  2 19  1  0  0  0  0
  1 20  1  1  0  0  0
 20 21  1  0  0  0  0
 21 22  1  0  0  0  0
 21 23  2  0  0  0  0
M  END
>  <cdx:fragmentId>
5

$$$$
