502357.cdx
  Mrv1902 05222410252D          

 31 34  0  0  0  0            999 V2000
    5.4787   -7.7565    0.0000 O   0  0  0  0  0  0  0  0  0  0  0  0
    4.0629   -5.2739    0.0000 O   0  0  0  0  0  0  0  0  0  0  0  0
   10.4996   -4.0707    0.0000 O   0  0  0  0  0  0  0  0  0  0  0  0
    8.3541   -4.4718    0.0000 C   0  0  0  0  0  0  0  0  0  0  0  0
    9.0707   -4.0631    0.0000 C   0  0  0  0  0  0  0  0  0  0  0  0
    9.7830   -4.4794    0.0000 C   0  0  0  0  0  0  0  0  0  0  0  0
    9.7786   -5.3044    0.0000 C   0  0  0  0  0  0  0  0  0  0  0  0
    9.0619   -5.7131    0.0000 C   0  0  0  0  0  0  0  0  0  0  0  0
    8.3497   -5.2968    0.0000 C   0  0  0  0  0  0  0  0  0  0  0  0
    9.7654   -7.7793    0.0000 O   0  0  0  0  0  0  0  0  0  0  0  0
    9.7566   -9.4293    0.0000 O   0  0  0  0  0  0  0  0  0  0  0  0
    8.3233  -10.2467    0.0000 O   0  0  0  0  0  0  0  0  0  0  0  0
    6.8988   -9.4141    0.0000 C   0  0  0  0  0  0  0  0  0  0  0  0
    7.6155   -9.0054    0.0000 C   0  0  1  0  0  0  0  0  0  0  0  0
    8.3277   -9.4217    0.0000 C   0  0  1  0  0  0  0  0  0  0  0  0
    9.0444   -9.0130    0.0000 C   0  0  2  0  0  0  0  0  0  0  0  0
    9.0488   -8.1880    0.0000 C   0  0  2  0  0  0  0  0  0  0  0  0
    8.3365   -7.7717    0.0000 C   0  0  1  0  0  0  0  0  0  0  0  0
    7.6198   -8.1804    0.0000 O   0  0  0  0  0  0  0  0  0  0  0  0
    8.3409   -6.9467    0.0000 O   0  0  0  0  0  0  0  0  0  0  0  0
    6.9076   -7.7641    0.0000 O   0  0  0  0  0  0  0  0  0  0  0  0
    6.9208   -5.2892    0.0000 O   0  0  0  0  0  0  0  0  0  0  0  0
    6.2041   -5.6979    0.0000 C   0  0  0  0  0  0  0  0  0  0  0  0
    5.4918   -5.2816    0.0000 C   0  0  0  0  0  0  0  0  0  0  0  0
    4.7752   -5.6902    0.0000 C   0  0  0  0  0  0  0  0  0  0  0  0
    4.7708   -6.5152    0.0000 C   0  0  0  0  0  0  0  0  0  0  0  0
    5.4831   -6.9315    0.0000 C   0  0  0  0  0  0  0  0  0  0  0  0
    6.1997   -6.5228    0.0000 C   0  0  0  0  0  0  0  0  0  0  0  0
    6.9120   -6.9391    0.0000 C   0  0  0  0  0  0  0  0  0  0  0  0
    7.6286   -6.5304    0.0000 C   0  0  1  0  0  0  0  0  0  0  0  0
    7.6330   -5.7055    0.0000 C   0  0  2  0  0  0  0  0  0  0  0  0
 27  1  1  0  0  0  0
 25  2  1  0  0  0  0
 31  9  1  1  0  0  0
  6  3  1  0  0  0  0
  9  4  2  0  0  0  0
  5  4  1  0  0  0  0
  6  5  2  0  0  0  0
  7  6  1  0  0  0  0
  8  7  2  0  0  0  0
  9  8  1  0  0  0  0
 30 20  1  1  0  0  0
 18 20  1  1  0  0  0
 17 10  1  6  0  0  0
 16 11  1  6  0  0  0
 15 12  1  1  0  0  0
 14 13  1  6  0  0  0
 19 14  1  0  0  0  0
 15 14  1  0  0  0  0
 16 15  1  0  0  0  0
 17 16  1  0  0  0  0
 18 17  1  0  0  0  0
 19 18  1  0  0  0  0
 29 21  2  0  0  0  0
 31 22  1  0  0  0  0
 23 22  1  0  0  0  0
 28 23  2  0  0  0  0
 24 23  1  0  0  0  0
 25 24  2  0  0  0  0
 26 25  1  0  0  0  0
 27 26  2  0  0  0  0
 28 27  1  0  0  0  0
 29 28  1  0  0  0  0
 30 29  1  0  0  0  0
 31 30  1  0  0  0  0
M  END
>  <cdx:fragmentId>
247292

$$$$
