50232.cdx
  Mrv1902 05222410262D          

 22 23  0  0  0  0            999 V2000
    5.0558   -7.7571    0.0000 C   0  0  0  0  0  0  0  0  0  0  0  0
    5.0683   -8.5820    0.0000 C   0  0  0  0  0  0  0  0  0  0  0  0
    5.7889   -8.9837    0.0000 C   0  0  0  0  0  0  0  0  0  0  0  0
    6.4970   -8.5605    0.0000 C   0  0  1  0  0  0  0  0  0  0  0  0
    6.4846   -7.7356    0.0000 C   0  0  2  0  0  0  0  0  0  0  0  0
    5.7640   -7.3339    0.0000 C   0  0  0  0  0  0  0  0  0  0  0  0
    7.2176   -8.9622    0.0000 C   0  0  0  0  0  0  0  0  0  0  0  0
    7.9258   -8.5389    0.0000 C   0  0  0  0  0  0  0  0  0  0  0  0
    7.9134   -7.7140    0.0000 C   0  0  2  0  0  0  0  0  0  0  0  0
    7.1928   -7.3124    0.0000 C   0  0  2  0  0  0  0  0  0  0  0  0
    5.7516   -6.5090    0.0000 C   0  0  0  0  0  0  0  0  0  0  0  0
    7.1804   -6.4874    0.0000 O   0  0  0  0  0  0  0  0  0  0  0  0
    8.6216   -7.2908    0.0000 C   0  0  0  0  0  0  0  0  0  0  0  0
    8.1983   -6.5826    0.0000 C   0  0  0  0  0  0  0  0  0  0  0  0
    9.0448   -7.9990    0.0000 C   0  0  0  0  0  0  0  0  0  0  0  0
    9.3297   -6.8676    0.0000 O   0  0  0  0  0  0  0  0  0  0  0  0
    6.5095   -9.3854    0.0000 C   0  0  0  0  0  0  0  0  0  0  0  0
    6.4722   -6.9107    0.0000 H   0  0  0  0  0  0  0  0  0  0  0  0
    7.9010   -6.8891    0.0000 H   0  0  0  0  0  0  0  0  0  0  0  0
    7.8885   -6.0642    0.0000 C   0  0  0  0  0  0  0  0  0  0  0  0
    7.8761   -5.2393    0.0000 O   0  0  0  0  0  0  0  0  0  0  0  0
    8.6091   -6.4659    0.0000 C   0  0  0  0  0  0  0  0  0  0  0  0
  1  2  1  0  0  0  0
  2  3  1  0  0  0  0
  3  4  1  0  0  0  0
  4  5  1  0  0  0  0
  5  6  1  0  0  0  0
  6  1  1  0  0  0  0
  4  7  1  0  0  0  0
  7  8  1  0  0  0  0
  8  9  1  0  0  0  0
  9 10  1  0  0  0  0
 10  5  1  0  0  0  0
  6 11  2  0  0  0  0
 10 12  1  1  0  0  0
  9 13  1  0  0  0  0
 13 14  1  0  0  0  0
 13 15  1  0  0  0  0
 13 16  1  0  0  0  0
  4 17  1  6  0  0  0
  5 18  1  1  0  0  0
  9 19  1  1  0  0  0
 12 20  1  0  0  0  0
 20 21  2  0  0  0  0
 20 22  1  0  0  0  0
M  END
>  <cdx:fragmentId>
5

$$$$
