50247.cdx
  Mrv1902 05222410242D          

 13 13  0  0  0  0            999 V2000
    6.0756  -10.4901    0.0000 C   0  0  0  0  0  0  0  0  0  0  0  0
    6.0756  -11.3151    0.0000 C   0  0  0  0  0  0  0  0  0  0  0  0
    6.7900  -11.7276    0.0000 C   0  0  0  0  0  0  0  0  0  0  0  0
    7.5045  -11.3151    0.0000 C   0  0  0  0  0  0  0  0  0  0  0  0
    7.5045  -10.4901    0.0000 C   0  0  0  0  0  0  0  0  0  0  0  0
    6.7900  -10.0776    0.0000 C   0  0  0  0  0  0  0  0  0  0  0  0
    6.7900   -9.2526    0.0000 C   0  0  0  0  0  0  0  0  0  0  0  0
    7.5045   -8.8401    0.0000 O   0  0  0  0  0  0  0  0  0  0  0  0
    6.0756   -8.8401    0.0000 C   0  0  0  0  0  0  0  0  0  0  0  0
    7.5045   -8.0151    0.0000 C   0  0  0  0  0  0  0  0  0  0  0  0
    6.7900   -7.6026    0.0000 O   0  0  0  0  0  0  0  0  0  0  0  0
    8.2190   -7.6026    0.0000 C   0  0  0  0  0  0  0  0  0  0  0  0
    8.2190   -6.7776    0.0000 C   0  0  0  0  0  0  0  0  0  0  0  0
  1  2  2  0  0  0  0
  2  3  1  0  0  0  0
  3  4  2  0  0  0  0
  4  5  1  0  0  0  0
  5  6  2  0  0  0  0
  6  1  1  0  0  0  0
  6  7  1  0  0  0  0
  7  8  1  0  0  0  0
  7  9  1  0  0  0  0
  8 10  1  0  0  0  0
 10 11  2  0  0  0  0
 10 12  1  0  0  0  0
 12 13  1  0  0  0  0
M  END
>  <cdx:fragmentId>
5

$$$$
