50244.cdx
  Mrv1902 05222410242D          

 11 11  0  0  0  0            999 V2000
    7.0518   -7.5889    0.0000 C   0  0  0  0  0  0  0  0  0  0  0  0
    7.0518   -8.4139    0.0000 C   0  0  0  0  0  0  0  0  0  0  0  0
    7.7663   -8.8264    0.0000 C   0  0  0  0  0  0  0  0  0  0  0  0
    8.4807   -8.4139    0.0000 C   0  0  0  0  0  0  0  0  0  0  0  0
    8.4807   -7.5889    0.0000 C   0  0  0  0  0  0  0  0  0  0  0  0
    7.7663   -7.1764    0.0000 C   0  0  0  0  0  0  0  0  0  0  0  0
    6.3373   -7.1764    0.0000 C   0  0  0  0  0  0  0  0  0  0  0  0
    6.3373   -6.3514    0.0000 C   0  0  0  0  0  0  0  0  0  0  0  0
    5.6229   -7.5889    0.0000 C   0  0  0  0  0  0  0  0  0  0  0  0
    5.6229   -8.4139    0.0000 C   0  0  0  0  0  0  0  0  0  0  0  0
    4.9084   -7.1764    0.0000 O   0  0  0  0  0  0  0  0  0  0  0  0
  1  2  2  0  0  0  0
  2  3  1  0  0  0  0
  3  4  2  0  0  0  0
  4  5  1  0  0  0  0
  5  6  2  0  0  0  0
  6  1  1  0  0  0  0
  1  7  1  0  0  0  0
  7  8  1  0  0  0  0
  7  9  1  0  0  0  0
  9 10  1  0  0  0  0
  9 11  1  0  0  0  0
M  END
>  <cdx:fragmentId>
5

$$$$
