50240.cdx
  Mrv1902 05222410242D          

 42 47  0  0  0  0            999 V2000
    3.4493   -9.5551    0.0000 C   0  0  0  0  0  0  0  0  0  0  0  0
    3.4493  -10.3801    0.0000 C   0  0  0  0  0  0  0  0  0  0  0  0
    4.1638  -10.7926    0.0000 C   0  0  0  0  0  0  0  0  0  0  0  0
    4.8782  -10.3801    0.0000 C   0  0  1  0  0  0  0  0  0  0  0  0
    4.8782   -9.5551    0.0000 C   0  0  2  0  0  0  0  0  0  0  0  0
    4.1638   -9.1426    0.0000 C   0  0  0  0  0  0  0  0  0  0  0  0
    5.5927  -10.7926    0.0000 C   0  0  1  0  0  0  0  0  0  0  0  0
    6.3072  -10.3801    0.0000 C   0  0  0  0  0  0  0  0  0  0  0  0
    6.3072   -9.5551    0.0000 C   0  0  2  0  0  0  0  0  0  0  0  0
    5.5927   -9.1426    0.0000 C   0  0  2  0  0  0  0  0  0  0  0  0
    7.0217   -9.1426    0.0000 C   0  0  1  0  0  0  0  0  0  0  0  0
    7.0217   -8.3176    0.0000 C   0  0  1  0  0  0  0  0  0  0  0  0
    6.3072   -7.9051    0.0000 C   0  0  1  0  0  0  0  0  0  0  0  0
    5.5927   -8.3176    0.0000 C   0  0  0  0  0  0  0  0  0  0  0  0
    8.0758   -7.2873    0.0000 C   0  0  0  0  0  0  0  0  0  0  0  0
    4.1638   -8.3176    0.0000 O   0  0  0  0  0  0  0  0  0  0  0  0
    8.8850   -7.1266    0.0000 C   0  0  0  0  0  0  0  0  0  0  0  0
    7.5321   -6.6668    0.0000 C   0  0  0  0  0  0  0  0  0  0  0  0
    7.7976   -5.8857    0.0000 O   0  0  0  0  0  0  0  0  0  0  0  0
    8.6068   -5.7250    0.0000 C   0  0  0  0  0  0  0  0  0  0  0  0
    8.3413   -6.5061    0.0000 C   0  0  0  0  0  0  0  0  0  0  0  0
    9.4160   -5.5644    0.0000 C   0  0  0  0  0  0  0  0  0  0  0  0
    9.5645   -7.2192    0.0000 O   0  0  0  0  0  0  0  0  0  0  0  0
   10.1000   -6.7774    0.0000 C   0  0  0  0  0  0  0  0  0  0  0  0
   10.0411   -5.9879    0.0000 C   0  0  0  0  0  0  0  0  0  0  0  0
   10.8588   -7.1011    0.0000 C   0  0  0  0  0  0  0  0  0  0  0  0
    9.0514   -4.8243    0.0000 O   0  0  0  0  0  0  0  0  0  0  0  0
   10.0365   -5.0207    0.0000 C   0  0  0  0  0  0  0  0  0  0  0  0
    8.2422   -4.9850    0.0000 C   0  0  0  0  0  0  0  0  0  0  0  0
    6.3072   -7.0801    0.0000 O   0  0  0  0  0  0  0  0  0  0  0  0
    7.0217   -7.4926    0.0000 C   0  0  0  0  0  0  0  0  0  0  0  0
    4.8782   -8.7301    0.0000 C   0  0  0  0  0  0  0  0  0  0  0  0
    5.5927  -11.6176    0.0000 O   0  0  0  0  0  0  0  0  0  0  0  0
    4.8782  -11.2051    0.0000 O   0  0  0  0  0  0  0  0  0  0  0  0
   10.8176   -5.2862    0.0000 O   0  0  0  0  0  0  0  0  0  0  0  0
    9.8759   -4.2115    0.0000 O   0  0  0  0  0  0  0  0  0  0  0  0
    6.3072   -8.7301    0.0000 H   0  0  0  0  0  0  0  0  0  0  0  0
    5.5927   -9.9676    0.0000 H   0  0  0  0  0  0  0  0  0  0  0  0
    7.0217   -9.9676    0.0000 H   0  0  0  0  0  0  0  0  0  0  0  0
    7.8063   -9.3976    0.0000 C   0  0  0  0  0  0  0  0  0  0  0  0
    8.2912   -8.7301    0.0000 C   0  0  0  0  0  0  0  0  0  0  0  0
    7.8063   -8.0627    0.0000 C   0  0  0  0  0  0  0  0  0  0  0  0
  1  2  2  0  0  0  0
  2  3  1  0  0  0  0
  3  4  1  0  0  0  0
  4  5  1  0  0  0  0
  5  6  1  0  0  0  0
  6  1  1  0  0  0  0
  4  7  1  0  0  0  0
  7  8  1  0  0  0  0
  8  9  1  0  0  0  0
  9 10  1  0  0  0  0
 10  5  1  0  0  0  0
  9 11  1  0  0  0  0
 11 12  1  0  0  0  0
 12 13  1  0  0  0  0
 13 14  1  0  0  0  0
 14 10  1  0  0  0  0
  6 16  2  0  0  0  0
 15 17  1  0  0  0  0
 15 18  1  0  0  0  0
 18 19  1  0  0  0  0
 19 20  1  0  0  0  0
 20 21  1  0  0  0  0
 21 17  1  0  0  0  0
 20 22  1  0  0  0  0
 17 23  1  0  0  0  0
 23 24  1  0  0  0  0
 22 25  1  0  0  0  0
 24 25  1  0  0  0  0
 24 26  1  0  0  0  0
 22 27  1  0  0  0  0
 22 28  1  0  0  0  0
 20 29  1  0  0  0  0
 13 30  1  1  0  0  0
 12 31  1  1  0  0  0
  5 32  1  1  0  0  0
  7 33  1  1  0  0  0
  4 34  1  6  0  0  0
 28 35  1  0  0  0  0
 28 36  2  0  0  0  0
  9 37  1  1  0  0  0
 10 38  1  6  0  0  0
 11 39  1  6  0  0  0
 11 40  1  0  0  0  0
 40 41  1  0  0  0  0
 41 42  1  0  0  0  0
 42 12  1  0  0  0  0
 15 42  1  0  0  0  0
M  END
>  <cdx:fragmentId>
5

$$$$
