50249.cdx
  Mrv1902 05222410222D          

 18 20  0  0  0  0            999 V2000
    8.6805   -8.3241    0.0000 C   0  0  0  0  0  0  0  0  0  0  0  0
    9.1654   -7.6566    0.0000 C   0  0  0  0  0  0  0  0  0  0  0  0
    8.6805   -6.9892    0.0000 C   0  0  2  0  0  0  0  0  0  0  0  0
    7.8959   -7.2441    0.0000 C   0  0  1  0  0  0  0  0  0  0  0  0
    7.2509   -6.7298    0.0000 C   0  0  1  0  0  0  0  0  0  0  0  0
    6.4466   -6.9133    0.0000 C   0  0  1  0  0  0  0  0  0  0  0  0
    6.0886   -7.6566    0.0000 C   0  0  0  0  0  0  0  0  0  0  0  0
    6.4466   -8.3999    0.0000 C   0  0  0  0  0  0  0  0  0  0  0  0
    7.2509   -8.5835    0.0000 C   0  0  0  0  0  0  0  0  0  0  0  0
    7.8959   -8.0691    0.0000 C   0  0  0  0  0  0  0  0  0  0  0  0
    6.6897   -6.1250    0.0000 C   0  0  0  0  0  0  0  0  0  0  0  0
    8.9354   -6.2046    0.0000 C   0  0  0  0  0  0  0  0  0  0  0  0
    7.4344   -9.3878    0.0000 C   0  0  0  0  0  0  0  0  0  0  0  0
    6.1286   -5.5202    0.0000 C   0  0  0  0  0  0  0  0  0  0  0  0
    6.9329   -5.3367    0.0000 C   0  0  0  0  0  0  0  0  0  0  0  0
    5.6786   -6.6119    0.0000 H   0  0  0  0  0  0  0  0  0  0  0  0
    8.0391   -6.4317    0.0000 H   0  0  0  0  0  0  0  0  0  0  0  0
    7.6985   -6.0367    0.0000 H   0  0  0  0  0  0  0  0  0  0  0  0
  1  2  1  0  0  0  0
  2  3  1  0  0  0  0
  3  4  1  0  0  0  0
  4  5  1  0  0  0  0
  5  6  1  0  0  0  0
  6  7  1  0  0  0  0
  7  8  1  0  0  0  0
  8  9  1  0  0  0  0
  9 10  2  0  0  0  0
  1 10  1  0  0  0  0
  4 10  1  0  0  0  0
 11  5  1  0  0  0  0
 11  6  1  0  0  0  0
  3 12  1  6  0  0  0
  9 13  1  0  0  0  0
 11 14  1  0  0  0  0
 11 15  1  0  0  0  0
  6 16  1  6  0  0  0
  4 17  1  1  0  0  0
  5 18  1  6  0  0  0
M  END
>  <cdx:fragmentId>
62925

$$$$
