50243.cdx
  Mrv1902 05222410252D          

 10 10  0  0  0  0            999 V2000
    7.7938   -9.1569    0.0000 C   0  0  0  0  0  0  0  0  0  0  0  0
    7.3813   -9.8714    0.0000 C   0  0  0  0  0  0  0  0  0  0  0  0
    7.7938  -10.5859    0.0000 C   0  0  0  0  0  0  0  0  0  0  0  0
    8.6188  -10.5859    0.0000 C   0  0  0  0  0  0  0  0  0  0  0  0
    9.0313   -9.8714    0.0000 C   0  0  0  0  0  0  0  0  0  0  0  0
    8.6188   -9.1569    0.0000 C   0  0  0  0  0  0  0  0  0  0  0  0
    6.5563   -9.8714    0.0000 C   0  0  0  0  0  0  0  0  0  0  0  0
    6.1438  -10.5859    0.0000 C   0  0  0  0  0  0  0  0  0  0  0  0
    6.5563  -11.3003    0.0000 C   0  0  0  0  0  0  0  0  0  0  0  0
    5.3188  -10.5859    0.0000 N   0  0  0  0  0  0  0  0  0  0  0  0
  1  2  2  0  0  0  0
  2  3  1  0  0  0  0
  3  4  2  0  0  0  0
  4  5  1  0  0  0  0
  5  6  2  0  0  0  0
  6  1  1  0  0  0  0
  2  7  1  0  0  0  0
  7  8  1  0  0  0  0
  8  9  1  0  0  0  0
  8 10  1  0  0  0  0
M  END
>  <cdx:fragmentId>
5

$$$$
