50246.cdx
  Mrv1902 05222410232D          

 12 12  0  0  0  0            999 V2000
    6.0068   -9.0739    0.0000 C   0  0  0  0  0  0  0  0  0  0  0  0
    6.0068   -9.8989    0.0000 C   0  0  0  0  0  0  0  0  0  0  0  0
    6.7213  -10.3114    0.0000 C   0  0  0  0  0  0  0  0  0  0  0  0
    7.4357   -9.8989    0.0000 C   0  0  0  0  0  0  0  0  0  0  0  0
    7.4357   -9.0739    0.0000 C   0  0  0  0  0  0  0  0  0  0  0  0
    6.7213   -8.6614    0.0000 C   0  0  0  0  0  0  0  0  0  0  0  0
    6.7213  -11.1364    0.0000 O   0  0  0  0  0  0  0  0  0  0  0  0
    6.7213   -7.8364    0.0000 C   0  0  2  0  0  0  0  0  0  0  0  0
    7.4357   -7.4239    0.0000 C   0  0  1  0  0  0  0  0  0  0  0  0
    6.0068   -7.4239    0.0000 O   0  0  0  0  0  0  0  0  0  0  0  0
    7.4357   -6.5989    0.0000 N   0  0  0  0  0  0  0  0  0  0  0  0
    8.1502   -7.8364    0.0000 C   0  0  0  0  0  0  0  0  0  0  0  0
  1  2  2  0  0  0  0
  2  3  1  0  0  0  0
  3  4  2  0  0  0  0
  4  5  1  0  0  0  0
  5  6  2  0  0  0  0
  6  1  1  0  0  0  0
  3  7  1  0  0  0  0
  6  8  1  0  0  0  0
  8  9  1  0  0  0  0
  8 10  1  1  0  0  0
  9 11  1  1  0  0  0
  9 12  1  0  0  0  0
M  END
>  <cdx:fragmentId>
5

$$$$
