50248.cdx
  Mrv1902 05222410222D          

 36 41  0  0  0  0            999 V2000
    3.3668  -10.8201    0.0000 C   0  0  0  0  0  0  0  0  0  0  0  0
    3.3668  -11.6451    0.0000 C   0  0  1  0  0  0  0  0  0  0  0  0
    4.0813  -12.0576    0.0000 C   0  0  0  0  0  0  0  0  0  0  0  0
    4.7957  -11.6451    0.0000 C   0  0  1  0  0  0  0  0  0  0  0  0
    4.7957  -10.8201    0.0000 C   0  0  2  0  0  0  0  0  0  0  0  0
    4.0813  -10.4076    0.0000 C   0  0  0  0  0  0  0  0  0  0  0  0
    5.5102  -12.0576    0.0000 C   0  0  2  0  0  0  0  0  0  0  0  0
    6.2247  -11.6451    0.0000 C   0  0  0  0  0  0  0  0  0  0  0  0
    6.2247  -10.8201    0.0000 C   0  0  0  0  0  0  0  0  0  0  0  0
    5.5102  -10.4076    0.0000 C   0  0  0  0  0  0  0  0  0  0  0  0
    2.6523  -12.0576    0.0000 O   0  0  0  0  0  0  0  0  0  0  0  0
    4.7957   -9.9951    0.0000 C   0  0  0  0  0  0  0  0  0  0  0  0
    4.7957  -12.4701    0.0000 H   0  0  0  0  0  0  0  0  0  0  0  0
    5.5102  -12.8826    0.0000 O   0  0  0  0  0  0  0  0  0  0  0  0
    6.8378  -10.2681    0.0000 C   0  0  0  0  0  0  0  0  0  0  0  0
    6.5022   -9.5144    0.0000 C   0  0  1  0  0  0  0  0  0  0  0  0
    5.6817   -9.6007    0.0000 C   0  0  0  0  0  0  0  0  0  0  0  0
    7.6583  -10.3544    0.0000 C   0  0  0  0  0  0  0  0  0  0  0  0
    8.1432   -9.6869    0.0000 C   0  0  1  0  0  0  0  0  0  0  0  0
    7.8076   -8.9332    0.0000 C   0  0  1  0  0  0  0  0  0  0  0  0
    6.9871   -8.8470    0.0000 C   0  0  0  0  0  0  0  0  0  0  0  0
    8.2926   -8.2658    0.0000 C   0  0  1  0  0  0  0  0  0  0  0  0
    7.9570   -7.5121    0.0000 C   0  0  1  0  0  0  0  0  0  0  0  0
    7.1365   -7.4259    0.0000 N   0  0  0  0  0  0  0  0  0  0  0  0
    6.6516   -8.0933    0.0000 C   0  0  0  0  0  0  0  0  0  0  0  0
    8.4419   -6.8447    0.0000 C   0  0  0  0  0  0  0  0  0  0  0  0
    8.1064   -6.0910    0.0000 C   0  0  0  0  0  0  0  0  0  0  0  0
    7.2859   -6.0048    0.0000 C   0  0  1  0  0  0  0  0  0  0  0  0
    6.8010   -6.6722    0.0000 C   0  0  0  0  0  0  0  0  0  0  0  0
    6.0897   -8.8000    0.0000 H   0  0  0  0  0  0  0  0  0  0  0  0
    8.9637   -9.7731    0.0000 O   0  0  0  0  0  0  0  0  0  0  0  0
    9.0070   -7.8533    0.0000 O   0  0  0  0  0  0  0  0  0  0  0  0
    9.0070   -8.6783    0.0000 C   0  0  0  0  0  0  0  0  0  0  0  0
    7.5445   -6.7977    0.0000 H   0  0  0  0  0  0  0  0  0  0  0  0
    6.9503   -5.2511    0.0000 C   0  0  0  0  0  0  0  0  0  0  0  0
    7.4721   -8.1796    0.0000 H   0  0  0  0  0  0  0  0  0  0  0  0
  1  2  1  0  0  0  0
  2  3  1  0  0  0  0
  3  4  1  0  0  0  0
  4  5  1  0  0  0  0
  5  6  1  0  0  0  0
  6  1  1  0  0  0  0
  4  7  1  0  0  0  0
  7  8  1  0  0  0  0
  8  9  1  0  0  0  0
  9 10  1  0  0  0  0
 10  5  1  0  0  0  0
  2 11  1  1  0  0  0
  5 12  1  1  0  0  0
  4 13  1  6  0  0  0
  7 14  1  6  0  0  0
  9 15  2  0  0  0  0
 15 16  1  0  0  0  0
 16 17  1  0  0  0  0
 17 10  1  0  0  0  0
 15 18  1  0  0  0  0
 18 19  1  0  0  0  0
 19 20  1  0  0  0  0
 20 21  1  0  0  0  0
 21 16  1  0  0  0  0
 20 22  1  0  0  0  0
 22 23  1  0  0  0  0
 23 24  1  0  0  0  0
 24 25  1  0  0  0  0
 25 21  1  0  0  0  0
 23 26  1  0  0  0  0
 26 27  1  0  0  0  0
 27 28  1  0  0  0  0
 28 29  1  0  0  0  0
 29 24  1  0  0  0  0
 16 30  1  6  0  0  0
 19 31  1  1  0  0  0
 22 32  1  1  0  0  0
 22 33  1  6  0  0  0
 23 34  1  6  0  0  0
 28 35  1  1  0  0  0
 20 36  1  6  0  0  0
M  END
>  <cdx:fragmentId>
5

$$$$
