50242.cdx
  Mrv1902 05222410262D          

 13 13  0  0  0  0            999 V2000
    6.3368   -8.8951    0.0000 C   0  0  0  0  0  0  0  0  0  0  0  0
    6.3368   -9.7201    0.0000 C   0  0  0  0  0  0  0  0  0  0  0  0
    7.0513  -10.1326    0.0000 C   0  0  0  0  0  0  0  0  0  0  0  0
    7.7657   -9.7201    0.0000 C   0  0  0  0  0  0  0  0  0  0  0  0
    7.7657   -8.8951    0.0000 C   0  0  0  0  0  0  0  0  0  0  0  0
    7.0513   -8.4826    0.0000 C   0  0  0  0  0  0  0  0  0  0  0  0
    5.6223   -8.4826    0.0000 C   0  0  0  0  0  0  0  0  0  0  0  0
    7.0513   -7.6576    0.0000 C   0  0  0  0  0  0  0  0  0  0  0  0
    7.7657   -7.2451    0.0000 C   0  0  0  0  0  0  0  0  0  0  0  0
    6.3368   -7.2451    0.0000 C   0  0  0  0  0  0  0  0  0  0  0  0
    7.0513  -10.9576    0.0000 C   0  0  0  0  0  0  0  0  0  0  0  0
    6.3368  -11.3701    0.0000 C   0  0  0  0  0  0  0  0  0  0  0  0
    7.7657  -11.3701    0.0000 C   0  0  0  0  0  0  0  0  0  0  0  0
  1  2  2  0  0  0  0
  2  3  1  0  0  0  0
  3  4  2  0  0  0  0
  4  5  1  0  0  0  0
  5  6  2  0  0  0  0
  6  1  1  0  0  0  0
  1  7  1  0  0  0  0
  6  8  1  0  0  0  0
  8  9  1  0  0  0  0
  8 10  1  0  0  0  0
  3 11  1  0  0  0  0
 11 12  1  0  0  0  0
 11 13  1  0  0  0  0
M  END
>  <cdx:fragmentId>
5

$$$$
