50254.cdx
  Mrv1902 05222410242D          

 23 25  0  0  0  0            999 V2000
    4.3018   -9.4039    0.0000 C   0  0  0  0  0  0  0  0  0  0  0  0
    4.3018  -10.2289    0.0000 C   0  0  0  0  0  0  0  0  0  0  0  0
    5.0163  -10.6414    0.0000 C   0  0  0  0  0  0  0  0  0  0  0  0
    5.7307  -10.2289    0.0000 C   0  0  0  0  0  0  0  0  0  0  0  0
    5.7307   -9.4039    0.0000 C   0  0  0  0  0  0  0  0  0  0  0  0
    5.0163   -8.9914    0.0000 C   0  0  0  0  0  0  0  0  0  0  0  0
    6.5154  -10.4838    0.0000 N   0  0  0  0  0  0  0  0  0  0  0  0
    7.0003   -9.8164    0.0000 C   0  0  0  0  0  0  0  0  0  0  0  0
    6.5154   -9.1490    0.0000 C   0  0  0  0  0  0  0  0  0  0  0  0
    6.7703   -8.3643    0.0000 C   0  0  0  0  0  0  0  0  0  0  0  0
    7.5672   -8.1508    0.0000 C   0  0  1  0  0  0  0  0  0  0  0  0
    7.7807   -7.3539    0.0000 N   0  0  0  0  0  0  0  0  0  0  0  0
    8.1506   -8.7342    0.0000 C   0  0  0  0  0  0  0  0  0  0  0  0
    7.9370   -9.5311    0.0000 O   0  0  0  0  0  0  0  0  0  0  0  0
    8.9474   -8.5207    0.0000 O   0  0  0  0  0  0  0  0  0  0  0  0
    8.5776   -7.1404    0.0000 C   0  0  0  0  0  0  0  0  0  0  0  0
    8.7911   -6.3435    0.0000 C   0  0  0  0  0  0  0  0  0  0  0  0
    9.1610   -7.7238    0.0000 O   0  0  0  0  0  0  0  0  0  0  0  0
    9.5880   -6.1300    0.0000 C   0  0  0  0  0  0  0  0  0  0  0  0
    9.8015   -5.3331    0.0000 C   0  0  0  0  0  0  0  0  0  0  0  0
    9.2182   -4.7497    0.0000 C   0  0  0  0  0  0  0  0  0  0  0  0
    8.4213   -4.9633    0.0000 C   0  0  0  0  0  0  0  0  0  0  0  0
    8.2078   -5.7601    0.0000 C   0  0  0  0  0  0  0  0  0  0  0  0
  1  2  2  0  0  0  0
  2  3  1  0  0  0  0
  3  4  2  0  0  0  0
  4  5  1  0  0  0  0
  5  6  2  0  0  0  0
  6  1  1  0  0  0  0
  4  7  1  0  0  0  0
  7  8  1  0  0  0  0
  8  9  2  0  0  0  0
  9  5  1  0  0  0  0
  9 10  1  0  0  0  0
 11 10  1  1  0  0  0
 11 12  1  0  0  0  0
 11 13  1  0  0  0  0
 13 14  2  0  0  0  0
 13 15  1  0  0  0  0
 12 16  1  0  0  0  0
 16 17  1  0  0  0  0
 16 18  2  0  0  0  0
 17 19  2  0  0  0  0
 19 20  1  0  0  0  0
 20 21  2  0  0  0  0
 21 22  1  0  0  0  0
 22 23  2  0  0  0  0
 23 17  1  0  0  0  0
M  END
>  <cdx:fragmentId>
5

$$$$
