50255.cdx
  Mrv1902 05222410252D          

 16 18  0  0  0  0            999 V2000
    6.1031   -5.5676    0.0000 C   0  0  0  0  0  0  0  0  0  0  0  0
    6.1031   -6.3926    0.0000 C   0  0  0  0  0  0  0  0  0  0  0  0
    6.8175   -6.8051    0.0000 C   0  0  0  0  0  0  0  0  0  0  0  0
    7.5320   -6.3926    0.0000 C   0  0  0  0  0  0  0  0  0  0  0  0
    7.5320   -5.5676    0.0000 C   0  0  0  0  0  0  0  0  0  0  0  0
    6.8175   -5.1551    0.0000 C   0  0  0  0  0  0  0  0  0  0  0  0
    8.2465   -6.8051    0.0000 C   0  0  0  0  0  0  0  0  0  0  0  0
    8.9609   -6.3926    0.0000 N   0  0  0  0  0  0  0  0  0  0  0  0
    8.9609   -5.5676    0.0000 C   0  0  0  0  0  0  0  0  0  0  0  0
    8.2465   -5.1551    0.0000 C   0  0  0  0  0  0  0  0  0  0  0  0
    8.4180   -7.6121    0.0000 C   0  0  0  0  0  0  0  0  0  0  0  0
    9.2385   -7.6984    0.0000 C   0  0  0  0  0  0  0  0  0  0  0  0
    9.5740   -6.9447    0.0000 C   0  0  0  0  0  0  0  0  0  0  0  0
    5.3886   -5.1551    0.0000 O   0  0  0  0  0  0  0  0  0  0  0  0
    5.3886   -6.8051    0.0000 O   0  0  0  0  0  0  0  0  0  0  0  0
   10.3810   -6.7732    0.0000 O   0  0  0  0  0  0  0  0  0  0  0  0
  1  2  2  0  0  0  0
  2  3  1  0  0  0  0
  3  4  2  0  0  0  0
  4  5  1  0  0  0  0
  5  6  2  0  0  0  0
  6  1  1  0  0  0  0
  4  7  1  0  0  0  0
  7  8  1  0  0  0  0
  8  9  1  0  0  0  0
  9 10  1  0  0  0  0
 10  5  1  0  0  0  0
  7 11  1  0  0  0  0
 11 12  1  0  0  0  0
 12 13  1  0  0  0  0
 13  8  1  0  0  0  0
  1 14  1  0  0  0  0
  2 15  1  0  0  0  0
 13 16  2  0  0  0  0
M  END
>  <cdx:fragmentId>
5

$$$$
