50250.cdx
  Mrv1902 05222410242D          

 22 23  0  0  0  0            999 V2000
    4.0268   -9.9814    0.0000 C   0  0  2  0  0  0  0  0  0  0  0  0
    4.0268  -10.8064    0.0000 C   0  0  2  0  0  0  0  0  0  0  0  0
    4.7413  -11.2189    0.0000 C   0  0  1  0  0  0  0  0  0  0  0  0
    5.4557  -10.8064    0.0000 C   0  0  2  0  0  0  0  0  0  0  0  0
    5.4557   -9.9814    0.0000 C   0  0  1  0  0  0  0  0  0  0  0  0
    4.7413   -9.5689    0.0000 O   0  0  0  0  0  0  0  0  0  0  0  0
    3.3123   -9.5689    0.0000 C   0  0  0  0  0  0  0  0  0  0  0  0
    6.1702   -9.5689    0.0000 O   0  0  0  0  0  0  0  0  0  0  0  0
    4.7413  -12.0439    0.0000 O   0  0  0  0  0  0  0  0  0  0  0  0
    3.3123  -11.2189    0.0000 O   0  0  0  0  0  0  0  0  0  0  0  0
    6.1702  -11.2189    0.0000 O   0  0  0  0  0  0  0  0  0  0  0  0
    3.3123   -8.7439    0.0000 O   0  0  0  0  0  0  0  0  0  0  0  0
    6.1702   -8.7439    0.0000 C   0  0  0  0  0  0  0  0  0  0  0  0
    6.8847   -8.3314    0.0000 C   0  0  0  0  0  0  0  0  0  0  0  0
    7.5992   -8.7439    0.0000 C   0  0  0  0  0  0  0  0  0  0  0  0
    8.3136   -8.3314    0.0000 C   0  0  0  0  0  0  0  0  0  0  0  0
    8.3136   -7.5064    0.0000 C   0  0  0  0  0  0  0  0  0  0  0  0
    7.5992   -7.0939    0.0000 C   0  0  0  0  0  0  0  0  0  0  0  0
    6.8847   -7.5064    0.0000 C   0  0  0  0  0  0  0  0  0  0  0  0
    9.0281   -7.0939    0.0000 O   0  0  0  0  0  0  0  0  0  0  0  0
    7.5992   -6.2689    0.0000 O   0  0  0  0  0  0  0  0  0  0  0  0
    6.8847   -5.8564    0.0000 C   0  0  0  0  0  0  0  0  0  0  0  0
  1  2  1  0  0  0  0
  2  3  1  0  0  0  0
  3  4  1  0  0  0  0
  4  5  1  0  0  0  0
  5  6  1  0  0  0  0
  6  1  1  0  0  0  0
  1  7  1  1  0  0  0
  5  8  1  1  0  0  0
  3  9  1  1  0  0  0
  2 10  1  6  0  0  0
  4 11  1  6  0  0  0
  7 12  1  0  0  0  0
  8 13  1  0  0  0  0
 13 14  1  0  0  0  0
 14 15  2  0  0  0  0
 15 16  1  0  0  0  0
 16 17  2  0  0  0  0
 17 18  1  0  0  0  0
 18 19  2  0  0  0  0
 19 14  1  0  0  0  0
 17 20  1  0  0  0  0
 18 21  1  0  0  0  0
 21 22  1  0  0  0  0
M  END
>  <cdx:fragmentId>
5

$$$$
