50258.cdx
  Mrv1902 05222410212D          

 15 16  0  0  0  0            999 V2000
    4.1643   -6.3239    0.0000 C   0  0  0  0  0  0  0  0  0  0  0  0
    4.1643   -7.1489    0.0000 C   0  0  0  0  0  0  0  0  0  0  0  0
    4.8788   -7.5614    0.0000 C   0  0  0  0  0  0  0  0  0  0  0  0
    5.5932   -7.1489    0.0000 C   0  0  0  0  0  0  0  0  0  0  0  0
    5.5932   -6.3239    0.0000 C   0  0  0  0  0  0  0  0  0  0  0  0
    4.8788   -5.9114    0.0000 C   0  0  0  0  0  0  0  0  0  0  0  0
    6.3077   -7.5614    0.0000 C   0  0  0  0  0  0  0  0  0  0  0  0
    6.3077   -8.3864    0.0000 N   0  0  0  0  0  0  0  0  0  0  0  0
    7.0222   -8.7989    0.0000 N   0  0  0  0  0  0  0  0  0  0  0  0
    7.7367   -8.3864    0.0000 C   0  0  0  0  0  0  0  0  0  0  0  0
    7.7367   -7.5614    0.0000 N   0  0  0  0  0  0  0  0  0  0  0  0
    7.0222   -7.1489    0.0000 C   0  0  0  0  0  0  0  0  0  0  0  0
    7.0222   -6.3239    0.0000 C   0  0  0  0  0  0  0  0  0  0  0  0
    5.5932   -8.7989    0.0000 C   0  0  0  0  0  0  0  0  0  0  0  0
    8.4511   -8.7989    0.0000 O   0  0  0  0  0  0  0  0  0  0  0  0
  1  2  2  0  0  0  0
  2  3  1  0  0  0  0
  3  4  2  0  0  0  0
  4  5  1  0  0  0  0
  5  6  2  0  0  0  0
  6  1  1  0  0  0  0
  4  7  1  0  0  0  0
  7  8  1  0  0  0  0
  8  9  1  0  0  0  0
  9 10  2  0  0  0  0
 10 11  1  0  0  0  0
 11 12  1  0  0  0  0
 12  7  2  0  0  0  0
 12 13  1  0  0  0  0
  8 14  1  0  0  0  0
 10 15  1  0  0  0  0
M  END
>  <cdx:fragmentId>
5

$$$$
