50257.cdx
  Mrv1902 05222410252D          

 24 26  0  0  0  0            999 V2000
    3.3931   -7.3865    0.0000 O   0  0  0  0  0  0  0  0  0  0  0  0
    6.2861   -5.7989    0.0000 C   0  0  0  0  0  0  0  0  0  0  0  0
    4.8217   -7.4175    0.0000 C   0  0  0  0  0  0  0  0  0  0  0  0
    5.5449   -7.0206    0.0000 C   0  0  0  0  0  0  0  0  0  0  0  0
    5.5628   -6.1958    0.0000 C   0  0  0  0  0  0  0  0  0  0  0  0
    6.9915   -6.2268    0.0000 C   0  0  2  0  0  0  0  0  0  0  0  0
    7.7147   -5.8299    0.0000 N   0  0  0  0  0  0  0  0  0  0  0  0
    4.8575   -5.7679    0.0000 C   0  0  0  0  0  0  0  0  0  0  0  0
    6.9735   -7.0517    0.0000 C   0  0  0  0  0  0  0  0  0  0  0  0
    7.6789   -7.4796    0.0000 N   0  0  0  0  0  0  0  0  0  0  0  0
    8.4022   -7.0827    0.0000 C   0  0  2  0  0  0  0  0  0  0  0  0
    8.4201   -6.2579    0.0000 C   0  0  0  0  0  0  0  0  0  0  0  0
   12.0005   -5.9230    0.0000 O   0  0  0  0  0  0  0  0  0  0  0  0
   10.5361   -7.5416    0.0000 C   0  0  0  0  0  0  0  0  0  0  0  0
   11.2594   -7.1447    0.0000 C   0  0  0  0  0  0  0  0  0  0  0  0
   11.2773   -6.3199    0.0000 C   0  0  0  0  0  0  0  0  0  0  0  0
   10.5719   -5.8920    0.0000 C   0  0  0  0  0  0  0  0  0  0  0  0
    9.1075   -7.5106    0.0000 C   0  0  0  0  0  0  0  0  0  0  0  0
    4.1342   -6.1648    0.0000 C   0  0  0  0  0  0  0  0  0  0  0  0
    4.1163   -6.9896    0.0000 C   0  0  0  0  0  0  0  0  0  0  0  0
    9.1433   -5.8610    0.0000 O   0  0  0  0  0  0  0  0  0  0  0  0
    6.2503   -7.4485    0.0000 O   0  0  0  0  0  0  0  0  0  0  0  0
    9.8308   -7.1137    0.0000 C   0  0  0  0  0  0  0  0  0  0  0  0
    9.8487   -6.2889    0.0000 C   0  0  0  0  0  0  0  0  0  0  0  0
 20  1  1  0  0  0  0
  5  2  1  0  0  0  0
  3 20  2  0  0  0  0
  4  3  1  0  0  0  0
  5  4  2  0  0  0  0
  8  5  1  0  0  0  0
 19  8  2  0  0  0  0
 20 19  1  0  0  0  0
  6  2  1  6  0  0  0
  6  7  1  0  0  0  0
  6  9  1  0  0  0  0
  9 10  1  0  0  0  0
 10 11  1  0  0  0  0
 11 12  1  0  0  0  0
 12  7  1  0  0  0  0
 16 13  1  0  0  0  0
 14 23  1  0  0  0  0
 15 14  2  0  0  0  0
 16 15  1  0  0  0  0
 11 18  1  6  0  0  0
 17 16  2  0  0  0  0
 24 17  1  0  0  0  0
 23 18  1  0  0  0  0
 24 23  2  0  0  0  0
 12 21  2  0  0  0  0
  9 22  2  0  0  0  0
M  END
>  <cdx:fragmentId>
5

$$$$
