50269.cdx
  Mrv1902 05222410252D          

 38 40  0  0  0  0            999 V2000
    1.2424  -11.4664    0.0000 O   0  0  0  0  0  0  0  0  0  0  0  0
    1.9569  -12.7039    0.0000 O   0  0  0  0  0  0  0  0  0  0  0  0
    2.6714  -12.2914    0.0000 C   0  0  2  0  0  0  0  0  0  0  0  0
    2.6714  -11.4664    0.0000 C   0  0  1  0  0  0  0  0  0  0  0  0
    1.9569  -11.0539    0.0000 C   0  0  0  0  0  0  0  0  0  0  0  0
    3.3858  -12.7039    0.0000 C   0  0  1  0  0  0  0  0  0  0  0  0
    4.1003  -12.2914    0.0000 C   0  0  2  0  0  0  0  0  0  0  0  0
    4.1003  -11.4664    0.0000 C   0  0  1  0  0  0  0  0  0  0  0  0
    3.3858  -11.0539    0.0000 O   0  0  0  0  0  0  0  0  0  0  0  0
    4.8148  -11.0539    0.0000 O   0  0  0  0  0  0  0  0  0  0  0  0
    4.8148  -10.2289    0.0000 C   0  0  2  0  0  0  0  0  0  0  0  0
    4.1003   -9.8164    0.0000 O   0  0  0  0  0  0  0  0  0  0  0  0
    5.5293   -9.8164    0.0000 C   0  0  1  0  0  0  0  0  0  0  0  0
    5.5293   -8.9914    0.0000 C   0  0  1  0  0  0  0  0  0  0  0  0
    4.8148   -8.5789    0.0000 C   0  0  0  0  0  0  0  0  0  0  0  0
    4.1003   -8.9914    0.0000 C   0  0  0  0  0  0  0  0  0  0  0  0
    6.2437  -10.2289    0.0000 C   0  0  0  0  0  0  0  0  0  0  0  0
    6.9582   -8.9914    0.0000 C   0  0  0  0  0  0  0  0  0  0  0  0
    6.2437   -8.5789    0.0000 C   0  0  0  0  0  0  0  0  0  0  0  0
    8.3871   -9.8164    0.0000 O   0  0  0  0  0  0  0  0  0  0  0  0
    8.3871   -8.9914    0.0000 C   0  0  0  0  0  0  0  0  0  0  0  0
    7.6727   -8.5789    0.0000 O   0  0  0  0  0  0  0  0  0  0  0  0
    9.8161   -8.9914    0.0000 C   0  0  0  0  0  0  0  0  0  0  0  0
    9.1016   -8.5789    0.0000 C   0  0  0  0  0  0  0  0  0  0  0  0
   10.5306   -8.5789    0.0000 C   0  0  0  0  0  0  0  0  0  0  0  0
   10.5306   -7.7539    0.0000 C   0  0  0  0  0  0  0  0  0  0  0  0
   11.2450   -8.9914    0.0000 C   0  0  0  0  0  0  0  0  0  0  0  0
   11.9595   -8.5789    0.0000 C   0  0  0  0  0  0  0  0  0  0  0  0
   11.9595   -7.7539    0.0000 C   0  0  0  0  0  0  0  0  0  0  0  0
   11.2450   -7.3414    0.0000 C   0  0  0  0  0  0  0  0  0  0  0  0
    5.5293   -7.3414    0.0000 O   0  0  0  0  0  0  0  0  0  0  0  0
    4.8148   -7.7539    0.0000 C   0  0  0  0  0  0  0  0  0  0  0  0
    4.1003   -7.3414    0.0000 O   0  0  0  0  0  0  0  0  0  0  0  0
    6.2437  -11.0539    0.0000 C   0  0  0  0  0  0  0  0  0  0  0  0
   12.6740   -7.3414    0.0000 O   0  0  0  0  0  0  0  0  0  0  0  0
   12.6740   -8.9914    0.0000 O   0  0  0  0  0  0  0  0  0  0  0  0
    3.3858  -13.5289    0.0000 O   0  0  0  0  0  0  0  0  0  0  0  0
    4.8148  -12.7039    0.0000 O   0  0  0  0  0  0  0  0  0  0  0  0
  3  2  1  6  0  0  0
  3  4  1  0  0  0  0
  4  5  1  1  0  0  0
  5  1  1  0  0  0  0
  3  6  1  0  0  0  0
  6  7  1  0  0  0  0
  7  8  1  0  0  0  0
  8  9  1  0  0  0  0
  9  4  1  0  0  0  0
  8 10  1  1  0  0  0
 11 10  1  6  0  0  0
 11 12  1  0  0  0  0
 11 13  1  0  0  0  0
 13 14  1  0  0  0  0
 14 15  1  0  0  0  0
 15 16  2  0  0  0  0
 16 12  1  0  0  0  0
 13 17  1  1  0  0  0
 18 19  1  0  0  0  0
 14 19  1  1  0  0  0
 20 21  2  0  0  0  0
 21 22  1  0  0  0  0
 22 18  1  0  0  0  0
 23 24  2  0  0  0  0
 24 21  1  0  0  0  0
 23 25  1  0  0  0  0
 25 26  1  0  0  0  0
 25 27  2  0  0  0  0
 27 28  1  0  0  0  0
 28 29  2  0  0  0  0
 29 30  1  0  0  0  0
 30 26  2  0  0  0  0
 31 32  2  0  0  0  0
 32 15  1  0  0  0  0
 32 33  1  0  0  0  0
 17 34  2  0  0  0  0
 29 35  1  0  0  0  0
 28 36  1  0  0  0  0
  6 37  1  1  0  0  0
  7 38  1  6  0  0  0
M  END
>  <cdx:fragmentId>
5

$$$$
