50260.cdx
  Mrv1902 05222410222D          

 42 46  0  0  0  0            999 V2000
    4.0353   -8.0303    0.0000 O   0  0  0  0  0  0  0  0  0  0  0  0
    1.8774   -8.4123    0.0000 C   0  0  2  0  0  0  0  0  0  0  0  0
    1.8670   -9.2373    0.0000 C   0  0  2  0  0  0  0  0  0  0  0  0
    2.5763   -9.6587    0.0000 C   0  0  1  0  0  0  0  0  0  0  0  0
    3.2959   -9.2552    0.0000 C   0  0  2  0  0  0  0  0  0  0  0  0
    3.3062   -8.4302    0.0000 C   0  0  1  0  0  0  0  0  0  0  0  0
    2.5969   -8.0088    0.0000 O   0  0  0  0  0  0  0  0  0  0  0  0
    1.1681   -7.9909    0.0000 C   0  0  0  0  0  0  0  0  0  0  0  0
    2.5660  -10.4836    0.0000 O   0  0  0  0  0  0  0  0  0  0  0  0
    1.1475   -9.6408    0.0000 O   0  0  0  0  0  0  0  0  0  0  0  0
    4.0051   -9.6766    0.0000 O   0  0  0  0  0  0  0  0  0  0  0  0
    0.4485   -8.3945    0.0000 O   0  0  0  0  0  0  0  0  0  0  0  0
   10.4441  -10.9652    0.0000 O   0  0  0  0  0  0  0  0  0  0  0  0
   12.5978  -10.5897    0.0000 C   0  0  2  0  0  0  0  0  0  0  0  0
   12.6116   -9.7648    0.0000 C   0  0  2  0  0  0  0  0  0  0  0  0
   11.9042   -9.3404    0.0000 C   0  0  1  0  0  0  0  0  0  0  0  0
   11.1829   -9.7408    0.0000 C   0  0  2  0  0  0  0  0  0  0  0  0
   11.1690  -10.5657    0.0000 C   0  0  1  0  0  0  0  0  0  0  0  0
   11.8765  -10.9901    0.0000 O   0  0  0  0  0  0  0  0  0  0  0  0
   13.3052  -11.0141    0.0000 C   0  0  0  0  0  0  0  0  0  0  0  0
   11.9180   -8.5155    0.0000 O   0  0  0  0  0  0  0  0  0  0  0  0
   13.3329   -9.3644    0.0000 O   0  0  0  0  0  0  0  0  0  0  0  0
   10.4754   -9.3164    0.0000 O   0  0  0  0  0  0  0  0  0  0  0  0
   14.0265  -10.6137    0.0000 O   0  0  0  0  0  0  0  0  0  0  0  0
    9.0152  -10.9547    0.0000 C   0  0  0  0  0  0  0  0  0  0  0  0
    9.7327  -10.5474    0.0000 C   0  0  0  0  0  0  0  0  0  0  0  0
    9.7388   -9.7225    0.0000 C   0  0  0  0  0  0  0  0  0  0  0  0
    9.0273   -9.3047    0.0000 C   0  0  0  0  0  0  0  0  0  0  0  0
    8.3038  -10.5369    0.0000 C   0  0  0  0  0  0  0  0  0  0  0  0
    8.3098   -9.7119    0.0000 C   0  0  0  0  0  0  0  0  0  0  0  0
    5.4460  -10.5158    0.0000 O   0  0  0  0  0  0  0  0  0  0  0  0
    6.8749  -10.5264    0.0000 O   0  0  0  0  0  0  0  0  0  0  0  0
    6.8809   -9.7014    0.0000 C   0  0  0  0  0  0  0  0  0  0  0  0
    7.5984   -9.2942    0.0000 C   0  0  0  0  0  0  0  0  0  0  0  0
    7.6045   -8.4692    0.0000 C   0  0  0  0  0  0  0  0  0  0  0  0
    6.8931   -8.0514    0.0000 O   0  0  0  0  0  0  0  0  0  0  0  0
    5.4520   -9.6908    0.0000 C   0  0  0  0  0  0  0  0  0  0  0  0
    6.1695   -9.2836    0.0000 C   0  0  0  0  0  0  0  0  0  0  0  0
    6.1756   -8.4586    0.0000 C   0  0  0  0  0  0  0  0  0  0  0  0
    5.4642   -8.0409    0.0000 C   0  0  0  0  0  0  0  0  0  0  0  0
    4.7467   -8.4481    0.0000 C   0  0  0  0  0  0  0  0  0  0  0  0
    4.7406   -9.2731    0.0000 C   0  0  0  0  0  0  0  0  0  0  0  0
  2  3  1  0  0  0  0
  3  4  1  0  0  0  0
  4  5  1  0  0  0  0
  5  6  1  0  0  0  0
  6  7  1  0  0  0  0
  7  2  1  0  0  0  0
  2  8  1  1  0  0  0
  4  9  1  1  0  0  0
  3 10  1  6  0  0  0
  5 11  1  6  0  0  0
  8 12  1  0  0  0  0
 14 15  1  0  0  0  0
 15 16  1  0  0  0  0
 16 17  1  0  0  0  0
 17 18  1  0  0  0  0
 18 19  1  0  0  0  0
 19 14  1  0  0  0  0
 14 20  1  1  0  0  0
 16 21  1  1  0  0  0
 15 22  1  6  0  0  0
 17 23  1  6  0  0  0
 20 24  1  0  0  0  0
 26 13  1  0  0  0  0
 18 13  1  1  0  0  0
 41  1  1  0  0  0  0
  6  1  1  1  0  0  0
 25 29  1  0  0  0  0
 26 25  2  0  0  0  0
 27 26  1  0  0  0  0
 28 27  2  0  0  0  0
 30 28  1  0  0  0  0
 30 29  2  0  0  0  0
 34 30  1  0  0  0  0
 31 37  1  0  0  0  0
 33 32  2  0  0  0  0
 33 38  1  0  0  0  0
 34 33  1  0  0  0  0
 35 34  2  0  0  0  0
 36 35  1  0  0  0  0
 39 36  1  0  0  0  0
 37 42  1  0  0  0  0
 38 37  2  0  0  0  0
 39 38  1  0  0  0  0
 40 39  2  0  0  0  0
 41 40  1  0  0  0  0
 42 41  2  0  0  0  0
M  END
>  <cdx:fragmentId>
5

$$$$
