50266.cdx
  Mrv1902 05222410212D          

 22 23  0  0  0  0            999 V2000
    8.9647   -8.3147    0.0000 O   0  0  0  0  0  0  0  0  0  0  0  0
    8.2680   -9.5623    0.0000 O   0  0  0  0  0  0  0  0  0  0  0  0
    8.2562   -8.7373    0.0000 C   0  0  0  0  0  0  0  0  0  0  0  0
    6.7921   -6.2830    0.0000 O   0  0  0  0  0  0  0  0  0  0  0  0
    6.8392   -9.5826    0.0000 O   0  0  0  0  0  0  0  0  0  0  0  0
    7.5359   -8.3351    0.0000 C   0  0  0  0  0  0  0  0  0  0  0  0
    7.5242   -7.5102    0.0000 C   0  0  0  0  0  0  0  0  0  0  0  0
    6.8039   -7.1079    0.0000 C   0  0  0  0  0  0  0  0  0  0  0  0
    6.0954   -7.5306    0.0000 C   0  0  0  0  0  0  0  0  0  0  0  0
    6.1071   -8.3555    0.0000 C   0  0  0  0  0  0  0  0  0  0  0  0
    6.8274   -8.7577    0.0000 C   0  0  0  0  0  0  0  0  0  0  0  0
    4.7074   -9.9951    0.0000 C   0  0  2  0  0  0  0  0  0  0  0  0
    4.7074  -10.8201    0.0000 C   0  0  2  0  0  0  0  0  0  0  0  0
    5.4219  -11.2326    0.0000 C   0  0  1  0  0  0  0  0  0  0  0  0
    6.1364  -10.8201    0.0000 C   0  0  2  0  0  0  0  0  0  0  0  0
    6.1364   -9.9951    0.0000 C   0  0  1  0  0  0  0  0  0  0  0  0
    5.4219   -9.5826    0.0000 O   0  0  0  0  0  0  0  0  0  0  0  0
    3.9930   -9.5826    0.0000 C   0  0  0  0  0  0  0  0  0  0  0  0
    5.4219  -12.0576    0.0000 O   0  0  0  0  0  0  0  0  0  0  0  0
    6.8508  -11.2326    0.0000 O   0  0  0  0  0  0  0  0  0  0  0  0
    3.9930  -11.2326    0.0000 O   0  0  0  0  0  0  0  0  0  0  0  0
    3.2785   -9.9951    0.0000 O   0  0  0  0  0  0  0  0  0  0  0  0
  3  1  1  0  0  0  0
  3  2  2  0  0  0  0
  6  3  1  0  0  0  0
  8  4  1  0  0  0  0
 11  5  1  0  0  0  0
  6 11  1  0  0  0  0
  7  6  2  0  0  0  0
  8  7  1  0  0  0  0
  9  8  2  0  0  0  0
 10  9  1  0  0  0  0
 11 10  2  0  0  0  0
 12 13  1  0  0  0  0
 13 14  1  0  0  0  0
 14 15  1  0  0  0  0
 15 16  1  0  0  0  0
 16 17  1  0  0  0  0
 17 12  1  0  0  0  0
 12 18  1  1  0  0  0
 14 19  1  1  0  0  0
 15 20  1  6  0  0  0
 13 21  1  6  0  0  0
 18 22  1  0  0  0  0
 16  5  1  1  0  0  0
M  END
>  <cdx:fragmentId>
5

$$$$
