50265.cdx
  Mrv1902 05222410222D          

 41 45  0  0  0  0            999 V2000
    8.2651   -8.1016    0.0000 O   0  0  0  0  0  0  0  0  0  0  0  0
    6.1351   -8.5402    0.0000 C   0  0  2  0  0  0  0  0  0  0  0  0
    6.1435   -9.3651    0.0000 C   0  0  2  0  0  0  0  0  0  0  0  0
    6.8622   -9.7703    0.0000 C   0  0  1  0  0  0  0  0  0  0  0  0
    7.5724   -9.3505    0.0000 C   0  0  2  0  0  0  0  0  0  0  0  0
    7.5640   -8.5255    0.0000 C   0  0  1  0  0  0  0  0  0  0  0  0
    6.8453   -8.1204    0.0000 O   0  0  0  0  0  0  0  0  0  0  0  0
    6.8707  -10.5952    0.0000 O   0  0  0  0  0  0  0  0  0  0  0  0
    3.9876   -8.1496    0.0000 O   0  0  0  0  0  0  0  0  0  0  0  0
    2.5333   -5.6894    0.0000 O   0  0  0  0  0  0  0  0  0  0  0  0
    2.5503   -7.3393    0.0000 O   0  0  0  0  0  0  0  0  0  0  0  0
    4.6809   -6.0799    0.0000 O   0  0  0  0  0  0  0  0  0  0  0  0
    3.9622   -5.6748    0.0000 C   0  0  0  0  0  0  0  0  0  0  0  0
    3.2520   -6.0946    0.0000 C   0  0  2  0  0  0  0  0  0  0  0  0
    3.2605   -6.9195    0.0000 C   0  0  1  0  0  0  0  0  0  0  0  0
    5.4333   -9.7849    0.0000 O   0  0  0  0  0  0  0  0  0  0  0  0
    8.2911   -9.7556    0.0000 O   0  0  0  0  0  0  0  0  0  0  0  0
    3.9791   -7.3247    0.0000 C   0  0  2  0  0  0  0  0  0  0  0  0
    4.6893   -6.9049    0.0000 C   0  0  2  0  0  0  0  0  0  0  0  0
    5.4080   -7.3100    0.0000 O   0  0  0  0  0  0  0  0  0  0  0  0
    5.4164   -8.1350    0.0000 C   0  0  0  0  0  0  0  0  0  0  0  0
   13.2122   -4.3173    0.0000 O   0  0  0  0  0  0  0  0  0  0  0  0
   11.8073   -5.9877    0.0000 C   0  0  0  0  0  0  0  0  0  0  0  0
   12.5157   -5.5649    0.0000 C   0  0  0  0  0  0  0  0  0  0  0  0
   12.5038   -4.7400    0.0000 C   0  0  0  0  0  0  0  0  0  0  0  0
   11.7835   -4.3379    0.0000 C   0  0  0  0  0  0  0  0  0  0  0  0
   11.0869   -5.5856    0.0000 C   0  0  0  0  0  0  0  0  0  0  0  0
   11.0750   -4.7607    0.0000 C   0  0  0  0  0  0  0  0  0  0  0  0
    9.6939   -8.0810    0.0000 O   0  0  0  0  0  0  0  0  0  0  0  0
    9.6820   -7.2561    0.0000 C   0  0  0  0  0  0  0  0  0  0  0  0
   10.3904   -6.8333    0.0000 C   0  0  0  0  0  0  0  0  0  0  0  0
   10.3785   -6.0084    0.0000 C   0  0  0  0  0  0  0  0  0  0  0  0
    9.6581   -5.6062    0.0000 O   0  0  0  0  0  0  0  0  0  0  0  0
    8.2532   -7.2767    0.0000 C   0  0  0  0  0  0  0  0  0  0  0  0
    8.9616   -6.8539    0.0000 C   0  0  0  0  0  0  0  0  0  0  0  0
    8.9497   -6.0290    0.0000 C   0  0  0  0  0  0  0  0  0  0  0  0
    8.2293   -5.6269    0.0000 C   0  0  0  0  0  0  0  0  0  0  0  0
    7.5328   -6.8746    0.0000 C   0  0  0  0  0  0  0  0  0  0  0  0
    7.5209   -6.0496    0.0000 C   0  0  0  0  0  0  0  0  0  0  0  0
    6.8006   -5.6475    0.0000 O   0  0  0  0  0  0  0  0  0  0  0  0
    6.0921   -6.0703    0.0000 C   0  0  0  0  0  0  0  0  0  0  0  0
  2  3  1  0  0  0  0
  3  4  1  0  0  0  0
  4  5  1  0  0  0  0
  5  6  1  0  0  0  0
  6  7  1  0  0  0  0
  7  2  1  0  0  0  0
 18  9  1  6  0  0  0
  2 21  1  1  0  0  0
  4  8  1  1  0  0  0
 14 10  1  6  0  0  0
 15 11  1  1  0  0  0
 12 19  1  0  0  0  0
 13 12  1  0  0  0  0
 14 13  1  0  0  0  0
 15 14  1  0  0  0  0
 18 15  1  0  0  0  0
 19 18  1  0  0  0  0
  3 16  1  6  0  0  0
  5 17  1  6  0  0  0
 19 20  1  1  0  0  0
 21 20  1  0  0  0  0
 25 22  1  0  0  0  0
 23 27  2  0  0  0  0
 24 23  1  0  0  0  0
 25 24  2  0  0  0  0
 26 25  1  0  0  0  0
 28 26  2  0  0  0  0
 27 32  1  0  0  0  0
 28 27  1  0  0  0  0
  1 34  1  0  0  0  0
 30 29  2  0  0  0  0
  6  1  1  1  0  0  0
 30 35  1  0  0  0  0
 31 30  1  0  0  0  0
 32 31  2  0  0  0  0
 33 32  1  0  0  0  0
 36 33  1  0  0  0  0
 34 38  1  0  0  0  0
 35 34  2  0  0  0  0
 36 35  1  0  0  0  0
 37 36  2  0  0  0  0
 39 37  1  0  0  0  0
 39 38  2  0  0  0  0
 40 39  1  0  0  0  0
 41 40  1  0  0  0  0
M  END
>  <cdx:fragmentId>
160

$$$$
