50268.cdx
  Mrv1902 05222410242D          

 15 17  0  0  0  0            999 V2000
    6.9412   -7.2880    0.0000 C   0  0  0  0  0  0  0  0  0  0  0  0
    6.9656   -8.1126    0.0000 C   0  0  0  0  0  0  0  0  0  0  0  0
    7.6256   -8.6077    0.0000 C   0  0  0  0  0  0  0  0  0  0  0  0
    8.4241   -8.4003    0.0000 C   0  0  0  0  0  0  0  0  0  0  0  0
    8.7599   -7.6468    0.0000 C   0  0  0  0  0  0  0  0  0  0  0  0
    8.3801   -6.9144    0.0000 C   0  0  0  0  0  0  0  0  0  0  0  0
    7.5707   -6.7547    0.0000 C   0  0  0  0  0  0  0  0  0  0  0  0
    6.2909   -8.5873    0.0000 C   0  0  0  0  0  0  0  0  0  0  0  0
    6.5338   -9.3757    0.0000 C   0  0  0  0  0  0  0  0  0  0  0  0
    7.3587   -9.3883    0.0000 C   0  0  0  0  0  0  0  0  0  0  0  0
    5.5102   -8.3204    0.0000 C   0  0  0  0  0  0  0  0  0  0  0  0
    8.9574   -9.0298    0.0000 C   0  0  0  0  0  0  0  0  0  0  0  0
    8.0535   -7.7289    0.0000 C   0  0  0  0  0  0  0  0  0  0  0  0
    8.7554   -7.2954    0.0000 C   0  0  0  0  0  0  0  0  0  0  0  0
    8.7799   -8.1200    0.0000 C   0  0  0  0  0  0  0  0  0  0  0  0
  1  2  1  0  0  0  0
  2  3  1  0  0  0  0
  3  4  1  0  0  0  0
  4  5  1  0  0  0  0
  5  6  1  0  0  0  0
  6  7  1  0  0  0  0
  7  1  1  0  0  0  0
  2  8  1  0  0  0  0
  8  9  1  0  0  0  0
  9 10  1  0  0  0  0
 10  3  1  0  0  0  0
  8 11  1  0  0  0  0
  4 12  2  0  0  0  0
  3 13  1  0  0  0  0
  7 13  1  0  0  0  0
 13 14  1  0  0  0  0
 13 15  1  0  0  0  0
M  END
>  <cdx:fragmentId>
5

$$$$
