50264.cdx
  Mrv1902 05222410212D          

 32 35  0  0  0  0            999 V2000
    5.5651   -9.2309    0.0000 O   0  0  0  0  0  0  0  0  0  0  0  0
    3.4226   -9.6744    0.0000 C   0  0  2  0  0  0  0  0  0  0  0  0
    3.4304  -10.4993    0.0000 C   0  0  2  0  0  0  0  0  0  0  0  0
    4.1488  -10.9050    0.0000 C   0  0  1  0  0  0  0  0  0  0  0  0
    4.8593  -10.4858    0.0000 C   0  0  2  0  0  0  0  0  0  0  0  0
    4.8515   -9.6608    0.0000 C   0  0  1  0  0  0  0  0  0  0  0  0
    4.1331   -9.2551    0.0000 O   0  0  0  0  0  0  0  0  0  0  0  0
    2.7042   -9.2687    0.0000 C   0  0  0  0  0  0  0  0  0  0  0  0
    4.1566  -11.7300    0.0000 O   0  0  0  0  0  0  0  0  0  0  0  0
    5.5777  -10.8915    0.0000 O   0  0  0  0  0  0  0  0  0  0  0  0
    2.7199  -10.9186    0.0000 O   0  0  0  0  0  0  0  0  0  0  0  0
    1.9937   -9.6879    0.0000 O   0  0  0  0  0  0  0  0  0  0  0  0
   10.5651   -5.5166    0.0000 O   0  0  0  0  0  0  0  0  0  0  0  0
    9.1367   -7.1671    0.0000 C   0  0  0  0  0  0  0  0  0  0  0  0
    9.8510   -6.7543    0.0000 C   0  0  0  0  0  0  0  0  0  0  0  0
    9.8507   -5.9293    0.0000 C   0  0  0  0  0  0  0  0  0  0  0  0
    9.1361   -5.5171    0.0000 C   0  0  0  0  0  0  0  0  0  0  0  0
    8.4221   -6.7549    0.0000 C   0  0  0  0  0  0  0  0  0  0  0  0
    8.4218   -5.9299    0.0000 C   0  0  0  0  0  0  0  0  0  0  0  0
    6.9940   -9.2304    0.0000 O   0  0  0  0  0  0  0  0  0  0  0  0
    6.9938   -8.4054    0.0000 C   0  0  0  0  0  0  0  0  0  0  0  0
    7.7081   -7.9926    0.0000 C   0  0  0  0  0  0  0  0  0  0  0  0
    7.7078   -7.1676    0.0000 C   0  0  0  0  0  0  0  0  0  0  0  0
    6.9932   -6.7554    0.0000 O   0  0  0  0  0  0  0  0  0  0  0  0
    5.5648   -8.4059    0.0000 C   0  0  0  0  0  0  0  0  0  0  0  0
    6.2791   -7.9931    0.0000 C   0  0  0  0  0  0  0  0  0  0  0  0
    6.2788   -7.1681    0.0000 C   0  0  0  0  0  0  0  0  0  0  0  0
    5.5642   -6.7559    0.0000 C   0  0  0  0  0  0  0  0  0  0  0  0
    4.8502   -7.9936    0.0000 C   0  0  0  0  0  0  0  0  0  0  0  0
    4.8499   -7.1686    0.0000 C   0  0  0  0  0  0  0  0  0  0  0  0
    4.1353   -6.7564    0.0000 O   0  0  0  0  0  0  0  0  0  0  0  0
    3.4210   -7.1692    0.0000 C   0  0  0  0  0  0  0  0  0  0  0  0
  2  3  1  0  0  0  0
  3  4  1  0  0  0  0
  4  5  1  0  0  0  0
  5  6  1  0  0  0  0
  6  7  1  0  0  0  0
  7  2  1  0  0  0  0
  2  8  1  1  0  0  0
  4  9  1  1  0  0  0
  5 10  1  6  0  0  0
  3 11  1  6  0  0  0
  8 12  1  0  0  0  0
 16 13  1  0  0  0  0
 14 18  2  0  0  0  0
 15 14  1  0  0  0  0
 16 15  2  0  0  0  0
 17 16  1  0  0  0  0
 19 17  2  0  0  0  0
 18 23  1  0  0  0  0
 19 18  1  0  0  0  0
  1 25  1  0  0  0  0
 21 20  2  0  0  0  0
  6  1  1  1  0  0  0
 21 26  1  0  0  0  0
 22 21  1  0  0  0  0
 23 22  2  0  0  0  0
 24 23  1  0  0  0  0
 27 24  1  0  0  0  0
 25 29  1  0  0  0  0
 26 25  2  0  0  0  0
 27 26  1  0  0  0  0
 28 27  2  0  0  0  0
 30 28  1  0  0  0  0
 30 29  2  0  0  0  0
 31 30  1  0  0  0  0
 32 31  1  0  0  0  0
M  END
>  <cdx:fragmentId>
160

$$$$
