50267.cdx
  Mrv1902 05222410202D          

 34 37  0  0  0  0            999 V2000
    5.8212   -8.0839    0.0000 C   0  0  0  0  0  0  0  0  0  0  0  0
    5.8212   -8.9089    0.0000 C   0  0  0  0  0  0  0  0  0  0  0  0
    6.5356   -9.3214    0.0000 C   0  0  0  0  0  0  0  0  0  0  0  0
    7.2501   -8.9089    0.0000 C   0  0  0  0  0  0  0  0  0  0  0  0
    7.2501   -8.0839    0.0000 C   0  0  0  0  0  0  0  0  0  0  0  0
    6.5356   -7.6714    0.0000 C   0  0  0  0  0  0  0  0  0  0  0  0
    7.9646   -9.3214    0.0000 O   0  0  0  0  0  0  0  0  0  0  0  0
    8.6791   -8.9089    0.0000 C   0  0  0  0  0  0  0  0  0  0  0  0
    8.6791   -8.0839    0.0000 C   0  0  0  0  0  0  0  0  0  0  0  0
    7.9646   -7.6714    0.0000 C   0  0  0  0  0  0  0  0  0  0  0  0
    7.9646   -6.8464    0.0000 O   0  0  0  0  0  0  0  0  0  0  0  0
    6.5356   -6.8464    0.0000 O   0  0  0  0  0  0  0  0  0  0  0  0
    9.3935   -7.6714    0.0000 O   0  0  0  0  0  0  0  0  0  0  0  0
    9.3935   -9.3214    0.0000 C   0  0  0  0  0  0  0  0  0  0  0  0
   10.1080   -8.9089    0.0000 C   0  0  0  0  0  0  0  0  0  0  0  0
    9.3935  -10.1464    0.0000 C   0  0  0  0  0  0  0  0  0  0  0  0
   10.1080  -10.5589    0.0000 C   0  0  0  0  0  0  0  0  0  0  0  0
   10.8225  -10.1464    0.0000 C   0  0  0  0  0  0  0  0  0  0  0  0
   10.8225   -9.3214    0.0000 C   0  0  0  0  0  0  0  0  0  0  0  0
    5.1067   -9.3214    0.0000 O   0  0  0  0  0  0  0  0  0  0  0  0
    6.5356  -10.1464    0.0000 O   0  0  0  0  0  0  0  0  0  0  0  0
   10.1080  -11.3839    0.0000 O   0  0  0  0  0  0  0  0  0  0  0  0
   11.5369  -10.5589    0.0000 O   0  0  0  0  0  0  0  0  0  0  0  0
    4.3912  -10.5589    0.0000 C   0  0  2  0  0  0  0  0  0  0  0  0
    4.3912  -11.3839    0.0000 C   0  0  2  0  0  0  0  0  0  0  0  0
    5.1056  -11.7964    0.0000 C   0  0  1  0  0  0  0  0  0  0  0  0
    5.8201  -11.3839    0.0000 C   0  0  2  0  0  0  0  0  0  0  0  0
    5.8201  -10.5589    0.0000 C   0  0  1  0  0  0  0  0  0  0  0  0
    5.1056  -10.1464    0.0000 O   0  0  0  0  0  0  0  0  0  0  0  0
    3.6767  -10.1464    0.0000 C   0  0  0  0  0  0  0  0  0  0  0  0
    5.1056  -12.6214    0.0000 O   0  0  0  0  0  0  0  0  0  0  0  0
    3.6767  -11.7964    0.0000 O   0  0  0  0  0  0  0  0  0  0  0  0
    6.5346  -11.7964    0.0000 O   0  0  0  0  0  0  0  0  0  0  0  0
    2.9622  -10.5589    0.0000 O   0  0  0  0  0  0  0  0  0  0  0  0
  1  2  1  0  0  0  0
  2  3  2  0  0  0  0
  3  4  1  0  0  0  0
  4  5  2  0  0  0  0
  5  6  1  0  0  0  0
  6  1  2  0  0  0  0
  4  7  1  0  0  0  0
  7  8  1  0  0  0  0
  8  9  2  0  0  0  0
  9 10  1  0  0  0  0
 10  5  1  0  0  0  0
 10 11  2  0  0  0  0
 12  6  1  0  0  0  0
  9 13  1  0  0  0  0
  8 14  1  0  0  0  0
 14 15  1  0  0  0  0
 14 16  2  0  0  0  0
 16 17  1  0  0  0  0
 17 18  2  0  0  0  0
 18 19  1  0  0  0  0
 19 15  2  0  0  0  0
  2 20  1  0  0  0  0
 21  3  1  0  0  0  0
 17 22  1  0  0  0  0
 18 23  1  0  0  0  0
 24 25  1  0  0  0  0
 25 26  1  0  0  0  0
 26 27  1  0  0  0  0
 27 28  1  0  0  0  0
 28 29  1  0  0  0  0
 29 24  1  0  0  0  0
 24 30  1  1  0  0  0
 26 31  1  1  0  0  0
 25 32  1  6  0  0  0
 27 33  1  6  0  0  0
 30 34  1  0  0  0  0
 28 21  1  1  0  0  0
M  END
>  <cdx:fragmentId>
5

$$$$
