50276.cdx
  Mrv1902 05222410222D          

 43 47  0  0  0  0            999 V2000
    5.5668   -7.5614    0.0000 C   0  0  0  0  0  0  0  0  0  0  0  0
    5.5668   -8.3864    0.0000 C   0  0  0  0  0  0  0  0  0  0  0  0
    6.2813   -8.7989    0.0000 C   0  0  0  0  0  0  0  0  0  0  0  0
    6.9957   -8.3864    0.0000 C   0  0  0  0  0  0  0  0  0  0  0  0
    6.9957   -7.5614    0.0000 C   0  0  0  0  0  0  0  0  0  0  0  0
    6.2813   -7.1489    0.0000 C   0  0  0  0  0  0  0  0  0  0  0  0
    7.7102   -8.7989    0.0000 C   0  0  0  0  0  0  0  0  0  0  0  0
    8.4247   -8.3864    0.0000 C   0  0  0  0  0  0  0  0  0  0  0  0
    8.4247   -7.5614    0.0000 C   0  0  0  0  0  0  0  0  0  0  0  0
    7.7102   -7.1489    0.0000 O   0  0  0  0  0  0  0  0  0  0  0  0
    9.1392   -8.7989    0.0000 C   0  0  0  0  0  0  0  0  0  0  0  0
    9.8536   -8.3864    0.0000 C   0  0  0  0  0  0  0  0  0  0  0  0
    9.1392   -9.6239    0.0000 C   0  0  0  0  0  0  0  0  0  0  0  0
    9.8536  -10.0364    0.0000 C   0  0  0  0  0  0  0  0  0  0  0  0
   10.5681   -9.6239    0.0000 C   0  0  0  0  0  0  0  0  0  0  0  0
   10.5681   -8.7989    0.0000 C   0  0  0  0  0  0  0  0  0  0  0  0
    7.7102   -9.6239    0.0000 O   0  0  0  0  0  0  0  0  0  0  0  0
   11.2826  -10.0364    0.0000 O   0  0  0  0  0  0  0  0  0  0  0  0
    4.8523   -7.1489    0.0000 O   0  0  0  0  0  0  0  0  0  0  0  0
    6.2813   -9.6239    0.0000 O   0  0  0  0  0  0  0  0  0  0  0  0
    4.8523   -6.3239    0.0000 C   0  0  2  0  0  0  0  0  0  0  0  0
    5.5668   -5.9114    0.0000 O   0  0  0  0  0  0  0  0  0  0  0  0
    5.5668   -5.0864    0.0000 C   0  0  1  0  0  0  0  0  0  0  0  0
    4.8523   -4.6739    0.0000 C   0  0  2  0  0  0  0  0  0  0  0  0
    4.1379   -5.0864    0.0000 C   0  0  1  0  0  0  0  0  0  0  0  0
    4.1379   -5.9114    0.0000 C   0  0  1  0  0  0  0  0  0  0  0  0
    1.5112   -7.4689    0.0000 O   0  0  0  0  0  0  0  0  0  0  0  0
    2.3359   -7.4443    0.0000 C   0  0  0  0  0  0  0  0  0  0  0  0
    2.4210  -10.3009    0.0000 O   0  0  0  0  0  0  0  0  0  0  0  0
    1.5538   -8.8972    0.0000 O   0  0  0  0  0  0  0  0  0  0  0  0
    4.0703  -10.2518    0.0000 O   0  0  0  0  0  0  0  0  0  0  0  0
    3.4234   -4.6739    0.0000 O   0  0  0  0  0  0  0  0  0  0  0  0
    6.2813   -4.6739    0.0000 C   0  0  0  0  0  0  0  0  0  0  0  0
    3.5941   -8.1216    0.0000 O   0  0  0  0  0  0  0  0  0  0  0  0
    2.7695   -8.1462    0.0000 C   0  0  1  0  0  0  0  0  0  0  0  0
    3.4234   -6.3239    0.0000 O   0  0  0  0  0  0  0  0  0  0  0  0
    4.8523   -3.8489    0.0000 O   0  0  0  0  0  0  0  0  0  0  0  0
    2.3784   -8.8726    0.0000 C   0  0  2  0  0  0  0  0  0  0  0  0
    2.8120   -9.5745    0.0000 C   0  0  1  0  0  0  0  0  0  0  0  0
    3.6367   -9.5499    0.0000 C   0  0  2  0  0  0  0  0  0  0  0  0
    6.2813   -3.8489    0.0000 O   0  0  0  0  0  0  0  0  0  0  0  0
    4.0277   -8.8235    0.0000 C   0  0  2  0  0  0  0  0  0  0  0  0
    4.8523   -8.7989    0.0000 O   0  0  0  0  0  0  0  0  0  0  0  0
  1  2  1  0  0  0  0
  2  3  2  0  0  0  0
  3  4  1  0  0  0  0
  4  5  2  0  0  0  0
  5  6  1  0  0  0  0
  6  1  2  0  0  0  0
  4  7  1  0  0  0  0
  7  8  1  0  0  0  0
  8  9  2  0  0  0  0
  9 10  1  0  0  0  0
 10  5  1  0  0  0  0
  8 11  1  0  0  0  0
 11 12  1  0  0  0  0
 11 13  2  0  0  0  0
 13 14  1  0  0  0  0
 14 15  2  0  0  0  0
 15 16  1  0  0  0  0
 16 12  2  0  0  0  0
  7 17  2  0  0  0  0
 15 18  1  0  0  0  0
  1 19  1  0  0  0  0
 28 27  1  0  0  0  0
  2 43  1  0  0  0  0
  3 20  1  0  0  0  0
 21 19  1  1  0  0  0
 21 22  1  0  0  0  0
 22 23  1  0  0  0  0
 23 24  1  0  0  0  0
 24 25  1  0  0  0  0
 25 26  1  0  0  0  0
 26 21  1  0  0  0  0
 35 28  1  1  0  0  0
 39 29  1  1  0  0  0
 38 30  1  6  0  0  0
 40 31  1  6  0  0  0
 34 42  1  0  0  0  0
 35 34  1  0  0  0  0
 38 35  1  0  0  0  0
 39 38  1  0  0  0  0
 25 32  1  1  0  0  0
 23 33  1  1  0  0  0
 40 39  1  0  0  0  0
 42 40  1  0  0  0  0
 26 36  1  6  0  0  0
 24 37  1  6  0  0  0
 42 43  1  1  0  0  0
 33 41  1  0  0  0  0
M  END
>  <cdx:fragmentId>
5

$$$$
