50272.cdx
  Mrv1902 05222410212D          

 21 23  0  0  0  0            999 V2000
    3.7759   -7.3753    0.0000 O   0  0  0  0  0  0  0  0  0  0  0  0
   10.2062  -10.2628    0.0000 O   0  0  0  0  0  0  0  0  0  0  0  0
    8.7772   -8.6128    0.0000 C   0  0  0  0  0  0  0  0  0  0  0  0
    9.4917   -9.0253    0.0000 C   0  0  0  0  0  0  0  0  0  0  0  0
    9.4917   -9.8503    0.0000 C   0  0  0  0  0  0  0  0  0  0  0  0
    8.7772  -10.2628    0.0000 C   0  0  0  0  0  0  0  0  0  0  0  0
    8.0628   -9.8503    0.0000 C   0  0  0  0  0  0  0  0  0  0  0  0
    8.0628   -9.0253    0.0000 C   0  0  0  0  0  0  0  0  0  0  0  0
    3.0615   -8.6128    0.0000 C   0  0  0  0  0  0  0  0  0  0  0  0
    3.7759   -9.0253    0.0000 O   0  0  0  0  0  0  0  0  0  0  0  0
    6.6338   -9.8503    0.0000 O   0  0  0  0  0  0  0  0  0  0  0  0
    6.6338   -7.3753    0.0000 O   0  0  0  0  0  0  0  0  0  0  0  0
    5.9193   -7.7878    0.0000 C   0  0  0  0  0  0  0  0  0  0  0  0
    5.2049   -7.3753    0.0000 C   0  0  0  0  0  0  0  0  0  0  0  0
    4.4904   -7.7878    0.0000 C   0  0  0  0  0  0  0  0  0  0  0  0
    4.4904   -8.6128    0.0000 C   0  0  0  0  0  0  0  0  0  0  0  0
    5.2049   -9.0253    0.0000 C   0  0  0  0  0  0  0  0  0  0  0  0
    5.9193   -8.6128    0.0000 C   0  0  0  0  0  0  0  0  0  0  0  0
    6.6338   -9.0253    0.0000 C   0  0  0  0  0  0  0  0  0  0  0  0
    7.3483   -8.6128    0.0000 C   0  0  0  0  0  0  0  0  0  0  0  0
    7.3483   -7.7878    0.0000 C   0  0  0  0  0  0  0  0  0  0  0  0
 15  1  1  0  0  0  0
 20  8  1  0  0  0  0
  5  2  1  0  0  0  0
  8  3  2  0  0  0  0
  4  3  1  0  0  0  0
  5  4  2  0  0  0  0
  6  5  1  0  0  0  0
  7  6  2  0  0  0  0
  8  7  1  0  0  0  0
 16 10  1  0  0  0  0
 10  9  1  0  0  0  0
 19 11  2  0  0  0  0
 21 12  1  0  0  0  0
 13 12  1  0  0  0  0
 18 13  2  0  0  0  0
 14 13  1  0  0  0  0
 15 14  2  0  0  0  0
 16 15  1  0  0  0  0
 17 16  2  0  0  0  0
 18 17  1  0  0  0  0
 19 18  1  0  0  0  0
 20 19  1  0  0  0  0
 21 20  2  0  0  0  0
M  END
>  <cdx:fragmentId>
5

$$$$
