50271.cdx
  Mrv1902 05222410212D          

 23 26  0  0  0  0            999 V2000
    5.1499   -8.2543    0.0000 C   0  0  0  0  0  0  0  0  0  0  0  0
    5.4042   -7.4694    0.0000 C   0  0  0  0  0  0  0  0  0  0  0  0
    6.2292   -7.4688    0.0000 C   0  0  0  0  0  0  0  0  0  0  0  0
    6.4847   -8.2532    0.0000 C   0  0  0  0  0  0  0  0  0  0  0  0
    5.8177   -8.7387    0.0000 N   0  0  0  0  0  0  0  0  0  0  0  0
    4.3430   -8.4264    0.0000 C   0  0  0  0  0  0  0  0  0  0  0  0
    3.7905   -7.8138    0.0000 C   0  0  0  0  0  0  0  0  0  0  0  0
    4.0448   -7.0289    0.0000 C   0  0  0  0  0  0  0  0  0  0  0  0
    4.8516   -6.8568    0.0000 C   0  0  0  0  0  0  0  0  0  0  0  0
    6.7807   -6.8552    0.0000 C   0  0  0  0  0  0  0  0  0  0  0  0
    7.5878   -7.0261    0.0000 C   0  0  0  0  0  0  0  0  0  0  0  0
    7.8434   -7.8106    0.0000 N   0  0  0  0  0  0  0  0  0  0  0  0
    7.2918   -8.4241    0.0000 C   0  0  0  0  0  0  0  0  0  0  0  0
    9.7132   -8.9367    0.0000 C   0  0  0  0  0  0  0  0  0  0  0  0
    8.9061   -8.7659    0.0000 C   0  0  0  0  0  0  0  0  0  0  0  0
    9.9687   -9.7212    0.0000 C   0  0  0  0  0  0  0  0  0  0  0  0
    9.2020   -7.3679    0.0000 O   0  0  0  0  0  0  0  0  0  0  0  0
    9.4172  -10.3347    0.0000 C   0  0  0  0  0  0  0  0  0  0  0  0
    8.6101  -10.1638    0.0000 C   0  0  0  0  0  0  0  0  0  0  0  0
    8.3545   -9.3794    0.0000 C   0  0  0  0  0  0  0  0  0  0  0  0
    7.5474   -9.2085    0.0000 N   0  0  0  0  0  0  0  0  0  0  0  0
    8.6505   -7.9814    0.0000 C   0  0  0  0  0  0  0  0  0  0  0  0
    6.9640   -9.7919    0.0000 C   0  0  0  0  0  0  0  0  0  0  0  0
  1  2  1  0  0  0  0
  2  3  1  0  0  0  0
  3  4  2  0  0  0  0
  4  5  1  0  0  0  0
  5  1  1  0  0  0  0
  1  6  2  0  0  0  0
  6  7  1  0  0  0  0
  7  8  2  0  0  0  0
  8  9  1  0  0  0  0
  9  2  2  0  0  0  0
  3 10  1  0  0  0  0
 10 11  1  0  0  0  0
 11 12  1  0  0  0  0
 12 13  1  0  0  0  0
 13  4  1  0  0  0  0
 14 15  2  0  0  0  0
 22 17  2  0  0  0  0
 22 12  1  0  0  0  0
 14 16  1  0  0  0  0
 16 18  2  0  0  0  0
 18 19  1  0  0  0  0
 19 20  2  0  0  0  0
 20 15  1  0  0  0  0
 15 22  1  0  0  0  0
 20 21  1  0  0  0  0
 21 23  1  0  0  0  0
M  END
>  <cdx:fragmentId>
5

$$$$
