50278.cdx
  Mrv1902 05222410242D          

 35 38  0  0  0  0            999 V2000
    3.9031  -11.2326    0.0000 O   0  0  0  0  0  0  0  0  0  0  0  0
    4.6175  -12.4701    0.0000 O   0  0  0  0  0  0  0  0  0  0  0  0
    5.3320  -12.0576    0.0000 C   0  0  2  0  0  0  0  0  0  0  0  0
    5.3320  -11.2326    0.0000 C   0  0  1  0  0  0  0  0  0  0  0  0
    4.6175  -10.8201    0.0000 C   0  0  0  0  0  0  0  0  0  0  0  0
    6.0465  -12.4701    0.0000 C   0  0  1  0  0  0  0  0  0  0  0  0
    6.7609  -12.0576    0.0000 C   0  0  2  0  0  0  0  0  0  0  0  0
    6.7609  -11.2326    0.0000 C   0  0  1  0  0  0  0  0  0  0  0  0
    6.0465  -10.8201    0.0000 O   0  0  0  0  0  0  0  0  0  0  0  0
    7.4754  -10.8201    0.0000 O   0  0  0  0  0  0  0  0  0  0  0  0
    7.4754   -9.9951    0.0000 C   0  0  0  0  0  0  0  0  0  0  0  0
    6.7609   -9.5826    0.0000 C   0  0  0  0  0  0  0  0  0  0  0  0
    8.1899   -9.5826    0.0000 C   0  0  0  0  0  0  0  0  0  0  0  0
    8.1899   -8.7576    0.0000 C   0  0  0  0  0  0  0  0  0  0  0  0
    7.4754   -8.3451    0.0000 C   0  0  0  0  0  0  0  0  0  0  0  0
    6.7609   -8.7576    0.0000 C   0  0  0  0  0  0  0  0  0  0  0  0
    8.9044   -8.3451    0.0000 O   0  0  0  0  0  0  0  0  0  0  0  0
    8.9044   -7.5201    0.0000 C   0  0  0  0  0  0  0  0  0  0  0  0
    8.1899   -7.1076    0.0000 C   0  0  0  0  0  0  0  0  0  0  0  0
    7.4754   -7.5201    0.0000 C   0  0  0  0  0  0  0  0  0  0  0  0
    8.1899   -6.2826    0.0000 C   0  0  0  0  0  0  0  0  0  0  0  0
    7.4754   -5.8701    0.0000 C   0  0  0  0  0  0  0  0  0  0  0  0
    6.7609   -7.1076    0.0000 O   0  0  0  0  0  0  0  0  0  0  0  0
    8.9044   -5.8701    0.0000 C   0  0  0  0  0  0  0  0  0  0  0  0
    8.9044   -5.0451    0.0000 C   0  0  0  0  0  0  0  0  0  0  0  0
    8.1899   -4.6326    0.0000 C   0  0  0  0  0  0  0  0  0  0  0  0
    7.4754   -5.0451    0.0000 C   0  0  0  0  0  0  0  0  0  0  0  0
    8.1899   -3.8076    0.0000 O   0  0  0  0  0  0  0  0  0  0  0  0
    6.0465  -13.2951    0.0000 O   0  0  0  0  0  0  0  0  0  0  0  0
    7.4754  -12.4701    0.0000 O   0  0  0  0  0  0  0  0  0  0  0  0
    9.6188   -4.6326    0.0000 O   0  0  0  0  0  0  0  0  0  0  0  0
    9.6188   -3.8076    0.0000 C   0  0  0  0  0  0  0  0  0  0  0  0
    7.4754   -3.3951    0.0000 C   0  0  0  0  0  0  0  0  0  0  0  0
    6.7609   -3.8076    0.0000 C   0  0  0  0  0  0  0  0  0  0  0  0
    7.4754   -2.5701    0.0000 O   0  0  0  0  0  0  0  0  0  0  0  0
  3  2  1  6  0  0  0
  3  4  1  0  0  0  0
  4  5  1  1  0  0  0
  5  1  1  0  0  0  0
  3  6  1  0  0  0  0
  6  7  1  0  0  0  0
  7  8  1  0  0  0  0
  8  9  1  0  0  0  0
  9  4  1  0  0  0  0
  8 10  1  1  0  0  0
 10 11  1  0  0  0  0
 11 12  1  0  0  0  0
 11 13  2  0  0  0  0
 13 14  1  0  0  0  0
 14 15  2  0  0  0  0
 15 16  1  0  0  0  0
 16 12  2  0  0  0  0
 14 17  1  0  0  0  0
 17 18  1  0  0  0  0
 18 19  2  0  0  0  0
 19 20  1  0  0  0  0
 20 15  1  0  0  0  0
 19 21  1  0  0  0  0
 21 22  2  0  0  0  0
 23 20  2  0  0  0  0
 21 24  1  0  0  0  0
 24 25  2  0  0  0  0
 25 26  1  0  0  0  0
 26 27  2  0  0  0  0
 27 22  1  0  0  0  0
 26 28  1  0  0  0  0
  6 29  1  1  0  0  0
  7 30  1  6  0  0  0
 25 31  1  0  0  0  0
 31 32  1  0  0  0  0
 28 33  1  0  0  0  0
 33 34  1  0  0  0  0
 33 35  2  0  0  0  0
M  END
>  <cdx:fragmentId>
5

$$$$
