50270.cdx
  Mrv1902 05222410212D          

 40 46  0  0  0  0            999 V2000
    5.7049   -8.0105    0.0000 C   0  0  1  0  0  0  0  0  0  0  0  0
    5.7053   -8.8355    0.0000 C   0  0  1  0  0  0  0  0  0  0  0  0
    6.4199   -9.2477    0.0000 C   0  0  0  0  0  0  0  0  0  0  0  0
    7.1342   -8.8349    0.0000 C   0  0  1  0  0  0  0  0  0  0  0  0
    7.1338   -8.0099    0.0000 C   0  0  2  0  0  0  0  0  0  0  0  0
    6.4192   -7.5977    0.0000 C   0  0  2  0  0  0  0  0  0  0  0  0
    7.8481   -7.5970    0.0000 C   0  0  2  0  0  0  0  0  0  0  0  0
    7.8477   -6.7720    0.0000 C   0  0  1  0  0  0  0  0  0  0  0  0
    7.1331   -6.3599    0.0000 C   0  0  2  0  0  0  0  0  0  0  0  0
    6.4188   -6.7727    0.0000 C   0  0  0  0  0  0  0  0  0  0  0  0
    8.5628   -8.0092    0.0000 C   0  0  1  0  0  0  0  0  0  0  0  0
    9.2771   -7.5964    0.0000 C   0  0  0  0  0  0  0  0  0  0  0  0
    9.2767   -6.7714    0.0000 O   0  0  0  0  0  0  0  0  0  0  0  0
    8.5620   -6.3592    0.0000 C   0  0  1  0  0  0  0  0  0  0  0  0
    4.9202   -7.7559    0.0000 C   0  0  1  0  0  0  0  0  0  0  0  0
    4.4355   -8.4236    0.0000 O   0  0  0  0  0  0  0  0  0  0  0  0
    4.9208   -9.0908    0.0000 C   0  0  0  0  0  0  0  0  0  0  0  0
    6.1527   -7.3552    0.0000 C   0  0  0  0  0  0  0  0  0  0  0  0
    5.9808   -6.5483    0.0000 O   0  0  0  0  0  0  0  0  0  0  0  0
    5.1961   -6.2937    0.0000 C   0  0  0  0  0  0  0  0  0  0  0  0
    4.5832   -6.8460    0.0000 C   0  0  0  0  0  0  0  0  0  0  0  0
    4.9822   -5.4969    0.0000 O   0  0  0  0  0  0  0  0  0  0  0  0
    6.4203  -10.0727    0.0000 O   0  0  0  0  0  0  0  0  0  0  0  0
    9.9917   -8.0086    0.0000 O   0  0  0  0  0  0  0  0  0  0  0  0
    8.5617   -5.5342    0.0000 C   0  0  0  0  0  0  0  0  0  0  0  0
    9.2289   -5.0490    0.0000 C   0  0  0  0  0  0  0  0  0  0  0  0
    8.9736   -4.2645    0.0000 O   0  0  0  0  0  0  0  0  0  0  0  0
    8.1486   -4.2649    0.0000 C   0  0  0  0  0  0  0  0  0  0  0  0
    7.8940   -5.0496    0.0000 C   0  0  0  0  0  0  0  0  0  0  0  0
    7.8474   -5.9470    0.0000 C   0  0  0  0  0  0  0  0  0  0  0  0
    6.4196   -8.4227    0.0000 H   0  0  0  0  0  0  0  0  0  0  0  0
    4.1232   -7.5428    0.0000 H   0  0  0  0  0  0  0  0  0  0  0  0
    4.9342   -9.9157    0.0000 C   0  0  0  0  0  0  0  0  0  0  0  0
    4.2065   -9.5036    0.0000 C   0  0  0  0  0  0  0  0  0  0  0  0
    5.7056   -9.6605    0.0000 H   0  0  0  0  0  0  0  0  0  0  0  0
    7.1335   -7.1849    0.0000 C   0  0  0  0  0  0  0  0  0  0  0  0
    7.8485   -8.4220    0.0000 O   0  0  0  0  0  0  0  0  0  0  0  0
    7.8489   -9.2470    0.0000 O   0  0  0  0  0  0  0  0  0  0  0  0
    8.7893   -8.8025    0.0000 H   0  0  0  0  0  0  0  0  0  0  0  0
    7.1327   -5.5349    0.0000 O   0  0  0  0  0  0  0  0  0  0  0  0
  1  2  1  0  0  0  0
  2  3  1  0  0  0  0
  3  4  1  0  0  0  0
  4  5  1  0  0  0  0
  5  6  1  0  0  0  0
  6  1  1  0  0  0  0
  5  7  1  0  0  0  0
  7  8  1  0  0  0  0
  8  9  1  0  0  0  0
  9 10  1  0  0  0  0
 10  6  1  0  0  0  0
  7 11  1  0  0  0  0
 11 12  1  0  0  0  0
 12 13  1  0  0  0  0
 13 14  1  0  0  0  0
 14  8  1  0  0  0  0
  1 15  1  0  0  0  0
 15 16  1  0  0  0  0
 16 17  1  0  0  0  0
 17  2  1  0  0  0  0
  1 18  1  1  0  0  0
 18 19  1  0  0  0  0
 19 20  1  0  0  0  0
 20 21  1  0  0  0  0
 21 15  1  0  0  0  0
 20 22  2  0  0  0  0
  3 23  2  0  0  0  0
 12 24  2  0  0  0  0
 14 25  1  6  0  0  0
 25 26  2  0  0  0  0
 26 27  1  0  0  0  0
 27 28  1  0  0  0  0
 28 29  2  0  0  0  0
 29 25  1  0  0  0  0
  8 30  1  6  0  0  0
  6 31  1  6  0  0  0
 15 32  1  6  0  0  0
 17 33  1  0  0  0  0
 17 34  1  0  0  0  0
  2 35  1  6  0  0  0
  5 36  1  1  0  0  0
  7 37  1  1  0  0  0
 11 37  1  0  0  0  0
  4 38  1  1  0  0  0
 11 39  1  6  0  0  0
  9 40  1  6  0  0  0
M  END
>  <cdx:fragmentId>
5

$$$$
