50282.cdx
  Mrv1902 05222410252D          

 45 49  0  0  0  0            999 V2000
    3.5318  -12.0989    0.0000 C   0  0  0  0  0  0  0  0  0  0  0  0
    3.5318  -12.9239    0.0000 C   0  0  0  0  0  0  0  0  0  0  0  0
    4.2463  -13.3364    0.0000 C   0  0  0  0  0  0  0  0  0  0  0  0
    4.9607  -12.9239    0.0000 C   0  0  0  0  0  0  0  0  0  0  0  0
    4.9607  -12.0989    0.0000 C   0  0  2  0  0  0  0  0  0  0  0  0
    4.2463  -11.6864    0.0000 C   0  0  0  0  0  0  0  0  0  0  0  0
    5.6752  -13.3364    0.0000 C   0  0  0  0  0  0  0  0  0  0  0  0
    6.3897  -12.9239    0.0000 C   0  0  0  0  0  0  0  0  0  0  0  0
    6.3897  -12.0989    0.0000 C   0  0  0  0  0  0  0  0  0  0  0  0
    5.6752  -11.6864    0.0000 C   0  0  0  0  0  0  0  0  0  0  0  0
    7.1042  -11.6864    0.0000 C   0  0  1  0  0  0  0  0  0  0  0  0
    7.1042  -10.8614    0.0000 C   0  0  2  0  0  0  0  0  0  0  0  0
    6.3897  -10.4489    0.0000 C   0  0  0  0  0  0  0  0  0  0  0  0
    5.6752  -10.8614    0.0000 C   0  0  0  0  0  0  0  0  0  0  0  0
    7.8888  -11.9413    0.0000 C   0  0  0  0  0  0  0  0  0  0  0  0
    8.3737  -11.2739    0.0000 C   0  0  0  0  0  0  0  0  0  0  0  0
    7.8888  -10.6065    0.0000 C   0  0  2  0  0  0  0  0  0  0  0  0
    2.8173  -13.3364    0.0000 O   0  0  0  0  0  0  0  0  0  0  0  0
    8.1437   -9.8218    0.0000 C   0  0  2  0  0  0  0  0  0  0  0  0
    7.5604   -9.2385    0.0000 C   0  0  0  0  0  0  0  0  0  0  0  0
    9.1541   -8.8114    0.0000 C   0  0  0  0  0  0  0  0  0  0  0  0
    8.9406   -9.6083    0.0000 C   0  0  0  0  0  0  0  0  0  0  0  0
    4.6588  -14.0509    0.0000 C   0  0  0  0  0  0  0  0  0  0  0  0
    7.1042  -12.5114    0.0000 C   0  0  0  0  0  0  0  0  0  0  0  0
    7.1042  -10.0364    0.0000 C   0  0  0  0  0  0  0  0  0  0  0  0
    6.7635   -9.4520    0.0000 O   0  0  0  0  0  0  0  0  0  0  0  0
    7.7739   -8.4416    0.0000 O   0  0  0  0  0  0  0  0  0  0  0  0
    3.8338  -14.0509    0.0000 C   0  0  0  0  0  0  0  0  0  0  0  0
    4.9607  -11.2739    0.0000 C   0  0  0  0  0  0  0  0  0  0  0  0
    7.3779   -6.2856    0.0000 C   0  0  2  0  0  0  0  0  0  0  0  0
    6.5529   -6.2744    0.0000 C   0  0  2  0  0  0  0  0  0  0  0  0
    6.1307   -6.9831    0.0000 C   0  0  1  0  0  0  0  0  0  0  0  0
    6.5334   -7.7032    0.0000 C   0  0  2  0  0  0  0  0  0  0  0  0
    7.3584   -7.7144    0.0000 C   0  0  1  0  0  0  0  0  0  0  0  0
    7.7806   -7.0056    0.0000 O   0  0  0  0  0  0  0  0  0  0  0  0
    7.8001   -5.5768    0.0000 C   0  0  0  0  0  0  0  0  0  0  0  0
    5.3058   -6.9719    0.0000 O   0  0  0  0  0  0  0  0  0  0  0  0
    6.1112   -8.4119    0.0000 O   0  0  0  0  0  0  0  0  0  0  0  0
    6.1502   -5.5543    0.0000 O   0  0  0  0  0  0  0  0  0  0  0  0
    7.3973   -4.8568    0.0000 O   0  0  0  0  0  0  0  0  0  0  0  0
    8.6734  -10.3515    0.0000 H   0  0  0  0  0  0  0  0  0  0  0  0
    9.9510   -8.5979    0.0000 C   0  0  0  0  0  0  0  0  0  0  0  0
   10.1645   -7.8010    0.0000 C   0  0  0  0  0  0  0  0  0  0  0  0
   10.9614   -7.5875    0.0000 C   0  0  0  0  0  0  0  0  0  0  0  0
    9.5812   -7.2176    0.0000 C   0  0  0  0  0  0  0  0  0  0  0  0
  1  2  1  0  0  0  0
  2  3  1  0  0  0  0
  3  4  1  0  0  0  0
  4  5  1  0  0  0  0
  5  6  1  0  0  0  0
  6  1  1  0  0  0  0
  4  7  1  0  0  0  0
  7  8  1  0  0  0  0
  8  9  1  0  0  0  0
  9 10  2  0  0  0  0
 10  5  1  0  0  0  0
  9 11  1  0  0  0  0
 11 12  1  0  0  0  0
 12 13  1  0  0  0  0
 13 14  1  0  0  0  0
 14 10  1  0  0  0  0
 11 15  1  0  0  0  0
 15 16  1  0  0  0  0
 16 17  1  0  0  0  0
 17 12  1  0  0  0  0
  2 18  2  0  0  0  0
 17 19  1  0  0  0  0
 19 20  1  6  0  0  0
 19 22  1  0  0  0  0
 22 21  1  0  0  0  0
  3 23  1  0  0  0  0
 11 24  1  6  0  0  0
 12 25  1  1  0  0  0
 20 26  2  0  0  0  0
 20 27  1  0  0  0  0
  3 28  1  0  0  0  0
  5 29  1  1  0  0  0
 30 31  1  0  0  0  0
 31 32  1  0  0  0  0
 32 33  1  0  0  0  0
 33 34  1  0  0  0  0
 34 35  1  0  0  0  0
 35 30  1  0  0  0  0
 30 36  1  1  0  0  0
 32 37  1  1  0  0  0
 33 38  1  6  0  0  0
 31 39  1  6  0  0  0
 36 40  1  0  0  0  0
 34 27  1  1  0  0  0
 17 41  1  6  0  0  0
 21 42  1  0  0  0  0
 42 43  2  0  0  0  0
 43 44  1  0  0  0  0
 43 45  1  0  0  0  0
M  END
>  <cdx:fragmentId>
5

$$$$
