50285.cdx
  Mrv1902 05222410232D          

 36 39  0  0  0  0            999 V2000
    3.9856   -9.8851    0.0000 C   0  0  0  0  0  0  0  0  0  0  0  0
    3.9856  -10.7101    0.0000 C   0  0  1  0  0  0  0  0  0  0  0  0
    4.7000  -11.1226    0.0000 C   0  0  0  0  0  0  0  0  0  0  0  0
    5.4145  -10.7101    0.0000 C   0  0  1  0  0  0  0  0  0  0  0  0
    5.4145   -9.8851    0.0000 C   0  0  2  0  0  0  0  0  0  0  0  0
    4.7000   -9.4726    0.0000 C   0  0  0  0  0  0  0  0  0  0  0  0
    6.1290  -11.1226    0.0000 C   0  0  0  0  0  0  0  0  0  0  0  0
    6.8434  -10.7101    0.0000 C   0  0  0  0  0  0  0  0  0  0  0  0
    6.8434   -9.8851    0.0000 C   0  0  0  0  0  0  0  0  0  0  0  0
    6.1290   -9.4726    0.0000 C   0  0  0  0  0  0  0  0  0  0  0  0
    7.5579   -9.4726    0.0000 C   0  0  1  0  0  0  0  0  0  0  0  0
    7.5579   -8.6476    0.0000 C   0  0  2  0  0  0  0  0  0  0  0  0
    6.8434   -8.2351    0.0000 C   0  0  0  0  0  0  0  0  0  0  0  0
    6.1290   -8.6476    0.0000 C   0  0  0  0  0  0  0  0  0  0  0  0
    8.3425   -9.7276    0.0000 C   0  0  2  0  0  0  0  0  0  0  0  0
    8.8275   -9.0601    0.0000 C   0  0  0  0  0  0  0  0  0  0  0  0
    8.3425   -8.3927    0.0000 C   0  0  2  0  0  0  0  0  0  0  0  0
    3.2711  -11.1226    0.0000 O   0  0  0  0  0  0  0  0  0  0  0  0
    8.5975   -7.6081    0.0000 C   0  0  2  0  0  0  0  0  0  0  0  0
    8.0454   -6.9950    0.0000 C   0  0  0  0  0  0  0  0  0  0  0  0
    7.5579  -10.2976    0.0000 C   0  0  0  0  0  0  0  0  0  0  0  0
    8.5975  -10.5122    0.0000 O   0  0  0  0  0  0  0  0  0  0  0  0
    5.1125  -11.8371    0.0000 C   0  0  0  0  0  0  0  0  0  0  0  0
    4.2875  -11.8371    0.0000 C   0  0  0  0  0  0  0  0  0  0  0  0
    5.4145   -9.0601    0.0000 C   0  0  0  0  0  0  0  0  0  0  0  0
    7.5579   -7.8226    0.0000 C   0  0  0  0  0  0  0  0  0  0  0  0
   10.8106   -5.7671    0.0000 C   0  0  0  0  0  0  0  0  0  0  0  0
   10.5149   -6.5373    0.0000 C   0  0  0  0  0  0  0  0  0  0  0  0
    9.7001   -6.6664    0.0000 C   0  0  0  0  0  0  0  0  0  0  0  0
    9.4044   -7.4366    0.0000 C   0  0  0  0  0  0  0  0  0  0  0  0
   11.6254   -5.6380    0.0000 C   0  0  0  0  0  0  0  0  0  0  0  0
   10.2914   -5.1260    0.0000 C   0  0  0  0  0  0  0  0  0  0  0  0
   10.5871   -4.3557    0.0000 O   0  0  0  0  0  0  0  0  0  0  0  0
   11.9211   -4.8678    0.0000 O   0  0  0  0  0  0  0  0  0  0  0  0
    9.1272   -8.1378    0.0000 H   0  0  0  0  0  0  0  0  0  0  0  0
    5.4145  -11.5351    0.0000 H   0  0  0  0  0  0  0  0  0  0  0  0
  1  2  1  0  0  0  0
  2  3  1  0  0  0  0
  3  4  1  0  0  0  0
  4  5  1  0  0  0  0
  5  6  1  0  0  0  0
  6  1  1  0  0  0  0
  4  7  1  0  0  0  0
  7  8  1  0  0  0  0
  8  9  2  0  0  0  0
  9 10  1  0  0  0  0
 10  5  1  0  0  0  0
  9 11  1  0  0  0  0
 11 12  1  0  0  0  0
 12 13  1  0  0  0  0
 13 14  1  0  0  0  0
 14 10  2  0  0  0  0
 11 15  1  0  0  0  0
 15 16  1  0  0  0  0
 16 17  1  0  0  0  0
 17 12  1  0  0  0  0
  2 18  1  1  0  0  0
 17 19  1  0  0  0  0
 19 30  1  0  0  0  0
 19 20  1  6  0  0  0
 11 21  1  6  0  0  0
 15 22  1  6  0  0  0
  3 23  1  0  0  0  0
  3 24  1  0  0  0  0
  5 25  1  1  0  0  0
 12 26  1  1  0  0  0
 28 27  2  0  0  0  0
 29 28  1  0  0  0  0
 30 29  1  0  0  0  0
 27 31  1  0  0  0  0
 27 32  1  0  0  0  0
 32 33  1  0  0  0  0
 31 34  1  0  0  0  0
 17 35  1  6  0  0  0
  4 36  1  6  0  0  0
M  END
>  <cdx:fragmentId>
5

$$$$
