50284.cdx
  Mrv1902 05222410242D          

 38 41  0  0  0  0            999 V2000
    3.0368  -10.9851    0.0000 C   0  0  0  0  0  0  0  0  0  0  0  0
    3.0368  -11.8101    0.0000 C   0  0  1  0  0  0  0  0  0  0  0  0
    3.7513  -12.2226    0.0000 C   0  0  0  0  0  0  0  0  0  0  0  0
    4.4657  -11.8101    0.0000 C   0  0  1  0  0  0  0  0  0  0  0  0
    4.4657  -10.9851    0.0000 C   0  0  2  0  0  0  0  0  0  0  0  0
    3.7513  -10.5726    0.0000 C   0  0  0  0  0  0  0  0  0  0  0  0
    5.1802  -12.2226    0.0000 C   0  0  0  0  0  0  0  0  0  0  0  0
    5.8947  -11.8101    0.0000 C   0  0  0  0  0  0  0  0  0  0  0  0
    5.8947  -10.9851    0.0000 C   0  0  0  0  0  0  0  0  0  0  0  0
    5.1802  -10.5726    0.0000 C   0  0  0  0  0  0  0  0  0  0  0  0
    6.6092  -10.5726    0.0000 C   0  0  1  0  0  0  0  0  0  0  0  0
    6.6092   -9.7476    0.0000 C   0  0  2  0  0  0  0  0  0  0  0  0
    5.8947   -9.3351    0.0000 C   0  0  0  0  0  0  0  0  0  0  0  0
    5.1802   -9.7476    0.0000 C   0  0  0  0  0  0  0  0  0  0  0  0
    7.3938  -10.8276    0.0000 C   0  0  2  0  0  0  0  0  0  0  0  0
    7.8787  -10.1601    0.0000 C   0  0  0  0  0  0  0  0  0  0  0  0
    7.3938   -9.4927    0.0000 C   0  0  2  0  0  0  0  0  0  0  0  0
    2.3223  -12.2226    0.0000 O   0  0  0  0  0  0  0  0  0  0  0  0
    4.4657   -9.3351    0.0000 O   0  0  0  0  0  0  0  0  0  0  0  0
    7.6487  -11.6122    0.0000 O   0  0  0  0  0  0  0  0  0  0  0  0
    7.6487   -8.7081    0.0000 C   0  0  2  0  0  0  0  0  0  0  0  0
    7.0967   -8.0950    0.0000 C   0  0  0  0  0  0  0  0  0  0  0  0
    8.4557   -8.5366    0.0000 C   0  0  0  0  0  0  0  0  0  0  0  0
    8.7106   -7.7519    0.0000 C   0  0  0  0  0  0  0  0  0  0  0  0
    9.5176   -7.5804    0.0000 C   0  0  0  0  0  0  0  0  0  0  0  0
    9.7725   -6.7958    0.0000 C   0  0  0  0  0  0  0  0  0  0  0  0
    9.2205   -6.1827    0.0000 C   0  0  0  0  0  0  0  0  0  0  0  0
   10.5795   -6.6243    0.0000 C   0  0  0  0  0  0  0  0  0  0  0  0
   11.1315   -7.2374    0.0000 O   0  0  0  0  0  0  0  0  0  0  0  0
   10.8345   -5.8396    0.0000 O   0  0  0  0  0  0  0  0  0  0  0  0
    8.1784   -9.2378    0.0000 H   0  0  0  0  0  0  0  0  0  0  0  0
    4.4657  -12.6351    0.0000 H   0  0  0  0  0  0  0  0  0  0  0  0
    4.4657  -10.1601    0.0000 C   0  0  0  0  0  0  0  0  0  0  0  0
    4.1638  -12.9371    0.0000 C   0  0  0  0  0  0  0  0  0  0  0  0
    3.3388  -12.9371    0.0000 C   0  0  0  0  0  0  0  0  0  0  0  0
    6.6092   -8.9226    0.0000 C   0  0  0  0  0  0  0  0  0  0  0  0
    6.6092  -11.3976    0.0000 C   0  0  0  0  0  0  0  0  0  0  0  0
    8.1586   -7.1388    0.0000 O   0  0  0  0  0  0  0  0  0  0  0  0
  1  2  1  0  0  0  0
  2  3  1  0  0  0  0
  3  4  1  0  0  0  0
  4  5  1  0  0  0  0
  5  6  1  0  0  0  0
  6  1  1  0  0  0  0
  4  7  1  0  0  0  0
  7  8  1  0  0  0  0
  8  9  1  0  0  0  0
  9 10  2  0  0  0  0
 10  5  1  0  0  0  0
  9 11  1  0  0  0  0
 11 12  1  0  0  0  0
 12 13  1  0  0  0  0
 13 14  1  0  0  0  0
 14 10  1  0  0  0  0
 11 15  1  0  0  0  0
 15 16  1  0  0  0  0
 16 17  1  0  0  0  0
 17 12  1  0  0  0  0
  2 18  1  1  0  0  0
 14 19  2  0  0  0  0
 15 20  1  6  0  0  0
 17 21  1  0  0  0  0
 21 22  1  6  0  0  0
 21 23  1  0  0  0  0
 23 24  1  0  0  0  0
 24 25  1  0  0  0  0
 25 26  2  0  0  0  0
 26 27  1  0  0  0  0
 26 28  1  0  0  0  0
 28 29  2  0  0  0  0
 28 30  1  0  0  0  0
 17 31  1  6  0  0  0
  4 32  1  6  0  0  0
  5 33  1  1  0  0  0
  3 34  1  0  0  0  0
  3 35  1  0  0  0  0
 12 36  1  1  0  0  0
 11 37  1  6  0  0  0
 24 38  1  0  0  0  0
M  END
>  <cdx:fragmentId>
5

$$$$
