50286.cdx
  Mrv1902 05222410242D          

 39 42  0  0  0  0            999 V2000
    3.8618  -10.7651    0.0000 C   0  0  0  0  0  0  0  0  0  0  0  0
    3.8618  -11.5901    0.0000 C   0  0  1  0  0  0  0  0  0  0  0  0
    4.5763  -12.0026    0.0000 C   0  0  0  0  0  0  0  0  0  0  0  0
    5.2907  -11.5901    0.0000 C   0  0  1  0  0  0  0  0  0  0  0  0
    5.2907  -10.7651    0.0000 C   0  0  2  0  0  0  0  0  0  0  0  0
    4.5763  -10.3526    0.0000 C   0  0  0  0  0  0  0  0  0  0  0  0
    6.0052  -12.0026    0.0000 C   0  0  0  0  0  0  0  0  0  0  0  0
    6.7197  -11.5901    0.0000 C   0  0  0  0  0  0  0  0  0  0  0  0
    6.7197  -10.7651    0.0000 C   0  0  0  0  0  0  0  0  0  0  0  0
    6.0052  -10.3526    0.0000 C   0  0  0  0  0  0  0  0  0  0  0  0
    7.4342  -10.3526    0.0000 C   0  0  1  0  0  0  0  0  0  0  0  0
    7.4342   -9.5276    0.0000 C   0  0  2  0  0  0  0  0  0  0  0  0
    6.7197   -9.1151    0.0000 C   0  0  0  0  0  0  0  0  0  0  0  0
    6.0052   -9.5276    0.0000 C   0  0  0  0  0  0  0  0  0  0  0  0
    8.2188  -10.6076    0.0000 C   0  0  0  0  0  0  0  0  0  0  0  0
    8.7037   -9.9401    0.0000 C   0  0  0  0  0  0  0  0  0  0  0  0
    8.2188   -9.2727    0.0000 C   0  0  2  0  0  0  0  0  0  0  0  0
    7.4342  -12.0026    0.0000 O   0  0  0  0  0  0  0  0  0  0  0  0
    7.4342  -11.1776    0.0000 C   0  0  0  0  0  0  0  0  0  0  0  0
    4.9888  -12.7171    0.0000 C   0  0  0  0  0  0  0  0  0  0  0  0
    4.1638  -12.7171    0.0000 C   0  0  0  0  0  0  0  0  0  0  0  0
    3.1473  -12.0026    0.0000 O   0  0  0  0  0  0  0  0  0  0  0  0
    5.2907   -9.9401    0.0000 C   0  0  0  0  0  0  0  0  0  0  0  0
    7.4342   -8.7026    0.0000 C   0  0  0  0  0  0  0  0  0  0  0  0
    5.2907  -12.4151    0.0000 H   0  0  0  0  0  0  0  0  0  0  0  0
    8.4737   -8.4881    0.0000 C   0  0  2  0  0  0  0  0  0  0  0  0
    9.0034   -9.0178    0.0000 H   0  0  0  0  0  0  0  0  0  0  0  0
    7.9217   -7.8750    0.0000 C   0  0  0  0  0  0  0  0  0  0  0  0
    9.2807   -8.3166    0.0000 C   0  0  0  0  0  0  0  0  0  0  0  0
    9.5356   -7.5319    0.0000 C   0  0  1  0  0  0  0  0  0  0  0  0
   10.3426   -7.3604    0.0000 C   0  0  0  0  0  0  0  0  0  0  0  0
   10.5975   -6.5758    0.0000 C   0  0  0  0  0  0  0  0  0  0  0  0
   11.4045   -6.4043    0.0000 C   0  0  0  0  0  0  0  0  0  0  0  0
   11.9565   -7.0174    0.0000 O   0  0  0  0  0  0  0  0  0  0  0  0
   11.6595   -5.6196    0.0000 O   0  0  0  0  0  0  0  0  0  0  0  0
    5.2907   -9.1151    0.0000 O   0  0  0  0  0  0  0  0  0  0  0  0
    8.4737  -11.3922    0.0000 O   0  0  0  0  0  0  0  0  0  0  0  0
    8.9836   -6.9188    0.0000 O   0  0  0  0  0  0  0  0  0  0  0  0
   10.0455   -5.9627    0.0000 C   0  0  0  0  0  0  0  0  0  0  0  0
  1  2  1  0  0  0  0
  2  3  1  0  0  0  0
  3  4  1  0  0  0  0
  4  5  1  0  0  0  0
  5  6  1  0  0  0  0
  6  1  1  0  0  0  0
  4  7  1  0  0  0  0
  7  8  1  0  0  0  0
  8  9  1  0  0  0  0
  9 10  2  0  0  0  0
 10  5  1  0  0  0  0
  9 11  1  0  0  0  0
 11 12  1  0  0  0  0
 12 13  1  0  0  0  0
 13 14  1  0  0  0  0
 14 10  1  0  0  0  0
 11 15  1  0  0  0  0
 15 16  1  0  0  0  0
 16 17  1  0  0  0  0
 17 12  1  0  0  0  0
  8 18  2  0  0  0  0
 11 19  1  6  0  0  0
  3 20  1  0  0  0  0
  3 21  1  0  0  0  0
  2 22  1  1  0  0  0
  5 23  1  1  0  0  0
 12 24  1  1  0  0  0
  4 25  1  6  0  0  0
 17 26  1  0  0  0  0
 17 27  1  6  0  0  0
 26 28  1  6  0  0  0
 26 29  1  0  0  0  0
 29 30  1  0  0  0  0
 30 31  1  0  0  0  0
 31 32  2  0  0  0  0
 32 33  1  0  0  0  0
 33 34  2  0  0  0  0
 33 35  1  0  0  0  0
 14 36  2  0  0  0  0
 15 37  2  0  0  0  0
 30 38  1  6  0  0  0
 32 39  1  0  0  0  0
M  END
>  <cdx:fragmentId>
5

$$$$
