50288.cdx
  Mrv1902 05222410232D          

 35 38  0  0  0  0            999 V2000
    3.2706  -10.9714    0.0000 C   0  0  0  0  0  0  0  0  0  0  0  0
    3.2706  -11.7964    0.0000 C   0  0  2  0  0  0  0  0  0  0  0  0
    3.9850  -12.2089    0.0000 C   0  0  0  0  0  0  0  0  0  0  0  0
    4.6995  -11.7964    0.0000 C   0  0  0  0  0  0  0  0  0  0  0  0
    4.6995  -10.9714    0.0000 C   0  0  2  0  0  0  0  0  0  0  0  0
    3.9850  -10.5589    0.0000 C   0  0  0  0  0  0  0  0  0  0  0  0
    5.4140  -12.2089    0.0000 C   0  0  0  0  0  0  0  0  0  0  0  0
    6.1284  -11.7964    0.0000 C   0  0  0  0  0  0  0  0  0  0  0  0
    6.1284  -10.9714    0.0000 C   0  0  2  0  0  0  0  0  0  0  0  0
    5.4140  -10.5589    0.0000 C   0  0  2  0  0  0  0  0  0  0  0  0
    6.8429  -10.5589    0.0000 C   0  0  1  0  0  0  0  0  0  0  0  0
    6.8429   -9.7339    0.0000 C   0  0  2  0  0  0  0  0  0  0  0  0
    6.1284   -9.3214    0.0000 C   0  0  0  0  0  0  0  0  0  0  0  0
    5.4140   -9.7339    0.0000 C   0  0  0  0  0  0  0  0  0  0  0  0
    7.6275  -10.8138    0.0000 C   0  0  0  0  0  0  0  0  0  0  0  0
    8.1125  -10.1464    0.0000 C   0  0  0  0  0  0  0  0  0  0  0  0
    7.6275   -9.4790    0.0000 C   0  0  2  0  0  0  0  0  0  0  0  0
    7.8825   -8.6943    0.0000 C   0  0  1  0  0  0  0  0  0  0  0  0
    8.6894   -8.5228    0.0000 C   0  0  0  0  0  0  0  0  0  0  0  0
    7.3304   -8.0812    0.0000 C   0  0  0  0  0  0  0  0  0  0  0  0
    8.9030   -7.7259    0.0000 C   0  0  0  0  0  0  0  0  0  0  0  0
    8.3196   -7.1426    0.0000 H   0  0  0  0  0  0  0  0  0  0  0  0
    9.6999   -7.5124    0.0000 C   0  0  1  0  0  0  0  0  0  0  0  0
    9.9134   -6.7155    0.0000 C   0  0  0  0  0  0  0  0  0  0  0  0
   10.2832   -8.0958    0.0000 C   0  0  0  0  0  0  0  0  0  0  0  0
   10.7103   -6.5020    0.0000 C   0  0  0  0  0  0  0  0  0  0  0  0
    9.3300   -6.1321    0.0000 C   0  0  0  0  0  0  0  0  0  0  0  0
    8.4244   -9.2654    0.0000 H   0  0  0  0  0  0  0  0  0  0  0  0
    9.2573   -9.1212    0.0000 H   0  0  0  0  0  0  0  0  0  0  0  0
    2.5561  -12.2089    0.0000 O   0  0  0  0  0  0  0  0  0  0  0  0
    6.1284  -10.1464    0.0000 H   0  0  0  0  0  0  0  0  0  0  0  0
    7.2554  -11.2734    0.0000 H   0  0  0  0  0  0  0  0  0  0  0  0
    7.0564   -8.9370    0.0000 C   0  0  0  0  0  0  0  0  0  0  0  0
    6.7118  -11.5548    0.0000 H   0  0  0  0  0  0  0  0  0  0  0  0
    4.6995  -10.1464    0.0000 C   0  0  0  0  0  0  0  0  0  0  0  0
  1  2  1  0  0  0  0
  2  3  1  0  0  0  0
  3  4  2  0  0  0  0
  4  5  1  0  0  0  0
  5  6  1  0  0  0  0
  6  1  1  0  0  0  0
  4  7  1  0  0  0  0
  7  8  2  0  0  0  0
  8  9  1  0  0  0  0
  9 10  1  0  0  0  0
 10  5  1  0  0  0  0
  9 11  1  0  0  0  0
 11 12  1  0  0  0  0
 12 13  1  0  0  0  0
 13 14  1  0  0  0  0
 14 10  1  0  0  0  0
 11 15  1  0  0  0  0
 15 16  1  0  0  0  0
 16 17  1  0  0  0  0
 17 12  1  0  0  0  0
 17 18  1  0  0  0  0
 18 19  1  0  0  0  0
 18 20  1  6  0  0  0
 19 21  2  0  0  0  0
 21 22  1  0  0  0  0
 21 23  1  0  0  0  0
 23 24  1  0  0  0  0
 23 25  1  1  0  0  0
 24 26  1  0  0  0  0
 24 27  1  0  0  0  0
 17 28  1  6  0  0  0
 19 29  1  0  0  0  0
  2 30  1  6  0  0  0
 10 31  1  6  0  0  0
 11 32  1  6  0  0  0
 12 33  1  1  0  0  0
  9 34  1  1  0  0  0
  5 35  1  1  0  0  0
M  END
>  <cdx:fragmentId>
5

$$$$
