50287.cdx
  Mrv1902 05222410242D          

 37 40  0  0  0  0            999 V2000
    3.0643  -11.5351    0.0000 C   0  0  0  0  0  0  0  0  0  0  0  0
    3.0643  -12.3601    0.0000 C   0  0  0  0  0  0  0  0  0  0  0  0
    3.7788  -12.7726    0.0000 C   0  0  0  0  0  0  0  0  0  0  0  0
    4.4932  -12.3601    0.0000 C   0  0  1  0  0  0  0  0  0  0  0  0
    4.4932  -11.5351    0.0000 C   0  0  2  0  0  0  0  0  0  0  0  0
    3.7788  -11.1226    0.0000 C   0  0  0  0  0  0  0  0  0  0  0  0
    5.2077  -12.7726    0.0000 C   0  0  0  0  0  0  0  0  0  0  0  0
    5.9222  -12.3601    0.0000 C   0  0  0  0  0  0  0  0  0  0  0  0
    5.9222  -11.5351    0.0000 C   0  0  0  0  0  0  0  0  0  0  0  0
    5.2077  -11.1226    0.0000 C   0  0  0  0  0  0  0  0  0  0  0  0
    6.6367  -11.1226    0.0000 C   0  0  1  0  0  0  0  0  0  0  0  0
    6.6367  -10.2976    0.0000 C   0  0  2  0  0  0  0  0  0  0  0  0
    5.9222   -9.8851    0.0000 C   0  0  0  0  0  0  0  0  0  0  0  0
    5.2077  -10.2976    0.0000 C   0  0  0  0  0  0  0  0  0  0  0  0
    7.4213  -11.3776    0.0000 C   0  0  2  0  0  0  0  0  0  0  0  0
    7.9062  -10.7101    0.0000 C   0  0  0  0  0  0  0  0  0  0  0  0
    7.4213  -10.0427    0.0000 C   0  0  2  0  0  0  0  0  0  0  0  0
    6.6367  -11.9476    0.0000 C   0  0  0  0  0  0  0  0  0  0  0  0
    4.1913  -13.4871    0.0000 C   0  0  0  0  0  0  0  0  0  0  0  0
    3.3663  -13.4871    0.0000 C   0  0  0  0  0  0  0  0  0  0  0  0
    2.3498  -12.7726    0.0000 O   0  0  0  0  0  0  0  0  0  0  0  0
    4.4932  -10.7101    0.0000 C   0  0  0  0  0  0  0  0  0  0  0  0
    6.6367   -9.4726    0.0000 C   0  0  0  0  0  0  0  0  0  0  0  0
    7.6762  -12.1622    0.0000 O   0  0  0  0  0  0  0  0  0  0  0  0
    7.6762   -9.2581    0.0000 C   0  0  2  0  0  0  0  0  0  0  0  0
    7.1242   -8.6450    0.0000 C   0  0  0  0  0  0  0  0  0  0  0  0
    8.4832   -9.0866    0.0000 C   0  0  0  0  0  0  0  0  0  0  0  0
    8.7381   -8.3019    0.0000 C   0  0  0  0  0  0  0  0  0  0  0  0
    8.1861   -7.6888    0.0000 O   0  0  0  0  0  0  0  0  0  0  0  0
    9.5451   -8.1304    0.0000 C   0  0  0  0  0  0  0  0  0  0  0  0
    9.8000   -7.3458    0.0000 C   0  0  0  0  0  0  0  0  0  0  0  0
    9.2480   -6.7327    0.0000 C   0  0  0  0  0  0  0  0  0  0  0  0
   10.6070   -7.1743    0.0000 C   0  0  0  0  0  0  0  0  0  0  0  0
   11.1590   -7.7874    0.0000 O   0  0  0  0  0  0  0  0  0  0  0  0
   10.8620   -6.3896    0.0000 O   0  0  0  0  0  0  0  0  0  0  0  0
    8.2059   -9.7878    0.0000 H   0  0  0  0  0  0  0  0  0  0  0  0
    4.4932  -13.1851    0.0000 H   0  0  0  0  0  0  0  0  0  0  0  0
  1  2  1  0  0  0  0
  2  3  1  0  0  0  0
  3  4  1  0  0  0  0
  4  5  1  0  0  0  0
  5  6  1  0  0  0  0
  6  1  1  0  0  0  0
  4  7  1  0  0  0  0
  7  8  1  0  0  0  0
  8  9  2  0  0  0  0
  9 10  1  0  0  0  0
 10  5  1  0  0  0  0
  9 11  1  0  0  0  0
 11 12  1  0  0  0  0
 12 13  1  0  0  0  0
 13 14  1  0  0  0  0
 14 10  2  0  0  0  0
 11 15  1  0  0  0  0
 15 16  1  0  0  0  0
 16 17  1  0  0  0  0
 17 12  1  0  0  0  0
 11 18  1  6  0  0  0
  3 19  1  0  0  0  0
  3 20  1  0  0  0  0
  5 22  1  1  0  0  0
 12 23  1  1  0  0  0
  2 21  2  0  0  0  0
 15 24  1  6  0  0  0
 17 25  1  0  0  0  0
 25 26  1  6  0  0  0
 25 27  1  0  0  0  0
 27 28  1  0  0  0  0
 28 29  1  0  0  0  0
 28 30  1  0  0  0  0
 30 31  2  0  0  0  0
 31 32  1  0  0  0  0
 31 33  1  0  0  0  0
 33 34  2  0  0  0  0
 33 35  1  0  0  0  0
 17 36  1  6  0  0  0
  4 37  1  6  0  0  0
M  END
>  <cdx:fragmentId>
5

$$$$
