50281.cdx
  Mrv1902 05222410262D          

 44 48  0  0  0  0            999 V2000
    6.5087   -6.5645    0.0000 C   0  0  0  0  0  0  0  0  0  0  0  0
    6.5087   -7.3895    0.0000 C   0  0  0  0  0  0  0  0  0  0  0  0
    7.2231   -7.8020    0.0000 C   0  0  0  0  0  0  0  0  0  0  0  0
    7.9376   -7.3895    0.0000 C   0  0  0  0  0  0  0  0  0  0  0  0
    7.9376   -6.5645    0.0000 C   0  0  0  0  0  0  0  0  0  0  0  0
    7.2231   -6.1520    0.0000 C   0  0  0  0  0  0  0  0  0  0  0  0
    8.6521   -7.8020    0.0000 C   0  0  0  0  0  0  0  0  0  0  0  0
    9.3666   -7.3895    0.0000 C   0  0  0  0  0  0  0  0  0  0  0  0
    9.3666   -6.5645    0.0000 C   0  0  0  0  0  0  0  0  0  0  0  0
    8.6521   -6.1520    0.0000 O   0  0  0  0  0  0  0  0  0  0  0  0
   10.0810   -7.8020    0.0000 C   0  0  0  0  0  0  0  0  0  0  0  0
   10.7955   -7.3895    0.0000 C   0  0  0  0  0  0  0  0  0  0  0  0
   10.0810   -8.6270    0.0000 C   0  0  0  0  0  0  0  0  0  0  0  0
   10.7955   -9.0395    0.0000 C   0  0  0  0  0  0  0  0  0  0  0  0
   11.5100   -8.6270    0.0000 C   0  0  0  0  0  0  0  0  0  0  0  0
   11.5100   -7.8020    0.0000 C   0  0  0  0  0  0  0  0  0  0  0  0
    5.7942   -6.1520    0.0000 O   0  0  0  0  0  0  0  0  0  0  0  0
    5.7942   -7.8020    0.0000 O   0  0  0  0  0  0  0  0  0  0  0  0
    7.2231   -8.6270    0.0000 O   0  0  0  0  0  0  0  0  0  0  0  0
    8.6521   -8.6270    0.0000 O   0  0  0  0  0  0  0  0  0  0  0  0
   12.2244   -9.0395    0.0000 O   0  0  0  0  0  0  0  0  0  0  0  0
   12.9389   -8.6270    0.0000 C   0  0  0  0  0  0  0  0  0  0  0  0
    6.4928   -4.0855    0.0000 C   0  0  2  0  0  0  0  0  0  0  0  0
    5.7767   -3.6757    0.0000 C   0  0  2  0  0  0  0  0  0  0  0  0
    5.0638   -4.0909    0.0000 C   0  0  1  0  0  0  0  0  0  0  0  0
    5.0670   -4.9159    0.0000 C   0  0  2  0  0  0  0  0  0  0  0  0
    5.7830   -5.3257    0.0000 C   0  0  1  0  0  0  0  0  0  0  0  0
    6.4959   -4.9105    0.0000 O   0  0  0  0  0  0  0  0  0  0  0  0
    7.2057   -3.6703    0.0000 C   0  0  0  0  0  0  0  0  0  0  0  0
    4.3478   -3.6811    0.0000 O   0  0  0  0  0  0  0  0  0  0  0  0
    5.7736   -2.8507    0.0000 O   0  0  0  0  0  0  0  0  0  0  0  0
    4.3541   -5.3311    0.0000 O   0  0  0  0  0  0  0  0  0  0  0  0
    7.2025   -2.8453    0.0000 O   0  0  0  0  0  0  0  0  0  0  0  0
    3.7543   -7.0527    0.0000 C   0  0  2  0  0  0  0  0  0  0  0  0
    3.3252   -7.7573    0.0000 C   0  0  2  0  0  0  0  0  0  0  0  0
    3.7209   -8.4812    0.0000 C   0  0  1  0  0  0  0  0  0  0  0  0
    4.5456   -8.5005    0.0000 C   0  0  2  0  0  0  0  0  0  0  0  0
    4.9747   -7.7959    0.0000 C   0  0  1  0  0  0  0  0  0  0  0  0
    4.5790   -7.0720    0.0000 O   0  0  0  0  0  0  0  0  0  0  0  0
    3.3586   -6.3288    0.0000 C   0  0  0  0  0  0  0  0  0  0  0  0
    3.2918   -9.1859    0.0000 O   0  0  0  0  0  0  0  0  0  0  0  0
    2.5004   -7.7380    0.0000 O   0  0  0  0  0  0  0  0  0  0  0  0
    4.9413   -9.2244    0.0000 O   0  0  0  0  0  0  0  0  0  0  0  0
    2.5338   -6.3095    0.0000 O   0  0  0  0  0  0  0  0  0  0  0  0
  1  2  1  0  0  0  0
  2  3  2  0  0  0  0
  3  4  1  0  0  0  0
  4  5  2  0  0  0  0
  5  6  1  0  0  0  0
  6  1  2  0  0  0  0
  4  7  1  0  0  0  0
  7  8  1  0  0  0  0
  8  9  2  0  0  0  0
  9 10  1  0  0  0  0
 10  5  1  0  0  0  0
  8 11  1  0  0  0  0
 11 12  1  0  0  0  0
 11 13  2  0  0  0  0
 13 14  1  0  0  0  0
 14 15  2  0  0  0  0
 15 16  1  0  0  0  0
 16 12  2  0  0  0  0
  1 17  1  0  0  0  0
  2 18  1  0  0  0  0
  3 19  1  0  0  0  0
  7 20  2  0  0  0  0
 15 21  1  0  0  0  0
 21 22  1  0  0  0  0
 23 24  1  0  0  0  0
 24 25  1  0  0  0  0
 25 26  1  0  0  0  0
 26 27  1  0  0  0  0
 27 28  1  0  0  0  0
 28 23  1  0  0  0  0
 23 29  1  1  0  0  0
 25 30  1  1  0  0  0
 24 31  1  6  0  0  0
 26 32  1  6  0  0  0
 29 33  1  0  0  0  0
 34 35  1  0  0  0  0
 35 36  1  0  0  0  0
 36 37  1  0  0  0  0
 37 38  1  0  0  0  0
 38 39  1  0  0  0  0
 39 34  1  0  0  0  0
 34 40  1  1  0  0  0
 36 41  1  1  0  0  0
 35 42  1  6  0  0  0
 37 43  1  6  0  0  0
 40 44  1  0  0  0  0
 27 17  1  1  0  0  0
 38 18  1  1  0  0  0
M  END
>  <cdx:fragmentId>
5

$$$$
