50298.cdx
  Mrv1902 05222410202D          

 44 48  0  0  0  0            999 V2000
    5.8677  -12.1401    0.0000 O   0  0  0  0  0  0  0  0  0  0  0  0
    5.8677  -11.3151    0.0000 C   0  0  0  0  0  0  0  0  0  0  0  0
    5.1532  -10.9026    0.0000 C   0  0  0  0  0  0  0  0  0  0  0  0
    6.5822  -10.9026    0.0000 C   0  0  0  0  0  0  0  0  0  0  0  0
    6.5822  -10.0776    0.0000 C   0  0  0  0  0  0  0  0  0  0  0  0
    5.8677   -9.6651    0.0000 C   0  0  0  0  0  0  0  0  0  0  0  0
    5.1532  -10.0776    0.0000 C   0  0  0  0  0  0  0  0  0  0  0  0
    7.2967   -9.6651    0.0000 O   0  0  0  0  0  0  0  0  0  0  0  0
    7.2967   -8.8401    0.0000 C   0  0  0  0  0  0  0  0  0  0  0  0
    6.5822   -8.4276    0.0000 C   0  0  0  0  0  0  0  0  0  0  0  0
    5.8677   -8.8401    0.0000 C   0  0  0  0  0  0  0  0  0  0  0  0
    8.0111   -8.4276    0.0000 C   0  0  0  0  0  0  0  0  0  0  0  0
    8.0111   -7.6026    0.0000 C   0  0  0  0  0  0  0  0  0  0  0  0
    6.5822   -7.6026    0.0000 O   0  0  0  0  0  0  0  0  0  0  0  0
    8.7256   -8.8401    0.0000 C   0  0  0  0  0  0  0  0  0  0  0  0
    9.4401   -8.4276    0.0000 C   0  0  0  0  0  0  0  0  0  0  0  0
    9.4401   -7.6026    0.0000 C   0  0  0  0  0  0  0  0  0  0  0  0
    8.7256   -7.1901    0.0000 C   0  0  0  0  0  0  0  0  0  0  0  0
    4.4388   -9.6651    0.0000 O   0  0  0  0  0  0  0  0  0  0  0  0
    5.1532   -8.4276    0.0000 O   0  0  0  0  0  0  0  0  0  0  0  0
   10.1545   -7.1901    0.0000 O   0  0  0  0  0  0  0  0  0  0  0  0
   10.1545   -8.8401    0.0000 O   0  0  0  0  0  0  0  0  0  0  0  0
    3.7398  -12.5526    0.0000 C   0  0  2  0  0  0  0  0  0  0  0  0
    3.7398  -13.3776    0.0000 C   0  0  2  0  0  0  0  0  0  0  0  0
    4.4543  -13.7901    0.0000 C   0  0  1  0  0  0  0  0  0  0  0  0
    5.1688  -13.3776    0.0000 C   0  0  2  0  0  0  0  0  0  0  0  0
    5.1688  -12.5526    0.0000 C   0  0  1  0  0  0  0  0  0  0  0  0
    4.4543  -12.1401    0.0000 O   0  0  0  0  0  0  0  0  0  0  0  0
    3.0253  -12.1401    0.0000 C   0  0  0  0  0  0  0  0  0  0  0  0
    4.4543  -14.6151    0.0000 O   0  0  0  0  0  0  0  0  0  0  0  0
    3.0253  -13.7901    0.0000 O   0  0  0  0  0  0  0  0  0  0  0  0
    5.8832  -13.7901    0.0000 O   0  0  0  0  0  0  0  0  0  0  0  0
    2.3109  -12.5526    0.0000 O   0  0  0  0  0  0  0  0  0  0  0  0
   10.8794   -5.1312    0.0000 C   0  0  2  0  0  0  0  0  0  0  0  0
   10.1654   -4.7180    0.0000 C   0  0  2  0  0  0  0  0  0  0  0  0
    9.4505   -5.1297    0.0000 C   0  0  1  0  0  0  0  0  0  0  0  0
    9.4496   -5.9547    0.0000 C   0  0  2  0  0  0  0  0  0  0  0  0
   10.1636   -6.3680    0.0000 C   0  0  1  0  0  0  0  0  0  0  0  0
   10.8786   -5.9562    0.0000 O   0  0  0  0  0  0  0  0  0  0  0  0
   11.5943   -4.7195    0.0000 C   0  0  0  0  0  0  0  0  0  0  0  0
    8.7364   -4.7165    0.0000 O   0  0  0  0  0  0  0  0  0  0  0  0
   10.1662   -3.8930    0.0000 O   0  0  0  0  0  0  0  0  0  0  0  0
    8.7347   -6.3665    0.0000 O   0  0  0  0  0  0  0  0  0  0  0  0
   11.5952   -3.8945    0.0000 O   0  0  0  0  0  0  0  0  0  0  0  0
  1  2  1  0  0  0  0
  2  3  2  0  0  0  0
  2  4  1  0  0  0  0
  4  5  2  0  0  0  0
  5  6  1  0  0  0  0
  6  7  2  0  0  0  0
  7  3  1  0  0  0  0
  5  8  1  0  0  0  0
  8  9  1  0  0  0  0
  9 10  2  0  0  0  0
 10 11  1  0  0  0  0
 11  6  1  0  0  0  0
  9 12  1  0  0  0  0
 12 13  1  0  0  0  0
 14 10  1  0  0  0  0
 12 15  2  0  0  0  0
 15 16  1  0  0  0  0
 16 17  2  0  0  0  0
 17 18  1  0  0  0  0
 18 13  2  0  0  0  0
  7 19  1  0  0  0  0
 11 20  2  0  0  0  0
 17 21  1  0  0  0  0
 16 22  1  0  0  0  0
 23 24  1  0  0  0  0
 24 25  1  0  0  0  0
 25 26  1  0  0  0  0
 26 27  1  0  0  0  0
 27 28  1  0  0  0  0
 28 23  1  0  0  0  0
 23 29  1  1  0  0  0
 25 30  1  1  0  0  0
 24 31  1  6  0  0  0
 26 32  1  6  0  0  0
 29 33  1  0  0  0  0
 34 35  1  0  0  0  0
 35 36  1  0  0  0  0
 36 37  1  0  0  0  0
 37 38  1  0  0  0  0
 38 39  1  0  0  0  0
 39 34  1  0  0  0  0
 34 40  1  1  0  0  0
 36 41  1  1  0  0  0
 35 42  1  6  0  0  0
 37 43  1  6  0  0  0
 40 44  1  0  0  0  0
 27  1  1  1  0  0  0
 38 21  1  1  0  0  0
M  END
>  <cdx:fragmentId>
148

$$$$
