50296.cdx
  Mrv1902 05222410252D          

 44 48  0  0  0  0            999 V2000
    8.0418   -8.7714    0.0000 C   0  0  0  0  0  0  0  0  0  0  0  0
    8.0418   -9.5964    0.0000 C   0  0  0  0  0  0  0  0  0  0  0  0
    8.7563  -10.0089    0.0000 C   0  0  0  0  0  0  0  0  0  0  0  0
    9.4707   -9.5964    0.0000 C   0  0  0  0  0  0  0  0  0  0  0  0
    9.4707   -8.7714    0.0000 C   0  0  0  0  0  0  0  0  0  0  0  0
    8.7563   -8.3589    0.0000 C   0  0  0  0  0  0  0  0  0  0  0  0
   10.1852  -10.0089    0.0000 C   0  0  0  0  0  0  0  0  0  0  0  0
   10.8997   -9.5964    0.0000 C   0  0  0  0  0  0  0  0  0  0  0  0
   10.8997   -8.7714    0.0000 C   0  0  0  0  0  0  0  0  0  0  0  0
   10.1852   -8.3589    0.0000 O   0  0  0  0  0  0  0  0  0  0  0  0
    8.7563  -10.8339    0.0000 O   0  0  0  0  0  0  0  0  0  0  0  0
   10.1852  -10.8339    0.0000 O   0  0  0  0  0  0  0  0  0  0  0  0
   11.6142  -10.0089    0.0000 O   0  0  0  0  0  0  0  0  0  0  0  0
   12.3286   -8.7714    0.0000 C   0  0  0  0  0  0  0  0  0  0  0  0
   11.6142   -8.3589    0.0000 C   0  0  0  0  0  0  0  0  0  0  0  0
   13.0431   -8.3589    0.0000 C   0  0  0  0  0  0  0  0  0  0  0  0
   13.0431   -7.5339    0.0000 C   0  0  0  0  0  0  0  0  0  0  0  0
   12.3286   -7.1214    0.0000 C   0  0  0  0  0  0  0  0  0  0  0  0
   11.6142   -7.5339    0.0000 C   0  0  0  0  0  0  0  0  0  0  0  0
    7.3273   -8.3589    0.0000 O   0  0  0  0  0  0  0  0  0  0  0  0
   13.7576   -7.1214    0.0000 O   0  0  0  0  0  0  0  0  0  0  0  0
   12.3286   -6.2964    0.0000 O   0  0  0  0  0  0  0  0  0  0  0  0
    5.9021   -8.3414    0.0000 O   0  0  0  0  0  0  0  0  0  0  0  0
    5.1861   -8.7512    0.0000 C   0  0  1  0  0  0  0  0  0  0  0  0
    5.1830   -9.5762    0.0000 C   0  0  2  0  0  0  0  0  0  0  0  0
    5.8959   -9.9914    0.0000 C   0  0  1  0  0  0  0  0  0  0  0  0
    6.6119   -9.5816    0.0000 C   0  0  2  0  0  0  0  0  0  0  0  0
    6.6150   -8.7566    0.0000 C   0  0  2  0  0  0  0  0  0  0  0  0
    4.4732   -8.3360    0.0000 C   0  0  0  0  0  0  0  0  0  0  0  0
    3.7572   -8.7458    0.0000 O   0  0  0  0  0  0  0  0  0  0  0  0
    4.4670   -9.9860    0.0000 O   0  0  0  0  0  0  0  0  0  0  0  0
    3.0474   -7.5056    0.0000 O   0  0  0  0  0  0  0  0  0  0  0  0
    3.0443   -8.3306    0.0000 C   0  0  2  0  0  0  0  0  0  0  0  0
    2.3345   -7.0904    0.0000 C   0  0  1  0  0  0  0  0  0  0  0  0
    1.6185   -7.5002    0.0000 C   0  0  2  0  0  0  0  0  0  0  0  0
    1.6153   -8.3252    0.0000 C   0  0  1  0  0  0  0  0  0  0  0  0
    2.3282   -8.7404    0.0000 C   0  0  1  0  0  0  0  0  0  0  0  0
    5.8928  -10.8164    0.0000 O   0  0  0  0  0  0  0  0  0  0  0  0
    2.3376   -6.2654    0.0000 C   0  0  0  0  0  0  0  0  0  0  0  0
    0.8993   -8.7350    0.0000 O   0  0  0  0  0  0  0  0  0  0  0  0
    7.3248   -9.9968    0.0000 O   0  0  0  0  0  0  0  0  0  0  0  0
    2.3251   -9.5654    0.0000 O   0  0  0  0  0  0  0  0  0  0  0  0
    0.9055   -7.0850    0.0000 O   0  0  0  0  0  0  0  0  0  0  0  0
    1.6247   -5.8502    0.0000 O   0  0  0  0  0  0  0  0  0  0  0  0
  1  2  2  0  0  0  0
  2  3  1  0  0  0  0
  3  4  2  0  0  0  0
  4  5  1  0  0  0  0
  5  6  2  0  0  0  0
  6  1  1  0  0  0  0
  4  7  1  0  0  0  0
  7  8  1  0  0  0  0
  8  9  2  0  0  0  0
  9 10  1  0  0  0  0
 10  5  1  0  0  0  0
  3 11  1  0  0  0  0
 12  7  2  0  0  0  0
  8 13  1  0  0  0  0
 14 15  2  0  0  0  0
 15  9  1  0  0  0  0
 14 16  1  0  0  0  0
 16 17  2  0  0  0  0
 17 18  1  0  0  0  0
 18 19  2  0  0  0  0
 19 15  1  0  0  0  0
  1 20  1  0  0  0  0
 17 21  1  0  0  0  0
 18 22  1  0  0  0  0
 23 24  1  0  0  0  0
 24 25  1  0  0  0  0
 25 26  1  0  0  0  0
 26 27  1  0  0  0  0
 27 28  1  0  0  0  0
 28 23  1  0  0  0  0
 24 29  1  1  0  0  0
 29 30  1  0  0  0  0
 25 31  1  6  0  0  0
 32 33  1  0  0  0  0
 33 30  1  1  0  0  0
 32 34  1  0  0  0  0
 34 35  1  0  0  0  0
 35 36  1  0  0  0  0
 36 37  1  0  0  0  0
 37 33  1  0  0  0  0
 26 38  1  1  0  0  0
 34 39  1  1  0  0  0
 36 40  1  1  0  0  0
 27 41  1  6  0  0  0
 37 42  1  6  0  0  0
 35 43  1  6  0  0  0
 39 44  1  0  0  0  0
 28 20  1  1  0  0  0
M  END
>  <cdx:fragmentId>
5

$$$$
