50290.cdx
  Mrv1902 05222410242D          

 16 17  0  0  0  0            999 V2000
    5.9106   -7.8226    0.0000 C   0  0  0  0  0  0  0  0  0  0  0  0
    5.9106   -8.6476    0.0000 C   0  0  2  0  0  0  0  0  0  0  0  0
    6.6250   -9.0601    0.0000 C   0  0  0  0  0  0  0  0  0  0  0  0
    7.3395   -8.6476    0.0000 C   0  0  1  0  0  0  0  0  0  0  0  0
    7.3395   -7.8226    0.0000 C   0  0  0  0  0  0  0  0  0  0  0  0
    6.6250   -7.4101    0.0000 C   0  0  0  0  0  0  0  0  0  0  0  0
    8.0540   -9.0601    0.0000 C   0  0  2  0  0  0  0  0  0  0  0  0
    8.7684   -8.6476    0.0000 C   0  0  0  0  0  0  0  0  0  0  0  0
    8.7684   -7.8226    0.0000 C   0  0  0  0  0  0  0  0  0  0  0  0
    8.0540   -7.4101    0.0000 C   0  0  0  0  0  0  0  0  0  0  0  0
    6.6250   -6.5851    0.0000 O   0  0  0  0  0  0  0  0  0  0  0  0
    5.1961   -9.0601    0.0000 C   0  0  0  0  0  0  0  0  0  0  0  0
    5.1961   -9.8851    0.0000 C   0  0  0  0  0  0  0  0  0  0  0  0
    4.4816   -8.6476    0.0000 C   0  0  0  0  0  0  0  0  0  0  0  0
    7.3395   -9.4726    0.0000 C   0  0  0  0  0  0  0  0  0  0  0  0
    8.0540   -9.8851    0.0000 C   0  0  0  0  0  0  0  0  0  0  0  0
  1  2  1  0  0  0  0
  2  3  1  0  0  0  0
  3  4  1  0  0  0  0
  4  5  1  0  0  0  0
  5  6  1  0  0  0  0
  6  1  1  0  0  0  0
  4  7  1  0  0  0  0
  7  8  1  0  0  0  0
  8  9  1  0  0  0  0
  9 10  1  0  0  0  0
 10  5  2  0  0  0  0
  6 11  2  0  0  0  0
  2 12  1  6  0  0  0
 12 13  2  0  0  0  0
 12 14  1  0  0  0  0
  4 15  1  6  0  0  0
  7 16  1  6  0  0  0
M  END
>  <cdx:fragmentId>
5

$$$$
