50297.cdx
  Mrv1902 05222410242D          

 34 37  0  0  0  0            999 V2000
    3.8670  -10.4354    0.0000 C   0  0  2  0  0  0  0  0  0  0  0  0
    3.8643  -11.2604    0.0000 C   0  0  2  0  0  0  0  0  0  0  0  0
    4.5774  -11.6752    0.0000 C   0  0  1  0  0  0  0  0  0  0  0  0
    5.2933  -11.2651    0.0000 C   0  0  2  0  0  0  0  0  0  0  0  0
    5.2960  -10.4401    0.0000 C   0  0  1  0  0  0  0  0  0  0  0  0
    4.5829  -10.0252    0.0000 O   0  0  0  0  0  0  0  0  0  0  0  0
   10.2864   -6.6821    0.0000 O   0  0  0  0  0  0  0  0  0  0  0  0
   11.7219   -7.4956    0.0000 O   0  0  0  0  0  0  0  0  0  0  0  0
    8.1794  -11.2366    0.0000 O   0  0  0  0  0  0  0  0  0  0  0  0
    6.7505  -11.2480    0.0000 O   0  0  0  0  0  0  0  0  0  0  0  0
   11.0174   -8.7388    0.0000 C   0  0  0  0  0  0  0  0  0  0  0  0
   11.0108   -7.9138    0.0000 C   0  0  0  0  0  0  0  0  0  0  0  0
   10.2930   -7.5071    0.0000 C   0  0  0  0  0  0  0  0  0  0  0  0
    9.5819   -7.9253    0.0000 C   0  0  0  0  0  0  0  0  0  0  0  0
    9.6017  -10.4002    0.0000 O   0  0  0  0  0  0  0  0  0  0  0  0
   10.3062   -9.1570    0.0000 C   0  0  0  0  0  0  0  0  0  0  0  0
    9.5885   -8.7502    0.0000 C   0  0  0  0  0  0  0  0  0  0  0  0
    8.1728  -10.4116    0.0000 C   0  0  0  0  0  0  0  0  0  0  0  0
    8.8839   -9.9934    0.0000 C   0  0  0  0  0  0  0  0  0  0  0  0
    8.8773   -9.1684    0.0000 C   0  0  0  0  0  0  0  0  0  0  0  0
    8.1596   -8.7617    0.0000 O   0  0  0  0  0  0  0  0  0  0  0  0
    6.7439  -10.4230    0.0000 C   0  0  0  0  0  0  0  0  0  0  0  0
    7.4550  -10.0048    0.0000 C   0  0  0  0  0  0  0  0  0  0  0  0
    7.4484   -9.1799    0.0000 C   0  0  0  0  0  0  0  0  0  0  0  0
    6.7307   -8.7731    0.0000 C   0  0  0  0  0  0  0  0  0  0  0  0
    6.0261  -10.0163    0.0000 C   0  0  0  0  0  0  0  0  0  0  0  0
    6.0195   -9.1913    0.0000 C   0  0  0  0  0  0  0  0  0  0  0  0
    5.3018   -8.7845    0.0000 O   0  0  0  0  0  0  0  0  0  0  0  0
    3.1539  -10.0205    0.0000 C   0  0  0  0  0  0  0  0  0  0  0  0
    4.5747  -12.5002    0.0000 O   0  0  0  0  0  0  0  0  0  0  0  0
    3.1485  -11.6705    0.0000 O   0  0  0  0  0  0  0  0  0  0  0  0
    6.0064  -11.6799    0.0000 O   0  0  0  0  0  0  0  0  0  0  0  0
    2.4392  -10.4251    0.0000 O   0  0  0  0  0  0  0  0  0  0  0  0
    5.2987   -9.6151    0.0000 H   0  0  0  0  0  0  0  0  0  0  0  0
  5 26  1  0  0  0  0
  1  2  1  0  0  0  0
  2  3  1  0  0  0  0
 13  7  1  0  0  0  0
 12  8  1  0  0  0  0
 18  9  2  0  0  0  0
 22 10  1  0  0  0  0
  3  4  1  0  0  0  0
  4  5  1  0  0  0  0
 11 16  2  0  0  0  0
 12 11  1  0  0  0  0
 13 12  2  0  0  0  0
 14 13  1  0  0  0  0
 17 14  2  0  0  0  0
 15 19  1  0  0  0  0
 17 16  1  0  0  0  0
 20 17  1  0  0  0  0
 18 23  1  0  0  0  0
 19 18  1  0  0  0  0
 20 19  2  0  0  0  0
 21 20  1  0  0  0  0
 24 21  1  0  0  0  0
 22 26  1  0  0  0  0
 23 22  2  0  0  0  0
 24 23  1  0  0  0  0
 25 24  2  0  0  0  0
 27 25  1  0  0  0  0
 27 26  2  0  0  0  0
 28 27  1  0  0  0  0
  5  6  1  0  0  0  0
  6  1  1  0  0  0  0
  1 29  1  1  0  0  0
  3 30  1  1  0  0  0
  2 31  1  6  0  0  0
  4 32  1  6  0  0  0
 29 33  1  0  0  0  0
  5 34  1  6  0  0  0
M  END
>  <cdx:fragmentId>
148

$$$$
