50295.cdx
  Mrv1902 05222410262D          

 36 39  0  0  0  0            999 V2000
    3.8486   -8.0751    0.0000 C   0  0  2  0  0  0  0  0  0  0  0  0
    3.8519   -8.9001    0.0000 C   0  0  2  0  0  0  0  0  0  0  0  0
    4.5681   -9.3097    0.0000 C   0  0  1  0  0  0  0  0  0  0  0  0
    5.2809   -8.8944    0.0000 C   0  0  2  0  0  0  0  0  0  0  0  0
    5.2775   -8.0694    0.0000 C   0  0  1  0  0  0  0  0  0  0  0  0
    4.5614   -7.6597    0.0000 O   0  0  0  0  0  0  0  0  0  0  0  0
   10.9876   -5.5817    0.0000 O   0  0  0  0  0  0  0  0  0  0  0  0
   12.4182   -6.4039    0.0000 O   0  0  0  0  0  0  0  0  0  0  0  0
    8.8531  -10.1234    0.0000 O   0  0  0  0  0  0  0  0  0  0  0  0
    7.4241  -10.1262    0.0000 O   0  0  0  0  0  0  0  0  0  0  0  0
    5.9904   -7.6540    0.0000 O   0  0  0  0  0  0  0  0  0  0  0  0
    3.1325   -7.6655    0.0000 C   0  0  0  0  0  0  0  0  0  0  0  0
   11.7061   -7.6428    0.0000 C   0  0  0  0  0  0  0  0  0  0  0  0
   11.7045   -6.8178    0.0000 C   0  0  0  0  0  0  0  0  0  0  0  0
   10.9892   -6.4067    0.0000 C   0  0  0  0  0  0  0  0  0  0  0  0
   10.2756   -6.8206    0.0000 C   0  0  0  0  0  0  0  0  0  0  0  0
   10.2804   -9.2956    0.0000 O   0  0  0  0  0  0  0  0  0  0  0  0
   10.9924   -8.0567    0.0000 C   0  0  0  0  0  0  0  0  0  0  0  0
   10.2772   -7.6456    0.0000 C   0  0  0  0  0  0  0  0  0  0  0  0
    8.8515   -9.2984    0.0000 C   0  0  0  0  0  0  0  0  0  0  0  0
    9.5651   -8.8845    0.0000 C   0  0  0  0  0  0  0  0  0  0  0  0
    9.5635   -8.0595    0.0000 C   0  0  0  0  0  0  0  0  0  0  0  0
    8.8482   -7.6484    0.0000 O   0  0  0  0  0  0  0  0  0  0  0  0
    7.4225   -9.3012    0.0000 C   0  0  0  0  0  0  0  0  0  0  0  0
    8.1362   -8.8873    0.0000 C   0  0  0  0  0  0  0  0  0  0  0  0
    8.1346   -8.0623    0.0000 C   0  0  0  0  0  0  0  0  0  0  0  0
    7.4193   -7.6512    0.0000 C   0  0  0  0  0  0  0  0  0  0  0  0
    2.4197   -8.0808    0.0000 O   0  0  0  0  0  0  0  0  0  0  0  0
    6.7072   -8.8901    0.0000 C   0  0  0  0  0  0  0  0  0  0  0  0
    6.7056   -8.0651    0.0000 C   0  0  0  0  0  0  0  0  0  0  0  0
    4.5714  -10.1347    0.0000 O   0  0  0  0  0  0  0  0  0  0  0  0
    3.1391   -9.3155    0.0000 O   0  0  0  0  0  0  0  0  0  0  0  0
    5.9970   -9.3040    0.0000 O   0  0  0  0  0  0  0  0  0  0  0  0
    1.7036   -7.6712    0.0000 C   0  0  0  0  0  0  0  0  0  0  0  0
    0.9908   -8.0866    0.0000 C   0  0  0  0  0  0  0  0  0  0  0  0
    1.7002   -6.8462    0.0000 O   0  0  0  0  0  0  0  0  0  0  0  0
  1  2  1  0  0  0  0
  2  3  1  0  0  0  0
  3  4  1  0  0  0  0
  4  5  1  0  0  0  0
  5  6  1  0  0  0  0
  6  1  1  0  0  0  0
 15  7  1  0  0  0  0
 14  8  1  0  0  0  0
 20  9  2  0  0  0  0
 24 10  1  0  0  0  0
  5 11  1  1  0  0  0
  1 12  1  1  0  0  0
 13 18  2  0  0  0  0
 14 13  1  0  0  0  0
 15 14  2  0  0  0  0
 16 15  1  0  0  0  0
 19 16  2  0  0  0  0
 17 21  1  0  0  0  0
 19 18  1  0  0  0  0
 22 19  1  0  0  0  0
 20 25  1  0  0  0  0
 21 20  1  0  0  0  0
 22 21  2  0  0  0  0
 23 22  1  0  0  0  0
 26 23  1  0  0  0  0
 24 29  1  0  0  0  0
 25 24  2  0  0  0  0
 26 25  1  0  0  0  0
 27 26  2  0  0  0  0
 30 27  1  0  0  0  0
 30 29  2  0  0  0  0
 11 30  1  0  0  0  0
 12 28  1  0  0  0  0
  3 31  1  1  0  0  0
  2 32  1  6  0  0  0
  4 33  1  6  0  0  0
 28 34  1  0  0  0  0
 34 35  1  0  0  0  0
 34 36  2  0  0  0  0
M  END
>  <cdx:fragmentId>
5

$$$$
