50291.cdx
  Mrv1902 05222410232D          

 81 89  0  0  0  0            999 V2000
   20.2924  -11.6959    0.0000 O   0  0  0  0  0  0  0  0  0  0  0  0
   20.6881  -10.9720    0.0000 C   0  0  2  0  0  0  0  0  0  0  0  0
   21.5129  -10.9527    0.0000 C   0  0  1  0  0  0  0  0  0  0  0  0
   21.9420  -11.6573    0.0000 C   0  0  2  0  0  0  0  0  0  0  0  0
   21.5463  -12.3812    0.0000 C   0  0  1  0  0  0  0  0  0  0  0  0
   20.7215  -12.4005    0.0000 C   0  0  1  0  0  0  0  0  0  0  0  0
   21.9086  -10.2288    0.0000 O   0  0  0  0  0  0  0  0  0  0  0  0
   22.7667  -11.6380    0.0000 O   0  0  0  0  0  0  0  0  0  0  0  0
   21.9754  -13.0859    0.0000 O   0  0  0  0  0  0  0  0  0  0  0  0
   20.2590  -10.2674    0.0000 O   0  0  0  0  0  0  0  0  0  0  0  0
   19.4372  -10.2735    0.0000 C   0  0  0  0  0  0  0  0  0  0  0  0
   18.1833   -9.5882    0.0000 O   0  0  0  0  0  0  0  0  0  0  0  0
   19.0081   -9.5689    0.0000 C   0  0  1  0  0  0  0  0  0  0  0  0
   19.4038   -8.8450    0.0000 C   0  0  2  0  0  0  0  0  0  0  0  0
   18.9747   -8.1404    0.0000 C   0  0  1  0  0  0  0  0  0  0  0  0
   18.1499   -8.1596    0.0000 C   0  0  2  0  0  0  0  0  0  0  0  0
   17.7542   -8.8836    0.0000 C   0  0  2  0  0  0  0  0  0  0  0  0
   17.7208   -7.4550    0.0000 O   0  0  0  0  0  0  0  0  0  0  0  0
   19.3704   -7.4164    0.0000 O   0  0  0  0  0  0  0  0  0  0  0  0
   20.2285   -8.8257    0.0000 O   0  0  0  0  0  0  0  0  0  0  0  0
   15.6200   -8.1125    0.0000 C   0  0  0  0  0  0  0  0  0  0  0  0
   16.1179   -8.8072    0.0000 C   0  0  2  0  0  0  0  0  0  0  0  0
   12.2204  -10.6718    0.0000 C   0  0  0  0  0  0  0  0  0  0  0  0
   11.5060  -11.0843    0.0000 C   0  0  0  0  0  0  0  0  0  0  0  0
   11.5060  -11.9093    0.0000 C   0  0  1  0  0  0  0  0  0  0  0  0
   12.2204  -12.3218    0.0000 C   0  0  0  0  0  0  0  0  0  0  0  0
   12.9349  -11.9093    0.0000 C   0  0  2  0  0  0  0  0  0  0  0  0
   13.6494  -12.3218    0.0000 C   0  0  0  0  0  0  0  0  0  0  0  0
   14.3638  -11.9093    0.0000 C   0  0  0  0  0  0  0  0  0  0  0  0
   14.3638  -11.0843    0.0000 C   0  0  1  0  0  0  0  0  0  0  0  0
   15.0783  -10.6718    0.0000 C   0  0  2  0  0  0  0  0  0  0  0  0
   15.8629  -10.9267    0.0000 C   0  0  0  0  0  0  0  0  0  0  0  0
   16.3479  -10.2593    0.0000 C   0  0  0  0  0  0  0  0  0  0  0  0
   15.8629   -9.5919    0.0000 C   0  0  1  0  0  0  0  0  0  0  0  0
   15.0783   -9.8468    0.0000 C   0  0  1  0  0  0  0  0  0  0  0  0
   14.3638   -9.4343    0.0000 C   0  0  1  0  0  0  0  0  0  0  0  0
   13.6494   -9.8468    0.0000 C   0  0  0  0  0  0  0  0  0  0  0  0
   13.6494  -10.6718    0.0000 C   0  0  2  0  0  0  0  0  0  0  0  0
   12.9349  -11.0843    0.0000 C   0  0  1  0  0  0  0  0  0  0  0  0
   15.0783  -11.4968    0.0000 C   0  0  0  0  0  0  0  0  0  0  0  0
   12.9349  -10.2593    0.0000 C   0  0  0  0  0  0  0  0  0  0  0  0
   14.3638  -10.2593    0.0000 C   0  0  0  0  0  0  0  0  0  0  0  0
   12.6329  -13.0363    0.0000 C   0  0  0  0  0  0  0  0  0  0  0  0
   11.8079  -13.0363    0.0000 C   0  0  0  0  0  0  0  0  0  0  0  0
   10.7915  -12.3218    0.0000 O   0  0  0  0  0  0  0  0  0  0  0  0
   10.0786  -11.0834    0.0000 O   0  0  0  0  0  0  0  0  0  0  0  0
   10.0775  -11.9084    0.0000 C   0  0  2  0  0  0  0  0  0  0  0  0
    9.3626  -12.3200    0.0000 C   0  0  1  0  0  0  0  0  0  0  0  0
    8.6486  -11.9066    0.0000 C   0  0  2  0  0  0  0  0  0  0  0  0
    8.6496  -11.0816    0.0000 C   0  0  1  0  0  0  0  0  0  0  0  0
    9.3646  -10.6700    0.0000 C   0  0  1  0  0  0  0  0  0  0  0  0
    9.3615  -13.1450    0.0000 O   0  0  0  0  0  0  0  0  0  0  0  0
    7.9326  -13.1432    0.0000 O   0  0  0  0  0  0  0  0  0  0  0  0
    8.6465  -13.5566    0.0000 C   0  0  2  0  0  0  0  0  0  0  0  0
    8.6455  -14.3816    0.0000 C   0  0  1  0  0  0  0  0  0  0  0  0
    7.9305  -14.7932    0.0000 C   0  0  2  0  0  0  0  0  0  0  0  0
    7.2166  -14.3798    0.0000 C   0  0  1  0  0  0  0  0  0  0  0  0
    7.2176  -13.5548    0.0000 C   0  0  1  0  0  0  0  0  0  0  0  0
    6.5036  -13.1414    0.0000 C   0  0  0  0  0  0  0  0  0  0  0  0
    6.5016  -14.7914    0.0000 O   0  0  0  0  0  0  0  0  0  0  0  0
    7.9295  -15.6182    0.0000 O   0  0  0  0  0  0  0  0  0  0  0  0
    9.3594  -14.7950    0.0000 O   0  0  0  0  0  0  0  0  0  0  0  0
    9.3657   -9.8450    0.0000 C   0  0  0  0  0  0  0  0  0  0  0  0
    8.6517   -9.4316    0.0000 O   0  0  0  0  0  0  0  0  0  0  0  0
    7.9357  -10.6682    0.0000 O   0  0  0  0  0  0  0  0  0  0  0  0
    7.9336  -12.3182    0.0000 O   0  0  0  0  0  0  0  0  0  0  0  0
   12.9349  -12.7343    0.0000 H   0  0  0  0  0  0  0  0  0  0  0  0
   13.6494  -11.4968    0.0000 H   0  0  0  0  0  0  0  0  0  0  0  0
   15.1646   -9.0263    0.0000 H   0  0  0  0  0  0  0  0  0  0  0  0
   16.6778   -9.4628    0.0000 H   0  0  0  0  0  0  0  0  0  0  0  0
    5.7886  -13.5530    0.0000 O   0  0  0  0  0  0  0  0  0  0  0  0
   16.3728   -8.0226    0.0000 C   0  0  0  0  0  0  0  0  0  0  0  0
   20.3258  -13.1245    0.0000 C   0  0  0  0  0  0  0  0  0  0  0  0
   20.7549  -13.8291    0.0000 O   0  0  0  0  0  0  0  0  0  0  0  0
   14.8500   -8.0300    0.0000 C   0  0  1  0  0  0  0  0  0  0  0  0
   14.3550   -8.6350    0.0000 O   0  0  0  0  0  0  0  0  0  0  0  0
   14.5370   -7.2667    0.0000 C   0  0  0  0  0  0  0  0  0  0  0  0
   13.7120   -7.2667    0.0000 C   0  0  0  0  0  0  0  0  0  0  0  0
   13.2995   -7.9812    0.0000 C   0  0  0  0  0  0  0  0  0  0  0  0
   13.2995   -6.5522    0.0000 C   0  0  0  0  0  0  0  0  0  0  0  0
   16.9025   -9.0622    0.0000 O   0  0  0  0  0  0  0  0  0  0  0  0
  1  2  1  0  0  0  0
  2  3  1  0  0  0  0
  3  4  1  0  0  0  0
  4  5  1  0  0  0  0
  5  6  1  0  0  0  0
  1  6  1  0  0  0  0
  3  7  1  6  0  0  0
  4  8  1  1  0  0  0
  5  9  1  6  0  0  0
 12 13  1  0  0  0  0
 13 14  1  0  0  0  0
 14 15  1  0  0  0  0
 15 16  1  0  0  0  0
 16 17  1  0  0  0  0
 12 17  1  0  0  0  0
 16 18  1  6  0  0  0
 15 19  1  1  0  0  0
 14 20  1  6  0  0  0
 23 24  1  0  0  0  0
 24 25  1  0  0  0  0
 25 26  1  0  0  0  0
 26 27  1  0  0  0  0
 27 28  1  0  0  0  0
 28 29  1  0  0  0  0
 29 30  1  0  0  0  0
 30 31  1  0  0  0  0
 31 32  1  0  0  0  0
 32 33  1  0  0  0  0
 34 33  1  0  0  0  0
 34 35  1  0  0  0  0
 31 35  1  0  0  0  0
 35 36  1  0  0  0  0
 36 37  1  0  0  0  0
 37 38  1  0  0  0  0
 30 38  1  0  0  0  0
 38 39  1  0  0  0  0
 27 39  1  0  0  0  0
 23 39  1  0  0  0  0
 31 40  1  6  0  0  0
 39 41  1  1  0  0  0
 30 42  1  1  0  0  0
 26 43  1  0  0  0  0
 26 44  1  0  0  0  0
 46 47  1  0  0  0  0
 47 48  1  0  0  0  0
 48 49  1  0  0  0  0
 49 50  1  0  0  0  0
 50 51  1  0  0  0  0
 46 51  1  0  0  0  0
 53 54  1  0  0  0  0
 54 55  1  0  0  0  0
 55 56  1  0  0  0  0
 56 57  1  0  0  0  0
 57 58  1  0  0  0  0
 53 58  1  0  0  0  0
 58 59  1  1  0  0  0
 57 60  1  6  0  0  0
 56 61  1  1  0  0  0
 55 62  1  6  0  0  0
 54 52  1  1  0  0  0
 48 52  1  6  0  0  0
 63 64  1  0  0  0  0
 51 63  1  1  0  0  0
 50 65  1  6  0  0  0
 49 66  1  1  0  0  0
 47 45  1  1  0  0  0
 25 45  1  1  0  0  0
 22 34  1  0  0  0  0
 13 11  1  1  0  0  0
  2 10  1  1  0  0  0
 27 67  1  6  0  0  0
 38 68  1  6  0  0  0
 35 69  1  1  0  0  0
 34 70  1  6  0  0  0
 10 11  1  0  0  0  0
 59 71  1  0  0  0  0
 22 72  1  1  0  0  0
 21 22  1  0  0  0  0
  6 73  1  1  0  0  0
 73 74  1  0  0  0  0
 21 75  1  0  0  0  0
 75 76  1  1  0  0  0
 36 76  1  1  0  0  0
 75 77  1  0  0  0  0
 77 78  2  0  0  0  0
 78 79  1  0  0  0  0
 78 80  1  0  0  0  0
 22 81  1  6  0  0  0
 17 81  1  1  0  0  0
M  END
>  <cdx:fragmentId>
31943

$$$$
