50293.cdx
  Mrv1902 05222410242D          

 34 37  0  0  0  0            999 V2000
    3.7331   -8.1855    0.0000 C   0  0  2  0  0  0  0  0  0  0  0  0
    3.7320   -9.0105    0.0000 C   0  0  2  0  0  0  0  0  0  0  0  0
    4.4459   -9.4240    0.0000 C   0  0  1  0  0  0  0  0  0  0  0  0
    5.1609   -9.0125    0.0000 C   0  0  2  0  0  0  0  0  0  0  0  0
    5.1620   -8.1875    0.0000 C   0  0  1  0  0  0  0  0  0  0  0  0
    4.4481   -7.7740    0.0000 O   0  0  0  0  0  0  0  0  0  0  0  0
   10.8776   -5.7117    0.0000 O   0  0  0  0  0  0  0  0  0  0  0  0
   12.3069   -6.5362    0.0000 O   0  0  0  0  0  0  0  0  0  0  0  0
    8.7359  -10.2500    0.0000 O   0  0  0  0  0  0  0  0  0  0  0  0
    7.3069  -10.2505    0.0000 O   0  0  0  0  0  0  0  0  0  0  0  0
   11.5929   -7.7739    0.0000 C   0  0  0  0  0  0  0  0  0  0  0  0
   11.5925   -6.9489    0.0000 C   0  0  0  0  0  0  0  0  0  0  0  0
   10.8779   -6.5367    0.0000 C   0  0  0  0  0  0  0  0  0  0  0  0
   10.1636   -6.9494    0.0000 C   0  0  0  0  0  0  0  0  0  0  0  0
   10.1645   -9.4244    0.0000 O   0  0  0  0  0  0  0  0  0  0  0  0
   10.8785   -8.1867    0.0000 C   0  0  0  0  0  0  0  0  0  0  0  0
   10.1639   -7.7744    0.0000 C   0  0  0  0  0  0  0  0  0  0  0  0
    8.7356   -9.4250    0.0000 C   0  0  0  0  0  0  0  0  0  0  0  0
    9.4499   -9.0122    0.0000 C   0  0  0  0  0  0  0  0  0  0  0  0
    9.4496   -8.1872    0.0000 C   0  0  0  0  0  0  0  0  0  0  0  0
    8.7350   -7.7750    0.0000 O   0  0  0  0  0  0  0  0  0  0  0  0
    7.3066   -9.4255    0.0000 C   0  0  0  0  0  0  0  0  0  0  0  0
    8.0209   -9.0127    0.0000 C   0  0  0  0  0  0  0  0  0  0  0  0
    8.0206   -8.1877    0.0000 C   0  0  0  0  0  0  0  0  0  0  0  0
    7.3060   -7.7755    0.0000 C   0  0  0  0  0  0  0  0  0  0  0  0
    5.8771   -7.7760    0.0000 O   0  0  0  0  0  0  0  0  0  0  0  0
    6.5920   -9.0133    0.0000 C   0  0  0  0  0  0  0  0  0  0  0  0
    6.5917   -8.1883    0.0000 C   0  0  0  0  0  0  0  0  0  0  0  0
    3.0192   -7.7720    0.0000 C   0  0  0  0  0  0  0  0  0  0  0  0
    2.3042   -8.1836    0.0000 O   0  0  0  0  0  0  0  0  0  0  0  0
    3.0203   -6.9470    0.0000 O   0  0  0  0  0  0  0  0  0  0  0  0
    4.4447  -10.2490    0.0000 O   0  0  0  0  0  0  0  0  0  0  0  0
    3.0169   -9.4220    0.0000 O   0  0  0  0  0  0  0  0  0  0  0  0
    5.8748   -9.4260    0.0000 O   0  0  0  0  0  0  0  0  0  0  0  0
  1  2  1  0  0  0  0
  2  3  1  0  0  0  0
 13  7  1  0  0  0  0
 12  8  1  0  0  0  0
 18  9  2  0  0  0  0
 22 10  1  0  0  0  0
  3  4  1  0  0  0  0
  4  5  1  0  0  0  0
  5  6  1  0  0  0  0
  6  1  1  0  0  0  0
 11 16  2  0  0  0  0
 12 11  1  0  0  0  0
 13 12  2  0  0  0  0
 14 13  1  0  0  0  0
 17 14  2  0  0  0  0
 15 19  1  0  0  0  0
 17 16  1  0  0  0  0
 20 17  1  0  0  0  0
 18 23  1  0  0  0  0
 19 18  1  0  0  0  0
 20 19  2  0  0  0  0
 21 20  1  0  0  0  0
 24 21  1  0  0  0  0
 22 27  1  0  0  0  0
 23 22  2  0  0  0  0
 24 23  1  0  0  0  0
 25 24  2  0  0  0  0
 28 25  1  0  0  0  0
 28 27  2  0  0  0  0
 26 28  1  0  0  0  0
  5 26  1  1  0  0  0
  1 29  1  1  0  0  0
 29 30  1  0  0  0  0
 29 31  2  0  0  0  0
  3 32  1  1  0  0  0
  2 33  1  6  0  0  0
  4 34  1  6  0  0  0
M  END
>  <cdx:fragmentId>
5

$$$$
