50300.cdx
  Mrv1902 05222410222D          

 34 37  0  0  0  0            999 V2000
    6.8384  -10.7335    0.0000 C   0  0  0  0  0  0  0  0  0  0  0  0
    6.1239  -10.3210    0.0000 O   0  0  0  0  0  0  0  0  0  0  0  0
   10.4108   -7.0210    0.0000 O   0  0  0  0  0  0  0  0  0  0  0  0
   10.4108   -5.3710    0.0000 O   0  0  0  0  0  0  0  0  0  0  0  0
    8.2674   -5.7835    0.0000 C   0  0  0  0  0  0  0  0  0  0  0  0
    8.9818   -5.3710    0.0000 C   0  0  0  0  0  0  0  0  0  0  0  0
    9.6963   -5.7835    0.0000 C   0  0  0  0  0  0  0  0  0  0  0  0
    9.6963   -6.6085    0.0000 C   0  0  0  0  0  0  0  0  0  0  0  0
    8.9818   -7.0210    0.0000 C   0  0  0  0  0  0  0  0  0  0  0  0
    8.2674   -6.6085    0.0000 C   0  0  0  0  0  0  0  0  0  0  0  0
    5.4095   -9.0835    0.0000 O   0  0  0  0  0  0  0  0  0  0  0  0
    3.9805   -6.6085    0.0000 O   0  0  0  0  0  0  0  0  0  0  0  0
    6.8384   -9.0835    0.0000 O   0  0  0  0  0  0  0  0  0  0  0  0
    6.8384   -6.6085    0.0000 O   0  0  0  0  0  0  0  0  0  0  0  0
    6.1239   -7.0210    0.0000 C   0  0  0  0  0  0  0  0  0  0  0  0
    5.4095   -6.6085    0.0000 C   0  0  0  0  0  0  0  0  0  0  0  0
    4.6950   -7.0210    0.0000 C   0  0  0  0  0  0  0  0  0  0  0  0
    4.6950   -7.8460    0.0000 C   0  0  0  0  0  0  0  0  0  0  0  0
    5.4095   -8.2585    0.0000 C   0  0  0  0  0  0  0  0  0  0  0  0
    6.1239   -7.8460    0.0000 C   0  0  0  0  0  0  0  0  0  0  0  0
    6.8384   -8.2585    0.0000 C   0  0  0  0  0  0  0  0  0  0  0  0
    7.5529   -7.8460    0.0000 C   0  0  0  0  0  0  0  0  0  0  0  0
    7.5529   -7.0210    0.0000 C   0  0  0  0  0  0  0  0  0  0  0  0
    8.2674   -8.2585    0.0000 O   0  0  0  0  0  0  0  0  0  0  0  0
    8.2674  -11.5585    0.0000 O   0  0  0  0  0  0  0  0  0  0  0  0
    9.6963  -10.7335    0.0000 O   0  0  0  0  0  0  0  0  0  0  0  0
    9.6963   -9.0835    0.0000 O   0  0  0  0  0  0  0  0  0  0  0  0
    6.8384  -11.5585    0.0000 O   0  0  0  0  0  0  0  0  0  0  0  0
    8.2674   -9.0835    0.0000 C   0  0  1  0  0  0  0  0  0  0  0  0
    8.9818   -9.4960    0.0000 C   0  0  1  0  0  0  0  0  0  0  0  0
    8.9818  -10.3210    0.0000 C   0  0  2  0  0  0  0  0  0  0  0  0
    8.2674  -10.7335    0.0000 C   0  0  1  0  0  0  0  0  0  0  0  0
    7.5529  -10.3210    0.0000 C   0  0  2  0  0  0  0  0  0  0  0  0
    7.5529   -9.4960    0.0000 O   0  0  0  0  0  0  0  0  0  0  0  0
 29 24  1  1  0  0  0
 24 22  1  0  0  0  0
 23 10  1  0  0  0  0
  8  3  1  0  0  0  0
  7  4  1  0  0  0  0
 10  5  2  0  0  0  0
  6  5  1  0  0  0  0
  7  6  2  0  0  0  0
  8  7  1  0  0  0  0
  9  8  2  0  0  0  0
 10  9  1  0  0  0  0
 19 11  1  0  0  0  0
 17 12  1  0  0  0  0
 21 13  2  0  0  0  0
 23 14  1  0  0  0  0
 15 14  1  0  0  0  0
 20 15  2  0  0  0  0
 16 15  1  0  0  0  0
 17 16  2  0  0  0  0
 18 17  1  0  0  0  0
 19 18  2  0  0  0  0
 20 19  1  0  0  0  0
 21 20  1  0  0  0  0
 22 21  1  0  0  0  0
 23 22  2  0  0  0  0
 32 25  1  6  0  0  0
 31 26  1  1  0  0  0
 30 27  1  6  0  0  0
 33  1  1  1  0  0  0
 34 29  1  0  0  0  0
 30 29  1  0  0  0  0
 31 30  1  0  0  0  0
 32 31  1  0  0  0  0
 33 32  1  0  0  0  0
 34 33  1  0  0  0  0
  1  2  2  0  0  0  0
  1 28  1  0  0  0  0
M  END
>  <cdx:fragmentId>
31

$$$$
