50309.cdx
  Mrv1902 05222410252D          

 34 37  0  0  0  0            999 V2000
    3.0643   -9.4864    0.0000 C   0  0  0  0  0  0  0  0  0  0  0  0
    3.0643  -10.3114    0.0000 C   0  0  0  0  0  0  0  0  0  0  0  0
    3.7788  -10.7239    0.0000 C   0  0  0  0  0  0  0  0  0  0  0  0
    4.4932  -10.3114    0.0000 C   0  0  0  0  0  0  0  0  0  0  0  0
    4.4932   -9.4864    0.0000 C   0  0  0  0  0  0  0  0  0  0  0  0
    3.7788   -9.0739    0.0000 C   0  0  0  0  0  0  0  0  0  0  0  0
    5.2077  -10.7239    0.0000 C   0  0  0  0  0  0  0  0  0  0  0  0
    5.9222  -10.3114    0.0000 C   0  0  0  0  0  0  0  0  0  0  0  0
    5.9222   -9.4864    0.0000 C   0  0  0  0  0  0  0  0  0  0  0  0
    5.2077   -9.0739    0.0000 O   0  0  0  0  0  0  0  0  0  0  0  0
    6.6367   -9.0739    0.0000 C   0  0  0  0  0  0  0  0  0  0  0  0
    6.6367   -8.2489    0.0000 C   0  0  0  0  0  0  0  0  0  0  0  0
    7.3511   -9.4864    0.0000 C   0  0  0  0  0  0  0  0  0  0  0  0
    8.0656   -9.0739    0.0000 C   0  0  0  0  0  0  0  0  0  0  0  0
    8.0656   -8.2489    0.0000 C   0  0  0  0  0  0  0  0  0  0  0  0
    7.3511   -7.8364    0.0000 C   0  0  0  0  0  0  0  0  0  0  0  0
    3.7788  -11.5489    0.0000 O   0  0  0  0  0  0  0  0  0  0  0  0
    5.2077  -11.5489    0.0000 O   0  0  0  0  0  0  0  0  0  0  0  0
    2.3498   -9.0739    0.0000 O   0  0  0  0  0  0  0  0  0  0  0  0
    7.3511   -7.0114    0.0000 O   0  0  0  0  0  0  0  0  0  0  0  0
    8.7801   -7.8364    0.0000 O   0  0  0  0  0  0  0  0  0  0  0  0
    6.6367  -10.7239    0.0000 O   0  0  0  0  0  0  0  0  0  0  0  0
    6.6367   -6.5989    0.0000 C   0  0  0  0  0  0  0  0  0  0  0  0
   10.2437   -9.4865    0.0000 C   0  0  2  0  0  0  0  0  0  0  0  0
   10.9535   -9.0659    0.0000 C   0  0  2  0  0  0  0  0  0  0  0  0
   10.9441   -8.2410    0.0000 C   0  0  1  0  0  0  0  0  0  0  0  0
   10.2250   -7.8366    0.0000 C   0  0  2  0  0  0  0  0  0  0  0  0
    9.5152   -8.2572    0.0000 C   0  0  1  0  0  0  0  0  0  0  0  0
    9.5246   -9.0822    0.0000 O   0  0  0  0  0  0  0  0  0  0  0  0
   10.2531  -10.3115    0.0000 C   0  0  0  0  0  0  0  0  0  0  0  0
   11.6538   -7.8204    0.0000 O   0  0  0  0  0  0  0  0  0  0  0  0
   10.2156   -7.0117    0.0000 O   0  0  0  0  0  0  0  0  0  0  0  0
   11.6726   -9.4703    0.0000 O   0  0  0  0  0  0  0  0  0  0  0  0
   10.9722  -10.7158    0.0000 O   0  0  0  0  0  0  0  0  0  0  0  0
  1  2  1  0  0  0  0
  2  3  2  0  0  0  0
  3  4  1  0  0  0  0
  4  5  2  0  0  0  0
  5  6  1  0  0  0  0
  6  1  2  0  0  0  0
  4  7  1  0  0  0  0
  7  8  1  0  0  0  0
  8  9  2  0  0  0  0
  9 10  1  0  0  0  0
 10  5  1  0  0  0  0
  9 11  1  0  0  0  0
 11 12  1  0  0  0  0
 11 13  2  0  0  0  0
 13 14  1  0  0  0  0
 14 15  2  0  0  0  0
 15 16  1  0  0  0  0
 16 12  2  0  0  0  0
  3 17  1  0  0  0  0
 18  7  2  0  0  0  0
  1 19  1  0  0  0  0
 16 20  1  0  0  0  0
 15 21  1  0  0  0  0
  8 22  1  0  0  0  0
 20 23  1  0  0  0  0
 24 25  1  0  0  0  0
 25 26  1  0  0  0  0
 26 27  1  0  0  0  0
 27 28  1  0  0  0  0
 28 29  1  0  0  0  0
 29 24  1  0  0  0  0
 24 30  1  1  0  0  0
 26 31  1  1  0  0  0
 27 32  1  6  0  0  0
 25 33  1  6  0  0  0
 30 34  1  0  0  0  0
 28 21  1  1  0  0  0
M  END
>  <cdx:fragmentId>
5

$$$$
