50304.cdx
  Mrv1902 05222410212D          

 44 48  0  0  0  0            999 V2000
    5.9228   -9.5302    0.0000 C   0  0  0  0  0  0  0  0  0  0  0  0
    5.9327   -8.7052    0.0000 C   0  0  0  0  0  0  0  0  0  0  0  0
    5.2232   -8.2842    0.0000 O   0  0  0  0  0  0  0  0  0  0  0  0
    6.6323   -9.9511    0.0000 C   0  0  0  0  0  0  0  0  0  0  0  0
    7.3517   -9.5472    0.0000 C   0  0  0  0  0  0  0  0  0  0  0  0
    7.3615   -8.7223    0.0000 C   0  0  0  0  0  0  0  0  0  0  0  0
    6.6520   -8.3013    0.0000 C   0  0  0  0  0  0  0  0  0  0  0  0
    8.0612   -9.9682    0.0000 C   0  0  0  0  0  0  0  0  0  0  0  0
    8.7805   -9.5642    0.0000 C   0  0  0  0  0  0  0  0  0  0  0  0
    8.7904   -8.7393    0.0000 C   0  0  0  0  0  0  0  0  0  0  0  0
    8.0809   -8.3183    0.0000 O   0  0  0  0  0  0  0  0  0  0  0  0
    9.4900   -9.9852    0.0000 O   0  0  0  0  0  0  0  0  0  0  0  0
   10.2192   -8.7563    0.0000 C   0  0  0  0  0  0  0  0  0  0  0  0
    9.5097   -8.3353    0.0000 C   0  0  0  0  0  0  0  0  0  0  0  0
   10.9385   -8.3524    0.0000 C   0  0  0  0  0  0  0  0  0  0  0  0
   10.9484   -7.5274    0.0000 C   0  0  0  0  0  0  0  0  0  0  0  0
   10.2389   -7.1064    0.0000 C   0  0  0  0  0  0  0  0  0  0  0  0
    9.5195   -7.5104    0.0000 C   0  0  0  0  0  0  0  0  0  0  0  0
    8.0513  -10.7931    0.0000 O   0  0  0  0  0  0  0  0  0  0  0  0
    8.7609  -11.2141    0.0000 O   0  0  0  0  0  0  0  0  0  0  0  0
    9.4802  -10.8102    0.0000 C   0  0  2  0  0  0  0  0  0  0  0  0
    8.7510  -12.0391    0.0000 C   0  0  1  0  0  0  0  0  0  0  0  0
    9.4605  -12.4600    0.0000 C   0  0  1  0  0  0  0  0  0  0  0  0
   10.1799  -12.0561    0.0000 C   0  0  1  0  0  0  0  0  0  0  0  0
   10.1897  -11.2312    0.0000 C   0  0  1  0  0  0  0  0  0  0  0  0
    6.6225  -10.7761    0.0000 O   0  0  0  0  0  0  0  0  0  0  0  0
   10.2487   -6.2815    0.0000 O   0  0  0  0  0  0  0  0  0  0  0  0
   11.6677   -7.1235    0.0000 O   0  0  0  0  0  0  0  0  0  0  0  0
    8.0317  -12.4430    0.0000 C   0  0  0  0  0  0  0  0  0  0  0  0
   10.8894  -12.4771    0.0000 O   0  0  0  0  0  0  0  0  0  0  0  0
    9.4507  -13.2850    0.0000 O   0  0  0  0  0  0  0  0  0  0  0  0
   10.9090  -10.8272    0.0000 O   0  0  0  0  0  0  0  0  0  0  0  0
    8.0218  -13.2680    0.0000 O   0  0  0  0  0  0  0  0  0  0  0  0
    3.8016   -8.2771    0.0000 O   0  0  0  0  0  0  0  0  0  0  0  0
    3.0892   -8.6933    0.0000 C   0  0  1  0  0  0  0  0  0  0  0  0
    3.0934   -9.5183    0.0000 C   0  0  2  0  0  0  0  0  0  0  0  0
    3.8100   -9.9271    0.0000 C   0  0  1  0  0  0  0  0  0  0  0  0
    4.5224   -9.5110    0.0000 C   0  0  2  0  0  0  0  0  0  0  0  0
    4.5181   -8.6860    0.0000 C   0  0  2  0  0  0  0  0  0  0  0  0
    2.3726   -8.2844    0.0000 C   0  0  0  0  0  0  0  0  0  0  0  0
    1.6603   -8.7006    0.0000 O   0  0  0  0  0  0  0  0  0  0  0  0
    2.3811   -9.9344    0.0000 O   0  0  0  0  0  0  0  0  0  0  0  0
    3.8142  -10.7521    0.0000 O   0  0  0  0  0  0  0  0  0  0  0  0
    5.2389   -9.9198    0.0000 O   0  0  0  0  0  0  0  0  0  0  0  0
  1  2  2  0  0  0  0
  2  3  1  0  0  0  0
  1  4  1  0  0  0  0
  4  5  2  0  0  0  0
  5  6  1  0  0  0  0
  6  7  2  0  0  0  0
  7  2  1  0  0  0  0
  5  8  1  0  0  0  0
  8  9  1  0  0  0  0
  9 10  2  0  0  0  0
 10 11  1  0  0  0  0
 11  6  1  0  0  0  0
  9 12  1  0  0  0  0
 13 14  1  0  0  0  0
 14 10  1  0  0  0  0
 13 15  2  0  0  0  0
 15 16  1  0  0  0  0
 16 17  2  0  0  0  0
 17 18  1  0  0  0  0
 18 14  2  0  0  0  0
  8 19  2  0  0  0  0
 20 21  1  0  0  0  0
 21 12  1  1  0  0  0
 20 22  1  0  0  0  0
 22 23  1  0  0  0  0
 23 24  1  0  0  0  0
 24 25  1  0  0  0  0
 25 21  1  0  0  0  0
  4 26  1  0  0  0  0
 17 27  1  0  0  0  0
 16 28  1  0  0  0  0
 22 29  1  1  0  0  0
 24 30  1  1  0  0  0
 23 31  1  1  0  0  0
 25 32  1  6  0  0  0
 29 33  1  0  0  0  0
 34 35  1  0  0  0  0
 35 36  1  0  0  0  0
 36 37  1  0  0  0  0
 37 38  1  0  0  0  0
 38 39  1  0  0  0  0
 39 34  1  0  0  0  0
 35 40  1  1  0  0  0
 40 41  1  0  0  0  0
 36 42  1  6  0  0  0
 37 43  1  1  0  0  0
 38 44  1  6  0  0  0
 39  3  1  1  0  0  0
M  END
>  <cdx:fragmentId>
5

$$$$
