50316.cdx
  Mrv1902 05222410232D          

 39 41  0  0  0  0            999 V2000
    5.6081  -10.3664    0.0000 C   0  0  0  0  0  0  0  0  0  0  0  0
    5.6081  -11.1914    0.0000 C   0  0  0  0  0  0  0  0  0  0  0  0
    6.3225  -11.6039    0.0000 O   0  0  0  0  0  0  0  0  0  0  0  0
    7.0370  -11.1914    0.0000 C   0  0  0  0  0  0  0  0  0  0  0  0
    7.0370  -10.3664    0.0000 C   0  0  0  0  0  0  0  0  0  0  0  0
    6.3225   -9.9539    0.0000 C   0  0  0  0  0  0  0  0  0  0  0  0
    7.7515   -9.9539    0.0000 C   0  0  0  0  0  0  0  0  0  0  0  0
    8.4659  -10.3664    0.0000 O   0  0  0  0  0  0  0  0  0  0  0  0
    9.1804   -9.9539    0.0000 C   0  0  0  0  0  0  0  0  0  0  0  0
    9.1804   -9.1289    0.0000 O   0  0  0  0  0  0  0  0  0  0  0  0
    7.7515  -11.6039    0.0000 O   0  0  0  0  0  0  0  0  0  0  0  0
    7.7515  -12.4289    0.0000 C   0  0  0  0  0  0  0  0  0  0  0  0
    7.0370  -12.8414    0.0000 C   0  0  0  0  0  0  0  0  0  0  0  0
    7.0370  -13.6664    0.0000 C   0  0  0  0  0  0  0  0  0  0  0  0
    7.7515  -14.0789    0.0000 C   0  0  0  0  0  0  0  0  0  0  0  0
    8.4659  -13.6664    0.0000 C   0  0  0  0  0  0  0  0  0  0  0  0
    8.4659  -12.8414    0.0000 O   0  0  0  0  0  0  0  0  0  0  0  0
    9.1804  -14.0789    0.0000 C   0  0  0  0  0  0  0  0  0  0  0  0
    9.1804  -14.9039    0.0000 O   0  0  0  0  0  0  0  0  0  0  0  0
    6.3225  -12.4289    0.0000 O   0  0  0  0  0  0  0  0  0  0  0  0
    6.3225  -14.0789    0.0000 O   0  0  0  0  0  0  0  0  0  0  0  0
    7.7515  -14.9039    0.0000 O   0  0  0  0  0  0  0  0  0  0  0  0
    4.8936   -9.9539    0.0000 C   0  0  0  0  0  0  0  0  0  0  0  0
    4.1791  -10.3664    0.0000 O   0  0  0  0  0  0  0  0  0  0  0  0
    3.4646   -9.9539    0.0000 C   0  0  0  0  0  0  0  0  0  0  0  0
    4.8936   -9.1289    0.0000 O   0  0  0  0  0  0  0  0  0  0  0  0
    6.3225   -9.1289    0.0000 C   0  0  0  0  0  0  0  0  0  0  0  0
    7.0370   -8.7164    0.0000 C   0  0  0  0  0  0  0  0  0  0  0  0
    7.0370   -7.8914    0.0000 O   0  0  0  0  0  0  0  0  0  0  0  0
    7.7515   -7.4789    0.0000 C   0  0  0  0  0  0  0  0  0  0  0  0
    7.7515   -6.6539    0.0000 C   0  0  0  0  0  0  0  0  0  0  0  0
    7.7515   -9.1289    0.0000 O   0  0  0  0  0  0  0  0  0  0  0  0
    8.4659   -6.2414    0.0000 C   0  0  0  0  0  0  0  0  0  0  0  0
    9.1804   -6.6539    0.0000 C   0  0  0  0  0  0  0  0  0  0  0  0
    9.8949   -6.2414    0.0000 C   0  0  0  0  0  0  0  0  0  0  0  0
    9.8949   -5.4164    0.0000 C   0  0  0  0  0  0  0  0  0  0  0  0
    9.1804   -5.0039    0.0000 C   0  0  0  0  0  0  0  0  0  0  0  0
    8.4659   -5.4164    0.0000 C   0  0  0  0  0  0  0  0  0  0  0  0
   10.6094   -5.0039    0.0000 O   0  0  0  0  0  0  0  0  0  0  0  0
  1  2  2  0  0  0  0
  2  3  1  0  0  0  0
  3  4  1  0  0  0  0
  4  5  1  0  0  0  0
  5  6  1  0  0  0  0
  6  1  1  0  0  0  0
  5  7  2  0  0  0  0
  7  8  1  0  0  0  0
  8  9  1  0  0  0  0
  9 10  2  0  0  0  0
  4 11  1  0  0  0  0
 11 12  1  0  0  0  0
 12 13  1  0  0  0  0
 13 14  1  0  0  0  0
 14 15  1  0  0  0  0
 15 16  1  0  0  0  0
 16 17  1  0  0  0  0
 17 12  1  0  0  0  0
 16 18  1  0  0  0  0
 18 19  1  0  0  0  0
 13 20  1  0  0  0  0
 14 21  1  0  0  0  0
 15 22  1  0  0  0  0
  1 23  1  0  0  0  0
 23 24  1  0  0  0  0
 24 25  1  0  0  0  0
 23 26  2  0  0  0  0
  6 27  1  0  0  0  0
 27 28  1  0  0  0  0
 28 29  1  0  0  0  0
 29 30  1  0  0  0  0
 30 31  1  0  0  0  0
 28 32  2  0  0  0  0
 31 33  1  0  0  0  0
 33 34  2  0  0  0  0
 34 35  1  0  0  0  0
 35 36  2  0  0  0  0
 36 37  1  0  0  0  0
 37 38  2  0  0  0  0
 38 33  1  0  0  0  0
 36 39  1  0  0  0  0
M  END
>  <cdx:fragmentId>
5

$$$$
