50317.cdx
  Mrv1902 05222410232D          

 21 22  0  0  0  0            999 V2000
    3.8618   -9.0189    0.0000 C   0  0  0  0  0  0  0  0  0  0  0  0
    3.8618   -9.8439    0.0000 C   0  0  0  0  0  0  0  0  0  0  0  0
    4.5763  -10.2564    0.0000 C   0  0  1  0  0  0  0  0  0  0  0  0
    5.2907   -9.8439    0.0000 C   0  0  0  0  0  0  0  0  0  0  0  0
    5.2907   -9.0189    0.0000 C   0  0  2  0  0  0  0  0  0  0  0  0
    4.5763   -8.6064    0.0000 C   0  0  0  0  0  0  0  0  0  0  0  0
    6.0052  -10.2564    0.0000 C   0  0  0  0  0  0  0  0  0  0  0  0
    6.7197   -9.8439    0.0000 C   0  0  0  0  0  0  0  0  0  0  0  0
    6.7197   -9.0189    0.0000 C   0  0  0  0  0  0  0  0  0  0  0  0
    6.0052   -8.6064    0.0000 C   0  0  0  0  0  0  0  0  0  0  0  0
    6.0052  -11.0814    0.0000 O   0  0  0  0  0  0  0  0  0  0  0  0
    7.4342  -10.2564    0.0000 O   0  0  0  0  0  0  0  0  0  0  0  0
    7.4342   -8.6064    0.0000 C   0  0  0  0  0  0  0  0  0  0  0  0
    6.0052   -7.7814    0.0000 C   0  0  0  0  0  0  0  0  0  0  0  0
    6.7197   -7.3689    0.0000 C   0  0  0  0  0  0  0  0  0  0  0  0
    6.7197   -6.5439    0.0000 C   0  0  0  0  0  0  0  0  0  0  0  0
    5.2907   -8.1939    0.0000 C   0  0  0  0  0  0  0  0  0  0  0  0
    4.1638  -10.9709    0.0000 C   0  0  0  0  0  0  0  0  0  0  0  0
    4.9888  -10.9709    0.0000 C   0  0  0  0  0  0  0  0  0  0  0  0
    7.4342   -6.1314    0.0000 O   0  0  0  0  0  0  0  0  0  0  0  0
    6.0052   -6.1314    0.0000 O   0  0  0  0  0  0  0  0  0  0  0  0
  1  2  1  0  0  0  0
  2  3  1  0  0  0  0
  3  4  1  0  0  0  0
  4  5  1  0  0  0  0
  5  6  1  0  0  0  0
  6  1  1  0  0  0  0
  4  7  2  0  0  0  0
  7  8  1  0  0  0  0
  8  9  1  0  0  0  0
  9 10  2  0  0  0  0
 10  5  1  0  0  0  0
  7 11  1  0  0  0  0
  8 12  2  0  0  0  0
  9 13  1  0  0  0  0
 10 14  1  0  0  0  0
 14 15  1  0  0  0  0
 15 16  1  0  0  0  0
  5 17  1  1  0  0  0
  3 18  1  1  0  0  0
  3 19  1  6  0  0  0
 16 20  1  0  0  0  0
 16 21  2  0  0  0  0
M  END
>  <cdx:fragmentId>
5

$$$$
