50315.cdx
  Mrv1902 05222410222D          

 43 46  0  0  0  0            999 V2000
    3.1355  -12.2925    0.0000 C   0  0  0  0  0  0  0  0  0  0  0  0
    3.1355  -13.1175    0.0000 C   0  0  0  0  0  0  0  0  0  0  0  0
    3.8500  -13.5300    0.0000 C   0  0  0  0  0  0  0  0  0  0  0  0
    4.5645  -13.1175    0.0000 C   0  0  0  0  0  0  0  0  0  0  0  0
    4.5645  -12.2925    0.0000 C   0  0  0  0  0  0  0  0  0  0  0  0
    3.8500  -11.8800    0.0000 C   0  0  0  0  0  0  0  0  0  0  0  0
    3.8500  -14.3550    0.0000 O   0  0  0  0  0  0  0  0  0  0  0  0
    2.4211  -13.5300    0.0000 O   0  0  0  0  0  0  0  0  0  0  0  0
    3.8500  -11.0550    0.0000 C   0  0  0  0  0  0  0  0  0  0  0  0
    4.5645  -10.6425    0.0000 C   0  0  0  0  0  0  0  0  0  0  0  0
    4.5645   -9.8175    0.0000 O   0  0  0  0  0  0  0  0  0  0  0  0
    5.2789   -9.4050    0.0000 C   0  0  0  0  0  0  0  0  0  0  0  0
    5.9934   -9.8175    0.0000 O   0  0  0  0  0  0  0  0  0  0  0  0
    6.7079   -9.4050    0.0000 C   0  0  0  0  0  0  0  0  0  0  0  0
    6.7079   -8.5800    0.0000 C   0  0  0  0  0  0  0  0  0  0  0  0
    5.9934   -8.1675    0.0000 C   0  0  0  0  0  0  0  0  0  0  0  0
    5.2789   -8.5800    0.0000 C   0  0  0  0  0  0  0  0  0  0  0  0
    7.4224   -9.8175    0.0000 C   0  0  0  0  0  0  0  0  0  0  0  0
    7.4224  -10.6425    0.0000 O   0  0  0  0  0  0  0  0  0  0  0  0
    7.4224   -8.1675    0.0000 O   0  0  0  0  0  0  0  0  0  0  0  0
    5.9934   -7.3425    0.0000 O   0  0  0  0  0  0  0  0  0  0  0  0
    4.5645   -8.1675    0.0000 O   0  0  0  0  0  0  0  0  0  0  0  0
    5.2789   -6.9300    0.0000 C   0  0  0  0  0  0  0  0  0  0  0  0
    5.2789   -6.1050    0.0000 C   0  0  0  0  0  0  0  0  0  0  0  0
    4.5645   -5.6925    0.0000 C   0  0  0  0  0  0  0  0  0  0  0  0
    3.8500   -6.1050    0.0000 C   0  0  0  0  0  0  0  0  0  0  0  0
    3.8500   -6.9300    0.0000 C   0  0  0  0  0  0  0  0  0  0  0  0
    4.5645   -7.3425    0.0000 O   0  0  0  0  0  0  0  0  0  0  0  0
    5.9934   -5.6925    0.0000 O   0  0  0  0  0  0  0  0  0  0  0  0
    4.5645   -4.8675    0.0000 O   0  0  0  0  0  0  0  0  0  0  0  0
    3.1355   -5.6925    0.0000 O   0  0  0  0  0  0  0  0  0  0  0  0
    3.1355   -7.3425    0.0000 C   0  0  0  0  0  0  0  0  0  0  0  0
    8.1368   -8.5800    0.0000 C   0  0  0  0  0  0  0  0  0  0  0  0
    8.8513   -8.1675    0.0000 C   0  0  0  0  0  0  0  0  0  0  0  0
    9.5658   -8.5800    0.0000 C   0  0  0  0  0  0  0  0  0  0  0  0
   10.2802   -8.1675    0.0000 C   0  0  0  0  0  0  0  0  0  0  0  0
    8.1368   -9.4050    0.0000 O   0  0  0  0  0  0  0  0  0  0  0  0
   10.9947   -8.5800    0.0000 C   0  0  0  0  0  0  0  0  0  0  0  0
   11.7092   -8.1675    0.0000 C   0  0  0  0  0  0  0  0  0  0  0  0
   11.7092   -7.3425    0.0000 C   0  0  0  0  0  0  0  0  0  0  0  0
   10.9947   -6.9300    0.0000 C   0  0  0  0  0  0  0  0  0  0  0  0
   10.2802   -7.3425    0.0000 C   0  0  0  0  0  0  0  0  0  0  0  0
   12.4237   -6.9300    0.0000 O   0  0  0  0  0  0  0  0  0  0  0  0
  1  2  2  0  0  0  0
  2  3  1  0  0  0  0
  3  4  2  0  0  0  0
  4  5  1  0  0  0  0
  5  6  2  0  0  0  0
  6  1  1  0  0  0  0
  3  7  1  0  0  0  0
  2  8  1  0  0  0  0
  6  9  1  0  0  0  0
  9 10  1  0  0  0  0
 10 11  1  0  0  0  0
 11 12  1  0  0  0  0
 12 13  1  0  0  0  0
 13 14  1  0  0  0  0
 14 15  1  0  0  0  0
 15 16  1  0  0  0  0
 16 17  1  0  0  0  0
 17 12  1  0  0  0  0
 14 18  1  0  0  0  0
 18 19  1  0  0  0  0
 15 20  1  0  0  0  0
 16 21  1  0  0  0  0
 17 22  1  0  0  0  0
 21 23  1  0  0  0  0
 23 24  1  0  0  0  0
 24 25  1  0  0  0  0
 25 26  1  0  0  0  0
 26 27  1  0  0  0  0
 27 28  1  0  0  0  0
 28 23  1  0  0  0  0
 24 29  1  0  0  0  0
 25 30  1  0  0  0  0
 26 31  1  0  0  0  0
 27 32  1  0  0  0  0
 20 33  1  0  0  0  0
 33 34  1  0  0  0  0
 34 35  2  0  0  0  0
 35 36  1  0  0  0  0
 33 37  2  0  0  0  0
 36 38  2  0  0  0  0
 38 39  1  0  0  0  0
 39 40  2  0  0  0  0
 40 41  1  0  0  0  0
 41 42  2  0  0  0  0
 42 36  1  0  0  0  0
 40 43  1  0  0  0  0
M  END
>  <cdx:fragmentId>
162

$$$$
