50312.cdx
  Mrv1902 05222410212D          

  5  5  0  0  0  0            999 V2000
    5.7616   -8.0426    0.0000 C   0  0  0  0  0  0  0  0  0  0  0  0
    5.7616   -8.8676    0.0000 C   0  0  0  0  0  0  0  0  0  0  0  0
    6.5463   -9.1226    0.0000 N   0  0  0  0  0  0  0  0  0  0  0  0
    7.0312   -8.4551    0.0000 N   0  0  0  0  0  0  0  0  0  0  0  0
    6.5463   -7.7877    0.0000 C   0  0  0  0  0  0  0  0  0  0  0  0
  1  2  2  0  0  0  0
  2  3  1  0  0  0  0
  3  4  1  0  0  0  0
  4  5  1  0  0  0  0
  5  1  1  0  0  0  0
M  END
>  <cdx:fragmentId>
5

$$$$
