50322.cdx
  Mrv1902 05222410252D          

 18 20  0  0  0  0            999 V2000
    5.4568   -7.7264    0.0000 C   0  0  0  0  0  0  0  0  0  0  0  0
    5.4568   -8.5514    0.0000 O   0  0  0  0  0  0  0  0  0  0  0  0
    6.1713   -8.9639    0.0000 C   0  0  0  0  0  0  0  0  0  0  0  0
    6.8857   -8.5514    0.0000 C   0  0  0  0  0  0  0  0  0  0  0  0
    6.8857   -7.7264    0.0000 C   0  0  0  0  0  0  0  0  0  0  0  0
    6.1713   -7.3139    0.0000 C   0  0  0  0  0  0  0  0  0  0  0  0
    7.6704   -8.8063    0.0000 C   0  0  0  0  0  0  0  0  0  0  0  0
    8.1553   -8.1389    0.0000 C   0  0  0  0  0  0  0  0  0  0  0  0
    7.6704   -7.4715    0.0000 C   0  0  0  0  0  0  0  0  0  0  0  0
    6.1713   -9.7889    0.0000 O   0  0  0  0  0  0  0  0  0  0  0  0
    7.4568   -9.6032    0.0000 C   0  0  0  0  0  0  0  0  0  0  0  0
    8.4908   -8.8926    0.0000 O   0  0  0  0  0  0  0  0  0  0  0  0
    7.9253   -6.6868    0.0000 O   0  0  0  0  0  0  0  0  0  0  0  0
    6.9720   -6.9059    0.0000 O   0  0  0  0  0  0  0  0  0  0  0  0
    6.1713   -6.4889    0.0000 C   0  0  0  0  0  0  0  0  0  0  0  0
    5.4568   -6.0764    0.0000 O   0  0  0  0  0  0  0  0  0  0  0  0
    6.8857   -6.0764    0.0000 O   0  0  0  0  0  0  0  0  0  0  0  0
    4.7423   -6.4889    0.0000 C   0  0  0  0  0  0  0  0  0  0  0  0
  1  2  1  0  0  0  0
  2  3  1  0  0  0  0
  3  4  1  0  0  0  0
  4  5  1  0  0  0  0
  5  6  1  0  0  0  0
  6  1  2  0  0  0  0
  4  7  1  0  0  0  0
  7  8  1  0  0  0  0
  8  9  1  0  0  0  0
  9  5  1  0  0  0  0
  3 10  1  0  0  0  0
  7 11  1  0  0  0  0
  7 12  1  0  0  0  0
 12  8  1  0  0  0  0
  9 13  1  0  0  0  0
  5 14  1  0  0  0  0
  6 15  1  0  0  0  0
 15 16  1  0  0  0  0
 15 17  2  0  0  0  0
 16 18  1  0  0  0  0
M  END
>  <cdx:fragmentId>
5

$$$$
