50325.cdx
  Mrv1902 05222410242D          

 41 45  0  0  0  0            999 V2000
    5.9518   -8.7164    0.0000 C   0  0  0  0  0  0  0  0  0  0  0  0
    5.9518   -9.5414    0.0000 C   0  0  0  0  0  0  0  0  0  0  0  0
    6.6663   -9.9539    0.0000 C   0  0  0  0  0  0  0  0  0  0  0  0
    7.3807   -9.5414    0.0000 C   0  0  0  0  0  0  0  0  0  0  0  0
    7.3807   -8.7164    0.0000 C   0  0  0  0  0  0  0  0  0  0  0  0
    6.6663   -8.3039    0.0000 C   0  0  0  0  0  0  0  0  0  0  0  0
    8.0952   -9.9539    0.0000 O   0  0  0  0  0  0  0  0  0  0  0  0
    8.8097   -9.5414    0.0000 C   0  0  0  0  0  0  0  0  0  0  0  0
    8.8097   -8.7164    0.0000 C   0  0  0  0  0  0  0  0  0  0  0  0
    8.0952   -8.3039    0.0000 C   0  0  0  0  0  0  0  0  0  0  0  0
    9.5242   -9.9539    0.0000 C   0  0  0  0  0  0  0  0  0  0  0  0
   10.2386   -9.5414    0.0000 C   0  0  0  0  0  0  0  0  0  0  0  0
    9.5242   -8.3039    0.0000 O   0  0  0  0  0  0  0  0  0  0  0  0
    9.5242  -10.7789    0.0000 C   0  0  0  0  0  0  0  0  0  0  0  0
   10.2386  -11.1914    0.0000 C   0  0  0  0  0  0  0  0  0  0  0  0
   10.9531  -10.7789    0.0000 C   0  0  0  0  0  0  0  0  0  0  0  0
   10.9531   -9.9539    0.0000 C   0  0  0  0  0  0  0  0  0  0  0  0
    8.0952   -7.4789    0.0000 O   0  0  0  0  0  0  0  0  0  0  0  0
    6.6663   -7.4789    0.0000 O   0  0  0  0  0  0  0  0  0  0  0  0
   11.6676  -11.1914    0.0000 O   0  0  0  0  0  0  0  0  0  0  0  0
    5.2373   -9.9539    0.0000 O   0  0  0  0  0  0  0  0  0  0  0  0
   11.1758   -6.8898    0.0000 C   0  0  2  0  0  0  0  0  0  0  0  0
   10.7679   -6.1727    0.0000 C   0  0  2  0  0  0  0  0  0  0  0  0
    9.9429   -6.1674    0.0000 C   0  0  1  0  0  0  0  0  0  0  0  0
    9.5258   -6.8792    0.0000 C   0  0  1  0  0  0  0  0  0  0  0  0
    9.9337   -7.5963    0.0000 C   0  0  1  0  0  0  0  0  0  0  0  0
   10.7587   -7.6016    0.0000 O   0  0  0  0  0  0  0  0  0  0  0  0
   12.0008   -6.8950    0.0000 C   0  0  0  0  0  0  0  0  0  0  0  0
    9.5350   -5.4503    0.0000 O   0  0  0  0  0  0  0  0  0  0  0  0
    8.7008   -6.8739    0.0000 O   0  0  0  0  0  0  0  0  0  0  0  0
   11.1849   -5.4608    0.0000 O   0  0  0  0  0  0  0  0  0  0  0  0
    3.0915  -10.3611    0.0000 C   0  0  2  0  0  0  0  0  0  0  0  0
    3.0915  -11.1861    0.0000 C   0  0  2  0  0  0  0  0  0  0  0  0
    3.8060  -11.5986    0.0000 C   0  0  1  0  0  0  0  0  0  0  0  0
    4.5205  -11.1861    0.0000 C   0  0  1  0  0  0  0  0  0  0  0  0
    4.5205  -10.3611    0.0000 C   0  0  1  0  0  0  0  0  0  0  0  0
    3.8060   -9.9486    0.0000 O   0  0  0  0  0  0  0  0  0  0  0  0
    2.3771   -9.9486    0.0000 C   0  0  0  0  0  0  0  0  0  0  0  0
    3.8060  -12.4236    0.0000 O   0  0  0  0  0  0  0  0  0  0  0  0
    5.2350  -11.5986    0.0000 O   0  0  0  0  0  0  0  0  0  0  0  0
    2.3771  -11.5986    0.0000 O   0  0  0  0  0  0  0  0  0  0  0  0
  1  2  2  0  0  0  0
  2  3  1  0  0  0  0
  3  4  2  0  0  0  0
  4  5  1  0  0  0  0
  5  6  2  0  0  0  0
  6  1  1  0  0  0  0
  4  7  1  0  0  0  0
  7  8  1  0  0  0  0
  8  9  2  0  0  0  0
  9 10  1  0  0  0  0
 10  5  1  0  0  0  0
  8 11  1  0  0  0  0
 11 12  2  0  0  0  0
 13  9  1  0  0  0  0
 11 14  1  0  0  0  0
 14 15  2  0  0  0  0
 15 16  1  0  0  0  0
 16 17  2  0  0  0  0
 17 12  1  0  0  0  0
 10 18  2  0  0  0  0
 19  6  1  0  0  0  0
 16 20  1  0  0  0  0
  2 21  1  0  0  0  0
 22 23  1  0  0  0  0
 23 24  1  0  0  0  0
 24 25  1  0  0  0  0
 25 26  1  0  0  0  0
 26 27  1  0  0  0  0
 27 22  1  0  0  0  0
 22 28  1  1  0  0  0
 24 29  1  1  0  0  0
 25 30  1  1  0  0  0
 23 31  1  6  0  0  0
 32 33  1  0  0  0  0
 33 34  1  0  0  0  0
 34 35  1  0  0  0  0
 35 36  1  0  0  0  0
 36 37  1  0  0  0  0
 37 32  1  0  0  0  0
 32 38  1  1  0  0  0
 34 39  1  1  0  0  0
 35 40  1  1  0  0  0
 33 41  1  6  0  0  0
 36 21  1  1  0  0  0
 26 13  1  1  0  0  0
M  END
>  <cdx:fragmentId>
5

$$$$
