50323.cdx
  Mrv1902 05222410252D          

 23 26  0  0  0  0            999 V2000
    8.4507   -5.8673    0.0000 H   0  0  0  0  0  0  0  0  0  0  0  0
    6.0633   -7.5288    0.0000 H   0  0  0  0  0  0  0  0  0  0  0  0
    6.0639  -10.0038    0.0000 H   0  0  0  0  0  0  0  0  0  0  0  0
    5.7620  -10.3058    0.0000 C   0  0  0  0  0  0  0  0  0  0  0  0
    4.9370  -10.3060    0.0000 C   0  0  0  0  0  0  0  0  0  0  0  0
    6.7781   -8.7661    0.0000 C   0  0  0  0  0  0  0  0  0  0  0  0
    9.3191   -7.1402    0.0000 C   0  0  0  0  0  0  0  0  0  0  0  0
    7.2548   -7.3093    0.0000 C   0  0  0  0  0  0  0  0  0  0  0  0
    8.2603   -8.0518    0.0000 C   0  0  0  0  0  0  0  0  0  0  0  0
    8.5033   -7.2634    0.0000 C   0  0  0  0  0  0  0  0  0  0  0  0
    8.0384   -6.5818    0.0000 C   0  0  1  0  0  0  0  0  0  0  0  0
    7.2157   -6.5204    0.0000 C   0  0  0  0  0  0  0  0  0  0  0  0
    6.6547   -7.1253    0.0000 C   0  0  0  0  0  0  0  0  0  0  0  0
    6.7779   -7.9411    0.0000 C   0  0  1  0  0  0  0  0  0  0  0  0
    6.0635   -8.3538    0.0000 C   0  0  1  0  0  0  0  0  0  0  0  0
    5.3489   -7.9415    0.0000 C   0  0  0  0  0  0  0  0  0  0  0  0
    4.6346   -8.3541    0.0000 C   0  0  0  0  0  0  0  0  0  0  0  0
    4.6348   -9.1791    0.0000 C   0  0  0  0  0  0  0  0  0  0  0  0
    5.3494   -9.5915    0.0000 C   0  0  0  0  0  0  0  0  0  0  0  0
    6.0637   -9.1788    0.0000 C   0  0  1  0  0  0  0  0  0  0  0  0
    6.7783   -9.5911    0.0000 C   0  0  0  0  0  0  0  0  0  0  0  0
    7.4927   -9.1784    0.0000 C   0  0  0  0  0  0  0  0  0  0  0  0
    7.4924   -8.3534    0.0000 C   0  0  2  0  0  0  0  0  0  0  0  0
 11  1  1  1  0  0  0
 14  2  1  1  0  0  0
 20  3  1  1  0  0  0
 19  4  1  0  0  0  0
 19  5  1  0  0  0  0
 15  6  1  6  0  0  0
 10  7  2  0  0  0  0
 20 15  1  0  0  0  0
 23 14  1  0  0  0  0
 11  8  1  0  0  0  0
 23  8  1  0  0  0  0
 23  9  1  0  0  0  0
 10  9  1  0  0  0  0
 11 10  1  0  0  0  0
 12 11  1  0  0  0  0
 13 12  1  0  0  0  0
 14 13  1  0  0  0  0
 15 14  1  0  0  0  0
 16 15  1  0  0  0  0
 17 16  1  0  0  0  0
 18 17  1  0  0  0  0
 19 18  1  0  0  0  0
 20 19  1  0  0  0  0
 21 20  1  0  0  0  0
 22 21  1  0  0  0  0
 23 22  1  1  0  0  0
M  END
>  <cdx:fragmentId>
5

$$$$
