50334.cdx
  Mrv1902 05222410252D          

 30 33  0  0  0  0            999 V2000
    5.4051   -6.8067    0.0000 O   0  0  0  0  0  0  0  0  0  0  0  0
    3.9761   -4.3317    0.0000 O   0  0  0  0  0  0  0  0  0  0  0  0
   10.4064   -3.0942    0.0000 O   0  0  0  0  0  0  0  0  0  0  0  0
    8.2630   -3.5067    0.0000 C   0  0  0  0  0  0  0  0  0  0  0  0
    8.9774   -3.0942    0.0000 C   0  0  0  0  0  0  0  0  0  0  0  0
    9.6919   -3.5067    0.0000 C   0  0  0  0  0  0  0  0  0  0  0  0
    9.6919   -4.3317    0.0000 C   0  0  0  0  0  0  0  0  0  0  0  0
    8.9774   -4.7442    0.0000 C   0  0  0  0  0  0  0  0  0  0  0  0
    8.2630   -4.3317    0.0000 C   0  0  0  0  0  0  0  0  0  0  0  0
    9.6919   -6.8067    0.0000 O   0  0  0  0  0  0  0  0  0  0  0  0
    9.6919   -8.4567    0.0000 O   0  0  0  0  0  0  0  0  0  0  0  0
    8.2630   -9.2817    0.0000 O   0  0  0  0  0  0  0  0  0  0  0  0
    7.5485   -8.0442    0.0000 C   0  0  0  0  0  0  0  0  0  0  0  0
    8.2630   -8.4567    0.0000 C   0  0  2  0  0  0  0  0  0  0  0  0
    8.9774   -8.0442    0.0000 C   0  0  1  0  0  0  0  0  0  0  0  0
    8.9774   -7.2192    0.0000 C   0  0  2  0  0  0  0  0  0  0  0  0
    8.2630   -6.8067    0.0000 C   0  0  1  0  0  0  0  0  0  0  0  0
    7.5485   -7.2192    0.0000 O   0  0  0  0  0  0  0  0  0  0  0  0
    8.2630   -5.9817    0.0000 O   0  0  0  0  0  0  0  0  0  0  0  0
    6.8340   -6.8067    0.0000 O   0  0  0  0  0  0  0  0  0  0  0  0
    6.8340   -4.3317    0.0000 O   0  0  0  0  0  0  0  0  0  0  0  0
    6.1195   -4.7442    0.0000 C   0  0  0  0  0  0  0  0  0  0  0  0
    5.4051   -4.3317    0.0000 C   0  0  0  0  0  0  0  0  0  0  0  0
    4.6906   -4.7442    0.0000 C   0  0  0  0  0  0  0  0  0  0  0  0
    4.6906   -5.5692    0.0000 C   0  0  0  0  0  0  0  0  0  0  0  0
    5.4051   -5.9817    0.0000 C   0  0  0  0  0  0  0  0  0  0  0  0
    6.1195   -5.5692    0.0000 C   0  0  0  0  0  0  0  0  0  0  0  0
    6.8340   -5.9817    0.0000 C   0  0  0  0  0  0  0  0  0  0  0  0
    7.5485   -5.5692    0.0000 C   0  0  0  0  0  0  0  0  0  0  0  0
    7.5485   -4.7442    0.0000 C   0  0  0  0  0  0  0  0  0  0  0  0
 26  1  1  0  0  0  0
 24  2  1  0  0  0  0
 30  9  1  0  0  0  0
  6  3  1  0  0  0  0
  9  4  2  0  0  0  0
  5  4  1  0  0  0  0
  6  5  2  0  0  0  0
  7  6  1  0  0  0  0
  8  7  2  0  0  0  0
  9  8  1  0  0  0  0
 29 19  1  0  0  0  0
 17 19  1  1  0  0  0
 16 10  1  6  0  0  0
 15 11  1  1  0  0  0
 14 12  1  6  0  0  0
 18 13  1  0  0  0  0
 14 13  1  0  0  0  0
 15 14  1  0  0  0  0
 16 15  1  0  0  0  0
 17 16  1  0  0  0  0
 18 17  1  0  0  0  0
 28 20  2  0  0  0  0
 30 21  1  0  0  0  0
 22 21  1  0  0  0  0
 27 22  2  0  0  0  0
 23 22  1  0  0  0  0
 24 23  2  0  0  0  0
 25 24  1  0  0  0  0
 26 25  2  0  0  0  0
 27 26  1  0  0  0  0
 28 27  1  0  0  0  0
 29 28  1  0  0  0  0
 30 29  2  0  0  0  0
M  END
>  <cdx:fragmentId>
286

$$$$
