50331.cdx
  Mrv1902 05222410242D          

 44 48  0  0  0  0            999 V2000
    8.5429   -6.8285    0.0000 C   0  0  0  0  0  0  0  0  0  0  0  0
    8.5429   -7.6535    0.0000 C   0  0  0  0  0  0  0  0  0  0  0  0
    7.8284   -8.0660    0.0000 C   0  0  0  0  0  0  0  0  0  0  0  0
    7.8284   -8.8910    0.0000 O   0  0  0  0  0  0  0  0  0  0  0  0
    7.1139   -7.6535    0.0000 C   0  0  0  0  0  0  0  0  0  0  0  0
    6.3995   -8.0660    0.0000 C   0  0  0  0  0  0  0  0  0  0  0  0
    6.3995   -8.8910    0.0000 O   0  0  0  0  0  0  0  0  0  0  0  0
    5.6850   -7.6535    0.0000 C   0  0  0  0  0  0  0  0  0  0  0  0
    5.6850   -6.8285    0.0000 C   0  0  0  0  0  0  0  0  0  0  0  0
    4.9705   -6.4160    0.0000 O   0  0  0  0  0  0  0  0  0  0  0  0
    6.3995   -6.4160    0.0000 C   0  0  0  0  0  0  0  0  0  0  0  0
    7.1139   -6.8285    0.0000 C   0  0  0  0  0  0  0  0  0  0  0  0
    7.8284   -6.4160    0.0000 O   0  0  0  0  0  0  0  0  0  0  0  0
    9.2574   -6.4160    0.0000 C   0  0  0  0  0  0  0  0  0  0  0  0
    9.2574   -5.5910    0.0000 C   0  0  0  0  0  0  0  0  0  0  0  0
    9.9718   -5.1785    0.0000 C   0  0  0  0  0  0  0  0  0  0  0  0
   10.6863   -5.5910    0.0000 C   0  0  0  0  0  0  0  0  0  0  0  0
   11.4008   -5.1785    0.0000 O   0  0  0  0  0  0  0  0  0  0  0  0
   10.6863   -6.4160    0.0000 C   0  0  0  0  0  0  0  0  0  0  0  0
    9.9718   -6.8285    0.0000 C   0  0  0  0  0  0  0  0  0  0  0  0
    9.2574   -8.0660    0.0000 O   0  0  0  0  0  0  0  0  0  0  0  0
    9.2574   -8.8910    0.0000 C   0  0  1  0  0  0  0  0  0  0  0  0
    9.9718   -9.3035    0.0000 C   0  0  2  0  0  0  0  0  0  0  0  0
   10.6863   -8.8910    0.0000 O   0  0  0  0  0  0  0  0  0  0  0  0
    9.9718  -10.1285    0.0000 C   0  0  1  0  0  0  0  0  0  0  0  0
   10.6863  -10.5410    0.0000 O   0  0  0  0  0  0  0  0  0  0  0  0
    9.2574  -10.5410    0.0000 C   0  0  2  0  0  0  0  0  0  0  0  0
    9.2574  -11.3660    0.0000 O   0  0  0  0  0  0  0  0  0  0  0  0
    8.5429  -10.1285    0.0000 C   0  0  2  0  0  0  0  0  0  0  0  0
    8.5429   -9.3035    0.0000 O   0  0  0  0  0  0  0  0  0  0  0  0
    7.8284  -10.5410    0.0000 C   0  0  0  0  0  0  0  0  0  0  0  0
    7.1139  -10.1285    0.0000 O   0  0  0  0  0  0  0  0  0  0  0  0
    6.3995  -10.5410    0.0000 C   0  0  0  0  0  0  0  0  0  0  0  0
    5.6850  -10.1285    0.0000 C   0  0  0  0  0  0  0  0  0  0  0  0
    6.3995  -11.3660    0.0000 O   0  0  0  0  0  0  0  0  0  0  0  0
    4.9705  -10.5410    0.0000 C   0  0  0  0  0  0  0  0  0  0  0  0
    4.2561  -10.1285    0.0000 C   0  0  0  0  0  0  0  0  0  0  0  0
    4.2561   -9.3035    0.0000 C   0  0  0  0  0  0  0  0  0  0  0  0
    3.5416   -8.8910    0.0000 C   0  0  0  0  0  0  0  0  0  0  0  0
    2.8271   -9.3035    0.0000 C   0  0  0  0  0  0  0  0  0  0  0  0
    2.8271  -10.1285    0.0000 C   0  0  0  0  0  0  0  0  0  0  0  0
    3.5416  -10.5410    0.0000 C   0  0  0  0  0  0  0  0  0  0  0  0
    2.1126   -8.8910    0.0000 O   0  0  0  0  0  0  0  0  0  0  0  0
    2.1126  -10.5410    0.0000 O   0  0  0  0  0  0  0  0  0  0  0  0
  1  2  2  0  0  0  0
  2  3  1  0  0  0  0
  3  4  2  0  0  0  0
  3  5  1  0  0  0  0
  5  6  1  0  0  0  0
  6  7  1  0  0  0  0
  6  8  2  0  0  0  0
  8  9  1  0  0  0  0
  9 10  1  0  0  0  0
  9 11  2  0  0  0  0
 11 12  1  0  0  0  0
  5 12  2  0  0  0  0
 12 13  1  0  0  0  0
  1 13  1  0  0  0  0
  1 14  1  0  0  0  0
 14 15  1  0  0  0  0
 15 16  2  0  0  0  0
 16 17  1  0  0  0  0
 17 18  1  0  0  0  0
 17 19  2  0  0  0  0
 19 20  1  0  0  0  0
 14 20  2  0  0  0  0
 22 21  1  1  0  0  0
 22 23  1  0  0  0  0
 23 24  1  6  0  0  0
 23 25  1  0  0  0  0
 25 26  1  1  0  0  0
 25 27  1  0  0  0  0
 27 28  1  6  0  0  0
 27 29  1  0  0  0  0
 29 30  1  0  0  0  0
 29 31  1  1  0  0  0
 31 32  1  0  0  0  0
 22 30  1  0  0  0  0
  2 21  1  0  0  0  0
 32 33  1  0  0  0  0
 33 34  1  0  0  0  0
 33 35  2  0  0  0  0
 34 36  2  0  0  0  0
 36 37  1  0  0  0  0
 37 38  2  0  0  0  0
 38 39  1  0  0  0  0
 39 40  2  0  0  0  0
 40 41  1  0  0  0  0
 41 42  2  0  0  0  0
 42 37  1  0  0  0  0
 40 43  1  0  0  0  0
 41 44  1  0  0  0  0
M  END
>  <cdx:fragmentId>
5

$$$$
