50330.cdx
  Mrv1902 05222410242D          

 36 39  0  0  0  0            999 V2000
    6.7605   -8.0960    0.0000 O   0  0  0  0  0  0  0  0  0  0  0  0
    6.0269  -10.1457    0.0000 C   0  0  2  0  0  0  0  0  0  0  0  0
    6.7375  -10.5648    0.0000 C   0  0  2  0  0  0  0  0  0  0  0  0
    7.4558  -10.1590    0.0000 C   0  0  1  0  0  0  0  0  0  0  0  0
    7.4635   -9.3341    0.0000 C   0  0  2  0  0  0  0  0  0  0  0  0
    6.7529   -8.9149    0.0000 C   0  0  1  0  0  0  0  0  0  0  0  0
    6.0346   -9.3207    0.0000 O   0  0  0  0  0  0  0  0  0  0  0  0
    5.3086  -10.5515    0.0000 C   0  0  0  0  0  0  0  0  0  0  0  0
    8.1664  -10.5782    0.0000 O   0  0  0  0  0  0  0  0  0  0  0  0
    8.1818   -8.9283    0.0000 O   0  0  0  0  0  0  0  0  0  0  0  0
    6.7298  -11.3898    0.0000 O   0  0  0  0  0  0  0  0  0  0  0  0
    5.3009  -11.3764    0.0000 O   0  0  0  0  0  0  0  0  0  0  0  0
    4.5980  -10.1323    0.0000 O   0  0  0  0  0  0  0  0  0  0  0  0
    2.4747   -6.4433    0.0000 O   0  0  0  0  0  0  0  0  0  0  0  0
    8.9057   -5.2099    0.0000 O   0  0  0  0  0  0  0  0  0  0  0  0
    3.9021   -8.9192    0.0000 O   0  0  0  0  0  0  0  0  0  0  0  0
    5.3310   -8.9201    0.0000 O   0  0  0  0  0  0  0  0  0  0  0  0
    8.1905   -6.4469    0.0000 C   0  0  0  0  0  0  0  0  0  0  0  0
    8.1910   -5.6219    0.0000 C   0  0  0  0  0  0  0  0  0  0  0  0
    7.4768   -5.2090    0.0000 C   0  0  0  0  0  0  0  0  0  0  0  0
    6.7621   -5.6210    0.0000 C   0  0  0  0  0  0  0  0  0  0  0  0
    7.4757   -6.8590    0.0000 C   0  0  0  0  0  0  0  0  0  0  0  0
    6.7615   -6.4460    0.0000 C   0  0  0  0  0  0  0  0  0  0  0  0
    5.3315   -8.0951    0.0000 C   0  0  0  0  0  0  0  0  0  0  0  0
    6.0463   -7.6830    0.0000 C   0  0  0  0  0  0  0  0  0  0  0  0
    6.0468   -6.8580    0.0000 C   0  0  0  0  0  0  0  0  0  0  0  0
    5.3326   -6.4451    0.0000 O   0  0  0  0  0  0  0  0  0  0  0  0
    3.9026   -8.0942    0.0000 C   0  0  0  0  0  0  0  0  0  0  0  0
    4.6173   -7.6821    0.0000 C   0  0  0  0  0  0  0  0  0  0  0  0
    4.6179   -6.8571    0.0000 C   0  0  0  0  0  0  0  0  0  0  0  0
    3.9037   -6.4442    0.0000 C   0  0  0  0  0  0  0  0  0  0  0  0
    3.1889   -6.8562    0.0000 C   0  0  0  0  0  0  0  0  0  0  0  0
    3.1884   -7.6812    0.0000 C   0  0  0  0  0  0  0  0  0  0  0  0
    8.8847  -10.1724    0.0000 C   0  0  0  0  0  0  0  0  0  0  0  0
    9.5953  -10.5915    0.0000 C   0  0  0  0  0  0  0  0  0  0  0  0
    8.8924   -9.3474    0.0000 O   0  0  0  0  0  0  0  0  0  0  0  0
  2  3  1  0  0  0  0
  3  4  1  0  0  0  0
  4  5  1  0  0  0  0
  5  6  1  0  0  0  0
  6  7  1  0  0  0  0
  7  2  1  0  0  0  0
  2  8  1  1  0  0  0
  4  9  1  1  0  0  0
  5 10  1  6  0  0  0
  3 11  1  6  0  0  0
  8 12  1  0  0  0  0
  6  1  1  1  0  0  0
  8 13  2  0  0  0  0
 32 14  1  0  0  0  0
 19 15  1  0  0  0  0
 16 28  1  0  0  0  0
 24 17  2  0  0  0  0
 18 22  1  0  0  0  0
 19 18  2  0  0  0  0
 20 19  1  0  0  0  0
 21 20  2  0  0  0  0
 23 21  1  0  0  0  0
  1 25  1  0  0  0  0
 23 22  2  0  0  0  0
 26 23  1  0  0  0  0
 24 29  1  0  0  0  0
 25 24  1  0  0  0  0
 26 25  2  0  0  0  0
 27 26  1  0  0  0  0
 30 27  1  0  0  0  0
 28 33  1  0  0  0  0
 29 28  2  0  0  0  0
 30 29  1  0  0  0  0
 31 30  2  0  0  0  0
 32 31  1  0  0  0  0
 33 32  2  0  0  0  0
  9 34  1  0  0  0  0
 34 35  1  0  0  0  0
 34 36  2  0  0  0  0
M  END
>  <cdx:fragmentId>
5

$$$$
