50335.cdx
  Mrv1902 05222410252D          

 49 53  0  0  0  0            999 V2000
    6.9561   -7.1297    0.0000 O   0  0  0  0  0  0  0  0  0  0  0  0
    4.8187   -7.5195    0.0000 C   0  0  2  0  0  0  0  0  0  0  0  0
    4.8103   -8.3444    0.0000 C   0  0  2  0  0  0  0  0  0  0  0  0
    5.5205   -8.7642    0.0000 C   0  0  1  0  0  0  0  0  0  0  0  0
    6.2391   -8.3591    0.0000 C   0  0  2  0  0  0  0  0  0  0  0  0
    6.2476   -7.5342    0.0000 C   0  0  1  0  0  0  0  0  0  0  0  0
    5.5374   -7.1143    0.0000 O   0  0  0  0  0  0  0  0  0  0  0  0
    4.1085   -7.0997    0.0000 C   0  0  0  0  0  0  0  0  0  0  0  0
    5.5120   -9.5892    0.0000 O   0  0  0  0  0  0  0  0  0  0  0  0
    6.9493   -8.7789    0.0000 O   0  0  0  0  0  0  0  0  0  0  0  0
    4.0916   -8.7496    0.0000 O   0  0  0  0  0  0  0  0  0  0  0  0
    3.3899   -7.5048    0.0000 O   0  0  0  0  0  0  0  0  0  0  0  0
    2.6728   -7.0968    0.0000 C   0  0  0  0  0  0  0  0  0  0  0  0
    1.9610   -7.5137    0.0000 C   0  0  0  0  0  0  0  0  0  0  0  0
    1.2439   -7.1057    0.0000 C   0  0  0  0  0  0  0  0  0  0  0  0
    0.5320   -7.5227    0.0000 O   0  0  0  0  0  0  0  0  0  0  0  0
    1.2388   -6.2807    0.0000 O   0  0  0  0  0  0  0  0  0  0  0  0
    2.6677   -6.2718    0.0000 O   0  0  0  0  0  0  0  0  0  0  0  0
   11.2429   -8.7797    0.0000 O   0  0  0  0  0  0  0  0  0  0  0  0
   10.5272  -10.8314    0.0000 C   0  0  2  0  0  0  0  0  0  0  0  0
   11.2427  -11.2422    0.0000 C   0  0  2  0  0  0  0  0  0  0  0  0
   11.9562  -10.8280    0.0000 C   0  0  1  0  0  0  0  0  0  0  0  0
   11.9542  -10.0030    0.0000 C   0  0  2  0  0  0  0  0  0  0  0  0
   11.2388   -9.5922    0.0000 C   0  0  1  0  0  0  0  0  0  0  0  0
   10.5253  -10.0064    0.0000 O   0  0  0  0  0  0  0  0  0  0  0  0
    9.8137  -11.2456    0.0000 C   0  0  0  0  0  0  0  0  0  0  0  0
   12.6716  -11.2388    0.0000 O   0  0  0  0  0  0  0  0  0  0  0  0
   12.6677   -9.5888    0.0000 O   0  0  0  0  0  0  0  0  0  0  0  0
   11.2446  -12.0672    0.0000 O   0  0  0  0  0  0  0  0  0  0  0  0
    9.8157  -12.0706    0.0000 O   0  0  0  0  0  0  0  0  0  0  0  0
   13.3863   -5.8922    0.0000 O   0  0  0  0  0  0  0  0  0  0  0  0
    8.3850   -9.6047    0.0000 O   0  0  0  0  0  0  0  0  0  0  0  0
    9.8140   -9.6047    0.0000 O   0  0  0  0  0  0  0  0  0  0  0  0
   12.6719   -7.1297    0.0000 C   0  0  0  0  0  0  0  0  0  0  0  0
   12.6719   -6.3047    0.0000 C   0  0  0  0  0  0  0  0  0  0  0  0
   11.9574   -5.8922    0.0000 C   0  0  0  0  0  0  0  0  0  0  0  0
   11.2429   -6.3047    0.0000 C   0  0  0  0  0  0  0  0  0  0  0  0
   11.9574   -7.5422    0.0000 C   0  0  0  0  0  0  0  0  0  0  0  0
   11.2429   -7.1297    0.0000 C   0  0  0  0  0  0  0  0  0  0  0  0
    9.8140   -8.7797    0.0000 C   0  0  0  0  0  0  0  0  0  0  0  0
   10.5284   -8.3672    0.0000 C   0  0  0  0  0  0  0  0  0  0  0  0
   10.5284   -7.5422    0.0000 C   0  0  0  0  0  0  0  0  0  0  0  0
    9.8140   -7.1297    0.0000 O   0  0  0  0  0  0  0  0  0  0  0  0
    8.3850   -8.7797    0.0000 C   0  0  0  0  0  0  0  0  0  0  0  0
    9.0995   -8.3672    0.0000 C   0  0  0  0  0  0  0  0  0  0  0  0
    9.0995   -7.5422    0.0000 C   0  0  0  0  0  0  0  0  0  0  0  0
    8.3850   -7.1297    0.0000 C   0  0  0  0  0  0  0  0  0  0  0  0
    7.6706   -7.5422    0.0000 C   0  0  0  0  0  0  0  0  0  0  0  0
    7.6706   -8.3672    0.0000 C   0  0  0  0  0  0  0  0  0  0  0  0
  2  3  1  0  0  0  0
  3  4  1  0  0  0  0
  4  5  1  0  0  0  0
  5  6  1  0  0  0  0
  6  7  1  0  0  0  0
  7  2  1  0  0  0  0
  2  8  1  1  0  0  0
  4  9  1  1  0  0  0
  5 10  1  6  0  0  0
  3 11  1  6  0  0  0
  8 12  1  0  0  0  0
 12 13  1  0  0  0  0
 13 14  1  0  0  0  0
 14 15  1  0  0  0  0
 15 16  1  0  0  0  0
 15 17  2  0  0  0  0
 13 18  2  0  0  0  0
 20 21  1  0  0  0  0
 21 22  1  0  0  0  0
 22 23  1  0  0  0  0
 23 24  1  0  0  0  0
 24 25  1  0  0  0  0
 25 20  1  0  0  0  0
 20 26  1  1  0  0  0
 22 27  1  1  0  0  0
 23 28  1  6  0  0  0
 21 29  1  6  0  0  0
 26 30  1  0  0  0  0
 48  1  1  0  0  0  0
  6  1  1  1  0  0  0
 35 31  1  0  0  0  0
 32 44  1  0  0  0  0
 40 33  2  0  0  0  0
 34 38  1  0  0  0  0
 35 34  2  0  0  0  0
 36 35  1  0  0  0  0
 37 36  2  0  0  0  0
 39 37  1  0  0  0  0
 19 41  1  0  0  0  0
 39 38  2  0  0  0  0
 42 39  1  0  0  0  0
 24 19  1  1  0  0  0
 40 45  1  0  0  0  0
 41 40  1  0  0  0  0
 42 41  2  0  0  0  0
 43 42  1  0  0  0  0
 46 43  1  0  0  0  0
 44 49  1  0  0  0  0
 45 44  2  0  0  0  0
 46 45  1  0  0  0  0
 47 46  2  0  0  0  0
 48 47  1  0  0  0  0
 49 48  2  0  0  0  0
M  END
>  <cdx:fragmentId>
5

$$$$
