50344.cdx
  Mrv1902 05222410262D          

 38 41  0  0  0  0            999 V2000
    7.0386   -7.9326    0.0000 O   0  0  0  0  0  0  0  0  0  0  0  0
    4.8927   -8.3431    0.0000 C   0  0  2  0  0  0  0  0  0  0  0  0
    4.8919   -9.1681    0.0000 C   0  0  2  0  0  0  0  0  0  0  0  0
    5.6059   -9.5813    0.0000 C   0  0  1  0  0  0  0  0  0  0  0  0
    6.3208   -9.1695    0.0000 C   0  0  2  0  0  0  0  0  0  0  0  0
    6.3216   -8.3445    0.0000 C   0  0  1  0  0  0  0  0  0  0  0  0
    5.6075   -7.9313    0.0000 O   0  0  0  0  0  0  0  0  0  0  0  0
    4.1786   -7.9299    0.0000 C   0  0  0  0  0  0  0  0  0  0  0  0
    5.6051  -10.4063    0.0000 O   0  0  0  0  0  0  0  0  0  0  0  0
    7.0349   -9.5826    0.0000 O   0  0  0  0  0  0  0  0  0  0  0  0
    4.1770   -9.5799    0.0000 O   0  0  0  0  0  0  0  0  0  0  0  0
    3.4637   -8.3417    0.0000 O   0  0  0  0  0  0  0  0  0  0  0  0
    2.7496   -7.9285    0.0000 C   0  0  0  0  0  0  0  0  0  0  0  0
    2.0348   -8.3403    0.0000 C   0  0  0  0  0  0  0  0  0  0  0  0
    2.7504   -7.1035    0.0000 O   0  0  0  0  0  0  0  0  0  0  0  0
    1.3207   -7.9272    0.0000 C   0  0  0  0  0  0  0  0  0  0  0  0
    0.6058   -8.3390    0.0000 O   0  0  0  0  0  0  0  0  0  0  0  0
    1.3215   -7.1022    0.0000 O   0  0  0  0  0  0  0  0  0  0  0  0
   13.4688   -6.6951    0.0000 O   0  0  0  0  0  0  0  0  0  0  0  0
    8.4675  -10.4076    0.0000 O   0  0  0  0  0  0  0  0  0  0  0  0
    9.8965  -10.4076    0.0000 O   0  0  0  0  0  0  0  0  0  0  0  0
   12.7544   -7.9326    0.0000 C   0  0  0  0  0  0  0  0  0  0  0  0
   12.7544   -7.1076    0.0000 C   0  0  0  0  0  0  0  0  0  0  0  0
   12.0399   -6.6951    0.0000 C   0  0  0  0  0  0  0  0  0  0  0  0
   11.3254   -7.1076    0.0000 C   0  0  0  0  0  0  0  0  0  0  0  0
   11.3254   -9.5826    0.0000 O   0  0  0  0  0  0  0  0  0  0  0  0
   12.0399   -8.3451    0.0000 C   0  0  0  0  0  0  0  0  0  0  0  0
   11.3254   -7.9326    0.0000 C   0  0  0  0  0  0  0  0  0  0  0  0
    9.8965   -9.5826    0.0000 C   0  0  0  0  0  0  0  0  0  0  0  0
   10.6109   -9.1701    0.0000 C   0  0  0  0  0  0  0  0  0  0  0  0
   10.6109   -8.3451    0.0000 C   0  0  0  0  0  0  0  0  0  0  0  0
    9.8965   -7.9326    0.0000 O   0  0  0  0  0  0  0  0  0  0  0  0
    8.4675   -9.5826    0.0000 C   0  0  0  0  0  0  0  0  0  0  0  0
    9.1820   -9.1701    0.0000 C   0  0  0  0  0  0  0  0  0  0  0  0
    9.1820   -8.3451    0.0000 C   0  0  0  0  0  0  0  0  0  0  0  0
    8.4675   -7.9326    0.0000 C   0  0  0  0  0  0  0  0  0  0  0  0
    7.7531   -8.3451    0.0000 C   0  0  0  0  0  0  0  0  0  0  0  0
    7.7531   -9.1701    0.0000 C   0  0  0  0  0  0  0  0  0  0  0  0
  2  3  1  0  0  0  0
  3  4  1  0  0  0  0
  4  5  1  0  0  0  0
  5  6  1  0  0  0  0
  6  7  1  0  0  0  0
  7  2  1  0  0  0  0
  2  8  1  1  0  0  0
  4  9  1  1  0  0  0
  5 10  1  6  0  0  0
  3 11  1  6  0  0  0
  8 12  1  0  0  0  0
 12 13  1  0  0  0  0
 13 14  1  0  0  0  0
 13 15  2  0  0  0  0
  6  1  1  1  0  0  0
 14 16  1  0  0  0  0
 16 17  1  0  0  0  0
 37  1  1  0  0  0  0
 16 18  2  0  0  0  0
 23 19  1  0  0  0  0
 20 33  1  0  0  0  0
 29 21  2  0  0  0  0
 22 27  1  0  0  0  0
 23 22  2  0  0  0  0
 24 23  1  0  0  0  0
 25 24  2  0  0  0  0
 28 25  1  0  0  0  0
 26 30  1  0  0  0  0
 28 27  2  0  0  0  0
 31 28  1  0  0  0  0
 29 34  1  0  0  0  0
 30 29  1  0  0  0  0
 31 30  2  0  0  0  0
 32 31  1  0  0  0  0
 35 32  1  0  0  0  0
 33 38  1  0  0  0  0
 34 33  2  0  0  0  0
 35 34  1  0  0  0  0
 36 35  2  0  0  0  0
 37 36  1  0  0  0  0
 38 37  2  0  0  0  0
M  END
>  <cdx:fragmentId>
702

$$$$
