50345.cdx
  Mrv1902 05222410262D          

 49 53  0  0  0  0            999 V2000
    9.5517   -7.9899    0.0000 O   0  0  0  0  0  0  0  0  0  0  0  0
    8.8318  -10.0537    0.0000 C   0  0  2  0  0  0  0  0  0  0  0  0
    9.5447  -10.4689    0.0000 C   0  0  2  0  0  0  0  0  0  0  0  0
   10.2607  -10.0591    0.0000 C   0  0  1  0  0  0  0  0  0  0  0  0
   10.2638   -9.2341    0.0000 C   0  0  2  0  0  0  0  0  0  0  0  0
    9.5509   -8.8189    0.0000 C   0  0  1  0  0  0  0  0  0  0  0  0
    8.8349   -9.2287    0.0000 O   0  0  0  0  0  0  0  0  0  0  0  0
    8.1158  -10.4635    0.0000 C   0  0  0  0  0  0  0  0  0  0  0  0
   10.9736  -10.4743    0.0000 O   0  0  0  0  0  0  0  0  0  0  0  0
   10.9798   -8.8243    0.0000 O   0  0  0  0  0  0  0  0  0  0  0  0
    9.5416  -11.2939    0.0000 O   0  0  0  0  0  0  0  0  0  0  0  0
    8.1127  -11.2885    0.0000 O   0  0  0  0  0  0  0  0  0  0  0  0
    7.3967  -11.6983    0.0000 C   0  0  0  0  0  0  0  0  0  0  0  0
    7.3936  -12.5233    0.0000 C   0  0  0  0  0  0  0  0  0  0  0  0
    6.6837  -11.2832    0.0000 O   0  0  0  0  0  0  0  0  0  0  0  0
    6.6775  -12.9331    0.0000 C   0  0  0  0  0  0  0  0  0  0  0  0
    6.6744  -13.7581    0.0000 O   0  0  0  0  0  0  0  0  0  0  0  0
    5.9646  -12.5180    0.0000 O   0  0  0  0  0  0  0  0  0  0  0  0
    5.2648   -6.3399    0.0000 O   0  0  0  0  0  0  0  0  0  0  0  0
    3.1192   -6.7521    0.0000 C   0  0  2  0  0  0  0  0  0  0  0  0
    3.1191   -7.5771    0.0000 C   0  0  2  0  0  0  0  0  0  0  0  0
    3.8335   -7.9897    0.0000 C   0  0  1  0  0  0  0  0  0  0  0  0
    4.5481   -7.5773    0.0000 C   0  0  2  0  0  0  0  0  0  0  0  0
    4.5482   -6.7523    0.0000 C   0  0  1  0  0  0  0  0  0  0  0  0
    3.8338   -6.3397    0.0000 O   0  0  0  0  0  0  0  0  0  0  0  0
    2.4048   -6.3395    0.0000 C   0  0  0  0  0  0  0  0  0  0  0  0
    3.8334   -8.8147    0.0000 O   0  0  0  0  0  0  0  0  0  0  0  0
    5.2625   -7.9899    0.0000 O   0  0  0  0  0  0  0  0  0  0  0  0
    2.4046   -7.9895    0.0000 O   0  0  0  0  0  0  0  0  0  0  0  0
    1.6903   -6.7518    0.0000 O   0  0  0  0  0  0  0  0  0  0  0  0
   11.6951   -5.1024    0.0000 O   0  0  0  0  0  0  0  0  0  0  0  0
    6.6938   -8.8149    0.0000 O   0  0  0  0  0  0  0  0  0  0  0  0
    8.1227   -8.8149    0.0000 O   0  0  0  0  0  0  0  0  0  0  0  0
   10.9806   -6.3399    0.0000 C   0  0  0  0  0  0  0  0  0  0  0  0
   10.9806   -5.5149    0.0000 C   0  0  0  0  0  0  0  0  0  0  0  0
   10.2661   -5.1024    0.0000 C   0  0  0  0  0  0  0  0  0  0  0  0
    9.5517   -5.5149    0.0000 C   0  0  0  0  0  0  0  0  0  0  0  0
   10.2661   -6.7524    0.0000 C   0  0  0  0  0  0  0  0  0  0  0  0
    9.5517   -6.3399    0.0000 C   0  0  0  0  0  0  0  0  0  0  0  0
    8.1227   -7.9899    0.0000 C   0  0  0  0  0  0  0  0  0  0  0  0
    8.8372   -7.5774    0.0000 C   0  0  0  0  0  0  0  0  0  0  0  0
    8.8372   -6.7524    0.0000 C   0  0  0  0  0  0  0  0  0  0  0  0
    8.1227   -6.3399    0.0000 O   0  0  0  0  0  0  0  0  0  0  0  0
    6.6938   -7.9899    0.0000 C   0  0  0  0  0  0  0  0  0  0  0  0
    7.4082   -7.5774    0.0000 C   0  0  0  0  0  0  0  0  0  0  0  0
    7.4082   -6.7524    0.0000 C   0  0  0  0  0  0  0  0  0  0  0  0
    6.6938   -6.3399    0.0000 C   0  0  0  0  0  0  0  0  0  0  0  0
    5.9793   -6.7524    0.0000 C   0  0  0  0  0  0  0  0  0  0  0  0
    5.9793   -7.5774    0.0000 C   0  0  0  0  0  0  0  0  0  0  0  0
  2  3  1  0  0  0  0
  3  4  1  0  0  0  0
  4  5  1  0  0  0  0
  5  6  1  0  0  0  0
  6  7  1  0  0  0  0
  7  2  1  0  0  0  0
  2  8  1  1  0  0  0
  4  9  1  1  0  0  0
  5 10  1  6  0  0  0
  3 11  1  6  0  0  0
  8 12  1  0  0  0  0
 12 13  1  0  0  0  0
 13 14  1  0  0  0  0
 13 15  2  0  0  0  0
 14 16  1  0  0  0  0
 16 17  1  0  0  0  0
 16 18  2  0  0  0  0
 20 21  1  0  0  0  0
 21 22  1  0  0  0  0
 22 23  1  0  0  0  0
 23 24  1  0  0  0  0
 24 25  1  0  0  0  0
 25 20  1  0  0  0  0
 20 26  1  1  0  0  0
 22 27  1  1  0  0  0
 23 28  1  6  0  0  0
 21 29  1  6  0  0  0
 26 30  1  0  0  0  0
 48 19  1  0  0  0  0
 24 19  1  1  0  0  0
 35 31  1  0  0  0  0
 32 44  1  0  0  0  0
 40 33  2  0  0  0  0
 34 38  1  0  0  0  0
 35 34  2  0  0  0  0
 36 35  1  0  0  0  0
 37 36  2  0  0  0  0
 39 37  1  0  0  0  0
  1 41  1  0  0  0  0
 39 38  2  0  0  0  0
 42 39  1  0  0  0  0
  6  1  1  1  0  0  0
 40 45  1  0  0  0  0
 41 40  1  0  0  0  0
 42 41  2  0  0  0  0
 43 42  1  0  0  0  0
 46 43  1  0  0  0  0
 44 49  1  0  0  0  0
 45 44  2  0  0  0  0
 46 45  1  0  0  0  0
 47 46  2  0  0  0  0
 48 47  1  0  0  0  0
 49 48  2  0  0  0  0
M  END
>  <cdx:fragmentId>
702

$$$$
