50348.cdx
  Mrv1902 05222410202D          

 29 30  0  0  0  0            999 V2000
    2.8702   -7.3219    0.0000 C   0  0  0  0  0  0  0  0  0  0  0  0
    2.8702   -8.1469    0.0000 C   0  0  0  0  0  0  0  0  0  0  0  0
    3.5846   -8.5594    0.0000 C   0  0  0  0  0  0  0  0  0  0  0  0
    4.2991   -8.1469    0.0000 C   0  0  0  0  0  0  0  0  0  0  0  0
    4.2991   -7.3219    0.0000 C   0  0  0  0  0  0  0  0  0  0  0  0
    3.5846   -6.9094    0.0000 C   0  0  0  0  0  0  0  0  0  0  0  0
    2.1557   -6.9094    0.0000 O   0  0  0  0  0  0  0  0  0  0  0  0
    2.1557   -8.5594    0.0000 O   0  0  0  0  0  0  0  0  0  0  0  0
    1.4412   -8.9719    0.0000 C   0  0  0  0  0  0  0  0  0  0  0  0
    5.0136   -6.9094    0.0000 C   0  0  2  0  0  0  0  0  0  0  0  0
    5.7280   -7.3219    0.0000 C   0  0  0  0  0  0  0  0  0  0  0  0
    6.4425   -6.9094    0.0000 C   0  0  0  0  0  0  0  0  0  0  0  0
    7.1570   -7.3219    0.0000 C   0  0  0  0  0  0  0  0  0  0  0  0
    7.8715   -6.9094    0.0000 C   0  0  2  0  0  0  0  0  0  0  0  0
    8.6965   -6.9094    0.0000 C   0  0  1  0  0  0  0  0  0  0  0  0
    9.4109   -7.3219    0.0000 C   0  0  0  0  0  0  0  0  0  0  0  0
   10.2359   -7.3219    0.0000 C   0  0  0  0  0  0  0  0  0  0  0  0
   10.6484   -8.0363    0.0000 C   0  0  0  0  0  0  0  0  0  0  0  0
   11.4734   -8.0363    0.0000 C   0  0  0  0  0  0  0  0  0  0  0  0
   11.8859   -7.3219    0.0000 C   0  0  0  0  0  0  0  0  0  0  0  0
   11.4734   -6.6074    0.0000 C   0  0  0  0  0  0  0  0  0  0  0  0
   10.6484   -6.6074    0.0000 C   0  0  0  0  0  0  0  0  0  0  0  0
   12.7109   -7.3219    0.0000 O   0  0  0  0  0  0  0  0  0  0  0  0
    7.4590   -6.1949    0.0000 O   0  0  0  0  0  0  0  0  0  0  0  0
    9.1090   -6.1949    0.0000 O   0  0  0  0  0  0  0  0  0  0  0  0
    5.0136   -6.0844    0.0000 S   0  0  0  0  0  0  0  0  0  0  0  0
    4.1886   -6.0844    0.0000 O   0  0  0  0  0  0  0  0  0  0  0  0
    5.8386   -6.0844    0.0000 O   0  0  0  0  0  0  0  0  0  0  0  0
    5.0136   -5.2594    0.0000 O   0  0  0  0  0  0  0  0  0  0  0  0
  1  2  2  0  0  0  0
  2  3  1  0  0  0  0
  3  4  2  0  0  0  0
  4  5  1  0  0  0  0
  5  6  2  0  0  0  0
  6  1  1  0  0  0  0
  1  7  1  0  0  0  0
  2  8  1  0  0  0  0
  5 10  1  0  0  0  0
 10 11  1  0  0  0  0
 11 12  2  0  0  0  0
 12 13  1  0  0  0  0
 13 14  1  0  0  0  0
 14 15  1  0  0  0  0
 15 16  1  0  0  0  0
 16 17  1  0  0  0  0
 17 18  2  0  0  0  0
 18 19  1  0  0  0  0
 19 20  2  0  0  0  0
 20 21  1  0  0  0  0
 21 22  2  0  0  0  0
 22 17  1  0  0  0  0
 20 23  1  0  0  0  0
 14 24  1  1  0  0  0
 15 25  1  6  0  0  0
 10 26  1  1  0  0  0
  8  9  1  0  0  0  0
 26 27  2  0  0  0  0
 26 28  2  0  0  0  0
 26 29  1  0  0  0  0
M  STY  2   1 SUP   2 SUP
M  SAL   1  2   8   9
M  SBL   1  1   8
M  SMT   1 OCH3
M  SAP   1  1   8   2  1
M  SAL   2  4  26  27  28  29
M  SBL   2  1  26
M  SMT   2 SO3H
M  SAP   2  1  26  10  1
M  END
>  <cdx:fragmentId>
5

$$$$
