50343.cdx
  Mrv1902 05222410272D          

 35 38  0  0  0  0            999 V2000
    6.0623   -7.9464    0.0000 O   0  0  0  0  0  0  0  0  0  0  0  0
    3.9175   -8.3627    0.0000 C   0  0  2  0  0  0  0  0  0  0  0  0
    3.9190   -9.1877    0.0000 C   0  0  2  0  0  0  0  0  0  0  0  0
    4.6342   -9.5989    0.0000 C   0  0  1  0  0  0  0  0  0  0  0  0
    5.3479   -9.1852    0.0000 C   0  0  2  0  0  0  0  0  0  0  0  0
    5.3465   -8.3602    0.0000 C   0  0  1  0  0  0  0  0  0  0  0  0
    4.6313   -7.9489    0.0000 O   0  0  0  0  0  0  0  0  0  0  0  0
    3.2023   -7.9515    0.0000 C   0  0  0  0  0  0  0  0  0  0  0  0
    4.6357  -10.4239    0.0000 O   0  0  0  0  0  0  0  0  0  0  0  0
    6.0631   -9.5964    0.0000 O   0  0  0  0  0  0  0  0  0  0  0  0
    3.2053   -9.6015    0.0000 O   0  0  0  0  0  0  0  0  0  0  0  0
    2.4886   -8.3652    0.0000 O   0  0  0  0  0  0  0  0  0  0  0  0
    1.7734   -7.9540    0.0000 C   0  0  0  0  0  0  0  0  0  0  0  0
    1.0597   -8.3678    0.0000 C   0  0  0  0  0  0  0  0  0  0  0  0
    1.7719   -7.1290    0.0000 O   0  0  0  0  0  0  0  0  0  0  0  0
   12.4926   -6.7089    0.0000 O   0  0  0  0  0  0  0  0  0  0  0  0
    7.4913  -10.4214    0.0000 O   0  0  0  0  0  0  0  0  0  0  0  0
    8.9202  -10.4214    0.0000 O   0  0  0  0  0  0  0  0  0  0  0  0
   11.7781   -7.9464    0.0000 C   0  0  0  0  0  0  0  0  0  0  0  0
   11.7781   -7.1214    0.0000 C   0  0  0  0  0  0  0  0  0  0  0  0
   11.0636   -6.7089    0.0000 C   0  0  0  0  0  0  0  0  0  0  0  0
   10.3492   -7.1214    0.0000 C   0  0  0  0  0  0  0  0  0  0  0  0
   10.3492   -9.5964    0.0000 O   0  0  0  0  0  0  0  0  0  0  0  0
   11.0636   -8.3589    0.0000 C   0  0  0  0  0  0  0  0  0  0  0  0
   10.3492   -7.9464    0.0000 C   0  0  0  0  0  0  0  0  0  0  0  0
    8.9202   -9.5964    0.0000 C   0  0  0  0  0  0  0  0  0  0  0  0
    9.6347   -9.1839    0.0000 C   0  0  0  0  0  0  0  0  0  0  0  0
    9.6347   -8.3589    0.0000 C   0  0  0  0  0  0  0  0  0  0  0  0
    8.9202   -7.9464    0.0000 O   0  0  0  0  0  0  0  0  0  0  0  0
    7.4913   -9.5964    0.0000 C   0  0  0  0  0  0  0  0  0  0  0  0
    8.2057   -9.1839    0.0000 C   0  0  0  0  0  0  0  0  0  0  0  0
    8.2057   -8.3589    0.0000 C   0  0  0  0  0  0  0  0  0  0  0  0
    7.4913   -7.9464    0.0000 C   0  0  0  0  0  0  0  0  0  0  0  0
    6.7768   -8.3589    0.0000 C   0  0  0  0  0  0  0  0  0  0  0  0
    6.7768   -9.1839    0.0000 C   0  0  0  0  0  0  0  0  0  0  0  0
  2  3  1  0  0  0  0
  3  4  1  0  0  0  0
  4  5  1  0  0  0  0
  5  6  1  0  0  0  0
  6  7  1  0  0  0  0
  7  2  1  0  0  0  0
  2  8  1  1  0  0  0
  4  9  1  1  0  0  0
  5 10  1  6  0  0  0
  3 11  1  6  0  0  0
  8 12  1  0  0  0  0
 12 13  1  0  0  0  0
 13 14  1  0  0  0  0
 13 15  2  0  0  0  0
 34  1  1  0  0  0  0
  6  1  1  1  0  0  0
 20 16  1  0  0  0  0
 17 30  1  0  0  0  0
 26 18  2  0  0  0  0
 19 24  1  0  0  0  0
 20 19  2  0  0  0  0
 21 20  1  0  0  0  0
 22 21  2  0  0  0  0
 25 22  1  0  0  0  0
 23 27  1  0  0  0  0
 25 24  2  0  0  0  0
 28 25  1  0  0  0  0
 26 31  1  0  0  0  0
 27 26  1  0  0  0  0
 28 27  2  0  0  0  0
 29 28  1  0  0  0  0
 32 29  1  0  0  0  0
 30 35  1  0  0  0  0
 31 30  2  0  0  0  0
 32 31  1  0  0  0  0
 33 32  2  0  0  0  0
 34 33  1  0  0  0  0
 35 34  2  0  0  0  0
M  END
>  <cdx:fragmentId>
702

$$$$
