50347.cdx
  Mrv1902 05222410272D          

 43 47  0  0  0  0            999 V2000
   11.3184   -8.8360    0.0000 C   0  0  0  0  0  0  0  0  0  0  0  0
   11.3184   -8.0110    0.0000 C   0  0  0  0  0  0  0  0  0  0  0  0
   12.0328   -7.5985    0.0000 C   0  0  0  0  0  0  0  0  0  0  0  0
   12.7473   -8.0110    0.0000 C   0  0  0  0  0  0  0  0  0  0  0  0
   12.7473   -8.8360    0.0000 C   0  0  0  0  0  0  0  0  0  0  0  0
   12.0328   -9.2485    0.0000 C   0  0  0  0  0  0  0  0  0  0  0  0
   13.4618   -7.5985    0.0000 O   0  0  0  0  0  0  0  0  0  0  0  0
   11.3184  -10.4860    0.0000 O   0  0  0  0  0  0  0  0  0  0  0  0
    8.4605  -11.3110    0.0000 O   0  0  0  0  0  0  0  0  0  0  0  0
    7.0315   -8.8360    0.0000 O   0  0  0  0  0  0  0  0  0  0  0  0
    9.8894  -11.3110    0.0000 O   0  0  0  0  0  0  0  0  0  0  0  0
    9.8894   -8.8360    0.0000 O   0  0  0  0  0  0  0  0  0  0  0  0
    9.1749   -9.2485    0.0000 C   0  0  0  0  0  0  0  0  0  0  0  0
    8.4605   -8.8360    0.0000 C   0  0  0  0  0  0  0  0  0  0  0  0
    7.7460   -9.2485    0.0000 C   0  0  0  0  0  0  0  0  0  0  0  0
    7.7460  -10.0735    0.0000 C   0  0  0  0  0  0  0  0  0  0  0  0
    8.4605  -10.4860    0.0000 C   0  0  0  0  0  0  0  0  0  0  0  0
    9.1749  -10.0735    0.0000 C   0  0  0  0  0  0  0  0  0  0  0  0
    9.8894  -10.4860    0.0000 C   0  0  0  0  0  0  0  0  0  0  0  0
   10.6039  -10.0735    0.0000 C   0  0  0  0  0  0  0  0  0  0  0  0
   10.6039   -9.2485    0.0000 C   0  0  0  0  0  0  0  0  0  0  0  0
    5.5935   -8.8360    0.0000 O   0  0  0  0  0  0  0  0  0  0  0  0
    6.3080   -9.2485    0.0000 C   0  0  2  0  0  0  0  0  0  0  0  0
    6.3080  -10.0735    0.0000 C   0  0  1  0  0  0  0  0  0  0  0  0
    5.5935  -10.4860    0.0000 C   0  0  2  0  0  0  0  0  0  0  0  0
    4.8790  -10.0735    0.0000 C   0  0  1  0  0  0  0  0  0  0  0  0
    4.8790   -9.2485    0.0000 C   0  0  1  0  0  0  0  0  0  0  0  0
    4.1646   -8.8360    0.0000 C   0  0  0  0  0  0  0  0  0  0  0  0
    3.4501   -9.2485    0.0000 O   0  0  0  0  0  0  0  0  0  0  0  0
    4.1646  -10.4860    0.0000 O   0  0  0  0  0  0  0  0  0  0  0  0
    5.5935  -11.3110    0.0000 O   0  0  0  0  0  0  0  0  0  0  0  0
    7.0225  -10.4860    0.0000 O   0  0  0  0  0  0  0  0  0  0  0  0
    2.7356   -8.8360    0.0000 C   0  0  2  0  0  0  0  0  0  0  0  0
    2.7356   -8.0110    0.0000 O   0  0  0  0  0  0  0  0  0  0  0  0
    2.0212   -7.5985    0.0000 C   0  0  1  0  0  0  0  0  0  0  0  0
    1.3067   -8.0110    0.0000 C   0  0  2  0  0  0  0  0  0  0  0  0
    1.3067   -8.8360    0.0000 C   0  0  1  0  0  0  0  0  0  0  0  0
    2.0212   -9.2485    0.0000 C   0  0  1  0  0  0  0  0  0  0  0  0
    2.0212   -6.7735    0.0000 C   0  0  0  0  0  0  0  0  0  0  0  0
    0.5922   -9.2485    0.0000 O   0  0  0  0  0  0  0  0  0  0  0  0
    2.0212  -10.0735    0.0000 O   0  0  0  0  0  0  0  0  0  0  0  0
    0.5922   -7.5985    0.0000 O   0  0  0  0  0  0  0  0  0  0  0  0
    1.3067   -6.3610    0.0000 O   0  0  0  0  0  0  0  0  0  0  0  0
 20  8  1  0  0  0  0
 17  9  1  0  0  0  0
 15 10  1  0  0  0  0
 21  1  1  0  0  0  0
 19 11  2  0  0  0  0
 21 12  1  0  0  0  0
 13 12  1  0  0  0  0
 18 13  2  0  0  0  0
 14 13  1  0  0  0  0
 15 14  2  0  0  0  0
 16 15  1  0  0  0  0
 17 16  2  0  0  0  0
 18 17  1  0  0  0  0
 19 18  1  0  0  0  0
 20 19  1  0  0  0  0
 21 20  2  0  0  0  0
  1  2  1  0  0  0  0
  2  3  2  0  0  0  0
  3  4  1  0  0  0  0
  4  5  2  0  0  0  0
  5  6  1  0  0  0  0
  1  6  2  0  0  0  0
  4  7  1  0  0  0  0
 22 23  1  0  0  0  0
 23 24  1  0  0  0  0
 24 25  1  0  0  0  0
 25 26  1  0  0  0  0
 26 27  1  0  0  0  0
 22 27  1  0  0  0  0
 28 29  1  0  0  0  0
 27 28  1  1  0  0  0
 26 30  1  6  0  0  0
 25 31  1  1  0  0  0
 24 32  1  6  0  0  0
 23 10  1  1  0  0  0
 33 29  1  1  0  0  0
 33 34  1  0  0  0  0
 34 35  1  0  0  0  0
 35 36  1  0  0  0  0
 36 37  1  0  0  0  0
 37 38  1  0  0  0  0
 38 33  1  0  0  0  0
 35 39  1  1  0  0  0
 37 40  1  1  0  0  0
 38 41  1  6  0  0  0
 36 42  1  6  0  0  0
 39 43  1  0  0  0  0
M  END
>  <cdx:fragmentId>
5

$$$$
