50358.cdx
  Mrv1902 05222410182D          

 39 41  0  0  0  0            999 V2000
   10.6946   -7.8679    0.0000 C   0  0  0  0  0  0  0  0  0  0  0  0
   11.4111   -7.4589    0.0000 C   0  0  0  0  0  0  0  0  0  0  0  0
   11.4152   -6.6339    0.0000 C   0  0  0  0  0  0  0  0  0  0  0  0
   10.7028   -6.2179    0.0000 C   0  0  0  0  0  0  0  0  0  0  0  0
    5.6812  -10.7342    0.0000 O   0  0  0  0  0  0  0  0  0  0  0  0
    5.6893   -8.2592    0.0000 O   0  0  0  0  0  0  0  0  0  0  0  0
    8.5330  -11.5697    0.0000 C   0  0  0  0  0  0  0  0  0  0  0  0
    4.9871   -6.1897    0.0000 C   0  0  0  0  0  0  0  0  0  0  0  0
    7.1040  -11.5627    0.0000 C   0  0  0  0  0  0  0  0  0  0  0  0
    7.8205  -11.1537    0.0000 C   0  0  0  0  0  0  0  0  0  0  0  0
    7.8246  -10.3287    0.0000 C   0  0  0  0  0  0  0  0  0  0  0  0
    4.9627  -11.1396    0.0000 C   0  0  0  0  0  0  0  0  0  0  0  0
    5.6751  -11.5557    0.0000 C   0  0  0  0  0  0  0  0  0  0  0  0
    6.3916  -11.1467    0.0000 N   0  0  0  0  0  0  0  0  0  0  0  0
    6.3957  -10.3217    0.0000 C   0  0  0  0  0  0  0  0  0  0  0  0
    7.1122   -9.9127    0.0000 C   0  0  1  0  0  0  0  0  0  0  0  0
    4.2584   -9.0736    0.0000 C   0  0  0  0  0  0  0  0  0  0  0  0
    4.2543   -9.8986    0.0000 C   0  0  0  0  0  0  0  0  0  0  0  0
    4.9667  -10.3147    0.0000 C   0  0  0  0  0  0  0  0  0  0  0  0
    5.6832   -9.9057    0.0000 C   0  0  0  0  0  0  0  0  0  0  0  0
    6.4160   -6.1967    0.0000 C   0  0  0  0  0  0  0  0  0  0  0  0
    5.6995   -6.6057    0.0000 C   0  0  0  0  0  0  0  0  0  0  0  0
    5.6954   -7.4307    0.0000 C   0  0  2  0  0  0  0  0  0  0  0  0
    4.9789   -7.8397    0.0000 O   0  0  0  0  0  0  0  0  0  0  0  0
    4.9749   -8.6647    0.0000 C   0  0  0  0  0  0  0  0  0  0  0  0
    5.6873   -9.0807    0.0000 C   0  0  0  0  0  0  0  0  0  0  0  0
    6.4079   -7.8467    0.0000 C   0  0  1  0  0  0  0  0  0  0  0  0
    6.4038   -8.6717    0.0000 C   0  0  0  0  0  0  0  0  0  0  0  0
    7.1162   -9.0877    0.0000 N   0  0  0  0  0  0  0  0  0  0  0  0
    7.8327   -8.6788    0.0000 O   0  0  0  0  0  0  0  0  0  0  0  0
    7.1244   -7.4378    0.0000 N   0  0  0  0  0  0  0  0  0  0  0  0
    7.8368   -7.8538    0.0000 C   0  0  0  0  0  0  0  0  0  0  0  0
    9.9863   -6.6268    0.0000 C   0  0  0  0  0  0  0  0  0  0  0  0
    9.9822   -7.4518    0.0000 C   0  0  0  0  0  0  0  0  0  0  0  0
    8.5574   -6.6198    0.0000 N   0  0  0  0  0  0  0  0  0  0  0  0
    8.5533   -7.4448    0.0000 C   0  0  1  0  0  0  0  0  0  0  0  0
    9.2657   -7.8608    0.0000 C   0  0  0  0  0  0  0  0  0  0  0  0
    9.2738   -6.2108    0.0000 C   0  0  0  0  0  0  0  0  0  0  0  0
    7.8449   -6.2038    0.0000 C   0  0  0  0  0  0  0  0  0  0  0  0
 15  5  2  0  0  0  0
 28  6  2  0  0  0  0
 10  7  1  0  0  0  0
 22  8  1  0  0  0  0
 10  9  1  0  0  0  0
 11 10  1  0  0  0  0
 16 11  1  1  0  0  0
 12 19  1  0  0  0  0
 13 12  2  0  0  0  0
 14 13  1  0  0  0  0
 15 14  1  0  0  0  0
 16 15  1  0  0  0  0
 29 16  1  0  0  0  0
 17 25  1  0  0  0  0
 18 17  2  0  0  0  0
 19 18  1  0  0  0  0
 20 19  2  0  0  0  0
 26 20  1  0  0  0  0
 22 21  1  0  0  0  0
 23 22  1  1  0  0  0
 23 27  1  0  0  0  0
 24 23  1  0  0  0  0
 25 24  1  0  0  0  0
 26 25  2  0  0  0  0
 27 31  1  6  0  0  0
 28 27  1  0  0  0  0
 29 28  1  0  0  0  0
 32 30  2  0  0  0  0
 32 31  1  0  0  0  0
 36 32  1  0  0  0  0
  1  2  2  0  0  0  0
  2  3  1  0  0  0  0
  3  4  2  0  0  0  0
  4 33  1  0  0  0  0
 33 34  2  0  0  0  0
 34  1  1  0  0  0  0
 36 35  1  1  0  0  0
 36 37  1  0  0  0  0
 37 34  1  0  0  0  0
 35 38  1  0  0  0  0
 35 39  1  0  0  0  0
M  END
>  <cdx:fragmentId>
5

$$$$
