50351.cdx
  Mrv1902 05222410262D          

 22 24  0  0  0  0            999 V2000
    5.0993   -3.9176    0.0000 C   0  0  0  0  0  0  0  0  0  0  0  0
    5.0993   -4.7426    0.0000 C   0  0  0  0  0  0  0  0  0  0  0  0
    5.8138   -5.1551    0.0000 C   0  0  0  0  0  0  0  0  0  0  0  0
    6.5282   -4.7426    0.0000 C   0  0  0  0  0  0  0  0  0  0  0  0
    6.5282   -3.9176    0.0000 C   0  0  0  0  0  0  0  0  0  0  0  0
    5.8138   -3.5051    0.0000 C   0  0  0  0  0  0  0  0  0  0  0  0
    7.2427   -5.1551    0.0000 C   0  0  2  0  0  0  0  0  0  0  0  0
    7.9572   -4.7426    0.0000 N   0  0  0  0  0  0  0  0  0  0  0  0
    7.9572   -3.9176    0.0000 C   0  0  0  0  0  0  0  0  0  0  0  0
    7.2427   -3.5051    0.0000 C   0  0  0  0  0  0  0  0  0  0  0  0
    7.2427   -5.9801    0.0000 C   0  0  0  0  0  0  0  0  0  0  0  0
    7.9572   -6.3926    0.0000 C   0  0  0  0  0  0  0  0  0  0  0  0
    8.6717   -5.9801    0.0000 C   0  0  0  0  0  0  0  0  0  0  0  0
    7.9572   -7.2176    0.0000 C   0  0  0  0  0  0  0  0  0  0  0  0
    8.6717   -7.6301    0.0000 C   0  0  0  0  0  0  0  0  0  0  0  0
    9.3861   -7.2176    0.0000 C   0  0  0  0  0  0  0  0  0  0  0  0
    9.3861   -6.3926    0.0000 C   0  0  0  0  0  0  0  0  0  0  0  0
    4.3848   -3.5051    0.0000 O   0  0  0  0  0  0  0  0  0  0  0  0
    3.6704   -3.9176    0.0000 C   0  0  0  0  0  0  0  0  0  0  0  0
    4.3848   -5.1551    0.0000 O   0  0  0  0  0  0  0  0  0  0  0  0
   10.1006   -7.6301    0.0000 O   0  0  0  0  0  0  0  0  0  0  0  0
    7.9572   -5.5676    0.0000 H   0  0  0  0  0  0  0  0  0  0  0  0
  1  2  2  0  0  0  0
  2  3  1  0  0  0  0
  3  4  2  0  0  0  0
  4  5  1  0  0  0  0
  5  6  2  0  0  0  0
  6  1  1  0  0  0  0
  4  7  1  0  0  0  0
  7  8  1  0  0  0  0
  8  9  1  0  0  0  0
  9 10  1  0  0  0  0
 10  5  1  0  0  0  0
  7 11  1  0  0  0  0
 11 12  1  0  0  0  0
 12 13  2  0  0  0  0
 12 14  1  0  0  0  0
 14 15  2  0  0  0  0
 15 16  1  0  0  0  0
 16 17  2  0  0  0  0
 17 13  1  0  0  0  0
  1 18  1  0  0  0  0
 18 19  1  0  0  0  0
  2 20  1  0  0  0  0
 16 21  1  0  0  0  0
  7 22  1  1  0  0  0
M  END
>  <cdx:fragmentId>
5

$$$$
