50350.cdx
  Mrv1902 05222410262D          

 27 30  0  0  0  0            999 V2000
    8.5266   -9.8688    0.0000 C   0  0  0  0  0  0  0  0  0  0  0  0
    9.2421   -9.4581    0.0000 C   0  0  0  0  0  0  0  0  0  0  0  0
    9.2442   -8.6331    0.0000 C   0  0  0  0  0  0  0  0  0  0  0  0
    8.5308   -8.2188    0.0000 C   0  0  0  0  0  0  0  0  0  0  0  0
    7.8153   -8.6295    0.0000 C   0  0  1  0  0  0  0  0  0  0  0  0
    7.8132   -9.4545    0.0000 N   0  0  0  0  0  0  0  0  0  0  0  0
    9.9597   -8.2224    0.0000 C   0  0  0  0  0  0  0  0  0  0  0  0
    9.9618   -7.3974    0.0000 C   0  0  0  0  0  0  0  0  0  0  0  0
    9.2484   -6.9831    0.0000 C   0  0  0  0  0  0  0  0  0  0  0  0
    8.5328   -7.3938    0.0000 C   0  0  0  0  0  0  0  0  0  0  0  0
    7.1018   -8.2152    0.0000 C   0  0  0  0  0  0  0  0  0  0  0  0
    6.3863   -8.6259    0.0000 C   0  0  0  0  0  0  0  0  0  0  0  0
    6.3842   -9.4509    0.0000 C   0  0  0  0  0  0  0  0  0  0  0  0
    7.0977   -9.8652    0.0000 C   0  0  0  0  0  0  0  0  0  0  0  0
    5.6729   -8.2116    0.0000 C   0  0  0  0  0  0  0  0  0  0  0  0
    4.9574   -8.6223    0.0000 C   0  0  0  0  0  0  0  0  0  0  0  0
    4.9553   -9.4473    0.0000 C   0  0  0  0  0  0  0  0  0  0  0  0
    5.6687   -9.8616    0.0000 C   0  0  0  0  0  0  0  0  0  0  0  0
    4.2398   -9.8580    0.0000 O   0  0  0  0  0  0  0  0  0  0  0  0
    4.9511  -11.0973    0.0000 C   0  0  0  0  0  0  0  0  0  0  0  0
    5.6666  -10.6866    0.0000 O   0  0  0  0  0  0  0  0  0  0  0  0
    3.5264   -9.4437    0.0000 C   0  0  0  0  0  0  0  0  0  0  0  0
    7.8173   -7.8045    0.0000 H   0  0  0  0  0  0  0  0  0  0  0  0
   10.6773   -6.9868    0.0000 O   0  0  0  0  0  0  0  0  0  0  0  0
    9.2504   -6.1581    0.0000 O   0  0  0  0  0  0  0  0  0  0  0  0
    8.5370   -5.7438    0.0000 C   0  0  0  0  0  0  0  0  0  0  0  0
   10.6794   -6.1618    0.0000 C   0  0  0  0  0  0  0  0  0  0  0  0
  1  2  1  0  0  0  0
  2  3  1  0  0  0  0
  3  4  1  0  0  0  0
  4  5  1  0  0  0  0
  5  6  1  0  0  0  0
  6  1  1  0  0  0  0
  3  7  2  0  0  0  0
  7  8  1  0  0  0  0
  8  9  2  0  0  0  0
  9 10  1  0  0  0  0
 10  4  2  0  0  0  0
  5 11  1  0  0  0  0
 11 12  1  0  0  0  0
 12 13  2  0  0  0  0
 13 14  1  0  0  0  0
 14  6  1  0  0  0  0
 12 15  1  0  0  0  0
 15 16  2  0  0  0  0
 16 17  1  0  0  0  0
 17 18  2  0  0  0  0
 18 13  1  0  0  0  0
 17 19  1  0  0  0  0
 20 21  1  0  0  0  0
 21 18  1  0  0  0  0
 19 22  1  0  0  0  0
  5 23  1  6  0  0  0
  8 24  1  0  0  0  0
  9 25  1  0  0  0  0
 25 26  1  0  0  0  0
 24 27  1  0  0  0  0
M  END
>  <cdx:fragmentId>
5

$$$$
