50359.cdx
  Mrv1902 05222410182D          

 39 43  0  0  0  0            999 V2000
    6.7768  -10.3664    0.0000 C   0  0  0  0  0  0  0  0  0  0  0  0
    6.7768  -11.1914    0.0000 C   0  0  0  0  0  0  0  0  0  0  0  0
    7.4913  -11.6039    0.0000 C   0  0  0  0  0  0  0  0  0  0  0  0
    8.2057  -11.1914    0.0000 C   0  0  0  0  0  0  0  0  0  0  0  0
    8.2057  -10.3664    0.0000 C   0  0  0  0  0  0  0  0  0  0  0  0
    7.4913   -9.9539    0.0000 C   0  0  0  0  0  0  0  0  0  0  0  0
    8.9202  -11.6039    0.0000 O   0  0  0  0  0  0  0  0  0  0  0  0
    9.6347  -11.1914    0.0000 C   0  0  1  0  0  0  0  0  0  0  0  0
    9.6347  -10.3664    0.0000 C   0  0  2  0  0  0  0  0  0  0  0  0
    8.9202   -9.9539    0.0000 O   0  0  0  0  0  0  0  0  0  0  0  0
   10.3492  -11.6039    0.0000 C   0  0  0  0  0  0  0  0  0  0  0  0
   11.0636  -10.3664    0.0000 C   0  0  0  0  0  0  0  0  0  0  0  0
   10.3492   -9.9539    0.0000 C   0  0  0  0  0  0  0  0  0  0  0  0
   11.7781   -9.9539    0.0000 C   0  0  0  0  0  0  0  0  0  0  0  0
   11.7781   -9.1289    0.0000 C   0  0  0  0  0  0  0  0  0  0  0  0
   11.0636   -8.7164    0.0000 C   0  0  0  0  0  0  0  0  0  0  0  0
   10.3492   -9.1289    0.0000 C   0  0  0  0  0  0  0  0  0  0  0  0
    7.4913  -12.4289    0.0000 O   0  0  0  0  0  0  0  0  0  0  0  0
    8.2057  -12.8414    0.0000 C   0  0  0  0  0  0  0  0  0  0  0  0
   12.4926   -8.7164    0.0000 O   0  0  0  0  0  0  0  0  0  0  0  0
   13.2070   -9.1289    0.0000 C   0  0  0  0  0  0  0  0  0  0  0  0
   12.4926  -10.3664    0.0000 O   0  0  0  0  0  0  0  0  0  0  0  0
   12.4926  -11.1914    0.0000 C   0  0  0  0  0  0  0  0  0  0  0  0
    6.0623   -9.9539    0.0000 C   0  0  2  0  0  0  0  0  0  0  0  0
    5.9761   -9.1334    0.0000 C   0  0  1  0  0  0  0  0  0  0  0  0
    5.1691   -8.9619    0.0000 C   0  0  2  0  0  0  0  0  0  0  0  0
    4.7566   -9.6764    0.0000 C   0  0  2  0  0  0  0  0  0  0  0  0
    5.3087  -10.2895    0.0000 O   0  0  0  0  0  0  0  0  0  0  0  0
    3.9361   -9.7626    0.0000 C   0  0  0  0  0  0  0  0  0  0  0  0
    3.4512   -9.0952    0.0000 C   0  0  0  0  0  0  0  0  0  0  0  0
    2.6307   -9.1814    0.0000 C   0  0  0  0  0  0  0  0  0  0  0  0
    2.2952   -9.9351    0.0000 C   0  0  0  0  0  0  0  0  0  0  0  0
    2.7801  -10.6025    0.0000 C   0  0  0  0  0  0  0  0  0  0  0  0
    3.6006  -10.5163    0.0000 C   0  0  0  0  0  0  0  0  0  0  0  0
    1.5106  -10.1900    0.0000 O   0  0  0  0  0  0  0  0  0  0  0  0
    1.5106  -11.0150    0.0000 C   0  0  0  0  0  0  0  0  0  0  0  0
    2.2952  -11.2699    0.0000 O   0  0  0  0  0  0  0  0  0  0  0  0
    4.8336   -8.2082    0.0000 C   0  0  0  0  0  0  0  0  0  0  0  0
    6.5892   -8.5814    0.0000 C   0  0  0  0  0  0  0  0  0  0  0  0
  1  2  2  0  0  0  0
  2  3  1  0  0  0  0
  3  4  2  0  0  0  0
  4  5  1  0  0  0  0
  5  6  2  0  0  0  0
  6  1  1  0  0  0  0
  4  7  1  0  0  0  0
  7  8  1  0  0  0  0
  8  9  1  0  0  0  0
  9 10  1  6  0  0  0
  8 11  1  1  0  0  0
 12 13  2  0  0  0  0
 13  9  1  0  0  0  0
 12 14  1  0  0  0  0
 14 15  2  0  0  0  0
 15 16  1  0  0  0  0
 16 17  2  0  0  0  0
 17 13  1  0  0  0  0
  3 18  1  0  0  0  0
 18 19  1  0  0  0  0
 15 20  1  0  0  0  0
 20 21  1  0  0  0  0
 14 22  1  0  0  0  0
 22 23  1  0  0  0  0
 24  1  1  1  0  0  0
 24 25  1  0  0  0  0
 25 26  1  0  0  0  0
 26 27  1  0  0  0  0
 27 28  1  0  0  0  0
 28 24  1  0  0  0  0
 27 29  1  6  0  0  0
 29 30  2  0  0  0  0
 30 31  1  0  0  0  0
 31 32  2  0  0  0  0
 32 33  1  0  0  0  0
 33 34  2  0  0  0  0
 34 29  1  0  0  0  0
 32 35  1  0  0  0  0
 35 36  1  0  0  0  0
 36 37  1  0  0  0  0
 37 33  1  0  0  0  0
 26 38  1  6  0  0  0
 25 39  1  1  0  0  0
M  END
>  <cdx:fragmentId>
5

$$$$
