50352.cdx
  Mrv1902 05222410272D          

 19 18  0  0  0  0            999 V2000
    0.6678   -5.1025    0.0000 O   0  0  0  0  0  0  0  0  0  0  0  0
   13.7493   -5.1025    0.0000 C   0  0  0  0  0  0  0  0  0  0  0  0
   13.0348   -5.5150    0.0000 C   0  0  0  0  0  0  0  0  0  0  0  0
   12.3204   -5.1025    0.0000 C   0  0  0  0  0  0  0  0  0  0  0  0
   11.6059   -5.5150    0.0000 C   0  0  0  0  0  0  0  0  0  0  0  0
   10.8914   -5.1025    0.0000 C   0  0  0  0  0  0  0  0  0  0  0  0
   10.1770   -5.5150    0.0000 C   0  0  0  0  0  0  0  0  0  0  0  0
    9.3520   -5.5150    0.0000 C   0  0  0  0  0  0  0  0  0  0  0  0
    8.6375   -5.1025    0.0000 C   0  0  0  0  0  0  0  0  0  0  0  0
    7.9230   -5.5150    0.0000 C   0  0  0  0  0  0  0  0  0  0  0  0
    7.0980   -5.5150    0.0000 C   0  0  0  0  0  0  0  0  0  0  0  0
    6.3835   -5.1025    0.0000 C   0  0  0  0  0  0  0  0  0  0  0  0
    5.6691   -5.5150    0.0000 C   0  0  0  0  0  0  0  0  0  0  0  0
    4.9546   -5.1025    0.0000 C   0  0  0  0  0  0  0  0  0  0  0  0
    4.2401   -5.5150    0.0000 C   0  0  0  0  0  0  0  0  0  0  0  0
    3.5257   -5.1025    0.0000 C   0  0  0  0  0  0  0  0  0  0  0  0
    2.8112   -5.5150    0.0000 C   0  0  0  0  0  0  0  0  0  0  0  0
    2.0967   -5.1025    0.0000 C   0  0  0  0  0  0  0  0  0  0  0  0
    1.3822   -5.5150    0.0000 C   0  0  0  0  0  0  0  0  0  0  0  0
 19  1  1  0  0  0  0
  3  2  1  0  0  0  0
  4  3  1  0  0  0  0
  5  4  1  0  0  0  0
  6  5  1  0  0  0  0
  7  6  1  0  0  0  0
  8  7  2  0  0  0  0
  9  8  1  0  0  0  0
 10  9  1  0  0  0  0
 11 10  2  0  0  0  0
 12 11  1  0  0  0  0
 13 12  1  0  0  0  0
 14 13  1  0  0  0  0
 15 14  1  0  0  0  0
 16 15  1  0  0  0  0
 17 16  1  0  0  0  0
 18 17  1  0  0  0  0
 19 18  1  0  0  0  0
M  END
>  <cdx:fragmentId>
28626

$$$$
