50355.cdx
  Mrv1902 05222410282D          

 74 83  0  0  0  0            999 V2000
   12.9636   -7.8375    0.0000 C   0  0  0  0  0  0  0  0  0  0  0  0
   12.9636   -8.6625    0.0000 C   0  0  1  0  0  0  0  0  0  0  0  0
   13.6780   -9.0750    0.0000 C   0  0  0  0  0  0  0  0  0  0  0  0
   14.3925   -8.6625    0.0000 C   0  0  0  0  0  0  0  0  0  0  0  0
   14.3925   -7.8375    0.0000 C   0  0  2  0  0  0  0  0  0  0  0  0
   13.6780   -7.4250    0.0000 C   0  0  0  0  0  0  0  0  0  0  0  0
   15.1070   -9.0750    0.0000 C   0  0  0  0  0  0  0  0  0  0  0  0
   15.8214   -8.6625    0.0000 C   0  0  0  0  0  0  0  0  0  0  0  0
   15.8214   -7.8375    0.0000 C   0  0  2  0  0  0  0  0  0  0  0  0
   15.1070   -7.4250    0.0000 C   0  0  2  0  0  0  0  0  0  0  0  0
   16.5359   -7.4250    0.0000 C   0  0  1  0  0  0  0  0  0  0  0  0
   16.5359   -6.6000    0.0000 C   0  0  1  0  0  0  0  0  0  0  0  0
   15.8214   -6.1875    0.0000 C   0  0  0  0  0  0  0  0  0  0  0  0
   15.1070   -6.6000    0.0000 C   0  0  0  0  0  0  0  0  0  0  0  0
   12.2491   -9.0750    0.0000 O   0  0  0  0  0  0  0  0  0  0  0  0
   14.3925   -7.0125    0.0000 C   0  0  0  0  0  0  0  0  0  0  0  0
   16.5359   -8.2500    0.0000 H   0  0  0  0  0  0  0  0  0  0  0  0
   10.8157   -7.4106    0.0000 C   0  0  2  0  0  0  0  0  0  0  0  0
   10.1013   -7.8231    0.0000 C   0  0  2  0  0  0  0  0  0  0  0  0
   10.1012   -8.6481    0.0000 C   0  0  1  0  0  0  0  0  0  0  0  0
   10.8157   -9.0606    0.0000 C   0  0  2  0  0  0  0  0  0  0  0  0
   11.5302   -8.6481    0.0000 C   0  0  1  0  0  0  0  0  0  0  0  0
   11.5302   -7.8231    0.0000 O   0  0  0  0  0  0  0  0  0  0  0  0
   10.8158   -6.5856    0.0000 C   0  0  0  0  0  0  0  0  0  0  0  0
    9.3867   -9.0605    0.0000 O   0  0  0  0  0  0  0  0  0  0  0  0
    9.3868   -7.4105    0.0000 O   0  0  0  0  0  0  0  0  0  0  0  0
   10.8157   -9.8856    0.0000 O   0  0  0  0  0  0  0  0  0  0  0  0
   11.5302   -6.1731    0.0000 O   0  0  0  0  0  0  0  0  0  0  0  0
   10.1103   -5.3337    0.0000 C   0  0  1  0  0  0  0  0  0  0  0  0
    9.3970   -4.9193    0.0000 C   0  0  1  0  0  0  0  0  0  0  0  0
    8.6814   -5.3298    0.0000 C   0  0  2  0  0  0  0  0  0  0  0  0
    8.6791   -6.1548    0.0000 C   0  0  2  0  0  0  0  0  0  0  0  0
    9.3925   -6.5693    0.0000 C   0  0  1  0  0  0  0  0  0  0  0  0
   10.1081   -6.1587    0.0000 O   0  0  0  0  0  0  0  0  0  0  0  0
   10.8259   -4.9232    0.0000 C   0  0  0  0  0  0  0  0  0  0  0  0
    7.9680   -4.9154    0.0000 O   0  0  0  0  0  0  0  0  0  0  0  0
    9.3992   -4.0943    0.0000 O   0  0  0  0  0  0  0  0  0  0  0  0
    7.9636   -6.5654    0.0000 O   0  0  0  0  0  0  0  0  0  0  0  0
    8.6663  -10.3029    0.0000 C   0  0  0  0  0  0  0  0  0  0  0  0
    8.6632  -11.1278    0.0000 C   0  0  1  0  0  0  0  0  0  0  0  0
    9.3761  -11.5431    0.0000 C   0  0  1  0  0  0  0  0  0  0  0  0
   10.0921  -11.1333    0.0000 C   0  0  2  0  0  0  0  0  0  0  0  0
   10.0952  -10.3083    0.0000 C   0  0  1  0  0  0  0  0  0  0  0  0
    9.3823   -9.8931    0.0000 O   0  0  0  0  0  0  0  0  0  0  0  0
    7.9472  -11.5376    0.0000 O   0  0  0  0  0  0  0  0  0  0  0  0
    9.3730  -12.3681    0.0000 O   0  0  0  0  0  0  0  0  0  0  0  0
   10.8050  -11.5485    0.0000 O   0  0  0  0  0  0  0  0  0  0  0  0
   16.5359   -5.7750    0.0000 C   0  0  0  0  0  0  0  0  0  0  0  0
   17.3205   -7.6799    0.0000 C   0  0  0  0  0  0  0  0  0  0  0  0
   17.8055   -7.0125    0.0000 C   0  0  1  0  0  0  0  0  0  0  0  0
   17.3205   -6.3451    0.0000 C   0  0  2  0  0  0  0  0  0  0  0  0
   18.5901   -6.7576    0.0000 O   0  0  0  0  0  0  0  0  0  0  0  0
   18.5901   -5.9326    0.0000 C   0  0  1  0  0  0  0  0  0  0  0  0
   17.8055   -5.6776    0.0000 C   0  0  1  0  0  0  0  0  0  0  0  0
   19.3438   -6.2681    0.0000 C   0  0  0  0  0  0  0  0  0  0  0  0
   20.0112   -5.7832    0.0000 C   0  0  0  0  0  0  0  0  0  0  0  0
   19.9250   -4.9627    0.0000 C   0  0  1  0  0  0  0  0  0  0  0  0
   19.1713   -4.6272    0.0000 C   0  0  0  0  0  0  0  0  0  0  0  0
   18.5038   -5.1121    0.0000 O   0  0  0  0  0  0  0  0  0  0  0  0
   16.9080   -5.6306    0.0000 O   0  0  0  0  0  0  0  0  0  0  0  0
   17.5505   -4.8930    0.0000 C   0  0  0  0  0  0  0  0  0  0  0  0
   20.5924   -4.4778    0.0000 C   0  0  0  0  0  0  0  0  0  0  0  0
   15.1070   -8.2500    0.0000 H   0  0  0  0  0  0  0  0  0  0  0  0
   15.8214   -7.0125    0.0000 H   0  0  0  0  0  0  0  0  0  0  0  0
   18.2180   -7.7270    0.0000 H   0  0  0  0  0  0  0  0  0  0  0  0
    8.6547  -12.7739    0.0000 C   0  0  2  0  0  0  0  0  0  0  0  0
    7.9435  -12.3557    0.0000 O   0  0  0  0  0  0  0  0  0  0  0  0
    7.2258  -12.7626    0.0000 C   0  0  0  0  0  0  0  0  0  0  0  0
    7.2140  -13.5844    0.0000 C   0  0  2  0  0  0  0  0  0  0  0  0
    7.9234  -14.0056    0.0000 C   0  0  1  0  0  0  0  0  0  0  0  0
    8.6393  -13.6018    0.0000 C   0  0  1  0  0  0  0  0  0  0  0  0
    9.3478  -14.0245    0.0000 O   0  0  0  0  0  0  0  0  0  0  0  0
    7.9142  -14.8305    0.0000 O   0  0  0  0  0  0  0  0  0  0  0  0
    6.4941  -13.9874    0.0000 O   0  0  0  0  0  0  0  0  0  0  0  0
  1  2  1  0  0  0  0
  2  3  1  0  0  0  0
  3  4  1  0  0  0  0
  4  5  1  0  0  0  0
  5  6  1  0  0  0  0
  6  1  1  0  0  0  0
  4  7  2  0  0  0  0
  7  8  1  0  0  0  0
  8  9  1  0  0  0  0
  9 10  1  0  0  0  0
 10  5  1  0  0  0  0
  9 11  1  0  0  0  0
 11 12  1  0  0  0  0
 12 13  1  0  0  0  0
 13 14  1  0  0  0  0
 14 10  1  0  0  0  0
  2 15  1  1  0  0  0
  5 16  1  1  0  0  0
 11 17  1  6  0  0  0
 18 19  1  0  0  0  0
 19 20  1  0  0  0  0
 20 21  1  0  0  0  0
 21 22  1  0  0  0  0
 22 23  1  0  0  0  0
 23 18  1  0  0  0  0
 18 24  1  1  0  0  0
 20 25  1  1  0  0  0
 19 26  1  6  0  0  0
 21 27  1  6  0  0  0
 24 28  1  0  0  0  0
 29 30  1  0  0  0  0
 30 31  1  0  0  0  0
 31 32  1  0  0  0  0
 32 33  1  0  0  0  0
 33 34  1  0  0  0  0
 34 29  1  0  0  0  0
 29 35  1  6  0  0  0
 31 36  1  6  0  0  0
 30 37  1  1  0  0  0
 32 38  1  6  0  0  0
 39 40  1  0  0  0  0
 40 41  1  0  0  0  0
 41 42  1  0  0  0  0
 42 43  1  0  0  0  0
 43 44  1  0  0  0  0
 44 39  1  0  0  0  0
 40 45  1  1  0  0  0
 41 46  1  1  0  0  0
 42 47  1  6  0  0  0
 33 26  1  1  0  0  0
 43 27  1  1  0  0  0
 22 15  1  1  0  0  0
 12 48  1  1  0  0  0
 11 49  1  0  0  0  0
 49 50  1  0  0  0  0
 50 51  1  0  0  0  0
 51 12  1  0  0  0  0
 50 52  1  0  0  0  0
 53 52  1  6  0  0  0
 53 54  1  0  0  0  0
 54 51  1  0  0  0  0
 53 55  1  0  0  0  0
 55 56  1  0  0  0  0
 56 57  1  0  0  0  0
 57 58  1  0  0  0  0
 58 59  1  0  0  0  0
 59 53  1  0  0  0  0
 51 60  1  6  0  0  0
 54 61  1  6  0  0  0
 57 62  1  1  0  0  0
 10 63  1  6  0  0  0
  9 64  1  1  0  0  0
 50 65  1  6  0  0  0
 66 46  1  1  0  0  0
 66 67  1  0  0  0  0
 67 68  1  0  0  0  0
 68 69  1  0  0  0  0
 69 70  1  0  0  0  0
 70 71  1  0  0  0  0
 71 66  1  0  0  0  0
 71 72  1  6  0  0  0
 70 73  1  1  0  0  0
 69 74  1  6  0  0  0
M  END
>  <cdx:fragmentId>
109

$$$$
