50365.cdx
  Mrv1902 05222410182D          

 19 20  0  0  0  0            999 V2000
    6.9790   -5.4383    0.0000 C   0  0  1  0  0  0  0  0  0  0  0  0
    6.9790   -6.2633    0.0000 C   0  0  1  0  0  0  0  0  0  0  0  0
    6.2645   -6.6758    0.0000 C   0  0  2  0  0  0  0  0  0  0  0  0
    5.5501   -6.2633    0.0000 C   0  0  1  0  0  0  0  0  0  0  0  0
    5.5501   -5.4383    0.0000 C   0  0  2  0  0  0  0  0  0  0  0  0
    6.2645   -5.0258    0.0000 O   0  0  0  0  0  0  0  0  0  0  0  0
    7.6935   -6.6758    0.0000 O   0  0  0  0  0  0  0  0  0  0  0  0
    6.2645   -7.5008    0.0000 O   0  0  0  0  0  0  0  0  0  0  0  0
    4.8356   -6.6758    0.0000 O   0  0  0  0  0  0  0  0  0  0  0  0
    4.8356   -5.0258    0.0000 C   0  0  0  0  0  0  0  0  0  0  0  0
    4.1211   -5.4383    0.0000 O   0  0  0  0  0  0  0  0  0  0  0  0
    7.6935   -5.0258    0.0000 O   0  0  0  0  0  0  0  0  0  0  0  0
    8.4080   -5.4383    0.0000 C   0  0  0  0  0  0  0  0  0  0  0  0
    9.1224   -5.0258    0.0000 C   0  0  0  0  0  0  0  0  0  0  0  0
    9.1224   -4.2008    0.0000 C   0  0  0  0  0  0  0  0  0  0  0  0
    9.8369   -3.7883    0.0000 C   0  0  0  0  0  0  0  0  0  0  0  0
   10.5514   -4.2008    0.0000 C   0  0  0  0  0  0  0  0  0  0  0  0
   10.5514   -5.0258    0.0000 C   0  0  0  0  0  0  0  0  0  0  0  0
    9.8369   -5.4383    0.0000 C   0  0  0  0  0  0  0  0  0  0  0  0
  1  2  1  0  0  0  0
  2  3  1  0  0  0  0
  3  4  1  0  0  0  0
  4  5  1  0  0  0  0
  5  6  1  0  0  0  0
  1  6  1  0  0  0  0
  2  7  1  6  0  0  0
  3  8  1  1  0  0  0
  4  9  1  6  0  0  0
 10 11  1  0  0  0  0
  5 10  1  1  0  0  0
 13 14  1  0  0  0  0
 14 15  1  0  0  0  0
 15 16  2  0  0  0  0
 16 17  1  0  0  0  0
 17 18  2  0  0  0  0
 18 19  1  0  0  0  0
 14 19  2  0  0  0  0
 12 13  1  0  0  0  0
  1 12  1  1  0  0  0
M  END
>  <cdx:fragmentId>
17072

$$$$
