50360.cdx
  Mrv1902 05222410202D          

 33 36  0  0  0  0            999 V2000
    4.4943   -6.6814    0.0000 C   0  0  0  0  0  0  0  0  0  0  0  0
    4.4943   -7.5064    0.0000 C   0  0  0  0  0  0  0  0  0  0  0  0
    5.2088   -7.9189    0.0000 C   0  0  0  0  0  0  0  0  0  0  0  0
    5.9232   -7.5064    0.0000 C   0  0  0  0  0  0  0  0  0  0  0  0
    5.9232   -6.6814    0.0000 C   0  0  0  0  0  0  0  0  0  0  0  0
    5.2088   -6.2689    0.0000 C   0  0  0  0  0  0  0  0  0  0  0  0
    6.6377   -7.9189    0.0000 C   0  0  0  0  0  0  0  0  0  0  0  0
    7.3522   -7.5064    0.0000 C   0  0  0  0  0  0  0  0  0  0  0  0
    7.3522   -6.6814    0.0000 C   0  0  0  0  0  0  0  0  0  0  0  0
    6.6377   -6.2689    0.0000 O   0  0  0  0  0  0  0  0  0  0  0  0
    8.0667   -6.2689    0.0000 C   0  0  0  0  0  0  0  0  0  0  0  0
    8.0667   -5.4439    0.0000 C   0  0  0  0  0  0  0  0  0  0  0  0
    8.7811   -6.6814    0.0000 C   0  0  0  0  0  0  0  0  0  0  0  0
    9.4956   -6.2689    0.0000 C   0  0  0  0  0  0  0  0  0  0  0  0
    9.4956   -5.4439    0.0000 C   0  0  0  0  0  0  0  0  0  0  0  0
    8.7811   -5.0314    0.0000 C   0  0  0  0  0  0  0  0  0  0  0  0
    3.7798   -6.2689    0.0000 O   0  0  0  0  0  0  0  0  0  0  0  0
    8.0667   -7.9189    0.0000 O   0  0  0  0  0  0  0  0  0  0  0  0
    6.6377   -8.7439    0.0000 O   0  0  0  0  0  0  0  0  0  0  0  0
    8.7811   -4.2064    0.0000 O   0  0  0  0  0  0  0  0  0  0  0  0
   10.2101   -5.0314    0.0000 O   0  0  0  0  0  0  0  0  0  0  0  0
    5.2088   -8.7439    0.0000 O   0  0  0  0  0  0  0  0  0  0  0  0
    4.4943   -9.1564    0.0000 C   0  0  2  0  0  0  0  0  0  0  0  0
    3.7798   -8.7439    0.0000 O   0  0  0  0  0  0  0  0  0  0  0  0
    3.0654   -9.1564    0.0000 C   0  0  1  0  0  0  0  0  0  0  0  0
    3.0654   -9.9814    0.0000 C   0  0  2  0  0  0  0  0  0  0  0  0
    3.7798  -10.3939    0.0000 C   0  0  1  0  0  0  0  0  0  0  0  0
    4.4943   -9.9814    0.0000 C   0  0  1  0  0  0  0  0  0  0  0  0
    2.3509   -8.7439    0.0000 C   0  0  0  0  0  0  0  0  0  0  0  0
    1.6364   -9.1564    0.0000 O   0  0  0  0  0  0  0  0  0  0  0  0
    3.7798  -11.2189    0.0000 O   0  0  0  0  0  0  0  0  0  0  0  0
    2.3509  -10.3939    0.0000 O   0  0  0  0  0  0  0  0  0  0  0  0
    5.2088  -10.3939    0.0000 O   0  0  0  0  0  0  0  0  0  0  0  0
  1  2  1  0  0  0  0
  2  3  2  0  0  0  0
  3  4  1  0  0  0  0
  4  5  2  0  0  0  0
  5  6  1  0  0  0  0
  6  1  2  0  0  0  0
  4  7  1  0  0  0  0
  7  8  1  0  0  0  0
  8  9  2  0  0  0  0
  9 10  1  0  0  0  0
 10  5  1  0  0  0  0
  9 11  1  0  0  0  0
 11 12  1  0  0  0  0
 11 13  2  0  0  0  0
 13 14  1  0  0  0  0
 14 15  2  0  0  0  0
 15 16  1  0  0  0  0
 16 12  2  0  0  0  0
  1 17  1  0  0  0  0
  8 18  1  0  0  0  0
  7 19  2  0  0  0  0
 16 20  1  0  0  0  0
 15 21  1  0  0  0  0
  3 22  1  0  0  0  0
 23 22  1  1  0  0  0
 23 24  1  0  0  0  0
 24 25  1  0  0  0  0
 25 26  1  0  0  0  0
 26 27  1  0  0  0  0
 27 28  1  0  0  0  0
 28 23  1  0  0  0  0
 25 29  1  1  0  0  0
 29 30  1  0  0  0  0
 27 31  1  1  0  0  0
 26 32  1  6  0  0  0
 28 33  1  6  0  0  0
M  END
>  <cdx:fragmentId>
5

$$$$
