50369.cdx
  Mrv1902 05222410282D          

 31 33  0  0  0  0            999 V2000
    4.4601   -6.4759    0.0000 C   0  0  0  0  0  0  0  0  0  0  0  0
    5.7871   -8.5294    0.0000 C   0  0  0  0  0  0  0  0  0  0  0  0
    6.1996   -9.2439    0.0000 C   0  0  0  0  0  0  0  0  0  0  0  0
    9.4561   -5.2175    0.0000 O   0  0  0  0  0  0  0  0  0  0  0  0
    4.4635   -7.3009    0.0000 C   0  0  0  0  0  0  0  0  0  0  0  0
    3.7508   -7.7164    0.0000 C   0  0  0  0  0  0  0  0  0  0  0  0
    3.7543   -8.5414    0.0000 C   0  0  0  0  0  0  0  0  0  0  0  0
    5.8786   -3.9950    0.0000 C   0  0  0  0  0  0  0  0  0  0  0  0
    5.8821   -4.8200    0.0000 C   0  0  0  0  0  0  0  0  0  0  0  0
    7.3110   -4.8140    0.0000 C   0  0  0  0  0  0  0  0  0  0  0  0
    6.5983   -5.2295    0.0000 C   0  0  0  0  0  0  0  0  0  0  0  0
    7.3179   -6.4640    0.0000 O   0  0  0  0  0  0  0  0  0  0  0  0
    6.6017   -6.0545    0.0000 C   0  0  0  0  0  0  0  0  0  0  0  0
    5.8890   -6.4699    0.0000 O   0  0  0  0  0  0  0  0  0  0  0  0
    5.8925   -7.2949    0.0000 O   0  0  0  0  0  0  0  0  0  0  0  0
    5.1797   -7.7104    0.0000 C   0  0  0  0  0  0  0  0  0  0  0  0
    5.1832   -8.5354    0.0000 O   0  0  0  0  0  0  0  0  0  0  0  0
    7.3214   -7.2889    0.0000 C   0  0  2  0  0  0  0  0  0  0  0  0
    6.6087   -7.7044    0.0000 C   0  0  1  0  0  0  0  0  0  0  0  0
    6.6121   -8.5294    0.0000 C   0  0  0  0  0  0  0  0  0  0  0  0
    7.3283   -8.9389    0.0000 O   0  0  0  0  0  0  0  0  0  0  0  0
   10.1793   -7.2769    0.0000 C   0  0  0  0  0  0  0  0  0  0  0  0
   10.1758   -6.4520    0.0000 C   0  0  0  0  0  0  0  0  0  0  0  0
    9.4596   -6.0425    0.0000 C   0  0  0  0  0  0  0  0  0  0  0  0
    8.7469   -6.4580    0.0000 O   0  0  0  0  0  0  0  0  0  0  0  0
    9.4700   -8.5174    0.0000 C   0  0  0  0  0  0  0  0  0  0  0  0
    9.4665   -7.6924    0.0000 C   0  0  0  0  0  0  0  0  0  0  0  0
    8.7503   -7.2829    0.0000 C   0  0  0  0  0  0  0  0  0  0  0  0
    8.0376   -7.6984    0.0000 C   0  0  0  0  0  0  0  0  0  0  0  0
    8.0411   -8.5234    0.0000 C   0  0  0  0  0  0  0  0  0  0  0  0
    8.7573   -8.9329    0.0000 C   0  0  0  0  0  0  0  0  0  0  0  0
  5  1  1  0  0  0  0
 20  2  1  0  0  0  0
 20  3  1  0  0  0  0
 24  4  2  0  0  0  0
  5 16  1  0  0  0  0
  6  5  2  0  0  0  0
  7  6  1  0  0  0  0
  9  8  1  0  0  0  0
 11  9  2  0  0  0  0
 11 10  1  0  0  0  0
 13 11  1  0  0  0  0
 18 12  1  1  0  0  0
 13 12  1  0  0  0  0
 14 13  2  0  0  0  0
 19 15  1  1  0  0  0
 16 15  1  0  0  0  0
 17 16  2  0  0  0  0
 18 29  1  0  0  0  0
 19 18  1  0  0  0  0
 20 19  1  0  0  0  0
 21 20  1  0  0  0  0
 30 21  1  0  0  0  0
 22 27  1  0  0  0  0
 23 22  2  0  0  0  0
 24 23  1  0  0  0  0
 25 24  1  0  0  0  0
 28 25  1  0  0  0  0
 26 31  1  0  0  0  0
 27 26  2  0  0  0  0
 28 27  1  0  0  0  0
 29 28  2  0  0  0  0
 30 29  1  0  0  0  0
 31 30  2  0  0  0  0
M  END
>  <cdx:fragmentId>
5

$$$$
