50363.cdx
  Mrv1902 05222410192D          

 48 52  0  0  0  0            999 V2000
    8.4430   -8.0300    0.0000 C   0  0  0  0  0  0  0  0  0  0  0  0
    8.4430   -8.8550    0.0000 C   0  0  0  0  0  0  0  0  0  0  0  0
    9.1575   -9.2675    0.0000 C   0  0  0  0  0  0  0  0  0  0  0  0
    9.8720   -8.8550    0.0000 C   0  0  0  0  0  0  0  0  0  0  0  0
    9.8720   -8.0300    0.0000 C   0  0  0  0  0  0  0  0  0  0  0  0
    9.1575   -7.6175    0.0000 C   0  0  0  0  0  0  0  0  0  0  0  0
    7.6584   -7.7751    0.0000 C   0  0  2  0  0  0  0  0  0  0  0  0
    7.1735   -8.4425    0.0000 C   0  0  1  0  0  0  0  0  0  0  0  0
    7.6584   -9.1099    0.0000 O   0  0  0  0  0  0  0  0  0  0  0  0
    6.3485   -8.4425    0.0000 C   0  0  0  0  0  0  0  0  0  0  0  0
    7.4035   -6.9904    0.0000 C   0  0  0  0  0  0  0  0  0  0  0  0
    5.9360   -7.7280    0.0000 C   0  0  0  0  0  0  0  0  0  0  0  0
    5.1110   -7.7280    0.0000 C   0  0  0  0  0  0  0  0  0  0  0  0
    4.6985   -8.4425    0.0000 C   0  0  0  0  0  0  0  0  0  0  0  0
    5.1110   -9.1570    0.0000 C   0  0  0  0  0  0  0  0  0  0  0  0
    5.9360   -9.1570    0.0000 C   0  0  0  0  0  0  0  0  0  0  0  0
    3.8735   -8.4425    0.0000 O   0  0  0  0  0  0  0  0  0  0  0  0
    4.6985   -9.8714    0.0000 O   0  0  0  0  0  0  0  0  0  0  0  0
    3.8735   -9.8714    0.0000 C   0  0  0  0  0  0  0  0  0  0  0  0
   10.5864   -7.6175    0.0000 C   0  0  0  0  0  0  0  0  0  0  0  0
   11.3009   -8.0300    0.0000 C   0  0  0  0  0  0  0  0  0  0  0  0
   12.0154   -7.6175    0.0000 C   0  0  0  0  0  0  0  0  0  0  0  0
   12.7299   -8.0300    0.0000 O   0  0  0  0  0  0  0  0  0  0  0  0
    9.1575  -10.0925    0.0000 O   0  0  0  0  0  0  0  0  0  0  0  0
    9.8720  -10.5050    0.0000 C   0  0  0  0  0  0  0  0  0  0  0  0
    3.4610   -7.7280    0.0000 C   0  0  2  0  0  0  0  0  0  0  0  0
    3.8735   -7.0136    0.0000 O   0  0  0  0  0  0  0  0  0  0  0  0
    3.4610   -6.2991    0.0000 C   0  0  1  0  0  0  0  0  0  0  0  0
    2.6360   -6.2991    0.0000 C   0  0  2  0  0  0  0  0  0  0  0  0
    2.2235   -7.0136    0.0000 C   0  0  1  0  0  0  0  0  0  0  0  0
    2.6360   -7.7280    0.0000 C   0  0  1  0  0  0  0  0  0  0  0  0
    3.8735   -5.5846    0.0000 C   0  0  0  0  0  0  0  0  0  0  0  0
    1.3985   -7.0136    0.0000 O   0  0  0  0  0  0  0  0  0  0  0  0
    3.4610   -4.8701    0.0000 O   0  0  0  0  0  0  0  0  0  0  0  0
    2.2235   -8.4425    0.0000 O   0  0  0  0  0  0  0  0  0  0  0  0
    2.2235   -5.5846    0.0000 O   0  0  0  0  0  0  0  0  0  0  0  0
    7.9555   -6.3773    0.0000 O   0  0  0  0  0  0  0  0  0  0  0  0
    7.7006   -5.5927    0.0000 C   0  0  2  0  0  0  0  0  0  0  0  0
    8.2526   -4.9796    0.0000 O   0  0  0  0  0  0  0  0  0  0  0  0
    7.9977   -4.1950    0.0000 C   0  0  1  0  0  0  0  0  0  0  0  0
    7.1907   -4.0235    0.0000 C   0  0  2  0  0  0  0  0  0  0  0  0
    6.6387   -4.6366    0.0000 C   0  0  1  0  0  0  0  0  0  0  0  0
    6.8936   -5.4212    0.0000 C   0  0  1  0  0  0  0  0  0  0  0  0
    8.5497   -3.5819    0.0000 C   0  0  0  0  0  0  0  0  0  0  0  0
    5.8317   -4.4650    0.0000 O   0  0  0  0  0  0  0  0  0  0  0  0
    6.3416   -6.0343    0.0000 O   0  0  0  0  0  0  0  0  0  0  0  0
    6.9357   -3.2389    0.0000 O   0  0  0  0  0  0  0  0  0  0  0  0
    8.2947   -2.7973    0.0000 O   0  0  0  0  0  0  0  0  0  0  0  0
  1  2  2  0  0  0  0
  2  3  1  0  0  0  0
  3  4  2  0  0  0  0
  4  5  1  0  0  0  0
  5  6  2  0  0  0  0
  6  1  1  0  0  0  0
  1  7  1  0  0  0  0
  7  8  1  0  0  0  0
  8  9  1  0  0  0  0
  9  2  1  0  0  0  0
  8 10  1  1  0  0  0
  7 11  1  6  0  0  0
 10 12  2  0  0  0  0
 12 13  1  0  0  0  0
 13 14  2  0  0  0  0
 14 15  1  0  0  0  0
 15 16  2  0  0  0  0
 16 10  1  0  0  0  0
 14 17  1  0  0  0  0
 15 18  1  0  0  0  0
 18 19  1  0  0  0  0
  5 20  1  0  0  0  0
 20 21  2  0  0  0  0
 21 22  1  0  0  0  0
 22 23  1  0  0  0  0
  3 24  1  0  0  0  0
 24 25  1  0  0  0  0
 26 17  1  1  0  0  0
 26 27  1  0  0  0  0
 27 28  1  0  0  0  0
 28 29  1  0  0  0  0
 29 30  1  0  0  0  0
 30 31  1  0  0  0  0
 31 26  1  0  0  0  0
 28 32  1  1  0  0  0
 30 33  1  1  0  0  0
 32 34  1  0  0  0  0
 31 35  1  6  0  0  0
 29 36  1  6  0  0  0
 11 37  1  0  0  0  0
 38 37  1  1  0  0  0
 38 39  1  0  0  0  0
 39 40  1  0  0  0  0
 40 41  1  0  0  0  0
 41 42  1  0  0  0  0
 42 43  1  0  0  0  0
 43 38  1  0  0  0  0
 40 44  1  1  0  0  0
 42 45  1  1  0  0  0
 43 46  1  6  0  0  0
 41 47  1  6  0  0  0
 44 48  1  0  0  0  0
M  END
>  <cdx:fragmentId>
154

$$$$
