50362.cdx
  Mrv1902 05222410192D          

 26 28  0  0  0  0            999 V2000
    4.8627  -10.5583    0.0000 C   0  0  2  0  0  0  0  0  0  0  0  0
    5.5769  -10.9714    0.0000 C   0  0  2  0  0  0  0  0  0  0  0  0
    6.2917  -10.5595    0.0000 C   0  0  1  0  0  0  0  0  0  0  0  0
    6.2924   -9.7345    0.0000 C   0  0  2  0  0  0  0  0  0  0  0  0
    5.5783   -9.3214    0.0000 C   0  0  1  0  0  0  0  0  0  0  0  0
    4.8634   -9.7333    0.0000 O   0  0  0  0  0  0  0  0  0  0  0  0
    5.5790   -8.4964    0.0000 O   0  0  0  0  0  0  0  0  0  0  0  0
    7.0058  -10.9726    0.0000 O   0  0  0  0  0  0  0  0  0  0  0  0
    4.1479  -10.9702    0.0000 C   0  0  0  0  0  0  0  0  0  0  0  0
    4.1472  -11.7952    0.0000 O   0  0  0  0  0  0  0  0  0  0  0  0
    5.5762  -11.7964    0.0000 O   0  0  0  0  0  0  0  0  0  0  0  0
    7.0072   -9.3226    0.0000 O   0  0  0  0  0  0  0  0  0  0  0  0
    6.2645   -8.0374    0.0000 C   0  0  1  0  0  0  0  0  0  0  0  0
    6.5304   -8.8184    0.0000 C   0  0  0  0  0  0  0  0  0  0  0  0
    7.0522   -7.7921    0.0000 C   0  0  0  0  0  0  0  0  0  0  0  0
    7.0622   -6.9671    0.0000 C   0  0  0  0  0  0  0  0  0  0  0  0
    6.2808   -6.7027    0.0000 C   0  0  0  0  0  0  0  0  0  0  0  0
    5.7878   -7.3641    0.0000 C   0  0  1  0  0  0  0  0  0  0  0  0
    7.7616   -8.2133    0.0000 C   0  0  0  0  0  0  0  0  0  0  0  0
    8.4810   -7.8095    0.0000 O   0  0  0  0  0  0  0  0  0  0  0  0
    8.4911   -6.9846    0.0000 C   0  0  2  0  0  0  0  0  0  0  0  0
    7.7817   -6.5634    0.0000 C   0  0  2  0  0  0  0  0  0  0  0  0
    4.9628   -7.3541    0.0000 O   0  0  0  0  0  0  0  0  0  0  0  0
    9.2105   -6.5808    0.0000 O   0  0  0  0  0  0  0  0  0  0  0  0
    7.7917   -5.7384    0.0000 C   0  0  0  0  0  0  0  0  0  0  0  0
    9.8313   -7.1242    0.0000 C   0  0  0  0  0  0  0  0  0  0  0  0
  1  2  1  0  0  0  0
  2  3  1  0  0  0  0
  3  4  1  0  0  0  0
  4  5  1  0  0  0  0
  5  6  1  0  0  0  0
  6  1  1  0  0  0  0
  5  7  1  1  0  0  0
  3  8  1  1  0  0  0
  1  9  1  1  0  0  0
  9 10  1  0  0  0  0
  2 11  1  6  0  0  0
  4 12  1  6  0  0  0
 13  7  1  6  0  0  0
 13 14  1  1  0  0  0
 13 15  1  0  0  0  0
 15 16  1  0  0  0  0
 16 17  1  0  0  0  0
 17 18  1  0  0  0  0
 18 13  1  0  0  0  0
 15 19  1  0  0  0  0
 19 20  1  0  0  0  0
 20 21  1  0  0  0  0
 21 22  1  0  0  0  0
 22 16  1  0  0  0  0
 18 23  1  6  0  0  0
 21 24  1  6  0  0  0
 22 25  1  1  0  0  0
 24 26  1  0  0  0  0
M  END
>  <cdx:fragmentId>
5

$$$$
