50364.cdx
  Mrv1902 05222410182D          

 37 41  0  0  0  0            999 V2000
    8.9202   -6.7925    0.0000 C   0  0  0  0  0  0  0  0  0  0  0  0
    8.9202   -7.6175    0.0000 C   0  0  0  0  0  0  0  0  0  0  0  0
    9.6346   -8.0300    0.0000 C   0  0  0  0  0  0  0  0  0  0  0  0
   10.3491   -7.6175    0.0000 C   0  0  0  0  0  0  0  0  0  0  0  0
   10.3491   -6.7925    0.0000 C   0  0  0  0  0  0  0  0  0  0  0  0
    9.6346   -6.3800    0.0000 C   0  0  0  0  0  0  0  0  0  0  0  0
   11.0636   -8.0300    0.0000 C   0  0  0  0  0  0  0  0  0  0  0  0
   11.7780   -7.6175    0.0000 C   0  0  0  0  0  0  0  0  0  0  0  0
   11.7780   -6.7925    0.0000 C   0  0  0  0  0  0  0  0  0  0  0  0
   11.0636   -6.3800    0.0000 O   0  0  0  0  0  0  0  0  0  0  0  0
    8.1355   -6.5376    0.0000 O   0  0  0  0  0  0  0  0  0  0  0  0
    7.6506   -7.2050    0.0000 C   0  0  0  0  0  0  0  0  0  0  0  0
    8.1355   -7.8724    0.0000 C   0  0  0  0  0  0  0  0  0  0  0  0
    9.6346   -8.8550    0.0000 O   0  0  0  0  0  0  0  0  0  0  0  0
   12.4925   -6.3800    0.0000 O   0  0  0  0  0  0  0  0  0  0  0  0
    8.9202   -9.2675    0.0000 C   0  0  2  0  0  0  0  0  0  0  0  0
    8.2057   -8.8550    0.0000 O   0  0  0  0  0  0  0  0  0  0  0  0
    7.4912   -9.2675    0.0000 C   0  0  1  0  0  0  0  0  0  0  0  0
    7.4912  -10.0925    0.0000 C   0  0  2  0  0  0  0  0  0  0  0  0
    8.2057  -10.5050    0.0000 C   0  0  1  0  0  0  0  0  0  0  0  0
    8.9202  -10.0925    0.0000 C   0  0  1  0  0  0  0  0  0  0  0  0
    6.7767   -8.8550    0.0000 C   0  0  0  0  0  0  0  0  0  0  0  0
    8.2057  -11.3300    0.0000 O   0  0  0  0  0  0  0  0  0  0  0  0
    9.6346  -10.5050    0.0000 O   0  0  0  0  0  0  0  0  0  0  0  0
    6.7767  -10.5050    0.0000 O   0  0  0  0  0  0  0  0  0  0  0  0
    6.0623   -9.2675    0.0000 O   0  0  0  0  0  0  0  0  0  0  0  0
    4.6269   -7.6159    0.0000 C   0  0  2  0  0  0  0  0  0  0  0  0
    3.9116   -8.0268    0.0000 C   0  0  2  0  0  0  0  0  0  0  0  0
    3.9098   -8.8518    0.0000 C   0  0  1  0  0  0  0  0  0  0  0  0
    4.6234   -9.2659    0.0000 C   0  0  2  0  0  0  0  0  0  0  0  0
    5.3387   -8.8549    0.0000 C   0  0  1  0  0  0  0  0  0  0  0  0
    5.3405   -8.0299    0.0000 O   0  0  0  0  0  0  0  0  0  0  0  0
    4.6287   -6.7909    0.0000 C   0  0  0  0  0  0  0  0  0  0  0  0
    3.1944   -9.2628    0.0000 O   0  0  0  0  0  0  0  0  0  0  0  0
    4.6216  -10.0909    0.0000 O   0  0  0  0  0  0  0  0  0  0  0  0
    3.1980   -7.6128    0.0000 O   0  0  0  0  0  0  0  0  0  0  0  0
    3.9152   -6.3768    0.0000 O   0  0  0  0  0  0  0  0  0  0  0  0
  1  2  2  0  0  0  0
  2  3  1  0  0  0  0
  3  4  2  0  0  0  0
  4  5  1  0  0  0  0
  5  6  2  0  0  0  0
  6  1  1  0  0  0  0
  4  7  1  0  0  0  0
  7  8  2  0  0  0  0
  8  9  1  0  0  0  0
  9 10  1  0  0  0  0
 10  5  1  0  0  0  0
  1 11  1  0  0  0  0
 11 12  1  0  0  0  0
 12 13  2  0  0  0  0
 13  2  1  0  0  0  0
  3 14  1  0  0  0  0
  9 15  2  0  0  0  0
 16 14  1  1  0  0  0
 16 17  1  0  0  0  0
 17 18  1  0  0  0  0
 18 19  1  0  0  0  0
 19 20  1  0  0  0  0
 20 21  1  0  0  0  0
 21 16  1  0  0  0  0
 18 22  1  1  0  0  0
 20 23  1  1  0  0  0
 21 24  1  6  0  0  0
 19 25  1  6  0  0  0
 22 26  1  0  0  0  0
 27 28  1  0  0  0  0
 28 29  1  0  0  0  0
 29 30  1  0  0  0  0
 30 31  1  0  0  0  0
 31 32  1  0  0  0  0
 32 27  1  0  0  0  0
 27 33  1  1  0  0  0
 29 34  1  1  0  0  0
 30 35  1  6  0  0  0
 28 36  1  6  0  0  0
 33 37  1  0  0  0  0
 31 26  1  1  0  0  0
M  END
>  <cdx:fragmentId>
5

$$$$
