503731 cdx.cdx
  Mrv1902 05222410232D          

 25 27  0  0  0  0            999 V2000
    4.2049   -7.4732    0.0000 C   0  0  0  0  0  0  0  0  0  0  0  0
    4.6174   -6.7587    0.0000 C   0  0  0  0  0  0  0  0  0  0  0  0
    5.4424   -6.7587    0.0000 C   0  0  0  0  0  0  0  0  0  0  0  0
    5.8549   -7.4732    0.0000 C   0  0  0  0  0  0  0  0  0  0  0  0
    5.4424   -8.1876    0.0000 C   0  0  0  0  0  0  0  0  0  0  0  0
    4.6174   -8.1876    0.0000 C   0  0  0  0  0  0  0  0  0  0  0  0
    3.3799   -7.4732    0.0000 O   0  0  0  0  0  0  0  0  0  0  0  0
    5.8549   -6.0442    0.0000 O   0  0  0  0  0  0  0  0  0  0  0  0
    7.1648   -8.1406    0.0000 O   0  0  0  0  0  0  0  0  0  0  0  0
    6.6799   -7.4732    0.0000 C   0  0  0  0  0  0  0  0  0  0  0  0
    7.1648   -6.8057    0.0000 C   0  0  0  0  0  0  0  0  0  0  0  0
    7.9494   -7.0607    0.0000 C   0  0  0  0  0  0  0  0  0  0  0  0
    8.6639   -6.6482    0.0000 C   0  0  0  0  0  0  0  0  0  0  0  0
    9.3784   -7.0607    0.0000 C   0  0  0  0  0  0  0  0  0  0  0  0
    9.3784   -7.8857    0.0000 C   0  0  0  0  0  0  0  0  0  0  0  0
    8.6639   -8.2982    0.0000 C   0  0  0  0  0  0  0  0  0  0  0  0
    7.9494   -7.8857    0.0000 C   0  0  0  0  0  0  0  0  0  0  0  0
   10.0928   -6.6482    0.0000 C   0  0  0  0  0  0  0  0  0  0  0  0
   10.8073   -7.0607    0.0000 C   0  0  0  0  0  0  0  0  0  0  0  0
   11.5218   -6.6482    0.0000 C   0  0  0  0  0  0  0  0  0  0  0  0
   11.5218   -5.8232    0.0000 C   0  0  0  0  0  0  0  0  0  0  0  0
   12.2362   -7.0607    0.0000 C   0  0  0  0  0  0  0  0  0  0  0  0
    8.6639   -5.8232    0.0000 O   0  0  0  0  0  0  0  0  0  0  0  0
    9.3784   -5.4107    0.0000 C   0  0  0  0  0  0  0  0  0  0  0  0
   10.0928   -8.2982    0.0000 O   0  0  0  0  0  0  0  0  0  0  0  0
  1  2  1  0  0  0  0
  2  3  2  0  0  0  0
  3  4  1  0  0  0  0
  4  5  2  0  0  0  0
  5  6  1  0  0  0  0
  1  6  2  0  0  0  0
  1  7  1  0  0  0  0
  3  8  1  0  0  0  0
  9 10  1  0  0  0  0
 10 11  2  0  0  0  0
 11 12  1  0  0  0  0
 12 13  1  0  0  0  0
 13 14  2  0  0  0  0
 14 15  1  0  0  0  0
 15 16  2  0  0  0  0
 16 17  1  0  0  0  0
 12 17  2  0  0  0  0
  9 17  1  0  0  0  0
 18 19  1  0  0  0  0
 19 20  2  0  0  0  0
 20 21  1  0  0  0  0
 20 22  1  0  0  0  0
 14 18  1  0  0  0  0
 23 24  1  0  0  0  0
 13 23  1  0  0  0  0
 15 25  1  0  0  0  0
  4 10  1  0  0  0  0
M  END
>  <cdx:fragmentId>
22324

$$$$
