50372.cdx
  Mrv1902 05222410192D          

 51 58  0  0  0  0            999 V2000
    7.8046   -5.1389    0.0000 H   0  0  0  0  0  0  0  0  0  0  0  0
    9.4934   -6.9483    0.0000 H   0  0  0  0  0  0  0  0  0  0  0  0
   11.1362   -7.6203    0.0000 C   0  0  0  0  0  0  0  0  0  0  0  0
   10.4145   -7.2207    0.0000 C   0  0  0  0  0  0  0  0  0  0  0  0
   10.3997   -6.3958    0.0000 C   0  0  0  0  0  0  0  0  0  0  0  0
   11.1067   -5.9706    0.0000 C   0  0  0  0  0  0  0  0  0  0  0  0
   11.8432   -7.1951    0.0000 C   0  0  0  0  0  0  0  0  0  0  0  0
   11.8285   -6.3702    0.0000 C   0  0  0  0  0  0  0  0  0  0  0  0
   12.6084   -6.1013    0.0000 O   0  0  0  0  0  0  0  0  0  0  0  0
   13.1052   -6.7599    0.0000 C   0  0  0  0  0  0  0  0  0  0  0  0
   12.6323   -7.4359    0.0000 O   0  0  0  0  0  0  0  0  0  0  0  0
    8.5308   -7.0669    0.0000 C   0  0  0  0  0  0  0  0  0  0  0  0
    7.6200   -6.0910    0.0000 C   0  0  1  0  0  0  0  0  0  0  0  0
    7.7209   -6.9098    0.0000 O   0  0  0  0  0  0  0  0  0  0  0  0
    9.6780   -5.9962    0.0000 C   0  0  2  0  0  0  0  0  0  0  0  0
    8.9305   -6.3452    0.0000 C   0  0  2  0  0  0  0  0  0  0  0  0
    8.3675   -5.7420    0.0000 C   0  0  2  0  0  0  0  0  0  0  0  0
    8.7672   -5.0203    0.0000 C   0  0  0  0  0  0  0  0  0  0  0  0
    9.5771   -5.1774    0.0000 O   0  0  0  0  0  0  0  0  0  0  0  0
    6.8835   -4.8665    0.0000 C   0  0  0  0  0  0  0  0  0  0  0  0
    6.8982   -5.6914    0.0000 C   0  0  0  0  0  0  0  0  0  0  0  0
    6.1913   -6.1166    0.0000 C   0  0  0  0  0  0  0  0  0  0  0  0
    5.4695   -5.7170    0.0000 C   0  0  0  0  0  0  0  0  0  0  0  0
    6.1617   -4.4669    0.0000 C   0  0  0  0  0  0  0  0  0  0  0  0
    5.4548   -4.8921    0.0000 C   0  0  0  0  0  0  0  0  0  0  0  0
    4.8319   -4.3511    0.0000 O   0  0  0  0  0  0  0  0  0  0  0  0
    5.1539   -3.5916    0.0000 C   0  0  0  0  0  0  0  0  0  0  0  0
    5.9758   -3.6631    0.0000 O   0  0  0  0  0  0  0  0  0  0  0  0
    6.2060   -6.9415    0.0000 O   0  0  0  0  0  0  0  0  0  0  0  0
    4.8216   -9.4417    0.0000 O   0  0  0  0  0  0  0  0  0  0  0  0
    3.3782   -8.6424    0.0000 O   0  0  0  0  0  0  0  0  0  0  0  0
    2.6341   -7.4052    0.0000 O   0  0  0  0  0  0  0  0  0  0  0  0
    3.3486   -6.9927    0.0000 C   0  0  0  0  0  0  0  0  0  0  0  0
    4.0704   -7.3923    0.0000 C   0  0  2  0  0  0  0  0  0  0  0  0
    4.0851   -8.2172    0.0000 C   0  0  2  0  0  0  0  0  0  0  0  0
    4.8069   -8.6168    0.0000 C   0  0  1  0  0  0  0  0  0  0  0  0
    5.5138   -8.1916    0.0000 C   0  0  2  0  0  0  0  0  0  0  0  0
    5.4991   -7.3667    0.0000 C   0  0  1  0  0  0  0  0  0  0  0  0
    4.7773   -6.9671    0.0000 O   0  0  0  0  0  0  0  0  0  0  0  0
    6.2356   -8.5912    0.0000 O   0  0  0  0  0  0  0  0  0  0  0  0
    4.8659  -11.9163    0.0000 O   0  0  0  0  0  0  0  0  0  0  0  0
    4.8512  -11.0914    0.0000 C   0  0  0  0  0  0  0  0  0  0  0  0
    6.2947  -11.8907    0.0000 O   0  0  0  0  0  0  0  0  0  0  0  0
    7.7086  -11.0403    0.0000 O   0  0  0  0  0  0  0  0  0  0  0  0
    7.6791   -9.3905    0.0000 O   0  0  0  0  0  0  0  0  0  0  0  0
    5.5581  -10.6662    0.0000 C   0  0  2  0  0  0  0  0  0  0  0  0
    6.2799  -11.0658    0.0000 C   0  0  2  0  0  0  0  0  0  0  0  0
    6.9869  -10.6406    0.0000 C   0  0  1  0  0  0  0  0  0  0  0  0
    6.9721   -9.8157    0.0000 C   0  0  2  0  0  0  0  0  0  0  0  0
    6.2503   -9.4161    0.0000 C   0  0  1  0  0  0  0  0  0  0  0  0
    5.5434   -9.8413    0.0000 O   0  0  0  0  0  0  0  0  0  0  0  0
 17  1  1  6  0  0  0
 16  2  1  6  0  0  0
 50 40  1  1  0  0  0
 37 40  1  6  0  0  0
 38 29  1  1  0  0  0
 29 22  1  0  0  0  0
 13 21  1  6  0  0  0
 15  5  1  6  0  0  0
  6  8  2  0  0  0  0
  3  7  2  0  0  0  0
  4  3  1  0  0  0  0
  5  4  2  0  0  0  0
  6  5  1  0  0  0  0
 11  7  1  0  0  0  0
  8  7  1  0  0  0  0
  9  8  1  0  0  0  0
 10  9  1  0  0  0  0
 11 10  1  0  0  0  0
 12 16  1  0  0  0  0
 13 17  1  0  0  0  0
 14 12  1  0  0  0  0
 14 13  1  0  0  0  0
 19 15  1  0  0  0  0
 16 15  1  0  0  0  0
 17 16  1  0  0  0  0
 18 17  1  0  0  0  0
 19 18  1  0  0  0  0
 23 25  2  0  0  0  0
 20 24  2  0  0  0  0
 21 20  1  0  0  0  0
 22 21  2  0  0  0  0
 23 22  1  0  0  0  0
 28 24  1  0  0  0  0
 25 24  1  0  0  0  0
 26 25  1  0  0  0  0
 27 26  1  0  0  0  0
 28 27  1  0  0  0  0
 36 30  1  1  0  0  0
 35 31  1  6  0  0  0
 34 33  1  1  0  0  0
 33 32  1  0  0  0  0
 39 34  1  0  0  0  0
 35 34  1  0  0  0  0
 36 35  1  0  0  0  0
 37 36  1  0  0  0  0
 38 37  1  0  0  0  0
 39 38  1  0  0  0  0
 46 42  1  1  0  0  0
 42 41  1  0  0  0  0
 47 43  1  6  0  0  0
 48 44  1  1  0  0  0
 49 45  1  6  0  0  0
 51 46  1  0  0  0  0
 47 46  1  0  0  0  0
 48 47  1  0  0  0  0
 49 48  1  0  0  0  0
 50 49  1  0  0  0  0
 51 50  1  0  0  0  0
M  END
>  <cdx:fragmentId>
236320

$$$$
