50373.cdx
  Mrv1902 05222410192D          

 20 19  0  0  0  0            999 V2000
    1.4829  -10.3248    0.0000 O   0  0  0  0  0  0  0  0  0  0  0  0
    0.7686   -9.0876    0.0000 O   0  0  0  0  0  0  0  0  0  0  0  0
    1.4829   -9.5000    0.0000 C   0  0  0  0  0  0  0  0  0  0  0  0
    2.1971   -9.0876    0.0000 C   0  0  0  0  0  0  0  0  0  0  0  0
    2.9114   -9.5000    0.0000 C   0  0  0  0  0  0  0  0  0  0  0  0
    3.6256   -9.0876    0.0000 C   0  0  0  0  0  0  0  0  0  0  0  0
    4.3399   -9.5000    0.0000 C   0  0  0  0  0  0  0  0  0  0  0  0
    5.0541   -9.0876    0.0000 C   0  0  0  0  0  0  0  0  0  0  0  0
    5.7683   -9.5000    0.0000 C   0  0  0  0  0  0  0  0  0  0  0  0
    6.4826   -9.0876    0.0000 C   0  0  0  0  0  0  0  0  0  0  0  0
    7.1968   -9.5000    0.0000 C   0  0  0  0  0  0  0  0  0  0  0  0
    7.9111   -9.0876    0.0000 C   0  0  0  0  0  0  0  0  0  0  0  0
    8.6253   -9.5000    0.0000 C   0  0  0  0  0  0  0  0  0  0  0  0
    9.3396   -9.0876    0.0000 C   0  0  0  0  0  0  0  0  0  0  0  0
   10.0538   -9.5000    0.0000 C   0  0  0  0  0  0  0  0  0  0  0  0
   10.7681   -9.0876    0.0000 C   0  0  0  0  0  0  0  0  0  0  0  0
   11.4823   -9.5000    0.0000 C   0  0  0  0  0  0  0  0  0  0  0  0
   12.1966   -9.0876    0.0000 C   0  0  0  0  0  0  0  0  0  0  0  0
   12.9108   -9.5000    0.0000 C   0  0  0  0  0  0  0  0  0  0  0  0
   13.6250   -9.0876    0.0000 C   0  0  0  0  0  0  0  0  0  0  0  0
  3  1  2  0  0  0  0
  3  2  1  0  0  0  0
  4  3  1  0  0  0  0
  5  4  1  0  0  0  0
  6  5  1  0  0  0  0
  7  6  1  0  0  0  0
  8  7  1  0  0  0  0
  9  8  1  0  0  0  0
 10  9  1  0  0  0  0
 11 10  1  0  0  0  0
 12 11  1  0  0  0  0
 13 12  2  0  0  0  0
 14 13  1  0  0  0  0
 15 14  1  0  0  0  0
 16 15  2  0  0  0  0
 17 16  1  0  0  0  0
 18 17  1  0  0  0  0
 19 18  1  0  0  0  0
 20 19  1  0  0  0  0
M  END
>  <cdx:fragmentId>
92

$$$$
