503733.cdx
  Mrv1902 05222410222D          

 42 46  0  0  0  0            999 V2000
   20.7843   -6.5117    0.0000 C   0  0  0  0  0  0  0  0  0  0  0  0
   20.7843   -7.3367    0.0000 C   0  0  0  0  0  0  0  0  0  0  0  0
   20.0699   -7.7492    0.0000 C   0  0  0  0  0  0  0  0  0  0  0  0
   19.3554   -7.3367    0.0000 C   0  0  0  0  0  0  0  0  0  0  0  0
   18.6409   -7.7492    0.0000 C   0  0  0  0  0  0  0  0  0  0  0  0
   17.9265   -7.3367    0.0000 C   0  0  0  0  0  0  0  0  0  0  0  0
   17.9265   -6.5117    0.0000 C   0  0  0  0  0  0  0  0  0  0  0  0
   18.6409   -6.0992    0.0000 C   0  0  0  0  0  0  0  0  0  0  0  0
   19.3554   -6.5117    0.0000 C   0  0  0  0  0  0  0  0  0  0  0  0
   20.0699   -6.0992    0.0000 O   0  0  0  0  0  0  0  0  0  0  0  0
   17.2120   -6.0992    0.0000 C   0  0  0  0  0  0  0  0  0  0  0  0
   16.4975   -6.5117    0.0000 C   0  0  0  0  0  0  0  0  0  0  0  0
   16.4975   -7.3367    0.0000 C   0  0  0  0  0  0  0  0  0  0  0  0
   17.2120   -7.7492    0.0000 C   0  0  0  0  0  0  0  0  0  0  0  0
   20.0699   -8.5742    0.0000 O   0  0  0  0  0  0  0  0  0  0  0  0
   17.2120   -8.5742    0.0000 O   0  0  0  0  0  0  0  0  0  0  0  0
   15.7830   -8.5742    0.0000 O   0  0  0  0  0  0  0  0  0  0  0  0
   16.4975   -8.9867    0.0000 C   0  0  2  0  0  0  0  0  0  0  0  0
   16.4975   -9.8117    0.0000 C   0  0  1  0  0  0  0  0  0  0  0  0
   15.7830  -10.2242    0.0000 C   0  0  2  0  0  0  0  0  0  0  0  0
   15.0686   -9.8117    0.0000 C   0  0  1  0  0  0  0  0  0  0  0  0
   15.0686   -8.9867    0.0000 C   0  0  1  0  0  0  0  0  0  0  0  0
   14.3541   -8.5742    0.0000 C   0  0  0  0  0  0  0  0  0  0  0  0
   13.6396   -8.9867    0.0000 O   0  0  0  0  0  0  0  0  0  0  0  0
   12.2107   -8.9867    0.0000 O   0  0  0  0  0  0  0  0  0  0  0  0
   12.9252   -8.5742    0.0000 C   0  0  2  0  0  0  0  0  0  0  0  0
   12.9252   -7.7492    0.0000 C   0  0  1  0  0  0  0  0  0  0  0  0
   12.2107   -7.3367    0.0000 C   0  0  2  0  0  0  0  0  0  0  0  0
   11.4962   -7.7492    0.0000 C   0  0  1  0  0  0  0  0  0  0  0  0
   11.4962   -8.5742    0.0000 C   0  0  1  0  0  0  0  0  0  0  0  0
   10.7818   -8.9867    0.0000 C   0  0  0  0  0  0  0  0  0  0  0  0
   10.0673   -8.5742    0.0000 O   0  0  0  0  0  0  0  0  0  0  0  0
   10.7818   -7.3367    0.0000 O   0  0  0  0  0  0  0  0  0  0  0  0
   12.2107   -6.5117    0.0000 O   0  0  0  0  0  0  0  0  0  0  0  0
   13.6396   -7.3367    0.0000 O   0  0  0  0  0  0  0  0  0  0  0  0
   14.3541  -10.2242    0.0000 O   0  0  0  0  0  0  0  0  0  0  0  0
   15.7830  -11.0492    0.0000 O   0  0  0  0  0  0  0  0  0  0  0  0
   17.2120  -10.2242    0.0000 O   0  0  0  0  0  0  0  0  0  0  0  0
   21.4988   -6.0992    0.0000 C   0  0  0  0  0  0  0  0  0  0  0  0
   15.7830   -6.0992    0.0000 O   0  0  0  0  0  0  0  0  0  0  0  0
   15.0686   -6.5117    0.0000 C   0  0  0  0  0  0  0  0  0  0  0  0
   18.6409   -8.5742    0.0000 O   0  0  0  0  0  0  0  0  0  0  0  0
  1  2  2  0  0  0  0
  2  3  1  0  0  0  0
  3  4  1  0  0  0  0
  4  5  1  0  0  0  0
  5  6  2  0  0  0  0
  6  7  1  0  0  0  0
  7  8  2  0  0  0  0
  8  9  1  0  0  0  0
  4  9  2  0  0  0  0
  9 10  1  0  0  0  0
  1 10  1  0  0  0  0
 11 12  2  0  0  0  0
 12 13  1  0  0  0  0
 13 14  2  0  0  0  0
 14  6  1  0  0  0  0
 11  7  1  0  0  0  0
  3 15  2  0  0  0  0
 17 18  1  0  0  0  0
 18 19  1  0  0  0  0
 19 20  1  0  0  0  0
 20 21  1  0  0  0  0
 21 22  1  0  0  0  0
 17 22  1  0  0  0  0
 25 26  1  0  0  0  0
 26 27  1  0  0  0  0
 27 28  1  0  0  0  0
 28 29  1  0  0  0  0
 29 30  1  0  0  0  0
 25 30  1  0  0  0  0
 31 32  1  0  0  0  0
 30 31  1  6  0  0  0
 29 33  1  1  0  0  0
 28 34  1  6  0  0  0
 27 35  1  1  0  0  0
 26 24  1  6  0  0  0
 23 24  1  0  0  0  0
 22 23  1  1  0  0  0
 21 36  1  6  0  0  0
 20 37  1  1  0  0  0
 19 38  1  6  0  0  0
 18 16  1  1  0  0  0
 14 16  1  0  0  0  0
  1 39  1  0  0  0  0
 40 41  1  0  0  0  0
 12 40  1  0  0  0  0
  5 42  1  0  0  0  0
M  END
>  <cdx:groupId>
22518

>  <cdx:fragmentId>
22439

$$$$
