50375.cdx
  Mrv1902 05222410202D          

 15 16  0  0  0  0            999 V2000
    5.5016   -6.8496    0.0000 O   0  0  0  0  0  0  0  0  0  0  0  0
    6.3266   -6.8424    0.0000 C   0  0  0  0  0  0  0  0  0  0  0  0
    6.6527   -9.6166    0.0000 C   0  0  0  0  0  0  0  0  0  0  0  0
    5.9419  -10.0353    0.0000 O   0  0  0  0  0  0  0  0  0  0  0  0
    8.7781   -7.5355    0.0000 O   0  0  0  0  0  0  0  0  0  0  0  0
    7.3636   -9.1979    0.0000 C   0  0  0  0  0  0  0  0  0  0  0  0
    8.0744   -8.7792    0.0000 C   0  0  0  0  0  0  0  0  0  0  0  0
    8.0672   -7.9542    0.0000 C   0  0  0  0  0  0  0  0  0  0  0  0
    7.3492   -7.5480    0.0000 C   0  0  0  0  0  0  0  0  0  0  0  0
    5.9347   -9.2104    0.0000 C   0  0  1  0  0  0  0  0  0  0  0  0
    6.6455   -8.7917    0.0000 C   0  0  2  0  0  0  0  0  0  0  0  0
    6.6384   -7.9667    0.0000 C   0  0  0  0  0  0  0  0  0  0  0  0
    5.9203   -7.5604    0.0000 C   0  0  1  0  0  0  0  0  0  0  0  0
    5.2095   -7.9791    0.0000 C   0  0  0  0  0  0  0  0  0  0  0  0
    5.2167   -8.8041    0.0000 C   0  0  0  0  0  0  0  0  0  0  0  0
 13  1  1  1  0  0  0
 13  2  1  6  0  0  0
 11  3  1  6  0  0  0
 10  4  1  6  0  0  0
  8  5  2  0  0  0  0
  6 11  1  0  0  0  0
  7  6  1  0  0  0  0
  8  7  1  0  0  0  0
  9  8  1  0  0  0  0
 12  9  2  0  0  0  0
 10 15  1  0  0  0  0
 11 10  1  0  0  0  0
 12 11  1  0  0  0  0
 13 12  1  0  0  0  0
 14 13  1  0  0  0  0
 15 14  1  0  0  0  0
M  END
>  <cdx:fragmentId>
5

$$$$
