50379.cdx
  Mrv1902 05222410262D          

 37 40  0  0  0  0            999 V2000
    5.2386   -7.7581    0.0000 C   0  0  0  0  0  0  0  0  0  0  0  0
    5.2386   -8.5831    0.0000 C   0  0  1  0  0  0  0  0  0  0  0  0
    5.9531   -8.9956    0.0000 C   0  0  0  0  0  0  0  0  0  0  0  0
    6.6676   -8.5831    0.0000 C   0  0  0  0  0  0  0  0  0  0  0  0
    6.6676   -7.7581    0.0000 C   0  0  2  0  0  0  0  0  0  0  0  0
    5.9531   -7.3456    0.0000 C   0  0  0  0  0  0  0  0  0  0  0  0
    7.3820   -8.9956    0.0000 C   0  0  0  0  0  0  0  0  0  0  0  0
    8.0965   -8.5831    0.0000 C   0  0  0  0  0  0  0  0  0  0  0  0
    8.0965   -7.7581    0.0000 C   0  0  2  0  0  0  0  0  0  0  0  0
    7.3820   -7.3456    0.0000 C   0  0  2  0  0  0  0  0  0  0  0  0
    8.8110   -7.3456    0.0000 C   0  0  1  0  0  0  0  0  0  0  0  0
    8.8110   -6.5206    0.0000 C   0  0  2  0  0  0  0  0  0  0  0  0
    8.0965   -6.1081    0.0000 C   0  0  0  0  0  0  0  0  0  0  0  0
    7.3820   -6.5206    0.0000 C   0  0  0  0  0  0  0  0  0  0  0  0
    9.5956   -7.6006    0.0000 C   0  0  0  0  0  0  0  0  0  0  0  0
   10.0805   -6.9331    0.0000 C   0  0  0  0  0  0  0  0  0  0  0  0
    9.5956   -6.2657    0.0000 C   0  0  2  0  0  0  0  0  0  0  0  0
    9.8091   -5.4688    0.0000 C   0  0  1  0  0  0  0  0  0  0  0  0
   10.6060   -5.2553    0.0000 C   0  0  0  0  0  0  0  0  0  0  0  0
    4.5242   -8.9956    0.0000 O   0  0  0  0  0  0  0  0  0  0  0  0
    6.6676   -6.9331    0.0000 C   0  0  0  0  0  0  0  0  0  0  0  0
    8.8110   -5.6956    0.0000 C   0  0  0  0  0  0  0  0  0  0  0  0
    9.2258   -4.8855    0.0000 C   0  0  0  0  0  0  0  0  0  0  0  0
    8.8708   -3.5024    0.0000 C   0  0  0  0  0  0  0  0  0  0  0  0
    9.4541   -4.0857    0.0000 C   0  0  0  0  0  0  0  0  0  0  0  0
   11.2614   -2.8618    0.0000 C   0  0  0  0  0  0  0  0  0  0  0  0
    9.8812   -2.4920    0.0000 C   0  0  0  0  0  0  0  0  0  0  0  0
   10.4646   -3.0753    0.0000 C   0  0  0  0  0  0  0  0  0  0  0  0
   10.2510   -3.8722    0.0000 C   0  0  0  0  0  0  0  0  0  0  0  0
   10.8196   -4.4584    0.0000 C   0  0  0  0  0  0  0  0  0  0  0  0
    7.3820   -8.1706    0.0000 H   0  0  0  0  0  0  0  0  0  0  0  0
    8.0965   -6.9331    0.0000 H   0  0  0  0  0  0  0  0  0  0  0  0
    8.8110   -8.1706    0.0000 H   0  0  0  0  0  0  0  0  0  0  0  0
   10.3925   -6.0522    0.0000 H   0  0  0  0  0  0  0  0  0  0  0  0
    3.8097   -8.5831    0.0000 C   0  0  0  0  0  0  0  0  0  0  0  0
    3.0952   -8.9956    0.0000 C   0  0  0  0  0  0  0  0  0  0  0  0
    3.8097   -7.7581    0.0000 O   0  0  0  0  0  0  0  0  0  0  0  0
  1  2  1  0  0  0  0
  2  3  1  0  0  0  0
  3  4  1  0  0  0  0
  4  5  1  0  0  0  0
  5  6  1  0  0  0  0
  6  1  1  0  0  0  0
  4  7  2  0  0  0  0
  7  8  1  0  0  0  0
  8  9  1  0  0  0  0
  9 10  1  0  0  0  0
 10  5  1  0  0  0  0
  9 11  1  0  0  0  0
 11 12  1  0  0  0  0
 12 13  1  0  0  0  0
 13 14  1  0  0  0  0
 14 10  1  0  0  0  0
 11 15  1  0  0  0  0
 15 16  1  0  0  0  0
 16 17  1  0  0  0  0
 17 12  1  0  0  0  0
 17 18  1  0  0  0  0
 18 19  1  0  0  0  0
  2 20  1  1  0  0  0
  5 21  1  1  0  0  0
 12 22  1  1  0  0  0
 18 23  1  6  0  0  0
 25 24  1  0  0  0  0
 19 30  2  0  0  0  0
 29 25  1  0  0  0  0
 28 26  1  0  0  0  0
 28 27  1  0  0  0  0
 29 28  1  0  0  0  0
 29 30  1  0  0  0  0
 10 31  1  6  0  0  0
  9 32  1  1  0  0  0
 11 33  1  6  0  0  0
 17 34  1  6  0  0  0
 20 35  1  0  0  0  0
 35 36  1  0  0  0  0
 35 37  2  0  0  0  0
M  END
>  <cdx:fragmentId>
107

$$$$
