50370.cdx
  Mrv1902 05222410182D          

 32 35  0  0  0  0            999 V2000
    2.8847  -11.5878    0.0000 O   0  0  0  0  0  0  0  0  0  0  0  0
    2.1711  -10.3498    0.0000 O   0  0  0  0  0  0  0  0  0  0  0  0
    3.6018   -7.8758    0.0000 O   0  0  0  0  0  0  0  0  0  0  0  0
    2.1723   -8.6998    0.0000 O   0  0  0  0  0  0  0  0  0  0  0  0
    3.5995  -11.1758    0.0000 C   0  0  0  0  0  0  0  0  0  0  0  0
    4.3148   -9.9388    0.0000 O   0  0  0  0  0  0  0  0  0  0  0  0
    4.3154   -9.1138    0.0000 C   0  0  2  0  0  0  0  0  0  0  0  0
    3.6012   -8.7008    0.0000 C   0  0  1  0  0  0  0  0  0  0  0  0
    2.8865   -9.1128    0.0000 C   0  0  2  0  0  0  0  0  0  0  0  0
    2.8859   -9.9378    0.0000 C   0  0  1  0  0  0  0  0  0  0  0  0
    3.6001  -10.3508    0.0000 C   0  0  1  0  0  0  0  0  0  0  0  0
   11.4751   -7.4651    0.0000 O   0  0  0  0  0  0  0  0  0  0  0  0
   10.0461   -6.6401    0.0000 O   0  0  0  0  0  0  0  0  0  0  0  0
    6.4738  -11.1776    0.0000 O   0  0  0  0  0  0  0  0  0  0  0  0
    5.0448   -8.7026    0.0000 O   0  0  0  0  0  0  0  0  0  0  0  0
   10.7606   -8.7026    0.0000 C   0  0  0  0  0  0  0  0  0  0  0  0
   10.7606   -7.8776    0.0000 C   0  0  0  0  0  0  0  0  0  0  0  0
   10.0461   -7.4651    0.0000 C   0  0  0  0  0  0  0  0  0  0  0  0
    9.3317   -7.8776    0.0000 C   0  0  0  0  0  0  0  0  0  0  0  0
    9.3317  -10.3526    0.0000 O   0  0  0  0  0  0  0  0  0  0  0  0
   10.0461   -9.1151    0.0000 C   0  0  0  0  0  0  0  0  0  0  0  0
    9.3317   -8.7026    0.0000 C   0  0  0  0  0  0  0  0  0  0  0  0
    7.9027  -10.3526    0.0000 C   0  0  0  0  0  0  0  0  0  0  0  0
    8.6172   -9.9401    0.0000 C   0  0  1  0  0  0  0  0  0  0  0  0
    8.6172   -9.1151    0.0000 C   0  0  1  0  0  0  0  0  0  0  0  0
    7.9027   -8.7026    0.0000 O   0  0  0  0  0  0  0  0  0  0  0  0
    6.4738  -10.3526    0.0000 C   0  0  0  0  0  0  0  0  0  0  0  0
    7.1882   -9.9401    0.0000 C   0  0  0  0  0  0  0  0  0  0  0  0
    7.1882   -9.1151    0.0000 C   0  0  0  0  0  0  0  0  0  0  0  0
    6.4738   -8.7026    0.0000 C   0  0  0  0  0  0  0  0  0  0  0  0
    5.7593   -9.1151    0.0000 C   0  0  0  0  0  0  0  0  0  0  0  0
    5.7593   -9.9401    0.0000 C   0  0  0  0  0  0  0  0  0  0  0  0
  7 15  1  6  0  0  0
  5  1  1  0  0  0  0
 10  2  1  1  0  0  0
  8  3  1  1  0  0  0
  9  4  1  6  0  0  0
 11  5  1  6  0  0  0
  6 11  1  0  0  0  0
  7  6  1  0  0  0  0
  8  7  1  0  0  0  0
  9  8  1  0  0  0  0
 10  9  1  0  0  0  0
 11 10  1  0  0  0  0
 17 12  1  0  0  0  0
 18 13  1  0  0  0  0
 27 14  1  0  0  0  0
 31 15  1  0  0  0  0
 16 21  2  0  0  0  0
 17 16  1  0  0  0  0
 18 17  2  0  0  0  0
 19 18  1  0  0  0  0
 22 19  2  0  0  0  0
 24 20  1  1  0  0  0
 22 21  1  0  0  0  0
 25 22  1  1  0  0  0
 23 28  1  0  0  0  0
 24 23  1  0  0  0  0
 25 24  1  0  0  0  0
 26 25  1  0  0  0  0
 29 26  1  0  0  0  0
 27 32  1  0  0  0  0
 28 27  2  0  0  0  0
 29 28  1  0  0  0  0
 30 29  2  0  0  0  0
 31 30  1  0  0  0  0
 32 31  2  0  0  0  0
M  END
>  <cdx:fragmentId>
5

$$$$
