50376.cdx
  Mrv1902 05222410192D          

 24 26  0  0  0  0            999 V2000
    7.5156   -8.8364    0.0000 C   0  0  0  0  0  0  0  0  0  0  0  0
    8.3123   -8.6223    0.0000 C   0  0  2  0  0  0  0  0  0  0  0  0
    9.1090   -8.8364    0.0000 C   0  0  0  0  0  0  0  0  0  0  0  0
    9.5227   -8.1227    0.0000 C   0  0  0  0  0  0  0  0  0  0  0  0
    7.9292   -8.1227    0.0000 C   0  0  0  0  0  0  0  0  0  0  0  0
    8.7259   -7.9086    0.0000 C   0  0  2  0  0  0  0  0  0  0  0  0
    8.3137   -7.1949    0.0000 C   0  0  0  0  0  0  0  0  0  0  0  0
    7.5993   -6.7824    0.0000 C   0  0  0  0  0  0  0  0  0  0  0  0
    8.8971   -6.6115    0.0000 C   0  0  0  0  0  0  0  0  0  0  0  0
    9.4404   -7.4961    0.0000 C   0  0  0  0  0  0  0  0  0  0  0  0
   10.2853   -7.8079    0.0000 O   0  0  0  0  0  0  0  0  0  0  0  0
    6.7187   -8.6229    0.0000 O   0  0  0  0  0  0  0  0  0  0  0  0
    6.1353   -9.2063    0.0000 C   0  0  2  0  0  0  0  0  0  0  0  0
    5.3384   -8.9928    0.0000 O   0  0  0  0  0  0  0  0  0  0  0  0
    4.7551   -9.5761    0.0000 C   0  0  1  0  0  0  0  0  0  0  0  0
    4.9686  -10.3730    0.0000 C   0  0  2  0  0  0  0  0  0  0  0  0
    5.7655  -10.5865    0.0000 C   0  0  1  0  0  0  0  0  0  0  0  0
    6.3488  -10.0032    0.0000 C   0  0  1  0  0  0  0  0  0  0  0  0
    3.9582   -9.3626    0.0000 C   0  0  0  0  0  0  0  0  0  0  0  0
    5.9790  -11.3834    0.0000 O   0  0  0  0  0  0  0  0  0  0  0  0
    4.3852  -10.9564    0.0000 O   0  0  0  0  0  0  0  0  0  0  0  0
    7.1457  -10.2167    0.0000 O   0  0  0  0  0  0  0  0  0  0  0  0
    3.3748   -9.9460    0.0000 O   0  0  0  0  0  0  0  0  0  0  0  0
    7.8998   -9.3368    0.0000 H   0  0  0  0  0  0  0  0  0  0  0  0
  1  2  1  0  0  0  0
  2  3  1  0  0  0  0
  3  4  1  0  0  0  0
  1  5  1  0  0  0  0
  5  6  1  0  0  0  0
  4  6  1  0  0  0  0
  6  7  1  0  0  0  0
  2  7  1  0  0  0  0
  7  8  1  0  0  0  0
  7  9  1  0  0  0  0
  6 10  1  1  0  0  0
  4 11  2  0  0  0  0
  1 12  1  0  0  0  0
 13 12  1  1  0  0  0
 13 14  1  0  0  0  0
 14 15  1  0  0  0  0
 15 16  1  0  0  0  0
 16 17  1  0  0  0  0
 17 18  1  0  0  0  0
 18 13  1  0  0  0  0
 15 19  1  1  0  0  0
 17 20  1  1  0  0  0
 16 21  1  6  0  0  0
 18 22  1  6  0  0  0
 19 23  1  0  0  0  0
  2 24  1  6  0  0  0
M  END
>  <cdx:fragmentId>
914

$$$$
