50377.cdx
  Mrv1902 05222410192D          

 15 15  0  0  0  0            999 V2000
    5.6699   -9.8439    0.0000 C   0  0  0  0  0  0  0  0  0  0  0  0
    5.6699  -10.6689    0.0000 C   0  0  0  0  0  0  0  0  0  0  0  0
    6.3844  -11.0814    0.0000 C   0  0  0  0  0  0  0  0  0  0  0  0
    7.0989  -10.6689    0.0000 C   0  0  0  0  0  0  0  0  0  0  0  0
    7.0989   -9.8439    0.0000 C   0  0  0  0  0  0  0  0  0  0  0  0
    6.3844   -9.4314    0.0000 C   0  0  0  0  0  0  0  0  0  0  0  0
    6.3844  -11.9064    0.0000 O   0  0  0  0  0  0  0  0  0  0  0  0
    4.9555  -11.0814    0.0000 O   0  0  0  0  0  0  0  0  0  0  0  0
    4.2410  -10.6689    0.0000 C   0  0  0  0  0  0  0  0  0  0  0  0
    6.3844   -8.6064    0.0000 C   0  0  1  0  0  0  0  0  0  0  0  0
    7.0989   -8.1939    0.0000 C   0  0  1  0  0  0  0  0  0  0  0  0
    7.0989   -7.3689    0.0000 C   0  0  0  0  0  0  0  0  0  0  0  0
    7.8133   -6.9564    0.0000 O   0  0  0  0  0  0  0  0  0  0  0  0
    5.6699   -8.1939    0.0000 O   0  0  0  0  0  0  0  0  0  0  0  0
    7.8133   -8.6064    0.0000 O   0  0  0  0  0  0  0  0  0  0  0  0
  1  2  2  0  0  0  0
  2  3  1  0  0  0  0
  3  4  2  0  0  0  0
  4  5  1  0  0  0  0
  5  6  2  0  0  0  0
  6  1  1  0  0  0  0
  3  7  1  0  0  0  0
  2  8  1  0  0  0  0
  8  9  1  0  0  0  0
  6 10  1  0  0  0  0
 10 11  1  0  0  0  0
 11 12  1  0  0  0  0
 12 13  1  0  0  0  0
 10 14  1  6  0  0  0
 11 15  1  1  0  0  0
M  END
>  <cdx:fragmentId>
5

$$$$
