50388.cdx
  Mrv1902 05222410192D          

 12 13  0  0  0  0            999 V2000
    6.4881   -7.1214    0.0000 C   0  0  1  0  0  0  0  0  0  0  0  0
    6.4881   -7.9464    0.0000 C   0  0  0  0  0  0  0  0  0  0  0  0
    7.2025   -8.3589    0.0000 C   0  0  0  0  0  0  0  0  0  0  0  0
    7.9170   -7.9464    0.0000 C   0  0  2  0  0  0  0  0  0  0  0  0
    7.9170   -7.1214    0.0000 C   0  0  2  0  0  0  0  0  0  0  0  0
    7.2025   -6.7089    0.0000 C   0  0  0  0  0  0  0  0  0  0  0  0
    8.6315   -7.5339    0.0000 C   0  0  0  0  0  0  0  0  0  0  0  0
    5.7736   -6.7089    0.0000 C   0  0  0  0  0  0  0  0  0  0  0  0
    9.3459   -7.1214    0.0000 C   0  0  0  0  0  0  0  0  0  0  0  0
    9.3459   -7.9464    0.0000 C   0  0  0  0  0  0  0  0  0  0  0  0
    8.1305   -6.3245    0.0000 H   0  0  0  0  0  0  0  0  0  0  0  0
    8.1305   -8.7433    0.0000 H   0  0  0  0  0  0  0  0  0  0  0  0
  1  2  1  0  0  0  0
  2  3  2  0  0  0  0
  3  4  1  0  0  0  0
  4  5  1  0  0  0  0
  5  6  1  0  0  0  0
  6  1  1  0  0  0  0
  4  7  1  0  0  0  0
  7  5  1  0  0  0  0
  1  8  1  6  0  0  0
  7  9  1  0  0  0  0
  7 10  1  0  0  0  0
  5 11  1  1  0  0  0
  4 12  1  1  0  0  0
M  END
>  <cdx:fragmentId>
5

$$$$
