50383.cdx
  Mrv1902 05222410282D          

 17 18  0  0  0  0            999 V2000
    6.9556  -10.7376    0.0000 C   0  0  0  0  0  0  0  0  0  0  0  0
    6.9556  -11.5626    0.0000 C   0  0  0  0  0  0  0  0  0  0  0  0
    7.6700  -11.9751    0.0000 C   0  0  0  0  0  0  0  0  0  0  0  0
    8.3845  -11.5626    0.0000 C   0  0  0  0  0  0  0  0  0  0  0  0
    8.3845  -10.7376    0.0000 C   0  0  0  0  0  0  0  0  0  0  0  0
    7.6700  -10.3251    0.0000 C   0  0  0  0  0  0  0  0  0  0  0  0
    6.2411  -10.3251    0.0000 O   0  0  0  0  0  0  0  0  0  0  0  0
    7.6700   -9.5001    0.0000 C   0  0  0  0  0  0  0  0  0  0  0  0
    8.3845   -9.0876    0.0000 C   0  0  0  0  0  0  0  0  0  0  0  0
    8.3845   -8.2626    0.0000 C   0  0  0  0  0  0  0  0  0  0  0  0
    9.0990   -7.8501    0.0000 C   0  0  0  0  0  0  0  0  0  0  0  0
    9.0990   -7.0251    0.0000 C   0  0  0  0  0  0  0  0  0  0  0  0
    8.3845   -6.6126    0.0000 C   0  0  0  0  0  0  0  0  0  0  0  0
    7.6700   -7.0251    0.0000 C   0  0  0  0  0  0  0  0  0  0  0  0
    7.6700   -7.8501    0.0000 C   0  0  0  0  0  0  0  0  0  0  0  0
    8.3845   -5.7876    0.0000 C   0  0  0  0  0  0  0  0  0  0  0  0
    8.3845   -4.9626    0.0000 N   0  0  0  0  0  0  0  0  0  0  0  0
  1  2  2  0  0  0  0
  2  3  1  0  0  0  0
  3  4  2  0  0  0  0
  4  5  1  0  0  0  0
  5  6  2  0  0  0  0
  6  1  1  0  0  0  0
  1  7  1  0  0  0  0
  6  8  1  0  0  0  0
  8  9  2  0  0  0  0
  9 10  1  0  0  0  0
 10 11  2  0  0  0  0
 11 12  1  0  0  0  0
 12 13  2  0  0  0  0
 13 14  1  0  0  0  0
 14 15  2  0  0  0  0
 15 10  1  0  0  0  0
 13 16  1  0  0  0  0
 16 17  3  0  0  0  0
M  END
>  <cdx:fragmentId>
5

$$$$
