50381.cdx
  Mrv1902 05222410272D          

 36 39  0  0  0  0            999 V2000
    3.9168   -7.8845    0.0000 C   0  0  0  0  0  0  0  0  0  0  0  0
    3.9168   -8.7095    0.0000 C   0  0  0  0  0  0  0  0  0  0  0  0
    4.6313   -9.1220    0.0000 C   0  0  0  0  0  0  0  0  0  0  0  0
    5.3457   -8.7095    0.0000 C   0  0  1  0  0  0  0  0  0  0  0  0
    5.3457   -7.8845    0.0000 C   0  0  2  0  0  0  0  0  0  0  0  0
    4.6313   -7.4720    0.0000 C   0  0  0  0  0  0  0  0  0  0  0  0
    6.0602   -9.1220    0.0000 C   0  0  0  0  0  0  0  0  0  0  0  0
    6.7747   -8.7095    0.0000 C   0  0  0  0  0  0  0  0  0  0  0  0
    6.7747   -7.8845    0.0000 C   0  0  0  0  0  0  0  0  0  0  0  0
    6.0602   -7.4720    0.0000 C   0  0  0  0  0  0  0  0  0  0  0  0
    7.4892   -7.4720    0.0000 C   0  0  1  0  0  0  0  0  0  0  0  0
    7.4892   -6.6470    0.0000 C   0  0  2  0  0  0  0  0  0  0  0  0
    6.7747   -6.2345    0.0000 C   0  0  0  0  0  0  0  0  0  0  0  0
    6.0602   -6.6470    0.0000 C   0  0  0  0  0  0  0  0  0  0  0  0
    8.2738   -7.7270    0.0000 C   0  0  0  0  0  0  0  0  0  0  0  0
    8.7587   -7.0595    0.0000 C   0  0  0  0  0  0  0  0  0  0  0  0
    8.2738   -6.3921    0.0000 C   0  0  2  0  0  0  0  0  0  0  0  0
    3.2023   -9.1220    0.0000 O   0  0  0  0  0  0  0  0  0  0  0  0
    5.3457   -7.0595    0.0000 C   0  0  0  0  0  0  0  0  0  0  0  0
    7.4892   -5.8220    0.0000 C   0  0  0  0  0  0  0  0  0  0  0  0
    8.5287   -5.6075    0.0000 C   0  0  2  0  0  0  0  0  0  0  0  0
    7.9767   -4.9944    0.0000 C   0  0  0  0  0  0  0  0  0  0  0  0
    9.3357   -5.4359    0.0000 C   0  0  0  0  0  0  0  0  0  0  0  0
    4.2188   -9.8365    0.0000 C   0  0  0  0  0  0  0  0  0  0  0  0
    5.0438   -9.8365    0.0000 C   0  0  0  0  0  0  0  0  0  0  0  0
    7.4892   -8.2970    0.0000 C   0  0  0  0  0  0  0  0  0  0  0  0
    7.4892   -9.1220    0.0000 O   0  0  0  0  0  0  0  0  0  0  0  0
    9.5492   -4.6390    0.0000 C   0  0  0  0  0  0  0  0  0  0  0  0
   10.3461   -4.4255    0.0000 C   0  0  2  0  0  0  0  0  0  0  0  0
   10.9295   -5.0089    0.0000 O   0  0  0  0  0  0  0  0  0  0  0  0
   10.5596   -3.6286    0.0000 C   0  0  0  0  0  0  0  0  0  0  0  0
   10.7732   -2.8317    0.0000 O   0  0  0  0  0  0  0  0  0  0  0  0
    9.7627   -3.4151    0.0000 C   0  0  0  0  0  0  0  0  0  0  0  0
   11.3565   -3.8422    0.0000 C   0  0  0  0  0  0  0  0  0  0  0  0
    5.3457   -9.5345    0.0000 H   0  0  0  0  0  0  0  0  0  0  0  0
    9.0584   -6.1371    0.0000 H   0  0  0  0  0  0  0  0  0  0  0  0
  1  2  1  0  0  0  0
  2  3  1  0  0  0  0
  3  4  1  0  0  0  0
  4  5  1  0  0  0  0
  5  6  1  0  0  0  0
  6  1  1  0  0  0  0
  4  7  1  0  0  0  0
  7  8  1  0  0  0  0
  8  9  1  0  0  0  0
  9 10  2  0  0  0  0
 10  5  1  0  0  0  0
  9 11  1  0  0  0  0
 11 12  1  0  0  0  0
 12 13  1  0  0  0  0
 13 14  1  0  0  0  0
 14 10  1  0  0  0  0
 11 15  1  0  0  0  0
 15 16  1  0  0  0  0
 16 17  1  0  0  0  0
 17 12  1  0  0  0  0
  2 18  2  0  0  0  0
  5 19  1  1  0  0  0
 12 20  1  1  0  0  0
 17 21  1  0  0  0  0
 21 22  1  6  0  0  0
 21 23  1  0  0  0  0
  3 24  1  0  0  0  0
  3 25  1  0  0  0  0
 11 26  1  6  0  0  0
  8 27  2  0  0  0  0
 23 28  1  0  0  0  0
 28 29  1  0  0  0  0
 29 30  1  1  0  0  0
 29 31  1  0  0  0  0
 31 32  1  0  0  0  0
 31 33  1  0  0  0  0
 31 34  1  0  0  0  0
  4 35  1  6  0  0  0
 17 36  1  6  0  0  0
M  END
>  <cdx:fragmentId>
5

$$$$
