50384.cdx
  Mrv1902 05222410272D          

 17 17  0  0  0  0            999 V2000
    6.2543   -9.4176    0.0000 C   0  0  0  0  0  0  0  0  0  0  0  0
    6.2543  -10.2426    0.0000 C   0  0  0  0  0  0  0  0  0  0  0  0
    6.9688  -10.6551    0.0000 C   0  0  0  0  0  0  0  0  0  0  0  0
    7.6832  -10.2426    0.0000 C   0  0  0  0  0  0  0  0  0  0  0  0
    7.6832   -9.4176    0.0000 C   0  0  0  0  0  0  0  0  0  0  0  0
    6.9688   -9.0051    0.0000 C   0  0  0  0  0  0  0  0  0  0  0  0
    6.9688  -11.4801    0.0000 O   0  0  0  0  0  0  0  0  0  0  0  0
    6.2543  -11.8926    0.0000 C   0  0  0  0  0  0  0  0  0  0  0  0
    6.9688   -8.1801    0.0000 C   0  0  0  0  0  0  0  0  0  0  0  0
    7.6832   -7.7676    0.0000 C   0  0  0  0  0  0  0  0  0  0  0  0
    7.6832   -6.9426    0.0000 C   0  0  0  0  0  0  0  0  0  0  0  0
    8.3977   -6.5301    0.0000 O   0  0  0  0  0  0  0  0  0  0  0  0
    6.9688   -6.5301    0.0000 O   0  0  0  0  0  0  0  0  0  0  0  0
    8.3977   -5.7051    0.0000 C   0  0  0  0  0  0  0  0  0  0  0  0
    9.1122   -5.2926    0.0000 C   0  0  0  0  0  0  0  0  0  0  0  0
    9.1122   -4.4676    0.0000 C   0  0  0  0  0  0  0  0  0  0  0  0
    9.8267   -4.0551    0.0000 C   0  0  0  0  0  0  0  0  0  0  0  0
  1  2  2  0  0  0  0
  2  3  1  0  0  0  0
  3  4  2  0  0  0  0
  4  5  1  0  0  0  0
  5  6  2  0  0  0  0
  6  1  1  0  0  0  0
  3  7  1  0  0  0  0
  7  8  1  0  0  0  0
  6  9  1  0  0  0  0
  9 10  2  0  0  0  0
 10 11  1  0  0  0  0
 11 12  1  0  0  0  0
 11 13  2  0  0  0  0
 12 14  1  0  0  0  0
 14 15  1  0  0  0  0
 15 16  1  0  0  0  0
 16 17  1  0  0  0  0
M  END
>  <cdx:fragmentId>
5

$$$$
