50380.cdx
  Mrv1902 05222410272D          

 32 36  0  0  0  0            999 V2000
    3.3118  -12.8070    0.0000 C   0  0  0  0  0  0  0  0  0  0  0  0
    3.3118  -13.6320    0.0000 C   0  0  1  0  0  0  0  0  0  0  0  0
    4.0263  -14.0445    0.0000 C   0  0  0  0  0  0  0  0  0  0  0  0
    4.7407  -13.6320    0.0000 C   0  0  1  0  0  0  0  0  0  0  0  0
    4.7407  -12.8070    0.0000 C   0  0  2  0  0  0  0  0  0  0  0  0
    4.0263  -12.3945    0.0000 C   0  0  0  0  0  0  0  0  0  0  0  0
    5.4552  -14.0445    0.0000 C   0  0  0  0  0  0  0  0  0  0  0  0
    6.1697  -13.6320    0.0000 C   0  0  0  0  0  0  0  0  0  0  0  0
    6.1697  -12.8070    0.0000 C   0  0  2  0  0  0  0  0  0  0  0  0
    5.4552  -12.3945    0.0000 C   0  0  1  0  0  0  0  0  0  0  0  0
    6.8842  -12.3945    0.0000 C   0  0  1  0  0  0  0  0  0  0  0  0
    6.8842  -11.5695    0.0000 C   0  0  2  0  0  0  0  0  0  0  0  0
    6.1697  -11.1570    0.0000 C   0  0  0  0  0  0  0  0  0  0  0  0
    5.4552  -11.5695    0.0000 C   0  0  0  0  0  0  0  0  0  0  0  0
    7.6688  -12.6495    0.0000 C   0  0  0  0  0  0  0  0  0  0  0  0
    8.1537  -11.9820    0.0000 C   0  0  0  0  0  0  0  0  0  0  0  0
    7.6688  -11.3146    0.0000 C   0  0  2  0  0  0  0  0  0  0  0  0
    2.5973  -14.0445    0.0000 O   0  0  0  0  0  0  0  0  0  0  0  0
    4.7407  -11.9820    0.0000 C   0  0  0  0  0  0  0  0  0  0  0  0
    6.9704  -10.7490    0.0000 C   0  0  0  0  0  0  0  0  0  0  0  0
    7.9237  -10.5300    0.0000 C   0  0  2  0  0  0  0  0  0  0  0  0
    7.3717   -9.9169    0.0000 C   0  0  0  0  0  0  0  0  0  0  0  0
    8.7307  -10.3584    0.0000 C   0  0  0  0  0  0  0  0  0  0  0  0
    9.3141  -10.9418    0.0000 C   0  0  0  0  0  0  0  0  0  0  0  0
   10.1109  -10.7283    0.0000 C   0  0  2  0  0  0  0  0  0  0  0  0
   10.6943  -11.3116    0.0000 C   0  0  0  0  0  0  0  0  0  0  0  0
   11.4912  -11.0981    0.0000 C   0  0  0  0  0  0  0  0  0  0  0  0
   10.4808  -12.1085    0.0000 C   0  0  0  0  0  0  0  0  0  0  0  0
    3.4429  -14.6279    0.0000 C   0  0  0  0  0  0  0  0  0  0  0  0
    4.6096  -14.6279    0.0000 C   0  0  0  0  0  0  0  0  0  0  0  0
    6.9704  -13.2150    0.0000 C   0  0  0  0  0  0  0  0  0  0  0  0
   10.3245   -9.9314    0.0000 O   0  0  0  0  0  0  0  0  0  0  0  0
  1  2  1  0  0  0  0
  2  3  1  0  0  0  0
  4  3  1  1  0  0  0
  4  5  1  0  0  0  0
  5  6  1  0  0  0  0
  6  1  1  0  0  0  0
  4  7  1  0  0  0  0
  7  8  1  0  0  0  0
  9  8  1  6  0  0  0
  9 10  1  0  0  0  0
 10  5  1  0  0  0  0
  9 11  1  0  0  0  0
 11 12  1  0  0  0  0
 12 13  1  0  0  0  0
 13 14  1  0  0  0  0
 14 10  1  0  0  0  0
 11 15  1  0  0  0  0
 15 16  1  0  0  0  0
 17 16  1  1  0  0  0
 17 12  1  0  0  0  0
  2 18  1  1  0  0  0
  5 19  1  1  0  0  0
 10 19  1  1  0  0  0
 12 20  1  1  0  0  0
 17 21  1  0  0  0  0
 21 22  1  6  0  0  0
 21 23  1  0  0  0  0
 23 24  1  0  0  0  0
 24 25  1  0  0  0  0
 25 26  1  0  0  0  0
 26 27  2  0  0  0  0
 26 28  1  0  0  0  0
  3 29  1  0  0  0  0
  3 30  1  0  0  0  0
 11 31  1  6  0  0  0
 25 32  1  1  0  0  0
M  END
>  <cdx:fragmentId>
5

$$$$
