50386.cdx
  Mrv1902 05222410262D          

 20 19  0  0  0  0            999 V2000
    1.8400   -9.2251    0.0000 C   0  0  0  0  0  0  0  0  0  0  0  0
    2.5545   -8.8126    0.0000 C   0  0  0  0  0  0  0  0  0  0  0  0
    3.2690   -9.2251    0.0000 C   0  0  0  0  0  0  0  0  0  0  0  0
    3.9834   -8.8126    0.0000 C   0  0  0  0  0  0  0  0  0  0  0  0
    4.6979   -9.2251    0.0000 C   0  0  0  0  0  0  0  0  0  0  0  0
    5.4124   -8.8126    0.0000 C   0  0  0  0  0  0  0  0  0  0  0  0
    6.1269   -9.2251    0.0000 C   0  0  0  0  0  0  0  0  0  0  0  0
    6.8413   -8.8126    0.0000 C   0  0  0  0  0  0  0  0  0  0  0  0
    7.5558   -9.2251    0.0000 C   0  0  0  0  0  0  0  0  0  0  0  0
    8.2703   -8.8126    0.0000 C   0  0  0  0  0  0  0  0  0  0  0  0
    8.9847   -9.2251    0.0000 C   0  0  0  0  0  0  0  0  0  0  0  0
    9.6992   -8.8126    0.0000 C   0  0  0  0  0  0  0  0  0  0  0  0
   10.4137   -9.2251    0.0000 C   0  0  0  0  0  0  0  0  0  0  0  0
   11.1281   -8.8126    0.0000 C   0  0  0  0  0  0  0  0  0  0  0  0
   11.8426   -9.2251    0.0000 C   0  0  0  0  0  0  0  0  0  0  0  0
   12.5571   -8.8126    0.0000 C   0  0  0  0  0  0  0  0  0  0  0  0
    3.2690  -10.0501    0.0000 C   0  0  0  0  0  0  0  0  0  0  0  0
    6.1269  -10.0501    0.0000 C   0  0  0  0  0  0  0  0  0  0  0  0
    8.9847  -10.0501    0.0000 C   0  0  0  0  0  0  0  0  0  0  0  0
   11.8426  -10.0501    0.0000 C   0  0  0  0  0  0  0  0  0  0  0  0
  1  2  2  0  0  0  0
  2  3  1  0  0  0  0
  3  4  1  0  0  0  0
  4  5  1  0  0  0  0
  5  6  1  0  0  0  0
  6  7  2  0  0  0  0
  7  8  1  0  0  0  0
  8  9  1  0  0  0  0
  9 10  1  0  0  0  0
 10 11  2  0  0  0  0
 11 12  1  0  0  0  0
 12 13  1  0  0  0  0
 13 14  1  0  0  0  0
 14 15  2  0  0  0  0
 15 16  1  0  0  0  0
  3 17  2  0  0  0  0
  7 18  1  0  0  0  0
 11 19  1  0  0  0  0
 15 20  1  0  0  0  0
M  END
>  <cdx:fragmentId>
3

$$$$
