50387.cdx
  Mrv1902 05222410262D          

 15 16  0  0  0  0            999 V2000
    4.8514   -8.8256    0.0000 C   0  0  0  0  0  0  0  0  0  0  0  0
    4.4381   -9.5396    0.0000 C   0  0  0  0  0  0  0  0  0  0  0  0
    4.8499  -10.2545    0.0000 C   0  0  0  0  0  0  0  0  0  0  0  0
    5.6749  -10.2554    0.0000 C   0  0  1  0  0  0  0  0  0  0  0  0
    6.0881   -9.5414    0.0000 C   0  0  0  0  0  0  0  0  0  0  0  0
    5.6764   -8.8264    0.0000 C   0  0  0  0  0  0  0  0  0  0  0  0
    6.9131   -9.5422    0.0000 C   0  0  0  0  0  0  0  0  0  0  0  0
    7.3264   -8.8282    0.0000 C   0  0  0  0  0  0  0  0  0  0  0  0
    6.9146   -8.1133    0.0000 C   0  0  1  0  0  0  0  0  0  0  0  0
    6.0896   -8.1124    0.0000 C   0  0  0  0  0  0  0  0  0  0  0  0
    4.4396   -8.1107    0.0000 C   0  0  0  0  0  0  0  0  0  0  0  0
    3.6146   -8.1098    0.0000 C   0  0  0  0  0  0  0  0  0  0  0  0
    4.8529   -7.3966    0.0000 C   0  0  0  0  0  0  0  0  0  0  0  0
    6.0866  -10.9703    0.0000 C   0  0  0  0  0  0  0  0  0  0  0  0
    7.3279   -7.3992    0.0000 C   0  0  0  0  0  0  0  0  0  0  0  0
  1  2  2  0  0  0  0
  2  3  1  0  0  0  0
  3  4  1  0  0  0  0
  4  5  1  0  0  0  0
  5  6  1  0  0  0  0
  6  1  1  0  0  0  0
  5  7  1  0  0  0  0
  7  8  1  0  0  0  0
  8  9  1  0  0  0  0
  9 10  1  0  0  0  0
 10  6  2  0  0  0  0
  1 11  1  0  0  0  0
 11 12  1  0  0  0  0
 11 13  1  0  0  0  0
  4 14  1  1  0  0  0
  9 15  1  1  0  0  0
M  END
>  <cdx:fragmentId>
5

$$$$
