50392.cdx
  Mrv1902 05222410262D          

 17 19  0  0  0  0            999 V2000
    5.0031   -8.2626    0.0000 C   0  0  0  0  0  0  0  0  0  0  0  0
    5.0031   -9.0876    0.0000 C   0  0  0  0  0  0  0  0  0  0  0  0
    5.7175   -9.5001    0.0000 C   0  0  0  0  0  0  0  0  0  0  0  0
    6.4320   -9.0876    0.0000 C   0  0  0  0  0  0  0  0  0  0  0  0
    6.4320   -8.2626    0.0000 C   0  0  0  0  0  0  0  0  0  0  0  0
    5.7175   -7.8501    0.0000 C   0  0  0  0  0  0  0  0  0  0  0  0
    7.1465   -9.5001    0.0000 C   0  0  0  0  0  0  0  0  0  0  0  0
    7.8609   -9.0876    0.0000 C   0  0  0  0  0  0  0  0  0  0  0  0
    7.8609   -8.2626    0.0000 C   0  0  0  0  0  0  0  0  0  0  0  0
    7.1465   -7.8501    0.0000 C   0  0  0  0  0  0  0  0  0  0  0  0
    8.5754   -7.8501    0.0000 C   0  0  0  0  0  0  0  0  0  0  0  0
    8.5754   -7.0251    0.0000 C   0  0  0  0  0  0  0  0  0  0  0  0
    7.8609   -6.6126    0.0000 C   0  0  0  0  0  0  0  0  0  0  0  0
    7.1465   -7.0251    0.0000 C   0  0  0  0  0  0  0  0  0  0  0  0
    5.7175  -10.3251    0.0000 C   0  0  0  0  0  0  0  0  0  0  0  0
    5.0031  -10.7376    0.0000 O   0  0  0  0  0  0  0  0  0  0  0  0
    6.4320  -10.7376    0.0000 O   0  0  0  0  0  0  0  0  0  0  0  0
  1  2  1  0  0  0  0
  2  3  2  0  0  0  0
  3  4  1  0  0  0  0
  4  5  2  0  0  0  0
  5  6  1  0  0  0  0
  6  1  2  0  0  0  0
  4  7  1  0  0  0  0
  7  8  2  0  0  0  0
  8  9  1  0  0  0  0
  9 10  1  0  0  0  0
 10  5  1  0  0  0  0
  9 11  2  0  0  0  0
 11 12  1  0  0  0  0
 12 13  2  0  0  0  0
 13 14  1  0  0  0  0
 14 10  2  0  0  0  0
  3 15  1  0  0  0  0
 15 16  1  0  0  0  0
 15 17  2  0  0  0  0
M  END
>  <cdx:fragmentId>
5

$$$$
