50395.cdx
  Mrv1902 05222410272D          

 11 11  0  0  0  0            999 V2000
    7.9513   -8.0537    0.0000 C   0  0  0  0  0  0  0  0  0  0  0  0
    7.2361   -7.6424    0.0000 C   0  0  0  0  0  0  0  0  0  0  0  0
    6.5224   -8.0561    0.0000 C   0  0  0  0  0  0  0  0  0  0  0  0
    6.5238   -8.8811    0.0000 C   0  0  0  0  0  0  0  0  0  0  0  0
    7.2390   -9.2924    0.0000 C   0  0  0  0  0  0  0  0  0  0  0  0
    7.9527   -8.8787    0.0000 C   0  0  0  0  0  0  0  0  0  0  0  0
    7.2404  -10.1174    0.0000 C   0  0  0  0  0  0  0  0  0  0  0  0
    5.8072   -7.6448    0.0000 C   0  0  0  0  0  0  0  0  0  0  0  0
    7.2347   -6.8174    0.0000 C   0  0  0  0  0  0  0  0  0  0  0  0
    7.9485   -6.4037    0.0000 C   0  0  0  0  0  0  0  0  0  0  0  0
    6.5196   -6.4061    0.0000 O   0  0  0  0  0  0  0  0  0  0  0  0
  1  2  1  0  0  0  0
  2  3  1  0  0  0  0
  3  4  1  0  0  0  0
  4  5  2  0  0  0  0
  5  6  1  0  0  0  0
  6  1  1  0  0  0  0
  5  7  1  0  0  0  0
  3  8  1  0  0  0  0
  2  9  1  0  0  0  0
  9 10  1  0  0  0  0
  9 11  2  0  0  0  0
M  END
>  <cdx:fragmentId>
5

$$$$
