50398.cdx
  Mrv1902 05222410192D          

 12 14  0  0  0  0            999 V2000
    5.0993   -7.2176    0.0000 C   0  0  0  0  0  0  0  0  0  0  0  0
    5.0993   -8.0426    0.0000 C   0  0  0  0  0  0  0  0  0  0  0  0
    5.8138   -8.4551    0.0000 C   0  0  0  0  0  0  0  0  0  0  0  0
    6.5282   -8.0426    0.0000 C   0  0  0  0  0  0  0  0  0  0  0  0
    6.5282   -7.2176    0.0000 C   0  0  0  0  0  0  0  0  0  0  0  0
    5.8138   -6.8051    0.0000 C   0  0  0  0  0  0  0  0  0  0  0  0
    7.2427   -8.4551    0.0000 C   0  0  0  0  0  0  0  0  0  0  0  0
    7.9572   -8.0426    0.0000 C   0  0  0  0  0  0  0  0  0  0  0  0
    7.9572   -7.2176    0.0000 C   0  0  0  0  0  0  0  0  0  0  0  0
    7.2427   -6.8051    0.0000 C   0  0  0  0  0  0  0  0  0  0  0  0
    5.8138   -9.2801    0.0000 C   0  0  0  0  0  0  0  0  0  0  0  0
    7.2427   -9.2801    0.0000 C   0  0  0  0  0  0  0  0  0  0  0  0
  1  2  2  0  0  0  0
  2  3  1  0  0  0  0
  3  4  2  0  0  0  0
  4  5  1  0  0  0  0
  5  6  2  0  0  0  0
  6  1  1  0  0  0  0
  4  7  1  0  0  0  0
  7  8  2  0  0  0  0
  8  9  1  0  0  0  0
  9 10  2  0  0  0  0
 10  5  1  0  0  0  0
  3 11  1  0  0  0  0
  7 12  1  0  0  0  0
 11 12  1  0  0  0  0
M  END
>  <cdx:fragmentId>
5

$$$$
