50391.cdx
  Mrv1902 05222410272D          

 18 20  0  0  0  0            999 V2000
    5.9453  -10.7313    0.0000 C   0  0  0  0  0  0  0  0  0  0  0  0
    6.7394  -10.5075    0.0000 C   0  0  1  0  0  0  0  0  0  0  0  0
    7.5386  -10.7118    0.0000 C   0  0  0  0  0  0  0  0  0  0  0  0
    7.9435   -9.9931    0.0000 C   0  0  0  0  0  0  0  0  0  0  0  0
    6.3502  -10.0126    0.0000 C   0  0  2  0  0  0  0  0  0  0  0  0
    7.1442   -9.7888    0.0000 C   0  0  1  0  0  0  0  0  0  0  0  0
    6.7213   -8.9152    0.0000 C   0  0  1  0  0  0  0  0  0  0  0  0
    5.2359  -11.1525    0.0000 C   0  0  0  0  0  0  0  0  0  0  0  0
    5.5508   -9.8089    0.0000 C   0  0  0  0  0  0  0  0  0  0  0  0
    5.5407   -8.9839    0.0000 C   0  0  0  0  0  0  0  0  0  0  0  0
    6.1965   -8.6871    0.0000 C   0  0  1  0  0  0  0  0  0  0  0  0
    6.1904   -7.8621    0.0000 C   0  0  0  0  0  0  0  0  0  0  0  0
    7.2926   -8.3200    0.0000 H   0  0  0  0  0  0  0  0  0  0  0  0
    6.5356  -11.3069    0.0000 H   0  0  0  0  0  0  0  0  0  0  0  0
    7.9385   -9.5655    0.0000 H   0  0  0  0  0  0  0  0  0  0  0  0
    5.5560  -10.2359    0.0000 C   0  0  0  0  0  0  0  0  0  0  0  0
    6.9017   -7.4443    0.0000 C   0  0  0  0  0  0  0  0  0  0  0  0
    5.4728   -7.4550    0.0000 C   0  0  0  0  0  0  0  0  0  0  0  0
  1  2  1  0  0  0  0
  2  3  1  0  0  0  0
  3  4  1  0  0  0  0
  1  5  1  0  0  0  0
  4  6  1  0  0  0  0
  6  7  1  0  0  0  0
  7  2  1  0  0  0  0
  5  6  1  0  0  0  0
  1  8  2  0  0  0  0
  5  9  1  0  0  0  0
  9 10  1  0  0  0  0
 10 11  1  0  0  0  0
  7 11  1  0  0  0  0
 11 12  1  1  0  0  0
  7 13  1  1  0  0  0
  2 14  1  1  0  0  0
  6 15  1  6  0  0  0
  5 16  1  6  0  0  0
 12 17  1  0  0  0  0
 12 18  1  0  0  0  0
M  END
>  <cdx:fragmentId>
800

$$$$
