50397.cdx
  Mrv1902 05222410282D          

 30 30  0  0  0  0            999 V2000
    5.5943   -8.0289    0.0000 C   0  0  0  0  0  0  0  0  0  0  0  0
    5.5943   -8.8539    0.0000 C   0  0  0  0  0  0  0  0  0  0  0  0
    6.3088   -9.2664    0.0000 C   0  0  0  0  0  0  0  0  0  0  0  0
    7.0232   -8.8539    0.0000 C   0  0  0  0  0  0  0  0  0  0  0  0
    7.0232   -8.0289    0.0000 C   0  0  0  0  0  0  0  0  0  0  0  0
    6.3088   -7.6164    0.0000 C   0  0  0  0  0  0  0  0  0  0  0  0
    4.8798   -9.2664    0.0000 C   0  0  0  0  0  0  0  0  0  0  0  0
    4.8798  -10.0914    0.0000 O   0  0  0  0  0  0  0  0  0  0  0  0
    5.5943  -10.5039    0.0000 O   0  0  0  0  0  0  0  0  0  0  0  0
    6.3088  -10.0914    0.0000 C   0  0  0  0  0  0  0  0  0  0  0  0
    7.0232  -10.5039    0.0000 O   0  0  0  0  0  0  0  0  0  0  0  0
    7.7377  -10.0914    0.0000 C   0  0  0  0  0  0  0  0  0  0  0  0
    8.4522  -10.5039    0.0000 C   0  0  0  0  0  0  0  0  0  0  0  0
    9.1667  -10.0914    0.0000 C   0  0  0  0  0  0  0  0  0  0  0  0
    9.8811  -10.5039    0.0000 C   0  0  0  0  0  0  0  0  0  0  0  0
   10.5956  -10.0914    0.0000 C   0  0  0  0  0  0  0  0  0  0  0  0
   11.3101  -10.5039    0.0000 C   0  0  0  0  0  0  0  0  0  0  0  0
   12.0245  -10.0914    0.0000 C   0  0  0  0  0  0  0  0  0  0  0  0
   12.7390  -10.5039    0.0000 C   0  0  0  0  0  0  0  0  0  0  0  0
   12.0245   -9.2664    0.0000 C   0  0  0  0  0  0  0  0  0  0  0  0
    4.1654   -8.8539    0.0000 O   0  0  0  0  0  0  0  0  0  0  0  0
    4.1654   -8.0289    0.0000 C   0  0  0  0  0  0  0  0  0  0  0  0
    3.4509   -7.6164    0.0000 C   0  0  0  0  0  0  0  0  0  0  0  0
    3.4509   -6.7914    0.0000 C   0  0  0  0  0  0  0  0  0  0  0  0
    2.7364   -6.3789    0.0000 C   0  0  0  0  0  0  0  0  0  0  0  0
    2.7364   -5.5539    0.0000 C   0  0  0  0  0  0  0  0  0  0  0  0
    2.0219   -5.1414    0.0000 C   0  0  0  0  0  0  0  0  0  0  0  0
    2.0219   -4.3164    0.0000 C   0  0  0  0  0  0  0  0  0  0  0  0
    1.3075   -3.9039    0.0000 C   0  0  0  0  0  0  0  0  0  0  0  0
    2.7364   -3.9039    0.0000 C   0  0  0  0  0  0  0  0  0  0  0  0
  1  2  2  0  0  0  0
  2  3  1  0  0  0  0
  3  4  2  0  0  0  0
  4  5  1  0  0  0  0
  5  6  2  0  0  0  0
  6  1  1  0  0  0  0
  2  7  1  0  0  0  0
  7  8  2  0  0  0  0
  9 10  2  0  0  0  0
 10  3  1  0  0  0  0
 10 11  1  0  0  0  0
 11 12  1  0  0  0  0
 12 13  1  0  0  0  0
 13 14  1  0  0  0  0
 14 15  1  0  0  0  0
 15 16  1  0  0  0  0
 16 17  1  0  0  0  0
 17 18  1  0  0  0  0
 18 19  1  0  0  0  0
 18 20  1  0  0  0  0
  7 21  1  0  0  0  0
 21 22  1  0  0  0  0
 22 23  1  0  0  0  0
 23 24  1  0  0  0  0
 24 25  1  0  0  0  0
 25 26  1  0  0  0  0
 26 27  1  0  0  0  0
 27 28  1  0  0  0  0
 28 29  1  0  0  0  0
 28 30  1  0  0  0  0
M  END
>  <cdx:fragmentId>
5

$$$$
