50394.cdx
  Mrv1902 05222410272D          

 18 20  0  0  0  0            999 V2000
    5.8556   -8.4414    0.0000 C   0  0  0  0  0  0  0  0  0  0  0  0
    5.8556   -9.2664    0.0000 C   0  0  0  0  0  0  0  0  0  0  0  0
    6.5700   -9.6789    0.0000 C   0  0  0  0  0  0  0  0  0  0  0  0
    7.2845   -9.2664    0.0000 C   0  0  0  0  0  0  0  0  0  0  0  0
    7.2845   -8.4414    0.0000 C   0  0  0  0  0  0  0  0  0  0  0  0
    6.5700   -8.0289    0.0000 C   0  0  0  0  0  0  0  0  0  0  0  0
    7.8976   -7.8894    0.0000 C   0  0  0  0  0  0  0  0  0  0  0  0
    7.5620   -7.1357    0.0000 C   0  0  0  0  0  0  0  0  0  0  0  0
    6.7416   -7.2219    0.0000 C   0  0  0  0  0  0  0  0  0  0  0  0
    6.5700  -10.5039    0.0000 C   0  0  0  0  0  0  0  0  0  0  0  0
    5.1411   -9.6789    0.0000 C   0  0  0  0  0  0  0  0  0  0  0  0
    4.4266   -9.2664    0.0000 C   0  0  0  0  0  0  0  0  0  0  0  0
    5.1411  -10.5039    0.0000 O   0  0  0  0  0  0  0  0  0  0  0  0
    7.6970   -9.9809    0.0000 C   0  0  0  0  0  0  0  0  0  0  0  0
    8.1095   -9.2664    0.0000 C   0  0  0  0  0  0  0  0  0  0  0  0
    6.1895   -6.6088    0.0000 C   0  0  0  0  0  0  0  0  0  0  0  0
    7.1810   -7.4007    0.0000 C   0  0  0  0  0  0  0  0  0  0  0  0
    7.3873   -7.9776    0.0000 C   0  0  0  0  0  0  0  0  0  0  0  0
  1  2  1  0  0  0  0
  2  3  2  0  0  0  0
  3  4  1  0  0  0  0
  4  5  1  0  0  0  0
  5  6  1  0  0  0  0
  6  1  1  0  0  0  0
  5  7  1  0  0  0  0
  7  8  1  0  0  0  0
  8  9  1  0  0  0  0
  9  6  1  0  0  0  0
  3 10  1  0  0  0  0
  2 11  1  0  0  0  0
 11 12  1  0  0  0  0
 11 13  2  0  0  0  0
  4 14  1  0  0  0  0
  4 15  1  0  0  0  0
  9 16  1  0  0  0  0
  9 17  1  0  0  0  0
 17 18  1  0  0  0  0
  5 18  1  0  0  0  0
M  END
>  <cdx:fragmentId>
5

$$$$
