50396.cdx
  Mrv1902 05222410282D          

 31 37  0  0  0  0            999 V2000
    6.2155   -5.9675    0.0000 C   0  0  1  0  0  0  0  0  0  0  0  0
    6.2155   -6.7925    0.0000 C   0  0  2  0  0  0  0  0  0  0  0  0
    6.9300   -7.2050    0.0000 C   0  0  2  0  0  0  0  0  0  0  0  0
    7.6445   -6.7925    0.0000 C   0  0  1  0  0  0  0  0  0  0  0  0
    7.6445   -5.9675    0.0000 C   0  0  0  0  0  0  0  0  0  0  0  0
    6.9300   -5.5550    0.0000 C   0  0  0  0  0  0  0  0  0  0  0  0
    5.5011   -5.5550    0.0000 C   0  0  0  0  0  0  0  0  0  0  0  0
    4.7866   -5.9675    0.0000 C   0  0  0  0  0  0  0  0  0  0  0  0
    4.7866   -6.7925    0.0000 C   0  0  0  0  0  0  0  0  0  0  0  0
    5.5011   -7.2050    0.0000 N   0  0  0  0  0  0  0  0  0  0  0  0
    5.7146   -8.0019    0.0000 C   0  0  0  0  0  0  0  0  0  0  0  0
    6.7165   -8.0019    0.0000 C   0  0  0  0  0  0  0  0  0  0  0  0
    7.1015   -8.0120    0.0000 C   0  0  0  0  0  0  0  0  0  0  0  0
    7.9220   -8.0982    0.0000 C   0  0  0  0  0  0  0  0  0  0  0  0
    8.2576   -7.3445    0.0000 N   0  0  0  0  0  0  0  0  0  0  0  0
    6.6166   -8.6794    0.0000 C   0  0  0  0  0  0  0  0  0  0  0  0
    6.9522   -9.4331    0.0000 C   0  0  0  0  0  0  0  0  0  0  0  0
    7.7726   -9.5193    0.0000 C   0  0  0  0  0  0  0  0  0  0  0  0
    8.2576   -8.8519    0.0000 C   0  0  0  0  0  0  0  0  0  0  0  0
    7.4607   -7.1310    0.0000 C   0  0  0  0  0  0  0  0  0  0  0  0
    7.8732   -7.8455    0.0000 C   0  0  0  0  0  0  0  0  0  0  0  0
    7.4607   -8.5599    0.0000 C   0  0  0  0  0  0  0  0  0  0  0  0
    7.8732   -9.2744    0.0000 C   0  0  0  0  0  0  0  0  0  0  0  0
    8.6982   -9.2744    0.0000 C   0  0  0  0  0  0  0  0  0  0  0  0
    9.1107   -8.5599    0.0000 C   0  0  0  0  0  0  0  0  0  0  0  0
    8.6982   -7.8455    0.0000 C   0  0  0  0  0  0  0  0  0  0  0  0
    9.0780   -8.9381    0.0000 O   0  0  0  0  0  0  0  0  0  0  0  0
    9.4905   -9.6526    0.0000 C   0  0  0  0  0  0  0  0  0  0  0  0
    6.2155   -7.6175    0.0000 H   0  0  0  0  0  0  0  0  0  0  0  0
    8.3981   -6.4569    0.0000 H   0  0  0  0  0  0  0  0  0  0  0  0
    6.6280   -6.6820    0.0000 C   0  0  0  0  0  0  0  0  0  0  0  0
  1  2  1  0  0  0  0
  2  3  1  0  0  0  0
  3  4  1  0  0  0  0
  4  5  1  0  0  0  0
  5  6  1  0  0  0  0
  6  1  1  0  0  0  0
  1  7  1  1  0  0  0
  7  8  1  0  0  0  0
  8  9  1  0  0  0  0
  9 10  1  0  0  0  0
 10  2  1  0  0  0  0
 10 11  1  0  0  0  0
  3 12  1  6  0  0  0
 12 11  1  0  0  0  0
  3 13  1  0  0  0  0
 13 14  2  0  0  0  0
 14 15  1  0  0  0  0
 15  4  1  0  0  0  0
 13 16  1  0  0  0  0
 16 17  2  0  0  0  0
 17 18  1  0  0  0  0
 18 19  2  0  0  0  0
 19 14  1  0  0  0  0
 15 20  1  0  0  0  0
 20 21  1  0  0  0  0
 21 22  2  0  0  0  0
 22 23  1  0  0  0  0
 23 24  2  0  0  0  0
 24 25  1  0  0  0  0
 25 26  2  0  0  0  0
 26 21  1  0  0  0  0
 19 27  1  0  0  0  0
 27 28  1  0  0  0  0
  2 29  1  1  0  0  0
  4 30  1  6  0  0  0
  1 31  1  0  0  0  0
 31 20  1  0  0  0  0
M  END
>  <cdx:fragmentId>
128

$$$$
