50393.cdx
  Mrv1902 05222410262D          

 47 47  0  0  0  0            999 V2000
   10.6314   -4.4928    0.0000 C   0  0  0  0  0  0  0  0  0  0  0  0
   10.1973   -4.8737    0.0000 C   0  0  0  0  0  0  0  0  0  0  0  0
   10.4253   -5.4042    0.0000 C   0  0  0  0  0  0  0  0  0  0  0  0
   11.0004   -5.3512    0.0000 O   0  0  0  0  0  0  0  0  0  0  0  0
   11.1277   -4.7880    0.0000 C   0  0  2  0  0  0  0  0  0  0  0  0
   20.6328   -5.2848    0.0000 C   0  0  0  0  0  0  0  0  0  0  0  0
   20.1101   -5.5304    0.0000 C   0  0  0  0  0  0  0  0  0  0  0  0
   19.6361   -5.2006    0.0000 C   0  0  0  0  0  0  0  0  0  0  0  0
   19.1134   -5.4462    0.0000 C   0  0  0  0  0  0  0  0  0  0  0  0
   18.6393   -5.1164    0.0000 C   0  0  0  0  0  0  0  0  0  0  0  0
   18.1167   -5.3621    0.0000 C   0  0  0  0  0  0  0  0  0  0  0  0
   17.6426   -5.0322    0.0000 C   0  0  0  0  0  0  0  0  0  0  0  0
   17.1200   -5.2779    0.0000 C   0  0  0  0  0  0  0  0  0  0  0  0
   16.6459   -4.9481    0.0000 C   0  0  0  0  0  0  0  0  0  0  0  0
   16.1233   -5.1937    0.0000 C   0  0  0  0  0  0  0  0  0  0  0  0
   15.6492   -4.8639    0.0000 C   0  0  0  0  0  0  0  0  0  0  0  0
   15.1266   -5.1095    0.0000 C   0  0  0  0  0  0  0  0  0  0  0  0
   14.6525   -4.7797    0.0000 C   0  0  0  0  0  0  0  0  0  0  0  0
   14.1299   -5.0253    0.0000 C   0  0  0  0  0  0  0  0  0  0  0  0
   13.6558   -4.6955    0.0000 C   0  0  0  0  0  0  0  0  0  0  0  0
   13.1331   -4.9411    0.0000 C   0  0  0  0  0  0  0  0  0  0  0  0
   12.6591   -4.6113    0.0000 O   0  0  0  0  0  0  0  0  0  0  0  0
   12.1364   -4.8570    0.0000 C   0  0  0  0  0  0  0  0  0  0  0  0
   11.6624   -4.5271    0.0000 C   0  0  2  0  0  0  0  0  0  0  0  0
   13.0845   -5.5166    0.0000 O   0  0  0  0  0  0  0  0  0  0  0  0
   11.7068   -3.9513    0.0000 O   0  0  0  0  0  0  0  0  0  0  0  0
   10.5784   -3.9177    0.0000 O   0  0  0  0  0  0  0  0  0  0  0  0
   10.1302   -5.9006    0.0000 O   0  0  0  0  0  0  0  0  0  0  0  0
   11.5934   -5.1295    0.0000 H   0  0  0  0  0  0  0  0  0  0  0  0
    9.6689   -4.6291    0.0000 O   0  0  0  0  0  0  0  0  0  0  0  0
    9.1989   -4.9647    0.0000 C   0  0  0  0  0  0  0  0  0  0  0  0
    8.6733   -4.7255    0.0000 C   0  0  0  0  0  0  0  0  0  0  0  0
    8.2033   -5.0611    0.0000 C   0  0  0  0  0  0  0  0  0  0  0  0
    7.6777   -4.8219    0.0000 C   0  0  0  0  0  0  0  0  0  0  0  0
    7.2077   -5.1575    0.0000 C   0  0  0  0  0  0  0  0  0  0  0  0
    6.6821   -4.9183    0.0000 C   0  0  0  0  0  0  0  0  0  0  0  0
    6.2121   -5.2539    0.0000 C   0  0  0  0  0  0  0  0  0  0  0  0
    5.6865   -5.0147    0.0000 C   0  0  0  0  0  0  0  0  0  0  0  0
    5.2165   -5.3503    0.0000 C   0  0  0  0  0  0  0  0  0  0  0  0
    4.6909   -5.1111    0.0000 C   0  0  0  0  0  0  0  0  0  0  0  0
    4.2209   -5.4467    0.0000 C   0  0  0  0  0  0  0  0  0  0  0  0
    3.6953   -5.2075    0.0000 C   0  0  0  0  0  0  0  0  0  0  0  0
    3.2253   -5.5431    0.0000 C   0  0  0  0  0  0  0  0  0  0  0  0
    2.6997   -5.3039    0.0000 C   0  0  0  0  0  0  0  0  0  0  0  0
    2.2297   -5.6395    0.0000 C   0  0  0  0  0  0  0  0  0  0  0  0
    1.7041   -5.4002    0.0000 C   0  0  0  0  0  0  0  0  0  0  0  0
    9.2085   -5.4561    0.0000 O   0  0  0  0  0  0  0  0  0  0  0  0
  1  2  2  0  0  0  0
  2  3  1  0  0  0  0
  3  4  1  0  0  0  0
  4  5  1  0  0  0  0
  5  1  1  0  0  0  0
  6  7  1  0  0  0  0
  7  8  1  0  0  0  0
  8  9  1  0  0  0  0
  9 10  1  0  0  0  0
 10 11  1  0  0  0  0
 11 12  1  0  0  0  0
 12 13  1  0  0  0  0
 13 14  1  0  0  0  0
 14 15  1  0  0  0  0
 15 16  1  0  0  0  0
 16 17  1  0  0  0  0
 17 18  1  0  0  0  0
 18 19  1  0  0  0  0
 19 20  1  0  0  0  0
 20 21  1  0  0  0  0
 21 22  1  0  0  0  0
 22 23  1  0  0  0  0
 23 24  1  0  0  0  0
 24  5  1  0  0  0  0
 21 25  2  0  0  0  0
 24 26  1  1  0  0  0
  1 27  1  0  0  0  0
  3 28  2  0  0  0  0
  5 29  1  6  0  0  0
 31 30  1  0  0  0  0
 32 31  1  0  0  0  0
 33 32  1  0  0  0  0
 34 33  1  0  0  0  0
 35 34  1  0  0  0  0
 36 35  1  0  0  0  0
 37 36  1  0  0  0  0
 38 37  1  0  0  0  0
 39 38  1  0  0  0  0
 40 39  1  0  0  0  0
 41 40  1  0  0  0  0
 42 41  1  0  0  0  0
 43 42  1  0  0  0  0
 44 43  1  0  0  0  0
 45 44  1  0  0  0  0
 46 45  1  0  0  0  0
 30  2  1  0  0  0  0
 31 47  2  0  0  0  0
M  END
>  <cdx:fragmentId>
18

$$$$
