50399.cdx
  Mrv1902 05222410192D          

 56 55  0  0  0  0            999 V2000
   11.3611   -3.2417    0.0000 Br  0  0  0  0  0  0  0  0  0  0  0  0
   11.0618   -3.3806    0.0000 C   0  0  0  0  0  0  0  0  0  0  0  0
   11.0325   -3.7093    0.0000 C   0  0  0  0  0  0  0  0  0  0  0  0
   10.7331   -3.8482    0.0000 C   0  0  0  0  0  0  0  0  0  0  0  0
   10.7038   -4.1769    0.0000 C   0  0  0  0  0  0  0  0  0  0  0  0
   10.4044   -4.3158    0.0000 C   0  0  0  0  0  0  0  0  0  0  0  0
   10.3751   -4.6445    0.0000 C   0  0  0  0  0  0  0  0  0  0  0  0
   10.0757   -4.7834    0.0000 C   0  0  0  0  0  0  0  0  0  0  0  0
   10.0464   -5.1121    0.0000 C   0  0  0  0  0  0  0  0  0  0  0  0
    9.7470   -5.2510    0.0000 C   0  0  0  0  0  0  0  0  0  0  0  0
    9.7177   -5.5797    0.0000 C   0  0  0  0  0  0  0  0  0  0  0  0
    9.4183   -5.7187    0.0000 C   0  0  0  0  0  0  0  0  0  0  0  0
    9.3890   -6.0474    0.0000 C   0  0  0  0  0  0  0  0  0  0  0  0
    9.0897   -6.1863    0.0000 C   0  0  0  0  0  0  0  0  0  0  0  0
    9.0603   -6.5150    0.0000 C   0  0  0  0  0  0  0  0  0  0  0  0
    8.7610   -6.6539    0.0000 C   0  0  0  0  0  0  0  0  0  0  0  0
    8.7316   -6.9826    0.0000 C   0  0  0  0  0  0  0  0  0  0  0  0
    8.4323   -7.1215    0.0000 C   0  0  0  0  0  0  0  0  0  0  0  0
    8.4029   -7.4502    0.0000 C   0  0  0  0  0  0  0  0  0  0  0  0
    8.1036   -7.5891    0.0000 C   0  0  0  0  0  0  0  0  0  0  0  0
    8.0742   -7.9178    0.0000 C   0  0  0  0  0  0  0  0  0  0  0  0
    7.7749   -8.0567    0.0000 C   0  0  0  0  0  0  0  0  0  0  0  0
    7.7455   -8.3854    0.0000 C   0  0  0  0  0  0  0  0  0  0  0  0
    7.4462   -8.5243    0.0000 C   0  0  0  0  0  0  0  0  0  0  0  0
    7.4168   -8.8530    0.0000 C   0  0  0  0  0  0  0  0  0  0  0  0
    7.1175   -8.9919    0.0000 C   0  0  0  0  0  0  0  0  0  0  0  0
    7.0881   -9.3206    0.0000 C   0  0  0  0  0  0  0  0  0  0  0  0
    6.7888   -9.4596    0.0000 C   0  0  0  0  0  0  0  0  0  0  0  0
    6.7594   -9.7882    0.0000 C   0  0  0  0  0  0  0  0  0  0  0  0
    6.4601   -9.9272    0.0000 C   0  0  0  0  0  0  0  0  0  0  0  0
    6.4307  -10.2559    0.0000 C   0  0  0  0  0  0  0  0  0  0  0  0
    6.1314  -10.3948    0.0000 C   0  0  0  0  0  0  0  0  0  0  0  0
    6.1021  -10.7235    0.0000 C   0  0  0  0  0  0  0  0  0  0  0  0
    5.8027  -10.8624    0.0000 C   0  0  0  0  0  0  0  0  0  0  0  0
    5.7734  -11.1911    0.0000 C   0  0  0  0  0  0  0  0  0  0  0  0
    5.4740  -11.3300    0.0000 C   0  0  0  0  0  0  0  0  0  0  0  0
    5.4447  -11.6587    0.0000 C   0  0  0  0  0  0  0  0  0  0  0  0
    5.1453  -11.7976    0.0000 C   0  0  0  0  0  0  0  0  0  0  0  0
    5.1160  -12.1263    0.0000 C   0  0  0  0  0  0  0  0  0  0  0  0
    4.8166  -12.2652    0.0000 C   0  0  0  0  0  0  0  0  0  0  0  0
    4.7873  -12.5939    0.0000 C   0  0  0  0  0  0  0  0  0  0  0  0
    4.4879  -12.7328    0.0000 C   0  0  0  0  0  0  0  0  0  0  0  0
    4.4586  -13.0615    0.0000 C   0  0  0  0  0  0  0  0  0  0  0  0
    4.1593  -13.2004    0.0000 C   0  0  0  0  0  0  0  0  0  0  0  0
    4.1299  -13.5291    0.0000 C   0  0  0  0  0  0  0  0  0  0  0  0
    3.8306  -13.6681    0.0000 C   0  0  0  0  0  0  0  0  0  0  0  0
    3.8012  -13.9968    0.0000 C   0  0  0  0  0  0  0  0  0  0  0  0
    3.5019  -14.1357    0.0000 C   0  0  0  0  0  0  0  0  0  0  0  0
    3.4725  -14.4644    0.0000 C   0  0  0  0  0  0  0  0  0  0  0  0
    3.1732  -14.6033    0.0000 C   0  0  0  0  0  0  0  0  0  0  0  0
    3.1438  -14.9320    0.0000 C   0  0  0  0  0  0  0  0  0  0  0  0
    2.8445  -15.0709    0.0000 C   0  0  0  0  0  0  0  0  0  0  0  0
    2.8151  -15.3996    0.0000 C   0  0  0  0  0  0  0  0  0  0  0  0
    2.5158  -15.5385    0.0000 C   0  0  0  0  0  0  0  0  0  0  0  0
    2.4864  -15.8672    0.0000 C   0  0  0  0  0  0  0  0  0  0  0  0
    2.1871  -16.0061    0.0000 Br  0  0  0  0  0  0  0  0  0  0  0  0
  2  1  1  0  0  0  0
  3  2  1  0  0  0  0
  4  3  1  0  0  0  0
  5  4  1  0  0  0  0
  6  5  1  0  0  0  0
  7  6  1  0  0  0  0
  8  7  1  0  0  0  0
  9  8  1  0  0  0  0
 10  9  1  0  0  0  0
 11 10  1  0  0  0  0
 12 11  1  0  0  0  0
 13 12  1  0  0  0  0
 14 13  1  0  0  0  0
 15 14  1  0  0  0  0
 16 15  1  0  0  0  0
 17 16  1  0  0  0  0
 18 17  1  0  0  0  0
 19 18  1  0  0  0  0
 20 19  1  0  0  0  0
 21 20  1  0  0  0  0
 22 21  1  0  0  0  0
 23 22  1  0  0  0  0
 24 23  1  0  0  0  0
 25 24  1  0  0  0  0
 26 25  1  0  0  0  0
 27 26  1  0  0  0  0
 28 27  1  0  0  0  0
 29 28  1  0  0  0  0
 30 29  1  0  0  0  0
 31 30  1  0  0  0  0
 32 31  1  0  0  0  0
 33 32  1  0  0  0  0
 34 33  1  0  0  0  0
 35 34  1  0  0  0  0
 36 35  1  0  0  0  0
 37 36  1  0  0  0  0
 38 37  1  0  0  0  0
 39 38  1  0  0  0  0
 40 39  1  0  0  0  0
 41 40  1  0  0  0  0
 42 41  1  0  0  0  0
 43 42  1  0  0  0  0
 44 43  1  0  0  0  0
 45 44  1  0  0  0  0
 46 45  1  0  0  0  0
 47 46  1  0  0  0  0
 48 47  1  0  0  0  0
 49 48  1  0  0  0  0
 50 49  1  0  0  0  0
 51 50  1  0  0  0  0
 52 51  1  0  0  0  0
 53 52  1  0  0  0  0
 54 53  1  0  0  0  0
 55 54  1  0  0  0  0
 56 55  1  0  0  0  0
M  END
>  <cdx:fragmentId>
3

$$$$
