50406.cdx
  Mrv1902 05222410202D          

 32 35  0  0  0  0            999 V2000
    5.9069   -5.9630    0.0000 C   0  0  2  0  0  0  0  0  0  0  0  0
    5.1885   -5.5573    0.0000 C   0  0  2  0  0  0  0  0  0  0  0  0
    4.4780   -5.9765    0.0000 C   0  0  1  0  0  0  0  0  0  0  0  0
    4.4858   -6.8015    0.0000 C   0  0  2  0  0  0  0  0  0  0  0  0
    5.2042   -7.2072    0.0000 C   0  0  1  0  0  0  0  0  0  0  0  0
    5.9147   -6.7879    0.0000 O   0  0  0  0  0  0  0  0  0  0  0  0
    5.2120   -8.0322    0.0000 O   0  0  0  0  0  0  0  0  0  0  0  0
    6.6174   -5.5437    0.0000 C   0  0  0  0  0  0  0  0  0  0  0  0
    3.7596   -5.5708    0.0000 O   0  0  0  0  0  0  0  0  0  0  0  0
    3.7753   -7.2208    0.0000 O   0  0  0  0  0  0  0  0  0  0  0  0
    5.1807   -4.7323    0.0000 O   0  0  0  0  0  0  0  0  0  0  0  0
    6.6096   -4.7187    0.0000 O   0  0  0  0  0  0  0  0  0  0  0  0
    5.9243   -8.4414    0.0000 C   0  0  2  0  0  0  0  0  0  0  0  0
    5.9243   -9.2664    0.0000 C   0  0  0  0  0  0  0  0  0  0  0  0
    6.6388   -9.6789    0.0000 O   0  0  0  0  0  0  0  0  0  0  0  0
    7.3532   -9.2664    0.0000 C   0  0  0  0  0  0  0  0  0  0  0  0
    7.3532   -8.4414    0.0000 C   0  0  0  0  0  0  0  0  0  0  0  0
    6.6388   -8.0289    0.0000 C   0  0  0  0  0  0  0  0  0  0  0  0
    8.0677   -9.6789    0.0000 C   0  0  0  0  0  0  0  0  0  0  0  0
    8.7822   -9.2664    0.0000 C   0  0  0  0  0  0  0  0  0  0  0  0
    8.7822   -8.4414    0.0000 C   0  0  0  0  0  0  0  0  0  0  0  0
    8.0677   -8.0289    0.0000 C   0  0  0  0  0  0  0  0  0  0  0  0
    9.4967   -9.6789    0.0000 O   0  0  0  0  0  0  0  0  0  0  0  0
   10.2111   -9.2664    0.0000 C   0  0  0  0  0  0  0  0  0  0  0  0
   10.2111   -8.4414    0.0000 C   0  0  0  0  0  0  0  0  0  0  0  0
    9.4967   -8.0289    0.0000 C   0  0  0  0  0  0  0  0  0  0  0  0
    5.0993   -9.2664    0.0000 C   0  0  0  0  0  0  0  0  0  0  0  0
    5.7108  -10.0633    0.0000 C   0  0  0  0  0  0  0  0  0  0  0  0
    8.0677   -7.2039    0.0000 O   0  0  0  0  0  0  0  0  0  0  0  0
    9.4967   -7.2039    0.0000 O   0  0  0  0  0  0  0  0  0  0  0  0
   10.9256   -9.6789    0.0000 C   0  0  0  0  0  0  0  0  0  0  0  0
   11.6401   -9.2664    0.0000 O   0  0  0  0  0  0  0  0  0  0  0  0
  1  2  1  0  0  0  0
  2  3  1  0  0  0  0
  3  4  1  0  0  0  0
  4  5  1  0  0  0  0
  5  6  1  0  0  0  0
  6  1  1  0  0  0  0
  5  7  1  1  0  0  0
  1  8  1  1  0  0  0
  3  9  1  1  0  0  0
  4 10  1  6  0  0  0
  2 11  1  6  0  0  0
  8 12  1  0  0  0  0
 13 14  1  0  0  0  0
 14 15  1  0  0  0  0
 15 16  1  0  0  0  0
 16 17  2  0  0  0  0
 17 18  1  0  0  0  0
 18 13  1  0  0  0  0
 16 19  1  0  0  0  0
 19 20  2  0  0  0  0
 20 21  1  0  0  0  0
 21 22  2  0  0  0  0
 22 17  1  0  0  0  0
 20 23  1  0  0  0  0
 23 24  1  0  0  0  0
 24 25  2  0  0  0  0
 25 26  1  0  0  0  0
 26 21  1  0  0  0  0
 14 27  1  0  0  0  0
 14 28  1  0  0  0  0
 22 29  1  0  0  0  0
 26 30  2  0  0  0  0
 24 31  1  0  0  0  0
 31 32  1  0  0  0  0
 13  7  1  1  0  0  0
M  END
>  <cdx:fragmentId>
35

$$$$
