50408.cdx
  Mrv1902 05222410272D          

 20 22  0  0  0  0            999 V2000
    8.4055   -8.2183    0.0000 C   0  0  0  0  0  0  0  0  0  0  0  0
    7.5807   -8.2038    0.0000 C   0  0  1  0  0  0  0  0  0  0  0  0
    7.0550   -8.8397    0.0000 C   0  0  0  0  0  0  0  0  0  0  0  0
    7.2244   -9.6471    0.0000 C   0  0  0  0  0  0  0  0  0  0  0  0
    7.9613  -10.0181    0.0000 C   0  0  0  0  0  0  0  0  0  0  0  0
    8.7108   -9.6732    0.0000 C   0  0  0  0  0  0  0  0  0  0  0  0
    8.9085   -8.8723    0.0000 C   0  0  2  0  0  0  0  0  0  0  0  0
    7.9468  -10.8429    0.0000 C   0  0  0  0  0  0  0  0  0  0  0  0
    6.2348   -8.7513    0.0000 C   0  0  0  0  0  0  0  0  0  0  0  0
    5.8972   -9.5041    0.0000 C   0  0  0  0  0  0  0  0  0  0  0  0
    6.5089  -10.0577    0.0000 C   0  0  0  0  0  0  0  0  0  0  0  0
    6.4205  -10.8780    0.0000 O   0  0  0  0  0  0  0  0  0  0  0  0
    5.8241   -8.0357    0.0000 C   0  0  0  0  0  0  0  0  0  0  0  0
    4.9993   -8.0212    0.0000 O   0  0  0  0  0  0  0  0  0  0  0  0
    8.6742   -7.4383    0.0000 C   0  0  0  0  0  0  0  0  0  0  0  0
    8.0154   -6.9417    0.0000 C   0  0  0  0  0  0  0  0  0  0  0  0
    7.3396   -7.4148    0.0000 O   0  0  0  0  0  0  0  0  0  0  0  0
    8.0299   -6.1168    0.0000 O   0  0  0  0  0  0  0  0  0  0  0  0
    9.7159   -8.7028    0.0000 O   0  0  0  0  0  0  0  0  0  0  0  0
    9.4632   -7.1972    0.0000 C   0  0  0  0  0  0  0  0  0  0  0  0
  1  2  1  0  0  0  0
  2  3  1  0  0  0  0
  4  5  2  0  0  0  0
  5  6  1  0  0  0  0
  6  7  1  0  0  0  0
  7  1  1  0  0  0  0
  5  8  1  0  0  0  0
  3  9  1  0  0  0  0
  9 10  2  0  0  0  0
 10 11  1  0  0  0  0
 11  4  1  0  0  0  0
 11 12  2  0  0  0  0
  9 13  1  0  0  0  0
 13 14  1  0  0  0  0
 15 16  1  0  0  0  0
 16 17  1  0  0  0  0
 16 18  2  0  0  0  0
  7 19  1  1  0  0  0
 15 20  1  0  0  0  0
 15  1  1  0  0  0  0
  2 17  1  1  0  0  0
  3  4  1  0  0  0  0
M  END
>  <cdx:fragmentId>
5

$$$$
