50400.cdx
  Mrv1902 05222410192D          

 15 15  0  0  0  0            999 V2000
    6.1205   -8.6351    0.0000 C   0  0  0  0  0  0  0  0  0  0  0  0
    6.1205   -7.8101    0.0000 C   0  0  0  0  0  0  0  0  0  0  0  0
    6.8350   -7.3976    0.0000 C   0  0  0  0  0  0  0  0  0  0  0  0
    7.5494   -7.8101    0.0000 C   0  0  0  0  0  0  0  0  0  0  0  0
    8.2639   -7.3976    0.0000 C   0  0  0  0  0  0  0  0  0  0  0  0
    8.9784   -7.8101    0.0000 C   0  0  0  0  0  0  0  0  0  0  0  0
    8.9784   -8.6351    0.0000 C   0  0  0  0  0  0  0  0  0  0  0  0
    8.2639   -9.0476    0.0000 C   0  0  0  0  0  0  0  0  0  0  0  0
    7.5494   -8.6351    0.0000 C   0  0  0  0  0  0  0  0  0  0  0  0
    6.8350   -9.0476    0.0000 C   0  0  0  0  0  0  0  0  0  0  0  0
    7.5494  -10.2851    0.0000 C   0  0  0  0  0  0  0  0  0  0  0  0
    8.2639   -9.8726    0.0000 C   0  0  0  0  0  0  0  0  0  0  0  0
    8.9784  -10.2851    0.0000 C   0  0  0  0  0  0  0  0  0  0  0  0
    8.2639   -6.5726    0.0000 C   0  0  0  0  0  0  0  0  0  0  0  0
    5.4060   -9.0476    0.0000 C   0  0  0  0  0  0  0  0  0  0  0  0
  1  2  2  0  0  0  0
  2  3  1  0  0  0  0
  3  4  1  0  0  0  0
  4  5  1  0  0  0  0
  5  6  2  0  0  0  0
  6  7  1  0  0  0  0
  7  8  1  0  0  0  0
  8  9  1  0  0  0  0
  9 10  1  0  0  0  0
  1 10  1  0  0  0  0
 11 12  2  0  0  0  0
 12 13  1  0  0  0  0
  8 12  1  0  0  0  0
  5 14  1  0  0  0  0
  1 15  1  0  0  0  0
M  END
>  <cdx:fragmentId>
5

$$$$
