50405.cdx
  Mrv1902 05222410192D          

 30 33  0  0  0  0            999 V2000
   11.8238   -9.5594    0.0000 O   0  0  0  0  0  0  0  0  0  0  0  0
    9.6425   -9.6384    0.0000 C   0  0  0  0  0  0  0  0  0  0  0  0
   10.4313   -9.8801    0.0000 C   0  0  0  0  0  0  0  0  0  0  0  0
   11.0350   -9.3178    0.0000 C   0  0  0  0  0  0  0  0  0  0  0  0
   10.8499   -8.5138    0.0000 C   0  0  0  0  0  0  0  0  0  0  0  0
   10.0611   -8.2721    0.0000 C   0  0  0  0  0  0  0  0  0  0  0  0
    9.4574   -8.8344    0.0000 C   0  0  0  0  0  0  0  0  0  0  0  0
    8.2500   -9.9590    0.0000 O   0  0  0  0  0  0  0  0  0  0  0  0
    8.6686   -8.5927    0.0000 C   0  0  0  0  0  0  0  0  0  0  0  0
    8.0649   -9.1550    0.0000 C   0  0  0  0  0  0  0  0  0  0  0  0
    7.2761   -8.9134    0.0000 O   0  0  0  0  0  0  0  0  0  0  0  0
    5.5400   -6.3607    0.0000 O   0  0  0  0  0  0  0  0  0  0  0  0
    6.9941   -7.4129    0.0000 C   0  0  0  0  0  0  0  0  0  0  0  0
    5.5491  -11.0875    0.0000 C   0  0  0  0  0  0  0  0  0  0  0  0
    2.5476   -8.2929    0.0000 O   0  0  0  0  0  0  0  0  0  0  0  0
    3.3721   -8.3222    0.0000 C   0  0  0  0  0  0  0  0  0  0  0  0
    4.0237  -11.1523    0.0000 O   0  0  0  0  0  0  0  0  0  0  0  0
    6.2100   -7.6693    0.0000 C   0  0  0  0  0  0  0  0  0  0  0  0
    5.5416   -7.1857    0.0000 C   0  0  0  0  0  0  0  0  0  0  0  0
    4.8751   -7.6719    0.0000 O   0  0  0  0  0  0  0  0  0  0  0  0
    3.7966   -9.0296    0.0000 C   0  0  0  0  0  0  0  0  0  0  0  0
    3.4738   -9.7889    0.0000 C   0  0  0  0  0  0  0  0  0  0  0  0
    4.0961  -10.3305    0.0000 C   0  0  0  0  0  0  0  0  0  0  0  0
    5.5475  -10.2625    0.0000 C   0  0  0  0  0  0  0  0  0  0  0  0
    6.2901   -9.9031    0.0000 C   0  0  0  0  0  0  0  0  0  0  0  0
    6.4721   -9.0985    0.0000 C   0  0  1  0  0  0  0  0  0  0  0  0
    5.9565   -8.4545    0.0000 C   0  0  0  0  0  0  0  0  0  0  0  0
    5.1315   -8.4560    0.0000 C   0  0  1  0  0  0  0  0  0  0  0  0
    4.6184   -9.1020    0.0000 C   0  0  0  0  0  0  0  0  0  0  0  0
    4.8035   -9.9060    0.0000 C   0  0  0  0  0  0  0  0  0  0  0  0
  4  1  1  0  0  0  0
  2  7  1  0  0  0  0
  3  2  2  0  0  0  0
  4  3  1  0  0  0  0
  5  4  2  0  0  0  0
  6  5  1  0  0  0  0
  7  6  2  0  0  0  0
  9  7  1  0  0  0  0
 10  8  2  0  0  0  0
 10  9  1  0  0  0  0
 11 10  1  0  0  0  0
 26 11  1  1  0  0  0
 19 12  2  0  0  0  0
 18 13  1  0  0  0  0
 24 14  1  0  0  0  0
 16 15  1  0  0  0  0
 21 16  1  0  0  0  0
 23 17  2  0  0  0  0
 18 27  1  0  0  0  0
 19 18  1  0  0  0  0
 20 19  1  0  0  0  0
 28 20  1  1  0  0  0
 21 29  1  0  0  0  0
 22 21  2  0  0  0  0
 23 22  1  0  0  0  0
 30 23  1  0  0  0  0
 24 30  2  0  0  0  0
 25 24  1  0  0  0  0
 26 25  1  0  0  0  0
 27 26  1  0  0  0  0
 28 27  1  0  0  0  0
 29 28  1  0  0  0  0
 30 29  1  0  0  0  0
M  END
>  <cdx:fragmentId>
5

$$$$
