50407.cdx
  Mrv1902 05222410202D          

 17 18  0  0  0  0            999 V2000
    4.7281   -7.3689    0.0000 C   0  0  0  0  0  0  0  0  0  0  0  0
    4.7281   -8.1939    0.0000 C   0  0  0  0  0  0  0  0  0  0  0  0
    5.4425   -8.6064    0.0000 C   0  0  1  0  0  0  0  0  0  0  0  0
    6.1570   -8.1939    0.0000 C   0  0  2  0  0  0  0  0  0  0  0  0
    6.1570   -7.3689    0.0000 C   0  0  0  0  0  0  0  0  0  0  0  0
    5.4425   -6.9564    0.0000 C   0  0  0  0  0  0  0  0  0  0  0  0
    6.8715   -8.6064    0.0000 C   0  0  0  0  0  0  0  0  0  0  0  0
    7.5859   -8.1939    0.0000 C   0  0  2  0  0  0  0  0  0  0  0  0
    7.5859   -7.3689    0.0000 C   0  0  0  0  0  0  0  0  0  0  0  0
    6.8715   -6.9564    0.0000 C   0  0  0  0  0  0  0  0  0  0  0  0
    4.0136   -6.9564    0.0000 O   0  0  0  0  0  0  0  0  0  0  0  0
    8.3004   -8.6064    0.0000 C   0  0  0  0  0  0  0  0  0  0  0  0
    8.3004   -9.4314    0.0000 C   0  0  0  0  0  0  0  0  0  0  0  0
    9.0149   -8.1939    0.0000 C   0  0  0  0  0  0  0  0  0  0  0  0
    9.0149   -9.0189    0.0000 O   0  0  0  0  0  0  0  0  0  0  0  0
    5.4425   -9.4314    0.0000 C   0  0  0  0  0  0  0  0  0  0  0  0
    6.1570   -9.0189    0.0000 C   0  0  0  0  0  0  0  0  0  0  0  0
  1  2  1  0  0  0  0
  2  3  1  0  0  0  0
  3  4  1  0  0  0  0
  4  5  1  0  0  0  0
  5  6  2  0  0  0  0
  6  1  1  0  0  0  0
  4  7  1  0  0  0  0
  7  8  1  0  0  0  0
  8  9  1  0  0  0  0
  9 10  1  0  0  0  0
 10  5  1  0  0  0  0
  1 11  2  0  0  0  0
  8 12  1  6  0  0  0
 12 13  1  0  0  0  0
 12 14  1  0  0  0  0
 12 15  1  0  0  0  0
  3 16  1  1  0  0  0
  4 17  1  1  0  0  0
M  END
>  <cdx:fragmentId>
5

$$$$
