50409.cdx
  Mrv1902 05222410272D          

 14 14  0  0  0  0            999 V2000
    9.1088   -9.5703    0.0000 C   0  0  0  0  0  0  0  0  0  0  0  0
    9.2036   -8.7508    0.0000 C   0  0  0  0  0  0  0  0  0  0  0  0
    8.9051   -7.9813    0.0000 C   0  0  0  0  0  0  0  0  0  0  0  0
    8.2858   -7.4362    0.0000 C   0  0  0  0  0  0  0  0  0  0  0  0
    7.4833   -7.2423    0.0000 C   0  0  0  0  0  0  0  0  0  0  0  0
    6.6824   -7.4403    0.0000 O   0  0  0  0  0  0  0  0  0  0  0  0
    6.0703   -7.9937    0.0000 C   0  0  0  0  0  0  0  0  0  0  0  0
    5.7814   -8.7673    0.0000 C   0  0  0  0  0  0  0  0  0  0  0  0
    5.8818   -9.5859    0.0000 C   0  0  0  0  0  0  0  0  0  0  0  0
    6.3560  -10.2608    0.0000 C   0  0  0  0  0  0  0  0  0  0  0  0
    7.0871  -10.6417    0.0000 C   0  0  0  0  0  0  0  0  0  0  0  0
    7.9125  -10.6375    0.0000 C   0  0  0  0  0  0  0  0  0  0  0  0
    8.6388  -10.2468    0.0000 C   0  0  0  0  0  0  0  0  0  0  0  0
    7.4811   -6.4173    0.0000 O   0  0  0  0  0  0  0  0  0  0  0  0
  1  2  1  0  0  0  0
  2  3  1  0  0  0  0
  3  4  1  0  0  0  0
  4  5  1  0  0  0  0
  5  6  1  0  0  0  0
  6  7  1  0  0  0  0
  7  8  1  0  0  0  0
  8  9  1  0  0  0  0
  9 10  2  0  0  0  0
 10 11  1  0  0  0  0
 11 12  1  0  0  0  0
 12 13  1  0  0  0  0
  1 13  1  0  0  0  0
  5 14  2  0  0  0  0
M  END
>  <cdx:fragmentId>
751

$$$$
