50401.cdx
  Mrv1902 05222410192D          

 16 15  0  0  0  0            999 V2000
    3.0500   -7.3001    0.0000 C   0  0  0  0  0  0  0  0  0  0  0  0
    3.7645   -7.7126    0.0000 C   0  0  0  0  0  0  0  0  0  0  0  0
    4.4790   -7.3001    0.0000 C   0  0  0  0  0  0  0  0  0  0  0  0
    5.1934   -7.7126    0.0000 C   0  0  0  0  0  0  0  0  0  0  0  0
    5.9079   -7.3001    0.0000 C   0  0  0  0  0  0  0  0  0  0  0  0
    6.6224   -7.7126    0.0000 C   0  0  0  0  0  0  0  0  0  0  0  0
    7.3369   -7.3001    0.0000 C   0  0  0  0  0  0  0  0  0  0  0  0
    8.0513   -7.7126    0.0000 C   0  0  0  0  0  0  0  0  0  0  0  0
    8.7658   -7.3001    0.0000 C   0  0  0  0  0  0  0  0  0  0  0  0
    9.4803   -7.7126    0.0000 C   0  0  0  0  0  0  0  0  0  0  0  0
   10.1947   -7.3001    0.0000 C   0  0  0  0  0  0  0  0  0  0  0  0
   10.9092   -7.7126    0.0000 C   0  0  0  0  0  0  0  0  0  0  0  0
    3.7645   -8.5376    0.0000 C   0  0  0  0  0  0  0  0  0  0  0  0
    6.6224   -8.5376    0.0000 C   0  0  0  0  0  0  0  0  0  0  0  0
    7.3369   -6.4751    0.0000 H   0  0  0  0  0  0  0  0  0  0  0  0
    9.4803   -8.5376    0.0000 C   0  0  0  0  0  0  0  0  0  0  0  0
  1  2  1  0  0  0  0
  2  3  2  0  0  0  0
  3  4  1  0  0  0  0
  4  5  1  0  0  0  0
  5  6  1  0  0  0  0
  6  7  2  0  0  0  0
  7  8  1  0  0  0  0
  8  9  1  0  0  0  0
  9 10  1  0  0  0  0
 10 11  1  0  0  0  0
 11 12  2  0  0  0  0
  2 13  1  0  0  0  0
  6 14  1  0  0  0  0
  7 15  1  0  0  0  0
 10 16  1  0  0  0  0
M  END
>  <cdx:fragmentId>
3

$$$$
