50404.cdx
  Mrv1902 05222410192D          

 24 27  0  0  0  0            999 V2000
    5.6860   -8.2214    0.0000 C   0  0  0  0  0  0  0  0  0  0  0  0
    5.6860   -9.0464    0.0000 C   0  0  0  0  0  0  0  0  0  0  0  0
    6.3310   -9.5608    0.0000 C   0  0  0  0  0  0  0  0  0  0  0  0
    7.1353   -9.3772    0.0000 C   0  0  0  0  0  0  0  0  0  0  0  0
    7.4932   -8.6339    0.0000 C   0  0  0  0  0  0  0  0  0  0  0  0
    7.1353   -7.8906    0.0000 C   0  0  0  0  0  0  0  0  0  0  0  0
    6.3310   -7.7070    0.0000 C   0  0  0  0  0  0  0  0  0  0  0  0
    5.7476   -7.1237    0.0000 O   0  0  0  0  0  0  0  0  0  0  0  0
    6.5445   -6.9101    0.0000 C   0  0  0  0  0  0  0  0  0  0  0  0
    8.3182   -8.6339    0.0000 O   0  0  0  0  0  0  0  0  0  0  0  0
    8.7307   -7.9194    0.0000 C   0  0  0  0  0  0  0  0  0  0  0  0
    9.5557   -7.9194    0.0000 O   0  0  0  0  0  0  0  0  0  0  0  0
    8.3182   -7.2050    0.0000 C   0  0  0  0  0  0  0  0  0  0  0  0
    6.2570  -10.3825    0.0000 O   0  0  0  0  0  0  0  0  0  0  0  0
    7.0156  -10.7067    0.0000 C   0  0  0  0  0  0  0  0  0  0  0  0
    7.5584  -10.0854    0.0000 C   0  0  0  0  0  0  0  0  0  0  0  0
    8.3801  -10.1594    0.0000 C   0  0  0  0  0  0  0  0  0  0  0  0
    7.1992  -11.5110    0.0000 O   0  0  0  0  0  0  0  0  0  0  0  0
    4.9013   -7.9665    0.0000 O   0  0  0  0  0  0  0  0  0  0  0  0
    4.4164   -8.6339    0.0000 O   0  0  0  0  0  0  0  0  0  0  0  0
    4.9013   -9.3013    0.0000 C   0  0  0  0  0  0  0  0  0  0  0  0
    4.6464  -10.0860    0.0000 C   0  0  0  0  0  0  0  0  0  0  0  0
    4.7913   -8.6826    0.0000 C   0  0  0  0  0  0  0  0  0  0  0  0
    5.0952   -8.2901    0.0000 C   0  0  0  0  0  0  0  0  0  0  0  0
  1  2  1  0  0  0  0
  2  3  1  0  0  0  0
  3  4  1  0  0  0  0
  4  5  1  0  0  0  0
  5  6  1  0  0  0  0
  6  7  1  0  0  0  0
  7  1  1  0  0  0  0
  7  8  1  0  0  0  0
  7  9  1  0  0  0  0
  5 10  1  0  0  0  0
 10 11  1  0  0  0  0
 11 12  2  0  0  0  0
 11 13  1  0  0  0  0
  3 14  1  0  0  0  0
 14 15  1  0  0  0  0
 15 16  1  0  0  0  0
 16  4  1  0  0  0  0
 16 17  1  0  0  0  0
 15 18  2  0  0  0  0
  1 19  1  0  0  0  0
 19 20  1  0  0  0  0
 20 21  1  0  0  0  0
 21  2  1  0  0  0  0
 21 22  1  0  0  0  0
 21 23  1  0  0  0  0
  1 24  1  0  0  0  0
 23 24  2  0  0  0  0
M  END
>  <cdx:fragmentId>
5

$$$$
