50410.cdx
  Mrv1902 05222410192D          

 39 45  0  0  0  0            999 V2000
    7.8272   -7.8864    0.0000 C   0  0  2  0  0  0  0  0  0  0  0  0
    8.5417   -7.4739    0.0000 C   0  0  1  0  0  0  0  0  0  0  0  0
    8.0568   -8.1413    0.0000 C   0  0  0  0  0  0  0  0  0  0  0  0
    8.2735   -8.9373    0.0000 O   0  0  0  0  0  0  0  0  0  0  0  0
    9.0775   -9.1220    0.0000 C   0  0  0  0  0  0  0  0  0  0  0  0
    9.6194   -8.5000    0.0000 C   0  0  0  0  0  0  0  0  0  0  0  0
    9.3263   -7.7288    0.0000 C   0  0  2  0  0  0  0  0  0  0  0  0
    9.8112   -7.0614    0.0000 O   0  0  0  0  0  0  0  0  0  0  0  0
    9.3263   -6.3939    0.0000 C   0  0  0  0  0  0  0  0  0  0  0  0
    8.5417   -6.6489    0.0000 C   0  0  2  0  0  0  0  0  0  0  0  0
    7.8272   -6.2364    0.0000 C   0  0  0  0  0  0  0  0  0  0  0  0
    7.1128   -6.6489    0.0000 C   0  0  0  0  0  0  0  0  0  0  0  0
    7.1128   -7.4739    0.0000 C   0  0  1  0  0  0  0  0  0  0  0  0
    6.3983   -7.8864    0.0000 C   0  0  1  0  0  0  0  0  0  0  0  0
    6.3983   -7.0614    0.0000 O   0  0  0  0  0  0  0  0  0  0  0  0
    5.6838   -7.4739    0.0000 C   0  0  2  0  0  0  0  0  0  0  0  0
    4.9693   -7.8864    0.0000 C   0  0  0  0  0  0  0  0  0  0  0  0
    4.9693   -8.7114    0.0000 O   0  0  0  0  0  0  0  0  0  0  0  0
    5.6838   -9.1239    0.0000 C   0  0  2  0  0  0  0  0  0  0  0  0
    6.3983   -8.7114    0.0000 C   0  0  2  0  0  0  0  0  0  0  0  0
    7.1128   -9.1239    0.0000 C   0  0  2  0  0  0  0  0  0  0  0  0
    7.8272   -8.7114    0.0000 C   0  0  0  0  0  0  0  0  0  0  0  0
    9.3325   -9.9066    0.0000 O   0  0  0  0  0  0  0  0  0  0  0  0
    6.3983   -6.2364    0.0000 O   0  0  0  0  0  0  0  0  0  0  0  0
    4.2549   -7.4739    0.0000 O   0  0  0  0  0  0  0  0  0  0  0  0
    6.3983   -9.5364    0.0000 C   0  0  0  0  0  0  0  0  0  0  0  0
    7.1128   -8.2989    0.0000 C   0  0  0  0  0  0  0  0  0  0  0  0
    9.1548   -5.5870    0.0000 C   0  0  0  0  0  0  0  0  0  0  0  0
    9.9394   -5.8419    0.0000 C   0  0  0  0  0  0  0  0  0  0  0  0
    5.2713  -11.2184    0.0000 O   0  0  0  0  0  0  0  0  0  0  0  0
    5.0164  -10.4338    0.0000 C   0  0  0  0  0  0  0  0  0  0  0  0
    5.6838   -9.9489    0.0000 C   0  0  0  0  0  0  0  0  0  0  0  0
    6.3513  -10.4338    0.0000 C   0  0  0  0  0  0  0  0  0  0  0  0
    6.0963  -11.2184    0.0000 C   0  0  0  0  0  0  0  0  0  0  0  0
    7.8272   -7.0614    0.0000 H   0  0  0  0  0  0  0  0  0  0  0  0
   10.1441   -7.8378    0.0000 H   0  0  0  0  0  0  0  0  0  0  0  0
    8.6279   -5.8284    0.0000 H   0  0  0  0  0  0  0  0  0  0  0  0
    5.2713   -6.7594    0.0000 H   0  0  0  0  0  0  0  0  0  0  0  0
    7.1128   -9.9489    0.0000 O   0  0  0  0  0  0  0  0  0  0  0  0
  1  2  1  0  0  0  0
  2  3  1  1  0  0  0
  3  4  1  0  0  0  0
  4  5  1  0  0  0  0
  5  6  1  0  0  0  0
  6  7  1  0  0  0  0
  7  8  1  0  0  0  0
  8  9  1  0  0  0  0
  9 10  1  0  0  0  0
 10 11  1  0  0  0  0
 11 12  1  0  0  0  0
 12 13  1  0  0  0  0
 13 14  1  0  0  0  0
 14 15  1  1  0  0  0
 15 16  1  0  0  0  0
 16 17  1  0  0  0  0
 17 18  1  0  0  0  0
 18 19  1  0  0  0  0
 19 20  1  0  0  0  0
 20 21  1  0  0  0  0
 21 22  1  0  0  0  0
  1 22  1  0  0  0  0
  1 13  1  0  0  0  0
 14 20  1  0  0  0  0
 14 16  1  0  0  0  0
  2 10  1  0  0  0  0
  2  7  1  0  0  0  0
  5 23  2  0  0  0  0
 12 24  2  0  0  0  0
 17 25  2  0  0  0  0
 20 26  1  6  0  0  0
 13 27  1  1  0  0  0
  9 28  1  0  0  0  0
  9 29  1  0  0  0  0
 30 31  1  0  0  0  0
 31 32  2  0  0  0  0
 32 33  1  0  0  0  0
 33 34  2  0  0  0  0
 30 34  1  0  0  0  0
 19 32  1  6  0  0  0
  1 35  1  6  0  0  0
  7 36  1  6  0  0  0
 10 37  1  6  0  0  0
 16 38  1  6  0  0  0
 21 39  1  6  0  0  0
M  END
>  <cdx:fragmentId>
179

$$$$
