50417.cdx
  Mrv1902 05222410182D          

 15 15  0  0  0  0            999 V2000
    8.2437   -8.8900    0.0000 C   0  0  0  0  0  0  0  0  0  0  0  0
    7.5261   -9.2970    0.0000 C   0  0  0  0  0  0  0  0  0  0  0  0
    6.8148   -8.8791    0.0000 C   0  0  0  0  0  0  0  0  0  0  0  0
    6.8210   -8.0542    0.0000 C   0  0  0  0  0  0  0  0  0  0  0  0
    7.5386   -7.6471    0.0000 C   0  0  0  0  0  0  0  0  0  0  0  0
    8.2499   -8.0650    0.0000 C   0  0  0  0  0  0  0  0  0  0  0  0
    7.5198  -10.1220    0.0000 C   0  0  0  0  0  0  0  0  0  0  0  0
    7.5449   -6.8221    0.0000 C   0  0  0  0  0  0  0  0  0  0  0  0
    6.8335   -6.4042    0.0000 C   0  0  0  0  0  0  0  0  0  0  0  0
    8.2624   -6.4150    0.0000 C   0  0  0  0  0  0  0  0  0  0  0  0
    8.2687   -5.5901    0.0000 C   0  0  0  0  0  0  0  0  0  0  0  0
    8.9863   -5.1830    0.0000 C   0  0  0  0  0  0  0  0  0  0  0  0
    8.9925   -4.3580    0.0000 C   0  0  0  0  0  0  0  0  0  0  0  0
    9.7101   -3.9510    0.0000 C   0  0  0  0  0  0  0  0  0  0  0  0
    8.2812   -3.9401    0.0000 C   0  0  0  0  0  0  0  0  0  0  0  0
  1  2  1  0  0  0  0
  2  3  1  0  0  0  0
  3  4  1  0  0  0  0
  4  5  1  0  0  0  0
  5  6  1  0  0  0  0
  6  1  2  0  0  0  0
  2  7  2  0  0  0  0
  5  8  1  0  0  0  0
  8  9  1  0  0  0  0
  8 10  1  0  0  0  0
 10 11  1  0  0  0  0
 11 12  1  0  0  0  0
 12 13  2  0  0  0  0
 13 14  1  0  0  0  0
 13 15  1  0  0  0  0
M  END
>  <cdx:fragmentId>
5

$$$$
