50411.cdx
  Mrv1902 05222410192D          

 50 57  0  0  0  0            999 V2000
    9.7584   -7.5894    0.0000 C   0  0  2  0  0  0  0  0  0  0  0  0
    9.2735   -8.2568    0.0000 C   0  0  1  0  0  0  0  0  0  0  0  0
    8.4889   -8.0019    0.0000 C   0  0  1  0  0  0  0  0  0  0  0  0
    7.7744   -8.4144    0.0000 C   0  0  2  0  0  0  0  0  0  0  0  0
    7.7744   -9.2394    0.0000 C   0  0  0  0  0  0  0  0  0  0  0  0
    7.0599   -9.6519    0.0000 C   0  0  0  0  0  0  0  0  0  0  0  0
    6.3455   -9.2394    0.0000 C   0  0  1  0  0  0  0  0  0  0  0  0
    5.6310   -9.6519    0.0000 C   0  0  1  0  0  0  0  0  0  0  0  0
    4.9165   -9.2394    0.0000 C   0  0  2  0  0  0  0  0  0  0  0  0
    4.9165   -8.4144    0.0000 C   0  0  0  0  0  0  0  0  0  0  0  0
    5.6310   -8.0019    0.0000 C   0  0  0  0  0  0  0  0  0  0  0  0
    6.3455   -8.4144    0.0000 C   0  0  1  0  0  0  0  0  0  0  0  0
    6.3455   -7.5894    0.0000 C   0  0  0  0  0  0  0  0  0  0  0  0
    7.0599   -8.0019    0.0000 C   0  0  1  0  0  0  0  0  0  0  0  0
    7.0599   -7.1769    0.0000 C   0  0  0  0  0  0  0  0  0  0  0  0
    7.7744   -6.7644    0.0000 C   0  0  2  0  0  0  0  0  0  0  0  0
    8.4889   -7.1769    0.0000 C   0  0  2  0  0  0  0  0  0  0  0  0
    9.2735   -6.9220    0.0000 C   0  0  1  0  0  0  0  0  0  0  0  0
    9.4930   -6.1267    0.0000 C   0  0  1  0  0  0  0  0  0  0  0  0
   10.2516   -5.8024    0.0000 C   0  0  0  0  0  0  0  0  0  0  0  0
   10.9781   -6.1934    0.0000 C   0  0  2  0  0  0  0  0  0  0  0  0
   11.1254   -7.0051    0.0000 C   0  0  2  0  0  0  0  0  0  0  0  0
   10.5826   -7.6264    0.0000 O   0  0  0  0  0  0  0  0  0  0  0  0
    9.9663   -6.5389    0.0000 O   0  0  0  0  0  0  0  0  0  0  0  0
    9.5284   -9.0415    0.0000 O   0  0  0  0  0  0  0  0  0  0  0  0
    4.2021   -9.6519    0.0000 O   0  0  0  0  0  0  0  0  0  0  0  0
    8.8717   -5.5839    0.0000 C   0  0  0  0  0  0  0  0  0  0  0  0
    8.4889   -6.3519    0.0000 C   0  0  0  0  0  0  0  0  0  0  0  0
    6.0435  -10.3664    0.0000 C   0  0  0  0  0  0  0  0  0  0  0  0
    5.2185  -10.3664    0.0000 C   0  0  0  0  0  0  0  0  0  0  0  0
    8.4889   -8.8269    0.0000 C   0  0  0  0  0  0  0  0  0  0  0  0
   11.7071   -8.0215    0.0000 C   0  0  0  0  0  0  0  0  0  0  0  0
   11.9207   -7.2246    0.0000 C   0  0  0  0  0  0  0  0  0  0  0  0
   12.1342   -6.4277    0.0000 C   0  0  0  0  0  0  0  0  0  0  0  0
   12.7159   -7.4441    0.0000 O   0  0  0  0  0  0  0  0  0  0  0  0
    7.7744   -7.5894    0.0000 H   0  0  0  0  0  0  0  0  0  0  0  0
    6.3455  -10.0644    0.0000 H   0  0  0  0  0  0  0  0  0  0  0  0
    8.7853   -6.2569    0.0000 H   0  0  0  0  0  0  0  0  0  0  0  0
   11.6455   -5.7085    0.0000 H   0  0  0  0  0  0  0  0  0  0  0  0
   11.8399   -6.5926    0.0000 H   0  0  0  0  0  0  0  0  0  0  0  0
    7.7744   -5.9394    0.0000 O   0  0  0  0  0  0  0  0  0  0  0  0
    3.4876   -9.2394    0.0000 C   0  0  2  0  0  0  0  0  0  0  0  0
    3.4876   -8.4144    0.0000 O   0  0  0  0  0  0  0  0  0  0  0  0
    2.7731   -8.0019    0.0000 C   0  0  0  0  0  0  0  0  0  0  0  0
    2.0586   -8.4144    0.0000 C   0  0  1  0  0  0  0  0  0  0  0  0
    2.0586   -9.2394    0.0000 C   0  0  1  0  0  0  0  0  0  0  0  0
    2.7731   -9.6519    0.0000 C   0  0  1  0  0  0  0  0  0  0  0  0
    2.7731  -10.4769    0.0000 O   0  0  0  0  0  0  0  0  0  0  0  0
    1.3442   -9.6519    0.0000 O   0  0  0  0  0  0  0  0  0  0  0  0
    1.3442   -8.0019    0.0000 O   0  0  0  0  0  0  0  0  0  0  0  0
  1  2  1  0  0  0  0
  2  3  1  0  0  0  0
  3  4  1  0  0  0  0
  4  5  1  0  0  0  0
  5  6  1  0  0  0  0
  6  7  1  0  0  0  0
  7  8  1  0  0  0  0
  8  9  1  0  0  0  0
  9 10  1  0  0  0  0
 10 11  1  0  0  0  0
 11 12  1  0  0  0  0
 12 13  1  1  0  0  0
 14 13  1  1  0  0  0
 14 15  1  0  0  0  0
 15 16  1  0  0  0  0
 16 17  1  0  0  0  0
 17 18  1  0  0  0  0
 18 19  1  0  0  0  0
 19 20  1  0  0  0  0
 20 21  1  0  0  0  0
 21 22  1  0  0  0  0
 22 23  1  0  0  0  0
  1 23  1  0  0  0  0
  1 24  1  1  0  0  0
 21 24  1  0  0  0  0
  1 18  1  0  0  0  0
  3 17  1  0  0  0  0
 12 14  1  0  0  0  0
  4 14  1  0  0  0  0
  7 12  1  0  0  0  0
  2 25  1  6  0  0  0
  9 26  1  1  0  0  0
 19 27  1  6  0  0  0
 17 28  1  1  0  0  0
  8 29  1  0  0  0  0
  8 30  1  1  0  0  0
  3 31  1  6  0  0  0
 32 33  1  0  0  0  0
 33 34  1  0  0  0  0
 33 35  1  0  0  0  0
 22 33  1  0  0  0  0
  4 36  1  1  0  0  0
  7 37  1  6  0  0  0
 18 38  1  6  0  0  0
 21 39  1  1  0  0  0
 22 40  1  6  0  0  0
 16 41  1  1  0  0  0
 42 26  1  1  0  0  0
 42 43  1  0  0  0  0
 43 44  1  0  0  0  0
 44 45  1  0  0  0  0
 45 46  1  0  0  0  0
 46 47  1  0  0  0  0
 47 42  1  0  0  0  0
 47 48  1  6  0  0  0
 46 49  1  1  0  0  0
 45 50  1  1  0  0  0
M  END
>  <cdx:fragmentId>
74183

$$$$
