50412.cdx
  Mrv1902 05222410202D          

 26 29  0  0  0  0            999 V2000
    4.4943   -7.8501    0.0000 C   0  0  0  0  0  0  0  0  0  0  0  0
    4.4943   -8.6751    0.0000 C   0  0  0  0  0  0  0  0  0  0  0  0
    5.2088   -9.0876    0.0000 C   0  0  0  0  0  0  0  0  0  0  0  0
    5.9232   -8.6751    0.0000 C   0  0  0  0  0  0  0  0  0  0  0  0
    5.9232   -7.8501    0.0000 C   0  0  0  0  0  0  0  0  0  0  0  0
    5.2088   -7.4376    0.0000 C   0  0  0  0  0  0  0  0  0  0  0  0
    6.6377   -9.0876    0.0000 C   0  0  0  0  0  0  0  0  0  0  0  0
    7.3522   -8.6751    0.0000 N   0  3  0  0  0  0  0  0  0  0  0  0
    7.3522   -7.8501    0.0000 C   0  0  0  0  0  0  0  0  0  0  0  0
    6.6377   -7.4376    0.0000 C   0  0  0  0  0  0  0  0  0  0  0  0
    8.0667   -9.0876    0.0000 C   0  0  0  0  0  0  0  0  0  0  0  0
    8.7811   -8.6751    0.0000 C   0  0  0  0  0  0  0  0  0  0  0  0
    8.7811   -7.8501    0.0000 C   0  0  0  0  0  0  0  0  0  0  0  0
    8.0667   -7.4376    0.0000 C   0  0  0  0  0  0  0  0  0  0  0  0
    9.4956   -7.4376    0.0000 C   0  0  0  0  0  0  0  0  0  0  0  0
    9.4956   -6.6126    0.0000 C   0  0  0  0  0  0  0  0  0  0  0  0
    8.7811   -6.2001    0.0000 C   0  0  0  0  0  0  0  0  0  0  0  0
    8.0667   -6.6126    0.0000 C   0  0  0  0  0  0  0  0  0  0  0  0
   10.2101   -6.2001    0.0000 O   0  0  0  0  0  0  0  0  0  0  0  0
   10.9245   -6.6126    0.0000 C   0  0  0  0  0  0  0  0  0  0  0  0
    9.4956   -4.9626    0.0000 C   0  0  0  0  0  0  0  0  0  0  0  0
    8.7811   -5.3751    0.0000 O   0  0  0  0  0  0  0  0  0  0  0  0
    3.7798   -9.0876    0.0000 O   0  0  0  0  0  0  0  0  0  0  0  0
    4.4943  -10.3251    0.0000 C   0  0  0  0  0  0  0  0  0  0  0  0
    5.2088   -9.9126    0.0000 O   0  0  0  0  0  0  0  0  0  0  0  0
    6.6377   -6.6126    0.0000 C   0  0  0  0  0  0  0  0  0  0  0  0
  1  2  1  0  0  0  0
  2  3  2  0  0  0  0
  3  4  1  0  0  0  0
  4  5  1  0  0  0  0
  5  6  1  0  0  0  0
  6  1  2  0  0  0  0
  4  7  2  0  0  0  0
  7  8  1  0  0  0  0
  8  9  2  0  0  0  0
  9 10  1  0  0  0  0
 10  5  2  0  0  0  0
  8 11  1  0  0  0  0
 11 12  1  0  0  0  0
 12 13  1  0  0  0  0
 13 14  2  0  0  0  0
 14  9  1  0  0  0  0
 13 15  1  0  0  0  0
 15 16  2  0  0  0  0
 16 17  1  0  0  0  0
 17 18  2  0  0  0  0
 18 14  1  0  0  0  0
 16 19  1  0  0  0  0
 19 20  1  0  0  0  0
 21 22  1  0  0  0  0
 22 17  1  0  0  0  0
  2 23  1  0  0  0  0
 24 25  1  0  0  0  0
 25  3  1  0  0  0  0
 10 26  1  0  0  0  0
M  CHG  1   8   1
M  END
>  <cdx:fragmentId>
5

$$$$
