50419.cdx
  Mrv1902 05222410272D          

  9  9  0  0  0  0            999 V2000
    4.6318   -8.0701    0.0000 C   0  0  0  0  0  0  0  0  0  0  0  0
    4.6318   -8.8951    0.0000 C   0  0  0  0  0  0  0  0  0  0  0  0
    5.3463   -9.3076    0.0000 C   0  0  0  0  0  0  0  0  0  0  0  0
    6.0607   -8.8951    0.0000 C   0  0  0  0  0  0  0  0  0  0  0  0
    6.0607   -8.0701    0.0000 C   0  0  0  0  0  0  0  0  0  0  0  0
    5.3463   -7.6576    0.0000 C   0  0  0  0  0  0  0  0  0  0  0  0
    6.7752   -7.6576    0.0000 C   0  0  0  0  0  0  0  0  0  0  0  0
    7.4897   -8.0701    0.0000 C   0  0  0  0  0  0  0  0  0  0  0  0
    8.2042   -7.6576    0.0000 C   0  0  0  0  0  0  0  0  0  0  0  0
  1  2  1  0  0  0  0
  2  3  1  0  0  0  0
  3  4  1  0  0  0  0
  4  5  1  0  0  0  0
  5  6  1  0  0  0  0
  6  1  2  0  0  0  0
  5  7  1  0  0  0  0
  7  8  1  0  0  0  0
  8  9  2  0  0  0  0
M  END
>  <cdx:fragmentId>
5

$$$$
