50418.cdx
  Mrv1902 05222410272D          

 17 18  0  0  0  0            999 V2000
    3.2293   -9.1701    0.0000 O   0  0  0  0  0  0  0  0  0  0  0  0
    3.9438   -9.5826    0.0000 C   0  0  0  0  0  0  0  0  0  0  0  0
    4.6582   -9.1701    0.0000 C   0  0  0  0  0  0  0  0  0  0  0  0
    4.6582   -8.3451    0.0000 H   0  0  0  0  0  0  0  0  0  0  0  0
    5.3727   -9.5826    0.0000 C   0  0  0  0  0  0  0  0  0  0  0  0
    6.0872   -9.1701    0.0000 C   0  0  0  0  0  0  0  0  0  0  0  0
    6.0872   -8.3451    0.0000 C   0  0  0  0  0  0  0  0  0  0  0  0
    6.8017   -9.5826    0.0000 C   0  0  0  0  0  0  0  0  0  0  0  0
    7.5161   -9.1701    0.0000 C   0  0  0  0  0  0  0  0  0  0  0  0
    7.5161   -8.3451    0.0000 C   0  0  0  0  0  0  0  0  0  0  0  0
    6.8017   -7.9326    0.0000 C   0  0  0  0  0  0  0  0  0  0  0  0
    8.2306   -9.5826    0.0000 C   0  0  0  0  0  0  0  0  0  0  0  0
    8.9451   -9.1701    0.0000 C   0  0  0  0  0  0  0  0  0  0  0  0
    8.9451   -8.3451    0.0000 C   0  0  0  0  0  0  0  0  0  0  0  0
    8.2306   -7.9326    0.0000 C   0  0  0  0  0  0  0  0  0  0  0  0
    3.9438  -10.4076    0.0000 H   0  0  0  0  0  0  0  0  0  0  0  0
    5.3727  -10.4076    0.0000 H   0  0  0  0  0  0  0  0  0  0  0  0
  1  2  2  0  0  0  0
  2  3  1  0  0  0  0
  3  4  1  0  0  0  0
  3  5  2  0  0  0  0
  5  6  1  0  0  0  0
  6  7  1  0  0  0  0
  6  8  2  0  0  0  0
  8  9  1  0  0  0  0
  9 10  1  0  0  0  0
 10 11  1  0  0  0  0
 11  7  2  0  0  0  0
  9 12  2  0  0  0  0
 12 13  1  0  0  0  0
 13 14  2  0  0  0  0
 14 15  1  0  0  0  0
 15 10  2  0  0  0  0
  2 16  1  0  0  0  0
  5 17  1  0  0  0  0
M  END
>  <cdx:fragmentId>
5

$$$$
