50416.cdx
  Mrv1902 05222410182D          

 37 41  0  0  0  0            999 V2000
    3.1193   -8.6339    0.0000 C   0  0  2  0  0  0  0  0  0  0  0  0
    3.1193   -9.4589    0.0000 C   0  0  1  0  0  0  0  0  0  0  0  0
    3.8338   -9.8714    0.0000 C   0  0  0  0  0  0  0  0  0  0  0  0
    4.5482   -9.4589    0.0000 C   0  0  1  0  0  0  0  0  0  0  0  0
    4.5482   -8.6339    0.0000 C   0  0  2  0  0  0  0  0  0  0  0  0
    3.8338   -8.2214    0.0000 C   0  0  0  0  0  0  0  0  0  0  0  0
    5.2627   -9.8714    0.0000 C   0  0  0  0  0  0  0  0  0  0  0  0
    5.9772   -9.4589    0.0000 C   0  0  0  0  0  0  0  0  0  0  0  0
    5.9772   -8.6339    0.0000 C   0  0  2  0  0  0  0  0  0  0  0  0
    5.2627   -8.2214    0.0000 C   0  0  2  0  0  0  0  0  0  0  0  0
    6.6917   -8.2214    0.0000 C   0  0  1  0  0  0  0  0  0  0  0  0
    6.6917   -7.3964    0.0000 C   0  0  0  0  0  0  0  0  0  0  0  0
    5.9772   -6.9839    0.0000 C   0  0  0  0  0  0  0  0  0  0  0  0
    5.2627   -7.3964    0.0000 C   0  0  0  0  0  0  0  0  0  0  0  0
    7.4061   -8.6339    0.0000 C   0  0  0  0  0  0  0  0  0  0  0  0
    8.1206   -8.2214    0.0000 C   0  0  0  0  0  0  0  0  0  0  0  0
    8.1206   -7.3964    0.0000 C   0  0  2  0  0  0  0  0  0  0  0  0
    7.4061   -6.9839    0.0000 C   0  0  1  0  0  0  0  0  0  0  0  0
    8.8351   -6.9839    0.0000 C   0  0  0  0  0  0  0  0  0  0  0  0
    8.8351   -6.1589    0.0000 C   0  0  0  0  0  0  0  0  0  0  0  0
    8.1206   -5.7464    0.0000 C   0  0  2  0  0  0  0  0  0  0  0  0
    7.4061   -6.1589    0.0000 C   0  0  2  0  0  0  0  0  0  0  0  0
    3.4213  -10.5859    0.0000 C   0  0  0  0  0  0  0  0  0  0  0  0
    4.2463  -10.5859    0.0000 C   0  0  0  0  0  0  0  0  0  0  0  0
    8.8351   -7.8089    0.0000 C   0  0  0  0  0  0  0  0  0  0  0  0
    9.5495   -7.3964    0.0000 O   0  0  0  0  0  0  0  0  0  0  0  0
    8.8351   -8.6339    0.0000 O   0  0  0  0  0  0  0  0  0  0  0  0
    2.4048   -8.2214    0.0000 O   0  0  0  0  0  0  0  0  0  0  0  0
    2.4048   -9.8714    0.0000 O   0  0  0  0  0  0  0  0  0  0  0  0
    4.5482   -7.8089    0.0000 C   0  0  0  0  0  0  0  0  0  0  0  0
    5.9772   -7.8089    0.0000 C   0  0  0  0  0  0  0  0  0  0  0  0
    7.4061   -7.8089    0.0000 H   0  0  0  0  0  0  0  0  0  0  0  0
    6.6917   -5.7464    0.0000 C   0  0  0  0  0  0  0  0  0  0  0  0
    4.5482  -10.2839    0.0000 H   0  0  0  0  0  0  0  0  0  0  0  0
    5.2627   -9.0464    0.0000 H   0  0  0  0  0  0  0  0  0  0  0  0
    6.6917   -9.0464    0.0000 C   0  0  0  0  0  0  0  0  0  0  0  0
    8.1206   -4.9214    0.0000 C   0  0  0  0  0  0  0  0  0  0  0  0
  1  2  1  0  0  0  0
  2  3  1  0  0  0  0
  3  4  1  0  0  0  0
  4  5  1  0  0  0  0
  5  6  1  0  0  0  0
  6  1  1  0  0  0  0
  4  7  1  0  0  0  0
  7  8  1  0  0  0  0
  8  9  1  0  0  0  0
  9 10  1  0  0  0  0
 10  5  1  0  0  0  0
  9 11  1  0  0  0  0
 11 12  1  0  0  0  0
 12 13  2  0  0  0  0
 13 14  1  0  0  0  0
 14 10  1  0  0  0  0
 11 15  1  0  0  0  0
 15 16  1  0  0  0  0
 16 17  1  0  0  0  0
 17 18  1  0  0  0  0
 18 12  1  0  0  0  0
 17 19  1  0  0  0  0
 19 20  1  0  0  0  0
 20 21  1  0  0  0  0
 21 22  1  0  0  0  0
 22 18  1  0  0  0  0
  3 23  1  0  0  0  0
  3 24  1  0  0  0  0
 17 25  1  1  0  0  0
 25 26  1  0  0  0  0
 25 27  2  0  0  0  0
  1 28  1  1  0  0  0
  2 29  1  1  0  0  0
  5 30  1  1  0  0  0
  9 31  1  1  0  0  0
 18 32  1  1  0  0  0
 22 33  1  1  0  0  0
  4 34  1  6  0  0  0
 10 35  1  6  0  0  0
 11 36  1  6  0  0  0
 21 37  1  6  0  0  0
M  END
>  <cdx:fragmentId>
5

$$$$
