50424.cdx
  Mrv1902 05222410272D          

 25 27  0  0  0  0            999 V2000
    2.4181   -7.8364    0.0000 C   0  0  0  0  0  0  0  0  0  0  0  0
    3.1325   -9.0739    0.0000 O   0  0  0  0  0  0  0  0  0  0  0  0
    3.8470   -8.6614    0.0000 C   0  0  0  0  0  0  0  0  0  0  0  0
    3.8470   -7.8364    0.0000 C   0  0  0  0  0  0  0  0  0  0  0  0
    3.1325   -7.4239    0.0000 O   0  0  0  0  0  0  0  0  0  0  0  0
    4.5615   -9.0739    0.0000 C   0  0  0  0  0  0  0  0  0  0  0  0
    5.2759   -8.6614    0.0000 C   0  0  0  0  0  0  0  0  0  0  0  0
    5.2759   -7.8364    0.0000 C   0  0  0  0  0  0  0  0  0  0  0  0
    4.5615   -7.4239    0.0000 C   0  0  0  0  0  0  0  0  0  0  0  0
    5.9904   -7.4239    0.0000 C   0  0  0  0  0  0  0  0  0  0  0  0
    5.9904   -6.5989    0.0000 C   0  0  0  0  0  0  0  0  0  0  0  0
    5.2759   -6.1864    0.0000 O   0  0  0  0  0  0  0  0  0  0  0  0
    4.5615   -6.5989    0.0000 C   0  0  0  0  0  0  0  0  0  0  0  0
    6.7049   -7.8364    0.0000 O   0  0  0  0  0  0  0  0  0  0  0  0
    7.4194   -7.4239    0.0000 C   0  0  0  0  0  0  0  0  0  0  0  0
    7.4194   -6.5989    0.0000 C   0  0  0  0  0  0  0  0  0  0  0  0
    6.7049   -6.1864    0.0000 C   0  0  0  0  0  0  0  0  0  0  0  0
    8.1338   -7.8364    0.0000 C   0  0  0  0  0  0  0  0  0  0  0  0
    8.8483   -7.4239    0.0000 C   0  0  0  0  0  0  0  0  0  0  0  0
    8.8483   -6.5989    0.0000 C   0  0  0  0  0  0  0  0  0  0  0  0
    8.1338   -6.1864    0.0000 C   0  0  0  0  0  0  0  0  0  0  0  0
    3.1325   -9.8989    0.0000 C   0  0  0  0  0  0  0  0  0  0  0  0
    6.7049   -5.3614    0.0000 O   0  0  0  0  0  0  0  0  0  0  0  0
    8.1338   -5.3614    0.0000 O   0  0  0  0  0  0  0  0  0  0  0  0
    9.5628   -7.8364    0.0000 O   0  0  0  0  0  0  0  0  0  0  0  0
  2  3  1  0  0  0  0
  3  4  1  0  0  0  0
  4  5  1  0  0  0  0
  5  1  1  0  0  0  0
  3  6  2  0  0  0  0
  6  7  1  0  0  0  0
  7  8  2  0  0  0  0
  8  9  1  0  0  0  0
  9  4  2  0  0  0  0
  8 10  1  0  0  0  0
 10 11  2  0  0  0  0
 11 12  1  0  0  0  0
 12 13  1  0  0  0  0
 10 14  1  0  0  0  0
 14 15  1  0  0  0  0
 15 16  2  0  0  0  0
 16 17  1  0  0  0  0
 17 11  1  0  0  0  0
 15 18  1  0  0  0  0
 18 19  2  0  0  0  0
 19 20  1  0  0  0  0
 20 21  2  0  0  0  0
 21 16  1  0  0  0  0
  2 22  1  0  0  0  0
 17 23  2  0  0  0  0
 21 24  1  0  0  0  0
 19 25  1  0  0  0  0
M  END
>  <cdx:fragmentId>
5

$$$$
