50429.cdx
  Mrv1902 05222410192D          

 16 17  0  0  0  0            999 V2000
    6.2681   -6.6401    0.0000 C   0  0  0  0  0  0  0  0  0  0  0  0
    6.2681   -7.4651    0.0000 C   0  0  0  0  0  0  0  0  0  0  0  0
    6.9825   -7.8776    0.0000 C   0  0  0  0  0  0  0  0  0  0  0  0
    7.6970   -7.4651    0.0000 C   0  0  0  0  0  0  0  0  0  0  0  0
    7.6970   -6.6401    0.0000 C   0  0  0  0  0  0  0  0  0  0  0  0
    6.9825   -6.2276    0.0000 C   0  0  0  0  0  0  0  0  0  0  0  0
    6.9825   -8.7026    0.0000 C   0  0  0  0  0  0  0  0  0  0  0  0
    6.2681   -9.1151    0.0000 C   0  0  0  0  0  0  0  0  0  0  0  0
    6.2681   -9.9401    0.0000 C   0  0  0  0  0  0  0  0  0  0  0  0
    6.9825  -10.3526    0.0000 C   0  0  0  0  0  0  0  0  0  0  0  0
    7.6970   -9.9401    0.0000 C   0  0  0  0  0  0  0  0  0  0  0  0
    7.6970   -9.1151    0.0000 C   0  0  0  0  0  0  0  0  0  0  0  0
    8.4115   -6.2276    0.0000 O   0  0  0  0  0  0  0  0  0  0  0  0
    8.4115   -5.4026    0.0000 C   0  0  0  0  0  0  0  0  0  0  0  0
    5.5536  -10.3526    0.0000 O   0  0  0  0  0  0  0  0  0  0  0  0
    5.5536  -11.1776    0.0000 C   0  0  0  0  0  0  0  0  0  0  0  0
  1  2  2  0  0  0  0
  2  3  1  0  0  0  0
  3  4  2  0  0  0  0
  4  5  1  0  0  0  0
  5  6  2  0  0  0  0
  6  1  1  0  0  0  0
  3  7  1  0  0  0  0
  7  8  2  0  0  0  0
  8  9  1  0  0  0  0
  9 10  2  0  0  0  0
 10 11  1  0  0  0  0
 11 12  2  0  0  0  0
 12  7  1  0  0  0  0
  5 13  1  0  0  0  0
 13 14  1  0  0  0  0
  9 15  1  0  0  0  0
 15 16  1  0  0  0  0
M  END
>  <cdx:fragmentId>
5

$$$$
