50426.cdx
  Mrv1902 05222410282D          

 34 38  0  0  0  0            999 V2000
    3.9442   -6.4666    0.0000 C   0  0  0  0  0  0  0  0  0  0  0  0
    4.6603   -6.0570    0.0000 O   0  0  0  0  0  0  0  0  0  0  0  0
    4.6504   -8.5320    0.0000 C   0  0  0  0  0  0  0  0  0  0  0  0
    4.6537   -7.7070    0.0000 O   0  0  0  0  0  0  0  0  0  0  0  0
    6.8120   -4.0031    0.0000 O   0  0  0  0  0  0  0  0  0  0  0  0
    9.6666   -4.8396    0.0000 O   0  0  0  0  0  0  0  0  0  0  0  0
    9.6599   -7.3146    0.0000 C   0  0  0  0  0  0  0  0  0  0  0  0
    9.6599   -6.4896    0.0000 O   0  0  0  0  0  0  0  0  0  0  0  0
    7.5082   -8.5435    0.0000 O   0  0  0  0  0  0  0  0  0  0  0  0
    6.8087   -4.8281    0.0000 C   0  0  0  0  0  0  0  0  0  0  0  0
    6.0926   -5.2377    0.0000 O   0  0  0  0  0  0  0  0  0  0  0  0
    6.0893   -6.0627    0.0000 C   0  0  0  0  0  0  0  0  0  0  0  0
    5.3731   -6.4724    0.0000 C   0  0  0  0  0  0  0  0  0  0  0  0
    5.3698   -7.2974    0.0000 C   0  0  0  0  0  0  0  0  0  0  0  0
    6.0826   -7.7127    0.0000 C   0  0  0  0  0  0  0  0  0  0  0  0
    8.9471   -6.0742    0.0000 C   0  0  0  0  0  0  0  0  0  0  0  0
    8.9504   -5.2493    0.0000 C   0  0  0  0  0  0  0  0  0  0  0  0
    8.2376   -4.8339    0.0000 C   0  0  0  0  0  0  0  0  0  0  0  0
    7.5215   -5.2435    0.0000 C   0  0  0  0  0  0  0  0  0  0  0  0
    8.2277   -7.3089    0.0000 O   0  0  0  0  0  0  0  0  0  0  0  0
    8.2310   -6.4839    0.0000 C   0  0  0  0  0  0  0  0  0  0  0  0
    7.5182   -6.0685    0.0000 C   0  0  0  0  0  0  0  0  0  0  0  0
    6.8021   -6.4781    0.0000 C   0  0  0  0  0  0  0  0  0  0  0  0
    6.7987   -7.3031    0.0000 C   0  0  0  0  0  0  0  0  0  0  0  0
    7.5116   -7.7185    0.0000 C   0  0  0  0  0  0  0  0  0  0  0  0
   10.3794   -5.2550    0.0000 C   0  0  2  0  0  0  0  0  0  0  0  0
   10.3744   -6.0800    0.0000 O   0  0  0  0  0  0  0  0  0  0  0  0
   11.0864   -6.4968    0.0000 C   0  0  0  0  0  0  0  0  0  0  0  0
   11.8033   -6.0800    0.0000 C   0  0  2  0  0  0  0  0  0  0  0  0
   11.8033   -5.2550    0.0000 C   0  0  1  0  0  0  0  0  0  0  0  0
   11.0864   -4.8382    0.0000 C   0  0  1  0  0  0  0  0  0  0  0  0
   11.0839   -4.0132    0.0000 O   0  0  0  0  0  0  0  0  0  0  0  0
   12.5184   -4.8436    0.0000 O   0  0  0  0  0  0  0  0  0  0  0  0
   12.5184   -6.4914    0.0000 O   0  0  0  0  0  0  0  0  0  0  0  0
  2  1  1  0  0  0  0
 13  2  1  0  0  0  0
  4  3  1  0  0  0  0
 14  4  1  0  0  0  0
 10  5  2  0  0  0  0
 17  6  1  0  0  0  0
  8  7  1  0  0  0  0
 16  8  1  0  0  0  0
 25  9  2  0  0  0  0
 10 19  1  0  0  0  0
 11 10  1  0  0  0  0
 12 11  1  0  0  0  0
 12 23  2  0  0  0  0
 13 12  1  0  0  0  0
 14 13  2  0  0  0  0
 15 14  1  0  0  0  0
 24 15  2  0  0  0  0
 16 21  2  0  0  0  0
 17 16  1  0  0  0  0
 18 17  2  0  0  0  0
 19 18  1  0  0  0  0
 22 19  2  0  0  0  0
 20 25  1  0  0  0  0
 21 20  1  0  0  0  0
 22 21  1  0  0  0  0
 23 22  1  0  0  0  0
 24 23  1  0  0  0  0
 25 24  1  0  0  0  0
 26  6  1  1  0  0  0
 26 27  1  0  0  0  0
 27 28  1  0  0  0  0
 28 29  1  0  0  0  0
 29 30  1  0  0  0  0
 30 31  1  0  0  0  0
 31 26  1  0  0  0  0
 31 32  1  6  0  0  0
 30 33  1  1  0  0  0
 29 34  1  6  0  0  0
M  END
>  <cdx:fragmentId>
156

$$$$
