50421.cdx
  Mrv1902 05222410272D          

 47 51  0  0  0  0            999 V2000
    5.9656   -4.1376    0.0000 C   0  0  0  0  0  0  0  0  0  0  0  0
    5.9656   -4.9626    0.0000 C   0  0  0  0  0  0  0  0  0  0  0  0
    6.6800   -5.3751    0.0000 C   0  0  0  0  0  0  0  0  0  0  0  0
    7.3945   -4.9626    0.0000 C   0  0  0  0  0  0  0  0  0  0  0  0
    7.3945   -4.1376    0.0000 C   0  0  0  0  0  0  0  0  0  0  0  0
    6.6800   -3.7251    0.0000 C   0  0  0  0  0  0  0  0  0  0  0  0
    6.6800   -6.2001    0.0000 C   0  0  0  0  0  0  0  0  0  0  0  0
    7.3945   -6.6126    0.0000 C   0  0  0  0  0  0  0  0  0  0  0  0
    8.1090   -6.2001    0.0000 C   0  0  0  0  0  0  0  0  0  0  0  0
    8.1090   -5.3751    0.0000 O   0  0  0  0  0  0  0  0  0  0  0  0
    7.3945   -7.4376    0.0000 O   0  0  0  0  0  0  0  0  0  0  0  0
    8.8234   -7.4376    0.0000 C   0  0  0  0  0  0  0  0  0  0  0  0
    8.8234   -6.6126    0.0000 C   0  0  0  0  0  0  0  0  0  0  0  0
    9.5379   -7.8501    0.0000 C   0  0  0  0  0  0  0  0  0  0  0  0
   10.2524   -7.4376    0.0000 C   0  0  0  0  0  0  0  0  0  0  0  0
   10.2524   -6.6126    0.0000 C   0  0  0  0  0  0  0  0  0  0  0  0
    9.5379   -6.2001    0.0000 C   0  0  0  0  0  0  0  0  0  0  0  0
    6.6800   -7.8501    0.0000 C   0  0  1  0  0  0  0  0  0  0  0  0
    6.6800   -8.6751    0.0000 C   0  0  2  0  0  0  0  0  0  0  0  0
    7.3945   -9.0876    0.0000 O   0  0  0  0  0  0  0  0  0  0  0  0
    5.9656   -9.0876    0.0000 C   0  0  2  0  0  0  0  0  0  0  0  0
    5.9656   -9.9126    0.0000 O   0  0  0  0  0  0  0  0  0  0  0  0
    5.2511  -10.3251    0.0000 C   0  0  0  0  0  0  0  0  0  0  0  0
    5.2511  -11.1501    0.0000 C   0  0  0  0  0  0  0  0  0  0  0  0
    5.9656   -6.6126    0.0000 O   0  0  0  0  0  0  0  0  0  0  0  0
    5.9656   -7.4376    0.0000 O   0  0  0  0  0  0  0  0  0  0  0  0
    5.2511   -7.8501    0.0000 C   0  0  2  0  0  0  0  0  0  0  0  0
    5.2511   -8.6751    0.0000 C   0  0  2  0  0  0  0  0  0  0  0  0
    5.2511   -5.3751    0.0000 O   0  0  0  0  0  0  0  0  0  0  0  0
    6.6800   -2.9001    0.0000 O   0  0  0  0  0  0  0  0  0  0  0  0
   10.9669   -6.2001    0.0000 O   0  0  0  0  0  0  0  0  0  0  0  0
   10.9669   -7.8501    0.0000 O   0  0  0  0  0  0  0  0  0  0  0  0
    4.5366   -9.9126    0.0000 O   0  0  0  0  0  0  0  0  0  0  0  0
    5.9656  -11.5626    0.0000 H   0  0  0  0  0  0  0  0  0  0  0  0
    4.5366  -11.5626    0.0000 C   0  0  0  0  0  0  0  0  0  0  0  0
    3.8221  -11.1501    0.0000 H   0  0  0  0  0  0  0  0  0  0  0  0
    4.5366  -12.3876    0.0000 C   0  0  0  0  0  0  0  0  0  0  0  0
    3.8221  -12.8001    0.0000 C   0  0  0  0  0  0  0  0  0  0  0  0
    3.8221  -13.6251    0.0000 C   0  0  0  0  0  0  0  0  0  0  0  0
    4.5366  -14.0376    0.0000 C   0  0  0  0  0  0  0  0  0  0  0  0
    5.2511  -13.6251    0.0000 C   0  0  0  0  0  0  0  0  0  0  0  0
    5.2511  -12.8001    0.0000 C   0  0  0  0  0  0  0  0  0  0  0  0
    4.5366  -14.8626    0.0000 O   0  0  0  0  0  0  0  0  0  0  0  0
    3.1077  -14.0376    0.0000 O   0  0  0  0  0  0  0  0  0  0  0  0
    2.3932  -13.6251    0.0000 C   0  0  0  0  0  0  0  0  0  0  0  0
    4.5366   -9.0876    0.0000 O   0  0  0  0  0  0  0  0  0  0  0  0
    4.5366   -7.4376    0.0000 C   0  0  0  0  0  0  0  0  0  0  0  0
  1  2  1  0  0  0  0
  2  3  2  0  0  0  0
  3  4  1  0  0  0  0
  4  5  2  0  0  0  0
  5  6  1  0  0  0  0
  6  1  2  0  0  0  0
  3  7  1  0  0  0  0
  7  8  1  0  0  0  0
  8  9  2  0  0  0  0
  9 10  1  0  0  0  0
 10  4  1  0  0  0  0
  8 11  1  0  0  0  0
 12 13  1  0  0  0  0
 13  9  1  0  0  0  0
 12 14  2  0  0  0  0
 14 15  1  0  0  0  0
 15 16  2  0  0  0  0
 16 17  1  0  0  0  0
 17 13  2  0  0  0  0
 18 11  1  1  0  0  0
 18 19  1  0  0  0  0
 19 20  1  6  0  0  0
 19 21  1  0  0  0  0
 21 22  1  6  0  0  0
 22 23  1  0  0  0  0
 23 24  1  0  0  0  0
  7 25  2  0  0  0  0
 26 18  1  0  0  0  0
 26 27  1  0  0  0  0
 27 28  1  0  0  0  0
 28 21  1  0  0  0  0
  2 29  1  0  0  0  0
  6 30  1  0  0  0  0
 16 31  1  0  0  0  0
 15 32  1  0  0  0  0
 23 33  2  0  0  0  0
 24 34  1  0  0  0  0
 24 35  2  0  0  0  0
 35 36  1  0  0  0  0
 35 37  1  0  0  0  0
 37 38  2  0  0  0  0
 38 39  1  0  0  0  0
 39 40  2  0  0  0  0
 40 41  1  0  0  0  0
 41 42  2  0  0  0  0
 42 37  1  0  0  0  0
 40 43  1  0  0  0  0
 39 44  1  0  0  0  0
 44 45  1  0  0  0  0
 28 46  1  1  0  0  0
 27 47  1  6  0  0  0
M  END
>  <cdx:fragmentId>
5

$$$$
