50423.cdx
  Mrv1902 05222410262D          

 11 11  0  0  0  0            999 V2000
    5.9518   -8.2076    0.0000 C   0  0  0  0  0  0  0  0  0  0  0  0
    5.9518   -9.0326    0.0000 C   0  0  0  0  0  0  0  0  0  0  0  0
    6.6663   -9.4451    0.0000 C   0  0  0  0  0  0  0  0  0  0  0  0
    7.3807   -9.0326    0.0000 C   0  0  0  0  0  0  0  0  0  0  0  0
    7.3807   -8.2076    0.0000 C   0  0  0  0  0  0  0  0  0  0  0  0
    6.6663   -7.7951    0.0000 C   0  0  0  0  0  0  0  0  0  0  0  0
    5.2373   -9.4451    0.0000 S   0  0  0  0  0  0  0  0  0  0  0  0
    5.2373  -10.2701    0.0000 C   0  0  0  0  0  0  0  0  0  0  0  0
    6.6663   -6.9701    0.0000 N   0  0  0  0  0  0  0  0  0  0  0  0
    7.3807   -6.5576    0.0000 C   0  0  0  0  0  0  0  0  0  0  0  0
    8.0952   -6.1451    0.0000 S   0  0  0  0  0  0  0  0  0  0  0  0
  1  2  2  0  0  0  0
  2  3  1  0  0  0  0
  3  4  2  0  0  0  0
  4  5  1  0  0  0  0
  5  6  2  0  0  0  0
  6  1  1  0  0  0  0
  2  7  1  0  0  0  0
  7  8  1  0  0  0  0
  6  9  1  0  0  0  0
  9 10  2  0  0  0  0
 10 11  2  0  0  0  0
M  END
>  <cdx:fragmentId>
5

$$$$
