50420.cdx
  Mrv1902 05222410272D          

 14 14  0  0  0  0            999 V2000
    6.2268  -12.8276    0.0000 C   0  0  0  0  0  0  0  0  0  0  0  0
    6.2268  -13.6526    0.0000 C   0  0  0  0  0  0  0  0  0  0  0  0
    6.9413  -14.0651    0.0000 C   0  0  0  0  0  0  0  0  0  0  0  0
    7.6557  -13.6526    0.0000 C   0  0  0  0  0  0  0  0  0  0  0  0
    7.6557  -12.8276    0.0000 C   0  0  0  0  0  0  0  0  0  0  0  0
    6.9413  -12.4151    0.0000 C   0  0  0  0  0  0  0  0  0  0  0  0
    6.9413  -11.5901    0.0000 C   0  0  0  0  0  0  0  0  0  0  0  0
    6.9413  -10.7651    0.0000 C   0  0  0  0  0  0  0  0  0  0  0  0
    6.9413   -9.9401    0.0000 C   0  0  0  0  0  0  0  0  0  0  0  0
    7.6557   -9.5276    0.0000 O   0  0  0  0  0  0  0  0  0  0  0  0
    6.2268   -9.5276    0.0000 C   0  0  0  0  0  0  0  0  0  0  0  0
    7.6557   -8.7026    0.0000 C   0  0  0  0  0  0  0  0  0  0  0  0
    8.3702   -8.2901    0.0000 C   0  0  0  0  0  0  0  0  0  0  0  0
    6.9413   -8.2901    0.0000 O   0  0  0  0  0  0  0  0  0  0  0  0
  1  2  1  0  0  0  0
  2  3  1  0  0  0  0
  3  4  1  0  0  0  0
  4  5  1  0  0  0  0
  5  6  2  0  0  0  0
  6  1  1  0  0  0  0
  6  7  1  0  0  0  0
  7  8  3  0  0  0  0
  8  9  1  0  0  0  0
  9 10  1  0  0  0  0
  9 11  1  0  0  0  0
 10 12  1  0  0  0  0
 12 13  1  0  0  0  0
 12 14  2  0  0  0  0
M  END
>  <cdx:fragmentId>
5

$$$$
