50436.cdx
  Mrv1902 05222410262D          

 11 11  0  0  0  0            999 V2000
    5.9243   -8.9639    0.0000 C   0  0  0  0  0  0  0  0  0  0  0  0
    5.9243   -9.7889    0.0000 C   0  0  0  0  0  0  0  0  0  0  0  0
    6.6388  -10.2014    0.0000 C   0  0  0  0  0  0  0  0  0  0  0  0
    7.3532   -9.7889    0.0000 C   0  0  0  0  0  0  0  0  0  0  0  0
    7.3532   -8.9639    0.0000 C   0  0  0  0  0  0  0  0  0  0  0  0
    6.6388   -8.5514    0.0000 C   0  0  0  0  0  0  0  0  0  0  0  0
    5.2098   -8.5514    0.0000 C   0  0  0  0  0  0  0  0  0  0  0  0
    4.4954   -8.9639    0.0000 C   0  0  0  0  0  0  0  0  0  0  0  0
    6.2263   -7.8369    0.0000 C   0  0  0  0  0  0  0  0  0  0  0  0
    7.0513   -7.8369    0.0000 C   0  0  0  0  0  0  0  0  0  0  0  0
    7.8763   -7.8369    0.0000 C   0  0  0  0  0  0  0  0  0  0  0  0
  1  2  1  0  0  0  0
  2  3  1  0  0  0  0
  3  4  1  0  0  0  0
  4  5  2  0  0  0  0
  5  6  1  0  0  0  0
  6  1  1  0  0  0  0
  1  7  1  0  0  0  0
  7  8  2  0  0  0  0
  6  9  1  0  0  0  0
  6 10  1  0  0  0  0
 10 11  2  0  0  0  0
M  END
>  <cdx:fragmentId>
5

$$$$
