50432.cdx
  Mrv1902 05222410282D          

 33 37  0  0  0  0            999 V2000
    3.6693   -9.6007    0.0000 O   0  0  0  0  0  0  0  0  0  0  0  0
    2.9389   -8.3633    0.0000 C   0  0  0  0  0  0  0  0  0  0  0  0
    3.6534   -7.9508    0.0000 O   0  0  0  0  0  0  0  0  0  0  0  0
    5.7768   -5.8677    0.0000 O   0  0  0  0  0  0  0  0  0  0  0  0
    6.5350  -10.3981    0.0000 O   0  0  0  0  0  0  0  0  0  0  0  0
    8.6664   -9.1400    0.0000 C   0  0  0  0  0  0  0  0  0  0  0  0
    8.6584   -8.3150    0.0000 O   0  0  0  0  0  0  0  0  0  0  0  0
    8.6425   -6.6651    0.0000 O   0  0  0  0  0  0  0  0  0  0  0  0
    4.3718   -8.3564    0.0000 C   0  0  0  0  0  0  0  0  0  0  0  0
    4.3798   -9.1813    0.0000 C   0  0  0  0  0  0  0  0  0  0  0  0
    5.0982   -9.5869    0.0000 C   0  0  0  0  0  0  0  0  0  0  0  0
    5.8086   -9.1675    0.0000 C   0  0  0  0  0  0  0  0  0  0  0  0
    6.5270   -9.5731    0.0000 C   0  0  0  0  0  0  0  0  0  0  0  0
    7.2375   -9.1538    0.0000 O   0  0  0  0  0  0  0  0  0  0  0  0
    5.7848   -6.6927    0.0000 C   0  0  0  0  0  0  0  0  0  0  0  0
    5.0743   -7.1120    0.0000 O   0  0  0  0  0  0  0  0  0  0  0  0
    5.0823   -7.9370    0.0000 C   0  0  0  0  0  0  0  0  0  0  0  0
    5.8007   -8.3426    0.0000 C   0  0  0  0  0  0  0  0  0  0  0  0
    6.5032   -7.0983    0.0000 C   0  0  0  0  0  0  0  0  0  0  0  0
    6.5111   -7.9232    0.0000 C   0  0  0  0  0  0  0  0  0  0  0  0
    7.2296   -8.3288    0.0000 C   0  0  0  0  0  0  0  0  0  0  0  0
    7.9400   -7.9094    0.0000 C   0  0  0  0  0  0  0  0  0  0  0  0
    7.9321   -7.0845    0.0000 C   0  0  0  0  0  0  0  0  0  0  0  0
    7.2136   -6.6789    0.0000 C   0  0  0  0  0  0  0  0  0  0  0  0
    9.3609   -7.0707    0.0000 C   0  0  2  0  0  0  0  0  0  0  0  0
    9.3729   -7.8956    0.0000 O   0  0  0  0  0  0  0  0  0  0  0  0
   10.0933   -8.2977    0.0000 C   0  0  0  0  0  0  0  0  0  0  0  0
   10.8017   -7.8956    0.0000 C   0  0  2  0  0  0  0  0  0  0  0  0
   10.8017   -7.0707    0.0000 C   0  0  1  0  0  0  0  0  0  0  0  0
   10.0933   -6.6686    0.0000 C   0  0  1  0  0  0  0  0  0  0  0  0
   11.5146   -6.6556    0.0000 O   0  0  0  0  0  0  0  0  0  0  0  0
   11.5146   -8.3107    0.0000 O   0  0  0  0  0  0  0  0  0  0  0  0
   10.0991   -5.8436    0.0000 O   0  0  0  0  0  0  0  0  0  0  0  0
 10  1  1  0  0  0  0
  3  2  1  0  0  0  0
  9  3  1  0  0  0  0
 15  4  2  0  0  0  0
 13  5  2  0  0  0  0
  7  6  1  0  0  0  0
 22  7  1  0  0  0  0
 23  8  1  0  0  0  0
  9 17  1  0  0  0  0
 10  9  2  0  0  0  0
 11 10  1  0  0  0  0
 12 11  2  0  0  0  0
 12 18  1  0  0  0  0
 13 12  1  0  0  0  0
 14 13  1  0  0  0  0
 21 14  1  0  0  0  0
 15 19  1  0  0  0  0
 16 15  1  0  0  0  0
 17 16  1  0  0  0  0
 18 17  2  0  0  0  0
 20 18  1  0  0  0  0
 19 24  1  0  0  0  0
 20 19  2  0  0  0  0
 21 20  1  0  0  0  0
 22 21  2  0  0  0  0
 23 22  1  0  0  0  0
 24 23  2  0  0  0  0
 25  8  1  1  0  0  0
 25 26  1  0  0  0  0
 26 27  1  0  0  0  0
 27 28  1  0  0  0  0
 28 29  1  0  0  0  0
 29 30  1  0  0  0  0
 30 25  1  0  0  0  0
 29 31  1  1  0  0  0
 28 32  1  6  0  0  0
 30 33  1  6  0  0  0
M  END
>  <cdx:fragmentId>
171

$$$$
