50430.cdx
  Mrv1902 05222410272D          

  9  9  0  0  0  0            999 V2000
    7.1343   -9.4451    0.0000 C   0  0  0  0  0  0  0  0  0  0  0  0
    7.1343  -10.2701    0.0000 C   0  0  0  0  0  0  0  0  0  0  0  0
    7.8488  -10.6826    0.0000 C   0  0  0  0  0  0  0  0  0  0  0  0
    8.5632  -10.2701    0.0000 C   0  0  0  0  0  0  0  0  0  0  0  0
    8.5632   -9.4451    0.0000 C   0  0  0  0  0  0  0  0  0  0  0  0
    7.8488   -9.0326    0.0000 C   0  0  0  0  0  0  0  0  0  0  0  0
    7.8488  -11.5076    0.0000 C   0  0  0  0  0  0  0  0  0  0  0  0
    7.4363   -8.3182    0.0000 C   0  0  0  0  0  0  0  0  0  0  0  0
    8.2613   -8.3182    0.0000 C   0  0  0  0  0  0  0  0  0  0  0  0
  1  2  1  0  0  0  0
  2  3  1  0  0  0  0
  3  4  1  0  0  0  0
  4  5  2  0  0  0  0
  5  6  1  0  0  0  0
  6  1  1  0  0  0  0
  3  7  2  0  0  0  0
  6  8  1  0  0  0  0
  6  9  1  0  0  0  0
M  END
>  <cdx:fragmentId>
5

$$$$
