50439.cdx
  Mrv1902 05222410192D          

 35 38  0  0  0  0            999 V2000
    6.1718   -9.8101    0.0000 C   0  0  0  0  0  0  0  0  0  0  0  0
    6.1718   -8.9851    0.0000 C   0  0  0  0  0  0  0  0  0  0  0  0
    6.8863   -8.5726    0.0000 C   0  0  0  0  0  0  0  0  0  0  0  0
    7.6007   -8.9851    0.0000 C   0  0  0  0  0  0  0  0  0  0  0  0
    7.6007   -9.8101    0.0000 C   0  0  0  0  0  0  0  0  0  0  0  0
    6.8863  -10.2226    0.0000 C   0  0  0  0  0  0  0  0  0  0  0  0
    8.3152   -8.5726    0.0000 O   0  0  0  0  0  0  0  0  0  0  0  0
    9.0297   -8.9851    0.0000 C   0  0  0  0  0  0  0  0  0  0  0  0
    9.0297   -9.8101    0.0000 C   0  0  0  0  0  0  0  0  0  0  0  0
    8.3152  -10.2226    0.0000 C   0  0  0  0  0  0  0  0  0  0  0  0
    9.7442   -8.5726    0.0000 C   0  0  0  0  0  0  0  0  0  0  0  0
   10.4586   -8.9851    0.0000 C   0  0  0  0  0  0  0  0  0  0  0  0
    9.7442   -7.7476    0.0000 C   0  0  0  0  0  0  0  0  0  0  0  0
   10.4586   -7.3351    0.0000 C   0  0  0  0  0  0  0  0  0  0  0  0
   11.1731   -7.7476    0.0000 C   0  0  0  0  0  0  0  0  0  0  0  0
   11.1731   -8.5726    0.0000 C   0  0  0  0  0  0  0  0  0  0  0  0
    8.3152  -11.0476    0.0000 O   0  0  0  0  0  0  0  0  0  0  0  0
   11.8876   -8.9851    0.0000 O   0  0  0  0  0  0  0  0  0  0  0  0
   11.8876   -7.3351    0.0000 O   0  0  0  0  0  0  0  0  0  0  0  0
    6.8863  -11.0476    0.0000 O   0  0  0  0  0  0  0  0  0  0  0  0
    6.1718  -11.4601    0.0000 C   0  0  0  0  0  0  0  0  0  0  0  0
    5.4573  -10.2226    0.0000 O   0  0  0  0  0  0  0  0  0  0  0  0
    4.7429   -9.8101    0.0000 C   0  0  0  0  0  0  0  0  0  0  0  0
    6.8460   -5.2532    0.0000 O   0  0  0  0  0  0  0  0  0  0  0  0
    5.4171   -5.2710    0.0000 O   0  0  0  0  0  0  0  0  0  0  0  0
    4.0192   -7.7637    0.0000 O   0  0  0  0  0  0  0  0  0  0  0  0
    3.9986   -6.1138    0.0000 O   0  0  0  0  0  0  0  0  0  0  0  0
    6.8563   -6.0781    0.0000 C   0  0  0  0  0  0  0  0  0  0  0  0
    6.1573   -7.3244    0.0000 O   0  0  0  0  0  0  0  0  0  0  0  0
    5.4481   -7.7458    0.0000 C   0  0  2  0  0  0  0  0  0  0  0  0
    4.7285   -7.3423    0.0000 C   0  0  1  0  0  0  0  0  0  0  0  0
    4.7182   -6.5173    0.0000 C   0  0  2  0  0  0  0  0  0  0  0  0
    5.4274   -6.0959    0.0000 C   0  0  1  0  0  0  0  0  0  0  0  0
    6.1470   -6.4995    0.0000 C   0  0  1  0  0  0  0  0  0  0  0  0
    5.4573   -8.5726    0.0000 O   0  0  0  0  0  0  0  0  0  0  0  0
  1  2  2  0  0  0  0
  2  3  1  0  0  0  0
  3  4  2  0  0  0  0
  4  5  1  0  0  0  0
  5  6  2  0  0  0  0
  6  1  1  0  0  0  0
  4  7  1  0  0  0  0
  7  8  1  0  0  0  0
  8  9  2  0  0  0  0
  9 10  1  0  0  0  0
 10  5  1  0  0  0  0
  8 11  1  0  0  0  0
 11 12  1  0  0  0  0
 11 13  2  0  0  0  0
 13 14  1  0  0  0  0
 14 15  2  0  0  0  0
 15 16  1  0  0  0  0
 16 12  2  0  0  0  0
 10 17  2  0  0  0  0
 16 18  1  0  0  0  0
 15 19  1  0  0  0  0
  6 20  1  0  0  0  0
 20 21  1  0  0  0  0
  1 22  1  0  0  0  0
 22 23  1  0  0  0  0
 30 35  1  1  0  0  0
  2 35  1  0  0  0  0
 28 24  1  0  0  0  0
 33 25  1  6  0  0  0
 31 26  1  6  0  0  0
 32 27  1  1  0  0  0
 34 28  1  1  0  0  0
 29 34  1  0  0  0  0
 30 29  1  0  0  0  0
 31 30  1  0  0  0  0
 32 31  1  0  0  0  0
 33 32  1  0  0  0  0
 34 33  1  0  0  0  0
M  END
>  <cdx:fragmentId>
5

$$$$
