50438.cdx
  Mrv1902 05222410192D          

 20 21  0  0  0  0            999 V2000
    9.4662   -6.3181    0.0000 C   0  0  0  0  0  0  0  0  0  0  0  0
    8.7472   -5.9136    0.0000 C   0  0  0  0  0  0  0  0  0  0  0  0
    8.0373   -6.3340    0.0000 C   0  0  0  0  0  0  0  0  0  0  0  0
    8.0465   -7.1589    0.0000 C   0  0  0  0  0  0  0  0  0  0  0  0
    8.7655   -7.5635    0.0000 C   0  0  0  0  0  0  0  0  0  0  0  0
    9.4754   -7.1430    0.0000 C   0  0  0  0  0  0  0  0  0  0  0  0
    7.3367   -7.5794    0.0000 C   0  0  0  0  0  0  0  0  0  0  0  0
    6.6177   -7.1748    0.0000 C   0  0  0  0  0  0  0  0  0  0  0  0
    5.9078   -7.5953    0.0000 C   0  0  0  0  0  0  0  0  0  0  0  0
    5.1888   -7.1908    0.0000 C   0  0  0  0  0  0  0  0  0  0  0  0
    4.4790   -7.6112    0.0000 C   0  0  0  0  0  0  0  0  0  0  0  0
    4.4882   -8.4361    0.0000 C   0  0  0  0  0  0  0  0  0  0  0  0
    5.2072   -8.8406    0.0000 C   0  0  0  0  0  0  0  0  0  0  0  0
    5.9170   -8.4202    0.0000 C   0  0  0  0  0  0  0  0  0  0  0  0
   10.1944   -7.5475    0.0000 O   0  0  0  0  0  0  0  0  0  0  0  0
   10.1760   -5.8976    0.0000 O   0  0  0  0  0  0  0  0  0  0  0  0
    8.7380   -5.0886    0.0000 O   0  0  0  0  0  0  0  0  0  0  0  0
    9.4524   -4.6761    0.0000 C   0  0  0  0  0  0  0  0  0  0  0  0
    3.7783   -8.8566    0.0000 O   0  0  0  0  0  0  0  0  0  0  0  0
    3.0638   -8.4441    0.0000 C   0  0  0  0  0  0  0  0  0  0  0  0
  1  2  2  0  0  0  0
  2  3  1  0  0  0  0
  3  4  2  0  0  0  0
  4  5  1  0  0  0  0
  5  6  2  0  0  0  0
  6  1  1  0  0  0  0
  4  7  1  0  0  0  0
  7  8  1  0  0  0  0
  8  9  1  0  0  0  0
  9 10  2  0  0  0  0
 10 11  1  0  0  0  0
 11 12  2  0  0  0  0
 12 13  1  0  0  0  0
 13 14  2  0  0  0  0
 14  9  1  0  0  0  0
  6 15  1  0  0  0  0
  1 16  1  0  0  0  0
  2 17  1  0  0  0  0
 17 18  1  0  0  0  0
 12 19  1  0  0  0  0
 19 20  1  0  0  0  0
M  END
>  <cdx:fragmentId>
5

$$$$
