50433.cdx
  Mrv1902 05222410282D          

 25 26  0  0  0  0            999 V2000
    4.6244   -9.3706    0.0000 C   0  0  0  0  0  0  0  0  0  0  0  0
    3.9042   -9.7731    0.0000 C   0  0  0  0  0  0  0  0  0  0  0  0
    3.8927  -10.5980    0.0000 C   0  0  0  0  0  0  0  0  0  0  0  0
    4.6014  -11.0204    0.0000 C   0  0  0  0  0  0  0  0  0  0  0  0
    5.3215  -10.6179    0.0000 C   0  0  0  0  0  0  0  0  0  0  0  0
    5.3330   -9.7930    0.0000 C   0  0  0  0  0  0  0  0  0  0  0  0
    3.1956   -9.3507    0.0000 O   0  0  0  0  0  0  0  0  0  0  0  0
    3.1726  -11.0005    0.0000 O   0  0  0  0  0  0  0  0  0  0  0  0
    4.5899  -11.8453    0.0000 O   0  0  0  0  0  0  0  0  0  0  0  0
    6.0532   -9.3905    0.0000 C   0  0  0  0  0  0  0  0  0  0  0  0
    6.7618   -9.8129    0.0000 C   0  0  0  0  0  0  0  0  0  0  0  0
    7.4820   -9.4104    0.0000 C   0  0  0  0  0  0  0  0  0  0  0  0
    7.4934   -8.5854    0.0000 O   0  0  0  0  0  0  0  0  0  0  0  0
    8.1906   -9.8328    0.0000 O   0  0  0  0  0  0  0  0  0  0  0  0
   10.3386   -9.3835    0.0000 C   0  0  2  0  0  0  0  0  0  0  0  0
   10.3261   -8.5586    0.0000 C   0  0  2  0  0  0  0  0  0  0  0  0
    9.6054   -8.1570    0.0000 C   0  0  1  0  0  0  0  0  0  0  0  0
    8.8973   -8.5802    0.0000 C   0  0  2  0  0  0  0  0  0  0  0  0
    8.9098   -9.4051    0.0000 C   0  0  1  0  0  0  0  0  0  0  0  0
    9.6304   -9.8068    0.0000 O   0  0  0  0  0  0  0  0  0  0  0  0
   11.0592   -9.7851    0.0000 C   0  0  0  0  0  0  0  0  0  0  0  0
    9.5929   -7.3321    0.0000 O   0  0  0  0  0  0  0  0  0  0  0  0
    8.1766   -8.1786    0.0000 O   0  0  0  0  0  0  0  0  0  0  0  0
   11.0342   -8.1353    0.0000 O   0  0  0  0  0  0  0  0  0  0  0  0
   11.7673   -9.3618    0.0000 O   0  0  0  0  0  0  0  0  0  0  0  0
  1  2  2  0  0  0  0
  2  3  1  0  0  0  0
  3  4  2  0  0  0  0
  4  5  1  0  0  0  0
  5  6  2  0  0  0  0
  6  1  1  0  0  0  0
  2  7  1  0  0  0  0
  3  8  1  0  0  0  0
  4  9  1  0  0  0  0
  6 10  1  0  0  0  0
 10 11  2  0  0  0  0
 11 12  1  0  0  0  0
 12 13  2  0  0  0  0
 12 14  1  0  0  0  0
 15 16  1  0  0  0  0
 16 17  1  0  0  0  0
 17 18  1  0  0  0  0
 18 19  1  0  0  0  0
 19 20  1  0  0  0  0
 20 15  1  0  0  0  0
 15 21  1  1  0  0  0
 17 22  1  1  0  0  0
 18 23  1  6  0  0  0
 16 24  1  6  0  0  0
 21 25  1  0  0  0  0
 19 14  1  1  0  0  0
M  END
>  <cdx:fragmentId>
5

$$$$
