5044.cdx
  Mrv1902 05222410212D          

117129  0  0  0  0            999 V2000
    7.0158  -10.4981    0.0000 C   0  0  0  0  0  0  0  0  0  0  0  0
    7.0158  -11.3231    0.0000 C   0  0  1  0  0  0  0  0  0  0  0  0
    7.7302  -11.7356    0.0000 C   0  0  1  0  0  0  0  0  0  0  0  0
    8.4447  -11.3231    0.0000 C   0  0  1  0  0  0  0  0  0  0  0  0
    8.4447  -10.4981    0.0000 C   0  0  2  0  0  0  0  0  0  0  0  0
    7.7302  -10.0856    0.0000 C   0  0  0  0  0  0  0  0  0  0  0  0
    9.1592  -11.7356    0.0000 C   0  0  0  0  0  0  0  0  0  0  0  0
    9.8737  -11.3231    0.0000 C   0  0  0  0  0  0  0  0  0  0  0  0
    9.8737  -10.4981    0.0000 C   0  0  2  0  0  0  0  0  0  0  0  0
    9.1592  -10.0856    0.0000 C   0  0  2  0  0  0  0  0  0  0  0  0
   10.5881  -10.0856    0.0000 C   0  0  1  0  0  0  0  0  0  0  0  0
   10.5881   -9.2606    0.0000 C   0  0  0  0  0  0  0  0  0  0  0  0
    9.8737   -8.8481    0.0000 C   0  0  0  0  0  0  0  0  0  0  0  0
    9.1592   -9.2606    0.0000 C   0  0  0  0  0  0  0  0  0  0  0  0
   11.3026  -10.4981    0.0000 C   0  0  0  0  0  0  0  0  0  0  0  0
   12.0171  -10.0856    0.0000 C   0  0  2  0  0  0  0  0  0  0  0  0
   12.0171   -9.2606    0.0000 C   0  0  2  0  0  0  0  0  0  0  0  0
   11.3026   -8.8481    0.0000 C   0  0  1  0  0  0  0  0  0  0  0  0
   12.7315   -8.8481    0.0000 C   0  0  0  0  0  0  0  0  0  0  0  0
   12.7315   -8.0231    0.0000 C   0  0  0  0  0  0  0  0  0  0  0  0
   12.0171   -7.6106    0.0000 C   0  0  0  0  0  0  0  0  0  0  0  0
   11.3026   -8.0231    0.0000 C   0  0  0  0  0  0  0  0  0  0  0  0
    8.4447   -9.6731    0.0000 C   0  0  0  0  0  0  0  0  0  0  0  0
    9.8737   -9.6731    0.0000 C   0  0  0  0  0  0  0  0  0  0  0  0
   11.3026   -9.6731    0.0000 H   0  0  0  0  0  0  0  0  0  0  0  0
   11.6046   -6.8962    0.0000 C   0  0  0  0  0  0  0  0  0  0  0  0
    7.3177  -12.4501    0.0000 C   0  0  0  0  0  0  0  0  0  0  0  0
    6.3013  -11.7356    0.0000 O   0  0  0  0  0  0  0  0  0  0  0  0
    8.1427  -12.4501    0.0000 C   0  0  0  0  0  0  0  0  0  0  0  0
    9.1592  -10.9106    0.0000 H   0  0  0  0  0  0  0  0  0  0  0  0
   10.5881  -10.9106    0.0000 C   0  0  0  0  0  0  0  0  0  0  0  0
   12.0171  -10.9106    0.0000 O   0  0  0  0  0  0  0  0  0  0  0  0
   12.4296   -6.8962    0.0000 C   0  0  0  0  0  0  0  0  0  0  0  0
    7.7302  -13.1646    0.0000 O   0  0  0  0  0  0  0  0  0  0  0  0
   12.7315   -9.6731    0.0000 C   0  0  0  0  0  0  0  0  0  0  0  0
   13.4460   -9.2606    0.0000 O   0  0  0  0  0  0  0  0  0  0  0  0
   12.7315  -10.4981    0.0000 O   0  0  0  0  0  0  0  0  0  0  0  0
   14.1605   -9.6731    0.0000 C   0  0  2  0  0  0  0  0  0  0  0  0
   14.1605  -10.4981    0.0000 O   0  0  0  0  0  0  0  0  0  0  0  0
   14.8750  -10.9106    0.0000 C   0  0  1  0  0  0  0  0  0  0  0  0
   15.5894  -10.4981    0.0000 C   0  0  1  0  0  0  0  0  0  0  0  0
   15.5894   -9.6731    0.0000 C   0  0  1  0  0  0  0  0  0  0  0  0
   14.8750   -9.2606    0.0000 C   0  0  1  0  0  0  0  0  0  0  0  0
   14.8750   -8.4356    0.0000 O   0  0  0  0  0  0  0  0  0  0  0  0
   16.3039   -9.2606    0.0000 O   0  0  0  0  0  0  0  0  0  0  0  0
   16.3039  -10.9106    0.0000 O   0  0  0  0  0  0  0  0  0  0  0  0
   14.8750  -11.7356    0.0000 C   0  0  0  0  0  0  0  0  0  0  0  0
   15.5894   -8.0231    0.0000 C   0  0  2  0  0  0  0  0  0  0  0  0
   16.3039   -8.4356    0.0000 O   0  0  0  0  0  0  0  0  0  0  0  0
   17.0184   -8.0231    0.0000 C   0  0  2  0  0  0  0  0  0  0  0  0
   17.0184   -7.1981    0.0000 C   0  0  1  0  0  0  0  0  0  0  0  0
   16.3039   -6.7856    0.0000 C   0  0  2  0  0  0  0  0  0  0  0  0
   15.5894   -7.1981    0.0000 C   0  0  1  0  0  0  0  0  0  0  0  0
   17.7328   -6.7856    0.0000 O   0  0  0  0  0  0  0  0  0  0  0  0
   17.7328   -8.4356    0.0000 C   0  0  0  0  0  0  0  0  0  0  0  0
   16.3039   -5.9606    0.0000 O   0  0  0  0  0  0  0  0  0  0  0  0
   14.8750   -6.7856    0.0000 O   0  0  0  0  0  0  0  0  0  0  0  0
   18.4473   -7.1981    0.0000 C   0  0  2  0  0  0  0  0  0  0  0  0
   18.4473   -8.0231    0.0000 O   0  0  0  0  0  0  0  0  0  0  0  0
   19.1618   -8.4356    0.0000 C   0  0  0  0  0  0  0  0  0  0  0  0
   19.8763   -8.0231    0.0000 C   0  0  2  0  0  0  0  0  0  0  0  0
   19.8763   -7.1981    0.0000 C   0  0  1  0  0  0  0  0  0  0  0  0
   19.1618   -6.7856    0.0000 C   0  0  1  0  0  0  0  0  0  0  0  0
   19.1618   -5.9606    0.0000 O   0  0  0  0  0  0  0  0  0  0  0  0
   20.5907   -6.7856    0.0000 O   0  0  0  0  0  0  0  0  0  0  0  0
   20.5907   -8.4356    0.0000 O   0  0  0  0  0  0  0  0  0  0  0  0
   21.3052   -7.1981    0.0000 C   0  0  2  0  0  0  0  0  0  0  0  0
   21.3052   -8.0231    0.0000 C   0  0  0  0  0  0  0  0  0  0  0  0
   22.0197   -8.4356    0.0000 O   0  0  0  0  0  0  0  0  0  0  0  0
   22.7341   -8.0231    0.0000 C   0  0  1  0  0  0  0  0  0  0  0  0
   22.7341   -7.1981    0.0000 C   0  0  1  0  0  0  0  0  0  0  0  0
   22.0197   -6.7856    0.0000 C   0  0  1  0  0  0  0  0  0  0  0  0
   22.0197   -5.9606    0.0000 O   0  0  0  0  0  0  0  0  0  0  0  0
   23.4486   -6.7856    0.0000 O   0  0  0  0  0  0  0  0  0  0  0  0
   23.4486   -8.4356    0.0000 O   0  0  0  0  0  0  0  0  0  0  0  0
   23.4486   -9.2606    0.0000 C   0  0  2  0  0  0  0  0  0  0  0  0
   22.7341   -9.6731    0.0000 O   0  0  0  0  0  0  0  0  0  0  0  0
   22.7341  -10.4981    0.0000 C   0  0  0  0  0  0  0  0  0  0  0  0
   23.4486  -10.9106    0.0000 C   0  0  1  0  0  0  0  0  0  0  0  0
   24.1631  -10.4981    0.0000 C   0  0  1  0  0  0  0  0  0  0  0  0
   24.1631   -9.6731    0.0000 C   0  0  1  0  0  0  0  0  0  0  0  0
   24.8776   -9.2606    0.0000 O   0  0  0  0  0  0  0  0  0  0  0  0
   24.8776  -10.9106    0.0000 O   0  0  0  0  0  0  0  0  0  0  0  0
   23.4486  -11.7356    0.0000 O   0  0  0  0  0  0  0  0  0  0  0  0
    5.5868  -11.3231    0.0000 C   0  0  2  0  0  0  0  0  0  0  0  0
    5.5868  -10.4981    0.0000 O   0  0  0  0  0  0  0  0  0  0  0  0
    4.8724  -10.0856    0.0000 C   0  0  1  0  0  0  0  0  0  0  0  0
    4.1579  -10.4981    0.0000 C   0  0  2  0  0  0  0  0  0  0  0  0
    4.1579  -11.3231    0.0000 C   0  0  1  0  0  0  0  0  0  0  0  0
    4.8724  -11.7356    0.0000 C   0  0  1  0  0  0  0  0  0  0  0  0
    4.8724   -9.2606    0.0000 C   0  0  0  0  0  0  0  0  0  0  0  0
    3.4434  -11.7356    0.0000 O   0  0  0  0  0  0  0  0  0  0  0  0
    3.4434  -10.0856    0.0000 O   0  0  0  0  0  0  0  0  0  0  0  0
    4.8724  -12.5606    0.0000 O   0  0  0  0  0  0  0  0  0  0  0  0
    5.5868   -8.8481    0.0000 O   0  0  0  0  0  0  0  0  0  0  0  0
    4.1579   -8.8481    0.0000 O   0  0  0  0  0  0  0  0  0  0  0  0
    4.4697  -13.2807    0.0000 C   0  0  2  0  0  0  0  0  0  0  0  0
    3.6447  -13.2919    0.0000 O   0  0  0  0  0  0  0  0  0  0  0  0
    3.2421  -14.0120    0.0000 C   0  0  1  0  0  0  0  0  0  0  0  0
    3.6643  -14.7208    0.0000 C   0  0  1  0  0  0  0  0  0  0  0  0
    4.4892  -14.7095    0.0000 C   0  0  1  0  0  0  0  0  0  0  0  0
    4.8919  -13.9894    0.0000 C   0  0  1  0  0  0  0  0  0  0  0  0
    2.4171  -14.0233    0.0000 C   0  0  0  0  0  0  0  0  0  0  0  0
    4.9114  -15.4182    0.0000 O   0  0  0  0  0  0  0  0  0  0  0  0
    3.2616  -15.4408    0.0000 O   0  0  0  0  0  0  0  0  0  0  0  0
    5.7168  -13.9782    0.0000 O   0  0  0  0  0  0  0  0  0  0  0  0
    2.0144  -14.7433    0.0000 O   0  0  0  0  0  0  0  0  0  0  0  0
    2.7290  -11.3231    0.0000 C   0  0  2  0  0  0  0  0  0  0  0  0
    2.7290  -10.4981    0.0000 O   0  0  0  0  0  0  0  0  0  0  0  0
    2.0145  -10.0856    0.0000 C   0  0  0  0  0  0  0  0  0  0  0  0
    1.3000  -10.4981    0.0000 C   0  0  2  0  0  0  0  0  0  0  0  0
    1.3000  -11.3231    0.0000 C   0  0  1  0  0  0  0  0  0  0  0  0
    2.0145  -11.7356    0.0000 C   0  0  1  0  0  0  0  0  0  0  0  0
    2.0145  -12.5606    0.0000 O   0  0  0  0  0  0  0  0  0  0  0  0
    0.5855  -11.7356    0.0000 O   0  0  0  0  0  0  0  0  0  0  0  0
    0.5855  -10.0856    0.0000 O   0  0  0  0  0  0  0  0  0  0  0  0
    8.4447  -12.1481    0.0000 H   0  0  0  0  0  0  0  0  0  0  0  0
  1  2  1  0  0  0  0
  2  3  1  0  0  0  0
  3  4  1  0  0  0  0
  4  5  1  0  0  0  0
  5  6  1  0  0  0  0
  6  1  1  0  0  0  0
  4  7  1  0  0  0  0
  7  8  1  0  0  0  0
  8  9  1  0  0  0  0
  9 10  1  0  0  0  0
 10  5  1  0  0  0  0
  9 11  1  0  0  0  0
 11 12  1  0  0  0  0
 12 13  2  0  0  0  0
 13 14  1  0  0  0  0
 14 10  1  0  0  0  0
 11 15  1  0  0  0  0
 15 16  1  0  0  0  0
 16 17  1  0  0  0  0
 17 18  1  0  0  0  0
 18 12  1  0  0  0  0
 17 19  1  0  0  0  0
 19 20  1  0  0  0  0
 20 21  1  0  0  0  0
 21 22  1  0  0  0  0
 22 18  1  0  0  0  0
  5 23  1  1  0  0  0
  9 24  1  1  0  0  0
 18 25  1  1  0  0  0
 21 26  1  0  0  0  0
  3 27  1  1  0  0  0
  2 28  1  1  0  0  0
  3 29  1  0  0  0  0
 10 30  1  6  0  0  0
 11 31  1  6  0  0  0
 16 32  1  6  0  0  0
 21 33  1  0  0  0  0
 29 34  2  0  0  0  0
 17 35  1  1  0  0  0
 35 36  1  0  0  0  0
 35 37  2  0  0  0  0
 38 36  1  1  0  0  0
 38 39  1  0  0  0  0
 39 40  1  0  0  0  0
 40 41  1  0  0  0  0
 41 42  1  0  0  0  0
 42 43  1  0  0  0  0
 43 38  1  0  0  0  0
 43 44  1  6  0  0  0
 42 45  1  1  0  0  0
 41 46  1  1  0  0  0
 40 47  1  1  0  0  0
 48 44  1  1  0  0  0
 48 49  1  0  0  0  0
 49 50  1  0  0  0  0
 50 51  1  0  0  0  0
 51 52  1  0  0  0  0
 52 53  1  0  0  0  0
 53 48  1  0  0  0  0
 51 54  1  1  0  0  0
 50 55  1  6  0  0  0
 52 56  1  6  0  0  0
 53 57  1  6  0  0  0
 58 54  1  1  0  0  0
 58 59  1  0  0  0  0
 59 60  1  0  0  0  0
 60 61  1  0  0  0  0
 61 62  1  0  0  0  0
 62 63  1  0  0  0  0
 63 58  1  0  0  0  0
 63 64  1  6  0  0  0
 62 65  1  1  0  0  0
 61 66  1  6  0  0  0
 67 65  1  1  0  0  0
 67 68  1  0  0  0  0
 68 69  1  0  0  0  0
 69 70  1  0  0  0  0
 70 71  1  0  0  0  0
 71 72  1  0  0  0  0
 72 67  1  0  0  0  0
 72 73  1  6  0  0  0
 71 74  1  1  0  0  0
 70 75  1  1  0  0  0
 76 75  1  1  0  0  0
 76 77  1  0  0  0  0
 77 78  1  0  0  0  0
 78 79  1  0  0  0  0
 79 80  1  0  0  0  0
 80 81  1  0  0  0  0
 81 76  1  0  0  0  0
 81 82  1  6  0  0  0
 80 83  1  1  0  0  0
 79 84  1  1  0  0  0
 85 28  1  1  0  0  0
 85 86  1  0  0  0  0
 86 87  1  0  0  0  0
 87 88  1  0  0  0  0
 88 89  1  0  0  0  0
 89 90  1  0  0  0  0
 90 85  1  0  0  0  0
 87 91  1  1  0  0  0
 89 92  1  1  0  0  0
 88 93  1  6  0  0  0
 90 94  1  6  0  0  0
 91 95  2  0  0  0  0
 91 96  1  0  0  0  0
 97 94  1  1  0  0  0
 97 98  1  0  0  0  0
 98 99  1  0  0  0  0
 99100  1  0  0  0  0
100101  1  0  0  0  0
101102  1  0  0  0  0
102 97  1  0  0  0  0
 99103  1  1  0  0  0
101104  1  1  0  0  0
100105  1  1  0  0  0
102106  1  6  0  0  0
103107  1  0  0  0  0
108 92  1  1  0  0  0
108109  1  0  0  0  0
109110  1  0  0  0  0
110111  1  0  0  0  0
111112  1  0  0  0  0
112113  1  0  0  0  0
113108  1  0  0  0  0
113114  1  6  0  0  0
112115  1  1  0  0  0
111116  1  6  0  0  0
  4117  1  6  0  0  0
M  END
>  <cdx:fragmentId>
5

$$$$
