50443.cdx
  Mrv1902 05222410242D          

 11 11  0  0  0  0            999 V2000
    6.7768   -5.8426    0.0000 C   0  0  0  0  0  0  0  0  0  0  0  0
    6.7768   -6.6676    0.0000 C   0  0  0  0  0  0  0  0  0  0  0  0
    7.4913   -7.0801    0.0000 C   0  0  0  0  0  0  0  0  0  0  0  0
    8.2057   -6.6676    0.0000 C   0  0  0  0  0  0  0  0  0  0  0  0
    8.2057   -5.8426    0.0000 C   0  0  0  0  0  0  0  0  0  0  0  0
    7.4913   -5.4301    0.0000 C   0  0  0  0  0  0  0  0  0  0  0  0
    6.0623   -7.0801    0.0000 O   0  0  0  0  0  0  0  0  0  0  0  0
    8.9202   -7.0801    0.0000 C   0  0  0  0  0  0  0  0  0  0  0  0
    8.9202   -5.4301    0.0000 O   0  0  0  0  0  0  0  0  0  0  0  0
    7.0788   -4.7157    0.0000 C   0  0  0  0  0  0  0  0  0  0  0  0
    7.9038   -4.7157    0.0000 C   0  0  0  0  0  0  0  0  0  0  0  0
  1  2  1  0  0  0  0
  2  3  1  0  0  0  0
  3  4  2  0  0  0  0
  4  5  1  0  0  0  0
  5  6  1  0  0  0  0
  6  1  1  0  0  0  0
  2  7  2  0  0  0  0
  4  8  1  0  0  0  0
  5  9  1  0  0  0  0
  6 10  1  0  0  0  0
  6 11  1  0  0  0  0
M  END
>  <cdx:fragmentId>
5

$$$$
