50448.cdx
  Mrv1902 05222410212D          

 31 33  0  0  0  0            999 V2000
    5.4191   -5.1473    0.0000 C   0  0  0  0  0  0  0  0  0  0  0  0
    4.7046   -5.5598    0.0000 C   0  0  0  0  0  0  0  0  0  0  0  0
    3.9901   -5.1473    0.0000 C   0  0  0  0  0  0  0  0  0  0  0  0
    3.2757   -5.5598    0.0000 C   0  0  0  0  0  0  0  0  0  0  0  0
    3.2757   -6.3848    0.0000 C   0  0  0  0  0  0  0  0  0  0  0  0
    3.9901   -6.7973    0.0000 C   0  0  0  0  0  0  0  0  0  0  0  0
    4.7046   -6.3848    0.0000 C   0  0  0  0  0  0  0  0  0  0  0  0
    5.4191   -4.3223    0.0000 O   0  0  0  0  0  0  0  0  0  0  0  0
    6.1336   -5.5598    0.0000 O   0  0  0  0  0  0  0  0  0  0  0  0
    3.9901   -7.6223    0.0000 O   0  0  0  0  0  0  0  0  0  0  0  0
    2.5612   -6.7973    0.0000 O   0  0  0  0  0  0  0  0  0  0  0  0
    2.5612   -5.1473    0.0000 O   0  0  0  0  0  0  0  0  0  0  0  0
    6.8480   -5.1473    0.0000 C   0  0  0  0  0  0  0  0  0  0  0  0
    8.2770   -5.1473    0.0000 O   0  0  0  0  0  0  0  0  0  0  0  0
    7.5625   -5.5598    0.0000 C   0  0  1  0  0  0  0  0  0  0  0  0
    7.5625   -6.3848    0.0000 C   0  0  2  0  0  0  0  0  0  0  0  0
    8.2770   -6.7973    0.0000 C   0  0  1  0  0  0  0  0  0  0  0  0
    8.9914   -6.3848    0.0000 C   0  0  2  0  0  0  0  0  0  0  0  0
    8.9914   -5.5598    0.0000 C   0  0  2  0  0  0  0  0  0  0  0  0
    9.7059   -6.7973    0.0000 O   0  0  0  0  0  0  0  0  0  0  0  0
    8.2770   -7.6223    0.0000 O   0  0  0  0  0  0  0  0  0  0  0  0
    6.8480   -6.7973    0.0000 O   0  0  0  0  0  0  0  0  0  0  0  0
    9.7059   -5.1473    0.0000 O   0  0  0  0  0  0  0  0  0  0  0  0
   10.4204   -5.5598    0.0000 C   0  0  0  0  0  0  0  0  0  0  0  0
   10.4204   -6.3848    0.0000 C   0  0  0  0  0  0  0  0  0  0  0  0
   11.1349   -6.7973    0.0000 C   0  0  0  0  0  0  0  0  0  0  0  0
   11.8493   -6.3848    0.0000 C   0  0  0  0  0  0  0  0  0  0  0  0
   11.8493   -5.5598    0.0000 C   0  0  0  0  0  0  0  0  0  0  0  0
   11.1349   -5.1473    0.0000 C   0  0  0  0  0  0  0  0  0  0  0  0
   12.5638   -5.1473    0.0000 O   0  0  0  0  0  0  0  0  0  0  0  0
   11.1349   -7.6223    0.0000 O   0  0  0  0  0  0  0  0  0  0  0  0
  1  2  1  0  0  0  0
  2  3  1  0  0  0  0
  3  4  2  0  0  0  0
  4  5  1  0  0  0  0
  5  6  2  0  0  0  0
  6  7  1  0  0  0  0
  2  7  2  0  0  0  0
  1  8  2  0  0  0  0
  1  9  1  0  0  0  0
  6 10  1  0  0  0  0
  5 11  1  0  0  0  0
  4 12  1  0  0  0  0
 14 15  1  0  0  0  0
 15 16  1  0  0  0  0
 16 17  1  0  0  0  0
 17 18  1  0  0  0  0
 18 19  1  0  0  0  0
 14 19  1  0  0  0  0
 18 20  1  6  0  0  0
 17 21  1  1  0  0  0
 16 22  1  6  0  0  0
 24 25  1  0  0  0  0
 25 26  2  0  0  0  0
 26 27  1  0  0  0  0
 27 28  2  0  0  0  0
 28 29  1  0  0  0  0
 24 29  2  0  0  0  0
 23 24  1  0  0  0  0
 28 30  1  0  0  0  0
 26 31  1  0  0  0  0
 19 23  1  1  0  0  0
 15 13  1  1  0  0  0
  9 13  1  0  0  0  0
M  END
>  <cdx:fragmentId>
61

$$$$
