50442.cdx
  Mrv1902 05222410242D          

 28 30  0  0  0  0            999 V2000
    3.4891   -6.4269    0.0000 C   0  0  0  0  0  0  0  0  0  0  0  0
    3.4763   -5.6020    0.0000 C   0  0  0  0  0  0  0  0  0  0  0  0
    2.7556   -5.2006    0.0000 O   0  0  0  0  0  0  0  0  0  0  0  0
    4.2098   -6.8283    0.0000 C   0  0  0  0  0  0  0  0  0  0  0  0
    4.9178   -6.4049    0.0000 C   0  0  0  0  0  0  0  0  0  0  0  0
    4.9051   -5.5800    0.0000 C   0  0  0  0  0  0  0  0  0  0  0  0
    4.1844   -5.1785    0.0000 C   0  0  0  0  0  0  0  0  0  0  0  0
    6.3339   -5.5580    0.0000 C   0  0  0  0  0  0  0  0  0  0  0  0
    5.6131   -5.1565    0.0000 C   0  0  0  0  0  0  0  0  0  0  0  0
    7.7627   -5.5359    0.0000 C   0  0  0  0  0  0  0  0  0  0  0  0
    7.0419   -5.1345    0.0000 C   0  0  0  0  0  0  0  0  0  0  0  0
    8.4707   -5.1125    0.0000 C   0  0  0  0  0  0  0  0  0  0  0  0
    8.4580   -4.2876    0.0000 C   0  0  0  0  0  0  0  0  0  0  0  0
    7.7372   -3.8861    0.0000 C   0  0  0  0  0  0  0  0  0  0  0  0
    7.0292   -4.3096    0.0000 C   0  0  0  0  0  0  0  0  0  0  0  0
    4.2225   -7.6532    0.0000 O   0  0  0  0  0  0  0  0  0  0  0  0
    9.1660   -3.8641    0.0000 O   0  0  0  0  0  0  0  0  0  0  0  0
   10.6043   -5.4895    0.0000 C   0  0  2  0  0  0  0  0  0  0  0  0
   11.3120   -5.0654    0.0000 C   0  0  2  0  0  0  0  0  0  0  0  0
   11.2985   -4.2405    0.0000 C   0  0  1  0  0  0  0  0  0  0  0  0
   10.5774   -3.8397    0.0000 C   0  0  2  0  0  0  0  0  0  0  0  0
    9.8698   -4.2638    0.0000 C   0  0  1  0  0  0  0  0  0  0  0  0
    9.8832   -5.0887    0.0000 O   0  0  0  0  0  0  0  0  0  0  0  0
   10.6178   -6.3144    0.0000 C   0  0  0  0  0  0  0  0  0  0  0  0
   12.0062   -3.8164    0.0000 O   0  0  0  0  0  0  0  0  0  0  0  0
   10.5640   -3.0148    0.0000 O   0  0  0  0  0  0  0  0  0  0  0  0
   12.0331   -5.4662    0.0000 O   0  0  0  0  0  0  0  0  0  0  0  0
   11.3388   -6.7152    0.0000 O   0  0  0  0  0  0  0  0  0  0  0  0
  1  2  2  0  0  0  0
  2  3  1  0  0  0  0
  1  4  1  0  0  0  0
  4  5  2  0  0  0  0
  5  6  1  0  0  0  0
  6  7  2  0  0  0  0
  7  2  1  0  0  0  0
  8  9  2  0  0  0  0
  9  6  1  0  0  0  0
 10 11  2  0  0  0  0
 11  8  1  0  0  0  0
 10 12  1  0  0  0  0
 12 13  2  0  0  0  0
 13 14  1  0  0  0  0
 14 15  2  0  0  0  0
 15 11  1  0  0  0  0
  4 16  1  0  0  0  0
 13 17  1  0  0  0  0
 18 19  1  0  0  0  0
 19 20  1  0  0  0  0
 20 21  1  0  0  0  0
 21 22  1  0  0  0  0
 22 23  1  0  0  0  0
 23 18  1  0  0  0  0
 18 24  1  1  0  0  0
 20 25  1  1  0  0  0
 21 26  1  6  0  0  0
 19 27  1  6  0  0  0
 24 28  1  0  0  0  0
 22 17  1  1  0  0  0
M  END
>  <cdx:fragmentId>
5

$$$$
