50445.cdx
  Mrv1902 05222410252D          

 24 26  0  0  0  0            999 V2000
   10.6187   -5.2925    0.0000 O   0  0  0  0  0  0  0  0  0  0  0  0
    4.9538   -9.4871    0.0000 C   0  0  0  0  0  0  0  0  0  0  0  0
    5.6632   -9.0659    0.0000 O   0  0  0  0  0  0  0  0  0  0  0  0
    3.4947   -7.0297    0.0000 C   0  0  0  0  0  0  0  0  0  0  0  0
    4.2041   -6.6085    0.0000 O   0  0  0  0  0  0  0  0  0  0  0  0
    9.1798   -4.4850    0.0000 O   0  0  0  0  0  0  0  0  0  0  0  0
    8.4603   -4.0813    0.0000 C   0  0  0  0  0  0  0  0  0  0  0  0
    9.9194   -6.5386    0.0000 C   0  0  0  0  0  0  0  0  0  0  0  0
    9.9093   -5.7137    0.0000 C   0  0  0  0  0  0  0  0  0  0  0  0
    9.1899   -5.3099    0.0000 C   0  0  0  0  0  0  0  0  0  0  0  0
    8.4805   -5.7311    0.0000 C   0  0  0  0  0  0  0  0  0  0  0  0
    8.5108   -8.2060    0.0000 O   0  0  0  0  0  0  0  0  0  0  0  0
    9.2101   -6.9598    0.0000 C   0  0  0  0  0  0  0  0  0  0  0  0
    8.4906   -6.5561    0.0000 C   0  0  0  0  0  0  0  0  0  0  0  0
    7.0819   -8.2234    0.0000 C   0  0  0  0  0  0  0  0  0  0  0  0
    7.7913   -7.8022    0.0000 C   0  0  1  0  0  0  0  0  0  0  0  0
    7.7812   -6.9773    0.0000 C   0  0  1  0  0  0  0  0  0  0  0  0
    7.0618   -6.5736    0.0000 O   0  0  0  0  0  0  0  0  0  0  0  0
    5.6531   -8.2409    0.0000 C   0  0  0  0  0  0  0  0  0  0  0  0
    6.3625   -7.8197    0.0000 C   0  0  0  0  0  0  0  0  0  0  0  0
    6.3524   -6.9948    0.0000 C   0  0  0  0  0  0  0  0  0  0  0  0
    5.6329   -6.5910    0.0000 C   0  0  0  0  0  0  0  0  0  0  0  0
    4.9236   -7.0123    0.0000 C   0  0  0  0  0  0  0  0  0  0  0  0
    4.9336   -7.8372    0.0000 C   0  0  0  0  0  0  0  0  0  0  0  0
  9  1  1  0  0  0  0
  3  2  1  0  0  0  0
 19  3  1  0  0  0  0
  5  4  1  0  0  0  0
 23  5  1  0  0  0  0
  6 10  1  0  0  0  0
  7  6  1  0  0  0  0
  8 13  2  0  0  0  0
  9  8  1  0  0  0  0
 10  9  2  0  0  0  0
 11 10  1  0  0  0  0
 14 11  2  0  0  0  0
 16 12  1  1  0  0  0
 14 13  1  0  0  0  0
 17 14  1  1  0  0  0
 15 20  1  0  0  0  0
 16 15  1  0  0  0  0
 17 16  1  0  0  0  0
 18 17  1  0  0  0  0
 21 18  1  0  0  0  0
 19 24  2  0  0  0  0
 20 19  1  0  0  0  0
 21 20  2  0  0  0  0
 22 21  1  0  0  0  0
 23 22  2  0  0  0  0
 24 23  1  0  0  0  0
M  END
>  <cdx:fragmentId>
5

$$$$
