50440.cdx
  Mrv1902 05222410232D          

 43 42  0  0  0  0            999 V2000
    0.2322   -9.7291    0.0000 C   0  0  0  0  0  0  0  0  0  0  0  0
    0.9489  -10.1372    0.0000 C   0  0  0  0  0  0  0  0  0  0  0  0
    1.6607   -9.7205    0.0000 C   0  0  0  0  0  0  0  0  0  0  0  0
    2.3774  -10.1286    0.0000 C   0  0  0  0  0  0  0  0  0  0  0  0
    3.0891   -9.7119    0.0000 C   0  0  0  0  0  0  0  0  0  0  0  0
    3.8058  -10.1200    0.0000 C   0  0  0  0  0  0  0  0  0  0  0  0
    4.5176   -9.7034    0.0000 C   0  0  0  0  0  0  0  0  0  0  0  0
    5.2343  -10.1115    0.0000 C   0  0  0  0  0  0  0  0  0  0  0  0
    5.9460   -9.6948    0.0000 C   0  0  0  0  0  0  0  0  0  0  0  0
    6.6628  -10.1029    0.0000 C   0  0  0  0  0  0  0  0  0  0  0  0
    7.3745   -9.6862    0.0000 C   0  0  0  0  0  0  0  0  0  0  0  0
    8.0912  -10.0943    0.0000 C   0  0  0  0  0  0  0  0  0  0  0  0
    8.8030   -9.6777    0.0000 C   0  0  0  0  0  0  0  0  0  0  0  0
    9.5197  -10.0857    0.0000 C   0  0  0  0  0  0  0  0  0  0  0  0
   10.2314   -9.6691    0.0000 C   0  0  0  0  0  0  0  0  0  0  0  0
   10.9482  -10.0772    0.0000 C   0  0  0  0  0  0  0  0  0  0  0  0
   11.6599   -9.6605    0.0000 C   0  0  0  0  0  0  0  0  0  0  0  0
   12.3766  -10.0686    0.0000 C   0  0  0  0  0  0  0  0  0  0  0  0
   13.0884   -9.6520    0.0000 C   0  0  0  0  0  0  0  0  0  0  0  0
   13.8051  -10.0600    0.0000 C   0  0  0  0  0  0  0  0  0  0  0  0
   14.5168   -9.6434    0.0000 C   0  0  0  0  0  0  0  0  0  0  0  0
   15.2336  -10.0515    0.0000 C   0  0  0  0  0  0  0  0  0  0  0  0
   15.9453   -9.6348    0.0000 C   0  0  0  0  0  0  0  0  0  0  0  0
   16.6620  -10.0429    0.0000 C   0  0  0  0  0  0  0  0  0  0  0  0
   17.3738   -9.6263    0.0000 C   0  0  0  0  0  0  0  0  0  0  0  0
   18.0905  -10.0343    0.0000 C   0  0  0  0  0  0  0  0  0  0  0  0
   18.8022   -9.6177    0.0000 C   0  0  0  0  0  0  0  0  0  0  0  0
   19.5189  -10.0258    0.0000 C   0  0  0  0  0  0  0  0  0  0  0  0
   20.2307   -9.6091    0.0000 C   0  0  0  0  0  0  0  0  0  0  0  0
   20.9474  -10.0172    0.0000 C   0  0  0  0  0  0  0  0  0  0  0  0
   21.6592   -9.6006    0.0000 C   0  0  0  0  0  0  0  0  0  0  0  0
   22.3759  -10.0086    0.0000 C   0  0  0  0  0  0  0  0  0  0  0  0
   23.0876   -9.5920    0.0000 C   0  0  0  0  0  0  0  0  0  0  0  0
   23.8043  -10.0001    0.0000 C   0  0  0  0  0  0  0  0  0  0  0  0
   24.5161   -9.5834    0.0000 C   0  0  0  0  0  0  0  0  0  0  0  0
   25.2328   -9.9915    0.0000 C   0  0  0  0  0  0  0  0  0  0  0  0
   25.9446   -9.5748    0.0000 C   0  0  0  0  0  0  0  0  0  0  0  0
   26.6613   -9.9829    0.0000 C   0  0  0  0  0  0  0  0  0  0  0  0
   27.3730   -9.5663    0.0000 C   0  0  0  0  0  0  0  0  0  0  0  0
   28.0897   -9.9744    0.0000 C   0  0  0  0  0  0  0  0  0  0  0  0
   11.6500   -9.0558    0.0000 C   0  0  0  0  0  0  0  0  0  0  0  0
   26.6712  -10.8351    0.0000 C   0  0  0  0  0  0  0  0  0  0  0  0
   25.2427  -10.8437    0.0000 C   0  0  0  0  0  0  0  0  0  0  0  0
  2  1  1  0  0  0  0
  3  2  1  0  0  0  0
  4  3  1  0  0  0  0
  5  4  1  0  0  0  0
  6  5  1  0  0  0  0
  7  6  1  0  0  0  0
  8  7  1  0  0  0  0
  9  8  1  0  0  0  0
 10  9  1  0  0  0  0
 11 10  1  0  0  0  0
 12 11  1  0  0  0  0
 13 12  1  0  0  0  0
 14 13  1  0  0  0  0
 15 14  1  0  0  0  0
 16 15  1  0  0  0  0
 17 16  1  0  0  0  0
 18 17  1  0  0  0  0
 19 18  1  0  0  0  0
 20 19  1  0  0  0  0
 21 20  1  0  0  0  0
 22 21  1  0  0  0  0
 23 22  1  0  0  0  0
 24 23  1  0  0  0  0
 25 24  1  0  0  0  0
 26 25  1  0  0  0  0
 27 26  1  0  0  0  0
 28 27  1  0  0  0  0
 29 28  1  0  0  0  0
 30 29  1  0  0  0  0
 31 30  1  0  0  0  0
 32 31  1  0  0  0  0
 33 32  1  0  0  0  0
 34 33  1  0  0  0  0
 35 34  1  0  0  0  0
 36 35  1  0  0  0  0
 37 36  1  0  0  0  0
 38 37  1  0  0  0  0
 39 38  1  0  0  0  0
 40 39  1  0  0  0  0
 17 41  1  0  0  0  0
 38 42  1  0  0  0  0
 36 43  1  0  0  0  0
M  END
>  <cdx:fragmentId>
3

$$$$
