50449.cdx
  Mrv1902 05222410212D          

 19 20  0  0  0  0            999 V2000
    5.9793  -10.5451    0.0000 C   0  0  0  0  0  0  0  0  0  0  0  0
    5.9793  -11.3701    0.0000 C   0  0  0  0  0  0  0  0  0  0  0  0
    6.6938  -11.7826    0.0000 C   0  0  0  0  0  0  0  0  0  0  0  0
    7.4082  -11.3701    0.0000 C   0  0  0  0  0  0  0  0  0  0  0  0
    7.4082  -10.5451    0.0000 C   0  0  0  0  0  0  0  0  0  0  0  0
    6.6938  -10.1326    0.0000 C   0  0  0  0  0  0  0  0  0  0  0  0
    6.6938   -9.3076    0.0000 C   0  0  0  0  0  0  0  0  0  0  0  0
    7.4082   -8.8951    0.0000 C   0  0  0  0  0  0  0  0  0  0  0  0
    7.4082   -8.0701    0.0000 C   0  0  0  0  0  0  0  0  0  0  0  0
    8.1227   -7.6576    0.0000 C   0  0  0  0  0  0  0  0  0  0  0  0
    8.1227   -6.8326    0.0000 C   0  0  0  0  0  0  0  0  0  0  0  0
    7.4082   -6.4201    0.0000 C   0  0  0  0  0  0  0  0  0  0  0  0
    6.6938   -6.8326    0.0000 C   0  0  0  0  0  0  0  0  0  0  0  0
    6.6938   -7.6576    0.0000 C   0  0  0  0  0  0  0  0  0  0  0  0
    5.2648  -11.7826    0.0000 O   0  0  0  0  0  0  0  0  0  0  0  0
    5.2648  -12.6076    0.0000 C   0  0  0  0  0  0  0  0  0  0  0  0
    6.6938  -12.6076    0.0000 O   0  0  0  0  0  0  0  0  0  0  0  0
    8.1227  -11.7826    0.0000 O   0  0  0  0  0  0  0  0  0  0  0  0
    8.1227  -12.6076    0.0000 C   0  0  0  0  0  0  0  0  0  0  0  0
  1  2  2  0  0  0  0
  2  3  1  0  0  0  0
  3  4  2  0  0  0  0
  4  5  1  0  0  0  0
  5  6  2  0  0  0  0
  6  1  1  0  0  0  0
  6  7  1  0  0  0  0
  7  8  2  0  0  0  0
  8  9  1  0  0  0  0
  9 10  2  0  0  0  0
 10 11  1  0  0  0  0
 11 12  2  0  0  0  0
 12 13  1  0  0  0  0
 13 14  2  0  0  0  0
 14  9  1  0  0  0  0
  2 15  1  0  0  0  0
 15 16  1  0  0  0  0
  3 17  1  0  0  0  0
  4 18  1  0  0  0  0
 18 19  1  0  0  0  0
M  END
>  <cdx:fragmentId>
5

$$$$
