50444.cdx
  Mrv1902 05222410252D          

 14 15  0  0  0  0            999 V2000
    5.3468   -7.8639    0.0000 C   0  0  0  0  0  0  0  0  0  0  0  0
    5.3468   -8.6889    0.0000 C   0  0  0  0  0  0  0  0  0  0  0  0
    6.0613   -9.1014    0.0000 C   0  0  0  0  0  0  0  0  0  0  0  0
    6.7757   -8.6889    0.0000 C   0  0  0  0  0  0  0  0  0  0  0  0
    6.7757   -7.8639    0.0000 C   0  0  0  0  0  0  0  0  0  0  0  0
    6.0613   -7.4514    0.0000 C   0  0  0  0  0  0  0  0  0  0  0  0
    7.4902   -9.1014    0.0000 O   0  0  0  0  0  0  0  0  0  0  0  0
    8.2047   -8.6889    0.0000 C   0  0  0  0  0  0  0  0  0  0  0  0
    8.2047   -7.8639    0.0000 C   0  0  0  0  0  0  0  0  0  0  0  0
    7.4902   -7.4514    0.0000 C   0  0  0  0  0  0  0  0  0  0  0  0
    7.4902   -6.6264    0.0000 O   0  0  0  0  0  0  0  0  0  0  0  0
    8.9192   -7.4514    0.0000 O   0  0  0  0  0  0  0  0  0  0  0  0
    6.0613   -6.6264    0.0000 O   0  0  0  0  0  0  0  0  0  0  0  0
    4.6323   -9.1014    0.0000 O   0  0  0  0  0  0  0  0  0  0  0  0
  1  2  2  0  0  0  0
  2  3  1  0  0  0  0
  3  4  2  0  0  0  0
  4  5  1  0  0  0  0
  5  6  2  0  0  0  0
  6  1  1  0  0  0  0
  4  7  1  0  0  0  0
  7  8  1  0  0  0  0
  8  9  2  0  0  0  0
  9 10  1  0  0  0  0
 10  5  1  0  0  0  0
 10 11  2  0  0  0  0
  9 12  1  0  0  0  0
  6 13  1  0  0  0  0
  2 14  1  0  0  0  0
M  END
>  <cdx:fragmentId>
5

$$$$
