50451.cdx
  Mrv1902 05222410252D          

 25 27  0  0  0  0            999 V2000
    4.5631  -11.1467    0.0000 C   0  0  0  0  0  0  0  0  0  0  0  0
    8.1354  -10.7342    0.0000 C   0  0  0  0  0  0  0  0  0  0  0  0
   10.2788   -7.0217    0.0000 O   0  0  0  0  0  0  0  0  0  0  0  0
    8.8499   -6.1967    0.0000 O   0  0  0  0  0  0  0  0  0  0  0  0
    3.8486   -9.9092    0.0000 O   0  0  0  0  0  0  0  0  0  0  0  0
    3.8486   -8.2592    0.0000 O   0  0  0  0  0  0  0  0  0  0  0  0
    5.2775  -10.7342    0.0000 O   0  0  0  0  0  0  0  0  0  0  0  0
    6.7065  -10.7342    0.0000 O   0  0  0  0  0  0  0  0  0  0  0  0
    9.5644   -8.2592    0.0000 C   0  0  0  0  0  0  0  0  0  0  0  0
    9.5644   -7.4342    0.0000 C   0  0  0  0  0  0  0  0  0  0  0  0
    8.8499   -7.0217    0.0000 C   0  0  0  0  0  0  0  0  0  0  0  0
    8.1354   -7.4342    0.0000 C   0  0  0  0  0  0  0  0  0  0  0  0
    8.1354   -9.9092    0.0000 O   0  0  0  0  0  0  0  0  0  0  0  0
    8.8499   -8.6717    0.0000 C   0  0  0  0  0  0  0  0  0  0  0  0
    8.1354   -8.2592    0.0000 C   0  0  0  0  0  0  0  0  0  0  0  0
    6.7065   -9.9092    0.0000 C   0  0  0  0  0  0  0  0  0  0  0  0
    7.4209   -9.4967    0.0000 C   0  0  0  0  0  0  0  0  0  0  0  0
    7.4209   -8.6717    0.0000 C   0  0  0  0  0  0  0  0  0  0  0  0
    6.7065   -8.2592    0.0000 O   0  0  0  0  0  0  0  0  0  0  0  0
    5.2775   -9.9092    0.0000 C   0  0  0  0  0  0  0  0  0  0  0  0
    5.9920   -9.4967    0.0000 C   0  0  0  0  0  0  0  0  0  0  0  0
    5.9920   -8.6717    0.0000 C   0  0  0  0  0  0  0  0  0  0  0  0
    5.2775   -8.2592    0.0000 C   0  0  0  0  0  0  0  0  0  0  0  0
    4.5631   -8.6717    0.0000 C   0  0  0  0  0  0  0  0  0  0  0  0
    4.5631   -9.4967    0.0000 C   0  0  0  0  0  0  0  0  0  0  0  0
  7  1  1  0  0  0  0
 13  2  1  0  0  0  0
 10  3  1  0  0  0  0
 11  4  1  0  0  0  0
 25  5  1  0  0  0  0
 24  6  1  0  0  0  0
  7 20  1  0  0  0  0
 16  8  2  0  0  0  0
  9 14  2  0  0  0  0
 10  9  1  0  0  0  0
 11 10  2  0  0  0  0
 12 11  1  0  0  0  0
 15 12  2  0  0  0  0
 13 17  1  0  0  0  0
 15 14  1  0  0  0  0
 18 15  1  0  0  0  0
 16 21  1  0  0  0  0
 17 16  1  0  0  0  0
 18 17  2  0  0  0  0
 19 18  1  0  0  0  0
 22 19  1  0  0  0  0
 20 25  2  0  0  0  0
 21 20  1  0  0  0  0
 22 21  2  0  0  0  0
 23 22  1  0  0  0  0
 24 23  2  0  0  0  0
 25 24  1  0  0  0  0
M  END
>  <cdx:fragmentId>
5

$$$$
