50452.cdx
  Mrv1902 05222410252D          

 47 49  0  0  0  0            999 V2000
    6.5706   -6.8189    0.0000 C   0  0  0  0  0  0  0  0  0  0  0  0
    6.5706   -7.6439    0.0000 C   0  0  2  0  0  0  0  0  0  0  0  0
    7.2850   -8.0564    0.0000 C   0  0  1  0  0  0  0  0  0  0  0  0
    7.9995   -7.6439    0.0000 C   0  0  1  0  0  0  0  0  0  0  0  0
    7.9995   -6.8189    0.0000 C   0  0  0  0  0  0  0  0  0  0  0  0
    7.2850   -6.4064    0.0000 C   0  0  2  0  0  0  0  0  0  0  0  0
    7.2850   -8.8814    0.0000 O   0  0  0  0  0  0  0  0  0  0  0  0
    8.7140   -8.0564    0.0000 O   0  0  0  0  0  0  0  0  0  0  0  0
    6.8725   -5.6919    0.0000 O   0  0  0  0  0  0  0  0  0  0  0  0
    5.8561   -8.0564    0.0000 O   0  0  0  0  0  0  0  0  0  0  0  0
    7.6975   -5.6919    0.0000 C   0  0  0  0  0  0  0  0  0  0  0  0
    7.2850   -4.9775    0.0000 O   0  0  0  0  0  0  0  0  0  0  0  0
    8.5225   -5.6919    0.0000 O   0  0  0  0  0  0  0  0  0  0  0  0
    6.5886   -9.3083    0.0000 C   0  0  0  0  0  0  0  0  0  0  0  0
    6.6036  -10.1332    0.0000 C   0  0  0  0  0  0  0  0  0  0  0  0
    5.8667   -8.9089    0.0000 O   0  0  0  0  0  0  0  0  0  0  0  0
    5.8968  -10.5586    0.0000 C   0  0  0  0  0  0  0  0  0  0  0  0
    5.1899  -10.9841    0.0000 C   0  0  0  0  0  0  0  0  0  0  0  0
    5.4713   -9.8518    0.0000 C   0  0  0  0  0  0  0  0  0  0  0  0
    6.3222  -11.2655    0.0000 O   0  0  0  0  0  0  0  0  0  0  0  0
    5.2050  -11.8089    0.0000 C   0  0  0  0  0  0  0  0  0  0  0  0
    4.4981  -12.2344    0.0000 O   0  0  0  0  0  0  0  0  0  0  0  0
    5.9268  -12.2083    0.0000 O   0  0  0  0  0  0  0  0  0  0  0  0
    5.1416   -7.6439    0.0000 C   0  0  0  0  0  0  0  0  0  0  0  0
    4.4271   -8.0564    0.0000 C   0  0  0  0  0  0  0  0  0  0  0  0
    5.1416   -6.8189    0.0000 O   0  0  0  0  0  0  0  0  0  0  0  0
    3.7127   -7.6439    0.0000 C   0  0  0  0  0  0  0  0  0  0  0  0
    2.9982   -8.0564    0.0000 C   0  0  0  0  0  0  0  0  0  0  0  0
    2.2837   -7.6439    0.0000 C   0  0  0  0  0  0  0  0  0  0  0  0
    1.5693   -8.0564    0.0000 C   0  0  0  0  0  0  0  0  0  0  0  0
    1.5693   -8.8814    0.0000 C   0  0  0  0  0  0  0  0  0  0  0  0
    2.2837   -9.2939    0.0000 C   0  0  0  0  0  0  0  0  0  0  0  0
    2.9982   -8.8814    0.0000 C   0  0  0  0  0  0  0  0  0  0  0  0
    0.8548   -7.6439    0.0000 O   0  0  0  0  0  0  0  0  0  0  0  0
    0.8548   -9.2939    0.0000 O   0  0  0  0  0  0  0  0  0  0  0  0
    9.4284   -7.6439    0.0000 C   0  0  0  0  0  0  0  0  0  0  0  0
   10.1429   -8.0564    0.0000 C   0  0  0  0  0  0  0  0  0  0  0  0
   10.8574   -7.6439    0.0000 C   0  0  0  0  0  0  0  0  0  0  0  0
   11.5719   -8.0564    0.0000 C   0  0  0  0  0  0  0  0  0  0  0  0
   11.5719   -8.8814    0.0000 C   0  0  0  0  0  0  0  0  0  0  0  0
   12.2863   -9.2939    0.0000 C   0  0  0  0  0  0  0  0  0  0  0  0
   13.0008   -8.8814    0.0000 C   0  0  0  0  0  0  0  0  0  0  0  0
   13.0008   -8.0564    0.0000 C   0  0  0  0  0  0  0  0  0  0  0  0
   12.2863   -7.6439    0.0000 C   0  0  0  0  0  0  0  0  0  0  0  0
   13.7153   -7.6439    0.0000 O   0  0  0  0  0  0  0  0  0  0  0  0
   13.7153   -9.2939    0.0000 O   0  0  0  0  0  0  0  0  0  0  0  0
    9.4284   -6.8189    0.0000 O   0  0  0  0  0  0  0  0  0  0  0  0
  1  2  1  0  0  0  0
  2  3  1  0  0  0  0
  3  4  1  0  0  0  0
  4  5  1  0  0  0  0
  5  6  1  0  0  0  0
  6  1  1  0  0  0  0
  3  7  1  1  0  0  0
  4  8  1  1  0  0  0
  6  9  1  1  0  0  0
  2 10  1  6  0  0  0
  6 11  1  0  0  0  0
 11 12  2  0  0  0  0
 11 13  1  0  0  0  0
 14 15  1  0  0  0  0
 14 16  2  0  0  0  0
 15 17  1  0  0  0  0
 17 18  1  0  0  0  0
 17 19  1  0  0  0  0
 17 20  1  0  0  0  0
 18 21  1  0  0  0  0
 21 22  1  0  0  0  0
 21 23  2  0  0  0  0
 14  7  1  0  0  0  0
 10 24  1  0  0  0  0
 24 25  1  0  0  0  0
 24 26  2  0  0  0  0
 25 27  2  0  0  0  0
 27 28  1  0  0  0  0
 28 29  2  0  0  0  0
 29 30  1  0  0  0  0
 30 31  2  0  0  0  0
 31 32  1  0  0  0  0
 32 33  2  0  0  0  0
 33 28  1  0  0  0  0
 30 34  1  0  0  0  0
 31 35  1  0  0  0  0
  8 36  1  0  0  0  0
 36 37  1  0  0  0  0
 37 38  2  0  0  0  0
 38 39  1  0  0  0  0
 39 40  2  0  0  0  0
 40 41  1  0  0  0  0
 41 42  2  0  0  0  0
 42 43  1  0  0  0  0
 43 44  2  0  0  0  0
 44 39  1  0  0  0  0
 43 45  1  0  0  0  0
 42 46  1  0  0  0  0
 36 47  2  0  0  0  0
M  END
>  <cdx:fragmentId>
216

$$$$
