50455.cdx
  Mrv1902 05222410232D          

 34 37  0  0  0  0            999 V2000
    4.9756  -11.6864    0.0000 C   0  0  2  0  0  0  0  0  0  0  0  0
    4.9756  -12.5114    0.0000 C   0  0  2  0  0  0  0  0  0  0  0  0
    5.6900  -12.9239    0.0000 C   0  0  1  0  0  0  0  0  0  0  0  0
    6.4045  -12.5114    0.0000 C   0  0  2  0  0  0  0  0  0  0  0  0
    6.4045  -11.6864    0.0000 C   0  0  1  0  0  0  0  0  0  0  0  0
    5.6900  -11.2739    0.0000 O   0  0  0  0  0  0  0  0  0  0  0  0
    7.1190  -11.2739    0.0000 O   0  0  0  0  0  0  0  0  0  0  0  0
    7.1190  -10.4489    0.0000 C   0  0  0  0  0  0  0  0  0  0  0  0
    6.4045  -10.0364    0.0000 C   0  0  0  0  0  0  0  0  0  0  0  0
    7.8334  -10.0364    0.0000 C   0  0  0  0  0  0  0  0  0  0  0  0
    7.8334   -9.2114    0.0000 C   0  0  0  0  0  0  0  0  0  0  0  0
    7.1190   -8.7989    0.0000 C   0  0  0  0  0  0  0  0  0  0  0  0
    6.4045   -9.2114    0.0000 C   0  0  0  0  0  0  0  0  0  0  0  0
    8.5479   -8.7989    0.0000 O   0  0  0  0  0  0  0  0  0  0  0  0
    8.5479   -7.9739    0.0000 C   0  0  0  0  0  0  0  0  0  0  0  0
    7.8334   -7.5614    0.0000 C   0  0  0  0  0  0  0  0  0  0  0  0
    7.1190   -7.9739    0.0000 C   0  0  0  0  0  0  0  0  0  0  0  0
    7.8334   -6.7364    0.0000 C   0  0  0  0  0  0  0  0  0  0  0  0
    7.1190   -6.3239    0.0000 C   0  0  0  0  0  0  0  0  0  0  0  0
    6.4045   -7.5614    0.0000 O   0  0  0  0  0  0  0  0  0  0  0  0
    8.5479   -6.3239    0.0000 C   0  0  0  0  0  0  0  0  0  0  0  0
    8.5479   -5.4989    0.0000 C   0  0  0  0  0  0  0  0  0  0  0  0
    7.8334   -5.0864    0.0000 C   0  0  0  0  0  0  0  0  0  0  0  0
    7.1190   -5.4989    0.0000 C   0  0  0  0  0  0  0  0  0  0  0  0
    4.2611  -11.2739    0.0000 C   0  0  0  0  0  0  0  0  0  0  0  0
    5.6900  -13.7489    0.0000 O   0  0  0  0  0  0  0  0  0  0  0  0
    4.2611  -12.9239    0.0000 O   0  0  0  0  0  0  0  0  0  0  0  0
    7.1190  -12.9239    0.0000 O   0  0  0  0  0  0  0  0  0  0  0  0
    3.5466  -11.6864    0.0000 O   0  0  0  0  0  0  0  0  0  0  0  0
    6.4045   -5.0864    0.0000 O   0  0  0  0  0  0  0  0  0  0  0  0
    5.6900   -5.4989    0.0000 C   0  0  0  0  0  0  0  0  0  0  0  0
    5.6900  -10.4489    0.0000 O   0  0  0  0  0  0  0  0  0  0  0  0
    7.8334   -4.2614    0.0000 O   0  0  0  0  0  0  0  0  0  0  0  0
    4.9756  -10.0364    0.0000 C   0  0  0  0  0  0  0  0  0  0  0  0
  1  2  1  0  0  0  0
  2  3  1  0  0  0  0
  3  4  1  0  0  0  0
  4  5  1  0  0  0  0
  5  6  1  0  0  0  0
  6  1  1  0  0  0  0
  5  7  1  1  0  0  0
  7  8  1  0  0  0  0
  8  9  1  0  0  0  0
  8 10  2  0  0  0  0
 10 11  1  0  0  0  0
 11 12  2  0  0  0  0
 12 13  1  0  0  0  0
 13  9  2  0  0  0  0
 11 14  1  0  0  0  0
 14 15  1  0  0  0  0
 15 16  2  0  0  0  0
 16 17  1  0  0  0  0
 17 12  1  0  0  0  0
 16 18  1  0  0  0  0
 18 19  1  0  0  0  0
 20 17  2  0  0  0  0
 18 21  2  0  0  0  0
 21 22  1  0  0  0  0
 22 23  2  0  0  0  0
 23 24  1  0  0  0  0
 24 19  2  0  0  0  0
  1 25  1  1  0  0  0
  3 26  1  1  0  0  0
  2 27  1  6  0  0  0
  4 28  1  6  0  0  0
 25 29  1  0  0  0  0
 24 30  1  0  0  0  0
 30 31  1  0  0  0  0
  9 32  1  0  0  0  0
 23 33  1  0  0  0  0
 32 34  1  0  0  0  0
M  END
>  <cdx:fragmentId>
5

$$$$
