50457.cdx
  Mrv1902 05222410242D          

 24 26  0  0  0  0            999 V2000
    3.2166   -7.8501    0.0000 C   0  0  0  0  0  0  0  0  0  0  0  0
   11.0758   -6.6126    0.0000 C   0  0  0  0  0  0  0  0  0  0  0  0
    8.2179   -9.9126    0.0000 C   0  0  0  0  0  0  0  0  0  0  0  0
   10.3613   -6.2001    0.0000 O   0  0  0  0  0  0  0  0  0  0  0  0
    3.9311   -7.4376    0.0000 O   0  0  0  0  0  0  0  0  0  0  0  0
    9.6469   -7.4376    0.0000 C   0  0  0  0  0  0  0  0  0  0  0  0
    9.6469   -6.6126    0.0000 C   0  0  0  0  0  0  0  0  0  0  0  0
    8.9324   -6.2001    0.0000 C   0  0  0  0  0  0  0  0  0  0  0  0
    8.2179   -6.6126    0.0000 C   0  0  0  0  0  0  0  0  0  0  0  0
    8.9324   -7.8501    0.0000 C   0  0  0  0  0  0  0  0  0  0  0  0
    8.2179   -7.4376    0.0000 C   0  0  0  0  0  0  0  0  0  0  0  0
    8.2179   -9.0876    0.0000 O   0  0  0  0  0  0  0  0  0  0  0  0
    5.3600   -9.9126    0.0000 O   0  0  0  0  0  0  0  0  0  0  0  0
    6.7890   -9.9126    0.0000 O   0  0  0  0  0  0  0  0  0  0  0  0
    6.7890   -9.0876    0.0000 C   0  0  0  0  0  0  0  0  0  0  0  0
    7.5034   -8.6751    0.0000 C   0  0  0  0  0  0  0  0  0  0  0  0
    7.5034   -7.8501    0.0000 C   0  0  0  0  0  0  0  0  0  0  0  0
    6.7890   -7.4376    0.0000 O   0  0  0  0  0  0  0  0  0  0  0  0
    5.3600   -9.0876    0.0000 C   0  0  0  0  0  0  0  0  0  0  0  0
    6.0745   -8.6751    0.0000 C   0  0  0  0  0  0  0  0  0  0  0  0
    6.0745   -7.8501    0.0000 C   0  0  0  0  0  0  0  0  0  0  0  0
    5.3600   -7.4376    0.0000 C   0  0  0  0  0  0  0  0  0  0  0  0
    4.6456   -7.8501    0.0000 C   0  0  0  0  0  0  0  0  0  0  0  0
    4.6456   -8.6751    0.0000 C   0  0  0  0  0  0  0  0  0  0  0  0
  5  1  1  0  0  0  0
  4  2  1  0  0  0  0
 12  3  1  0  0  0  0
  7  4  1  0  0  0  0
 23  5  1  0  0  0  0
  6 10  1  0  0  0  0
  7  6  2  0  0  0  0
  8  7  1  0  0  0  0
  9  8  2  0  0  0  0
 11  9  1  0  0  0  0
 11 10  2  0  0  0  0
 17 11  1  0  0  0  0
 16 12  1  0  0  0  0
 13 19  1  0  0  0  0
 15 14  2  0  0  0  0
 15 20  1  0  0  0  0
 16 15  1  0  0  0  0
 17 16  2  0  0  0  0
 18 17  1  0  0  0  0
 21 18  1  0  0  0  0
 19 24  1  0  0  0  0
 20 19  2  0  0  0  0
 21 20  1  0  0  0  0
 22 21  2  0  0  0  0
 23 22  1  0  0  0  0
 24 23  2  0  0  0  0
M  END
>  <cdx:fragmentId>
5

$$$$
