50458.cdx
  Mrv1902 05222410232D          

 22 24  0  0  0  0            999 V2000
    9.1847  -10.4414    0.0000 C   0  0  0  0  0  0  0  0  0  0  0  0
    9.5942   -9.7252    0.0000 C   0  0  0  0  0  0  0  0  0  0  0  0
    9.1787   -9.0125    0.0000 C   0  0  0  0  0  0  0  0  0  0  0  0
    8.3537   -9.0159    0.0000 C   0  0  0  0  0  0  0  0  0  0  0  0
    7.9442   -9.7322    0.0000 C   0  0  0  0  0  0  0  0  0  0  0  0
    8.3597  -10.4449    0.0000 C   0  0  0  0  0  0  0  0  0  0  0  0
    7.9382   -8.3032    0.0000 C   0  0  0  0  0  0  0  0  0  0  0  0
    7.1132   -8.3067    0.0000 C   0  0  0  0  0  0  0  0  0  0  0  0
    6.7037   -9.0229    0.0000 C   0  0  0  0  0  0  0  0  0  0  0  0
    7.1192   -9.7356    0.0000 C   0  0  0  0  0  0  0  0  0  0  0  0
    5.8787   -9.0264    0.0000 C   0  0  0  0  0  0  0  0  0  0  0  0
    5.4692   -9.7426    0.0000 C   0  0  0  0  0  0  0  0  0  0  0  0
    5.8848  -10.4553    0.0000 C   0  0  0  0  0  0  0  0  0  0  0  0
    6.7098  -10.4519    0.0000 C   0  0  0  0  0  0  0  0  0  0  0  0
    9.6003  -11.1541    0.0000 O   0  0  0  0  0  0  0  0  0  0  0  0
    4.6443   -9.7461    0.0000 O   0  0  0  0  0  0  0  0  0  0  0  0
   10.4192   -9.7217    0.0000 O   0  0  0  0  0  0  0  0  0  0  0  0
   10.8317  -10.4361    0.0000 C   0  0  0  0  0  0  0  0  0  0  0  0
    7.9503  -11.1611    0.0000 O   0  0  0  0  0  0  0  0  0  0  0  0
    8.3628  -11.8756    0.0000 C   0  0  0  0  0  0  0  0  0  0  0  0
    5.4753  -11.1716    0.0000 O   0  0  0  0  0  0  0  0  0  0  0  0
    5.8878  -11.8860    0.0000 C   0  0  0  0  0  0  0  0  0  0  0  0
  1  2  2  0  0  0  0
  2  3  1  0  0  0  0
  3  4  2  0  0  0  0
  4  5  1  0  0  0  0
  5  6  2  0  0  0  0
  6  1  1  0  0  0  0
  4  7  1  0  0  0  0
  7  8  2  0  0  0  0
  8  9  1  0  0  0  0
  9 10  1  0  0  0  0
 10  5  1  0  0  0  0
  9 11  2  0  0  0  0
 11 12  1  0  0  0  0
 12 13  2  0  0  0  0
 13 14  1  0  0  0  0
 14 10  2  0  0  0  0
  1 15  1  0  0  0  0
 12 16  1  0  0  0  0
  2 17  1  0  0  0  0
 17 18  1  0  0  0  0
  6 19  1  0  0  0  0
 19 20  1  0  0  0  0
 13 21  1  0  0  0  0
 21 22  1  0  0  0  0
M  END
>  <cdx:fragmentId>
5

$$$$
