50464.cdx
  Mrv1902 05222410232D          

 33 37  0  0  0  0            999 V2000
    5.1956   -6.1314    0.0000 C   0  0  0  0  0  0  0  0  0  0  0  0
    5.1956   -6.9564    0.0000 C   0  0  0  0  0  0  0  0  0  0  0  0
    5.9100   -7.3689    0.0000 C   0  0  0  0  0  0  0  0  0  0  0  0
    6.6245   -6.9564    0.0000 C   0  0  0  0  0  0  0  0  0  0  0  0
    6.6245   -6.1314    0.0000 C   0  0  0  0  0  0  0  0  0  0  0  0
    5.9100   -5.7189    0.0000 C   0  0  0  0  0  0  0  0  0  0  0  0
    7.3390   -7.3689    0.0000 C   0  0  0  0  0  0  0  0  0  0  0  0
    8.0534   -6.9564    0.0000 C   0  0  0  0  0  0  0  0  0  0  0  0
    8.0534   -6.1314    0.0000 C   0  0  0  0  0  0  0  0  0  0  0  0
    7.3390   -5.7189    0.0000 O   0  0  0  0  0  0  0  0  0  0  0  0
    7.5105   -8.1759    0.0000 O   0  0  0  0  0  0  0  0  0  0  0  0
    8.3310   -8.2621    0.0000 C   0  0  0  0  0  0  0  0  0  0  0  0
    8.6665   -7.5084    0.0000 C   0  0  0  0  0  0  0  0  0  0  0  0
    8.8159   -8.9295    0.0000 C   0  0  0  0  0  0  0  0  0  0  0  0
    9.6364   -8.8433    0.0000 C   0  0  0  0  0  0  0  0  0  0  0  0
    9.9719   -8.0896    0.0000 C   0  0  0  0  0  0  0  0  0  0  0  0
    9.4870   -7.4222    0.0000 C   0  0  0  0  0  0  0  0  0  0  0  0
    4.4811   -5.7189    0.0000 O   0  0  0  0  0  0  0  0  0  0  0  0
    3.7666   -6.1314    0.0000 C   0  0  0  0  0  0  0  0  0  0  0  0
   10.1213   -9.5107    0.0000 O   0  0  0  0  0  0  0  0  0  0  0  0
    9.7088  -10.2252    0.0000 C   0  0  0  0  0  0  0  0  0  0  0  0
    8.4034   -9.6440    0.0000 O   0  0  0  0  0  0  0  0  0  0  0  0
    6.2681  -10.0501    0.0000 C   0  0  2  0  0  0  0  0  0  0  0  0
    6.2681  -10.8751    0.0000 C   0  0  2  0  0  0  0  0  0  0  0  0
    6.9825  -11.2876    0.0000 C   0  0  1  0  0  0  0  0  0  0  0  0
    7.6970  -10.8751    0.0000 C   0  0  2  0  0  0  0  0  0  0  0  0
    7.6970  -10.0501    0.0000 C   0  0  1  0  0  0  0  0  0  0  0  0
    6.9825   -9.6376    0.0000 O   0  0  0  0  0  0  0  0  0  0  0  0
    5.5536   -9.6376    0.0000 C   0  0  0  0  0  0  0  0  0  0  0  0
    6.9825  -12.1126    0.0000 O   0  0  0  0  0  0  0  0  0  0  0  0
    8.4115  -11.2876    0.0000 O   0  0  0  0  0  0  0  0  0  0  0  0
    5.5536  -11.2876    0.0000 O   0  0  0  0  0  0  0  0  0  0  0  0
    4.8391  -10.0501    0.0000 O   0  0  0  0  0  0  0  0  0  0  0  0
  1  2  1  0  0  0  0
  2  3  2  0  0  0  0
  3  4  1  0  0  0  0
  4  5  2  0  0  0  0
  5  6  1  0  0  0  0
  6  1  2  0  0  0  0
  4  7  1  0  0  0  0
  7  8  1  0  0  0  0
  8  9  1  0  0  0  0
  9 10  1  0  0  0  0
 10  5  1  0  0  0  0
  7 11  1  0  0  0  0
 11 12  1  0  0  0  0
 12 13  2  0  0  0  0
 13  8  1  0  0  0  0
 12 14  1  0  0  0  0
 14 15  2  0  0  0  0
 15 16  1  0  0  0  0
 16 17  2  0  0  0  0
 17 13  1  0  0  0  0
  1 18  1  0  0  0  0
 18 19  1  0  0  0  0
 15 20  1  0  0  0  0
 20 21  1  0  0  0  0
 14 22  1  0  0  0  0
 23 24  1  0  0  0  0
 24 25  1  0  0  0  0
 25 26  1  0  0  0  0
 26 27  1  0  0  0  0
 27 28  1  0  0  0  0
 28 23  1  0  0  0  0
 23 29  1  1  0  0  0
 25 30  1  1  0  0  0
 26 31  1  6  0  0  0
 24 32  1  6  0  0  0
 29 33  1  0  0  0  0
 27 22  1  1  0  0  0
M  END
>  <cdx:fragmentId>
5

$$$$
