50466.cdx
  Mrv1902 05222410222D          

 38 41  0  0  0  0            999 V2000
    5.0168   -9.2664    0.0000 C   0  0  0  0  0  0  0  0  0  0  0  0
    5.0168  -10.0914    0.0000 C   0  0  1  0  0  0  0  0  0  0  0  0
    5.7313  -10.5039    0.0000 C   0  0  0  0  0  0  0  0  0  0  0  0
    6.4457  -10.0914    0.0000 C   0  0  1  0  0  0  0  0  0  0  0  0
    6.4457   -9.2664    0.0000 C   0  0  2  0  0  0  0  0  0  0  0  0
    5.7313   -8.8539    0.0000 C   0  0  0  0  0  0  0  0  0  0  0  0
    7.1602  -10.5039    0.0000 C   0  0  0  0  0  0  0  0  0  0  0  0
    7.8747  -10.0914    0.0000 C   0  0  0  0  0  0  0  0  0  0  0  0
    7.8747   -9.2664    0.0000 C   0  0  0  0  0  0  0  0  0  0  0  0
    7.1602   -8.8539    0.0000 C   0  0  0  0  0  0  0  0  0  0  0  0
    8.5892   -8.8539    0.0000 C   0  0  2  0  0  0  0  0  0  0  0  0
    8.5892   -8.0289    0.0000 C   0  0  1  0  0  0  0  0  0  0  0  0
    7.8747   -7.6164    0.0000 C   0  0  0  0  0  0  0  0  0  0  0  0
    7.1602   -8.0289    0.0000 C   0  0  0  0  0  0  0  0  0  0  0  0
    9.3738   -9.1088    0.0000 C   0  0  0  0  0  0  0  0  0  0  0  0
    9.8587   -8.4414    0.0000 C   0  0  0  0  0  0  0  0  0  0  0  0
    9.3738   -7.7740    0.0000 C   0  0  1  0  0  0  0  0  0  0  0  0
    5.3188  -11.2184    0.0000 C   0  0  0  0  0  0  0  0  0  0  0  0
    6.1438  -11.2184    0.0000 C   0  0  0  0  0  0  0  0  0  0  0  0
    9.6287   -6.9893    0.0000 C   0  0  1  0  0  0  0  0  0  0  0  0
    8.2697   -6.5478    0.0000 O   0  0  0  0  0  0  0  0  0  0  0  0
    9.3316   -5.5916    0.0000 O   0  0  0  0  0  0  0  0  0  0  0  0
    9.0767   -6.3762    0.0000 C   0  0  0  0  0  0  0  0  0  0  0  0
   11.1454   -4.4467    0.0000 C   0  0  0  0  0  0  0  0  0  0  0  0
   12.5143   -4.8565    0.0000 C   0  0  0  0  0  0  0  0  0  0  0  0
   11.7116   -5.0468    0.0000 C   0  0  0  0  0  0  0  0  0  0  0  0
   11.4750   -5.8371    0.0000 C   0  0  0  0  0  0  0  0  0  0  0  0
   10.6723   -6.0275    0.0000 C   0  0  0  0  0  0  0  0  0  0  0  0
   10.4357   -6.8178    0.0000 C   0  0  0  0  0  0  0  0  0  0  0  0
    8.5892   -9.6789    0.0000 C   0  0  0  0  0  0  0  0  0  0  0  0
    6.4457   -8.4414    0.0000 C   0  0  0  0  0  0  0  0  0  0  0  0
    6.4457  -10.9164    0.0000 H   0  0  0  0  0  0  0  0  0  0  0  0
    8.5892   -7.2039    0.0000 C   0  0  0  0  0  0  0  0  0  0  0  0
    4.3023  -10.5039    0.0000 O   0  0  0  0  0  0  0  0  0  0  0  0
    3.5879  -10.0914    0.0000 C   0  0  0  0  0  0  0  0  0  0  0  0
    2.8734  -10.5039    0.0000 C   0  0  0  0  0  0  0  0  0  0  0  0
    3.5879   -9.2664    0.0000 O   0  0  0  0  0  0  0  0  0  0  0  0
   10.1584   -7.5190    0.0000 H   0  0  0  0  0  0  0  0  0  0  0  0
  1  2  1  0  0  0  0
  2  3  1  0  0  0  0
  3  4  1  0  0  0  0
  4  5  1  0  0  0  0
  5  6  1  0  0  0  0
  6  1  1  0  0  0  0
  4  7  1  0  0  0  0
  7  8  1  0  0  0  0
  8  9  1  0  0  0  0
  9 10  2  0  0  0  0
 10  5  1  0  0  0  0
  9 11  1  0  0  0  0
 11 12  1  0  0  0  0
 12 13  1  0  0  0  0
 13 14  1  0  0  0  0
 14 10  1  0  0  0  0
 11 15  1  0  0  0  0
 15 16  1  0  0  0  0
 16 17  1  0  0  0  0
 17 12  1  0  0  0  0
  3 18  1  0  0  0  0
  3 19  1  0  0  0  0
 17 20  1  0  0  0  0
 26 24  1  0  0  0  0
 20 29  1  0  0  0  0
 23 21  1  0  0  0  0
 20 23  1  1  0  0  0
 23 22  2  0  0  0  0
 26 25  1  0  0  0  0
 27 26  2  0  0  0  0
 28 27  1  0  0  0  0
 29 28  1  0  0  0  0
 11 30  1  1  0  0  0
  5 31  1  1  0  0  0
  4 32  1  6  0  0  0
 12 33  1  6  0  0  0
  2 34  1  1  0  0  0
 34 35  1  0  0  0  0
 35 36  1  0  0  0  0
 35 37  2  0  0  0  0
 17 38  1  1  0  0  0
M  END
>  <cdx:fragmentId>
5

$$$$
