50461.cdx
  Mrv1902 05222410202D          

 45 49  0  0  0  0            999 V2000
    4.2468   -8.8951    0.0000 C   0  0  0  0  0  0  0  0  0  0  0  0
    4.2468   -9.7201    0.0000 C   0  0  0  0  0  0  0  0  0  0  0  0
    4.9613  -10.1326    0.0000 C   0  0  0  0  0  0  0  0  0  0  0  0
    5.6757   -9.7201    0.0000 C   0  0  0  0  0  0  0  0  0  0  0  0
    5.6757   -8.8951    0.0000 C   0  0  0  0  0  0  0  0  0  0  0  0
    4.9613   -8.4826    0.0000 C   0  0  0  0  0  0  0  0  0  0  0  0
    6.3902  -10.1326    0.0000 O   0  0  0  0  0  0  0  0  0  0  0  0
    7.1047   -9.7201    0.0000 C   0  0  0  0  0  0  0  0  0  0  0  0
    7.1047   -8.8951    0.0000 C   0  0  0  0  0  0  0  0  0  0  0  0
    6.3902   -8.4826    0.0000 C   0  0  0  0  0  0  0  0  0  0  0  0
    7.8192   -8.4826    0.0000 C   0  0  0  0  0  0  0  0  0  0  0  0
    8.5336   -8.8951    0.0000 C   0  0  0  0  0  0  0  0  0  0  0  0
    9.2481   -8.4826    0.0000 C   0  0  0  0  0  0  0  0  0  0  0  0
    9.2481   -7.6576    0.0000 C   0  0  0  0  0  0  0  0  0  0  0  0
    8.5336   -7.2451    0.0000 C   0  0  0  0  0  0  0  0  0  0  0  0
    7.8192   -7.6576    0.0000 C   0  0  0  0  0  0  0  0  0  0  0  0
    6.3902   -7.6576    0.0000 O   0  0  0  0  0  0  0  0  0  0  0  0
    8.5336   -6.4201    0.0000 O   0  0  0  0  0  0  0  0  0  0  0  0
    9.2481   -6.0076    0.0000 C   0  0  0  0  0  0  0  0  0  0  0  0
    3.5323  -10.1326    0.0000 O   0  0  0  0  0  0  0  0  0  0  0  0
    2.8179   -9.7201    0.0000 C   0  0  0  0  0  0  0  0  0  0  0  0
    9.9626   -7.2451    0.0000 O   0  0  0  0  0  0  0  0  0  0  0  0
    4.9613   -7.6576    0.0000 O   0  0  0  0  0  0  0  0  0  0  0  0
   11.3987   -8.8628    0.0000 C   0  0  2  0  0  0  0  0  0  0  0  0
   12.1094   -8.4439    0.0000 C   0  0  2  0  0  0  0  0  0  0  0  0
   12.1020   -7.6189    0.0000 C   0  0  1  0  0  0  0  0  0  0  0  0
   11.3839   -7.2129    0.0000 C   0  0  2  0  0  0  0  0  0  0  0  0
   10.6731   -7.6318    0.0000 C   0  0  1  0  0  0  0  0  0  0  0  0
   10.6805   -8.4567    0.0000 O   0  0  0  0  0  0  0  0  0  0  0  0
   11.4061   -9.6878    0.0000 C   0  0  0  0  0  0  0  0  0  0  0  0
   12.8128   -7.2001    0.0000 O   0  0  0  0  0  0  0  0  0  0  0  0
   11.3765   -6.3879    0.0000 O   0  0  0  0  0  0  0  0  0  0  0  0
   12.8276   -8.8500    0.0000 O   0  0  0  0  0  0  0  0  0  0  0  0
   12.1242  -10.0938    0.0000 O   0  0  0  0  0  0  0  0  0  0  0  0
    3.5235   -6.0050    0.0000 C   0  0  2  0  0  0  0  0  0  0  0  0
    2.8091   -6.4175    0.0000 C   0  0  2  0  0  0  0  0  0  0  0  0
    2.8091   -7.2425    0.0000 C   0  0  1  0  0  0  0  0  0  0  0  0
    3.5235   -7.6550    0.0000 C   0  0  2  0  0  0  0  0  0  0  0  0
    4.2380   -7.2425    0.0000 C   0  0  1  0  0  0  0  0  0  0  0  0
    4.2380   -6.4175    0.0000 O   0  0  0  0  0  0  0  0  0  0  0  0
    3.5235   -5.1800    0.0000 C   0  0  0  0  0  0  0  0  0  0  0  0
    2.0946   -7.6550    0.0000 O   0  0  0  0  0  0  0  0  0  0  0  0
    3.5236   -8.4800    0.0000 O   0  0  0  0  0  0  0  0  0  0  0  0
    2.0946   -6.0050    0.0000 O   0  0  0  0  0  0  0  0  0  0  0  0
    2.8090   -4.7675    0.0000 O   0  0  0  0  0  0  0  0  0  0  0  0
  1  2  2  0  0  0  0
  2  3  1  0  0  0  0
  3  4  2  0  0  0  0
  4  5  1  0  0  0  0
  5  6  2  0  0  0  0
  6  1  1  0  0  0  0
  4  7  1  0  0  0  0
  7  8  1  0  0  0  0
  8  9  1  0  0  0  0
  9 10  1  0  0  0  0
 10  5  1  0  0  0  0
  9 11  1  0  0  0  0
 11 12  2  0  0  0  0
 12 13  1  0  0  0  0
 13 14  2  0  0  0  0
 14 15  1  0  0  0  0
 15 16  2  0  0  0  0
 16 11  1  0  0  0  0
 10 17  2  0  0  0  0
 15 18  1  0  0  0  0
 18 19  1  0  0  0  0
  2 20  1  0  0  0  0
 20 21  1  0  0  0  0
 14 22  1  0  0  0  0
  6 23  1  0  0  0  0
 24 25  1  0  0  0  0
 25 26  1  0  0  0  0
 26 27  1  0  0  0  0
 27 28  1  0  0  0  0
 28 29  1  0  0  0  0
 29 24  1  0  0  0  0
 24 30  1  1  0  0  0
 26 31  1  1  0  0  0
 27 32  1  6  0  0  0
 25 33  1  6  0  0  0
 30 34  1  0  0  0  0
 35 36  1  0  0  0  0
 36 37  1  0  0  0  0
 37 38  1  0  0  0  0
 38 39  1  0  0  0  0
 39 40  1  0  0  0  0
 40 35  1  0  0  0  0
 35 41  1  1  0  0  0
 37 42  1  1  0  0  0
 38 43  1  6  0  0  0
 36 44  1  6  0  0  0
 41 45  1  0  0  0  0
 39 23  1  1  0  0  0
 28 22  1  1  0  0  0
M  END
>  <cdx:fragmentId>
5

$$$$
