50463.cdx
  Mrv1902 05222410212D          

 16 17  0  0  0  0            999 V2000
    4.7143  -10.3801    0.0000 C   0  0  0  0  0  0  0  0  0  0  0  0
    4.7143  -11.2051    0.0000 C   0  0  0  0  0  0  0  0  0  0  0  0
    5.4288  -11.6176    0.0000 C   0  0  0  0  0  0  0  0  0  0  0  0
    6.1432  -11.2051    0.0000 C   0  0  0  0  0  0  0  0  0  0  0  0
    6.1432  -10.3801    0.0000 C   0  0  0  0  0  0  0  0  0  0  0  0
    5.4288   -9.9676    0.0000 C   0  0  0  0  0  0  0  0  0  0  0  0
    6.9279  -11.4601    0.0000 C   0  0  0  0  0  0  0  0  0  0  0  0
    7.4128  -10.7926    0.0000 O   0  0  0  0  0  0  0  0  0  0  0  0
    6.9279  -10.1252    0.0000 C   0  0  0  0  0  0  0  0  0  0  0  0
    7.1828  -12.2447    0.0000 O   0  0  0  0  0  0  0  0  0  0  0  0
    7.1828   -9.3406    0.0000 C   0  0  0  0  0  0  0  0  0  0  0  0
    7.9898   -9.1691    0.0000 C   0  0  0  0  0  0  0  0  0  0  0  0
    8.2033   -8.3722    0.0000 C   0  0  0  0  0  0  0  0  0  0  0  0
    9.0002   -8.1586    0.0000 C   0  0  0  0  0  0  0  0  0  0  0  0
    7.7248   -9.9117    0.0000 O   0  0  0  0  0  0  0  0  0  0  0  0
    8.4023   -9.8835    0.0000 O   0  0  0  0  0  0  0  0  0  0  0  0
  1  2  1  0  0  0  0
  2  3  2  0  0  0  0
  3  4  1  0  0  0  0
  4  5  2  0  0  0  0
  5  6  1  0  0  0  0
  6  1  1  0  0  0  0
  4  7  1  0  0  0  0
  7  8  1  0  0  0  0
  8  9  1  0  0  0  0
  9  5  1  0  0  0  0
  7 10  2  0  0  0  0
  9 11  1  0  0  0  0
 11 12  1  0  0  0  0
 12 13  1  0  0  0  0
 13 14  1  0  0  0  0
  9 15  1  0  0  0  0
 12 16  1  0  0  0  0
M  END
>  <cdx:fragmentId>
5

$$$$
