50460.cdx
  Mrv1902 05222410212D          

 13 14  0  0  0  0            999 V2000
    5.5943   -8.4276    0.0000 C   0  0  0  0  0  0  0  0  0  0  0  0
    5.5943   -7.6026    0.0000 C   0  0  0  0  0  0  0  0  0  0  0  0
    6.3088   -7.1901    0.0000 C   0  0  0  0  0  0  0  0  0  0  0  0
    7.0232   -7.6026    0.0000 C   0  0  0  0  0  0  0  0  0  0  0  0
    7.0232   -8.4276    0.0000 C   0  0  0  0  0  0  0  0  0  0  0  0
    6.3088   -8.8401    0.0000 C   0  0  0  0  0  0  0  0  0  0  0  0
    7.7377   -7.1901    0.0000 O   0  0  0  0  0  0  0  0  0  0  0  0
    8.4522   -7.6026    0.0000 C   0  0  0  0  0  0  0  0  0  0  0  0
    8.4522   -8.4276    0.0000 C   0  0  0  0  0  0  0  0  0  0  0  0
    7.7377   -8.8401    0.0000 C   0  0  0  0  0  0  0  0  0  0  0  0
    7.7377   -9.6651    0.0000 O   0  0  0  0  0  0  0  0  0  0  0  0
    9.1667   -8.8401    0.0000 O   0  0  0  0  0  0  0  0  0  0  0  0
    4.8798   -7.1901    0.0000 O   0  0  0  0  0  0  0  0  0  0  0  0
  1  2  2  0  0  0  0
  2  3  1  0  0  0  0
  3  4  2  0  0  0  0
  4  5  1  0  0  0  0
  5  6  2  0  0  0  0
  6  1  1  0  0  0  0
  4  7  1  0  0  0  0
  7  8  1  0  0  0  0
  8  9  1  0  0  0  0
  9 10  1  0  0  0  0
 10  5  1  0  0  0  0
 10 11  2  0  0  0  0
  9 12  1  0  0  0  0
  2 13  1  0  0  0  0
M  END
>  <cdx:fragmentId>
5

$$$$
