50474.cdx
  Mrv1902 05222410212D          

 30 32  0  0  0  0            999 V2000
    8.1629   -9.1289    0.0000 O   0  0  0  0  0  0  0  0  0  0  0  0
   10.3063   -8.7164    0.0000 C   0  0  0  0  0  0  0  0  0  0  0  0
    8.1629   -5.0039    0.0000 C   0  0  0  0  0  0  0  0  0  0  0  0
    3.8761   -6.6539    0.0000 C   0  0  0  0  0  0  0  0  0  0  0  0
   10.3063   -7.8914    0.0000 O   0  0  0  0  0  0  0  0  0  0  0  0
   11.0208   -6.6539    0.0000 C   0  0  0  0  0  0  0  0  0  0  0  0
   10.3063   -6.2414    0.0000 O   0  0  0  0  0  0  0  0  0  0  0  0
    8.8774   -5.4164    0.0000 O   0  0  0  0  0  0  0  0  0  0  0  0
    3.8761   -7.4789    0.0000 O   0  0  0  0  0  0  0  0  0  0  0  0
    3.1616   -8.7164    0.0000 C   0  0  0  0  0  0  0  0  0  0  0  0
    3.8761   -9.1289    0.0000 O   0  0  0  0  0  0  0  0  0  0  0  0
    4.5906  -10.3664    0.0000 C   0  0  0  0  0  0  0  0  0  0  0  0
    5.3050   -9.9539    0.0000 O   0  0  0  0  0  0  0  0  0  0  0  0
    6.7340   -9.9539    0.0000 O   0  0  0  0  0  0  0  0  0  0  0  0
    9.5919   -7.4789    0.0000 C   0  0  0  0  0  0  0  0  0  0  0  0
    9.5919   -6.6539    0.0000 C   0  0  0  0  0  0  0  0  0  0  0  0
    8.8774   -6.2414    0.0000 C   0  0  0  0  0  0  0  0  0  0  0  0
    8.1629   -6.6539    0.0000 C   0  0  0  0  0  0  0  0  0  0  0  0
    8.8774   -7.8914    0.0000 C   0  0  0  0  0  0  0  0  0  0  0  0
    8.1629   -7.4789    0.0000 C   0  0  0  0  0  0  0  0  0  0  0  0
    6.7340   -9.1289    0.0000 C   0  0  0  0  0  0  0  0  0  0  0  0
    7.4484   -8.7164    0.0000 C   0  0  0  0  0  0  0  0  0  0  0  0
    7.4484   -7.8914    0.0000 C   0  0  0  0  0  0  0  0  0  0  0  0
    6.7340   -7.4789    0.0000 O   0  0  0  0  0  0  0  0  0  0  0  0
    5.3050   -9.1289    0.0000 C   0  0  0  0  0  0  0  0  0  0  0  0
    6.0195   -8.7164    0.0000 C   0  0  0  0  0  0  0  0  0  0  0  0
    6.0195   -7.8914    0.0000 C   0  0  0  0  0  0  0  0  0  0  0  0
    5.3050   -7.4789    0.0000 C   0  0  0  0  0  0  0  0  0  0  0  0
    4.5906   -7.8914    0.0000 C   0  0  0  0  0  0  0  0  0  0  0  0
    4.5906   -8.7164    0.0000 C   0  0  0  0  0  0  0  0  0  0  0  0
 22  1  1  0  0  0  0
  5  2  1  0  0  0  0
  8  3  1  0  0  0  0
  9  4  1  0  0  0  0
  5 15  1  0  0  0  0
  7  6  1  0  0  0  0
  7 16  1  0  0  0  0
 17  8  1  0  0  0  0
  9 29  1  0  0  0  0
 11 10  1  0  0  0  0
 11 30  1  0  0  0  0
 13 12  1  0  0  0  0
 13 25  1  0  0  0  0
 21 14  2  0  0  0  0
 15 19  2  0  0  0  0
 16 15  1  0  0  0  0
 17 16  2  0  0  0  0
 18 17  1  0  0  0  0
 20 18  2  0  0  0  0
 20 19  1  0  0  0  0
 23 20  1  0  0  0  0
 21 26  1  0  0  0  0
 22 21  1  0  0  0  0
 23 22  2  0  0  0  0
 24 23  1  0  0  0  0
 27 24  1  0  0  0  0
 25 30  1  0  0  0  0
 26 25  2  0  0  0  0
 27 26  1  0  0  0  0
 28 27  2  0  0  0  0
 29 28  1  0  0  0  0
 30 29  2  0  0  0  0
M  END
>  <cdx:fragmentId>
5

$$$$
