50472.cdx
  Mrv1902 05222410222D          

 22 23  0  0  0  0            999 V2000
    8.4781   -8.1939    0.0000 C   0  0  0  0  0  0  0  0  0  0  0  0
    7.7636   -8.6064    0.0000 C   0  0  0  0  0  0  0  0  0  0  0  0
    7.0492   -8.1939    0.0000 C   0  0  0  0  0  0  0  0  0  0  0  0
    6.3347   -8.6064    0.0000 C   0  0  0  0  0  0  0  0  0  0  0  0
    5.6202   -8.1939    0.0000 C   0  0  0  0  0  0  0  0  0  0  0  0
    4.9057   -8.6064    0.0000 C   0  0  0  0  0  0  0  0  0  0  0  0
    4.1913   -8.1939    0.0000 C   0  0  0  0  0  0  0  0  0  0  0  0
    5.6202   -7.3689    0.0000 O   0  0  0  0  0  0  0  0  0  0  0  0
    9.1926   -8.6064    0.0000 C   0  0  0  0  0  0  0  0  0  0  0  0
    9.1926   -9.4314    0.0000 C   0  0  0  0  0  0  0  0  0  0  0  0
    9.9070   -9.8439    0.0000 C   0  0  0  0  0  0  0  0  0  0  0  0
   10.6215   -9.4314    0.0000 C   0  0  0  0  0  0  0  0  0  0  0  0
   10.6215   -8.6064    0.0000 C   0  0  0  0  0  0  0  0  0  0  0  0
    9.9070   -8.1939    0.0000 C   0  0  0  0  0  0  0  0  0  0  0  0
   11.3360   -9.8439    0.0000 O   0  0  0  0  0  0  0  0  0  0  0  0
    3.4768   -8.6064    0.0000 C   0  0  0  0  0  0  0  0  0  0  0  0
    2.7623   -8.1939    0.0000 C   0  0  0  0  0  0  0  0  0  0  0  0
    2.0479   -8.6064    0.0000 C   0  0  0  0  0  0  0  0  0  0  0  0
    2.0479   -9.4314    0.0000 C   0  0  0  0  0  0  0  0  0  0  0  0
    2.7623   -9.8439    0.0000 C   0  0  0  0  0  0  0  0  0  0  0  0
    3.4768   -9.4314    0.0000 C   0  0  0  0  0  0  0  0  0  0  0  0
    1.3334   -9.8439    0.0000 O   0  0  0  0  0  0  0  0  0  0  0  0
  2  1  1  0  0  0  0
  3  2  1  0  0  0  0
  4  3  1  0  0  0  0
  5  4  1  0  0  0  0
  6  5  1  0  0  0  0
  7  6  1  0  0  0  0
  5  8  1  0  0  0  0
  1  9  1  0  0  0  0
  9 10  2  0  0  0  0
 10 11  1  0  0  0  0
 11 12  2  0  0  0  0
 12 13  1  0  0  0  0
 13 14  2  0  0  0  0
 14  9  1  0  0  0  0
 12 15  1  0  0  0  0
  7 16  1  0  0  0  0
 16 17  2  0  0  0  0
 17 18  1  0  0  0  0
 18 19  2  0  0  0  0
 19 20  1  0  0  0  0
 20 21  2  0  0  0  0
 21 16  1  0  0  0  0
 19 22  1  0  0  0  0
M  END
>  <cdx:fragmentId>
3

$$$$
