50473.cdx
  Mrv1902 05222410222D          

 42 47  0  0  0  0            999 V2000
    3.9993   -7.1626    0.0000 C   0  0  0  0  0  0  0  0  0  0  0  0
    3.9993   -7.9876    0.0000 C   0  0  0  0  0  0  0  0  0  0  0  0
    4.7138   -8.4001    0.0000 C   0  0  0  0  0  0  0  0  0  0  0  0
    5.4282   -7.9876    0.0000 C   0  0  0  0  0  0  0  0  0  0  0  0
    5.4282   -7.1626    0.0000 C   0  0  0  0  0  0  0  0  0  0  0  0
    4.7138   -6.7501    0.0000 C   0  0  0  0  0  0  0  0  0  0  0  0
    6.1427   -8.4001    0.0000 O   0  0  0  0  0  0  0  0  0  0  0  0
    6.8572   -7.9876    0.0000 C   0  0  0  0  0  0  0  0  0  0  0  0
    6.8572   -7.1626    0.0000 C   0  0  0  0  0  0  0  0  0  0  0  0
    6.1427   -6.7501    0.0000 C   0  0  0  0  0  0  0  0  0  0  0  0
    6.1427   -5.9251    0.0000 O   0  0  0  0  0  0  0  0  0  0  0  0
    4.7138   -5.9251    0.0000 O   0  0  0  0  0  0  0  0  0  0  0  0
    7.5717   -8.4001    0.0000 C   0  0  0  0  0  0  0  0  0  0  0  0
    8.2861   -7.9876    0.0000 C   0  0  0  0  0  0  0  0  0  0  0  0
    7.5717   -9.2251    0.0000 C   0  0  0  0  0  0  0  0  0  0  0  0
    8.2861   -9.6376    0.0000 C   0  0  0  0  0  0  0  0  0  0  0  0
    9.0006   -9.2251    0.0000 C   0  0  0  0  0  0  0  0  0  0  0  0
    9.0006   -8.4001    0.0000 C   0  0  0  0  0  0  0  0  0  0  0  0
    3.2848   -8.4001    0.0000 O   0  0  0  0  0  0  0  0  0  0  0  0
    3.2848   -9.2251    0.0000 O   0  0  0  0  0  0  0  0  0  0  0  0
    3.9993   -9.6376    0.0000 C   0  0  0  0  0  0  0  0  0  0  0  0
    4.7138   -9.2251    0.0000 C   0  0  0  0  0  0  0  0  0  0  0  0
    3.9993  -10.4626    0.0000 C   0  0  0  0  0  0  0  0  0  0  0  0
    4.7138  -10.8751    0.0000 C   0  0  0  0  0  0  0  0  0  0  0  0
    5.4282  -10.4626    0.0000 C   0  0  0  0  0  0  0  0  0  0  0  0
    5.4282   -9.6376    0.0000 C   0  0  0  0  0  0  0  0  0  0  0  0
    6.1427  -11.7001    0.0000 O   0  0  0  0  0  0  0  0  0  0  0  0
    6.1427  -10.8751    0.0000 C   0  0  0  0  0  0  0  0  0  0  0  0
    6.8572  -12.1126    0.0000 C   0  0  0  0  0  0  0  0  0  0  0  0
    7.5717  -11.7001    0.0000 C   0  0  0  0  0  0  0  0  0  0  0  0
    7.5717  -10.8751    0.0000 C   0  0  0  0  0  0  0  0  0  0  0  0
    6.8572  -10.4626    0.0000 C   0  0  0  0  0  0  0  0  0  0  0  0
    6.8572  -12.9376    0.0000 C   0  0  0  0  0  0  0  0  0  0  0  0
    7.5717  -13.3501    0.0000 C   0  0  0  0  0  0  0  0  0  0  0  0
    8.2861  -12.9376    0.0000 C   0  0  0  0  0  0  0  0  0  0  0  0
    8.2861  -12.1126    0.0000 C   0  0  0  0  0  0  0  0  0  0  0  0
    9.0006  -11.7001    0.0000 O   0  0  0  0  0  0  0  0  0  0  0  0
    8.2861  -10.4626    0.0000 O   0  0  0  0  0  0  0  0  0  0  0  0
    9.7151   -9.6376    0.0000 O   0  0  0  0  0  0  0  0  0  0  0  0
    7.5717  -14.1751    0.0000 O   0  0  0  0  0  0  0  0  0  0  0  0
   10.4295   -9.2251    0.0000 C   0  0  0  0  0  0  0  0  0  0  0  0
    6.8572   -9.6376    0.0000 O   0  0  0  0  0  0  0  0  0  0  0  0
  1  2  1  0  0  0  0
  2  3  2  0  0  0  0
  3  4  1  0  0  0  0
  4  5  2  0  0  0  0
  5  6  1  0  0  0  0
  6  1  2  0  0  0  0
  4  7  1  0  0  0  0
  7  8  1  0  0  0  0
  8  9  2  0  0  0  0
  9 10  1  0  0  0  0
 10  5  1  0  0  0  0
 10 11  2  0  0  0  0
 12  6  1  0  0  0  0
  8 13  1  0  0  0  0
 13 14  2  0  0  0  0
 13 15  1  0  0  0  0
 15 16  2  0  0  0  0
 16 17  1  0  0  0  0
 17 18  2  0  0  0  0
 18 14  1  0  0  0  0
  2 19  1  0  0  0  0
 20 21  1  0  0  0  0
 21 22  2  0  0  0  0
 22  3  1  0  0  0  0
 21 23  1  0  0  0  0
 23 24  2  0  0  0  0
 24 25  1  0  0  0  0
 25 26  2  0  0  0  0
 26 22  1  0  0  0  0
 27 28  1  0  0  0  0
 28 25  1  0  0  0  0
 27 29  1  0  0  0  0
 29 30  1  0  0  0  0
 30 31  1  0  0  0  0
 31 32  1  0  0  0  0
 32 28  2  0  0  0  0
 29 33  2  0  0  0  0
 33 34  1  0  0  0  0
 34 35  2  0  0  0  0
 35 36  1  0  0  0  0
 36 30  2  0  0  0  0
 36 37  1  0  0  0  0
 38 31  2  0  0  0  0
 17 39  1  0  0  0  0
 34 40  1  0  0  0  0
 39 41  1  0  0  0  0
 32 42  1  0  0  0  0
M  END
>  <cdx:fragmentId>
5

$$$$
