50475.cdx
  Mrv1902 05222410212D          

 21 23  0  0  0  0            999 V2000
    3.9443   -7.3551    0.0000 C   0  0  0  0  0  0  0  0  0  0  0  0
    3.9443   -8.1801    0.0000 C   0  0  0  0  0  0  0  0  0  0  0  0
    4.6588   -8.5926    0.0000 C   0  0  0  0  0  0  0  0  0  0  0  0
    5.3732   -8.1801    0.0000 C   0  0  0  0  0  0  0  0  0  0  0  0
    5.3732   -7.3551    0.0000 C   0  0  0  0  0  0  0  0  0  0  0  0
    4.6588   -6.9426    0.0000 C   0  0  0  0  0  0  0  0  0  0  0  0
    6.0877   -8.5926    0.0000 C   0  0  0  0  0  0  0  0  0  0  0  0
    6.8022   -8.1801    0.0000 C   0  0  0  0  0  0  0  0  0  0  0  0
    6.8022   -7.3551    0.0000 C   0  0  0  0  0  0  0  0  0  0  0  0
    6.0877   -6.9426    0.0000 C   0  0  0  0  0  0  0  0  0  0  0  0
    7.5167   -8.5926    0.0000 C   0  0  0  0  0  0  0  0  0  0  0  0
    8.2311   -8.1801    0.0000 C   0  0  0  0  0  0  0  0  0  0  0  0
    8.2311   -7.3551    0.0000 C   0  0  0  0  0  0  0  0  0  0  0  0
    7.5167   -6.9426    0.0000 C   0  0  0  0  0  0  0  0  0  0  0  0
    4.6588   -9.4176    0.0000 O   0  0  0  0  0  0  0  0  0  0  0  0
    6.0877   -9.4176    0.0000 O   0  0  0  0  0  0  0  0  0  0  0  0
    7.5167   -6.1176    0.0000 O   0  0  0  0  0  0  0  0  0  0  0  0
    6.0877   -6.1176    0.0000 O   0  0  0  0  0  0  0  0  0  0  0  0
    3.2298   -8.5926    0.0000 O   0  0  0  0  0  0  0  0  0  0  0  0
    8.9456   -6.9426    0.0000 C   0  0  0  0  0  0  0  0  0  0  0  0
    8.9456   -8.5926    0.0000 O   0  0  0  0  0  0  0  0  0  0  0  0
  1  2  1  0  0  0  0
  2  3  2  0  0  0  0
  3  4  1  0  0  0  0
  4  5  2  0  0  0  0
  5  6  1  0  0  0  0
  6  1  2  0  0  0  0
  4  7  1  0  0  0  0
  7  8  1  0  0  0  0
  8  9  2  0  0  0  0
  9 10  1  0  0  0  0
 10  5  1  0  0  0  0
  8 11  1  0  0  0  0
 11 12  2  0  0  0  0
 12 13  1  0  0  0  0
 13 14  2  0  0  0  0
 14  9  1  0  0  0  0
  3 15  1  0  0  0  0
 16  7  2  0  0  0  0
 14 17  1  0  0  0  0
 18 10  2  0  0  0  0
  2 19  1  0  0  0  0
 13 20  1  0  0  0  0
 12 21  1  0  0  0  0
M  END
>  <cdx:fragmentId>
5

$$$$
