50482.cdx
  Mrv1902 05222410232D          

 24 25  0  0  0  0            999 V2000
    4.6091   -9.0200    0.0000 O   0  0  0  0  0  0  0  0  0  0  0  0
    5.3235   -8.6075    0.0000 C   0  0  0  0  0  0  0  0  0  0  0  0
    6.0380   -9.0200    0.0000 C   0  0  2  0  0  0  0  0  0  0  0  0
    6.0380   -9.8450    0.0000 C   0  0  2  0  0  0  0  0  0  0  0  0
    6.7525  -10.2575    0.0000 C   0  0  1  0  0  0  0  0  0  0  0  0
    7.4669   -9.8450    0.0000 C   0  0  2  0  0  0  0  0  0  0  0  0
    7.4669   -9.0200    0.0000 C   0  0  1  0  0  0  0  0  0  0  0  0
    6.7525   -8.6075    0.0000 O   0  0  0  0  0  0  0  0  0  0  0  0
    6.7525  -11.0825    0.0000 O   0  0  0  0  0  0  0  0  0  0  0  0
    8.1814   -8.6075    0.0000 O   0  0  0  0  0  0  0  0  0  0  0  0
    5.3235  -10.2575    0.0000 O   0  0  0  0  0  0  0  0  0  0  0  0
    8.1814  -10.2575    0.0000 O   0  0  0  0  0  0  0  0  0  0  0  0
    8.1814   -7.7825    0.0000 C   0  0  0  0  0  0  0  0  0  0  0  0
    8.8959   -7.3700    0.0000 C   0  0  0  0  0  0  0  0  0  0  0  0
    8.8959   -6.5450    0.0000 C   0  0  0  0  0  0  0  0  0  0  0  0
    8.1814   -6.1325    0.0000 C   0  0  0  0  0  0  0  0  0  0  0  0
    7.4669   -6.5450    0.0000 C   0  0  0  0  0  0  0  0  0  0  0  0
    7.4669   -7.3700    0.0000 C   0  0  0  0  0  0  0  0  0  0  0  0
    9.6104   -7.7825    0.0000 O   0  0  0  0  0  0  0  0  0  0  0  0
    9.6104   -8.6075    0.0000 C   0  0  0  0  0  0  0  0  0  0  0  0
    8.1814   -5.3075    0.0000 C   0  0  0  0  0  0  0  0  0  0  0  0
    8.8959   -4.8950    0.0000 C   0  0  0  0  0  0  0  0  0  0  0  0
    7.5093   -4.9194    0.0000 O   0  0  0  0  0  0  0  0  0  0  0  0
    8.8959   -4.0398    0.0000 C   0  0  0  0  0  0  0  0  0  0  0  0
  1  2  1  0  0  0  0
  3  2  1  1  0  0  0
  3  4  1  0  0  0  0
  4  5  1  0  0  0  0
  5  6  1  0  0  0  0
  6  7  1  0  0  0  0
  7  8  1  0  0  0  0
  8  3  1  0  0  0  0
  5  9  1  1  0  0  0
  7 10  1  1  0  0  0
  4 11  1  6  0  0  0
  6 12  1  6  0  0  0
 10 13  1  0  0  0  0
 13 14  2  0  0  0  0
 14 15  1  0  0  0  0
 15 16  2  0  0  0  0
 16 17  1  0  0  0  0
 17 18  2  0  0  0  0
 18 13  1  0  0  0  0
 14 19  1  0  0  0  0
 19 20  1  0  0  0  0
 16 21  1  0  0  0  0
 21 22  1  0  0  0  0
 21 23  2  0  0  0  0
 22 24  1  0  0  0  0
M  END
>  <cdx:fragmentId>
5

$$$$
