50486.cdx
  Mrv1902 05222410252D          

 11 11  0  0  0  0            999 V2000
    6.4331   -7.3001    0.0000 C   0  0  0  0  0  0  0  0  0  0  0  0
    6.4331   -8.1251    0.0000 C   0  0  0  0  0  0  0  0  0  0  0  0
    7.1475   -8.5376    0.0000 C   0  0  0  0  0  0  0  0  0  0  0  0
    7.8620   -8.1251    0.0000 C   0  0  0  0  0  0  0  0  0  0  0  0
    7.8620   -7.3001    0.0000 C   0  0  0  0  0  0  0  0  0  0  0  0
    7.1475   -6.8876    0.0000 C   0  0  0  0  0  0  0  0  0  0  0  0
    5.7186   -8.5376    0.0000 O   0  0  0  0  0  0  0  0  0  0  0  0
    8.5765   -8.5376    0.0000 O   0  0  0  0  0  0  0  0  0  0  0  0
    9.2909   -8.1251    0.0000 C   0  0  0  0  0  0  0  0  0  0  0  0
    8.5765   -6.8876    0.0000 C   0  0  0  0  0  0  0  0  0  0  0  0
    8.5765   -6.0626    0.0000 O   0  0  0  0  0  0  0  0  0  0  0  0
  1  2  2  0  0  0  0
  2  3  1  0  0  0  0
  3  4  2  0  0  0  0
  4  5  1  0  0  0  0
  5  6  2  0  0  0  0
  6  1  1  0  0  0  0
  2  7  1  0  0  0  0
  4  8  1  0  0  0  0
  8  9  1  0  0  0  0
  5 10  1  0  0  0  0
 10 11  2  0  0  0  0
M  END
>  <cdx:fragmentId>
5

$$$$
