50483.cdx
  Mrv1902 05222410232D          

 40 44  0  0  0  0            999 V2000
    2.5968  -10.5864    0.0000 O   0  0  0  0  0  0  0  0  0  0  0  0
    2.5968  -11.4114    0.0000 C   0  0  0  0  0  0  0  0  0  0  0  0
    3.3113  -11.8239    0.0000 O   0  0  0  0  0  0  0  0  0  0  0  0
    4.0257  -11.4114    0.0000 C   0  0  1  0  0  0  0  0  0  0  0  0
    4.0257  -10.5864    0.0000 C   0  0  0  0  0  0  0  0  0  0  0  0
    4.7402  -11.8239    0.0000 C   0  0  0  0  0  0  0  0  0  0  0  0
    5.4547  -11.4114    0.0000 C   0  0  1  0  0  0  0  0  0  0  0  0
    5.4547  -10.5864    0.0000 C   0  0  2  0  0  0  0  0  0  0  0  0
    4.7402  -10.1739    0.0000 C   0  0  0  0  0  0  0  0  0  0  0  0
    6.1692  -11.8239    0.0000 C   0  0  0  0  0  0  0  0  0  0  0  0
    6.8836  -11.4114    0.0000 C   0  0  0  0  0  0  0  0  0  0  0  0
    6.8836  -10.5864    0.0000 C   0  0  2  0  0  0  0  0  0  0  0  0
    6.1692  -10.1739    0.0000 C   0  0  2  0  0  0  0  0  0  0  0  0
    7.5981  -10.1739    0.0000 C   0  0  1  0  0  0  0  0  0  0  0  0
    7.5981   -9.3489    0.0000 C   0  0  0  0  0  0  0  0  0  0  0  0
    6.8836   -8.9364    0.0000 C   0  0  0  0  0  0  0  0  0  0  0  0
    6.1692   -9.3489    0.0000 C   0  0  0  0  0  0  0  0  0  0  0  0
    8.3126  -10.5864    0.0000 C   0  0  0  0  0  0  0  0  0  0  0  0
    9.0270  -10.1739    0.0000 C   0  0  0  0  0  0  0  0  0  0  0  0
    9.0270   -9.3489    0.0000 C   0  0  2  0  0  0  0  0  0  0  0  0
    8.3126   -8.9364    0.0000 C   0  0  1  0  0  0  0  0  0  0  0  0
    9.7415   -8.9364    0.0000 C   0  0  0  0  0  0  0  0  0  0  0  0
    9.7415   -8.1114    0.0000 C   0  0  0  0  0  0  0  0  0  0  0  0
    9.0270   -7.6989    0.0000 C   0  0  2  0  0  0  0  0  0  0  0  0
    8.3126   -8.1114    0.0000 C   0  0  2  0  0  0  0  0  0  0  0  0
    1.8823  -11.8239    0.0000 C   0  0  0  0  0  0  0  0  0  0  0  0
    4.3277  -12.5384    0.0000 C   0  0  0  0  0  0  0  0  0  0  0  0
    5.1527  -12.5384    0.0000 C   0  0  0  0  0  0  0  0  0  0  0  0
    5.4547   -9.7614    0.0000 C   0  0  0  0  0  0  0  0  0  0  0  0
    6.8836   -9.7614    0.0000 C   0  0  0  0  0  0  0  0  0  0  0  0
    7.5981  -10.9989    0.0000 C   0  0  0  0  0  0  0  0  0  0  0  0
    7.5981   -7.6989    0.0000 C   0  0  0  0  0  0  0  0  0  0  0  0
    9.0270   -6.8739    0.0000 C   0  0  0  0  0  0  0  0  0  0  0  0
    9.7415   -9.7614    0.0000 C   0  0  0  0  0  0  0  0  0  0  0  0
   10.4560   -9.3489    0.0000 O   0  0  0  0  0  0  0  0  0  0  0  0
    9.7415  -10.5864    0.0000 O   0  0  0  0  0  0  0  0  0  0  0  0
    8.3126   -9.7614    0.0000 H   0  0  0  0  0  0  0  0  0  0  0  0
    5.4547  -12.2364    0.0000 H   0  0  0  0  0  0  0  0  0  0  0  0
    6.1692  -10.9989    0.0000 H   0  0  0  0  0  0  0  0  0  0  0  0
   11.1705   -9.7614    0.0000 C   0  0  0  0  0  0  0  0  0  0  0  0
  1  2  2  0  0  0  0
  2  3  1  0  0  0  0
  4  3  1  1  0  0  0
  4  5  1  0  0  0  0
  4  6  1  0  0  0  0
  6  7  1  0  0  0  0
  7  8  1  0  0  0  0
  8  9  1  0  0  0  0
  9  5  1  0  0  0  0
  7 10  1  0  0  0  0
 10 11  1  0  0  0  0
 11 12  1  0  0  0  0
 12 13  1  0  0  0  0
 13  8  1  0  0  0  0
 12 14  1  0  0  0  0
 14 15  1  0  0  0  0
 15 16  2  0  0  0  0
 16 17  1  0  0  0  0
 17 13  1  0  0  0  0
 14 18  1  0  0  0  0
 18 19  1  0  0  0  0
 19 20  1  0  0  0  0
 20 21  1  0  0  0  0
 21 15  1  0  0  0  0
 20 22  1  0  0  0  0
 22 23  1  0  0  0  0
 23 24  1  0  0  0  0
 24 25  1  0  0  0  0
 25 21  1  0  0  0  0
  2 26  1  0  0  0  0
  6 27  1  0  0  0  0
  6 28  1  0  0  0  0
  8 29  1  1  0  0  0
 12 30  1  1  0  0  0
 14 31  1  6  0  0  0
 25 32  1  1  0  0  0
 24 33  1  6  0  0  0
 20 34  1  1  0  0  0
 34 35  1  0  0  0  0
 34 36  2  0  0  0  0
 21 37  1  1  0  0  0
  7 38  1  6  0  0  0
 13 39  1  6  0  0  0
 35 40  1  0  0  0  0
M  END
>  <cdx:fragmentId>
5

$$$$
