50488.cdx
  Mrv1902 05222410212D          

 32 35  0  0  0  0            999 V2000
    4.3568  -10.1601    0.0000 C   0  0  0  0  0  0  0  0  0  0  0  0
    4.3568  -10.9851    0.0000 C   0  0  0  0  0  0  0  0  0  0  0  0
    5.0713  -11.3976    0.0000 C   0  0  0  0  0  0  0  0  0  0  0  0
    5.7857  -10.9851    0.0000 C   0  0  0  0  0  0  0  0  0  0  0  0
    5.7857  -10.1601    0.0000 C   0  0  0  0  0  0  0  0  0  0  0  0
    5.0713   -9.7476    0.0000 O   0  0  0  0  0  0  0  0  0  0  0  0
    6.5002  -11.3976    0.0000 C   0  0  0  0  0  0  0  0  0  0  0  0
    7.2147  -10.9851    0.0000 C   0  0  0  0  0  0  0  0  0  0  0  0
    7.2147  -10.1601    0.0000 C   0  0  0  0  0  0  0  0  0  0  0  0
    6.5002   -9.7476    0.0000 C   0  0  0  0  0  0  0  0  0  0  0  0
    7.9993  -11.2401    0.0000 C   0  0  0  0  0  0  0  0  0  0  0  0
    8.4842  -10.5726    0.0000 C   0  0  0  0  0  0  0  0  0  0  0  0
    7.9993   -9.9052    0.0000 O   0  0  0  0  0  0  0  0  0  0  0  0
    3.6423   -9.7476    0.0000 O   0  0  0  0  0  0  0  0  0  0  0  0
    6.5002   -8.9226    0.0000 O   0  0  0  0  0  0  0  0  0  0  0  0
    7.2147   -8.5101    0.0000 C   0  0  0  0  0  0  0  0  0  0  0  0
    7.2147   -7.6851    0.0000 C   0  0  0  0  0  0  0  0  0  0  0  0
    7.9292   -7.2726    0.0000 C   0  0  0  0  0  0  0  0  0  0  0  0
    8.6436   -7.6851    0.0000 C   0  0  0  0  0  0  0  0  0  0  0  0
    7.9292   -6.4476    0.0000 C   0  0  0  0  0  0  0  0  0  0  0  0
    8.6436   -6.0351    0.0000 O   0  0  0  0  0  0  0  0  0  0  0  0
    8.6436   -5.2101    0.0000 C   0  0  2  0  0  0  0  0  0  0  0  0
    9.3581   -4.7976    0.0000 O   0  0  0  0  0  0  0  0  0  0  0  0
    9.3581   -3.9726    0.0000 C   0  0  1  0  0  0  0  0  0  0  0  0
    8.6436   -3.5601    0.0000 C   0  0  2  0  0  0  0  0  0  0  0  0
    7.9292   -3.9726    0.0000 C   0  0  1  0  0  0  0  0  0  0  0  0
    7.9292   -4.7976    0.0000 C   0  0  1  0  0  0  0  0  0  0  0  0
   10.0726   -3.5601    0.0000 C   0  0  0  0  0  0  0  0  0  0  0  0
    7.2147   -3.5601    0.0000 O   0  0  0  0  0  0  0  0  0  0  0  0
    8.6436   -2.7351    0.0000 O   0  0  0  0  0  0  0  0  0  0  0  0
    7.2147   -5.2101    0.0000 O   0  0  0  0  0  0  0  0  0  0  0  0
   10.0726   -2.7351    0.0000 O   0  0  0  0  0  0  0  0  0  0  0  0
  1  2  1  0  0  0  0
  2  3  2  0  0  0  0
  3  4  1  0  0  0  0
  4  5  1  0  0  0  0
  5  6  1  0  0  0  0
  6  1  1  0  0  0  0
  4  7  2  0  0  0  0
  7  8  1  0  0  0  0
  8  9  2  0  0  0  0
  9 10  1  0  0  0  0
 10  5  2  0  0  0  0
  8 11  1  0  0  0  0
 11 12  2  0  0  0  0
 12 13  1  0  0  0  0
 13  9  1  0  0  0  0
  1 14  2  0  0  0  0
 10 15  1  0  0  0  0
 15 16  1  0  0  0  0
 16 17  1  0  0  0  0
 17 18  2  0  0  0  0
 18 19  1  0  0  0  0
 18 20  1  0  0  0  0
 20 21  1  0  0  0  0
 22 21  1  1  0  0  0
 22 23  1  0  0  0  0
 23 24  1  0  0  0  0
 24 25  1  0  0  0  0
 25 26  1  0  0  0  0
 26 27  1  0  0  0  0
 27 22  1  0  0  0  0
 24 28  1  1  0  0  0
 26 29  1  1  0  0  0
 25 30  1  6  0  0  0
 27 31  1  6  0  0  0
 28 32  1  0  0  0  0
M  END
>  <cdx:fragmentId>
5

$$$$
