50484.cdx
  Mrv1902 05222410252D          

 36 38  0  0  0  0            999 V2000
    5.7535  -12.4564    0.0000 O   0  0  0  0  0  0  0  0  0  0  0  0
    4.3245  -13.2814    0.0000 O   0  0  0  0  0  0  0  0  0  0  0  0
    3.6101  -11.2189    0.0000 C   0  0  0  0  0  0  0  0  0  0  0  0
    3.6101  -12.0439    0.0000 C   0  0  0  0  0  0  0  0  0  0  0  0
    4.3245  -12.4564    0.0000 C   0  0  0  0  0  0  0  0  0  0  0  0
    5.0390  -12.0439    0.0000 C   0  0  0  0  0  0  0  0  0  0  0  0
    5.0390  -11.2189    0.0000 C   0  0  0  0  0  0  0  0  0  0  0  0
    4.3245   -8.3314    0.0000 O   0  0  0  0  0  0  0  0  0  0  0  0
    4.3245  -10.8064    0.0000 C   0  0  0  0  0  0  0  0  0  0  0  0
    4.3245   -9.9814    0.0000 C   0  0  0  0  0  0  0  0  0  0  0  0
    5.0390   -9.5689    0.0000 C   0  0  0  0  0  0  0  0  0  0  0  0
    5.0390   -8.7439    0.0000 C   0  0  0  0  0  0  0  0  0  0  0  0
   12.1837   -8.7439    0.0000 O   0  0  0  0  0  0  0  0  0  0  0  0
   10.0403   -8.3314    0.0000 C   0  0  0  0  0  0  0  0  0  0  0  0
   10.7548   -8.7439    0.0000 C   0  0  0  0  0  0  0  0  0  0  0  0
   11.4693   -8.3314    0.0000 C   0  0  0  0  0  0  0  0  0  0  0  0
   11.4693   -7.5064    0.0000 C   0  0  0  0  0  0  0  0  0  0  0  0
   10.7548   -7.0939    0.0000 C   0  0  0  0  0  0  0  0  0  0  0  0
   10.0403   -7.5064    0.0000 C   0  0  0  0  0  0  0  0  0  0  0  0
    7.8969   -6.2689    0.0000 O   0  0  0  0  0  0  0  0  0  0  0  0
    9.3258   -7.0939    0.0000 C   0  0  0  0  0  0  0  0  0  0  0  0
    8.6114   -7.5064    0.0000 C   0  0  0  0  0  0  0  0  0  0  0  0
    7.8969   -7.0939    0.0000 C   0  0  0  0  0  0  0  0  0  0  0  0
    4.3245   -7.5064    0.0000 O   0  0  0  0  0  0  0  0  0  0  0  0
    5.7535   -8.3314    0.0000 O   0  0  0  0  0  0  0  0  0  0  0  0
    7.1824   -7.5064    0.0000 O   0  0  0  0  0  0  0  0  0  0  0  0
    6.1660   -5.1419    0.0000 C   0  0  0  0  0  0  0  0  0  0  0  0
    6.9910   -5.1419    0.0000 O   0  0  0  0  0  0  0  0  0  0  0  0
    5.7535   -4.4275    0.0000 O   0  0  0  0  0  0  0  0  0  0  0  0
    5.3410   -5.1419    0.0000 O   0  0  0  0  0  0  0  0  0  0  0  0
    5.7535   -5.8564    0.0000 C   0  0  1  0  0  0  0  0  0  0  0  0
    5.0390   -6.2689    0.0000 C   0  0  0  0  0  0  0  0  0  0  0  0
    5.0390   -7.0939    0.0000 C   0  0  2  0  0  0  0  0  0  0  0  0
    5.7535   -7.5064    0.0000 C   0  0  1  0  0  0  0  0  0  0  0  0
    6.4680   -7.0939    0.0000 C   0  0  1  0  0  0  0  0  0  0  0  0
    6.4680   -6.2689    0.0000 C   0  0  0  0  0  0  0  0  0  0  0  0
  6  1  1  0  0  0  0
  5  2  1  0  0  0  0
  3  9  1  0  0  0  0
  4  3  2  0  0  0  0
  5  4  1  0  0  0  0
  6  5  2  0  0  0  0
  7  6  1  0  0  0  0
  9  7  2  0  0  0  0
 12  8  2  0  0  0  0
 10  9  1  0  0  0  0
 11 10  2  0  0  0  0
 12 11  1  0  0  0  0
 25 12  1  0  0  0  0
 16 13  1  0  0  0  0
 14 19  1  0  0  0  0
 15 14  2  0  0  0  0
 16 15  1  0  0  0  0
 17 16  2  0  0  0  0
 18 17  1  0  0  0  0
 19 18  2  0  0  0  0
 21 19  1  0  0  0  0
 23 20  2  0  0  0  0
 22 21  2  0  0  0  0
 23 22  1  0  0  0  0
 26 23  1  0  0  0  0
 33 24  1  6  0  0  0
 34 25  1  1  0  0  0
 35 26  1  1  0  0  0
 27 28  1  0  0  0  0
 31 30  1  1  0  0  0
 31 27  1  0  0  0  0
 27 29  2  0  0  0  0
 31 36  1  0  0  0  0
 32 31  1  0  0  0  0
 33 32  1  0  0  0  0
 34 33  1  0  0  0  0
 35 34  1  0  0  0  0
 36 35  1  0  0  0  0
M  END
>  <cdx:fragmentId>
5

$$$$
