50481.cdx
  Mrv1902 05222410242D          

 37 41  0  0  0  0            999 V2000
    3.9031  -10.6551    0.0000 O   0  0  0  0  0  0  0  0  0  0  0  0
    4.6175  -11.0676    0.0000 C   0  0  0  0  0  0  0  0  0  0  0  0
    5.3320  -10.6551    0.0000 C   0  0  2  0  0  0  0  0  0  0  0  0
    5.3320   -9.8301    0.0000 C   0  0  0  0  0  0  0  0  0  0  0  0
    6.0465  -11.0676    0.0000 C   0  0  0  0  0  0  0  0  0  0  0  0
    6.7609  -10.6551    0.0000 C   0  0  1  0  0  0  0  0  0  0  0  0
    6.7609   -9.8301    0.0000 C   0  0  2  0  0  0  0  0  0  0  0  0
    6.0465   -9.4176    0.0000 C   0  0  0  0  0  0  0  0  0  0  0  0
    7.4754  -11.0676    0.0000 C   0  0  0  0  0  0  0  0  0  0  0  0
    8.1899  -10.6551    0.0000 C   0  0  0  0  0  0  0  0  0  0  0  0
    8.1899   -9.8301    0.0000 C   0  0  2  0  0  0  0  0  0  0  0  0
    7.4754   -9.4176    0.0000 C   0  0  2  0  0  0  0  0  0  0  0  0
    8.9044   -9.4176    0.0000 C   0  0  1  0  0  0  0  0  0  0  0  0
    8.9044   -8.5926    0.0000 C   0  0  0  0  0  0  0  0  0  0  0  0
    8.1899   -8.1801    0.0000 C   0  0  0  0  0  0  0  0  0  0  0  0
    7.4754   -8.5926    0.0000 C   0  0  0  0  0  0  0  0  0  0  0  0
    9.6188   -9.8301    0.0000 C   0  0  0  0  0  0  0  0  0  0  0  0
   10.3333   -9.4176    0.0000 C   0  0  0  0  0  0  0  0  0  0  0  0
   10.3333   -8.5926    0.0000 C   0  0  2  0  0  0  0  0  0  0  0  0
    9.6188   -8.1801    0.0000 C   0  0  1  0  0  0  0  0  0  0  0  0
   11.0478   -8.1801    0.0000 C   0  0  0  0  0  0  0  0  0  0  0  0
   11.0478   -7.3551    0.0000 C   0  0  0  0  0  0  0  0  0  0  0  0
   10.3333   -6.9426    0.0000 C   0  0  0  0  0  0  0  0  0  0  0  0
    9.6188   -7.3551    0.0000 C   0  0  0  0  0  0  0  0  0  0  0  0
    9.9208   -6.2282    0.0000 C   0  0  0  0  0  0  0  0  0  0  0  0
   10.7458   -6.2282    0.0000 C   0  0  0  0  0  0  0  0  0  0  0  0
   11.0478   -9.0051    0.0000 C   0  0  0  0  0  0  0  0  0  0  0  0
   11.7622   -8.5926    0.0000 O   0  0  0  0  0  0  0  0  0  0  0  0
   11.0478   -9.8301    0.0000 O   0  0  0  0  0  0  0  0  0  0  0  0
    6.7609   -9.0051    0.0000 C   0  0  0  0  0  0  0  0  0  0  0  0
    6.0465   -8.5926    0.0000 O   0  0  0  0  0  0  0  0  0  0  0  0
    5.6340  -11.7821    0.0000 C   0  0  0  0  0  0  0  0  0  0  0  0
    6.4590  -11.7821    0.0000 C   0  0  0  0  0  0  0  0  0  0  0  0
    3.1886  -11.0676    0.0000 C   0  0  0  0  0  0  0  0  0  0  0  0
    4.6175  -11.8926    0.0000 O   0  0  0  0  0  0  0  0  0  0  0  0
    8.9044  -10.2426    0.0000 C   0  0  0  0  0  0  0  0  0  0  0  0
    8.1899   -9.0051    0.0000 C   0  0  0  0  0  0  0  0  0  0  0  0
  1  2  1  0  0  0  0
  3  2  1  6  0  0  0
  3  4  1  0  0  0  0
  3  5  1  0  0  0  0
  5  6  1  0  0  0  0
  6  7  1  0  0  0  0
  7  8  1  0  0  0  0
  8  4  1  0  0  0  0
  6  9  1  1  0  0  0
  9 10  1  0  0  0  0
 10 11  1  0  0  0  0
 11 12  1  0  0  0  0
 12  7  1  0  0  0  0
 11 13  1  0  0  0  0
 13 14  1  0  0  0  0
 14 15  2  0  0  0  0
 15 16  1  0  0  0  0
 12 16  1  1  0  0  0
 13 17  1  0  0  0  0
 17 18  1  0  0  0  0
 18 19  1  0  0  0  0
 19 20  1  0  0  0  0
 20 14  1  0  0  0  0
 19 21  1  0  0  0  0
 21 22  1  0  0  0  0
 22 23  1  0  0  0  0
 23 24  1  0  0  0  0
 20 24  1  6  0  0  0
 23 25  1  0  0  0  0
 23 26  1  0  0  0  0
 19 27  1  1  0  0  0
 27 28  1  0  0  0  0
 27 29  2  0  0  0  0
  7 30  1  1  0  0  0
 30 31  1  0  0  0  0
  5 32  1  0  0  0  0
  5 33  1  0  0  0  0
  1 34  1  0  0  0  0
  2 35  2  0  0  0  0
 13 36  1  6  0  0  0
 11 37  1  1  0  0  0
M  END
>  <cdx:fragmentId>
5

$$$$
