50485.cdx
  Mrv1902 05222410252D          

 39 42  0  0  0  0            999 V2000
   12.1516   -9.4030    0.0000 O   0  0  0  0  0  0  0  0  0  0  0  0
    7.8648   -9.4030    0.0000 O   0  0  0  0  0  0  0  0  0  0  0  0
    9.2937   -6.9280    0.0000 C   0  0  0  0  0  0  0  0  0  0  0  0
    7.8648   -6.9280    0.0000 C   0  0  0  0  0  0  0  0  0  0  0  0
    8.5793   -7.3405    0.0000 C   0  0  0  0  0  0  0  0  0  0  0  0
    8.5793   -8.1655    0.0000 C   0  0  0  0  0  0  0  0  0  0  0  0
    9.2937   -8.5780    0.0000 C   0  0  0  0  0  0  0  0  0  0  0  0
   10.7227  -11.0530    0.0000 C   0  0  0  0  0  0  0  0  0  0  0  0
   11.4372  -10.6405    0.0000 C   0  0  0  0  0  0  0  0  0  0  0  0
   11.4372   -9.8155    0.0000 C   0  0  0  0  0  0  0  0  0  0  0  0
   10.7227   -9.4030    0.0000 O   0  0  0  0  0  0  0  0  0  0  0  0
    9.2937  -11.0530    0.0000 C   0  0  0  0  0  0  0  0  0  0  0  0
   10.0082  -10.6405    0.0000 C   0  0  0  0  0  0  0  0  0  0  0  0
   10.0082   -9.8155    0.0000 C   0  0  0  0  0  0  0  0  0  0  0  0
    9.2937   -9.4030    0.0000 C   0  0  0  0  0  0  0  0  0  0  0  0
    8.5793   -9.8155    0.0000 C   0  0  0  0  0  0  0  0  0  0  0  0
    8.5793  -10.6405    0.0000 C   0  0  0  0  0  0  0  0  0  0  0  0
    7.1503   -9.8155    0.0000 C   0  0  2  0  0  0  0  0  0  0  0  0
    6.4359   -9.4030    0.0000 O   0  0  0  0  0  0  0  0  0  0  0  0
    5.7214   -9.8155    0.0000 C   0  0  1  0  0  0  0  0  0  0  0  0
    5.7214  -10.6405    0.0000 C   0  0  2  0  0  0  0  0  0  0  0  0
    6.4359  -11.0530    0.0000 C   0  0  1  0  0  0  0  0  0  0  0  0
    7.1503  -10.6405    0.0000 C   0  0  1  0  0  0  0  0  0  0  0  0
    5.0069   -9.4030    0.0000 C   0  0  0  0  0  0  0  0  0  0  0  0
    6.4359  -11.8780    0.0000 O   0  0  0  0  0  0  0  0  0  0  0  0
    7.8648  -11.0530    0.0000 O   0  0  0  0  0  0  0  0  0  0  0  0
    5.0069  -11.0530    0.0000 O   0  0  0  0  0  0  0  0  0  0  0  0
    4.2924   -9.8155    0.0000 O   0  0  0  0  0  0  0  0  0  0  0  0
    3.5780   -9.4030    0.0000 C   0  0  2  0  0  0  0  0  0  0  0  0
    3.5780   -8.5780    0.0000 O   0  0  0  0  0  0  0  0  0  0  0  0
    2.8635   -8.1655    0.0000 C   0  0  1  0  0  0  0  0  0  0  0  0
    2.1490   -8.5780    0.0000 C   0  0  2  0  0  0  0  0  0  0  0  0
    2.1490   -9.4030    0.0000 C   0  0  1  0  0  0  0  0  0  0  0  0
    2.8635   -9.8155    0.0000 C   0  0  1  0  0  0  0  0  0  0  0  0
    2.8635   -7.3405    0.0000 C   0  0  0  0  0  0  0  0  0  0  0  0
    1.4346   -9.8155    0.0000 O   0  0  0  0  0  0  0  0  0  0  0  0
    2.8635  -10.6405    0.0000 O   0  0  0  0  0  0  0  0  0  0  0  0
    1.4346   -8.1655    0.0000 O   0  0  0  0  0  0  0  0  0  0  0  0
    2.1490   -6.9280    0.0000 O   0  0  0  0  0  0  0  0  0  0  0  0
 10  1  2  0  0  0  0
 16  2  1  0  0  0  0
  5  3  1  0  0  0  0
  5  4  1  0  0  0  0
  6  5  2  0  0  0  0
  7  6  1  0  0  0  0
 15  7  1  0  0  0  0
  8 13  1  0  0  0  0
  9  8  2  0  0  0  0
 10  9  1  0  0  0  0
 11 10  1  0  0  0  0
 14 11  1  0  0  0  0
 12 17  2  0  0  0  0
 13 12  1  0  0  0  0
 14 13  2  0  0  0  0
 15 14  1  0  0  0  0
 16 15  2  0  0  0  0
 17 16  1  0  0  0  0
 18  2  1  1  0  0  0
 18 19  1  0  0  0  0
 19 20  1  0  0  0  0
 20 21  1  0  0  0  0
 21 22  1  0  0  0  0
 22 23  1  0  0  0  0
 23 18  1  0  0  0  0
 20 24  1  1  0  0  0
 22 25  1  1  0  0  0
 23 26  1  6  0  0  0
 21 27  1  6  0  0  0
 24 28  1  0  0  0  0
 29 28  1  1  0  0  0
 29 30  1  0  0  0  0
 30 31  1  0  0  0  0
 31 32  1  0  0  0  0
 32 33  1  0  0  0  0
 33 34  1  0  0  0  0
 34 29  1  0  0  0  0
 31 35  1  1  0  0  0
 33 36  1  1  0  0  0
 34 37  1  6  0  0  0
 32 38  1  6  0  0  0
 35 39  1  0  0  0  0
M  END
>  <cdx:fragmentId>
107

$$$$
