50496.cdx
  Mrv1902 05222410232D          

 32 35  0  0  0  0            999 V2000
    4.4324   -8.7588    0.0000 C   0  0  0  0  0  0  0  0  0  0  0  0
    4.4324   -9.5838    0.0000 C   0  0  0  0  0  0  0  0  0  0  0  0
    5.1469   -9.9962    0.0000 C   0  0  0  0  0  0  0  0  0  0  0  0
    5.8614   -9.5838    0.0000 C   0  0  0  0  0  0  0  0  0  0  0  0
    5.8614   -8.7588    0.0000 C   0  0  0  0  0  0  0  0  0  0  0  0
    5.1469   -8.3462    0.0000 C   0  0  0  0  0  0  0  0  0  0  0  0
    6.5758   -9.9962    0.0000 C   0  0  0  0  0  0  0  0  0  0  0  0
    7.2903   -9.5838    0.0000 C   0  0  0  0  0  0  0  0  0  0  0  0
    7.2903   -8.7588    0.0000 C   0  0  0  0  0  0  0  0  0  0  0  0
    6.5758   -8.3462    0.0000 O   0  0  0  0  0  0  0  0  0  0  0  0
    8.0048   -9.9962    0.0000 C   0  0  0  0  0  0  0  0  0  0  0  0
    8.7193   -9.5838    0.0000 C   0  0  0  0  0  0  0  0  0  0  0  0
    8.0048  -10.8212    0.0000 C   0  0  0  0  0  0  0  0  0  0  0  0
    8.7193  -11.2337    0.0000 C   0  0  0  0  0  0  0  0  0  0  0  0
    9.4337  -10.8212    0.0000 C   0  0  0  0  0  0  0  0  0  0  0  0
    9.4337   -9.9962    0.0000 C   0  0  0  0  0  0  0  0  0  0  0  0
    3.7180   -8.3462    0.0000 O   0  0  0  0  0  0  0  0  0  0  0  0
   10.1482  -11.2338    0.0000 O   0  0  0  0  0  0  0  0  0  0  0  0
   10.8627  -10.8212    0.0000 C   0  0  0  0  0  0  0  0  0  0  0  0
    6.5758  -10.8212    0.0000 O   0  0  0  0  0  0  0  0  0  0  0  0
    5.1469   -7.5213    0.0000 C   0  0  2  0  0  0  0  0  0  0  0  0
    5.8614   -7.1088    0.0000 O   0  0  0  0  0  0  0  0  0  0  0  0
    5.8614   -6.2837    0.0000 C   0  0  1  0  0  0  0  0  0  0  0  0
    5.1469   -5.8712    0.0000 C   0  0  2  0  0  0  0  0  0  0  0  0
    4.4324   -6.2837    0.0000 C   0  0  1  0  0  0  0  0  0  0  0  0
    4.4324   -7.1088    0.0000 C   0  0  1  0  0  0  0  0  0  0  0  0
    3.7180   -5.8712    0.0000 O   0  0  0  0  0  0  0  0  0  0  0  0
    6.5758   -5.8712    0.0000 C   0  0  0  0  0  0  0  0  0  0  0  0
    3.7180   -7.5213    0.0000 O   0  0  0  0  0  0  0  0  0  0  0  0
    5.1469   -5.0462    0.0000 O   0  0  0  0  0  0  0  0  0  0  0  0
    6.5758   -5.0462    0.0000 O   0  0  0  0  0  0  0  0  0  0  0  0
    5.8614   -7.9337    0.0000 H   0  0  0  0  0  0  0  0  0  0  0  0
  1  2  2  0  0  0  0
  2  3  1  0  0  0  0
  3  4  2  0  0  0  0
  4  5  1  0  0  0  0
  5  6  2  0  0  0  0
  6  1  1  0  0  0  0
  4  7  1  0  0  0  0
  7  8  1  0  0  0  0
  8  9  2  0  0  0  0
  9 10  1  0  0  0  0
 10  5  1  0  0  0  0
  8 11  1  0  0  0  0
 11 12  2  0  0  0  0
 11 13  1  0  0  0  0
 13 14  2  0  0  0  0
 14 15  1  0  0  0  0
 15 16  2  0  0  0  0
 16 12  1  0  0  0  0
  1 17  1  0  0  0  0
 15 18  1  0  0  0  0
 18 19  1  0  0  0  0
  7 20  2  0  0  0  0
  6 21  1  0  0  0  0
 21 22  1  0  0  0  0
 22 23  1  0  0  0  0
 23 24  1  0  0  0  0
 24 25  1  0  0  0  0
 25 26  1  0  0  0  0
 26 21  1  0  0  0  0
 25 27  1  1  0  0  0
 23 28  1  1  0  0  0
 26 29  1  6  0  0  0
 24 30  1  6  0  0  0
 28 31  1  0  0  0  0
 21 32  1  6  0  0  0
M  END
>  <cdx:fragmentId>
5

$$$$
