50498.cdx
  Mrv1902 05222410222D          

 26 28  0  0  0  0            999 V2000
    6.0474   -6.6657    0.0000 O   0  0  0  0  0  0  0  0  0  0  0  0
    5.3291   -7.0715    0.0000 C   0  0  2  0  0  0  0  0  0  0  0  0
    4.6185   -6.6524    0.0000 O   0  0  0  0  0  0  0  0  0  0  0  0
    3.9002   -7.0582    0.0000 C   0  0  1  0  0  0  0  0  0  0  0  0
    3.8926   -7.8832    0.0000 C   0  0  2  0  0  0  0  0  0  0  0  0
    4.6032   -8.3023    0.0000 C   0  0  1  0  0  0  0  0  0  0  0  0
    5.3215   -7.8965    0.0000 C   0  0  1  0  0  0  0  0  0  0  0  0
    3.1896   -6.6391    0.0000 C   0  0  0  0  0  0  0  0  0  0  0  0
    4.5955   -9.1273    0.0000 O   0  0  0  0  0  0  0  0  0  0  0  0
    6.0321   -8.3156    0.0000 O   0  0  0  0  0  0  0  0  0  0  0  0
    3.1743   -8.2890    0.0000 O   0  0  0  0  0  0  0  0  0  0  0  0
    2.4714   -7.0450    0.0000 O   0  0  0  0  0  0  0  0  0  0  0  0
    7.5010   -9.1262    0.0000 C   0  0  0  0  0  0  0  0  0  0  0  0
    9.6444   -9.5244    0.0000 C   0  0  0  0  0  0  0  0  0  0  0  0
    8.9299   -9.1119    0.0000 O   0  0  0  0  0  0  0  0  0  0  0  0
   10.3340   -6.6227    0.0000 O   0  0  0  0  0  0  0  0  0  0  0  0
    8.9217   -8.2870    0.0000 C   0  0  0  0  0  0  0  0  0  0  0  0
    9.6320   -7.8673    0.0000 C   0  0  0  0  0  0  0  0  0  0  0  0
    9.6237   -7.0424    0.0000 C   0  0  0  0  0  0  0  0  0  0  0  0
    8.9051   -6.6370    0.0000 O   0  0  0  0  0  0  0  0  0  0  0  0
    7.4928   -8.3013    0.0000 C   0  0  0  0  0  0  0  0  0  0  0  0
    8.2031   -7.8816    0.0000 C   0  0  0  0  0  0  0  0  0  0  0  0
    8.1948   -7.0567    0.0000 C   0  0  0  0  0  0  0  0  0  0  0  0
    7.4763   -6.6513    0.0000 C   0  0  0  0  0  0  0  0  0  0  0  0
    6.7660   -7.0710    0.0000 C   0  0  0  0  0  0  0  0  0  0  0  0
    6.7742   -7.8959    0.0000 C   0  0  0  0  0  0  0  0  0  0  0  0
  2  1  1  1  0  0  0
  2  3  1  0  0  0  0
  3  4  1  0  0  0  0
  4  5  1  0  0  0  0
  5  6  1  0  0  0  0
  6  7  1  0  0  0  0
  7  2  1  0  0  0  0
  4  8  1  1  0  0  0
  6  9  1  1  0  0  0
  7 10  1  6  0  0  0
  5 11  1  6  0  0  0
 25  1  1  0  0  0  0
  8 12  1  0  0  0  0
 21 13  1  0  0  0  0
 15 14  1  0  0  0  0
 17 15  1  0  0  0  0
 19 16  2  0  0  0  0
 17 22  1  0  0  0  0
 18 17  2  0  0  0  0
 19 18  1  0  0  0  0
 20 19  1  0  0  0  0
 23 20  1  0  0  0  0
 21 26  1  0  0  0  0
 22 21  2  0  0  0  0
 23 22  1  0  0  0  0
 24 23  2  0  0  0  0
 25 24  1  0  0  0  0
 26 25  2  0  0  0  0
M  END
>  <cdx:fragmentId>
5

$$$$
