50493.cdx
  Mrv1902 05222410252D          

 14 14  0  0  0  0            999 V2000
    5.9106   -9.3214    0.0000 C   0  0  0  0  0  0  0  0  0  0  0  0
    5.9106  -10.1464    0.0000 C   0  0  0  0  0  0  0  0  0  0  0  0
    6.6250  -10.5589    0.0000 C   0  0  0  0  0  0  0  0  0  0  0  0
    7.3395  -10.1464    0.0000 C   0  0  0  0  0  0  0  0  0  0  0  0
    7.3395   -9.3214    0.0000 C   0  0  0  0  0  0  0  0  0  0  0  0
    6.6250   -8.9089    0.0000 C   0  0  0  0  0  0  0  0  0  0  0  0
    8.0540   -8.9089    0.0000 O   0  0  0  0  0  0  0  0  0  0  0  0
    8.7684   -9.3214    0.0000 C   0  0  0  0  0  0  0  0  0  0  0  0
    5.1961  -10.5589    0.0000 O   0  0  0  0  0  0  0  0  0  0  0  0
    4.4816  -10.1464    0.0000 C   0  0  0  0  0  0  0  0  0  0  0  0
    6.6250   -8.0839    0.0000 C   0  0  0  0  0  0  0  0  0  0  0  0
    6.6250  -11.3839    0.0000 C   0  0  0  0  0  0  0  0  0  0  0  0
    7.3395  -11.7964    0.0000 C   0  0  0  0  0  0  0  0  0  0  0  0
    5.9106  -11.7964    0.0000 C   0  0  0  0  0  0  0  0  0  0  0  0
  1  2  2  0  0  0  0
  2  3  1  0  0  0  0
  3  4  2  0  0  0  0
  4  5  1  0  0  0  0
  5  6  2  0  0  0  0
  6  1  1  0  0  0  0
  5  7  1  0  0  0  0
  7  8  1  0  0  0  0
  2  9  1  0  0  0  0
  9 10  1  0  0  0  0
  6 11  1  0  0  0  0
  3 12  1  0  0  0  0
 12 13  1  0  0  0  0
 12 14  1  0  0  0  0
M  END
>  <cdx:fragmentId>
5

$$$$
