50499.cdx
  Mrv1902 05222410222D          

 19 20  0  0  0  0            999 V2000
    4.3706   -9.1839    0.0000 C   0  0  0  0  0  0  0  0  0  0  0  0
    4.3706  -10.0089    0.0000 C   0  0  0  0  0  0  0  0  0  0  0  0
    5.0850  -10.4214    0.0000 C   0  0  0  0  0  0  0  0  0  0  0  0
    5.7995  -10.0089    0.0000 C   0  0  0  0  0  0  0  0  0  0  0  0
    5.7995   -9.1839    0.0000 C   0  0  0  0  0  0  0  0  0  0  0  0
    5.0850   -8.7714    0.0000 C   0  0  0  0  0  0  0  0  0  0  0  0
    6.5140  -10.4214    0.0000 O   0  0  0  0  0  0  0  0  0  0  0  0
    7.2284  -10.0089    0.0000 C   0  0  0  0  0  0  0  0  0  0  0  0
    7.2284   -9.1839    0.0000 C   0  0  0  0  0  0  0  0  0  0  0  0
    6.5140   -8.7714    0.0000 C   0  0  0  0  0  0  0  0  0  0  0  0
    7.9429  -10.4214    0.0000 O   0  0  0  0  0  0  0  0  0  0  0  0
    3.6561  -10.4214    0.0000 O   0  0  0  0  0  0  0  0  0  0  0  0
    2.9416  -10.0089    0.0000 S   0  0  0  0  0  0  0  0  0  0  0  0
    2.2271   -9.5964    0.0000 O   0  0  0  0  0  0  0  0  0  0  0  0
    3.3541   -9.2944    0.0000 O   0  0  0  0  0  0  0  0  0  0  0  0
    2.5291  -10.7234    0.0000 O   0  0  0  0  0  0  0  0  0  0  0  0
    5.0850   -7.9464    0.0000 C   0  0  0  0  0  0  0  0  0  0  0  0
    6.5140   -7.9464    0.0000 O   0  0  0  0  0  0  0  0  0  0  0  0
    7.2284   -7.5339    0.0000 C   0  0  0  0  0  0  0  0  0  0  0  0
  1  2  2  0  0  0  0
  2  3  1  0  0  0  0
  3  4  2  0  0  0  0
  4  5  1  0  0  0  0
  5  6  2  0  0  0  0
  6  1  1  0  0  0  0
  4  7  1  0  0  0  0
  7  8  1  0  0  0  0
  8  9  1  0  0  0  0
  9 10  2  0  0  0  0
 10  5  1  0  0  0  0
  8 11  2  0  0  0  0
  2 12  1  0  0  0  0
 12 13  1  0  0  0  0
 13 14  1  0  0  0  0
 13 15  2  0  0  0  0
 13 16  2  0  0  0  0
  6 17  1  0  0  0  0
 10 18  1  0  0  0  0
 18 19  1  0  0  0  0
M  END
>  <cdx:fragmentId>
5

$$$$
