50490.cdx
  Mrv1902 05222410252D          

 25 28  0  0  0  0            999 V2000
    3.1881   -9.9676    0.0000 C   0  0  0  0  0  0  0  0  0  0  0  0
    3.1881  -10.7926    0.0000 C   0  0  0  0  0  0  0  0  0  0  0  0
    3.9025  -11.2051    0.0000 O   0  0  0  0  0  0  0  0  0  0  0  0
    4.6170  -10.7926    0.0000 C   0  0  0  0  0  0  0  0  0  0  0  0
    4.6170   -9.9676    0.0000 C   0  0  0  0  0  0  0  0  0  0  0  0
    3.9025   -9.5551    0.0000 C   0  0  0  0  0  0  0  0  0  0  0  0
    5.3315  -11.2051    0.0000 C   0  0  0  0  0  0  0  0  0  0  0  0
    6.0459  -10.7926    0.0000 C   0  0  0  0  0  0  0  0  0  0  0  0
    6.0459   -9.9676    0.0000 C   0  0  0  0  0  0  0  0  0  0  0  0
    5.3315   -9.5551    0.0000 C   0  0  0  0  0  0  0  0  0  0  0  0
    6.7604   -9.5551    0.0000 C   0  0  0  0  0  0  0  0  0  0  0  0
    6.7604   -8.7301    0.0000 C   0  0  1  0  0  0  0  0  0  0  0  0
    6.0459   -8.3176    0.0000 C   0  0  0  0  0  0  0  0  0  0  0  0
    5.3315   -8.7301    0.0000 O   0  0  0  0  0  0  0  0  0  0  0  0
    8.1894   -9.5551    0.0000 O   0  0  0  0  0  0  0  0  0  0  0  0
    8.1894   -8.7301    0.0000 C   0  0  0  0  0  0  0  0  0  0  0  0
    7.4749   -8.3176    0.0000 C   0  0  0  0  0  0  0  0  0  0  0  0
    8.9038   -8.3176    0.0000 C   0  0  0  0  0  0  0  0  0  0  0  0
    8.9038   -7.4926    0.0000 C   0  0  0  0  0  0  0  0  0  0  0  0
    8.1894   -7.0801    0.0000 C   0  0  0  0  0  0  0  0  0  0  0  0
    7.4749   -7.4926    0.0000 C   0  0  0  0  0  0  0  0  0  0  0  0
    2.3631  -10.7926    0.0000 C   0  0  0  0  0  0  0  0  0  0  0  0
    2.9745  -11.5895    0.0000 C   0  0  0  0  0  0  0  0  0  0  0  0
    9.6183   -7.0801    0.0000 O   0  0  0  0  0  0  0  0  0  0  0  0
    3.9025   -8.7301    0.0000 O   0  0  0  0  0  0  0  0  0  0  0  0
  1  2  1  0  0  0  0
  2  3  1  0  0  0  0
  3  4  1  0  0  0  0
  4  5  2  0  0  0  0
  5  6  1  0  0  0  0
  6  1  2  0  0  0  0
  4  7  1  0  0  0  0
  7  8  2  0  0  0  0
  8  9  1  0  0  0  0
  9 10  2  0  0  0  0
 10  5  1  0  0  0  0
  9 11  1  0  0  0  0
 11 12  1  0  0  0  0
 12 13  1  0  0  0  0
 13 14  1  0  0  0  0
 14 10  1  0  0  0  0
 15 16  1  0  0  0  0
 16 17  2  0  0  0  0
 12 17  1  1  0  0  0
 16 18  1  0  0  0  0
 18 19  2  0  0  0  0
 19 20  1  0  0  0  0
 20 21  2  0  0  0  0
 21 17  1  0  0  0  0
  2 22  1  0  0  0  0
  2 23  1  0  0  0  0
 19 24  1  0  0  0  0
  6 25  1  0  0  0  0
M  END
>  <cdx:fragmentId>
5

$$$$
