50491.cdx
  Mrv1902 05222410252D          

 34 37  0  0  0  0            999 V2000
    5.8326   -6.0236    0.0000 C   0  0  2  0  0  0  0  0  0  0  0  0
    5.1238   -5.6016    0.0000 C   0  0  2  0  0  0  0  0  0  0  0  0
    4.4038   -6.0045    0.0000 C   0  0  1  0  0  0  0  0  0  0  0  0
    4.3928   -6.8294    0.0000 C   0  0  2  0  0  0  0  0  0  0  0  0
    5.1017   -7.2514    0.0000 C   0  0  1  0  0  0  0  0  0  0  0  0
    5.8216   -6.8485    0.0000 O   0  0  0  0  0  0  0  0  0  0  0  0
   11.0411   -6.5340    0.0000 O   0  0  0  0  0  0  0  0  0  0  0  0
   11.6418   -7.3390    0.0000 O   0  0  0  0  0  0  0  0  0  0  0  0
    7.9151  -10.5894    0.0000 O   0  0  0  0  0  0  0  0  0  0  0  0
    6.4863  -10.5703    0.0000 O   0  0  0  0  0  0  0  0  0  0  0  0
   10.8059   -8.1529    0.0000 C   0  0  0  0  0  0  0  0  0  0  0  0
   10.8169   -7.3279    0.0000 C   0  0  0  0  0  0  0  0  0  0  0  0
   10.1080   -6.9059    0.0000 C   0  0  0  0  0  0  0  0  0  0  0  0
    9.3881   -7.3088    0.0000 C   0  0  0  0  0  0  0  0  0  0  0  0
   10.0859   -8.5558    0.0000 C   0  0  0  0  0  0  0  0  0  0  0  0
    9.3771   -8.1337    0.0000 C   0  0  0  0  0  0  0  0  0  0  0  0
    7.9262   -9.7645    0.0000 C   0  0  0  0  0  0  0  0  0  0  0  0
    8.6461   -9.3616    0.0000 C   0  0  0  0  0  0  0  0  0  0  0  0
    8.6571   -8.5366    0.0000 C   0  0  0  0  0  0  0  0  0  0  0  0
    7.9482   -8.1146    0.0000 O   0  0  0  0  0  0  0  0  0  0  0  0
    6.4973   -9.7453    0.0000 C   0  0  0  0  0  0  0  0  0  0  0  0
    7.2173   -9.3424    0.0000 C   0  0  0  0  0  0  0  0  0  0  0  0
    7.2283   -8.5175    0.0000 C   0  0  0  0  0  0  0  0  0  0  0  0
    6.5194   -8.0955    0.0000 C   0  0  0  0  0  0  0  0  0  0  0  0
    5.0906   -8.0763    0.0000 O   0  0  0  0  0  0  0  0  0  0  0  0
    5.0685   -9.7262    0.0000 O   0  0  0  0  0  0  0  0  0  0  0  0
    5.7885   -9.3233    0.0000 C   0  0  0  0  0  0  0  0  0  0  0  0
    5.7995   -8.4984    0.0000 C   0  0  0  0  0  0  0  0  0  0  0  0
    6.5526   -5.6207    0.0000 C   0  0  0  0  0  0  0  0  0  0  0  0
    6.5636   -4.7958    0.0000 O   0  0  0  0  0  0  0  0  0  0  0  0
    7.2615   -6.0427    0.0000 O   0  0  0  0  0  0  0  0  0  0  0  0
    3.6949   -5.5824    0.0000 O   0  0  0  0  0  0  0  0  0  0  0  0
    5.1348   -4.7766    0.0000 O   0  0  0  0  0  0  0  0  0  0  0  0
    3.6728   -7.2323    0.0000 O   0  0  0  0  0  0  0  0  0  0  0  0
 12  7  1  0  0  0  0
 12  8  1  0  0  0  0
 17  9  2  0  0  0  0
 21 10  1  0  0  0  0
  1  2  1  0  0  0  0
  2  3  1  0  0  0  0
  3  4  1  0  0  0  0
  4  5  1  0  0  0  0
  5  6  1  0  0  0  0
  6  1  1  0  0  0  0
 11 15  1  0  0  0  0
 12 11  1  0  0  0  0
 13 12  1  0  0  0  0
 14 13  2  0  0  0  0
 16 14  1  0  0  0  0
 16 15  2  0  0  0  0
 19 16  1  0  0  0  0
 17 22  1  0  0  0  0
 18 17  1  0  0  0  0
 19 18  2  0  0  0  0
 20 19  1  0  0  0  0
 23 20  1  0  0  0  0
 21 27  1  0  0  0  0
 22 21  2  0  0  0  0
 23 22  1  0  0  0  0
 24 23  2  0  0  0  0
 28 24  1  0  0  0  0
 27 26  1  0  0  0  0
 28 27  2  0  0  0  0
 25 28  1  0  0  0  0
  5 25  1  1  0  0  0
  1 29  1  1  0  0  0
 29 30  1  0  0  0  0
 29 31  2  0  0  0  0
  3 32  1  1  0  0  0
  2 33  1  6  0  0  0
  4 34  1  6  0  0  0
M  END
>  <cdx:fragmentId>
5

$$$$
