50497.cdx
  Mrv1902 05222410232D          

 10 10  0  0  0  0            999 V2000
    5.5393   -8.2489    0.0000 C   0  0  0  0  0  0  0  0  0  0  0  0
    5.5393   -9.0739    0.0000 C   0  0  0  0  0  0  0  0  0  0  0  0
    6.2538   -9.4864    0.0000 C   0  0  0  0  0  0  0  0  0  0  0  0
    6.9682   -9.0739    0.0000 C   0  0  0  0  0  0  0  0  0  0  0  0
    6.9682   -8.2489    0.0000 C   0  0  0  0  0  0  0  0  0  0  0  0
    6.2538   -7.8364    0.0000 C   0  0  0  0  0  0  0  0  0  0  0  0
    7.6827   -7.8364    0.0000 O   0  0  0  0  0  0  0  0  0  0  0  0
    7.6827   -9.4864    0.0000 O   0  0  0  0  0  0  0  0  0  0  0  0
    4.8248   -9.4864    0.0000 O   0  0  0  0  0  0  0  0  0  0  0  0
    4.1104   -9.0739    0.0000 C   0  0  0  0  0  0  0  0  0  0  0  0
  1  2  2  0  0  0  0
  2  3  1  0  0  0  0
  3  4  2  0  0  0  0
  4  5  1  0  0  0  0
  5  6  2  0  0  0  0
  6  1  1  0  0  0  0
  5  7  1  0  0  0  0
  4  8  1  0  0  0  0
  2  9  1  0  0  0  0
  9 10  1  0  0  0  0
M  END
>  <cdx:fragmentId>
5

$$$$
