50494.cdx
  Mrv1902 05222410242D          

 10 10  0  0  0  0            999 V2000
    6.7356  -11.1914    0.0000 C   0  0  0  0  0  0  0  0  0  0  0  0
    6.7356  -12.0164    0.0000 C   0  0  0  0  0  0  0  0  0  0  0  0
    7.4500  -12.4289    0.0000 C   0  0  0  0  0  0  0  0  0  0  0  0
    8.1645  -12.0164    0.0000 C   0  0  0  0  0  0  0  0  0  0  0  0
    8.1645  -11.1914    0.0000 C   0  0  0  0  0  0  0  0  0  0  0  0
    7.4500  -10.7789    0.0000 C   0  0  0  0  0  0  0  0  0  0  0  0
    7.4500   -9.9539    0.0000 O   0  0  0  0  0  0  0  0  0  0  0  0
    7.4500  -13.2539    0.0000 C   0  0  0  0  0  0  0  0  0  0  0  0
    8.1645  -13.6664    0.0000 C   0  0  0  0  0  0  0  0  0  0  0  0
    6.7356  -13.6664    0.0000 C   0  0  0  0  0  0  0  0  0  0  0  0
  1  2  1  0  0  0  0
  2  3  1  0  0  0  0
  3  4  1  0  0  0  0
  4  5  1  0  0  0  0
  5  6  1  0  0  0  0
  6  1  1  0  0  0  0
  6  7  2  0  0  0  0
  3  8  1  0  0  0  0
  8  9  1  0  0  0  0
  8 10  1  0  0  0  0
M  END
>  <cdx:fragmentId>
5

$$$$
