50507.cdx
  Mrv1902 05222410222D          

 13 12  0  0  0  0            999 V2000
    5.3542   -8.7315    0.0000 C   0  0  0  0  0  0  0  0  0  0  0  0
    4.6397   -9.1440    0.0000 C   0  0  0  0  0  0  0  0  0  0  0  0
    3.9253   -8.7315    0.0000 C   0  0  0  0  0  0  0  0  0  0  0  0
    3.2108   -9.1440    0.0000 C   0  0  0  0  0  0  0  0  0  0  0  0
    5.3542   -7.9065    0.0000 O   0  0  0  0  0  0  0  0  0  0  0  0
    6.0687   -9.1440    0.0000 O   0  0  0  0  0  0  0  0  0  0  0  0
    6.7831   -8.7315    0.0000 C   0  0  0  0  0  0  0  0  0  0  0  0
    7.4976   -9.1440    0.0000 C   0  0  0  0  0  0  0  0  0  0  0  0
    8.2121   -8.7315    0.0000 C   0  0  0  0  0  0  0  0  0  0  0  0
    8.9266   -9.1440    0.0000 C   0  0  0  0  0  0  0  0  0  0  0  0
    9.6410   -8.7315    0.0000 C   0  0  0  0  0  0  0  0  0  0  0  0
   10.3555   -9.1440    0.0000 C   0  0  0  0  0  0  0  0  0  0  0  0
    8.9266   -9.9690    0.0000 C   0  0  0  0  0  0  0  0  0  0  0  0
  1  2  1  0  0  0  0
  2  3  1  0  0  0  0
  3  4  1  0  0  0  0
  1  5  2  0  0  0  0
  1  6  1  0  0  0  0
  7  8  1  0  0  0  0
  8  9  1  0  0  0  0
  9 10  1  0  0  0  0
 10 11  1  0  0  0  0
 11 12  1  0  0  0  0
 10 13  1  0  0  0  0
  6  7  1  0  0  0  0
M  END
>  <cdx:fragmentId>
17

$$$$
