50509.cdx
  Mrv1902 05222410242D          

 13 12  0  0  0  0            999 V2000
    2.9813   -7.0939    0.0000 C   0  0  0  0  0  0  0  0  0  0  0  0
    3.6957   -6.6814    0.0000 C   0  0  0  0  0  0  0  0  0  0  0  0
    4.4102   -7.0939    0.0000 C   0  0  0  0  0  0  0  0  0  0  0  0
    5.1247   -6.6814    0.0000 C   0  0  0  0  0  0  0  0  0  0  0  0
    5.8392   -7.0939    0.0000 O   0  0  0  0  0  0  0  0  0  0  0  0
    6.5536   -6.6814    0.0000 C   0  0  0  0  0  0  0  0  0  0  0  0
    7.2681   -7.0939    0.0000 C   0  0  0  0  0  0  0  0  0  0  0  0
    7.9826   -6.6814    0.0000 C   0  0  0  0  0  0  0  0  0  0  0  0
    8.6970   -7.0939    0.0000 C   0  0  0  0  0  0  0  0  0  0  0  0
    9.4115   -6.6814    0.0000 C   0  0  0  0  0  0  0  0  0  0  0  0
    4.4102   -7.9189    0.0000 C   0  0  0  0  0  0  0  0  0  0  0  0
    5.1247   -5.8564    0.0000 O   0  0  0  0  0  0  0  0  0  0  0  0
    8.6970   -7.9189    0.0000 C   0  0  0  0  0  0  0  0  0  0  0  0
  1  2  1  0  0  0  0
  2  3  2  0  0  0  0
  3  4  1  0  0  0  0
  4  5  1  0  0  0  0
  5  6  1  0  0  0  0
  6  7  1  0  0  0  0
  7  8  1  0  0  0  0
  8  9  1  0  0  0  0
  9 10  1  0  0  0  0
  3 11  1  0  0  0  0
  4 12  2  0  0  0  0
  9 13  1  0  0  0  0
M  END
>  <cdx:fragmentId>
3

$$$$
