50502.cdx
  Mrv1902 05222410212D          

  7  8  0  0  0  0            999 V2000
    7.1134   -6.0304    0.0000 C   0  0  0  0  0  0  0  0  0  0  0  0
    6.5851   -6.6641    0.0000 C   0  0  0  0  0  0  0  0  0  0  0  0
    7.0245   -7.3624    0.0000 C   0  0  0  0  0  0  0  0  0  0  0  0
    7.8244   -7.1602    0.0000 C   0  0  0  0  0  0  0  0  0  0  0  0
    7.8793   -6.3370    0.0000 C   0  0  0  0  0  0  0  0  0  0  0  0
    8.5647   -6.7962    0.0000 C   0  0  0  0  0  0  0  0  0  0  0  0
    6.9112   -5.2306    0.0000 C   0  0  0  0  0  0  0  0  0  0  0  0
  1  2  1  0  0  0  0
  2  3  2  0  0  0  0
  3  4  1  0  0  0  0
  4  5  1  0  0  0  0
  5  1  1  0  0  0  0
  4  6  1  0  0  0  0
  6  5  1  0  0  0  0
  1  7  1  0  0  0  0
M  END
>  <cdx:fragmentId>
5

$$$$
