50506.cdx
  Mrv1902 05222410222D          

 24 26  0  0  0  0            999 V2000
    4.8106   -7.7126    0.0000 C   0  0  2  0  0  0  0  0  0  0  0  0
    4.8106   -8.5376    0.0000 C   0  0  2  0  0  0  0  0  0  0  0  0
    5.5250   -8.9501    0.0000 C   0  0  1  0  0  0  0  0  0  0  0  0
    6.2395   -8.5376    0.0000 C   0  0  2  0  0  0  0  0  0  0  0  0
    6.2395   -7.7126    0.0000 C   0  0  1  0  0  0  0  0  0  0  0  0
    5.5250   -7.3001    0.0000 O   0  0  0  0  0  0  0  0  0  0  0  0
    9.8118   -9.7752    0.0000 C   0  0  0  0  0  0  0  0  0  0  0  0
   11.2408   -7.3002    0.0000 O   0  0  0  0  0  0  0  0  0  0  0  0
    9.8118   -8.9502    0.0000 C   0  0  0  0  0  0  0  0  0  0  0  0
   10.5263   -8.5377    0.0000 C   0  0  0  0  0  0  0  0  0  0  0  0
   10.5263   -7.7127    0.0000 C   0  0  0  0  0  0  0  0  0  0  0  0
    9.8119   -7.3002    0.0000 O   0  0  0  0  0  0  0  0  0  0  0  0
    8.3829   -8.9502    0.0000 C   0  0  0  0  0  0  0  0  0  0  0  0
    9.0974   -8.5377    0.0000 C   0  0  0  0  0  0  0  0  0  0  0  0
    9.0974   -7.7127    0.0000 C   0  0  0  0  0  0  0  0  0  0  0  0
    8.3829   -7.3002    0.0000 C   0  0  0  0  0  0  0  0  0  0  0  0
    7.6684   -8.5377    0.0000 C   0  0  0  0  0  0  0  0  0  0  0  0
    4.0961   -7.3001    0.0000 C   0  0  0  0  0  0  0  0  0  0  0  0
    3.3816   -7.7126    0.0000 O   0  0  0  0  0  0  0  0  0  0  0  0
    5.5250   -9.7751    0.0000 O   0  0  0  0  0  0  0  0  0  0  0  0
    4.0961   -8.9501    0.0000 O   0  0  0  0  0  0  0  0  0  0  0  0
    6.9540   -8.9501    0.0000 O   0  0  0  0  0  0  0  0  0  0  0  0
    7.6684   -7.7126    0.0000 C   0  0  0  0  0  0  0  0  0  0  0  0
    6.9540   -7.3001    0.0000 O   0  0  0  0  0  0  0  0  0  0  0  0
  1  2  1  0  0  0  0
  2  3  1  0  0  0  0
  3  4  1  0  0  0  0
  4  5  1  0  0  0  0
  5  6  1  0  0  0  0
  6  1  1  0  0  0  0
  9  7  1  0  0  0  0
 11  8  2  0  0  0  0
  5 24  1  1  0  0  0
  9 14  1  0  0  0  0
 10  9  2  0  0  0  0
 11 10  1  0  0  0  0
 12 11  1  0  0  0  0
 15 12  1  0  0  0  0
 13 17  2  0  0  0  0
 14 13  1  0  0  0  0
 15 14  2  0  0  0  0
 16 15  1  0  0  0  0
 23 16  2  0  0  0  0
 23 17  1  0  0  0  0
 24 23  1  0  0  0  0
  1 18  1  1  0  0  0
 18 19  1  0  0  0  0
  3 20  1  1  0  0  0
  2 21  1  6  0  0  0
  4 22  1  6  0  0  0
M  END
>  <cdx:fragmentId>
5

$$$$
