50503.cdx
  Mrv1902 05222410222D          

  9 10  0  0  0  0            999 V2000
    6.1325   -8.1950    0.0000 C   0  0  0  0  0  0  0  0  0  0  0  0
    5.8850   -8.8550    0.0000 C   0  0  0  0  0  0  0  0  0  0  0  0
    6.5210   -9.3560    0.0000 C   0  0  0  0  0  0  0  0  0  0  0  0
    7.4250   -8.8275    0.0000 C   0  0  0  0  0  0  0  0  0  0  0  0
    8.4975   -8.5525    0.0000 C   0  0  0  0  0  0  0  0  0  0  0  0
    7.6175   -8.0025    0.0000 C   0  0  0  0  0  0  0  0  0  0  0  0
    5.7200   -7.4805    0.0000 C   0  0  0  0  0  0  0  0  0  0  0  0
    7.1225   -7.2600    0.0000 C   0  0  0  0  0  0  0  0  0  0  0  0
    6.5210  -10.1810    0.0000 O   0  0  0  0  0  0  0  0  0  0  0  0
  1  2  2  0  0  0  0
  2  3  1  0  0  0  0
  3  4  1  0  0  0  0
  4  5  1  0  0  0  0
  5  6  1  0  0  0  0
  6  1  1  0  0  0  0
  1  7  1  0  0  0  0
  6  8  1  0  0  0  0
  8  4  1  0  0  0  0
  3  9  1  0  0  0  0
M  END
>  <cdx:fragmentId>
5

$$$$
