50515.cdx
  Mrv1902 05222410202D          

 14 13  0  0  0  0            999 V2000
   11.3487   -6.8051    0.0000 C   0  0  0  0  0  0  0  0  0  0  0  0
   10.6342   -7.2176    0.0000 C   0  0  0  0  0  0  0  0  0  0  0  0
    9.9197   -6.8051    0.0000 C   0  0  0  0  0  0  0  0  0  0  0  0
    9.2053   -7.2176    0.0000 C   0  0  0  0  0  0  0  0  0  0  0  0
    8.4908   -6.8051    0.0000 C   0  0  0  0  0  0  0  0  0  0  0  0
    7.7763   -7.2176    0.0000 C   0  0  0  0  0  0  0  0  0  0  0  0
    7.0619   -6.8051    0.0000 C   0  0  0  0  0  0  0  0  0  0  0  0
    6.3474   -7.2176    0.0000 C   0  0  0  0  0  0  0  0  0  0  0  0
    5.6329   -6.8051    0.0000 C   0  0  0  0  0  0  0  0  0  0  0  0
    4.9184   -7.2176    0.0000 C   0  0  0  0  0  0  0  0  0  0  0  0
    4.2040   -6.8051    0.0000 C   0  0  0  0  0  0  0  0  0  0  0  0
    3.4895   -7.2176    0.0000 C   0  0  0  0  0  0  0  0  0  0  0  0
    2.7750   -6.8051    0.0000 C   0  0  0  0  0  0  0  0  0  0  0  0
    4.9184   -8.0426    0.0000 C   0  0  0  0  0  0  0  0  0  0  0  0
  2  1  1  0  0  0  0
  3  2  1  0  0  0  0
  4  3  1  0  0  0  0
  5  4  1  0  0  0  0
  6  5  1  0  0  0  0
  7  6  1  0  0  0  0
  8  7  1  0  0  0  0
  9  8  1  0  0  0  0
 10  9  1  0  0  0  0
 11 10  1  0  0  0  0
 12 11  1  0  0  0  0
 13 12  1  0  0  0  0
 10 14  1  0  0  0  0
M  END
>  <cdx:fragmentId>
3

$$$$
