50513.cdx
  Mrv1902 05222410222D          

 17 16  0  0  0  0            999 V2000
    6.0200   -7.2726    0.0000 C   0  0  0  0  0  0  0  0  0  0  0  0
    6.7345   -6.8601    0.0000 C   0  0  0  0  0  0  0  0  0  0  0  0
    7.4490   -7.2726    0.0000 C   0  0  0  0  0  0  0  0  0  0  0  0
    8.1634   -6.8601    0.0000 C   0  0  0  0  0  0  0  0  0  0  0  0
    8.8779   -7.2726    0.0000 O   0  0  0  0  0  0  0  0  0  0  0  0
    9.5924   -6.8601    0.0000 C   0  0  0  0  0  0  0  0  0  0  0  0
   10.3069   -7.2726    0.0000 C   0  0  0  0  0  0  0  0  0  0  0  0
   11.0213   -6.8601    0.0000 C   0  0  0  0  0  0  0  0  0  0  0  0
   11.7358   -7.2726    0.0000 C   0  0  0  0  0  0  0  0  0  0  0  0
   12.4503   -6.8601    0.0000 C   0  0  0  0  0  0  0  0  0  0  0  0
    8.1634   -6.0351    0.0000 O   0  0  0  0  0  0  0  0  0  0  0  0
   11.7358   -8.0976    0.0000 C   0  0  0  0  0  0  0  0  0  0  0  0
    5.3056   -6.8601    0.0000 C   0  0  0  0  0  0  0  0  0  0  0  0
    4.5911   -7.2726    0.0000 C   0  0  0  0  0  0  0  0  0  0  0  0
    3.8766   -6.8601    0.0000 C   0  0  0  0  0  0  0  0  0  0  0  0
    3.1621   -7.2726    0.0000 C   0  0  0  0  0  0  0  0  0  0  0  0
    3.8766   -6.0351    0.0000 C   0  0  0  0  0  0  0  0  0  0  0  0
  1  2  1  0  0  0  0
  2  3  1  0  0  0  0
  3  4  1  0  0  0  0
  4  5  1  0  0  0  0
  5  6  1  0  0  0  0
  6  7  1  0  0  0  0
  7  8  1  0  0  0  0
  8  9  1  0  0  0  0
  9 10  1  0  0  0  0
  4 11  2  0  0  0  0
  9 12  1  0  0  0  0
  1 13  1  0  0  0  0
 13 14  1  0  0  0  0
 14 15  1  0  0  0  0
 15 16  1  0  0  0  0
 15 17  1  0  0  0  0
M  END
>  <cdx:fragmentId>
3

$$$$
