50518.cdx
  Mrv1902 05222410262D          

 25 27  0  0  0  0            999 V2000
    5.1818   -7.0389    0.0000 C   0  0  0  0  0  0  0  0  0  0  0  0
    5.1818   -6.2139    0.0000 C   0  0  0  0  0  0  0  0  0  0  0  0
    5.8963   -5.8014    0.0000 C   0  0  0  0  0  0  0  0  0  0  0  0
    6.6107   -6.2139    0.0000 C   0  0  0  0  0  0  0  0  0  0  0  0
    6.6107   -7.0389    0.0000 C   0  0  0  0  0  0  0  0  0  0  0  0
    5.8963   -7.4514    0.0000 C   0  0  0  0  0  0  0  0  0  0  0  0
    7.3252   -5.8014    0.0000 O   0  0  0  0  0  0  0  0  0  0  0  0
    8.0397   -6.2139    0.0000 C   0  0  0  0  0  0  0  0  0  0  0  0
    8.0397   -7.0389    0.0000 C   0  0  0  0  0  0  0  0  0  0  0  0
    7.3252   -7.4514    0.0000 C   0  0  0  0  0  0  0  0  0  0  0  0
    8.7542   -5.8014    0.0000 C   0  0  0  0  0  0  0  0  0  0  0  0
    9.4686   -6.2139    0.0000 C   0  0  0  0  0  0  0  0  0  0  0  0
    8.7542   -4.9764    0.0000 C   0  0  0  0  0  0  0  0  0  0  0  0
    9.4686   -4.5639    0.0000 C   0  0  0  0  0  0  0  0  0  0  0  0
   10.1831   -4.9764    0.0000 C   0  0  0  0  0  0  0  0  0  0  0  0
   10.1831   -5.8014    0.0000 C   0  0  0  0  0  0  0  0  0  0  0  0
    4.4673   -5.8014    0.0000 O   0  0  0  0  0  0  0  0  0  0  0  0
    3.7529   -6.2139    0.0000 C   0  0  0  0  0  0  0  0  0  0  0  0
    5.8963   -4.9764    0.0000 O   0  0  0  0  0  0  0  0  0  0  0  0
    5.1818   -4.5639    0.0000 C   0  0  0  0  0  0  0  0  0  0  0  0
    5.8963   -8.2764    0.0000 O   0  0  0  0  0  0  0  0  0  0  0  0
    7.3252   -8.2764    0.0000 O   0  0  0  0  0  0  0  0  0  0  0  0
    9.4686   -7.0389    0.0000 O   0  0  0  0  0  0  0  0  0  0  0  0
   10.1831   -7.4514    0.0000 C   0  0  0  0  0  0  0  0  0  0  0  0
    8.0397   -4.5639    0.0000 O   0  0  0  0  0  0  0  0  0  0  0  0
  1  2  1  0  0  0  0
  2  3  2  0  0  0  0
  3  4  1  0  0  0  0
  4  5  2  0  0  0  0
  5  6  1  0  0  0  0
  6  1  2  0  0  0  0
  4  7  1  0  0  0  0
  7  8  1  0  0  0  0
  8  9  1  0  0  0  0
  9 10  1  0  0  0  0
 10  5  1  0  0  0  0
  8 11  1  0  0  0  0
 11 12  2  0  0  0  0
 11 13  1  0  0  0  0
 13 14  2  0  0  0  0
 14 15  1  0  0  0  0
 15 16  2  0  0  0  0
 16 12  1  0  0  0  0
  2 17  1  0  0  0  0
 17 18  1  0  0  0  0
  3 19  1  0  0  0  0
 19 20  1  0  0  0  0
  6 21  1  0  0  0  0
 10 22  2  0  0  0  0
 12 23  1  0  0  0  0
 23 24  1  0  0  0  0
 13 25  1  0  0  0  0
M  END
>  <cdx:fragmentId>
5

$$$$
