50517.cdx
  Mrv1902 05222410212D          

 20 22  0  0  0  0            999 V2000
    3.6968   -5.9664    0.0000 C   0  0  0  0  0  0  0  0  0  0  0  0
    3.6968   -6.7914    0.0000 C   0  0  0  0  0  0  0  0  0  0  0  0
    4.4113   -7.2039    0.0000 C   0  0  0  0  0  0  0  0  0  0  0  0
    5.1257   -6.7914    0.0000 C   0  0  0  0  0  0  0  0  0  0  0  0
    5.1257   -5.9664    0.0000 C   0  0  0  0  0  0  0  0  0  0  0  0
    4.4113   -5.5539    0.0000 C   0  0  0  0  0  0  0  0  0  0  0  0
    5.8402   -7.2039    0.0000 C   0  0  0  0  0  0  0  0  0  0  0  0
    6.5547   -6.7914    0.0000 C   0  0  0  0  0  0  0  0  0  0  0  0
    6.5547   -5.9664    0.0000 C   0  0  0  0  0  0  0  0  0  0  0  0
    5.8402   -5.5539    0.0000 O   0  0  0  0  0  0  0  0  0  0  0  0
    7.2692   -7.2039    0.0000 C   0  0  0  0  0  0  0  0  0  0  0  0
    7.9836   -6.7914    0.0000 C   0  0  0  0  0  0  0  0  0  0  0  0
    7.2692   -8.0289    0.0000 C   0  0  0  0  0  0  0  0  0  0  0  0
    7.9836   -8.4414    0.0000 C   0  0  0  0  0  0  0  0  0  0  0  0
    8.6981   -8.0289    0.0000 C   0  0  0  0  0  0  0  0  0  0  0  0
    8.6981   -7.2039    0.0000 C   0  0  0  0  0  0  0  0  0  0  0  0
    5.8402   -8.0289    0.0000 O   0  0  0  0  0  0  0  0  0  0  0  0
    7.9836   -5.9664    0.0000 O   0  0  0  0  0  0  0  0  0  0  0  0
    4.4113   -8.0289    0.0000 O   0  0  0  0  0  0  0  0  0  0  0  0
    2.9823   -5.5539    0.0000 O   0  0  0  0  0  0  0  0  0  0  0  0
  1  2  1  0  0  0  0
  2  3  2  0  0  0  0
  3  4  1  0  0  0  0
  4  5  2  0  0  0  0
  5  6  1  0  0  0  0
  6  1  2  0  0  0  0
  4  7  1  0  0  0  0
  7  8  1  0  0  0  0
  8  9  2  0  0  0  0
  9 10  1  0  0  0  0
 10  5  1  0  0  0  0
  8 11  1  0  0  0  0
 11 12  2  0  0  0  0
 11 13  1  0  0  0  0
 13 14  2  0  0  0  0
 14 15  1  0  0  0  0
 15 16  2  0  0  0  0
 16 12  1  0  0  0  0
  7 17  2  0  0  0  0
 12 18  1  0  0  0  0
  3 19  1  0  0  0  0
  1 20  1  0  0  0  0
M  END
>  <cdx:fragmentId>
5

$$$$
