50516.cdx
  Mrv1902 05222410212D          

 14 14  0  0  0  0            999 V2000
    6.8043   -8.0976    0.0000 C   0  0  0  0  0  0  0  0  0  0  0  0
    6.8043   -8.9226    0.0000 C   0  0  0  0  0  0  0  0  0  0  0  0
    7.5188   -9.3351    0.0000 C   0  0  0  0  0  0  0  0  0  0  0  0
    8.2332   -8.9226    0.0000 C   0  0  0  0  0  0  0  0  0  0  0  0
    8.2332   -8.0976    0.0000 C   0  0  0  0  0  0  0  0  0  0  0  0
    7.5188   -7.6851    0.0000 C   0  0  0  0  0  0  0  0  0  0  0  0
    7.5188  -10.1601    0.0000 C   0  0  0  0  0  0  0  0  0  0  0  0
    8.2332  -10.5726    0.0000 O   0  0  0  0  0  0  0  0  0  0  0  0
    6.8043  -10.5726    0.0000 O   0  0  0  0  0  0  0  0  0  0  0  0
    6.0898   -7.6851    0.0000 O   0  0  0  0  0  0  0  0  0  0  0  0
    7.5188   -6.8601    0.0000 O   0  0  0  0  0  0  0  0  0  0  0  0
    8.9477   -7.6851    0.0000 O   0  0  0  0  0  0  0  0  0  0  0  0
    6.8043   -6.4476    0.0000 C   0  0  0  0  0  0  0  0  0  0  0  0
    6.8043   -5.6226    0.0000 C   0  0  0  0  0  0  0  0  0  0  0  0
  1  2  2  0  0  0  0
  2  3  1  0  0  0  0
  3  4  2  0  0  0  0
  4  5  1  0  0  0  0
  5  6  2  0  0  0  0
  6  1  1  0  0  0  0
  3  7  1  0  0  0  0
  7  8  2  0  0  0  0
  7  9  1  0  0  0  0
  1 10  1  0  0  0  0
  6 11  1  0  0  0  0
  5 12  1  0  0  0  0
 11 13  1  0  0  0  0
 13 14  1  0  0  0  0
M  END
>  <cdx:fragmentId>
5

$$$$
