50529.cdx
  Mrv1902 05222410202D          

 34 37  0  0  0  0            999 V2000
    5.9931   -8.5101    0.0000 C   0  0  0  0  0  0  0  0  0  0  0  0
    5.9931   -9.3351    0.0000 C   0  0  0  0  0  0  0  0  0  0  0  0
    6.7075   -9.7476    0.0000 C   0  0  0  0  0  0  0  0  0  0  0  0
    7.4220   -9.3351    0.0000 C   0  0  0  0  0  0  0  0  0  0  0  0
    7.4220   -8.5101    0.0000 C   0  0  0  0  0  0  0  0  0  0  0  0
    6.7075   -8.0976    0.0000 C   0  0  0  0  0  0  0  0  0  0  0  0
    8.1365   -9.7476    0.0000 C   0  0  0  0  0  0  0  0  0  0  0  0
    8.8509   -9.3351    0.0000 C   0  0  0  0  0  0  0  0  0  0  0  0
    8.8509   -8.5101    0.0000 C   0  0  0  0  0  0  0  0  0  0  0  0
    8.1365   -8.0976    0.0000 O   0  0  0  0  0  0  0  0  0  0  0  0
    9.5654   -8.0976    0.0000 C   0  0  0  0  0  0  0  0  0  0  0  0
    9.5654   -7.2726    0.0000 C   0  0  0  0  0  0  0  0  0  0  0  0
   10.2799   -8.5101    0.0000 C   0  0  0  0  0  0  0  0  0  0  0  0
   10.9944   -8.0976    0.0000 C   0  0  0  0  0  0  0  0  0  0  0  0
   10.9944   -7.2726    0.0000 C   0  0  0  0  0  0  0  0  0  0  0  0
   10.2799   -6.8601    0.0000 C   0  0  0  0  0  0  0  0  0  0  0  0
    8.1365  -10.5726    0.0000 O   0  0  0  0  0  0  0  0  0  0  0  0
    6.7075  -10.5726    0.0000 O   0  0  0  0  0  0  0  0  0  0  0  0
    5.2786   -9.7476    0.0000 O   0  0  0  0  0  0  0  0  0  0  0  0
    5.2786   -8.0976    0.0000 O   0  0  0  0  0  0  0  0  0  0  0  0
    6.7075   -7.2726    0.0000 O   0  0  0  0  0  0  0  0  0  0  0  0
    5.9931   -6.8601    0.0000 C   0  0  0  0  0  0  0  0  0  0  0  0
    4.4538   -8.1179    0.0000 C   0  0  2  0  0  0  0  0  0  0  0  0
    4.0239   -7.4138    0.0000 O   0  0  0  0  0  0  0  0  0  0  0  0
    3.1992   -7.4341    0.0000 C   0  0  1  0  0  0  0  0  0  0  0  0
    2.8043   -8.1584    0.0000 C   0  0  2  0  0  0  0  0  0  0  0  0
    3.2343   -8.8626    0.0000 C   0  0  1  0  0  0  0  0  0  0  0  0
    4.0590   -8.8423    0.0000 C   0  0  1  0  0  0  0  0  0  0  0  0
    2.7692   -6.7299    0.0000 C   0  0  0  0  0  0  0  0  0  0  0  0
    2.8394   -9.5870    0.0000 O   0  0  0  0  0  0  0  0  0  0  0  0
    1.9796   -8.1787    0.0000 O   0  0  0  0  0  0  0  0  0  0  0  0
    1.9445   -6.7502    0.0000 O   0  0  0  0  0  0  0  0  0  0  0  0
    3.1641   -6.0055    0.0000 O   0  0  0  0  0  0  0  0  0  0  0  0
    4.4889   -9.5464    0.0000 O   0  0  0  0  0  0  0  0  0  0  0  0
  1  2  2  0  0  0  0
  2  3  1  0  0  0  0
  3  4  2  0  0  0  0
  4  5  1  0  0  0  0
  5  6  2  0  0  0  0
  6  1  1  0  0  0  0
  4  7  1  0  0  0  0
  7  8  1  0  0  0  0
  8  9  2  0  0  0  0
  9 10  1  0  0  0  0
 10  5  1  0  0  0  0
  9 11  1  0  0  0  0
 11 12  1  0  0  0  0
 11 13  2  0  0  0  0
 13 14  1  0  0  0  0
 14 15  2  0  0  0  0
 15 16  1  0  0  0  0
 16 12  2  0  0  0  0
  7 17  2  0  0  0  0
  3 18  1  0  0  0  0
  2 19  1  0  0  0  0
  1 20  1  0  0  0  0
  6 21  1  0  0  0  0
 21 22  1  0  0  0  0
 23 20  1  1  0  0  0
 23 24  1  0  0  0  0
 24 25  1  0  0  0  0
 25 26  1  0  0  0  0
 26 27  1  0  0  0  0
 27 28  1  0  0  0  0
 28 23  1  0  0  0  0
 25 29  1  1  0  0  0
 27 30  1  1  0  0  0
 26 31  1  6  0  0  0
 29 32  1  0  0  0  0
 29 33  2  0  0  0  0
 28 34  1  6  0  0  0
M  END
>  <cdx:fragmentId>
5

$$$$
