50527.cdx
  Mrv1902 05222410252D          

 10  9  0  0  0  0            999 V2000
    3.9850   -7.5751    0.0000 C   0  0  0  0  0  0  0  0  0  0  0  0
    4.6995   -7.1626    0.0000 C   0  0  0  0  0  0  0  0  0  0  0  0
    5.4140   -7.5751    0.0000 C   0  0  0  0  0  0  0  0  0  0  0  0
    6.1284   -7.1626    0.0000 C   0  0  0  0  0  0  0  0  0  0  0  0
    6.8429   -7.5751    0.0000 C   0  0  0  0  0  0  0  0  0  0  0  0
    7.5574   -7.1626    0.0000 C   0  0  0  0  0  0  0  0  0  0  0  0
    8.2719   -7.5751    0.0000 C   0  0  0  0  0  0  0  0  0  0  0  0
    6.4304   -8.2896    0.0000 C   0  0  0  0  0  0  0  0  0  0  0  0
    7.2554   -8.2896    0.0000 C   0  0  0  0  0  0  0  0  0  0  0  0
    6.1284   -6.3376    0.0000 O   0  0  0  0  0  0  0  0  0  0  0  0
  1  2  1  0  0  0  0
  2  3  2  0  0  0  0
  3  4  1  0  0  0  0
  4  5  1  0  0  0  0
  5  6  1  0  0  0  0
  6  7  2  0  0  0  0
  5  8  1  0  0  0  0
  5  9  1  0  0  0  0
  4 10  2  0  0  0  0
M  END
>  <cdx:fragmentId>
3

$$$$
