50521.cdx
  Mrv1902 05222410242D          

 23 25  0  0  0  0            999 V2000
    7.3835   -4.9390    0.0000 C   0  0  0  0  0  0  0  0  0  0  0  0
    7.3835   -5.7640    0.0000 C   0  0  0  0  0  0  0  0  0  0  0  0
    6.6690   -6.1765    0.0000 C   0  0  0  0  0  0  0  0  0  0  0  0
    6.6690   -7.0015    0.0000 O   0  0  0  0  0  0  0  0  0  0  0  0
    5.9546   -5.7640    0.0000 C   0  0  0  0  0  0  0  0  0  0  0  0
    5.2401   -6.1765    0.0000 C   0  0  0  0  0  0  0  0  0  0  0  0
    4.5256   -5.7640    0.0000 C   0  0  0  0  0  0  0  0  0  0  0  0
    4.5256   -4.9390    0.0000 C   0  0  0  0  0  0  0  0  0  0  0  0
    5.2401   -4.5265    0.0000 C   0  0  0  0  0  0  0  0  0  0  0  0
    5.9546   -4.9390    0.0000 C   0  0  0  0  0  0  0  0  0  0  0  0
    6.6690   -4.5265    0.0000 O   0  0  0  0  0  0  0  0  0  0  0  0
    8.0980   -4.5265    0.0000 C   0  0  0  0  0  0  0  0  0  0  0  0
    8.8124   -4.9390    0.0000 C   0  0  0  0  0  0  0  0  0  0  0  0
    9.5269   -4.5265    0.0000 C   0  0  0  0  0  0  0  0  0  0  0  0
    9.5269   -3.7015    0.0000 C   0  0  0  0  0  0  0  0  0  0  0  0
    8.8124   -3.2890    0.0000 C   0  0  0  0  0  0  0  0  0  0  0  0
    8.0980   -3.7015    0.0000 C   0  0  0  0  0  0  0  0  0  0  0  0
    3.8111   -4.5265    0.0000 O   0  0  0  0  0  0  0  0  0  0  0  0
    3.0967   -4.9390    0.0000 C   0  0  0  0  0  0  0  0  0  0  0  0
   10.2414   -3.2890    0.0000 O   0  0  0  0  0  0  0  0  0  0  0  0
   10.9558   -3.7015    0.0000 C   0  0  0  0  0  0  0  0  0  0  0  0
    5.2401   -7.0015    0.0000 O   0  0  0  0  0  0  0  0  0  0  0  0
   10.2414   -4.9390    0.0000 O   0  0  0  0  0  0  0  0  0  0  0  0
  1  2  2  0  0  0  0
  2  3  1  0  0  0  0
  3  4  2  0  0  0  0
  3  5  1  0  0  0  0
  5  6  1  0  0  0  0
  6  7  2  0  0  0  0
  7  8  1  0  0  0  0
  8  9  2  0  0  0  0
  9 10  1  0  0  0  0
  5 10  2  0  0  0  0
 10 11  1  0  0  0  0
  1 11  1  0  0  0  0
  1 12  1  0  0  0  0
 12 13  1  0  0  0  0
 13 14  2  0  0  0  0
 14 15  1  0  0  0  0
 15 16  2  0  0  0  0
 16 17  1  0  0  0  0
 12 17  2  0  0  0  0
 18 19  1  0  0  0  0
  8 18  1  0  0  0  0
 20 21  1  0  0  0  0
 15 20  1  0  0  0  0
  6 22  1  0  0  0  0
 14 23  1  0  0  0  0
M  END
>  <cdx:fragmentId>
17663

$$$$
