50526.cdx
  Mrv1902 05222410242D          

 10 10  0  0  0  0            999 V2000
    5.4264  -10.0073    0.0000 C   0  0  0  0  0  0  0  0  0  0  0  0
    5.8389  -10.7218    0.0000 C   0  0  0  0  0  0  0  0  0  0  0  0
    6.9658   -7.9448    0.0000 O   0  0  0  0  0  0  0  0  0  0  0  0
    6.9658  -11.2448    0.0000 O   0  0  0  0  0  0  0  0  0  0  0  0
    6.9658  -10.4198    0.0000 C   0  0  0  0  0  0  0  0  0  0  0  0
    7.6803  -10.0073    0.0000 C   0  0  0  0  0  0  0  0  0  0  0  0
    7.6803   -9.1823    0.0000 C   0  0  0  0  0  0  0  0  0  0  0  0
    6.9658   -8.7698    0.0000 C   0  0  0  0  0  0  0  0  0  0  0  0
    6.2514   -9.1823    0.0000 C   0  0  0  0  0  0  0  0  0  0  0  0
    6.2514  -10.0073    0.0000 C   0  0  0  0  0  0  0  0  0  0  0  0
 10  1  1  0  0  0  0
 10  2  1  0  0  0  0
  8  3  2  0  0  0  0
  5  4  2  0  0  0  0
  5 10  1  0  0  0  0
  6  5  1  0  0  0  0
  7  6  2  0  0  0  0
  8  7  1  0  0  0  0
  9  8  1  0  0  0  0
 10  9  1  0  0  0  0
M  END
>  <cdx:fragmentId>
5

$$$$
