50525.cdx
  Mrv1902 05222410252D          

 26 29  0  0  0  0            999 V2000
    4.3981   -6.0214    0.0000 C   0  0  0  0  0  0  0  0  0  0  0  0
    4.3981   -6.8464    0.0000 C   0  0  0  0  0  0  0  0  0  0  0  0
    5.1125   -7.2589    0.0000 C   0  0  0  0  0  0  0  0  0  0  0  0
    5.8270   -6.8464    0.0000 C   0  0  0  0  0  0  0  0  0  0  0  0
    5.8270   -6.0214    0.0000 C   0  0  0  0  0  0  0  0  0  0  0  0
    5.1125   -5.6089    0.0000 O   0  0  0  0  0  0  0  0  0  0  0  0
    6.5415   -7.2589    0.0000 C   0  0  0  0  0  0  0  0  0  0  0  0
    7.2559   -6.8464    0.0000 C   0  0  0  0  0  0  0  0  0  0  0  0
    7.2559   -6.0214    0.0000 C   0  0  0  0  0  0  0  0  0  0  0  0
    6.5415   -5.6089    0.0000 C   0  0  0  0  0  0  0  0  0  0  0  0
    7.9704   -7.2589    0.0000 O   0  0  0  0  0  0  0  0  0  0  0  0
    7.9704   -5.6089    0.0000 O   0  0  0  0  0  0  0  0  0  0  0  0
    6.5415   -8.0839    0.0000 C   0  0  0  0  0  0  0  0  0  0  0  0
    7.2559   -8.4964    0.0000 C   0  0  0  0  0  0  0  0  0  0  0  0
    7.9704   -8.0839    0.0000 C   0  0  0  0  0  0  0  0  0  0  0  0
    5.8270   -8.4964    0.0000 C   0  0  0  0  0  0  0  0  0  0  0  0
    5.8270   -9.3214    0.0000 C   0  0  0  0  0  0  0  0  0  0  0  0
    6.5415   -9.7339    0.0000 C   0  0  0  0  0  0  0  0  0  0  0  0
    7.2559   -9.3214    0.0000 C   0  0  0  0  0  0  0  0  0  0  0  0
    7.9704   -9.7339    0.0000 O   0  0  0  0  0  0  0  0  0  0  0  0
    8.6849   -9.3214    0.0000 C   0  0  0  0  0  0  0  0  0  0  0  0
    8.6849   -8.4964    0.0000 C   0  0  0  0  0  0  0  0  0  0  0  0
    3.6836   -5.6089    0.0000 O   0  0  0  0  0  0  0  0  0  0  0  0
    5.1125   -8.0839    0.0000 O   0  0  0  0  0  0  0  0  0  0  0  0
    5.1125   -9.7339    0.0000 O   0  0  0  0  0  0  0  0  0  0  0  0
    9.3994   -9.7339    0.0000 O   0  0  0  0  0  0  0  0  0  0  0  0
  1  2  1  0  0  0  0
  2  3  2  0  0  0  0
  3  4  1  0  0  0  0
  4  5  1  0  0  0  0
  5  6  1  0  0  0  0
  6  1  1  0  0  0  0
  4  7  2  0  0  0  0
  7  8  1  0  0  0  0
  8  9  2  0  0  0  0
  9 10  1  0  0  0  0
 10  5  2  0  0  0  0
  8 11  1  0  0  0  0
 12  9  1  0  0  0  0
  7 13  1  0  0  0  0
 13 14  2  0  0  0  0
 14 15  1  0  0  0  0
 13 16  1  0  0  0  0
 16 17  2  0  0  0  0
 17 18  1  0  0  0  0
 18 19  2  0  0  0  0
 19 14  1  0  0  0  0
 19 20  1  0  0  0  0
 20 21  1  0  0  0  0
 21 22  1  0  0  0  0
 22 15  2  0  0  0  0
  1 23  2  0  0  0  0
 16 24  1  0  0  0  0
 17 25  1  0  0  0  0
 21 26  2  0  0  0  0
M  END
>  <cdx:fragmentId>
5

$$$$
