50520.cdx
  Mrv1902 05222410232D          

 24 26  0  0  0  0            999 V2000
    7.9101   -8.2029    0.0000 C   0  0  0  0  0  0  0  0  0  0  0  0
    7.9101   -9.0279    0.0000 C   0  0  0  0  0  0  0  0  0  0  0  0
    7.1956   -9.4404    0.0000 C   0  0  0  0  0  0  0  0  0  0  0  0
    7.1956  -10.2654    0.0000 O   0  0  0  0  0  0  0  0  0  0  0  0
    6.4812   -9.0279    0.0000 C   0  0  0  0  0  0  0  0  0  0  0  0
    5.7667   -9.4404    0.0000 C   0  0  0  0  0  0  0  0  0  0  0  0
    5.0522   -9.0279    0.0000 C   0  0  0  0  0  0  0  0  0  0  0  0
    5.0522   -8.2029    0.0000 C   0  0  0  0  0  0  0  0  0  0  0  0
    5.7667   -7.7904    0.0000 C   0  0  0  0  0  0  0  0  0  0  0  0
    6.4812   -8.2029    0.0000 C   0  0  0  0  0  0  0  0  0  0  0  0
    7.1956   -7.7904    0.0000 O   0  0  0  0  0  0  0  0  0  0  0  0
    8.6246   -7.7904    0.0000 C   0  0  0  0  0  0  0  0  0  0  0  0
    9.3391   -8.2029    0.0000 C   0  0  0  0  0  0  0  0  0  0  0  0
   10.0535   -7.7904    0.0000 C   0  0  0  0  0  0  0  0  0  0  0  0
   10.0535   -6.9654    0.0000 C   0  0  0  0  0  0  0  0  0  0  0  0
    9.3391   -6.5529    0.0000 C   0  0  0  0  0  0  0  0  0  0  0  0
    8.6246   -6.9654    0.0000 C   0  0  0  0  0  0  0  0  0  0  0  0
    4.3378   -7.7904    0.0000 O   0  0  0  0  0  0  0  0  0  0  0  0
    3.6233   -8.2029    0.0000 C   0  0  0  0  0  0  0  0  0  0  0  0
    4.3378   -9.4404    0.0000 O   0  0  0  0  0  0  0  0  0  0  0  0
   10.7680   -6.5529    0.0000 C   0  0  0  0  0  0  0  0  0  0  0  0
   10.7680   -8.2029    0.0000 C   0  0  0  0  0  0  0  0  0  0  0  0
    5.7667  -10.2654    0.0000 C   0  0  0  0  0  0  0  0  0  0  0  0
    4.3378  -10.2654    0.0000 C   0  0  0  0  0  0  0  0  0  0  0  0
  1  2  2  0  0  0  0
  2  3  1  0  0  0  0
  3  4  2  0  0  0  0
  3  5  1  0  0  0  0
  5  6  1  0  0  0  0
  6  7  2  0  0  0  0
  7  8  1  0  0  0  0
  8  9  2  0  0  0  0
  9 10  1  0  0  0  0
  5 10  2  0  0  0  0
 10 11  1  0  0  0  0
  1 11  1  0  0  0  0
  1 12  1  0  0  0  0
 12 13  1  0  0  0  0
 13 14  2  0  0  0  0
 14 15  1  0  0  0  0
 15 16  2  0  0  0  0
 16 17  1  0  0  0  0
 12 17  2  0  0  0  0
 18 19  1  0  0  0  0
  8 18  1  0  0  0  0
  7 20  1  0  0  0  0
 15 21  1  0  0  0  0
 14 22  1  0  0  0  0
  6 23  1  0  0  0  0
 20 24  1  0  0  0  0
M  END
>  <cdx:fragmentId>
5

$$$$
