50528.cdx
  Mrv1902 05222410212D          

 22 24  0  0  0  0            999 V2000
    3.3531   -5.7601    0.0000 C   0  0  0  0  0  0  0  0  0  0  0  0
    3.3531   -6.5851    0.0000 C   0  0  0  0  0  0  0  0  0  0  0  0
    4.0675   -6.9976    0.0000 C   0  0  0  0  0  0  0  0  0  0  0  0
    4.7820   -6.5851    0.0000 C   0  0  0  0  0  0  0  0  0  0  0  0
    4.7820   -5.7601    0.0000 C   0  0  0  0  0  0  0  0  0  0  0  0
    4.0675   -5.3476    0.0000 C   0  0  0  0  0  0  0  0  0  0  0  0
    5.4965   -6.9976    0.0000 C   0  0  0  0  0  0  0  0  0  0  0  0
    6.2109   -6.5851    0.0000 C   0  0  0  0  0  0  0  0  0  0  0  0
    6.2109   -5.7601    0.0000 C   0  0  0  0  0  0  0  0  0  0  0  0
    5.4965   -5.3476    0.0000 O   0  0  0  0  0  0  0  0  0  0  0  0
    6.9254   -5.3476    0.0000 C   0  0  0  0  0  0  0  0  0  0  0  0
    6.9254   -4.5226    0.0000 C   0  0  0  0  0  0  0  0  0  0  0  0
    7.6399   -5.7601    0.0000 C   0  0  0  0  0  0  0  0  0  0  0  0
    8.3544   -5.3476    0.0000 C   0  0  0  0  0  0  0  0  0  0  0  0
    8.3544   -4.5226    0.0000 C   0  0  0  0  0  0  0  0  0  0  0  0
    7.6399   -4.1101    0.0000 C   0  0  0  0  0  0  0  0  0  0  0  0
    5.4965   -7.8226    0.0000 O   0  0  0  0  0  0  0  0  0  0  0  0
    2.6386   -6.9976    0.0000 O   0  0  0  0  0  0  0  0  0  0  0  0
    4.0675   -7.8226    0.0000 O   0  0  0  0  0  0  0  0  0  0  0  0
    9.0688   -4.1101    0.0000 O   0  0  0  0  0  0  0  0  0  0  0  0
    2.6386   -5.3476    0.0000 O   0  0  0  0  0  0  0  0  0  0  0  0
    4.0675   -4.5226    0.0000 O   0  0  0  0  0  0  0  0  0  0  0  0
  1  2  2  0  0  0  0
  2  3  1  0  0  0  0
  3  4  2  0  0  0  0
  4  5  1  0  0  0  0
  5  6  2  0  0  0  0
  6  1  1  0  0  0  0
  4  7  1  0  0  0  0
  7  8  1  0  0  0  0
  8  9  2  0  0  0  0
  9 10  1  0  0  0  0
 10  5  1  0  0  0  0
  9 11  1  0  0  0  0
 11 12  1  0  0  0  0
 11 13  2  0  0  0  0
 13 14  1  0  0  0  0
 14 15  2  0  0  0  0
 15 16  1  0  0  0  0
 16 12  2  0  0  0  0
  7 17  2  0  0  0  0
  2 18  1  0  0  0  0
  3 19  1  0  0  0  0
 15 20  1  0  0  0  0
  1 21  1  0  0  0  0
  6 22  1  0  0  0  0
M  END
>  <cdx:fragmentId>
5

$$$$
