50524.cdx
  Mrv1902 05222410262D          

 13 14  0  0  0  0            999 V2000
    3.9718   -7.4101    0.0000 C   0  0  0  0  0  0  0  0  0  0  0  0
    3.9718   -8.2351    0.0000 C   0  0  0  0  0  0  0  0  0  0  0  0
    4.6863   -8.6476    0.0000 C   0  0  0  0  0  0  0  0  0  0  0  0
    5.4007   -8.2351    0.0000 C   0  0  0  0  0  0  0  0  0  0  0  0
    5.4007   -7.4101    0.0000 C   0  0  0  0  0  0  0  0  0  0  0  0
    4.6863   -6.9976    0.0000 C   0  0  0  0  0  0  0  0  0  0  0  0
    6.1152   -8.6476    0.0000 O   0  0  0  0  0  0  0  0  0  0  0  0
    6.8297   -8.2351    0.0000 C   0  0  0  0  0  0  0  0  0  0  0  0
    6.8297   -7.4101    0.0000 C   0  0  0  0  0  0  0  0  0  0  0  0
    6.1152   -6.9976    0.0000 C   0  0  0  0  0  0  0  0  0  0  0  0
    4.2738   -6.2832    0.0000 C   0  0  0  0  0  0  0  0  0  0  0  0
    5.0988   -6.2832    0.0000 C   0  0  0  0  0  0  0  0  0  0  0  0
    5.4007   -9.0601    0.0000 C   0  0  0  0  0  0  0  0  0  0  0  0
  1  2  1  0  0  0  0
  2  3  1  0  0  0  0
  3  4  1  0  0  0  0
  4  5  1  0  0  0  0
  5  6  1  0  0  0  0
  6  1  1  0  0  0  0
  4  7  1  0  0  0  0
  7  8  1  0  0  0  0
  8  9  1  0  0  0  0
  9 10  1  0  0  0  0
 10  5  2  0  0  0  0
  6 11  1  0  0  0  0
  6 12  1  0  0  0  0
  4 13  1  0  0  0  0
M  END
>  <cdx:fragmentId>
5

$$$$
