50523.cdx
  Mrv1902 05222410242D          

 40 45  0  0  0  0            999 V2000
    5.6488   -6.5026    0.0000 O   0  0  0  0  0  0  0  0  0  0  0  0
    6.3632   -6.0901    0.0000 C   0  0  0  0  0  0  0  0  0  0  0  0
    6.3632   -5.2651    0.0000 C   0  0  0  0  0  0  0  0  0  0  0  0
    5.6488   -4.8526    0.0000 O   0  0  0  0  0  0  0  0  0  0  0  0
    7.0777   -6.5026    0.0000 C   0  0  0  0  0  0  0  0  0  0  0  0
    7.7922   -6.0901    0.0000 C   0  0  0  0  0  0  0  0  0  0  0  0
    7.7922   -5.2651    0.0000 C   0  0  0  0  0  0  0  0  0  0  0  0
    7.0777   -4.8526    0.0000 C   0  0  0  0  0  0  0  0  0  0  0  0
    8.5067   -6.5026    0.0000 O   0  0  0  0  0  0  0  0  0  0  0  0
    9.2211   -6.0901    0.0000 C   0  0  0  0  0  0  0  0  0  0  0  0
    9.2211   -5.2651    0.0000 C   0  0  0  0  0  0  0  0  0  0  0  0
    8.5067   -4.8526    0.0000 C   0  0  0  0  0  0  0  0  0  0  0  0
    5.6488   -9.8026    0.0000 O   0  0  0  0  0  0  0  0  0  0  0  0
    7.0777   -9.8026    0.0000 O   0  0  0  0  0  0  0  0  0  0  0  0
    5.6488   -7.3276    0.0000 O   0  0  0  0  0  0  0  0  0  0  0  0
    4.9343   -7.7401    0.0000 C   0  0  0  0  0  0  0  0  0  0  0  0
    4.9343   -8.5651    0.0000 C   0  0  0  0  0  0  0  0  0  0  0  0
    7.0777   -4.0276    0.0000 O   0  0  0  0  0  0  0  0  0  0  0  0
    8.5067   -4.0276    0.0000 O   0  0  0  0  0  0  0  0  0  0  0  0
    5.6488   -8.9776    0.0000 C   0  0  0  0  0  0  0  0  0  0  0  0
    7.0777   -7.3276    0.0000 C   0  0  0  0  0  0  0  0  0  0  0  0
    6.3632   -7.7401    0.0000 C   0  0  0  0  0  0  0  0  0  0  0  0
    6.3632   -8.5651    0.0000 C   0  0  0  0  0  0  0  0  0  0  0  0
    7.0777   -8.9776    0.0000 C   0  0  0  0  0  0  0  0  0  0  0  0
    7.7922   -7.7401    0.0000 C   0  0  0  0  0  0  0  0  0  0  0  0
    7.7922   -8.5651    0.0000 C   0  0  0  0  0  0  0  0  0  0  0  0
    8.5067   -8.9776    0.0000 O   0  0  0  0  0  0  0  0  0  0  0  0
    8.5067   -7.3276    0.0000 O   0  0  0  0  0  0  0  0  0  0  0  0
    9.9356   -6.5026    0.0000 C   0  0  0  0  0  0  0  0  0  0  0  0
    4.2198   -7.3276    0.0000 C   0  0  0  0  0  0  0  0  0  0  0  0
    4.2198   -6.5026    0.0000 C   0  0  0  0  0  0  0  0  0  0  0  0
    3.5054   -6.0901    0.0000 C   0  0  0  0  0  0  0  0  0  0  0  0
    2.7909   -6.5026    0.0000 C   0  0  0  0  0  0  0  0  0  0  0  0
    2.7909   -7.3276    0.0000 C   0  0  0  0  0  0  0  0  0  0  0  0
    3.5054   -7.7401    0.0000 C   0  0  0  0  0  0  0  0  0  0  0  0
    9.9356   -7.3276    0.0000 C   0  0  0  0  0  0  0  0  0  0  0  0
   10.6501   -7.7401    0.0000 C   0  0  0  0  0  0  0  0  0  0  0  0
   11.3645   -7.3276    0.0000 C   0  0  0  0  0  0  0  0  0  0  0  0
   11.3645   -6.5026    0.0000 C   0  0  0  0  0  0  0  0  0  0  0  0
   10.6501   -6.0901    0.0000 C   0  0  0  0  0  0  0  0  0  0  0  0
  1  2  1  0  0  0  0
  2  3  2  0  0  0  0
  3  4  1  0  0  0  0
  2  5  1  0  0  0  0
  5  6  2  0  0  0  0
  6  7  1  0  0  0  0
  7  8  2  0  0  0  0
  8  3  1  0  0  0  0
  6  9  1  0  0  0  0
  9 10  1  0  0  0  0
 10 11  2  0  0  0  0
 11 12  1  0  0  0  0
 12  7  1  0  0  0  0
 20 13  2  0  0  0  0
 24 14  1  0  0  0  0
 15 22  1  0  0  0  0
 16 15  1  0  0  0  0
 17 16  2  0  0  0  0
 20 17  1  0  0  0  0
 23 20  1  0  0  0  0
  5 21  1  0  0  0  0
  8 18  1  0  0  0  0
 12 19  2  0  0  0  0
 21 25  1  0  0  0  0
 22 21  2  0  0  0  0
 23 22  1  0  0  0  0
 24 23  2  0  0  0  0
 26 24  1  0  0  0  0
 25 28  1  0  0  0  0
 26 25  2  0  0  0  0
 27 26  1  0  0  0  0
 10 29  1  0  0  0  0
 16 30  1  0  0  0  0
 30 31  2  0  0  0  0
 31 32  1  0  0  0  0
 32 33  2  0  0  0  0
 33 34  1  0  0  0  0
 34 35  2  0  0  0  0
 35 30  1  0  0  0  0
 29 36  2  0  0  0  0
 36 37  1  0  0  0  0
 37 38  2  0  0  0  0
 38 39  1  0  0  0  0
 39 40  2  0  0  0  0
 40 29  1  0  0  0  0
M  END
>  <cdx:fragmentId>
5

$$$$
