50533.cdx
  Mrv1902 05222410252D          

 31 34  0  0  0  0            999 V2000
    8.7107   -7.4880    0.0000 C   0  0  0  0  0  0  0  0  0  0  0  0
    8.7107   -8.3130    0.0000 C   0  0  0  0  0  0  0  0  0  0  0  0
    7.9963   -8.7255    0.0000 C   0  0  0  0  0  0  0  0  0  0  0  0
    7.9963   -9.5505    0.0000 O   0  0  0  0  0  0  0  0  0  0  0  0
    7.2818   -8.3130    0.0000 C   0  0  0  0  0  0  0  0  0  0  0  0
    6.5673   -8.7255    0.0000 C   0  0  0  0  0  0  0  0  0  0  0  0
    5.8528   -8.3130    0.0000 C   0  0  0  0  0  0  0  0  0  0  0  0
    5.8528   -7.4880    0.0000 C   0  0  0  0  0  0  0  0  0  0  0  0
    6.5673   -7.0755    0.0000 C   0  0  0  0  0  0  0  0  0  0  0  0
    7.2818   -7.4880    0.0000 C   0  0  0  0  0  0  0  0  0  0  0  0
    7.9963   -7.0755    0.0000 O   0  0  0  0  0  0  0  0  0  0  0  0
    9.4252   -7.0755    0.0000 C   0  0  0  0  0  0  0  0  0  0  0  0
    9.4252   -6.2505    0.0000 C   0  0  0  0  0  0  0  0  0  0  0  0
   10.1397   -5.8380    0.0000 C   0  0  0  0  0  0  0  0  0  0  0  0
   10.8541   -6.2505    0.0000 C   0  0  0  0  0  0  0  0  0  0  0  0
   10.8541   -7.0755    0.0000 C   0  0  0  0  0  0  0  0  0  0  0  0
   10.1397   -7.4880    0.0000 C   0  0  0  0  0  0  0  0  0  0  0  0
    5.1384   -7.0755    0.0000 O   0  0  0  0  0  0  0  0  0  0  0  0
    5.1384   -8.7255    0.0000 O   0  0  0  0  0  0  0  0  0  0  0  0
    6.5673   -9.5505    0.0000 O   0  0  0  0  0  0  0  0  0  0  0  0
    4.4239   -8.3130    0.0000 C   0  0  2  0  0  0  0  0  0  0  0  0
    4.4239   -7.4880    0.0000 O   0  0  0  0  0  0  0  0  0  0  0  0
    3.7094   -7.0755    0.0000 C   0  0  1  0  0  0  0  0  0  0  0  0
    2.9950   -7.4880    0.0000 C   0  0  2  0  0  0  0  0  0  0  0  0
    2.9950   -8.3130    0.0000 C   0  0  1  0  0  0  0  0  0  0  0  0
    3.7094   -8.7255    0.0000 C   0  0  1  0  0  0  0  0  0  0  0  0
    3.7094   -6.2505    0.0000 C   0  0  0  0  0  0  0  0  0  0  0  0
    2.2805   -8.7255    0.0000 O   0  0  0  0  0  0  0  0  0  0  0  0
    3.7094   -9.5505    0.0000 O   0  0  0  0  0  0  0  0  0  0  0  0
    2.2805   -7.0755    0.0000 O   0  0  0  0  0  0  0  0  0  0  0  0
    2.9950   -5.8380    0.0000 O   0  0  0  0  0  0  0  0  0  0  0  0
  1  2  2  0  0  0  0
  2  3  1  0  0  0  0
  3  4  2  0  0  0  0
  3  5  1  0  0  0  0
  5  6  1  0  0  0  0
  6  7  2  0  0  0  0
  7  8  1  0  0  0  0
  8  9  2  0  0  0  0
  9 10  1  0  0  0  0
  5 10  2  0  0  0  0
 10 11  1  0  0  0  0
  1 11  1  0  0  0  0
  1 12  1  0  0  0  0
 12 13  1  0  0  0  0
 13 14  2  0  0  0  0
 14 15  1  0  0  0  0
 15 16  2  0  0  0  0
 16 17  1  0  0  0  0
 12 17  2  0  0  0  0
  8 18  1  0  0  0  0
  7 19  1  0  0  0  0
  6 20  1  0  0  0  0
 21 19  1  1  0  0  0
 21 22  1  0  0  0  0
 22 23  1  0  0  0  0
 23 24  1  0  0  0  0
 24 25  1  0  0  0  0
 25 26  1  0  0  0  0
 26 21  1  0  0  0  0
 23 27  1  1  0  0  0
 25 28  1  1  0  0  0
 26 29  1  6  0  0  0
 24 30  1  6  0  0  0
 27 31  1  0  0  0  0
M  END
>  <cdx:fragmentId>
16100

$$$$
