50535.cdx
  Mrv1902 05222410242D          

 34 37  0  0  0  0            999 V2000
    7.2856   -8.5789    0.0000 C   0  0  0  0  0  0  0  0  0  0  0  0
    7.2856   -9.4039    0.0000 C   0  0  0  0  0  0  0  0  0  0  0  0
    8.0000   -9.8164    0.0000 C   0  0  0  0  0  0  0  0  0  0  0  0
    8.7145   -9.4039    0.0000 C   0  0  0  0  0  0  0  0  0  0  0  0
    8.7145   -8.5789    0.0000 C   0  0  0  0  0  0  0  0  0  0  0  0
    8.0000   -8.1664    0.0000 C   0  0  0  0  0  0  0  0  0  0  0  0
    9.4290   -9.8164    0.0000 C   0  0  0  0  0  0  0  0  0  0  0  0
   10.1434   -9.4039    0.0000 C   0  0  0  0  0  0  0  0  0  0  0  0
   10.1434   -8.5789    0.0000 C   0  0  0  0  0  0  0  0  0  0  0  0
    9.4290   -8.1664    0.0000 O   0  0  0  0  0  0  0  0  0  0  0  0
   11.5724   -8.5789    0.0000 C   0  0  0  0  0  0  0  0  0  0  0  0
   10.8579   -8.1664    0.0000 C   0  0  0  0  0  0  0  0  0  0  0  0
   12.2869   -8.1664    0.0000 C   0  0  0  0  0  0  0  0  0  0  0  0
   12.2869   -7.3414    0.0000 C   0  0  0  0  0  0  0  0  0  0  0  0
   11.5724   -6.9289    0.0000 C   0  0  0  0  0  0  0  0  0  0  0  0
   10.8579   -7.3414    0.0000 C   0  0  0  0  0  0  0  0  0  0  0  0
    9.4290  -10.6414    0.0000 O   0  0  0  0  0  0  0  0  0  0  0  0
    8.0000  -10.6414    0.0000 O   0  0  0  0  0  0  0  0  0  0  0  0
    6.5711   -8.1664    0.0000 O   0  0  0  0  0  0  0  0  0  0  0  0
    6.5711   -9.8164    0.0000 O   0  0  0  0  0  0  0  0  0  0  0  0
    6.5711  -10.6414    0.0000 C   0  0  0  0  0  0  0  0  0  0  0  0
    5.7461   -8.1643    0.0000 C   0  0  2  0  0  0  0  0  0  0  0  0
    5.3354   -7.4488    0.0000 O   0  0  0  0  0  0  0  0  0  0  0  0
    4.5104   -7.4468    0.0000 C   0  0  1  0  0  0  0  0  0  0  0  0
    4.0961   -8.1602    0.0000 C   0  0  2  0  0  0  0  0  0  0  0  0
    4.5068   -8.8757    0.0000 C   0  0  1  0  0  0  0  0  0  0  0  0
    5.3318   -8.8778    0.0000 C   0  0  1  0  0  0  0  0  0  0  0  0
    4.0925   -9.5891    0.0000 O   0  0  0  0  0  0  0  0  0  0  0  0
    4.0997   -6.7313    0.0000 C   0  0  0  0  0  0  0  0  0  0  0  0
    5.7425   -9.5933    0.0000 O   0  0  0  0  0  0  0  0  0  0  0  0
    3.2711   -8.1581    0.0000 O   0  0  0  0  0  0  0  0  0  0  0  0
    4.5140   -6.0178    0.0000 O   0  0  0  0  0  0  0  0  0  0  0  0
    3.2747   -6.7292    0.0000 O   0  0  0  0  0  0  0  0  0  0  0  0
   11.5724   -9.4039    0.0000 O   0  0  0  0  0  0  0  0  0  0  0  0
  1  2  2  0  0  0  0
  2  3  1  0  0  0  0
  3  4  2  0  0  0  0
  4  5  1  0  0  0  0
  5  6  2  0  0  0  0
  6  1  1  0  0  0  0
  4  7  1  0  0  0  0
  7  8  1  0  0  0  0
  8  9  1  0  0  0  0
  9 10  1  0  0  0  0
 10  5  1  0  0  0  0
 11 12  2  0  0  0  0
 12  9  1  0  0  0  0
 11 13  1  0  0  0  0
 13 14  2  0  0  0  0
 14 15  1  0  0  0  0
 15 16  2  0  0  0  0
 16 12  1  0  0  0  0
  7 17  2  0  0  0  0
  3 18  1  0  0  0  0
  1 19  1  0  0  0  0
  2 20  1  0  0  0  0
 20 21  1  0  0  0  0
 22 19  1  1  0  0  0
 22 23  1  0  0  0  0
 23 24  1  0  0  0  0
 24 25  1  0  0  0  0
 25 26  1  0  0  0  0
 26 27  1  0  0  0  0
 27 22  1  0  0  0  0
 26 28  1  1  0  0  0
 24 29  1  1  0  0  0
 27 30  1  6  0  0  0
 25 31  1  6  0  0  0
 29 32  1  0  0  0  0
 29 33  2  0  0  0  0
 11 34  1  0  0  0  0
M  END
>  <cdx:fragmentId>
5

$$$$
