50539.cdx
  Mrv1902 05222410232D          

 25 27  0  0  0  0            999 V2000
    3.7106   -8.0976    0.0000 C   0  0  0  0  0  0  0  0  0  0  0  0
    3.7106   -8.9226    0.0000 C   0  0  0  0  0  0  0  0  0  0  0  0
    4.4250   -9.3351    0.0000 C   0  0  0  0  0  0  0  0  0  0  0  0
    5.1395   -8.9226    0.0000 C   0  0  0  0  0  0  0  0  0  0  0  0
    5.1395   -8.0976    0.0000 C   0  0  0  0  0  0  0  0  0  0  0  0
    4.4250   -7.6851    0.0000 C   0  0  0  0  0  0  0  0  0  0  0  0
    5.8540   -9.3351    0.0000 C   0  0  0  0  0  0  0  0  0  0  0  0
    6.5684   -8.9226    0.0000 C   0  0  0  0  0  0  0  0  0  0  0  0
    6.5684   -8.0976    0.0000 C   0  0  0  0  0  0  0  0  0  0  0  0
    5.8540   -7.6851    0.0000 O   0  0  0  0  0  0  0  0  0  0  0  0
    7.2829   -7.6851    0.0000 C   0  0  0  0  0  0  0  0  0  0  0  0
    7.2829   -6.8601    0.0000 C   0  0  0  0  0  0  0  0  0  0  0  0
    7.9974   -8.0976    0.0000 C   0  0  0  0  0  0  0  0  0  0  0  0
    8.7119   -7.6851    0.0000 C   0  0  0  0  0  0  0  0  0  0  0  0
    8.7119   -6.8601    0.0000 C   0  0  0  0  0  0  0  0  0  0  0  0
    7.9974   -6.4476    0.0000 C   0  0  0  0  0  0  0  0  0  0  0  0
    5.8540  -10.1601    0.0000 O   0  0  0  0  0  0  0  0  0  0  0  0
    4.4250  -10.1601    0.0000 O   0  0  0  0  0  0  0  0  0  0  0  0
    2.9961   -7.6851    0.0000 O   0  0  0  0  0  0  0  0  0  0  0  0
    7.9974   -5.6226    0.0000 O   0  0  0  0  0  0  0  0  0  0  0  0
    9.4263   -6.4476    0.0000 O   0  0  0  0  0  0  0  0  0  0  0  0
    2.9961   -9.3351    0.0000 O   0  0  0  0  0  0  0  0  0  0  0  0
    2.9961  -10.1601    0.0000 C   0  0  0  0  0  0  0  0  0  0  0  0
    4.4250   -6.8601    0.0000 O   0  0  0  0  0  0  0  0  0  0  0  0
    3.7106   -6.4476    0.0000 C   0  0  0  0  0  0  0  0  0  0  0  0
  1  2  2  0  0  0  0
  2  3  1  0  0  0  0
  3  4  2  0  0  0  0
  4  5  1  0  0  0  0
  5  6  2  0  0  0  0
  6  1  1  0  0  0  0
  4  7  1  0  0  0  0
  7  8  1  0  0  0  0
  8  9  2  0  0  0  0
  9 10  1  0  0  0  0
 10  5  1  0  0  0  0
  9 11  1  0  0  0  0
 11 12  2  0  0  0  0
 11 13  1  0  0  0  0
 13 14  2  0  0  0  0
 14 15  1  0  0  0  0
 15 16  2  0  0  0  0
 16 12  1  0  0  0  0
  7 17  2  0  0  0  0
  3 18  1  0  0  0  0
  1 19  1  0  0  0  0
 16 20  1  0  0  0  0
 15 21  1  0  0  0  0
  2 22  1  0  0  0  0
 22 23  1  0  0  0  0
  6 24  1  0  0  0  0
 24 25  1  0  0  0  0
M  END
>  <cdx:fragmentId>
5

$$$$
