505389.cdx
  Mrv1902 05222410252D          

 39 42  0  0  0  0            999 V2000
    5.2019   -7.7326    0.0000 O   0  0  0  0  0  0  0  0  0  0  0  0
    4.4861   -8.1429    0.0000 C   0  0  1  0  0  0  0  0  0  0  0  0
    4.4836   -8.9679    0.0000 C   0  0  1  0  0  0  0  0  0  0  0  0
    5.1968   -9.3826    0.0000 O   0  0  0  0  0  0  0  0  0  0  0  0
    5.9125   -8.9723    0.0000 C   0  0  0  0  0  0  0  0  0  0  0  0
    5.9151   -8.1473    0.0000 C   0  0  0  0  0  0  0  0  0  0  0  0
    6.6257   -9.3870    0.0000 C   0  0  0  0  0  0  0  0  0  0  0  0
    7.3414   -8.9768    0.0000 C   0  0  0  0  0  0  0  0  0  0  0  0
    7.3440   -8.1518    0.0000 C   0  0  0  0  0  0  0  0  0  0  0  0
    6.6308   -7.7371    0.0000 C   0  0  0  0  0  0  0  0  0  0  0  0
    3.0546   -8.9635    0.0000 O   0  0  0  0  0  0  0  0  0  0  0  0
    3.7729   -7.7282    0.0000 C   0  0  0  0  0  0  0  0  0  0  0  0
    3.0572   -8.1385    0.0000 C   0  0  0  0  0  0  0  0  0  0  0  0
    2.3440   -7.7238    0.0000 C   0  0  0  0  0  0  0  0  0  0  0  0
    2.3466   -6.8988    0.0000 C   0  0  0  0  0  0  0  0  0  0  0  0
    3.0623   -6.4885    0.0000 C   0  0  0  0  0  0  0  0  0  0  0  0
    3.7755   -6.9032    0.0000 C   0  0  0  0  0  0  0  0  0  0  0  0
    1.6334   -6.4841    0.0000 O   0  0  0  0  0  0  0  0  0  0  0  0
    1.6283   -8.1341    0.0000 O   0  0  0  0  0  0  0  0  0  0  0  0
    8.0546   -9.3915    0.0000 C   0  0  0  0  0  0  0  0  0  0  0  0
    8.7704   -8.9812    0.0000 C   0  0  0  0  0  0  0  0  0  0  0  0
    8.7729   -8.1562    0.0000 C   0  0  0  0  0  0  0  0  0  0  0  0
    8.0597   -7.7415    0.0000 O   0  0  0  0  0  0  0  0  0  0  0  0
   10.2019   -8.1606    0.0000 C   0  0  2  0  0  0  0  0  0  0  0  0
   10.9202   -6.9253    0.0000 C   0  0  0  0  0  0  0  0  0  0  0  0
   11.6359   -6.5150    0.0000 C   0  0  0  0  0  0  0  0  0  0  0  0
   11.6385   -5.6900    0.0000 C   0  0  0  0  0  0  0  0  0  0  0  0
   10.9253   -5.2753    0.0000 C   0  0  0  0  0  0  0  0  0  0  0  0
   10.2095   -5.6856    0.0000 C   0  0  0  0  0  0  0  0  0  0  0  0
   10.2070   -6.5106    0.0000 C   0  0  0  0  0  0  0  0  0  0  0  0
   10.9278   -4.4503    0.0000 O   0  0  0  0  0  0  0  0  0  0  0  0
   12.3542   -5.2798    0.0000 O   0  0  0  0  0  0  0  0  0  0  0  0
   10.1993   -8.9856    0.0000 C   0  0  0  0  0  0  0  0  0  0  0  0
    9.4836   -9.3959    0.0000 O   0  0  0  0  0  0  0  0  0  0  0  0
   10.9125   -9.4003    0.0000 O   0  0  0  0  0  0  0  0  0  0  0  0
    3.7653  -10.2032    0.0000 O   0  0  0  0  0  0  0  0  0  0  0  0
    3.7678   -9.3782    0.0000 C   0  0  0  0  0  0  0  0  0  0  0  0
   10.9176   -7.7503    0.0000 C   0  0  0  0  0  0  0  0  0  0  0  0
    9.4887   -7.7459    0.0000 O   0  0  0  0  0  0  0  0  0  0  0  0
 37 11  1  0  0  0  0
 37 36  2  0  0  0  0
 38 25  1  0  0  0  0
 39 24  1  0  0  0  0
  1  2  1  0  0  0  0
  2  3  1  0  0  0  0
  3  4  1  0  0  0  0
  4  5  1  0  0  0  0
  5  6  1  0  0  0  0
  1  6  1  0  0  0  0
  7  8  1  0  0  0  0
  8  9  2  0  0  0  0
  9 10  1  0  0  0  0
 10  6  2  0  0  0  0
  7  5  2  0  0  0  0
  3 37  1  1  0  0  0
 12 13  1  0  0  0  0
 13 14  2  0  0  0  0
 14 15  1  0  0  0  0
 15 16  2  0  0  0  0
 16 17  1  0  0  0  0
 12 17  2  0  0  0  0
 15 18  1  0  0  0  0
 14 19  1  0  0  0  0
  2 12  1  1  0  0  0
 20 21  2  0  0  0  0
 21 22  1  0  0  0  0
 22 23  2  0  0  0  0
 24 38  1  0  0  0  0
 25 26  1  0  0  0  0
 26 27  2  0  0  0  0
 27 28  1  0  0  0  0
 28 29  2  0  0  0  0
 29 30  1  0  0  0  0
 25 30  2  0  0  0  0
 28 31  1  0  0  0  0
 27 32  1  0  0  0  0
 33 34  2  0  0  0  0
 33 35  1  0  0  0  0
 24 33  1  1  0  0  0
 22 39  1  0  0  0  0
  8 20  1  0  0  0  0
M  END
>  <cdx:fragmentId>
247395

$$$$
