50532.cdx
  Mrv1902 05222410242D          

 33 36  0  0  0  0            999 V2000
    6.1718   -8.4964    0.0000 C   0  0  0  0  0  0  0  0  0  0  0  0
    6.1718   -9.3214    0.0000 C   0  0  0  0  0  0  0  0  0  0  0  0
    6.8863   -9.7339    0.0000 C   0  0  0  0  0  0  0  0  0  0  0  0
    7.6007   -9.3214    0.0000 C   0  0  0  0  0  0  0  0  0  0  0  0
    7.6007   -8.4964    0.0000 C   0  0  0  0  0  0  0  0  0  0  0  0
    6.8863   -8.0839    0.0000 C   0  0  0  0  0  0  0  0  0  0  0  0
    8.3152   -9.7339    0.0000 C   0  0  0  0  0  0  0  0  0  0  0  0
    9.0297   -9.3214    0.0000 C   0  0  0  0  0  0  0  0  0  0  0  0
    9.0297   -8.4964    0.0000 C   0  0  0  0  0  0  0  0  0  0  0  0
    8.3152   -8.0839    0.0000 O   0  0  0  0  0  0  0  0  0  0  0  0
   10.4586   -8.4964    0.0000 C   0  0  0  0  0  0  0  0  0  0  0  0
    9.7442   -8.0839    0.0000 C   0  0  0  0  0  0  0  0  0  0  0  0
   11.1731   -8.0839    0.0000 C   0  0  0  0  0  0  0  0  0  0  0  0
   11.1731   -7.2589    0.0000 C   0  0  0  0  0  0  0  0  0  0  0  0
   10.4586   -6.8464    0.0000 C   0  0  0  0  0  0  0  0  0  0  0  0
    9.7442   -7.2589    0.0000 C   0  0  0  0  0  0  0  0  0  0  0  0
    8.3152  -10.5589    0.0000 O   0  0  0  0  0  0  0  0  0  0  0  0
    6.8863  -10.5589    0.0000 O   0  0  0  0  0  0  0  0  0  0  0  0
    5.4573   -8.0839    0.0000 O   0  0  0  0  0  0  0  0  0  0  0  0
    9.0297   -6.8464    0.0000 O   0  0  0  0  0  0  0  0  0  0  0  0
   10.4586   -6.0214    0.0000 O   0  0  0  0  0  0  0  0  0  0  0  0
    4.7429   -8.4964    0.0000 C   0  0  2  0  0  0  0  0  0  0  0  0
    4.0284   -8.0839    0.0000 O   0  0  0  0  0  0  0  0  0  0  0  0
    3.3139   -8.4964    0.0000 C   0  0  1  0  0  0  0  0  0  0  0  0
    3.3139   -9.3214    0.0000 C   0  0  2  0  0  0  0  0  0  0  0  0
    4.0284   -9.7339    0.0000 C   0  0  1  0  0  0  0  0  0  0  0  0
    4.7429   -9.3214    0.0000 C   0  0  1  0  0  0  0  0  0  0  0  0
    2.5994   -8.0839    0.0000 C   0  0  0  0  0  0  0  0  0  0  0  0
    4.0284  -10.5589    0.0000 O   0  0  0  0  0  0  0  0  0  0  0  0
    5.4573   -9.7339    0.0000 O   0  0  0  0  0  0  0  0  0  0  0  0
    2.5994   -9.7339    0.0000 O   0  0  0  0  0  0  0  0  0  0  0  0
    1.8850   -8.4964    0.0000 O   0  0  0  0  0  0  0  0  0  0  0  0
    2.5994   -7.2589    0.0000 O   0  0  0  0  0  0  0  0  0  0  0  0
  1  2  2  0  0  0  0
  2  3  1  0  0  0  0
  3  4  2  0  0  0  0
  4  5  1  0  0  0  0
  5  6  2  0  0  0  0
  6  1  1  0  0  0  0
  4  7  1  0  0  0  0
  7  8  1  0  0  0  0
  8  9  2  0  0  0  0
  9 10  1  0  0  0  0
 10  5  1  0  0  0  0
 11 12  2  0  0  0  0
 12  9  1  0  0  0  0
 11 13  1  0  0  0  0
 13 14  2  0  0  0  0
 14 15  1  0  0  0  0
 15 16  2  0  0  0  0
 16 12  1  0  0  0  0
  7 17  2  0  0  0  0
  3 18  1  0  0  0  0
  1 19  1  0  0  0  0
 16 20  1  0  0  0  0
 15 21  1  0  0  0  0
 22 19  1  1  0  0  0
 22 23  1  0  0  0  0
 23 24  1  0  0  0  0
 24 25  1  0  0  0  0
 25 26  1  0  0  0  0
 26 27  1  0  0  0  0
 27 22  1  0  0  0  0
 24 28  1  1  0  0  0
 26 29  1  1  0  0  0
 27 30  1  6  0  0  0
 25 31  1  6  0  0  0
 28 32  2  0  0  0  0
 28 33  1  0  0  0  0
M  END
>  <cdx:fragmentId>
5

$$$$
