50537.cdx
  Mrv1902 05222410242D          

 22 24  0  0  0  0            999 V2000
    5.3606   -6.5851    0.0000 C   0  0  0  0  0  0  0  0  0  0  0  0
    5.3606   -7.4101    0.0000 C   0  0  0  0  0  0  0  0  0  0  0  0
    6.0750   -7.8226    0.0000 C   0  0  0  0  0  0  0  0  0  0  0  0
    6.7895   -7.4101    0.0000 C   0  0  0  0  0  0  0  0  0  0  0  0
    6.7895   -6.5851    0.0000 C   0  0  0  0  0  0  0  0  0  0  0  0
    6.0750   -6.1726    0.0000 C   0  0  0  0  0  0  0  0  0  0  0  0
    7.5040   -7.8226    0.0000 C   0  0  0  0  0  0  0  0  0  0  0  0
    8.2184   -7.4101    0.0000 C   0  0  0  0  0  0  0  0  0  0  0  0
    8.2184   -6.5851    0.0000 C   0  0  0  0  0  0  0  0  0  0  0  0
    7.5040   -6.1726    0.0000 O   0  0  0  0  0  0  0  0  0  0  0  0
    8.9329   -6.1726    0.0000 C   0  0  0  0  0  0  0  0  0  0  0  0
    8.9329   -5.3476    0.0000 C   0  0  0  0  0  0  0  0  0  0  0  0
    9.6474   -6.5851    0.0000 C   0  0  0  0  0  0  0  0  0  0  0  0
   10.3619   -6.1726    0.0000 C   0  0  0  0  0  0  0  0  0  0  0  0
   10.3619   -5.3476    0.0000 C   0  0  0  0  0  0  0  0  0  0  0  0
    9.6474   -4.9351    0.0000 C   0  0  0  0  0  0  0  0  0  0  0  0
    7.5040   -8.6476    0.0000 O   0  0  0  0  0  0  0  0  0  0  0  0
    6.0750   -8.6476    0.0000 O   0  0  0  0  0  0  0  0  0  0  0  0
    4.6461   -6.1726    0.0000 O   0  0  0  0  0  0  0  0  0  0  0  0
    8.9329   -7.8226    0.0000 O   0  0  0  0  0  0  0  0  0  0  0  0
    8.2184   -4.9351    0.0000 O   0  0  0  0  0  0  0  0  0  0  0  0
    9.6474   -7.4101    0.0000 O   0  0  0  0  0  0  0  0  0  0  0  0
  1  2  2  0  0  0  0
  2  3  1  0  0  0  0
  3  4  2  0  0  0  0
  4  5  1  0  0  0  0
  5  6  2  0  0  0  0
  6  1  1  0  0  0  0
  4  7  1  0  0  0  0
  7  8  1  0  0  0  0
  8  9  2  0  0  0  0
  9 10  1  0  0  0  0
 10  5  1  0  0  0  0
  9 11  1  0  0  0  0
 11 12  2  0  0  0  0
 11 13  1  0  0  0  0
 13 14  2  0  0  0  0
 14 15  1  0  0  0  0
 15 16  2  0  0  0  0
 16 12  1  0  0  0  0
  7 17  2  0  0  0  0
  3 18  1  0  0  0  0
  1 19  1  0  0  0  0
  8 20  1  0  0  0  0
 12 21  1  0  0  0  0
 13 22  1  0  0  0  0
M  END
>  <cdx:fragmentId>
5

$$$$
