102505323.cdx
  Mrv1902 05222410202D          

 18 19  0  0  0  0            999 V2000
    9.1607  -12.6643    0.0000 O   0  0  0  0  0  0  0  0  0  0  0  0
    8.6087  -12.0512    0.0000 C   0  0  2  0  0  0  0  0  0  0  0  0
    9.0212  -11.3368    0.0000 C   0  0  0  0  0  0  0  0  0  0  0  0
    9.8282  -11.5083    0.0000 C   0  0  0  0  0  0  0  0  0  0  0  0
    9.9144  -12.3288    0.0000 C   0  0  2  0  0  0  0  0  0  0  0  0
    8.6857  -10.5831    0.0000 O   0  0  0  0  0  0  0  0  0  0  0  0
   10.6289  -13.5663    0.0000 C   0  0  0  0  0  0  0  0  0  0  0  0
   10.6289  -12.7413    0.0000 C   0  0  0  0  0  0  0  0  0  0  0  0
   11.3434  -12.3288    0.0000 C   0  0  0  0  0  0  0  0  0  0  0  0
    7.9413  -12.5362    0.0000 C   0  0  0  0  0  0  0  0  0  0  0  0
    7.1406  -12.1282    0.0000 O   0  0  0  0  0  0  0  0  0  0  0  0
    7.8550  -11.7157    0.0000 C   0  0  1  0  0  0  0  0  0  0  0  0
    7.6835  -10.9087    0.0000 C   0  0  0  0  0  0  0  0  0  0  0  0
    6.8630  -10.8225    0.0000 C   0  0  0  0  0  0  0  0  0  0  0  0
    6.5275  -11.5761    0.0000 C   0  0  2  0  0  0  0  0  0  0  0  0
    5.9144  -12.1282    0.0000 C   0  0  0  0  0  0  0  0  0  0  0  0
    5.7428  -11.3212    0.0000 C   0  0  0  0  0  0  0  0  0  0  0  0
    5.1595  -11.9046    0.0000 C   0  0  0  0  0  0  0  0  0  0  0  0
  1  2  1  0  0  0  0
  2  3  1  0  0  0  0
  3  4  1  0  0  0  0
  4  5  1  0  0  0  0
  1  5  1  0  0  0  0
  3  6  2  0  0  0  0
  7  8  2  0  0  0  0
  8  9  1  0  0  0  0
  5  8  1  6  0  0  0
  2 10  1  1  0  0  0
 12 11  1  1  0  0  0
 12 13  1  0  0  0  0
 13 14  1  0  0  0  0
 14 15  1  0  0  0  0
 11 15  1  0  0  0  0
 15 16  1  1  0  0  0
 17 18  2  0  0  0  0
 15 17  1  6  0  0  0
  2 12  1  0  0  0  0
M  END
>  <cdx:groupId>
1136

>  <cdx:fragmentId>
1084

$$$$
