50531.cdx
  Mrv1902 05222410252D          

 19 21  0  0  0  0            999 V2000
    4.5356   -6.1039    0.0000 C   0  0  0  0  0  0  0  0  0  0  0  0
    4.5356   -6.9289    0.0000 C   0  0  0  0  0  0  0  0  0  0  0  0
    5.2500   -7.3414    0.0000 C   0  0  0  0  0  0  0  0  0  0  0  0
    5.9645   -6.9289    0.0000 C   0  0  0  0  0  0  0  0  0  0  0  0
    5.9645   -6.1039    0.0000 C   0  0  0  0  0  0  0  0  0  0  0  0
    5.2500   -5.6914    0.0000 C   0  0  0  0  0  0  0  0  0  0  0  0
    6.7491   -7.1838    0.0000 C   0  0  0  0  0  0  0  0  0  0  0  0
    7.2340   -6.5164    0.0000 C   0  0  0  0  0  0  0  0  0  0  0  0
    6.7491   -5.8490    0.0000 C   0  0  0  0  0  0  0  0  0  0  0  0
    5.4796   -7.5963    0.0000 C   0  0  0  0  0  0  0  0  0  0  0  0
    5.9645   -8.2638    0.0000 C   0  0  0  0  0  0  0  0  0  0  0  0
    6.7491   -8.0088    0.0000 C   0  0  0  0  0  0  0  0  0  0  0  0
    5.7930   -9.0707    0.0000 C   0  0  0  0  0  0  0  0  0  0  0  0
    6.4061   -9.6228    0.0000 N   0  0  0  0  0  0  0  0  0  0  0  0
    7.1907   -9.3678    0.0000 C   0  0  0  0  0  0  0  0  0  0  0  0
    7.3622   -8.5609    0.0000 C   0  0  0  0  0  0  0  0  0  0  0  0
    3.8211   -5.6914    0.0000 C   0  0  0  0  0  0  0  0  0  0  0  0
    5.2500   -8.1664    0.0000 O   0  0  0  0  0  0  0  0  0  0  0  0
    6.2345  -10.4298    0.0000 C   0  0  0  0  0  0  0  0  0  0  0  0
  1  2  2  0  0  0  0
  2  3  1  0  0  0  0
  3  4  1  0  0  0  0
  4  5  1  0  0  0  0
  5  6  1  0  0  0  0
  6  1  1  0  0  0  0
  4  7  1  0  0  0  0
  7  8  1  0  0  0  0
  8  9  2  0  0  0  0
  9  5  1  0  0  0  0
  4 10  1  0  0  0  0
 10 11  1  0  0  0  0
 12  7  1  0  0  0  0
 11 13  1  0  0  0  0
 13 14  1  0  0  0  0
 14 15  1  0  0  0  0
 15 16  1  0  0  0  0
 16 12  2  0  0  0  0
  1 17  1  0  0  0  0
  3 18  2  0  0  0  0
 14 19  1  0  0  0  0
M  END
>  <cdx:fragmentId>
5

$$$$
