50546.cdx
  Mrv1902 05222410282D          

 34 37  0  0  0  0            999 V2000
    6.2818   -9.2664    0.0000 C   0  0  0  0  0  0  0  0  0  0  0  0
    6.2818  -10.0914    0.0000 C   0  0  0  0  0  0  0  0  0  0  0  0
    6.9963  -10.5039    0.0000 C   0  0  0  0  0  0  0  0  0  0  0  0
    7.7107  -10.0914    0.0000 C   0  0  0  0  0  0  0  0  0  0  0  0
    7.7107   -9.2664    0.0000 C   0  0  0  0  0  0  0  0  0  0  0  0
    6.9963   -8.8539    0.0000 C   0  0  0  0  0  0  0  0  0  0  0  0
    8.4252  -10.5039    0.0000 C   0  0  0  0  0  0  0  0  0  0  0  0
    9.1397  -10.0914    0.0000 C   0  0  0  0  0  0  0  0  0  0  0  0
    9.1397   -9.2664    0.0000 C   0  0  0  0  0  0  0  0  0  0  0  0
    8.4252   -8.8539    0.0000 O   0  0  0  0  0  0  0  0  0  0  0  0
   10.5686   -9.2664    0.0000 C   0  0  0  0  0  0  0  0  0  0  0  0
    9.8542   -8.8539    0.0000 C   0  0  0  0  0  0  0  0  0  0  0  0
   11.2831   -8.8539    0.0000 C   0  0  0  0  0  0  0  0  0  0  0  0
   11.2831   -8.0289    0.0000 C   0  0  0  0  0  0  0  0  0  0  0  0
   10.5686   -7.6164    0.0000 C   0  0  0  0  0  0  0  0  0  0  0  0
    9.8542   -8.0289    0.0000 C   0  0  0  0  0  0  0  0  0  0  0  0
    8.4252  -11.3289    0.0000 O   0  0  0  0  0  0  0  0  0  0  0  0
    6.9963  -11.3289    0.0000 O   0  0  0  0  0  0  0  0  0  0  0  0
    5.5673   -8.8539    0.0000 O   0  0  0  0  0  0  0  0  0  0  0  0
   11.9976   -7.6164    0.0000 O   0  0  0  0  0  0  0  0  0  0  0  0
    6.9963   -8.0289    0.0000 O   0  0  0  0  0  0  0  0  0  0  0  0
    6.2818   -7.6164    0.0000 C   0  0  0  0  0  0  0  0  0  0  0  0
    3.4356   -9.2801    0.0000 C   0  0  2  0  0  0  0  0  0  0  0  0
    3.4356  -10.1051    0.0000 C   0  0  2  0  0  0  0  0  0  0  0  0
    4.1500  -10.5176    0.0000 C   0  0  1  0  0  0  0  0  0  0  0  0
    4.8645  -10.1051    0.0000 C   0  0  2  0  0  0  0  0  0  0  0  0
    4.8645   -9.2801    0.0000 C   0  0  1  0  0  0  0  0  0  0  0  0
    4.1500   -8.8676    0.0000 O   0  0  0  0  0  0  0  0  0  0  0  0
    2.7211   -8.8676    0.0000 C   0  0  0  0  0  0  0  0  0  0  0  0
    4.1500  -11.3426    0.0000 O   0  0  0  0  0  0  0  0  0  0  0  0
    5.5790  -10.5176    0.0000 O   0  0  0  0  0  0  0  0  0  0  0  0
    2.7211  -10.5176    0.0000 O   0  0  0  0  0  0  0  0  0  0  0  0
    2.7211   -8.0426    0.0000 O   0  0  0  0  0  0  0  0  0  0  0  0
    2.0066   -9.2801    0.0000 O   0  0  0  0  0  0  0  0  0  0  0  0
  1  2  2  0  0  0  0
  2  3  1  0  0  0  0
  3  4  2  0  0  0  0
  4  5  1  0  0  0  0
  5  6  2  0  0  0  0
  6  1  1  0  0  0  0
  4  7  1  0  0  0  0
  7  8  1  0  0  0  0
  8  9  1  0  0  0  0
  9 10  1  0  0  0  0
 10  5  1  0  0  0  0
 11 12  2  0  0  0  0
 12  9  1  0  0  0  0
 11 13  1  0  0  0  0
 13 14  2  0  0  0  0
 14 15  1  0  0  0  0
 15 16  2  0  0  0  0
 16 12  1  0  0  0  0
  7 17  2  0  0  0  0
  3 18  1  0  0  0  0
  1 19  1  0  0  0  0
 14 20  1  0  0  0  0
  6 21  1  0  0  0  0
 21 22  1  0  0  0  0
 23 24  1  0  0  0  0
 24 25  1  0  0  0  0
 25 26  1  0  0  0  0
 26 27  1  0  0  0  0
 27 28  1  0  0  0  0
 28 23  1  0  0  0  0
 23 29  1  1  0  0  0
 25 30  1  1  0  0  0
 26 31  1  6  0  0  0
 24 32  1  6  0  0  0
 29 33  1  0  0  0  0
 29 34  2  0  0  0  0
 27 19  1  1  0  0  0
M  END
>  <cdx:fragmentId>
5

$$$$
