50548.cdx
  Mrv1902 05222410192D          

 32 35  0  0  0  0            999 V2000
    6.7631   -7.7951    0.0000 C   0  0  0  0  0  0  0  0  0  0  0  0
    6.7631   -8.6201    0.0000 C   0  0  0  0  0  0  0  0  0  0  0  0
    7.4775   -9.0326    0.0000 C   0  0  0  0  0  0  0  0  0  0  0  0
    8.1920   -8.6201    0.0000 C   0  0  0  0  0  0  0  0  0  0  0  0
    8.1920   -7.7951    0.0000 C   0  0  0  0  0  0  0  0  0  0  0  0
    7.4775   -7.3826    0.0000 C   0  0  0  0  0  0  0  0  0  0  0  0
    8.9065   -9.0326    0.0000 C   0  0  0  0  0  0  0  0  0  0  0  0
    9.6209   -8.6201    0.0000 C   0  0  0  0  0  0  0  0  0  0  0  0
    9.6209   -7.7951    0.0000 C   0  0  0  0  0  0  0  0  0  0  0  0
    8.9065   -7.3826    0.0000 O   0  0  0  0  0  0  0  0  0  0  0  0
   10.3354   -7.3826    0.0000 C   0  0  0  0  0  0  0  0  0  0  0  0
   10.3354   -6.5576    0.0000 C   0  0  0  0  0  0  0  0  0  0  0  0
   11.0499   -7.7951    0.0000 C   0  0  0  0  0  0  0  0  0  0  0  0
   11.7644   -7.3826    0.0000 C   0  0  0  0  0  0  0  0  0  0  0  0
   11.7644   -6.5576    0.0000 C   0  0  0  0  0  0  0  0  0  0  0  0
   11.0499   -6.1451    0.0000 C   0  0  0  0  0  0  0  0  0  0  0  0
    8.9065   -9.8576    0.0000 O   0  0  0  0  0  0  0  0  0  0  0  0
    7.4775   -9.8576    0.0000 O   0  0  0  0  0  0  0  0  0  0  0  0
    6.0486   -7.3826    0.0000 O   0  0  0  0  0  0  0  0  0  0  0  0
    7.4775   -6.5576    0.0000 O   0  0  0  0  0  0  0  0  0  0  0  0
    9.6209   -6.1451    0.0000 O   0  0  0  0  0  0  0  0  0  0  0  0
    3.9031   -7.7951    0.0000 C   0  0  2  0  0  0  0  0  0  0  0  0
    3.9031   -8.6201    0.0000 C   0  0  2  0  0  0  0  0  0  0  0  0
    4.6175   -9.0326    0.0000 C   0  0  1  0  0  0  0  0  0  0  0  0
    5.3320   -8.6201    0.0000 C   0  0  2  0  0  0  0  0  0  0  0  0
    5.3320   -7.7951    0.0000 C   0  0  1  0  0  0  0  0  0  0  0  0
    4.6175   -7.3826    0.0000 O   0  0  0  0  0  0  0  0  0  0  0  0
    3.1886   -7.3826    0.0000 C   0  0  0  0  0  0  0  0  0  0  0  0
    4.6175   -9.8576    0.0000 O   0  0  0  0  0  0  0  0  0  0  0  0
    6.0465   -9.0326    0.0000 O   0  0  0  0  0  0  0  0  0  0  0  0
    3.1886   -9.0326    0.0000 O   0  0  0  0  0  0  0  0  0  0  0  0
    2.4741   -7.7951    0.0000 O   0  0  0  0  0  0  0  0  0  0  0  0
  1  2  2  0  0  0  0
  2  3  1  0  0  0  0
  3  4  2  0  0  0  0
  4  5  1  0  0  0  0
  5  6  2  0  0  0  0
  6  1  1  0  0  0  0
  4  7  1  0  0  0  0
  7  8  1  0  0  0  0
  8  9  2  0  0  0  0
  9 10  1  0  0  0  0
 10  5  1  0  0  0  0
  9 11  1  0  0  0  0
 11 12  1  0  0  0  0
 11 13  2  0  0  0  0
 13 14  1  0  0  0  0
 14 15  2  0  0  0  0
 15 16  1  0  0  0  0
 16 12  2  0  0  0  0
  7 17  2  0  0  0  0
  3 18  1  0  0  0  0
  1 19  1  0  0  0  0
  6 20  1  0  0  0  0
 12 21  1  0  0  0  0
 22 23  1  0  0  0  0
 23 24  1  0  0  0  0
 24 25  1  0  0  0  0
 25 26  1  0  0  0  0
 26 27  1  0  0  0  0
 27 22  1  0  0  0  0
 22 28  1  1  0  0  0
 24 29  1  1  0  0  0
 25 30  1  6  0  0  0
 23 31  1  6  0  0  0
 28 32  1  0  0  0  0
 26 19  1  1  0  0  0
M  END
>  <cdx:fragmentId>
5

$$$$
