50542.cdx
  Mrv1902 05222410262D          

 33 36  0  0  0  0            999 V2000
    6.7631   -7.8089    0.0000 C   0  0  0  0  0  0  0  0  0  0  0  0
    6.7631   -8.6339    0.0000 C   0  0  0  0  0  0  0  0  0  0  0  0
    7.4775   -9.0464    0.0000 C   0  0  0  0  0  0  0  0  0  0  0  0
    8.1920   -8.6339    0.0000 C   0  0  0  0  0  0  0  0  0  0  0  0
    8.1920   -7.8089    0.0000 C   0  0  0  0  0  0  0  0  0  0  0  0
    7.4775   -7.3964    0.0000 C   0  0  0  0  0  0  0  0  0  0  0  0
    8.9065   -9.0464    0.0000 C   0  0  0  0  0  0  0  0  0  0  0  0
    9.6209   -8.6339    0.0000 C   0  0  0  0  0  0  0  0  0  0  0  0
    9.6209   -7.8089    0.0000 C   0  0  0  0  0  0  0  0  0  0  0  0
    8.9065   -7.3964    0.0000 O   0  0  0  0  0  0  0  0  0  0  0  0
   11.0499   -7.8089    0.0000 C   0  0  0  0  0  0  0  0  0  0  0  0
   10.3354   -7.3964    0.0000 C   0  0  0  0  0  0  0  0  0  0  0  0
   11.7644   -7.3964    0.0000 C   0  0  0  0  0  0  0  0  0  0  0  0
   11.7644   -6.5714    0.0000 C   0  0  0  0  0  0  0  0  0  0  0  0
   11.0499   -6.1589    0.0000 C   0  0  0  0  0  0  0  0  0  0  0  0
   10.3354   -6.5714    0.0000 C   0  0  0  0  0  0  0  0  0  0  0  0
    8.9065   -9.8714    0.0000 O   0  0  0  0  0  0  0  0  0  0  0  0
    7.4775   -9.8714    0.0000 O   0  0  0  0  0  0  0  0  0  0  0  0
    6.0486   -7.3964    0.0000 O   0  0  0  0  0  0  0  0  0  0  0  0
   12.4788   -6.1589    0.0000 O   0  0  0  0  0  0  0  0  0  0  0  0
   12.4788   -5.3339    0.0000 C   0  0  0  0  0  0  0  0  0  0  0  0
   11.0499   -5.3339    0.0000 O   0  0  0  0  0  0  0  0  0  0  0  0
    5.3341   -7.8089    0.0000 C   0  0  2  0  0  0  0  0  0  0  0  0
    4.6196   -7.3964    0.0000 O   0  0  0  0  0  0  0  0  0  0  0  0
    3.9052   -7.8089    0.0000 C   0  0  1  0  0  0  0  0  0  0  0  0
    3.9052   -8.6339    0.0000 C   0  0  2  0  0  0  0  0  0  0  0  0
    4.6196   -9.0464    0.0000 C   0  0  1  0  0  0  0  0  0  0  0  0
    5.3341   -8.6339    0.0000 C   0  0  1  0  0  0  0  0  0  0  0  0
    3.1907   -7.3964    0.0000 C   0  0  0  0  0  0  0  0  0  0  0  0
    4.6196   -9.8714    0.0000 O   0  0  0  0  0  0  0  0  0  0  0  0
    6.0486   -9.0464    0.0000 O   0  0  0  0  0  0  0  0  0  0  0  0
    3.1907   -9.0464    0.0000 O   0  0  0  0  0  0  0  0  0  0  0  0
    2.4762   -7.8089    0.0000 O   0  0  0  0  0  0  0  0  0  0  0  0
  1  2  2  0  0  0  0
  2  3  1  0  0  0  0
  3  4  2  0  0  0  0
  4  5  1  0  0  0  0
  5  6  2  0  0  0  0
  6  1  1  0  0  0  0
  4  7  1  0  0  0  0
  7  8  1  0  0  0  0
  8  9  1  0  0  0  0
  9 10  1  0  0  0  0
 10  5  1  0  0  0  0
 11 12  2  0  0  0  0
 12  9  1  0  0  0  0
 11 13  1  0  0  0  0
 13 14  2  0  0  0  0
 14 15  1  0  0  0  0
 15 16  2  0  0  0  0
 16 12  1  0  0  0  0
  7 17  2  0  0  0  0
  3 18  1  0  0  0  0
  1 19  1  0  0  0  0
 14 20  1  0  0  0  0
 20 21  1  0  0  0  0
 15 22  1  0  0  0  0
 23 19  1  1  0  0  0
 23 24  1  0  0  0  0
 24 25  1  0  0  0  0
 25 26  1  0  0  0  0
 26 27  1  0  0  0  0
 27 28  1  0  0  0  0
 28 23  1  0  0  0  0
 25 29  1  1  0  0  0
 27 30  1  1  0  0  0
 28 31  1  6  0  0  0
 26 32  1  6  0  0  0
 29 33  1  0  0  0  0
M  END
>  <cdx:fragmentId>
5

$$$$
