5054.cdx
  Mrv1902 05222410222D          

  8  8  0  0  0  0            999 V2000
    2.9527   -4.2622    0.0000 C   0  0  0  0  0  0  0  0  0  0  0  0
    3.6671   -3.8497    0.0000 C   0  0  0  0  0  0  0  0  0  0  0  0
    4.3816   -4.2622    0.0000 C   0  0  0  0  0  0  0  0  0  0  0  0
    4.3816   -5.0872    0.0000 C   0  0  0  0  0  0  0  0  0  0  0  0
    3.6671   -5.4997    0.0000 C   0  0  0  0  0  0  0  0  0  0  0  0
    2.9527   -5.0872    0.0000 C   0  0  0  0  0  0  0  0  0  0  0  0
    2.2382   -3.8497    0.0000 O   0  0  0  0  0  0  0  0  0  0  0  0
    5.0961   -3.8497    0.0000 O   0  0  0  0  0  0  0  0  0  0  0  0
  1  2  1  0  0  0  0
  2  3  2  0  0  0  0
  3  4  1  0  0  0  0
  4  5  2  0  0  0  0
  5  6  1  0  0  0  0
  1  6  2  0  0  0  0
  1  7  1  0  0  0  0
  3  8  1  0  0  0  0
M  END
>  <cdx:groupId>
26

>  <cdx:fragmentId>
5

$$$$
