50545.cdx
  Mrv1902 05222410272D          

 34 37  0  0  0  0            999 V2000
    2.1293   -8.9776    0.0000 C   0  0  0  0  0  0  0  0  0  0  0  0
    2.1293   -9.8026    0.0000 C   0  0  0  0  0  0  0  0  0  0  0  0
    2.8438  -10.2151    0.0000 C   0  0  0  0  0  0  0  0  0  0  0  0
    3.5582   -9.8026    0.0000 C   0  0  0  0  0  0  0  0  0  0  0  0
    3.5582   -8.9776    0.0000 C   0  0  0  0  0  0  0  0  0  0  0  0
    2.8438   -8.5651    0.0000 C   0  0  0  0  0  0  0  0  0  0  0  0
    4.2727  -10.2151    0.0000 C   0  0  0  0  0  0  0  0  0  0  0  0
    4.9872   -9.8026    0.0000 C   0  0  0  0  0  0  0  0  0  0  0  0
    4.9872   -8.9776    0.0000 C   0  0  0  0  0  0  0  0  0  0  0  0
    4.2727   -8.5651    0.0000 O   0  0  0  0  0  0  0  0  0  0  0  0
    6.4161   -8.9776    0.0000 C   0  0  0  0  0  0  0  0  0  0  0  0
    5.7017   -8.5651    0.0000 C   0  0  0  0  0  0  0  0  0  0  0  0
    7.1306   -8.5651    0.0000 C   0  0  0  0  0  0  0  0  0  0  0  0
    7.1306   -7.7401    0.0000 C   0  0  0  0  0  0  0  0  0  0  0  0
    6.4161   -7.3276    0.0000 C   0  0  0  0  0  0  0  0  0  0  0  0
    5.7017   -7.7401    0.0000 C   0  0  0  0  0  0  0  0  0  0  0  0
    4.2727  -11.0401    0.0000 O   0  0  0  0  0  0  0  0  0  0  0  0
    2.8438  -11.0401    0.0000 O   0  0  0  0  0  0  0  0  0  0  0  0
    1.4148   -8.5651    0.0000 O   0  0  0  0  0  0  0  0  0  0  0  0
    7.8451   -7.3276    0.0000 O   0  0  0  0  0  0  0  0  0  0  0  0
    2.8438   -7.7401    0.0000 O   0  0  0  0  0  0  0  0  0  0  0  0
    2.1293   -7.3276    0.0000 C   0  0  0  0  0  0  0  0  0  0  0  0
    8.5235   -5.2470    0.0000 C   0  0  2  0  0  0  0  0  0  0  0  0
    7.8028   -4.8455    0.0000 C   0  0  2  0  0  0  0  0  0  0  0  0
    7.0947   -5.2688    0.0000 C   0  0  1  0  0  0  0  0  0  0  0  0
    7.1073   -6.0937    0.0000 C   0  0  2  0  0  0  0  0  0  0  0  0
    7.8280   -6.4953    0.0000 C   0  0  1  0  0  0  0  0  0  0  0  0
    8.5361   -6.0719    0.0000 O   0  0  0  0  0  0  0  0  0  0  0  0
    9.2316   -4.8236    0.0000 C   0  0  0  0  0  0  0  0  0  0  0  0
    6.3740   -4.8673    0.0000 O   0  0  0  0  0  0  0  0  0  0  0  0
    6.3992   -6.5171    0.0000 O   0  0  0  0  0  0  0  0  0  0  0  0
    7.7902   -4.0206    0.0000 O   0  0  0  0  0  0  0  0  0  0  0  0
    9.9523   -5.2252    0.0000 O   0  0  0  0  0  0  0  0  0  0  0  0
    9.2190   -3.9987    0.0000 O   0  0  0  0  0  0  0  0  0  0  0  0
  1  2  2  0  0  0  0
  2  3  1  0  0  0  0
  3  4  2  0  0  0  0
  4  5  1  0  0  0  0
  5  6  2  0  0  0  0
  6  1  1  0  0  0  0
  4  7  1  0  0  0  0
  7  8  1  0  0  0  0
  8  9  1  0  0  0  0
  9 10  1  0  0  0  0
 10  5  1  0  0  0  0
 11 12  2  0  0  0  0
 12  9  1  0  0  0  0
 11 13  1  0  0  0  0
 13 14  2  0  0  0  0
 14 15  1  0  0  0  0
 15 16  2  0  0  0  0
 16 12  1  0  0  0  0
  7 17  2  0  0  0  0
  3 18  1  0  0  0  0
  1 19  1  0  0  0  0
 14 20  1  0  0  0  0
  6 21  1  0  0  0  0
 21 22  1  0  0  0  0
 23 24  1  0  0  0  0
 24 25  1  0  0  0  0
 25 26  1  0  0  0  0
 26 27  1  0  0  0  0
 27 28  1  0  0  0  0
 28 23  1  0  0  0  0
 23 29  1  1  0  0  0
 25 30  1  1  0  0  0
 26 31  1  6  0  0  0
 24 32  1  6  0  0  0
 29 33  1  0  0  0  0
 29 34  2  0  0  0  0
 27 20  1  1  0  0  0
M  END
>  <cdx:fragmentId>
5

$$$$
