50544.cdx
  Mrv1902 05222410272D          

 31 34  0  0  0  0            999 V2000
    5.6218   -9.1839    0.0000 C   0  0  0  0  0  0  0  0  0  0  0  0
    5.6218  -10.0089    0.0000 C   0  0  0  0  0  0  0  0  0  0  0  0
    6.3363  -10.4214    0.0000 C   0  0  0  0  0  0  0  0  0  0  0  0
    7.0507  -10.0089    0.0000 C   0  0  0  0  0  0  0  0  0  0  0  0
    7.0507   -9.1839    0.0000 C   0  0  0  0  0  0  0  0  0  0  0  0
    6.3363   -8.7714    0.0000 C   0  0  0  0  0  0  0  0  0  0  0  0
    7.7652  -10.4214    0.0000 C   0  0  0  0  0  0  0  0  0  0  0  0
    8.4797  -10.0089    0.0000 C   0  0  0  0  0  0  0  0  0  0  0  0
    8.4797   -9.1839    0.0000 C   0  0  0  0  0  0  0  0  0  0  0  0
    7.7652   -8.7714    0.0000 O   0  0  0  0  0  0  0  0  0  0  0  0
    9.9086   -9.1839    0.0000 C   0  0  0  0  0  0  0  0  0  0  0  0
    9.1942   -8.7714    0.0000 C   0  0  0  0  0  0  0  0  0  0  0  0
   10.6231   -8.7714    0.0000 C   0  0  0  0  0  0  0  0  0  0  0  0
   10.6231   -7.9464    0.0000 C   0  0  0  0  0  0  0  0  0  0  0  0
    9.9086   -7.5339    0.0000 C   0  0  0  0  0  0  0  0  0  0  0  0
    9.1942   -7.9464    0.0000 C   0  0  0  0  0  0  0  0  0  0  0  0
    7.7652  -11.2464    0.0000 O   0  0  0  0  0  0  0  0  0  0  0  0
    6.3363  -11.2464    0.0000 O   0  0  0  0  0  0  0  0  0  0  0  0
    4.9073   -8.7714    0.0000 O   0  0  0  0  0  0  0  0  0  0  0  0
   11.3376   -7.5339    0.0000 O   0  0  0  0  0  0  0  0  0  0  0  0
    7.0655   -6.7119    0.0000 C   0  0  2  0  0  0  0  0  0  0  0  0
    6.3553   -6.2921    0.0000 C   0  0  2  0  0  0  0  0  0  0  0  0
    5.6366   -6.6972    0.0000 C   0  0  1  0  0  0  0  0  0  0  0  0
    5.6282   -7.5222    0.0000 C   0  0  2  0  0  0  0  0  0  0  0  0
    6.3384   -7.9420    0.0000 C   0  0  1  0  0  0  0  0  0  0  0  0
    7.0570   -7.5368    0.0000 O   0  0  0  0  0  0  0  0  0  0  0  0
    7.7841   -6.3067    0.0000 C   0  0  0  0  0  0  0  0  0  0  0  0
    4.9264   -6.2775    0.0000 O   0  0  0  0  0  0  0  0  0  0  0  0
    4.9095   -7.9274    0.0000 O   0  0  0  0  0  0  0  0  0  0  0  0
    6.3637   -5.4671    0.0000 O   0  0  0  0  0  0  0  0  0  0  0  0
    7.7926   -5.4817    0.0000 O   0  0  0  0  0  0  0  0  0  0  0  0
  1  2  2  0  0  0  0
  2  3  1  0  0  0  0
  3  4  2  0  0  0  0
  4  5  1  0  0  0  0
  5  6  2  0  0  0  0
  6  1  1  0  0  0  0
  4  7  1  0  0  0  0
  7  8  1  0  0  0  0
  8  9  1  0  0  0  0
  9 10  1  0  0  0  0
 10  5  1  0  0  0  0
 11 12  2  0  0  0  0
 12  9  1  0  0  0  0
 11 13  1  0  0  0  0
 13 14  2  0  0  0  0
 14 15  1  0  0  0  0
 15 16  2  0  0  0  0
 16 12  1  0  0  0  0
  7 17  2  0  0  0  0
  3 18  1  0  0  0  0
  1 19  1  0  0  0  0
 14 20  1  0  0  0  0
 21 22  1  0  0  0  0
 22 23  1  0  0  0  0
 23 24  1  0  0  0  0
 24 25  1  0  0  0  0
 25 26  1  0  0  0  0
 26 21  1  0  0  0  0
 21 27  1  1  0  0  0
 23 28  1  1  0  0  0
 24 29  1  6  0  0  0
 22 30  1  6  0  0  0
 27 31  1  0  0  0  0
 25  6  1  1  0  0  0
M  END
>  <cdx:fragmentId>
5

$$$$
