50543.cdx
  Mrv1902 05222410262D          

 24 26  0  0  0  0            999 V2000
    3.9581   -7.1489    0.0000 C   0  0  0  0  0  0  0  0  0  0  0  0
    3.9581   -7.9739    0.0000 C   0  0  0  0  0  0  0  0  0  0  0  0
    4.6725   -8.3864    0.0000 C   0  0  0  0  0  0  0  0  0  0  0  0
    5.3870   -7.9739    0.0000 C   0  0  0  0  0  0  0  0  0  0  0  0
    5.3870   -7.1489    0.0000 C   0  0  0  0  0  0  0  0  0  0  0  0
    4.6725   -6.7364    0.0000 C   0  0  0  0  0  0  0  0  0  0  0  0
    6.1015   -8.3864    0.0000 C   0  0  0  0  0  0  0  0  0  0  0  0
    6.8159   -7.9739    0.0000 C   0  0  0  0  0  0  0  0  0  0  0  0
    6.8159   -7.1489    0.0000 C   0  0  0  0  0  0  0  0  0  0  0  0
    6.1015   -6.7364    0.0000 O   0  0  0  0  0  0  0  0  0  0  0  0
    7.5304   -8.3864    0.0000 C   0  0  0  0  0  0  0  0  0  0  0  0
    8.2449   -7.9739    0.0000 C   0  0  0  0  0  0  0  0  0  0  0  0
    7.5304   -9.2114    0.0000 C   0  0  0  0  0  0  0  0  0  0  0  0
    8.2449   -9.6239    0.0000 C   0  0  0  0  0  0  0  0  0  0  0  0
    8.9594   -9.2114    0.0000 C   0  0  0  0  0  0  0  0  0  0  0  0
    8.9594   -8.3864    0.0000 C   0  0  0  0  0  0  0  0  0  0  0  0
    6.1015   -9.2114    0.0000 O   0  0  0  0  0  0  0  0  0  0  0  0
    4.6725   -9.2114    0.0000 O   0  0  0  0  0  0  0  0  0  0  0  0
    3.2436   -6.7364    0.0000 O   0  0  0  0  0  0  0  0  0  0  0  0
    9.6738   -9.6239    0.0000 O   0  0  0  0  0  0  0  0  0  0  0  0
    9.6738   -7.9739    0.0000 O   0  0  0  0  0  0  0  0  0  0  0  0
    9.6738   -7.1489    0.0000 C   0  0  0  0  0  0  0  0  0  0  0  0
    3.2436   -8.3864    0.0000 O   0  0  0  0  0  0  0  0  0  0  0  0
    2.5291   -7.9739    0.0000 C   0  0  0  0  0  0  0  0  0  0  0  0
  1  2  2  0  0  0  0
  2  3  1  0  0  0  0
  3  4  2  0  0  0  0
  4  5  1  0  0  0  0
  5  6  2  0  0  0  0
  6  1  1  0  0  0  0
  4  7  1  0  0  0  0
  7  8  1  0  0  0  0
  8  9  2  0  0  0  0
  9 10  1  0  0  0  0
 10  5  1  0  0  0  0
  8 11  1  0  0  0  0
 11 12  1  0  0  0  0
 11 13  2  0  0  0  0
 13 14  1  0  0  0  0
 14 15  2  0  0  0  0
 15 16  1  0  0  0  0
 16 12  2  0  0  0  0
  7 17  2  0  0  0  0
  3 18  1  0  0  0  0
  1 19  1  0  0  0  0
 15 20  1  0  0  0  0
 16 21  1  0  0  0  0
 21 22  1  0  0  0  0
  2 23  1  0  0  0  0
 23 24  1  0  0  0  0
M  END
>  <cdx:fragmentId>
5

$$$$
