50559.cdx
  Mrv1902 05222410202D          

 35 38  0  0  0  0            999 V2000
    5.6631   -6.9976    0.0000 C   0  0  0  0  0  0  0  0  0  0  0  0
    5.6631   -7.8226    0.0000 C   0  0  0  0  0  0  0  0  0  0  0  0
    6.3775   -8.2351    0.0000 C   0  0  0  0  0  0  0  0  0  0  0  0
    7.0920   -7.8226    0.0000 C   0  0  0  0  0  0  0  0  0  0  0  0
    7.0920   -6.9976    0.0000 C   0  0  0  0  0  0  0  0  0  0  0  0
    6.3775   -6.5851    0.0000 C   0  0  0  0  0  0  0  0  0  0  0  0
    7.8065   -8.2351    0.0000 C   0  0  0  0  0  0  0  0  0  0  0  0
    8.5209   -7.8226    0.0000 C   0  0  0  0  0  0  0  0  0  0  0  0
    8.5209   -6.9976    0.0000 C   0  0  0  0  0  0  0  0  0  0  0  0
    7.8065   -6.5851    0.0000 O   0  0  0  0  0  0  0  0  0  0  0  0
    9.2354   -6.5851    0.0000 C   0  0  0  0  0  0  0  0  0  0  0  0
    9.2354   -5.7601    0.0000 C   0  0  0  0  0  0  0  0  0  0  0  0
    9.9499   -6.9976    0.0000 C   0  0  0  0  0  0  0  0  0  0  0  0
   10.6644   -6.5851    0.0000 C   0  0  0  0  0  0  0  0  0  0  0  0
   10.6644   -5.7601    0.0000 C   0  0  0  0  0  0  0  0  0  0  0  0
    9.9499   -5.3476    0.0000 C   0  0  0  0  0  0  0  0  0  0  0  0
    7.8065   -9.0601    0.0000 O   0  0  0  0  0  0  0  0  0  0  0  0
    6.3775   -9.0601    0.0000 O   0  0  0  0  0  0  0  0  0  0  0  0
    4.9486   -6.5851    0.0000 O   0  0  0  0  0  0  0  0  0  0  0  0
    4.9486   -8.2351    0.0000 O   0  0  0  0  0  0  0  0  0  0  0  0
    4.9486   -9.0601    0.0000 C   0  0  0  0  0  0  0  0  0  0  0  0
    6.3775   -5.7601    0.0000 O   0  0  0  0  0  0  0  0  0  0  0  0
    5.6631   -5.3476    0.0000 C   0  0  0  0  0  0  0  0  0  0  0  0
    4.1236   -6.5893    0.0000 C   0  0  2  0  0  0  0  0  0  0  0  0
    3.7075   -5.8770    0.0000 O   0  0  0  0  0  0  0  0  0  0  0  0
    2.8825   -5.8812    0.0000 C   0  0  1  0  0  0  0  0  0  0  0  0
    2.4736   -6.5977    0.0000 C   0  0  2  0  0  0  0  0  0  0  0  0
    2.8897   -7.3101    0.0000 C   0  0  1  0  0  0  0  0  0  0  0  0
    3.7147   -7.3059    0.0000 C   0  0  1  0  0  0  0  0  0  0  0  0
    2.4809   -8.0266    0.0000 O   0  0  0  0  0  0  0  0  0  0  0  0
    2.4664   -5.1688    0.0000 C   0  0  0  0  0  0  0  0  0  0  0  0
    4.1309   -8.0183    0.0000 O   0  0  0  0  0  0  0  0  0  0  0  0
    1.6486   -6.6019    0.0000 O   0  0  0  0  0  0  0  0  0  0  0  0
    1.6414   -5.1730    0.0000 O   0  0  0  0  0  0  0  0  0  0  0  0
    2.8752   -4.4522    0.0000 O   0  0  0  0  0  0  0  0  0  0  0  0
  1  2  2  0  0  0  0
  2  3  1  0  0  0  0
  3  4  2  0  0  0  0
  4  5  1  0  0  0  0
  5  6  2  0  0  0  0
  6  1  1  0  0  0  0
  4  7  1  0  0  0  0
  7  8  1  0  0  0  0
  8  9  2  0  0  0  0
  9 10  1  0  0  0  0
 10  5  1  0  0  0  0
  9 11  1  0  0  0  0
 11 12  1  0  0  0  0
 11 13  2  0  0  0  0
 13 14  1  0  0  0  0
 14 15  2  0  0  0  0
 15 16  1  0  0  0  0
 16 12  2  0  0  0  0
  7 17  2  0  0  0  0
  3 18  1  0  0  0  0
  1 19  1  0  0  0  0
  2 20  1  0  0  0  0
 20 21  1  0  0  0  0
  6 22  1  0  0  0  0
 22 23  1  0  0  0  0
 24 19  1  1  0  0  0
 24 25  1  0  0  0  0
 25 26  1  0  0  0  0
 26 27  1  0  0  0  0
 27 28  1  0  0  0  0
 28 29  1  0  0  0  0
 29 24  1  0  0  0  0
 28 30  1  1  0  0  0
 26 31  1  1  0  0  0
 29 32  1  6  0  0  0
 27 33  1  6  0  0  0
 31 34  1  0  0  0  0
 31 35  2  0  0  0  0
M  END
>  <cdx:fragmentId>
5

$$$$
