50553.cdx
  Mrv1902 05222410282D          

 24 27  0  0  0  0            999 V2000
    2.9818   -6.0214    0.0000 C   0  0  0  0  0  0  0  0  0  0  0  0
    2.9818   -6.8464    0.0000 C   0  0  0  0  0  0  0  0  0  0  0  0
    3.6963   -7.2589    0.0000 C   0  0  0  0  0  0  0  0  0  0  0  0
    4.4107   -6.8464    0.0000 C   0  0  0  0  0  0  0  0  0  0  0  0
    4.4107   -6.0214    0.0000 C   0  0  0  0  0  0  0  0  0  0  0  0
    3.6963   -5.6089    0.0000 C   0  0  0  0  0  0  0  0  0  0  0  0
    5.1252   -7.2589    0.0000 C   0  0  0  0  0  0  0  0  0  0  0  0
    5.8397   -6.8464    0.0000 C   0  0  0  0  0  0  0  0  0  0  0  0
    5.8397   -6.0214    0.0000 C   0  0  0  0  0  0  0  0  0  0  0  0
    5.1252   -5.6089    0.0000 O   0  0  0  0  0  0  0  0  0  0  0  0
    6.5542   -7.2589    0.0000 C   0  0  0  0  0  0  0  0  0  0  0  0
    7.2686   -6.8464    0.0000 C   0  0  0  0  0  0  0  0  0  0  0  0
    6.5542   -8.0839    0.0000 C   0  0  0  0  0  0  0  0  0  0  0  0
    7.2686   -8.4964    0.0000 C   0  0  0  0  0  0  0  0  0  0  0  0
    7.9831   -8.0839    0.0000 C   0  0  0  0  0  0  0  0  0  0  0  0
    7.9831   -7.2589    0.0000 C   0  0  0  0  0  0  0  0  0  0  0  0
    5.1252   -8.0839    0.0000 O   0  0  0  0  0  0  0  0  0  0  0  0
    3.6963   -8.0839    0.0000 O   0  0  0  0  0  0  0  0  0  0  0  0
    2.2673   -5.6089    0.0000 O   0  0  0  0  0  0  0  0  0  0  0  0
    7.2686   -6.0214    0.0000 O   0  0  0  0  0  0  0  0  0  0  0  0
    7.9831   -5.6089    0.0000 C   0  0  0  0  0  0  0  0  0  0  0  0
    8.7677   -8.3388    0.0000 O   0  0  0  0  0  0  0  0  0  0  0  0
    9.2526   -7.6714    0.0000 C   0  0  0  0  0  0  0  0  0  0  0  0
    8.7677   -7.0040    0.0000 O   0  0  0  0  0  0  0  0  0  0  0  0
  1  2  2  0  0  0  0
  2  3  1  0  0  0  0
  3  4  2  0  0  0  0
  4  5  1  0  0  0  0
  5  6  2  0  0  0  0
  6  1  1  0  0  0  0
  4  7  1  0  0  0  0
  7  8  1  0  0  0  0
  8  9  1  0  0  0  0
  9 10  1  0  0  0  0
 10  5  1  0  0  0  0
  8 11  1  0  0  0  0
 11 12  1  0  0  0  0
 11 13  2  0  0  0  0
 13 14  1  0  0  0  0
 14 15  2  0  0  0  0
 15 16  1  0  0  0  0
 16 12  2  0  0  0  0
  7 17  2  0  0  0  0
  3 18  1  0  0  0  0
  1 19  1  0  0  0  0
 12 20  1  0  0  0  0
 20 21  1  0  0  0  0
 15 22  1  0  0  0  0
 22 23  1  0  0  0  0
 23 24  1  0  0  0  0
 24 16  1  0  0  0  0
M  END
>  <cdx:fragmentId>
5

$$$$
