50550.cdx
  Mrv1902 05222410272D          

 33 36  0  0  0  0            999 V2000
    6.2956   -8.1526    0.0000 C   0  0  0  0  0  0  0  0  0  0  0  0
    6.2956   -8.9776    0.0000 C   0  0  0  0  0  0  0  0  0  0  0  0
    7.0100   -9.3901    0.0000 C   0  0  0  0  0  0  0  0  0  0  0  0
    7.7245   -8.9776    0.0000 C   0  0  0  0  0  0  0  0  0  0  0  0
    7.7245   -8.1526    0.0000 C   0  0  0  0  0  0  0  0  0  0  0  0
    7.0100   -7.7401    0.0000 C   0  0  0  0  0  0  0  0  0  0  0  0
    8.4390   -9.3901    0.0000 C   0  0  0  0  0  0  0  0  0  0  0  0
    9.1534   -8.9776    0.0000 C   0  0  0  0  0  0  0  0  0  0  0  0
    9.1534   -8.1526    0.0000 C   0  0  0  0  0  0  0  0  0  0  0  0
    8.4390   -7.7401    0.0000 O   0  0  0  0  0  0  0  0  0  0  0  0
    9.8679   -7.7401    0.0000 C   0  0  0  0  0  0  0  0  0  0  0  0
    9.8679   -6.9151    0.0000 C   0  0  0  0  0  0  0  0  0  0  0  0
   10.5824   -8.1526    0.0000 C   0  0  0  0  0  0  0  0  0  0  0  0
   11.2969   -7.7401    0.0000 C   0  0  0  0  0  0  0  0  0  0  0  0
   11.2969   -6.9151    0.0000 C   0  0  0  0  0  0  0  0  0  0  0  0
   10.5824   -6.5026    0.0000 C   0  0  0  0  0  0  0  0  0  0  0  0
    8.4390  -10.2151    0.0000 O   0  0  0  0  0  0  0  0  0  0  0  0
    7.0100  -10.2151    0.0000 O   0  0  0  0  0  0  0  0  0  0  0  0
    5.5811   -7.7401    0.0000 O   0  0  0  0  0  0  0  0  0  0  0  0
    7.0100   -6.9151    0.0000 O   0  0  0  0  0  0  0  0  0  0  0  0
    4.8666   -8.1526    0.0000 C   0  0  2  0  0  0  0  0  0  0  0  0
    4.1521   -7.7401    0.0000 O   0  0  0  0  0  0  0  0  0  0  0  0
    3.4377   -8.1526    0.0000 C   0  0  1  0  0  0  0  0  0  0  0  0
    3.4377   -8.9776    0.0000 C   0  0  2  0  0  0  0  0  0  0  0  0
    4.1521   -9.3901    0.0000 C   0  0  1  0  0  0  0  0  0  0  0  0
    4.8666   -8.9776    0.0000 C   0  0  1  0  0  0  0  0  0  0  0  0
    2.7232   -7.7401    0.0000 C   0  0  0  0  0  0  0  0  0  0  0  0
    4.1521  -10.2151    0.0000 O   0  0  0  0  0  0  0  0  0  0  0  0
    5.5811   -9.3901    0.0000 O   0  0  0  0  0  0  0  0  0  0  0  0
    2.7232   -9.3901    0.0000 O   0  0  0  0  0  0  0  0  0  0  0  0
    2.7232   -6.9151    0.0000 O   0  0  0  0  0  0  0  0  0  0  0  0
    2.0087   -8.1526    0.0000 O   0  0  0  0  0  0  0  0  0  0  0  0
   12.0113   -6.5026    0.0000 O   0  0  0  0  0  0  0  0  0  0  0  0
  1  2  2  0  0  0  0
  2  3  1  0  0  0  0
  3  4  2  0  0  0  0
  4  5  1  0  0  0  0
  5  6  2  0  0  0  0
  6  1  1  0  0  0  0
  4  7  1  0  0  0  0
  7  8  1  0  0  0  0
  8  9  2  0  0  0  0
  9 10  1  0  0  0  0
 10  5  1  0  0  0  0
  9 11  1  0  0  0  0
 11 12  1  0  0  0  0
 11 13  2  0  0  0  0
 13 14  1  0  0  0  0
 14 15  2  0  0  0  0
 15 16  1  0  0  0  0
 16 12  2  0  0  0  0
  7 17  2  0  0  0  0
  3 18  1  0  0  0  0
  1 19  1  0  0  0  0
  6 20  1  0  0  0  0
 21 19  1  1  0  0  0
 21 22  1  0  0  0  0
 22 23  1  0  0  0  0
 23 24  1  0  0  0  0
 24 25  1  0  0  0  0
 25 26  1  0  0  0  0
 26 21  1  0  0  0  0
 23 27  1  1  0  0  0
 25 28  1  1  0  0  0
 26 29  1  6  0  0  0
 24 30  1  6  0  0  0
 27 31  1  0  0  0  0
 27 32  2  0  0  0  0
 15 33  1  0  0  0  0
M  END
>  <cdx:fragmentId>
5

$$$$
