50556.cdx
  Mrv1902 05222410262D          

 33 37  0  0  0  0            999 V2000
    4.1093   -7.0389    0.0000 C   0  0  0  0  0  0  0  0  0  0  0  0
    4.1093   -7.8639    0.0000 C   0  0  0  0  0  0  0  0  0  0  0  0
    4.8238   -8.2764    0.0000 C   0  0  0  0  0  0  0  0  0  0  0  0
    5.5382   -7.8639    0.0000 C   0  0  0  0  0  0  0  0  0  0  0  0
    5.5382   -7.0389    0.0000 C   0  0  0  0  0  0  0  0  0  0  0  0
    4.8238   -6.6264    0.0000 C   0  0  0  0  0  0  0  0  0  0  0  0
    6.2527   -8.2764    0.0000 C   0  0  0  0  0  0  0  0  0  0  0  0
    6.9672   -7.8639    0.0000 C   0  0  0  0  0  0  0  0  0  0  0  0
    6.9672   -7.0389    0.0000 C   0  0  0  0  0  0  0  0  0  0  0  0
    6.2527   -6.6264    0.0000 O   0  0  0  0  0  0  0  0  0  0  0  0
    7.6817   -6.6264    0.0000 C   0  0  0  0  0  0  0  0  0  0  0  0
    7.6817   -5.8014    0.0000 C   0  0  0  0  0  0  0  0  0  0  0  0
    8.3961   -7.0389    0.0000 C   0  0  0  0  0  0  0  0  0  0  0  0
    9.1106   -6.6264    0.0000 C   0  0  0  0  0  0  0  0  0  0  0  0
    9.1106   -5.8014    0.0000 C   0  0  0  0  0  0  0  0  0  0  0  0
    8.3961   -5.3889    0.0000 C   0  0  0  0  0  0  0  0  0  0  0  0
    6.2527   -9.1014    0.0000 O   0  0  0  0  0  0  0  0  0  0  0  0
    9.7237   -5.2494    0.0000 O   0  0  0  0  0  0  0  0  0  0  0  0
    9.3881   -4.4957    0.0000 C   0  0  0  0  0  0  0  0  0  0  0  0
    8.5677   -4.5819    0.0000 O   0  0  0  0  0  0  0  0  0  0  0  0
    4.8238   -5.8014    0.0000 C   0  0  0  0  0  0  0  0  0  0  0  0
    5.5382   -5.3889    0.0000 O   0  0  0  0  0  0  0  0  0  0  0  0
    5.5382   -4.5639    0.0000 C   0  0  1  0  0  0  0  0  0  0  0  0
    4.8238   -4.1514    0.0000 C   0  0  2  0  0  0  0  0  0  0  0  0
    4.1093   -4.5639    0.0000 C   0  0  1  0  0  0  0  0  0  0  0  0
    4.1093   -5.3889    0.0000 C   0  0  1  0  0  0  0  0  0  0  0  0
    6.2527   -4.1514    0.0000 C   0  0  0  0  0  0  0  0  0  0  0  0
    3.3948   -4.1514    0.0000 O   0  0  0  0  0  0  0  0  0  0  0  0
    3.3948   -5.8014    0.0000 O   0  0  0  0  0  0  0  0  0  0  0  0
    4.8238   -3.3264    0.0000 O   0  0  0  0  0  0  0  0  0  0  0  0
    6.2527   -3.3264    0.0000 O   0  0  0  0  0  0  0  0  0  0  0  0
    3.3948   -6.6264    0.0000 O   0  0  0  0  0  0  0  0  0  0  0  0
    4.8238   -9.1014    0.0000 O   0  0  0  0  0  0  0  0  0  0  0  0
  1  2  2  0  0  0  0
  2  3  1  0  0  0  0
  3  4  2  0  0  0  0
  4  5  1  0  0  0  0
  5  6  2  0  0  0  0
  6  1  1  0  0  0  0
  4  7  1  0  0  0  0
  7  8  1  0  0  0  0
  8  9  2  0  0  0  0
  9 10  1  0  0  0  0
 10  5  1  0  0  0  0
  9 11  1  0  0  0  0
 11 12  1  0  0  0  0
 11 13  2  0  0  0  0
 13 14  1  0  0  0  0
 14 15  2  0  0  0  0
 15 16  1  0  0  0  0
 16 12  2  0  0  0  0
  7 17  2  0  0  0  0
 15 18  1  0  0  0  0
 18 19  1  0  0  0  0
 19 20  1  0  0  0  0
 20 16  1  0  0  0  0
  6 21  1  0  0  0  0
 21 22  1  0  0  0  0
 22 23  1  0  0  0  0
 23 24  1  0  0  0  0
 24 25  1  0  0  0  0
 25 26  1  0  0  0  0
 26 21  1  0  0  0  0
 23 27  1  1  0  0  0
 25 28  1  1  0  0  0
 26 29  1  6  0  0  0
 24 30  1  6  0  0  0
 27 31  1  0  0  0  0
  1 32  1  0  0  0  0
  3 33  1  0  0  0  0
M  END
>  <cdx:fragmentId>
5

$$$$
