50557.cdx
  Mrv1902 05222410262D          

 13 14  0  0  0  0            999 V2000
    6.5843   -6.4476    0.0000 C   0  0  0  0  0  0  0  0  0  0  0  0
    6.5843   -5.6226    0.0000 C   0  0  0  0  0  0  0  0  0  0  0  0
    7.2988   -5.2101    0.0000 C   0  0  0  0  0  0  0  0  0  0  0  0
    8.0132   -5.6226    0.0000 C   0  0  0  0  0  0  0  0  0  0  0  0
    8.0132   -6.4476    0.0000 C   0  0  0  0  0  0  0  0  0  0  0  0
    7.2988   -6.8601    0.0000 C   0  0  0  0  0  0  0  0  0  0  0  0
    8.7277   -5.2101    0.0000 O   0  0  0  0  0  0  0  0  0  0  0  0
    9.4422   -5.6226    0.0000 C   0  0  0  0  0  0  0  0  0  0  0  0
    9.4422   -6.4476    0.0000 C   0  0  0  0  0  0  0  0  0  0  0  0
    8.7277   -6.8601    0.0000 C   0  0  0  0  0  0  0  0  0  0  0  0
    8.7277   -7.6851    0.0000 O   0  0  0  0  0  0  0  0  0  0  0  0
    7.2988   -7.6851    0.0000 O   0  0  0  0  0  0  0  0  0  0  0  0
    5.8698   -5.2101    0.0000 O   0  0  0  0  0  0  0  0  0  0  0  0
  1  2  1  0  0  0  0
  2  3  2  0  0  0  0
  3  4  1  0  0  0  0
  4  5  2  0  0  0  0
  5  6  1  0  0  0  0
  6  1  2  0  0  0  0
  4  7  1  0  0  0  0
  7  8  1  0  0  0  0
  8  9  2  0  0  0  0
  9 10  1  0  0  0  0
 10  5  1  0  0  0  0
 10 11  2  0  0  0  0
  6 12  1  0  0  0  0
  2 13  1  0  0  0  0
M  END
>  <cdx:fragmentId>
5

$$$$
