50558.cdx
  Mrv1902 05222410192D          

 23 25  0  0  0  0            999 V2000
    3.8206   -7.7126    0.0000 C   0  0  0  0  0  0  0  0  0  0  0  0
    3.8206   -8.5376    0.0000 C   0  0  0  0  0  0  0  0  0  0  0  0
    4.5350   -8.9501    0.0000 C   0  0  0  0  0  0  0  0  0  0  0  0
    5.2495   -8.5376    0.0000 C   0  0  0  0  0  0  0  0  0  0  0  0
    5.2495   -7.7126    0.0000 C   0  0  0  0  0  0  0  0  0  0  0  0
    4.5350   -7.3001    0.0000 C   0  0  0  0  0  0  0  0  0  0  0  0
    5.9640   -8.9501    0.0000 C   0  0  0  0  0  0  0  0  0  0  0  0
    6.6784   -8.5376    0.0000 C   0  0  0  0  0  0  0  0  0  0  0  0
    6.6784   -7.7126    0.0000 C   0  0  0  0  0  0  0  0  0  0  0  0
    5.9640   -7.3001    0.0000 O   0  0  0  0  0  0  0  0  0  0  0  0
    7.3929   -7.3001    0.0000 C   0  0  0  0  0  0  0  0  0  0  0  0
    7.3929   -6.4751    0.0000 C   0  0  0  0  0  0  0  0  0  0  0  0
    8.1074   -7.7126    0.0000 C   0  0  0  0  0  0  0  0  0  0  0  0
    8.8219   -7.3001    0.0000 C   0  0  0  0  0  0  0  0  0  0  0  0
    8.8219   -6.4751    0.0000 C   0  0  0  0  0  0  0  0  0  0  0  0
    8.1074   -6.0626    0.0000 C   0  0  0  0  0  0  0  0  0  0  0  0
    5.9640   -9.7751    0.0000 O   0  0  0  0  0  0  0  0  0  0  0  0
    4.5350   -9.7751    0.0000 O   0  0  0  0  0  0  0  0  0  0  0  0
    3.1061   -7.3001    0.0000 O   0  0  0  0  0  0  0  0  0  0  0  0
    3.1061   -8.9501    0.0000 O   0  0  0  0  0  0  0  0  0  0  0  0
    2.3916   -8.5376    0.0000 C   0  0  0  0  0  0  0  0  0  0  0  0
    9.5363   -6.0626    0.0000 O   0  0  0  0  0  0  0  0  0  0  0  0
    9.5363   -5.2376    0.0000 C   0  0  0  0  0  0  0  0  0  0  0  0
  1  2  2  0  0  0  0
  2  3  1  0  0  0  0
  3  4  2  0  0  0  0
  4  5  1  0  0  0  0
  5  6  2  0  0  0  0
  6  1  1  0  0  0  0
  4  7  1  0  0  0  0
  7  8  1  0  0  0  0
  8  9  1  0  0  0  0
  9 10  1  0  0  0  0
 10  5  1  0  0  0  0
  9 11  1  0  0  0  0
 11 12  1  0  0  0  0
 11 13  2  0  0  0  0
 13 14  1  0  0  0  0
 14 15  2  0  0  0  0
 15 16  1  0  0  0  0
 16 12  2  0  0  0  0
  7 17  2  0  0  0  0
  3 18  1  0  0  0  0
  1 19  1  0  0  0  0
  2 20  1  0  0  0  0
 20 21  1  0  0  0  0
 15 22  1  0  0  0  0
 22 23  1  0  0  0  0
M  END
>  <cdx:fragmentId>
5

$$$$
