50569.cdx
  Mrv1902 05222410272D          

 13 12  0  0  0  0            999 V2000
   10.1942   -7.0939    0.0000 C   0  0  0  0  0  0  0  0  0  0  0  0
    9.4797   -6.6814    0.0000 C   0  0  0  0  0  0  0  0  0  0  0  0
    8.7653   -7.0939    0.0000 C   0  0  0  0  0  0  0  0  0  0  0  0
    8.0508   -6.6814    0.0000 C   0  0  0  0  0  0  0  0  0  0  0  0
    7.3363   -7.0939    0.0000 C   0  0  0  0  0  0  0  0  0  0  0  0
    6.6219   -6.6814    0.0000 C   0  0  0  0  0  0  0  0  0  0  0  0
    5.9074   -7.0939    0.0000 C   0  0  0  0  0  0  0  0  0  0  0  0
    5.1929   -6.6814    0.0000 C   0  0  0  0  0  0  0  0  0  0  0  0
    4.4784   -7.0939    0.0000 C   0  0  0  0  0  0  0  0  0  0  0  0
    3.7640   -6.6814    0.0000 C   0  0  0  0  0  0  0  0  0  0  0  0
    3.0495   -7.0939    0.0000 C   0  0  0  0  0  0  0  0  0  0  0  0
    2.3350   -6.6814    0.0000 C   0  0  0  0  0  0  0  0  0  0  0  0
    3.0495   -7.9189    0.0000 O   0  0  0  0  0  0  0  0  0  0  0  0
  2  1  1  0  0  0  0
  3  2  1  0  0  0  0
  4  3  2  0  0  0  0
  5  4  1  0  0  0  0
  6  5  1  0  0  0  0
  7  6  1  0  0  0  0
  8  7  2  0  0  0  0
  9  8  1  0  0  0  0
 10  9  1  0  0  0  0
 11 10  1  0  0  0  0
 12 11  1  0  0  0  0
 11 13  2  0  0  0  0
M  END
>  <cdx:fragmentId>
3

$$$$
