50566.cdx
  Mrv1902 05222410202D          

 16 17  0  0  0  0            999 V2000
    5.1818   -6.1589    0.0000 C   0  0  0  0  0  0  0  0  0  0  0  0
    5.1818   -6.9839    0.0000 C   0  0  0  0  0  0  0  0  0  0  0  0
    5.8963   -7.3964    0.0000 C   0  0  0  0  0  0  0  0  0  0  0  0
    6.6107   -6.9839    0.0000 C   0  0  0  0  0  0  0  0  0  0  0  0
    6.6107   -6.1589    0.0000 C   0  0  0  0  0  0  0  0  0  0  0  0
    5.8963   -5.7464    0.0000 C   0  0  0  0  0  0  0  0  0  0  0  0
    7.3252   -7.3964    0.0000 C   0  0  0  0  0  0  0  0  0  0  0  0
    8.0397   -6.9839    0.0000 C   0  0  0  0  0  0  0  0  0  0  0  0
    8.0397   -6.1589    0.0000 C   0  0  0  0  0  0  0  0  0  0  0  0
    7.3252   -5.7464    0.0000 O   0  0  0  0  0  0  0  0  0  0  0  0
    7.3252   -8.2214    0.0000 O   0  0  0  0  0  0  0  0  0  0  0  0
    5.8963   -8.2214    0.0000 O   0  0  0  0  0  0  0  0  0  0  0  0
    4.4673   -5.7464    0.0000 O   0  0  0  0  0  0  0  0  0  0  0  0
    5.1818   -8.6339    0.0000 C   0  0  0  0  0  0  0  0  0  0  0  0
    3.7529   -6.1589    0.0000 C   0  0  0  0  0  0  0  0  0  0  0  0
    8.7542   -5.7464    0.0000 C   0  0  0  0  0  0  0  0  0  0  0  0
  1  2  2  0  0  0  0
  2  3  1  0  0  0  0
  3  4  2  0  0  0  0
  4  5  1  0  0  0  0
  5  6  2  0  0  0  0
  6  1  1  0  0  0  0
  4  7  1  0  0  0  0
  7  8  1  0  0  0  0
  8  9  2  0  0  0  0
  9 10  1  0  0  0  0
 10  5  1  0  0  0  0
  7 11  2  0  0  0  0
  3 12  1  0  0  0  0
  1 13  1  0  0  0  0
 12 14  1  0  0  0  0
 13 15  1  0  0  0  0
  9 16  1  0  0  0  0
M  END
>  <cdx:fragmentId>
5

$$$$
