50568.cdx
  Mrv1902 05222410262D          

 33 36  0  0  0  0            999 V2000
    5.8693   -6.5851    0.0000 C   0  0  0  0  0  0  0  0  0  0  0  0
    5.8693   -7.4101    0.0000 C   0  0  0  0  0  0  0  0  0  0  0  0
    6.5838   -7.8226    0.0000 C   0  0  0  0  0  0  0  0  0  0  0  0
    7.2982   -7.4101    0.0000 C   0  0  0  0  0  0  0  0  0  0  0  0
    7.2982   -6.5851    0.0000 C   0  0  0  0  0  0  0  0  0  0  0  0
    6.5838   -6.1726    0.0000 C   0  0  0  0  0  0  0  0  0  0  0  0
    8.0127   -7.8226    0.0000 C   0  0  0  0  0  0  0  0  0  0  0  0
    8.7272   -7.4101    0.0000 C   0  0  0  0  0  0  0  0  0  0  0  0
    8.7272   -6.5851    0.0000 C   0  0  0  0  0  0  0  0  0  0  0  0
    8.0127   -6.1726    0.0000 O   0  0  0  0  0  0  0  0  0  0  0  0
    9.4417   -6.1726    0.0000 C   0  0  0  0  0  0  0  0  0  0  0  0
    9.4417   -5.3476    0.0000 C   0  0  0  0  0  0  0  0  0  0  0  0
   10.1561   -6.5851    0.0000 C   0  0  0  0  0  0  0  0  0  0  0  0
   10.8706   -6.1726    0.0000 C   0  0  0  0  0  0  0  0  0  0  0  0
   10.8706   -5.3476    0.0000 C   0  0  0  0  0  0  0  0  0  0  0  0
   10.1561   -4.9351    0.0000 C   0  0  0  0  0  0  0  0  0  0  0  0
    8.0127   -8.6476    0.0000 O   0  0  0  0  0  0  0  0  0  0  0  0
    6.5838   -8.6476    0.0000 O   0  0  0  0  0  0  0  0  0  0  0  0
    5.1548   -6.1726    0.0000 O   0  0  0  0  0  0  0  0  0  0  0  0
    8.7272   -4.9351    0.0000 O   0  0  0  0  0  0  0  0  0  0  0  0
    4.4404   -6.5851    0.0000 C   0  0  2  0  0  0  0  0  0  0  0  0
    3.7259   -6.1726    0.0000 O   0  0  0  0  0  0  0  0  0  0  0  0
    3.0114   -6.5851    0.0000 C   0  0  1  0  0  0  0  0  0  0  0  0
    3.0114   -7.4101    0.0000 C   0  0  2  0  0  0  0  0  0  0  0  0
    3.7259   -7.8226    0.0000 C   0  0  1  0  0  0  0  0  0  0  0  0
    4.4404   -7.4101    0.0000 C   0  0  1  0  0  0  0  0  0  0  0  0
    3.7259   -8.6476    0.0000 O   0  0  0  0  0  0  0  0  0  0  0  0
    2.2969   -6.1726    0.0000 C   0  0  0  0  0  0  0  0  0  0  0  0
    5.1548   -7.8226    0.0000 O   0  0  0  0  0  0  0  0  0  0  0  0
    2.2969   -7.8226    0.0000 O   0  0  0  0  0  0  0  0  0  0  0  0
    1.5825   -6.5851    0.0000 O   0  0  0  0  0  0  0  0  0  0  0  0
    2.2969   -5.3476    0.0000 O   0  0  0  0  0  0  0  0  0  0  0  0
    6.5838   -5.3476    0.0000 O   0  0  0  0  0  0  0  0  0  0  0  0
  1  2  2  0  0  0  0
  2  3  1  0  0  0  0
  3  4  2  0  0  0  0
  4  5  1  0  0  0  0
  5  6  2  0  0  0  0
  6  1  1  0  0  0  0
  4  7  1  0  0  0  0
  7  8  1  0  0  0  0
  8  9  1  0  0  0  0
  9 10  1  0  0  0  0
 10  5  1  0  0  0  0
  9 11  1  0  0  0  0
 11 12  1  0  0  0  0
 11 13  2  0  0  0  0
 13 14  1  0  0  0  0
 14 15  2  0  0  0  0
 15 16  1  0  0  0  0
 16 12  2  0  0  0  0
  7 17  2  0  0  0  0
  3 18  1  0  0  0  0
  1 19  1  0  0  0  0
 12 20  1  0  0  0  0
 21 19  1  1  0  0  0
 21 22  1  0  0  0  0
 22 23  1  0  0  0  0
 23 24  1  0  0  0  0
 24 25  1  0  0  0  0
 25 26  1  0  0  0  0
 26 21  1  0  0  0  0
 25 27  1  1  0  0  0
 23 28  1  1  0  0  0
 26 29  1  6  0  0  0
 24 30  1  6  0  0  0
 28 31  1  0  0  0  0
 28 32  2  0  0  0  0
  6 33  1  0  0  0  0
M  END
>  <cdx:fragmentId>
5

$$$$
