50563.cdx
  Mrv1902 05222410182D          

 34 37  0  0  0  0            999 V2000
    4.2306   -6.4010    0.0000 O   0  0  0  0  0  0  0  0  0  0  0  0
    3.5157   -5.9893    0.0000 C   0  0  2  0  0  0  0  0  0  0  0  0
    7.0783   -9.7122    0.0000 O   0  0  0  0  0  0  0  0  0  0  0  0
    2.8017   -6.4025    0.0000 C   0  0  1  0  0  0  0  0  0  0  0  0
    2.8025   -7.2275    0.0000 C   0  0  2  0  0  0  0  0  0  0  0  0
    3.5174   -7.6393    0.0000 C   0  0  2  0  0  0  0  0  0  0  0  0
    4.2315   -7.2260    0.0000 C   0  0  2  0  0  0  0  0  0  0  0  0
    8.5118   -8.8951    0.0000 O   0  0  0  0  0  0  0  0  0  0  0  0
    8.5209   -7.2451    0.0000 O   0  0  0  0  0  0  0  0  0  0  0  0
    7.0829   -8.8872    0.0000 C   0  0  2  0  0  0  0  0  0  0  0  0
    7.7996   -8.4787    0.0000 C   0  0  2  0  0  0  0  0  0  0  0  0
    7.8042   -7.6537    0.0000 C   0  0  1  0  0  0  0  0  0  0  0  0
    7.0920   -7.2372    0.0000 O   0  0  0  0  0  0  0  0  0  0  0  0
    5.6539   -8.8792    0.0000 O   0  0  0  0  0  0  0  0  0  0  0  0
    6.3707   -8.4707    0.0000 C   0  0  2  0  0  0  0  0  0  0  0  0
    6.3753   -7.6457    0.0000 C   0  0  1  0  0  0  0  0  0  0  0  0
    5.6631   -7.2293    0.0000 C   0  0  0  0  0  0  0  0  0  0  0  0
    9.2354   -8.4826    0.0000 C   0  0  0  0  0  0  0  0  0  0  0  0
    9.2354   -7.6576    0.0000 C   0  0  0  0  0  0  0  0  0  0  0  0
    9.9499   -8.8951    0.0000 C   0  0  0  0  0  0  0  0  0  0  0  0
   10.6644   -8.4826    0.0000 C   0  0  0  0  0  0  0  0  0  0  0  0
   10.6644   -7.6576    0.0000 C   0  0  0  0  0  0  0  0  0  0  0  0
    9.9499   -7.2451    0.0000 C   0  0  0  0  0  0  0  0  0  0  0  0
   11.3788   -8.8951    0.0000 C   0  0  0  0  0  0  0  0  0  0  0  0
   12.0933   -8.4826    0.0000 C   0  0  0  0  0  0  0  0  0  0  0  0
   12.0933   -7.6576    0.0000 C   0  0  0  0  0  0  0  0  0  0  0  0
   11.3788   -7.2451    0.0000 O   0  0  0  0  0  0  0  0  0  0  0  0
    9.9499   -9.7201    0.0000 O   0  0  0  0  0  0  0  0  0  0  0  0
   11.3788   -9.7201    0.0000 O   0  0  0  0  0  0  0  0  0  0  0  0
    3.5183   -8.4643    0.0000 O   0  0  0  0  0  0  0  0  0  0  0  0
    4.9463   -7.6378    0.0000 O   0  0  0  0  0  0  0  0  0  0  0  0
    3.5149   -5.1643    0.0000 C   0  0  0  0  0  0  0  0  0  0  0  0
    2.0885   -7.6407    0.0000 O   0  0  0  0  0  0  0  0  0  0  0  0
    2.0868   -5.9907    0.0000 O   0  0  0  0  0  0  0  0  0  0  0  0
 10  3  1  1  0  0  0
 11  8  1  6  0  0  0
 12  9  1  1  0  0  0
 10 15  1  0  0  0  0
 11 10  1  0  0  0  0
 12 11  1  0  0  0  0
 13 12  1  0  0  0  0
 16 13  1  0  0  0  0
 15 14  1  6  0  0  0
 16 15  1  0  0  0  0
 16 17  1  1  0  0  0
  1  2  1  0  0  0  0
 17 31  1  0  0  0  0
  2  4  1  0  0  0  0
  4  5  1  0  0  0  0
  5  6  1  0  0  0  0
  6  7  1  0  0  0  0
 18 19  2  0  0  0  0
 19  9  1  0  0  0  0
  7  1  1  0  0  0  0
 18 20  1  0  0  0  0
 20 21  2  0  0  0  0
 21 22  1  0  0  0  0
 22 23  2  0  0  0  0
 23 19  1  0  0  0  0
 21 24  1  0  0  0  0
 24 25  1  0  0  0  0
 25 26  2  0  0  0  0
 26 27  1  0  0  0  0
 27 22  1  0  0  0  0
 20 28  1  0  0  0  0
 24 29  2  0  0  0  0
  6 30  1  6  0  0  0
  7 31  1  1  0  0  0
  2 32  1  6  0  0  0
  5 33  1  6  0  0  0
  4 34  1  1  0  0  0
M  END
>  <cdx:fragmentId>
5

$$$$
