50564.cdx
  Mrv1902 05222410192D          

 24 26  0  0  0  0            999 V2000
    5.6483   -9.6022    0.0000 O   0  0  0  0  0  0  0  0  0  0  0  0
    7.0818   -8.7851    0.0000 O   0  0  0  0  0  0  0  0  0  0  0  0
    7.0909   -7.1351    0.0000 O   0  0  0  0  0  0  0  0  0  0  0  0
    5.6529   -8.7772    0.0000 C   0  0  2  0  0  0  0  0  0  0  0  0
    6.3696   -8.3687    0.0000 C   0  0  2  0  0  0  0  0  0  0  0  0
    6.3742   -7.5437    0.0000 C   0  0  1  0  0  0  0  0  0  0  0  0
    5.6620   -7.1272    0.0000 O   0  0  0  0  0  0  0  0  0  0  0  0
    4.2239   -8.7692    0.0000 O   0  0  0  0  0  0  0  0  0  0  0  0
    4.9407   -8.3607    0.0000 C   0  0  2  0  0  0  0  0  0  0  0  0
    4.9453   -7.5357    0.0000 C   0  0  1  0  0  0  0  0  0  0  0  0
    4.2331   -7.1193    0.0000 C   0  0  0  0  0  0  0  0  0  0  0  0
    7.8054   -8.3726    0.0000 C   0  0  0  0  0  0  0  0  0  0  0  0
    7.8054   -7.5476    0.0000 C   0  0  0  0  0  0  0  0  0  0  0  0
    8.5199   -8.7851    0.0000 C   0  0  0  0  0  0  0  0  0  0  0  0
    9.2344   -8.3726    0.0000 C   0  0  0  0  0  0  0  0  0  0  0  0
    9.2344   -7.5476    0.0000 C   0  0  0  0  0  0  0  0  0  0  0  0
    8.5199   -7.1351    0.0000 C   0  0  0  0  0  0  0  0  0  0  0  0
    9.9488   -8.7851    0.0000 C   0  0  0  0  0  0  0  0  0  0  0  0
   10.6633   -8.3726    0.0000 C   0  0  0  0  0  0  0  0  0  0  0  0
   10.6633   -7.5476    0.0000 C   0  0  0  0  0  0  0  0  0  0  0  0
    9.9488   -7.1351    0.0000 O   0  0  0  0  0  0  0  0  0  0  0  0
    8.5199   -9.6101    0.0000 O   0  0  0  0  0  0  0  0  0  0  0  0
    9.9488   -9.6101    0.0000 O   0  0  0  0  0  0  0  0  0  0  0  0
    3.5163   -7.5278    0.0000 O   0  0  0  0  0  0  0  0  0  0  0  0
  4  1  1  1  0  0  0
  5  2  1  6  0  0  0
  6  3  1  1  0  0  0
  4  9  1  0  0  0  0
  5  4  1  0  0  0  0
  6  5  1  0  0  0  0
  7  6  1  0  0  0  0
 10  7  1  0  0  0  0
  9  8  1  6  0  0  0
 10  9  1  0  0  0  0
 10 11  1  1  0  0  0
 11 24  1  0  0  0  0
 12 13  2  0  0  0  0
 13  3  1  0  0  0  0
 12 14  1  0  0  0  0
 14 15  2  0  0  0  0
 15 16  1  0  0  0  0
 16 17  2  0  0  0  0
 17 13  1  0  0  0  0
 15 18  1  0  0  0  0
 18 19  1  0  0  0  0
 19 20  2  0  0  0  0
 20 21  1  0  0  0  0
 21 16  1  0  0  0  0
 14 22  1  0  0  0  0
 18 23  2  0  0  0  0
M  END
>  <cdx:fragmentId>
143

$$$$
