50575.cdx
  Mrv1902 05222410182D          

 26 28  0  0  0  0            999 V2000
    3.3118   -7.2726    0.0000 C   0  0  0  0  0  0  0  0  0  0  0  0
    3.3118   -8.0976    0.0000 C   0  0  0  0  0  0  0  0  0  0  0  0
    4.0263   -8.5101    0.0000 C   0  0  0  0  0  0  0  0  0  0  0  0
    4.7407   -8.0976    0.0000 C   0  0  0  0  0  0  0  0  0  0  0  0
    4.7407   -7.2726    0.0000 C   0  0  0  0  0  0  0  0  0  0  0  0
    4.0263   -6.8601    0.0000 C   0  0  0  0  0  0  0  0  0  0  0  0
    5.4552   -8.5101    0.0000 C   0  0  0  0  0  0  0  0  0  0  0  0
    6.1697   -8.0976    0.0000 C   0  0  0  0  0  0  0  0  0  0  0  0
    6.1697   -7.2726    0.0000 C   0  0  0  0  0  0  0  0  0  0  0  0
    5.4552   -6.8601    0.0000 O   0  0  0  0  0  0  0  0  0  0  0  0
    6.8842   -6.8601    0.0000 C   0  0  0  0  0  0  0  0  0  0  0  0
    6.8842   -6.0351    0.0000 C   0  0  0  0  0  0  0  0  0  0  0  0
    7.5986   -7.2726    0.0000 C   0  0  0  0  0  0  0  0  0  0  0  0
    8.3131   -6.8601    0.0000 C   0  0  0  0  0  0  0  0  0  0  0  0
    8.3131   -6.0351    0.0000 C   0  0  0  0  0  0  0  0  0  0  0  0
    7.5986   -5.6226    0.0000 C   0  0  0  0  0  0  0  0  0  0  0  0
    5.4552   -9.3351    0.0000 O   0  0  0  0  0  0  0  0  0  0  0  0
    4.0263   -9.3351    0.0000 O   0  0  0  0  0  0  0  0  0  0  0  0
    6.8842   -8.5101    0.0000 O   0  0  0  0  0  0  0  0  0  0  0  0
    6.8842   -9.3351    0.0000 C   0  0  0  0  0  0  0  0  0  0  0  0
    2.5973   -6.8601    0.0000 O   0  0  0  0  0  0  0  0  0  0  0  0
    1.8829   -7.2726    0.0000 C   0  0  0  0  0  0  0  0  0  0  0  0
    7.5986   -4.7976    0.0000 O   0  0  0  0  0  0  0  0  0  0  0  0
    8.3131   -4.3851    0.0000 C   0  0  0  0  0  0  0  0  0  0  0  0
    9.0276   -5.6226    0.0000 O   0  0  0  0  0  0  0  0  0  0  0  0
    9.7420   -6.0351    0.0000 C   0  0  0  0  0  0  0  0  0  0  0  0
  1  2  2  0  0  0  0
  2  3  1  0  0  0  0
  3  4  2  0  0  0  0
  4  5  1  0  0  0  0
  5  6  2  0  0  0  0
  6  1  1  0  0  0  0
  4  7  1  0  0  0  0
  7  8  1  0  0  0  0
  8  9  1  0  0  0  0
  9 10  1  0  0  0  0
 10  5  1  0  0  0  0
  9 11  1  0  0  0  0
 11 12  1  0  0  0  0
 11 13  2  0  0  0  0
 13 14  1  0  0  0  0
 14 15  2  0  0  0  0
 15 16  1  0  0  0  0
 16 12  2  0  0  0  0
  7 17  2  0  0  0  0
  3 18  1  0  0  0  0
  8 19  1  0  0  0  0
 19 20  1  0  0  0  0
  1 21  1  0  0  0  0
 21 22  1  0  0  0  0
 16 23  1  0  0  0  0
 23 24  1  0  0  0  0
 15 25  1  0  0  0  0
 25 26  1  0  0  0  0
M  END
>  <cdx:fragmentId>
5

$$$$
