50570.cdx
  Mrv1902 05222410192D          

 13 14  0  0  0  0            999 V2000
    6.8456   -9.1289    0.0000 C   0  0  0  0  0  0  0  0  0  0  0  0
    6.8456   -9.9539    0.0000 C   0  0  0  0  0  0  0  0  0  0  0  0
    7.5600  -10.3664    0.0000 C   0  0  0  0  0  0  0  0  0  0  0  0
    8.2745   -9.9539    0.0000 C   0  0  0  0  0  0  0  0  0  0  0  0
    8.2745   -9.1289    0.0000 C   0  0  0  0  0  0  0  0  0  0  0  0
    7.5600   -8.7164    0.0000 C   0  0  0  0  0  0  0  0  0  0  0  0
    9.0591  -10.2088    0.0000 O   0  0  0  0  0  0  0  0  0  0  0  0
    9.5440   -9.5414    0.0000 C   0  0  0  0  0  0  0  0  0  0  0  0
    9.0591   -8.8740    0.0000 C   0  0  0  0  0  0  0  0  0  0  0  0
    6.1311   -8.7164    0.0000 C   0  0  0  0  0  0  0  0  0  0  0  0
    5.4166   -9.1289    0.0000 C   0  0  0  0  0  0  0  0  0  0  0  0
    4.7021   -8.7164    0.0000 O   0  0  0  0  0  0  0  0  0  0  0  0
    5.4166   -9.9539    0.0000 O   0  0  0  0  0  0  0  0  0  0  0  0
  1  2  1  0  0  0  0
  2  3  2  0  0  0  0
  3  4  1  0  0  0  0
  4  5  2  0  0  0  0
  5  6  1  0  0  0  0
  6  1  2  0  0  0  0
  4  7  1  0  0  0  0
  7  8  1  0  0  0  0
  8  9  2  0  0  0  0
  9  5  1  0  0  0  0
  1 10  1  0  0  0  0
 10 11  1  0  0  0  0
 11 12  1  0  0  0  0
 11 13  2  0  0  0  0
M  END
>  <cdx:fragmentId>
5

$$$$
