50576.cdx
  Mrv1902 05222410182D          

 27 29  0  0  0  0            999 V2000
    7.2426   -8.2683    0.0000 C   0  0  0  0  0  0  0  0  0  0  0  0
    7.2412   -9.0933    0.0000 C   0  0  0  0  0  0  0  0  0  0  0  0
    7.9550   -9.5070    0.0000 C   0  0  0  0  0  0  0  0  0  0  0  0
    7.9535  -10.3320    0.0000 C   0  0  0  0  0  0  0  0  0  0  0  0
    7.2384  -10.7433    0.0000 C   0  0  0  0  0  0  0  0  0  0  0  0
    6.5246  -10.3295    0.0000 C   0  0  0  0  0  0  0  0  0  0  0  0
    6.5260   -9.5045    0.0000 C   0  0  0  0  0  0  0  0  0  0  0  0
    6.5289   -7.8545    0.0000 C   0  0  0  0  0  0  0  0  0  0  0  0
    8.6659  -11.5707    0.0000 C   0  0  0  0  0  0  0  0  0  0  0  0
    5.8094  -10.7408    0.0000 O   0  0  0  0  0  0  0  0  0  0  0  0
    7.9635   -4.5570    0.0000 C   0  0  0  0  0  0  0  0  0  0  0  0
    7.9621   -5.3820    0.0000 O   0  0  0  0  0  0  0  0  0  0  0  0
    5.8165   -6.6158    0.0000 C   0  0  0  0  0  0  0  0  0  0  0  0
    5.8180   -5.7908    0.0000 C   0  0  0  0  0  0  0  0  0  0  0  0
    6.5331   -5.3795    0.0000 C   0  0  0  0  0  0  0  0  0  0  0  0
    7.2469   -5.7933    0.0000 C   0  0  0  0  0  0  0  0  0  0  0  0
    8.6673  -10.7457    0.0000 O   0  0  0  0  0  0  0  0  0  0  0  0
    7.2455   -6.6183    0.0000 C   0  0  0  0  0  0  0  0  0  0  0  0
    6.5303   -7.0295    0.0000 C   0  0  0  0  0  0  0  0  0  0  0  0
    4.3762  -13.2133    0.0000 O   0  0  0  0  0  0  0  0  0  0  0  0
    5.8080  -11.5658    0.0000 C   0  0  0  0  0  0  0  0  0  0  0  0
    5.0928  -11.9771    0.0000 C   0  0  0  0  0  0  0  0  0  0  0  0
    5.0914  -12.8021    0.0000 C   0  0  0  0  0  0  0  0  0  0  0  0
    5.8052  -13.2158    0.0000 C   0  0  0  0  0  0  0  0  0  0  0  0
    6.5203  -12.8045    0.0000 C   0  0  0  0  0  0  0  0  0  0  0  0
    6.5218  -11.9795    0.0000 C   0  0  0  0  0  0  0  0  0  0  0  0
    7.2369  -11.5683    0.0000 C   0  0  0  0  0  0  0  0  0  0  0  0
 16 12  1  0  0  0  0
 12 11  1  0  0  0  0
 19 13  2  0  0  0  0
 14 13  1  0  0  0  0
 15 14  2  0  0  0  0
 16 15  1  0  0  0  0
 17  9  1  0  0  0  0
 18 16  2  0  0  0  0
 19 18  1  0  0  0  0
 23 20  1  0  0  0  0
 26 21  2  0  0  0  0
 22 21  1  0  0  0  0
 23 22  2  0  0  0  0
 24 23  1  0  0  0  0
 25 24  2  0  0  0  0
 26 25  1  0  0  0  0
 27 26  1  0  0  0  0
  1  2  1  0  0  0  0
  2  3  1  0  0  0  0
  3  4  2  0  0  0  0
  4  5  1  0  0  0  0
  5  6  2  0  0  0  0
  6  7  1  0  0  0  0
  2  7  2  0  0  0  0
  8 19  1  0  0  0  0
  1  8  1  0  0  0  0
  4 17  1  0  0  0  0
  5 27  1  0  0  0  0
  6 10  1  0  0  0  0
M  END
>  <cdx:fragmentId>
19

$$$$
