50573.cdx
  Mrv1902 05222410202D          

  8  8  0  0  0  0            999 V2000
    7.7157   -8.2971    0.0000 C   0  0  0  0  0  0  0  0  0  0  0  0
    7.9609   -7.5094    0.0000 C   0  0  0  0  0  0  0  0  0  0  0  0
    7.2875   -7.0328    0.0000 O   0  0  0  0  0  0  0  0  0  0  0  0
    6.6261   -7.5260    0.0000 C   0  0  0  0  0  0  0  0  0  0  0  0
    6.8908   -8.3074    0.0000 C   0  0  0  0  0  0  0  0  0  0  0  0
    8.7423   -7.2447    0.0000 O   0  0  0  0  0  0  0  0  0  0  0  0
    5.8384   -7.2808    0.0000 C   0  0  0  0  0  0  0  0  0  0  0  0
    5.2698   -7.8786    0.0000 O   0  0  0  0  0  0  0  0  0  0  0  0
  1  2  1  0  0  0  0
  2  3  1  0  0  0  0
  3  4  1  0  0  0  0
  4  5  1  0  0  0  0
  5  1  2  0  0  0  0
  2  6  2  0  0  0  0
  4  7  1  0  0  0  0
  7  8  1  0  0  0  0
M  END
>  <cdx:fragmentId>
5

$$$$
