50578.cdx
  Mrv1902 05222410272D          

 38 41  0  0  0  0            999 V2000
    7.8906   -6.9151    0.0000 C   0  0  0  0  0  0  0  0  0  0  0  0
    7.8906   -7.7401    0.0000 C   0  0  0  0  0  0  0  0  0  0  0  0
    8.6050   -8.1526    0.0000 C   0  0  0  0  0  0  0  0  0  0  0  0
    9.3195   -7.7401    0.0000 C   0  0  0  0  0  0  0  0  0  0  0  0
    9.3195   -6.9151    0.0000 C   0  0  0  0  0  0  0  0  0  0  0  0
    8.6050   -6.5026    0.0000 C   0  0  0  0  0  0  0  0  0  0  0  0
   10.0340   -8.1526    0.0000 C   0  0  0  0  0  0  0  0  0  0  0  0
   10.7484   -7.7401    0.0000 C   0  0  0  0  0  0  0  0  0  0  0  0
   10.7484   -6.9151    0.0000 C   0  0  0  0  0  0  0  0  0  0  0  0
   10.0340   -6.5026    0.0000 O   0  0  0  0  0  0  0  0  0  0  0  0
   10.0340   -8.9776    0.0000 O   0  0  0  0  0  0  0  0  0  0  0  0
   11.4629   -8.9776    0.0000 C   0  0  0  0  0  0  0  0  0  0  0  0
   11.4629   -8.1526    0.0000 C   0  0  0  0  0  0  0  0  0  0  0  0
   12.1774   -9.3901    0.0000 C   0  0  0  0  0  0  0  0  0  0  0  0
   12.8919   -8.9776    0.0000 C   0  0  0  0  0  0  0  0  0  0  0  0
   12.8919   -8.1526    0.0000 C   0  0  0  0  0  0  0  0  0  0  0  0
   12.1774   -7.7401    0.0000 C   0  0  0  0  0  0  0  0  0  0  0  0
    8.6050   -8.9776    0.0000 O   0  0  0  0  0  0  0  0  0  0  0  0
   13.6063   -9.3901    0.0000 O   0  0  0  0  0  0  0  0  0  0  0  0
   13.6063  -10.2151    0.0000 C   0  0  0  0  0  0  0  0  0  0  0  0
    7.1761   -6.5026    0.0000 O   0  0  0  0  0  0  0  0  0  0  0  0
    5.0443   -6.9289    0.0000 C   0  0  2  0  0  0  0  0  0  0  0  0
    5.0443   -7.7539    0.0000 C   0  0  2  0  0  0  0  0  0  0  0  0
    5.7588   -8.1664    0.0000 C   0  0  1  0  0  0  0  0  0  0  0  0
    6.4732   -7.7539    0.0000 C   0  0  2  0  0  0  0  0  0  0  0  0
    6.4732   -6.9289    0.0000 C   0  0  1  0  0  0  0  0  0  0  0  0
    5.7588   -6.5164    0.0000 O   0  0  0  0  0  0  0  0  0  0  0  0
    4.3298   -6.5164    0.0000 C   0  0  0  0  0  0  0  0  0  0  0  0
    5.7588   -8.9914    0.0000 O   0  0  0  0  0  0  0  0  0  0  0  0
    7.1877   -8.1664    0.0000 O   0  0  0  0  0  0  0  0  0  0  0  0
    4.3298   -8.1664    0.0000 O   0  0  0  0  0  0  0  0  0  0  0  0
    3.6154   -6.9289    0.0000 O   0  0  0  0  0  0  0  0  0  0  0  0
    2.9009   -6.5164    0.0000 C   0  0  0  0  0  0  0  0  0  0  0  0
    2.1864   -6.9289    0.0000 C   0  0  0  0  0  0  0  0  0  0  0  0
    1.4719   -6.5164    0.0000 C   0  0  0  0  0  0  0  0  0  0  0  0
    0.7575   -6.9289    0.0000 O   0  0  0  0  0  0  0  0  0  0  0  0
    1.4719   -5.6914    0.0000 O   0  0  0  0  0  0  0  0  0  0  0  0
    2.9009   -5.6914    0.0000 O   0  0  0  0  0  0  0  0  0  0  0  0
  1  2  2  0  0  0  0
  2  3  1  0  0  0  0
  3  4  2  0  0  0  0
  4  5  1  0  0  0  0
  5  6  2  0  0  0  0
  6  1  1  0  0  0  0
  4  7  1  0  0  0  0
  7  8  1  0  0  0  0
  8  9  2  0  0  0  0
  9 10  1  0  0  0  0
 10  5  1  0  0  0  0
  7 11  2  0  0  0  0
 12 13  2  0  0  0  0
 13  8  1  0  0  0  0
 12 14  1  0  0  0  0
 14 15  2  0  0  0  0
 15 16  1  0  0  0  0
 16 17  2  0  0  0  0
 17 13  1  0  0  0  0
  3 18  1  0  0  0  0
 15 19  1  0  0  0  0
 19 20  1  0  0  0  0
  1 21  1  0  0  0  0
 22 23  1  0  0  0  0
 23 24  1  0  0  0  0
 24 25  1  0  0  0  0
 25 26  1  0  0  0  0
 26 27  1  0  0  0  0
 27 22  1  0  0  0  0
 22 28  1  1  0  0  0
 24 29  1  1  0  0  0
 25 30  1  6  0  0  0
 23 31  1  6  0  0  0
 28 32  1  0  0  0  0
 26 21  1  1  0  0  0
 32 33  1  0  0  0  0
 33 34  1  0  0  0  0
 34 35  1  0  0  0  0
 35 36  1  0  0  0  0
 35 37  2  0  0  0  0
 33 38  2  0  0  0  0
M  END
>  <cdx:fragmentId>
5

$$$$
