50572.cdx
  Mrv1902 05222410202D          

 21 22  0  0  0  0            999 V2000
    4.9343  -15.2064    0.0000 C   0  0  0  0  0  0  0  0  0  0  0  0
    4.9343  -16.0314    0.0000 C   0  0  0  0  0  0  0  0  0  0  0  0
    5.6488  -16.4439    0.0000 C   0  0  0  0  0  0  0  0  0  0  0  0
    6.3632  -16.0314    0.0000 C   0  0  0  0  0  0  0  0  0  0  0  0
    6.3632  -15.2064    0.0000 C   0  0  0  0  0  0  0  0  0  0  0  0
    5.6488  -14.7939    0.0000 C   0  0  0  0  0  0  0  0  0  0  0  0
    5.6461  -13.9569    0.0000 C   0  0  0  0  0  0  0  0  0  0  0  0
    6.3576  -13.5395    0.0000 C   0  0  0  0  0  0  0  0  0  0  0  0
    6.3519  -12.7145    0.0000 C   0  0  0  0  0  0  0  0  0  0  0  0
    7.0635  -12.2970    0.0000 C   0  0  0  0  0  0  0  0  0  0  0  0
    7.0577  -11.4720    0.0000 C   0  0  0  0  0  0  0  0  0  0  0  0
    7.7693  -11.0546    0.0000 C   0  0  0  0  0  0  0  0  0  0  0  0
    7.7636  -10.2296    0.0000 C   0  0  0  0  0  0  0  0  0  0  0  0
    8.4752   -9.8121    0.0000 C   0  0  0  0  0  0  0  0  0  0  0  0
    9.1953  -10.2147    0.0000 C   0  0  0  0  0  0  0  0  0  0  0  0
    9.9040   -9.7923    0.0000 C   0  0  0  0  0  0  0  0  0  0  0  0
    9.9040   -8.9673    0.0000 C   0  0  0  0  0  0  0  0  0  0  0  0
    9.1953   -8.5648    0.0000 C   0  0  0  0  0  0  0  0  0  0  0  0
    8.4752   -8.9872    0.0000 C   0  0  0  0  0  0  0  0  0  0  0  0
    5.6346  -12.3070    0.0000 O   0  0  0  0  0  0  0  0  0  0  0  0
    6.3404  -11.0645    0.0000 O   0  0  0  0  0  0  0  0  0  0  0  0
  1  2  2  0  0  0  0
  2  3  1  0  0  0  0
  3  4  2  0  0  0  0
  4  5  1  0  0  0  0
  5  6  2  0  0  0  0
  6  1  1  0  0  0  0
  7  8  2  0  0  0  0
  8  9  1  0  0  0  0
  9 10  1  0  0  0  0
 10 11  1  0  0  0  0
 11 12  1  0  0  0  0
 12 13  1  0  0  0  0
 13 14  1  0  0  0  0
  7  6  1  0  0  0  0
 14 15  2  0  0  0  0
 15 16  1  0  0  0  0
 16 17  2  0  0  0  0
 17 18  1  0  0  0  0
 18 19  2  0  0  0  0
 19 14  1  0  0  0  0
  9 20  1  0  0  0  0
 11 21  2  0  0  0  0
M  END
>  <cdx:fragmentId>
21

$$$$
