50579.cdx
  Mrv1902 05222410272D          

 21 24  0  0  0  0            999 V2000
    4.1093   -5.5401    0.0000 C   0  0  0  0  0  0  0  0  0  0  0  0
    4.1093   -6.3651    0.0000 C   0  0  0  0  0  0  0  0  0  0  0  0
    4.8238   -6.7776    0.0000 C   0  0  0  0  0  0  0  0  0  0  0  0
    5.5382   -6.3651    0.0000 C   0  0  0  0  0  0  0  0  0  0  0  0
    5.5382   -5.5401    0.0000 C   0  0  0  0  0  0  0  0  0  0  0  0
    4.8238   -5.1276    0.0000 C   0  0  0  0  0  0  0  0  0  0  0  0
    6.2527   -6.7776    0.0000 C   0  0  0  0  0  0  0  0  0  0  0  0
    6.9672   -6.3651    0.0000 C   0  0  0  0  0  0  0  0  0  0  0  0
    6.9672   -5.5401    0.0000 C   0  0  0  0  0  0  0  0  0  0  0  0
    6.2527   -5.1276    0.0000 O   0  0  0  0  0  0  0  0  0  0  0  0
    4.8238   -7.6026    0.0000 O   0  0  0  0  0  0  0  0  0  0  0  0
    6.2527   -7.6026    0.0000 O   0  0  0  0  0  0  0  0  0  0  0  0
    8.3961   -5.5401    0.0000 C   0  0  0  0  0  0  0  0  0  0  0  0
    7.6817   -5.1276    0.0000 C   0  0  0  0  0  0  0  0  0  0  0  0
    9.1106   -5.1276    0.0000 C   0  0  0  0  0  0  0  0  0  0  0  0
    9.1106   -4.3026    0.0000 C   0  0  0  0  0  0  0  0  0  0  0  0
    8.3961   -3.8901    0.0000 C   0  0  0  0  0  0  0  0  0  0  0  0
    7.6817   -4.3026    0.0000 C   0  0  0  0  0  0  0  0  0  0  0  0
    3.3247   -5.2852    0.0000 O   0  0  0  0  0  0  0  0  0  0  0  0
    2.8398   -5.9526    0.0000 C   0  0  0  0  0  0  0  0  0  0  0  0
    3.3247   -6.6201    0.0000 O   0  0  0  0  0  0  0  0  0  0  0  0
  1  2  1  0  0  0  0
  2  3  2  0  0  0  0
  3  4  1  0  0  0  0
  4  5  2  0  0  0  0
  5  6  1  0  0  0  0
  6  1  2  0  0  0  0
  4  7  1  0  0  0  0
  7  8  1  0  0  0  0
  8  9  2  0  0  0  0
  9 10  1  0  0  0  0
 10  5  1  0  0  0  0
  3 11  1  0  0  0  0
 12  7  2  0  0  0  0
 13 14  1  0  0  0  0
 14  9  1  0  0  0  0
 13 15  2  0  0  0  0
 15 16  1  0  0  0  0
 16 17  2  0  0  0  0
 17 18  1  0  0  0  0
 18 14  2  0  0  0  0
  1 19  1  0  0  0  0
 19 20  1  0  0  0  0
 20 21  1  0  0  0  0
 21  2  1  0  0  0  0
M  END
>  <cdx:fragmentId>
5

$$$$
