50580.cdx
  Mrv1902 05222410262D          

 36 39  0  0  0  0            999 V2000
    5.3881   -6.0214    0.0000 C   0  0  0  0  0  0  0  0  0  0  0  0
    5.3881   -6.8464    0.0000 C   0  0  0  0  0  0  0  0  0  0  0  0
    6.1025   -7.2589    0.0000 C   0  0  0  0  0  0  0  0  0  0  0  0
    6.8170   -6.8464    0.0000 C   0  0  0  0  0  0  0  0  0  0  0  0
    6.8170   -6.0214    0.0000 C   0  0  0  0  0  0  0  0  0  0  0  0
    6.1025   -5.6089    0.0000 C   0  0  0  0  0  0  0  0  0  0  0  0
    7.5315   -7.2589    0.0000 C   0  0  0  0  0  0  0  0  0  0  0  0
    8.2459   -6.8464    0.0000 C   0  0  0  0  0  0  0  0  0  0  0  0
    8.2459   -6.0214    0.0000 C   0  0  0  0  0  0  0  0  0  0  0  0
    7.5315   -5.6089    0.0000 O   0  0  0  0  0  0  0  0  0  0  0  0
    9.6749   -6.0214    0.0000 C   0  0  0  0  0  0  0  0  0  0  0  0
    8.9604   -5.6089    0.0000 C   0  0  0  0  0  0  0  0  0  0  0  0
   10.3894   -5.6089    0.0000 C   0  0  0  0  0  0  0  0  0  0  0  0
   10.3894   -4.7839    0.0000 C   0  0  0  0  0  0  0  0  0  0  0  0
    9.6749   -4.3714    0.0000 C   0  0  0  0  0  0  0  0  0  0  0  0
    8.9604   -4.7839    0.0000 C   0  0  0  0  0  0  0  0  0  0  0  0
    7.5315   -8.0839    0.0000 O   0  0  0  0  0  0  0  0  0  0  0  0
    6.1025   -8.0839    0.0000 O   0  0  0  0  0  0  0  0  0  0  0  0
    4.6736   -7.2589    0.0000 O   0  0  0  0  0  0  0  0  0  0  0  0
    4.6736   -8.0839    0.0000 C   0  0  0  0  0  0  0  0  0  0  0  0
    6.1025   -4.7839    0.0000 O   0  0  0  0  0  0  0  0  0  0  0  0
    5.3881   -4.3714    0.0000 C   0  0  0  0  0  0  0  0  0  0  0  0
   11.1038   -4.3714    0.0000 O   0  0  0  0  0  0  0  0  0  0  0  0
   11.8183   -4.7839    0.0000 C   0  0  0  0  0  0  0  0  0  0  0  0
    4.6736   -5.6089    0.0000 O   0  0  0  0  0  0  0  0  0  0  0  0
    3.8486   -5.6104    0.0000 C   0  0  2  0  0  0  0  0  0  0  0  0
    3.4348   -4.8967    0.0000 O   0  0  0  0  0  0  0  0  0  0  0  0
    2.6098   -4.8982    0.0000 C   0  0  1  0  0  0  0  0  0  0  0  0
    2.1986   -5.6134    0.0000 C   0  0  2  0  0  0  0  0  0  0  0  0
    2.6124   -6.3271    0.0000 C   0  0  1  0  0  0  0  0  0  0  0  0
    3.4374   -6.3256    0.0000 C   0  0  1  0  0  0  0  0  0  0  0  0
    2.2012   -7.0423    0.0000 O   0  0  0  0  0  0  0  0  0  0  0  0
    2.1960   -4.1844    0.0000 C   0  0  0  0  0  0  0  0  0  0  0  0
    3.8512   -7.0393    0.0000 O   0  0  0  0  0  0  0  0  0  0  0  0
    1.3736   -5.6149    0.0000 O   0  0  0  0  0  0  0  0  0  0  0  0
    1.3710   -4.1844    0.0000 O   0  0  0  0  0  0  0  0  0  0  0  0
  1  2  2  0  0  0  0
  2  3  1  0  0  0  0
  3  4  2  0  0  0  0
  4  5  1  0  0  0  0
  5  6  2  0  0  0  0
  6  1  1  0  0  0  0
  4  7  1  0  0  0  0
  7  8  1  0  0  0  0
  8  9  2  0  0  0  0
  9 10  1  0  0  0  0
 10  5  1  0  0  0  0
 11 12  2  0  0  0  0
 12  9  1  0  0  0  0
 11 13  1  0  0  0  0
 13 14  2  0  0  0  0
 14 15  1  0  0  0  0
 15 16  2  0  0  0  0
 16 12  1  0  0  0  0
  7 17  2  0  0  0  0
  3 18  1  0  0  0  0
  2 19  1  0  0  0  0
 19 20  1  0  0  0  0
  6 21  1  0  0  0  0
 21 22  1  0  0  0  0
 14 23  1  0  0  0  0
 23 24  1  0  0  0  0
  1 25  1  0  0  0  0
 26 25  1  1  0  0  0
 26 27  1  0  0  0  0
 27 28  1  0  0  0  0
 28 29  1  0  0  0  0
 29 30  1  0  0  0  0
 30 31  1  0  0  0  0
 31 26  1  0  0  0  0
 30 32  1  1  0  0  0
 28 33  1  1  0  0  0
 31 34  1  6  0  0  0
 29 35  1  6  0  0  0
 33 36  1  0  0  0  0
M  END
>  <cdx:fragmentId>
5

$$$$
