50581.cdx
  Mrv1902 05222410262D          

 19 21  0  0  0  0            999 V2000
    4.3431   -6.8601    0.0000 C   0  0  0  0  0  0  0  0  0  0  0  0
    4.3431   -7.6851    0.0000 C   0  0  0  0  0  0  0  0  0  0  0  0
    5.0575   -8.0976    0.0000 C   0  0  0  0  0  0  0  0  0  0  0  0
    5.7720   -7.6851    0.0000 C   0  0  0  0  0  0  0  0  0  0  0  0
    5.7720   -6.8601    0.0000 C   0  0  0  0  0  0  0  0  0  0  0  0
    5.0575   -6.4476    0.0000 C   0  0  0  0  0  0  0  0  0  0  0  0
    6.4865   -8.0976    0.0000 C   0  0  0  0  0  0  0  0  0  0  0  0
    7.2009   -7.6851    0.0000 C   0  0  0  0  0  0  0  0  0  0  0  0
    7.2009   -6.8601    0.0000 C   0  0  0  0  0  0  0  0  0  0  0  0
    6.4865   -6.4476    0.0000 O   0  0  0  0  0  0  0  0  0  0  0  0
    8.6299   -6.8601    0.0000 C   0  0  0  0  0  0  0  0  0  0  0  0
    7.9154   -6.4476    0.0000 C   0  0  0  0  0  0  0  0  0  0  0  0
    9.3444   -6.4476    0.0000 C   0  0  0  0  0  0  0  0  0  0  0  0
    9.3444   -5.6226    0.0000 C   0  0  0  0  0  0  0  0  0  0  0  0
    8.6299   -5.2101    0.0000 C   0  0  0  0  0  0  0  0  0  0  0  0
    7.9154   -5.6226    0.0000 C   0  0  0  0  0  0  0  0  0  0  0  0
    5.0575   -8.9226    0.0000 O   0  0  0  0  0  0  0  0  0  0  0  0
    3.6286   -6.4476    0.0000 O   0  0  0  0  0  0  0  0  0  0  0  0
    2.9141   -6.8601    0.0000 C   0  0  0  0  0  0  0  0  0  0  0  0
  1  2  1  0  0  0  0
  2  3  2  0  0  0  0
  3  4  1  0  0  0  0
  4  5  2  0  0  0  0
  5  6  1  0  0  0  0
  6  1  2  0  0  0  0
  4  7  1  0  0  0  0
  7  8  1  0  0  0  0
  8  9  1  0  0  0  0
  9 10  1  0  0  0  0
 10  5  1  0  0  0  0
 11 12  2  0  0  0  0
 12  9  1  0  0  0  0
 11 13  1  0  0  0  0
 13 14  2  0  0  0  0
 14 15  1  0  0  0  0
 15 16  2  0  0  0  0
 16 12  1  0  0  0  0
  3 17  1  0  0  0  0
  1 18  1  0  0  0  0
 18 19  1  0  0  0  0
M  END
>  <cdx:fragmentId>
5

$$$$
