50589.cdx
  Mrv1902 05222410182D          

 26 29  0  0  0  0            999 V2000
    2.8856   -6.4201    0.0000 C   0  0  0  0  0  0  0  0  0  0  0  0
    4.3145   -7.2451    0.0000 C   0  0  0  0  0  0  0  0  0  0  0  0
    4.3145   -6.4201    0.0000 C   0  0  0  0  0  0  0  0  0  0  0  0
    3.6000   -6.0076    0.0000 C   0  0  0  0  0  0  0  0  0  0  0  0
    5.0290   -7.6576    0.0000 C   0  0  0  0  0  0  0  0  0  0  0  0
    5.7434   -7.2451    0.0000 C   0  0  0  0  0  0  0  0  0  0  0  0
    5.7434   -6.4201    0.0000 C   0  0  0  0  0  0  0  0  0  0  0  0
    5.0290   -6.0076    0.0000 C   0  0  0  0  0  0  0  0  0  0  0  0
    6.5281   -7.5001    0.0000 O   0  0  0  0  0  0  0  0  0  0  0  0
    7.0130   -6.8326    0.0000 C   0  0  2  0  0  0  0  0  0  0  0  0
    6.5281   -6.1652    0.0000 C   0  0  2  0  0  0  0  0  0  0  0  0
    7.8380   -6.8326    0.0000 C   0  0  0  0  0  0  0  0  0  0  0  0
    8.2505   -7.5471    0.0000 C   0  0  0  0  0  0  0  0  0  0  0  0
    9.0755   -7.5471    0.0000 C   0  0  0  0  0  0  0  0  0  0  0  0
    9.4880   -6.8326    0.0000 C   0  0  0  0  0  0  0  0  0  0  0  0
    9.0755   -6.1182    0.0000 C   0  0  0  0  0  0  0  0  0  0  0  0
    8.2505   -6.1182    0.0000 C   0  0  0  0  0  0  0  0  0  0  0  0
    2.1711   -6.0076    0.0000 C   0  0  0  0  0  0  0  0  0  0  0  0
    5.0290   -8.4826    0.0000 O   0  0  0  0  0  0  0  0  0  0  0  0
    4.3145   -8.8951    0.0000 C   0  0  0  0  0  0  0  0  0  0  0  0
    9.4880   -5.4037    0.0000 O   0  0  0  0  0  0  0  0  0  0  0  0
   10.3130   -5.4037    0.0000 C   0  0  0  0  0  0  0  0  0  0  0  0
    9.6275   -8.1602    0.0000 O   0  0  0  0  0  0  0  0  0  0  0  0
   10.3812   -7.8247    0.0000 C   0  0  0  0  0  0  0  0  0  0  0  0
   10.2950   -7.0042    0.0000 O   0  0  0  0  0  0  0  0  0  0  0  0
    6.7830   -5.3806    0.0000 C   0  0  0  0  0  0  0  0  0  0  0  0
  2  3  2  0  0  0  0
  3  4  1  0  0  0  0
  4  1  2  0  0  0  0
  2  5  1  0  0  0  0
  5  6  2  0  0  0  0
  6  7  1  0  0  0  0
  7  8  2  0  0  0  0
  8  3  1  0  0  0  0
  6  9  1  0  0  0  0
  9 10  1  0  0  0  0
 10 11  1  0  0  0  0
 11  7  1  0  0  0  0
 10 12  1  6  0  0  0
 12 13  2  0  0  0  0
 13 14  1  0  0  0  0
 14 15  2  0  0  0  0
 15 16  1  0  0  0  0
 16 17  2  0  0  0  0
 17 12  1  0  0  0  0
  1 18  1  0  0  0  0
  5 19  1  0  0  0  0
 19 20  1  0  0  0  0
 16 21  1  0  0  0  0
 21 22  1  0  0  0  0
 14 23  1  0  0  0  0
 23 24  1  0  0  0  0
 24 25  1  0  0  0  0
 25 15  1  0  0  0  0
 11 26  1  1  0  0  0
M  END
>  <cdx:fragmentId>
5

$$$$
