101505802.cdx
  Mrv1902 05222410232D          

 41 45  0  0  0  0            999 V2000
    5.8427   -5.3355    0.0000 C   0  0  0  0  0  0  0  0  0  0  0  0
    5.1283   -5.7480    0.0000 C   0  0  0  0  0  0  0  0  0  0  0  0
    5.1283   -6.5730    0.0000 C   0  0  0  0  0  0  0  0  0  0  0  0
    4.4138   -6.9855    0.0000 C   0  0  0  0  0  0  0  0  0  0  0  0
    3.6993   -6.5730    0.0000 C   0  0  0  0  0  0  0  0  0  0  0  0
    3.6993   -5.7480    0.0000 C   0  0  0  0  0  0  0  0  0  0  0  0
    4.4138   -5.3355    0.0000 C   0  0  0  0  0  0  0  0  0  0  0  0
    5.8427   -4.5105    0.0000 O   0  0  0  0  0  0  0  0  0  0  0  0
    6.5572   -5.7480    0.0000 O   0  0  0  0  0  0  0  0  0  0  0  0
    9.4151   -5.7480    0.0000 C   0  0  1  0  0  0  0  0  0  0  0  0
    8.7006   -5.3355    0.0000 C   0  0  0  0  0  0  0  0  0  0  0  0
    7.9862   -5.7480    0.0000 C   0  0  0  0  0  0  0  0  0  0  0  0
    7.9862   -6.5730    0.0000 C   0  0  1  0  0  0  0  0  0  0  0  0
    7.2717   -6.9855    0.0000 C   0  0  2  0  0  0  0  0  0  0  0  0
    7.2717   -7.8105    0.0000 C   0  0  1  0  0  0  0  0  0  0  0  0
    7.9862   -8.2230    0.0000 C   0  0  2  0  0  0  0  0  0  0  0  0
    8.7006   -7.8105    0.0000 C   0  0  1  0  0  0  0  0  0  0  0  0
    8.7006   -6.9855    0.0000 C   0  0  1  0  0  0  0  0  0  0  0  0
    9.4151   -6.5730    0.0000 O   0  0  0  0  0  0  0  0  0  0  0  0
    6.5572   -8.2230    0.0000 C   0  0  0  0  0  0  0  0  0  0  0  0
    5.8427   -7.8105    0.0000 C   0  0  0  0  0  0  0  0  0  0  0  0
    5.8427   -6.9855    0.0000 C   0  0  0  0  0  0  0  0  0  0  0  0
    6.5572   -6.5730    0.0000 C   0  0  1  0  0  0  0  0  0  0  0  0
   10.7208   -5.4705    0.0000 O   0  0  0  0  0  0  0  0  0  0  0  0
   10.3083   -4.7560    0.0000 C   0  0  0  0  0  0  0  0  0  0  0  0
    9.5013   -4.9275    0.0000 C   0  0  0  0  0  0  0  0  0  0  0  0
   10.1688   -6.0836    0.0000 C   0  0  0  0  0  0  0  0  0  0  0  0
   10.6439   -4.0023    0.0000 O   0  0  0  0  0  0  0  0  0  0  0  0
    7.9862   -7.3980    0.0000 C   0  0  0  0  0  0  0  0  0  0  0  0
    6.5572   -9.0480    0.0000 C   0  0  0  0  0  0  0  0  0  0  0  0
    7.2717   -8.6355    0.0000 C   0  0  0  0  0  0  0  0  0  0  0  0
    9.4151   -7.3980    0.0000 C   0  0  0  0  0  0  0  0  0  0  0  0
    7.9862   -9.0480    0.0000 O   0  0  0  0  0  0  0  0  0  0  0  0
    8.7006   -9.4605    0.0000 C   0  0  0  0  0  0  0  0  0  0  0  0
    8.7006  -10.2855    0.0000 O   0  0  0  0  0  0  0  0  0  0  0  0
    9.4151   -9.0480    0.0000 C   0  0  0  0  0  0  0  0  0  0  0  0
    9.4151   -8.2230    0.0000 O   0  0  0  0  0  0  0  0  0  0  0  0
   10.1296   -7.8105    0.0000 C   0  0  0  0  0  0  0  0  0  0  0  0
   10.1296   -6.9855    0.0000 O   0  0  0  0  0  0  0  0  0  0  0  0
   10.8440   -8.2230    0.0000 C   0  0  0  0  0  0  0  0  0  0  0  0
    7.2717   -6.1605    0.0000 H   0  0  0  0  0  0  0  0  0  0  0  0
  1  2  1  0  0  0  0
  2  3  1  0  0  0  0
  3  4  2  0  0  0  0
  4  5  1  0  0  0  0
  5  6  2  0  0  0  0
  6  7  1  0  0  0  0
  2  7  2  0  0  0  0
  1  8  2  0  0  0  0
  1  9  1  0  0  0  0
 10 11  1  0  0  0  0
 11 12  1  0  0  0  0
 12 13  1  0  0  0  0
 13 14  1  0  0  0  0
 14 15  1  0  0  0  0
 15 16  1  0  0  0  0
 16 17  1  0  0  0  0
 17 18  1  0  0  0  0
 13 18  1  0  0  0  0
 18 19  1  0  0  0  0
 10 19  1  0  0  0  0
 20 21  2  0  0  0  0
 21 22  1  0  0  0  0
 22 23  1  0  0  0  0
 23 14  1  0  0  0  0
 20 15  1  0  0  0  0
 24 25  1  0  0  0  0
 25 26  1  0  0  0  0
 24 27  1  0  0  0  0
 10 26  1  6  0  0  0
 10 27  1  1  0  0  0
 25 28  2  0  0  0  0
 13 29  1  1  0  0  0
 20 30  1  0  0  0  0
 15 31  1  6  0  0  0
 18 32  1  1  0  0  0
 34 35  2  0  0  0  0
 34 36  1  0  0  0  0
 33 34  1  0  0  0  0
 16 33  1  6  0  0  0
 38 39  2  0  0  0  0
 38 40  1  0  0  0  0
 37 38  1  0  0  0  0
 17 37  1  1  0  0  0
 23  9  1  1  0  0  0
 14 41  1  1  0  0  0
M  END
>  <cdx:groupId>
247648

>  <cdx:fragmentId>
247542

$$$$
