50582.cdx
  Mrv1902 05222410272D          

 24 26  0  0  0  0            999 V2000
    4.7418   -6.4614    0.0000 C   0  0  0  0  0  0  0  0  0  0  0  0
    4.7418   -7.2864    0.0000 C   0  0  0  0  0  0  0  0  0  0  0  0
    5.4563   -7.6989    0.0000 C   0  0  0  0  0  0  0  0  0  0  0  0
    6.1707   -7.2864    0.0000 C   0  0  0  0  0  0  0  0  0  0  0  0
    6.1707   -6.4614    0.0000 C   0  0  0  0  0  0  0  0  0  0  0  0
    5.4563   -6.0489    0.0000 C   0  0  0  0  0  0  0  0  0  0  0  0
    6.8852   -7.6989    0.0000 C   0  0  0  0  0  0  0  0  0  0  0  0
    7.5997   -7.2864    0.0000 C   0  0  0  0  0  0  0  0  0  0  0  0
    7.5997   -6.4614    0.0000 C   0  0  0  0  0  0  0  0  0  0  0  0
    6.8852   -6.0489    0.0000 O   0  0  0  0  0  0  0  0  0  0  0  0
    9.0286   -6.4614    0.0000 C   0  0  0  0  0  0  0  0  0  0  0  0
    8.3142   -6.0489    0.0000 C   0  0  0  0  0  0  0  0  0  0  0  0
    9.7431   -6.0489    0.0000 C   0  0  0  0  0  0  0  0  0  0  0  0
    9.7431   -5.2239    0.0000 C   0  0  0  0  0  0  0  0  0  0  0  0
    9.0286   -4.8114    0.0000 C   0  0  0  0  0  0  0  0  0  0  0  0
    8.3142   -5.2239    0.0000 C   0  0  0  0  0  0  0  0  0  0  0  0
    6.8852   -8.5239    0.0000 O   0  0  0  0  0  0  0  0  0  0  0  0
    5.4563   -8.5239    0.0000 O   0  0  0  0  0  0  0  0  0  0  0  0
    9.0286   -3.9864    0.0000 O   0  0  0  0  0  0  0  0  0  0  0  0
   10.4576   -4.8114    0.0000 O   0  0  0  0  0  0  0  0  0  0  0  0
    4.0273   -6.0489    0.0000 O   0  0  0  0  0  0  0  0  0  0  0  0
    9.7431   -3.5739    0.0000 C   0  0  0  0  0  0  0  0  0  0  0  0
   11.1720   -5.2239    0.0000 C   0  0  0  0  0  0  0  0  0  0  0  0
    3.3129   -6.4614    0.0000 C   0  0  0  0  0  0  0  0  0  0  0  0
  1  2  2  0  0  0  0
  2  3  1  0  0  0  0
  3  4  2  0  0  0  0
  4  5  1  0  0  0  0
  5  6  2  0  0  0  0
  6  1  1  0  0  0  0
  4  7  1  0  0  0  0
  7  8  1  0  0  0  0
  8  9  2  0  0  0  0
  9 10  1  0  0  0  0
 10  5  1  0  0  0  0
 11 12  2  0  0  0  0
 12  9  1  0  0  0  0
 11 13  1  0  0  0  0
 13 14  2  0  0  0  0
 14 15  1  0  0  0  0
 15 16  2  0  0  0  0
 16 12  1  0  0  0  0
  7 17  2  0  0  0  0
  3 18  1  0  0  0  0
 15 19  1  0  0  0  0
 14 20  1  0  0  0  0
  1 21  1  0  0  0  0
 19 22  1  0  0  0  0
 20 23  1  0  0  0  0
 21 24  1  0  0  0  0
M  END
>  <cdx:fragmentId>
5

$$$$
