50587.cdx
  Mrv1902 05222410272D          

 16 17  0  0  0  0            999 V2000
    4.1762   -6.9801    0.0000 C   0  0  0  0  0  0  0  0  0  0  0  0
    4.5229   -7.7287    0.0000 C   0  0  0  0  0  0  0  0  0  0  0  0
    5.3244   -7.9244    0.0000 C   0  0  0  0  0  0  0  0  0  0  0  0
    5.9771   -7.4198    0.0000 C   0  0  0  0  0  0  0  0  0  0  0  0
    5.9895   -6.5949    0.0000 C   0  0  0  0  0  0  0  0  0  0  0  0
    5.3524   -6.0708    0.0000 C   0  0  0  0  0  0  0  0  0  0  0  0
    4.5454   -6.2422    0.0000 C   0  0  0  0  0  0  0  0  0  0  0  0
    5.5481   -5.2694    0.0000 C   0  0  0  0  0  0  0  0  0  0  0  0
    3.9989   -8.3659    0.0000 C   0  0  0  0  0  0  0  0  0  0  0  0
    4.2887   -9.1383    0.0000 C   0  0  0  0  0  0  0  0  0  0  0  0
    3.1850   -8.2306    0.0000 C   0  0  0  0  0  0  0  0  0  0  0  0
    6.7578   -7.6865    0.0000 C   0  0  0  0  0  0  0  0  0  0  0  0
    7.2527   -7.0265    0.0000 C   0  0  0  0  0  0  0  0  0  0  0  0
    6.7779   -6.3518    0.0000 C   0  0  0  0  0  0  0  0  0  0  0  0
    7.0008   -8.4749    0.0000 C   0  0  0  0  0  0  0  0  0  0  0  0
    7.0447   -5.5711    0.0000 O   0  0  0  0  0  0  0  0  0  0  0  0
  1  2  1  0  0  0  0
  2  3  1  0  0  0  0
  3  4  2  0  0  0  0
  4  5  1  0  0  0  0
  5  6  2  0  0  0  0
  6  7  1  0  0  0  0
  7  1  2  0  0  0  0
  6  8  1  0  0  0  0
  2  9  2  0  0  0  0
  9 10  1  0  0  0  0
  9 11  1  0  0  0  0
  4 12  1  0  0  0  0
 12 13  2  0  0  0  0
 13 14  1  0  0  0  0
 14  5  1  0  0  0  0
 12 15  1  0  0  0  0
 14 16  2  0  0  0  0
M  END
>  <cdx:fragmentId>
5

$$$$
