50588.cdx
  Mrv1902 05222410182D          

 40 43  0  0  0  0            999 V2000
    6.9283   -7.2729    0.0000 C   0  0  0  0  0  0  0  0  0  0  0  0
    6.2153  -10.9857    0.0000 O   0  0  0  0  0  0  0  0  0  0  0  0
    7.6426   -6.8601    0.0000 C   0  0  0  0  0  0  0  0  0  0  0  0
    7.6423   -6.0351    0.0000 C   0  0  0  0  0  0  0  0  0  0  0  0
    6.9276   -5.6229    0.0000 C   0  0  0  0  0  0  0  0  0  0  0  0
    6.2133   -6.0357    0.0000 C   0  0  0  0  0  0  0  0  0  0  0  0
    6.2137   -6.8607    0.0000 C   0  0  0  0  0  0  0  0  0  0  0  0
    8.3566   -5.6223    0.0000 O   0  0  0  0  0  0  0  0  0  0  0  0
    9.7749   -7.2661    0.0000 C   0  0  2  0  0  0  0  0  0  0  0  0
   10.4895   -6.8539    0.0000 C   0  0  2  0  0  0  0  0  0  0  0  0
   10.4898   -6.0289    0.0000 C   0  0  1  0  0  0  0  0  0  0  0  0
    9.7755   -5.6161    0.0000 C   0  0  2  0  0  0  0  0  0  0  0  0
    9.0609   -6.0283    0.0000 C   0  0  1  0  0  0  0  0  0  0  0  0
    9.0606   -6.8533    0.0000 O   0  0  0  0  0  0  0  0  0  0  0  0
    4.7856   -9.3336    0.0000 C   0  0  2  0  0  0  0  0  0  0  0  0
    4.0711   -9.7460    0.0000 C   0  0  2  0  0  0  0  0  0  0  0  0
    4.0709  -10.5710    0.0000 C   0  0  1  0  0  0  0  0  0  0  0  0
    4.7853  -10.9836    0.0000 C   0  0  2  0  0  0  0  0  0  0  0  0
    5.4999  -10.5712    0.0000 C   0  0  1  0  0  0  0  0  0  0  0  0
    5.5000   -9.7462    0.0000 O   0  0  0  0  0  0  0  0  0  0  0  0
    4.7858   -8.5086    0.0000 C   0  0  0  0  0  0  0  0  0  0  0  0
    3.3564  -10.9833    0.0000 O   0  0  0  0  0  0  0  0  0  0  0  0
    4.7852  -11.8086    0.0000 O   0  0  0  0  0  0  0  0  0  0  0  0
    3.3567   -9.3333    0.0000 O   0  0  0  0  0  0  0  0  0  0  0  0
    4.0714   -8.0960    0.0000 O   0  0  0  0  0  0  0  0  0  0  0  0
    9.7875  -10.5717    0.0000 C   0  0  0  0  0  0  0  0  0  0  0  0
    9.0732  -10.9845    0.0000 O   0  0  0  0  0  0  0  0  0  0  0  0
    9.7746   -8.0911    0.0000 C   0  0  0  0  0  0  0  0  0  0  0  0
   11.2045   -5.6167    0.0000 O   0  0  0  0  0  0  0  0  0  0  0  0
    9.7759   -4.7911    0.0000 O   0  0  0  0  0  0  0  0  0  0  0  0
   11.2038   -7.2667    0.0000 O   0  0  0  0  0  0  0  0  0  0  0  0
   10.4889   -8.5039    0.0000 O   0  0  0  0  0  0  0  0  0  0  0  0
    6.9286   -8.0979    0.0000 C   0  0  0  0  0  0  0  0  0  0  0  0
    7.6433   -8.5101    0.0000 C   0  0  0  0  0  0  0  0  0  0  0  0
    7.6443  -10.9851    0.0000 C   0  0  0  0  0  0  0  0  0  0  0  0
    8.3586  -10.5723    0.0000 C   0  0  0  0  0  0  0  0  0  0  0  0
    8.3582   -9.7473    0.0000 C   0  0  0  0  0  0  0  0  0  0  0  0
    7.6436   -9.3351    0.0000 C   0  0  0  0  0  0  0  0  0  0  0  0
    6.9293   -9.7479    0.0000 C   0  0  0  0  0  0  0  0  0  0  0  0
    6.9296  -10.5729    0.0000 C   0  0  0  0  0  0  0  0  0  0  0  0
  1  3  2  0  0  0  0
  3  4  1  0  0  0  0
  4  5  2  0  0  0  0
  5  6  1  0  0  0  0
  6  7  2  0  0  0  0
  7  1  1  0  0  0  0
  4  8  1  0  0  0  0
  9 10  1  0  0  0  0
 10 11  1  0  0  0  0
 11 12  1  0  0  0  0
 15 16  1  0  0  0  0
 16 17  1  0  0  0  0
 17 18  1  0  0  0  0
 18 19  1  0  0  0  0
 19 20  1  0  0  0  0
 20 15  1  0  0  0  0
 15 21  1  1  0  0  0
 17 22  1  1  0  0  0
 18 23  1  6  0  0  0
 16 24  1  6  0  0  0
 21 25  1  0  0  0  0
 12 13  1  0  0  0  0
 13 14  1  0  0  0  0
 40  2  1  0  0  0  0
 19  2  1  1  0  0  0
 27 26  1  0  0  0  0
 36 27  1  0  0  0  0
 14  9  1  0  0  0  0
  9 28  1  1  0  0  0
 11 29  1  1  0  0  0
 12 30  1  6  0  0  0
 10 31  1  6  0  0  0
 28 32  1  0  0  0  0
 33  1  1  0  0  0  0
 13  8  1  1  0  0  0
 34 33  1  0  0  0  0
 38 34  1  0  0  0  0
 35 40  1  0  0  0  0
 36 35  2  0  0  0  0
 37 36  1  0  0  0  0
 38 37  2  0  0  0  0
 39 38  1  0  0  0  0
 40 39  2  0  0  0  0
M  END
>  <cdx:fragmentId>
5

$$$$
