50583.cdx
  Mrv1902 05222410262D          

 22 24  0  0  0  0            999 V2000
    3.3943   -9.6514    0.0000 C   0  0  0  0  0  0  0  0  0  0  0  0
    3.3943  -10.4764    0.0000 C   0  0  0  0  0  0  0  0  0  0  0  0
    4.1088  -10.8889    0.0000 C   0  0  0  0  0  0  0  0  0  0  0  0
    4.8232  -10.4764    0.0000 C   0  0  0  0  0  0  0  0  0  0  0  0
    4.8232   -9.6514    0.0000 C   0  0  0  0  0  0  0  0  0  0  0  0
    4.1088   -9.2389    0.0000 C   0  0  0  0  0  0  0  0  0  0  0  0
    5.5377  -10.8889    0.0000 C   0  0  0  0  0  0  0  0  0  0  0  0
    6.2522  -10.4764    0.0000 C   0  0  0  0  0  0  0  0  0  0  0  0
    6.2522   -9.6514    0.0000 C   0  0  0  0  0  0  0  0  0  0  0  0
    5.5377   -9.2389    0.0000 O   0  0  0  0  0  0  0  0  0  0  0  0
    7.6811   -9.6514    0.0000 C   0  0  0  0  0  0  0  0  0  0  0  0
    6.9667   -9.2389    0.0000 C   0  0  0  0  0  0  0  0  0  0  0  0
    8.3956   -9.2389    0.0000 C   0  0  0  0  0  0  0  0  0  0  0  0
    8.3956   -8.4139    0.0000 C   0  0  0  0  0  0  0  0  0  0  0  0
    7.6811   -8.0014    0.0000 C   0  0  0  0  0  0  0  0  0  0  0  0
    6.9667   -8.4139    0.0000 C   0  0  0  0  0  0  0  0  0  0  0  0
    5.5377  -11.7139    0.0000 O   0  0  0  0  0  0  0  0  0  0  0  0
    4.1088  -11.7139    0.0000 O   0  0  0  0  0  0  0  0  0  0  0  0
    9.1101   -8.0014    0.0000 O   0  0  0  0  0  0  0  0  0  0  0  0
    2.6798   -9.2389    0.0000 O   0  0  0  0  0  0  0  0  0  0  0  0
    9.8245   -8.4139    0.0000 C   0  0  0  0  0  0  0  0  0  0  0  0
    1.9654   -9.6514    0.0000 C   0  0  0  0  0  0  0  0  0  0  0  0
  1  2  2  0  0  0  0
  2  3  1  0  0  0  0
  3  4  2  0  0  0  0
  4  5  1  0  0  0  0
  5  6  2  0  0  0  0
  6  1  1  0  0  0  0
  4  7  1  0  0  0  0
  7  8  1  0  0  0  0
  8  9  2  0  0  0  0
  9 10  1  0  0  0  0
 10  5  1  0  0  0  0
 11 12  2  0  0  0  0
 12  9  1  0  0  0  0
 11 13  1  0  0  0  0
 13 14  2  0  0  0  0
 14 15  1  0  0  0  0
 15 16  2  0  0  0  0
 16 12  1  0  0  0  0
  7 17  2  0  0  0  0
  3 18  1  0  0  0  0
 14 19  1  0  0  0  0
  1 20  1  0  0  0  0
 19 21  1  0  0  0  0
 20 22  1  0  0  0  0
M  END
>  <cdx:fragmentId>
5

$$$$
