50586.cdx
  Mrv1902 05222410272D          

 12 12  0  0  0  0            999 V2000
    5.8281   -7.7264    0.0000 C   0  0  0  0  0  0  0  0  0  0  0  0
    5.8281   -8.5514    0.0000 C   0  0  0  0  0  0  0  0  0  0  0  0
    6.5425   -8.9639    0.0000 C   0  0  0  0  0  0  0  0  0  0  0  0
    7.2570   -8.5514    0.0000 C   0  0  0  0  0  0  0  0  0  0  0  0
    7.2570   -7.7264    0.0000 C   0  0  0  0  0  0  0  0  0  0  0  0
    6.5425   -7.3139    0.0000 C   0  0  0  0  0  0  0  0  0  0  0  0
    5.1136   -7.3139    0.0000 C   0  0  0  0  0  0  0  0  0  0  0  0
    6.1300   -6.5994    0.0000 C   0  0  0  0  0  0  0  0  0  0  0  0
    6.9550   -6.5994    0.0000 O   0  0  0  0  0  0  0  0  0  0  0  0
    7.9715   -8.9639    0.0000 C   0  0  0  0  0  0  0  0  0  0  0  0
    8.6859   -8.5514    0.0000 C   0  0  0  0  0  0  0  0  0  0  0  0
    7.9715   -9.7889    0.0000 C   0  0  0  0  0  0  0  0  0  0  0  0
  1  2  2  0  0  0  0
  2  3  1  0  0  0  0
  3  4  1  0  0  0  0
  4  5  1  0  0  0  0
  5  6  1  0  0  0  0
  6  1  1  0  0  0  0
  1  7  1  0  0  0  0
  6  8  1  0  0  0  0
  6  9  1  0  0  0  0
  4 10  1  0  0  0  0
 10 11  2  0  0  0  0
 10 12  1  0  0  0  0
M  END
>  <cdx:fragmentId>
5

$$$$
