50590.cdx
  Mrv1902 05222410282D          

 22 24  0  0  0  0            999 V2000
    4.1506   -8.1939    0.0000 C   0  0  0  0  0  0  0  0  0  0  0  0
    4.1506   -9.0189    0.0000 C   0  0  0  0  0  0  0  0  0  0  0  0
    4.8650   -9.4314    0.0000 C   0  0  0  0  0  0  0  0  0  0  0  0
    5.5795   -9.0189    0.0000 C   0  0  0  0  0  0  0  0  0  0  0  0
    5.5795   -8.1939    0.0000 C   0  0  0  0  0  0  0  0  0  0  0  0
    4.8650   -7.7814    0.0000 C   0  0  0  0  0  0  0  0  0  0  0  0
    6.2940   -9.4314    0.0000 O   0  0  0  0  0  0  0  0  0  0  0  0
    7.0084   -9.0189    0.0000 C   0  0  0  0  0  0  0  0  0  0  0  0
    7.0084   -8.1939    0.0000 C   0  0  0  0  0  0  0  0  0  0  0  0
    6.2940   -7.7814    0.0000 C   0  0  0  0  0  0  0  0  0  0  0  0
    6.2940   -6.9564    0.0000 O   0  0  0  0  0  0  0  0  0  0  0  0
    4.8650   -6.9564    0.0000 O   0  0  0  0  0  0  0  0  0  0  0  0
    7.7229   -7.7814    0.0000 O   0  0  0  0  0  0  0  0  0  0  0  0
    7.7229   -9.4314    0.0000 C   0  0  0  0  0  0  0  0  0  0  0  0
    8.4374   -9.0189    0.0000 C   0  0  0  0  0  0  0  0  0  0  0  0
    7.7229  -10.2564    0.0000 C   0  0  0  0  0  0  0  0  0  0  0  0
    8.4374  -10.6689    0.0000 C   0  0  0  0  0  0  0  0  0  0  0  0
    9.1519  -10.2564    0.0000 C   0  0  0  0  0  0  0  0  0  0  0  0
    9.1519   -9.4314    0.0000 C   0  0  0  0  0  0  0  0  0  0  0  0
    4.1506   -6.5439    0.0000 C   0  0  0  0  0  0  0  0  0  0  0  0
    3.4361   -9.4314    0.0000 O   0  0  0  0  0  0  0  0  0  0  0  0
    9.8663  -10.6689    0.0000 O   0  0  0  0  0  0  0  0  0  0  0  0
  1  2  1  0  0  0  0
  2  3  2  0  0  0  0
  3  4  1  0  0  0  0
  4  5  2  0  0  0  0
  5  6  1  0  0  0  0
  6  1  2  0  0  0  0
  4  7  1  0  0  0  0
  7  8  1  0  0  0  0
  8  9  2  0  0  0  0
  9 10  1  0  0  0  0
 10  5  1  0  0  0  0
 10 11  2  0  0  0  0
 12  6  1  0  0  0  0
  9 13  1  0  0  0  0
  8 14  1  0  0  0  0
 14 15  2  0  0  0  0
 14 16  1  0  0  0  0
 16 17  2  0  0  0  0
 17 18  1  0  0  0  0
 18 19  2  0  0  0  0
 19 15  1  0  0  0  0
 12 20  1  0  0  0  0
  2 21  1  0  0  0  0
 18 22  1  0  0  0  0
M  END
>  <cdx:fragmentId>
5

$$$$
