50598.cdx
  Mrv1902 05222410202D          

 31 32  0  0  0  0            999 V2000
    4.5556   -5.3067    0.0000 C   0  0  0  0  0  0  0  0  0  0  0  0
    2.4804   -9.0578    0.0000 C   0  0  0  0  0  0  0  0  0  0  0  0
   11.7443   -7.6507    0.0000 O   0  0  0  0  0  0  0  0  0  0  0  0
   10.3458   -9.3266    0.0000 C   0  0  0  0  0  0  0  0  0  0  0  0
   11.0526   -8.9011    0.0000 C   0  0  0  0  0  0  0  0  0  0  0  0
   11.0375   -8.0762    0.0000 C   0  0  0  0  0  0  0  0  0  0  0  0
   10.3156   -7.6769    0.0000 C   0  0  0  0  0  0  0  0  0  0  0  0
    9.6239   -8.9272    0.0000 C   0  0  0  0  0  0  0  0  0  0  0  0
    9.6088   -8.1023    0.0000 C   0  0  0  0  0  0  0  0  0  0  0  0
    8.9171   -9.3527    0.0000 C   0  0  0  0  0  0  0  0  0  0  0  0
    8.1952   -8.9533    0.0000 C   0  0  0  0  0  0  0  0  0  0  0  0
    7.4582   -7.7291    0.0000 O   0  0  0  0  0  0  0  0  0  0  0  0
    6.0747  -10.2298    0.0000 O   0  0  0  0  0  0  0  0  0  0  0  0
    7.5034  -10.2037    0.0000 O   0  0  0  0  0  0  0  0  0  0  0  0
    7.4884   -9.3788    0.0000 C   0  0  0  0  0  0  0  0  0  0  0  0
    6.0596   -9.4049    0.0000 C   0  0  0  0  0  0  0  0  0  0  0  0
    6.7665   -8.9794    0.0000 C   0  0  0  0  0  0  0  0  0  0  0  0
    6.7514   -8.1546    0.0000 C   0  0  0  0  0  0  0  0  0  0  0  0
    5.9843   -5.2806    0.0000 C   0  0  0  0  0  0  0  0  0  0  0  0
    5.2774   -5.7061    0.0000 C   0  0  0  0  0  0  0  0  0  0  0  0
    6.0295   -7.7552    0.0000 C   0  0  0  0  0  0  0  0  0  0  0  0
    6.0144   -6.9303    0.0000 C   0  0  0  0  0  0  0  0  0  0  0  0
    5.2925   -6.5310    0.0000 C   0  0  0  0  0  0  0  0  0  0  0  0
    5.3378   -9.0056    0.0000 C   0  0  0  0  0  0  0  0  0  0  0  0
    5.3227   -8.1807    0.0000 C   0  0  0  0  0  0  0  0  0  0  0  0
    4.6008   -7.7813    0.0000 O   0  0  0  0  0  0  0  0  0  0  0  0
    4.6309   -9.4311    0.0000 C   0  0  0  0  0  0  0  0  0  0  0  0
    3.9091   -9.0317    0.0000 C   0  0  0  0  0  0  0  0  0  0  0  0
    3.2022   -9.4572    0.0000 C   0  0  0  0  0  0  0  0  0  0  0  0
    3.2173  -10.2820    0.0000 C   0  0  0  0  0  0  0  0  0  0  0  0
    5.3679  -10.6553    0.0000 C   0  0  0  0  0  0  0  0  0  0  0  0
 20  1  1  0  0  0  0
 29  2  1  0  0  0  0
  6  3  1  0  0  0  0
  4  8  2  0  0  0  0
  5  4  1  0  0  0  0
  6  5  2  0  0  0  0
  7  6  1  0  0  0  0
  9  7  2  0  0  0  0
  8 10  1  0  0  0  0
  9  8  1  0  0  0  0
 11 10  2  0  0  0  0
 11 15  1  0  0  0  0
 18 12  1  0  0  0  0
 13 16  1  0  0  0  0
 15 14  2  0  0  0  0
 17 15  1  0  0  0  0
 16 24  1  0  0  0  0
 17 16  2  0  0  0  0
 18 17  1  0  0  0  0
 21 18  2  0  0  0  0
 20 19  1  0  0  0  0
 23 20  2  0  0  0  0
 21 25  1  0  0  0  0
 22 21  1  0  0  0  0
 23 22  1  0  0  0  0
 24 27  1  0  0  0  0
 25 24  2  0  0  0  0
 26 25  1  0  0  0  0
 28 27  1  0  0  0  0
 29 28  2  0  0  0  0
 30 29  1  0  0  0  0
 13 31  1  0  0  0  0
M  END
>  <cdx:fragmentId>
5

$$$$
