50597.cdx
  Mrv1902 05222410262D          

 12 13  0  0  0  0            999 V2000
    5.0993   -6.0626    0.0000 C   0  0  0  0  0  0  0  0  0  0  0  0
    5.0993   -6.8876    0.0000 C   0  0  0  0  0  0  0  0  0  0  0  0
    5.8138   -7.3001    0.0000 C   0  0  0  0  0  0  0  0  0  0  0  0
    6.5282   -6.8876    0.0000 C   0  0  0  0  0  0  0  0  0  0  0  0
    6.5282   -6.0626    0.0000 C   0  0  0  0  0  0  0  0  0  0  0  0
    5.8138   -5.6501    0.0000 C   0  0  0  0  0  0  0  0  0  0  0  0
    7.2427   -7.3001    0.0000 C   0  0  0  0  0  0  0  0  0  0  0  0
    7.3290   -8.1206    0.0000 O   0  0  0  0  0  0  0  0  0  0  0  0
    8.1359   -8.2922    0.0000 C   0  0  0  0  0  0  0  0  0  0  0  0
    8.5484   -7.5777    0.0000 C   0  0  0  0  0  0  0  0  0  0  0  0
    7.9964   -6.9646    0.0000 C   0  0  0  0  0  0  0  0  0  0  0  0
    8.4715   -9.0458    0.0000 O   0  0  0  0  0  0  0  0  0  0  0  0
  1  2  2  0  0  0  0
  2  3  1  0  0  0  0
  3  4  2  0  0  0  0
  4  5  1  0  0  0  0
  5  6  2  0  0  0  0
  6  1  1  0  0  0  0
  4  7  1  0  0  0  0
  7  8  1  0  0  0  0
  8  9  1  0  0  0  0
  9 10  1  0  0  0  0
 10 11  2  0  0  0  0
 11  7  1  0  0  0  0
  9 12  2  0  0  0  0
M  END
>  <cdx:fragmentId>
5

$$$$
