50599.cdx
  Mrv1902 05222410202D          

 24 26  0  0  0  0            999 V2000
    4.2881   -7.0664    0.0000 C   0  0  0  0  0  0  0  0  0  0  0  0
    4.2881   -7.8914    0.0000 C   0  0  0  0  0  0  0  0  0  0  0  0
    5.0025   -8.3039    0.0000 C   0  0  0  0  0  0  0  0  0  0  0  0
    5.7170   -7.8914    0.0000 C   0  0  0  0  0  0  0  0  0  0  0  0
    5.7170   -7.0664    0.0000 C   0  0  0  0  0  0  0  0  0  0  0  0
    5.0025   -6.6539    0.0000 C   0  0  0  0  0  0  0  0  0  0  0  0
    6.4315   -8.3039    0.0000 C   0  0  2  0  0  0  0  0  0  0  0  0
    7.1459   -7.8914    0.0000 C   0  0  0  0  0  0  0  0  0  0  0  0
    7.1459   -7.0664    0.0000 C   0  0  0  0  0  0  0  0  0  0  0  0
    6.4315   -6.6539    0.0000 C   0  0  0  0  0  0  0  0  0  0  0  0
    6.4315   -9.1289    0.0000 C   0  0  0  0  0  0  0  0  0  0  0  0
    7.1459   -9.5414    0.0000 C   0  0  0  0  0  0  0  0  0  0  0  0
    7.8604   -9.1289    0.0000 C   0  0  0  0  0  0  0  0  0  0  0  0
    7.8604   -8.3039    0.0000 C   0  0  0  0  0  0  0  0  0  0  0  0
    5.0025   -9.1289    0.0000 C   0  0  0  0  0  0  0  0  0  0  0  0
    5.7170   -9.5414    0.0000 C   0  0  0  0  0  0  0  0  0  0  0  0
    4.2881   -9.5414    0.0000 C   0  0  0  0  0  0  0  0  0  0  0  0
    3.5736   -8.3039    0.0000 O   0  0  0  0  0  0  0  0  0  0  0  0
    3.5736   -6.6539    0.0000 O   0  0  0  0  0  0  0  0  0  0  0  0
    6.4315   -5.8289    0.0000 O   0  0  0  0  0  0  0  0  0  0  0  0
    7.8604   -6.6539    0.0000 O   0  0  0  0  0  0  0  0  0  0  0  0
    8.2729   -7.5894    0.0000 C   0  0  0  0  0  0  0  0  0  0  0  0
    8.6573   -8.5174    0.0000 C   0  0  0  0  0  0  0  0  0  0  0  0
    5.7170   -8.7164    0.0000 C   0  0  0  0  0  0  0  0  0  0  0  0
  1  2  1  0  0  0  0
  2  3  2  0  0  0  0
  3  4  1  0  0  0  0
  4  5  2  0  0  0  0
  5  6  1  0  0  0  0
  6  1  2  0  0  0  0
  4  7  1  0  0  0  0
  7  8  1  0  0  0  0
  8  9  2  0  0  0  0
  9 10  1  0  0  0  0
 10  5  1  0  0  0  0
  7 11  1  0  0  0  0
 11 12  1  0  0  0  0
 12 13  1  0  0  0  0
 13 14  1  0  0  0  0
 14  8  1  0  0  0  0
  3 15  1  0  0  0  0
 15 16  1  0  0  0  0
 15 17  1  0  0  0  0
  2 18  1  0  0  0  0
  1 19  1  0  0  0  0
 10 20  2  0  0  0  0
  9 21  1  0  0  0  0
 14 22  1  0  0  0  0
 14 23  1  0  0  0  0
  7 24  1  1  0  0  0
M  END
>  <cdx:fragmentId>
5

$$$$
