50591.cdx
  Mrv1902 05222410282D          

 10 11  0  0  0  0            999 V2000
    8.0341   -6.4197    0.0000 N   0  0  0  0  0  0  0  0  0  0  0  0
    8.5191   -5.7523    0.0000 C   0  0  0  0  0  0  0  0  0  0  0  0
    8.0341   -5.0849    0.0000 C   0  0  0  0  0  0  0  0  0  0  0  0
    7.2495   -5.3398    0.0000 C   0  0  0  0  0  0  0  0  0  0  0  0
    6.5350   -4.9273    0.0000 C   0  0  0  0  0  0  0  0  0  0  0  0
    5.8206   -5.3398    0.0000 C   0  0  0  0  0  0  0  0  0  0  0  0
    5.8206   -6.1648    0.0000 C   0  0  0  0  0  0  0  0  0  0  0  0
    6.5350   -6.5773    0.0000 C   0  0  0  0  0  0  0  0  0  0  0  0
    7.2495   -6.1648    0.0000 C   0  0  0  0  0  0  0  0  0  0  0  0
    8.2891   -4.3002    0.0000 O   0  0  0  0  0  0  0  0  0  0  0  0
  1  2  1  0  0  0  0
  2  3  2  0  0  0  0
  3  4  1  0  0  0  0
  4  5  1  0  0  0  0
  5  6  2  0  0  0  0
  6  7  1  0  0  0  0
  7  8  2  0  0  0  0
  8  9  1  0  0  0  0
  1  9  1  0  0  0  0
  4  9  2  0  0  0  0
  3 10  1  0  0  0  0
M  END
>  <cdx:groupId>
33

>  <cdx:fragmentId>
5

$$$$
