50593.cdx
  Mrv1902 05222410272D          

 17 19  0  0  0  0            999 V2000
    6.0832  -10.0189    0.0000 C   0  0  0  0  0  0  0  0  0  0  0  0
    6.7337   -9.5115    0.0000 C   0  0  0  0  0  0  0  0  0  0  0  0
    6.7427   -8.6866    0.0000 C   0  0  2  0  0  0  0  0  0  0  0  0
    6.1032   -8.1653    0.0000 C   0  0  0  0  0  0  0  0  0  0  0  0
    5.2970   -8.3401    0.0000 C   0  0  0  0  0  0  0  0  0  0  0  0
    4.9310   -9.0795    0.0000 C   0  0  0  0  0  0  0  0  0  0  0  0
    5.2809   -9.8266    0.0000 C   0  0  2  0  0  0  0  0  0  0  0  0
    4.1061   -9.0706    0.0000 C   0  0  0  0  0  0  0  0  0  0  0  0
    6.5906  -10.6695    0.0000 C   0  0  0  0  0  0  0  0  0  0  0  0
    5.7735  -10.7836    0.0000 C   0  0  0  0  0  0  0  0  0  0  0  0
    7.5155   -9.7750    0.0000 C   0  0  0  0  0  0  0  0  0  0  0  0
    8.0077   -9.1128    0.0000 C   0  0  0  0  0  0  0  0  0  0  0  0
    7.5300   -8.4402    0.0000 C   0  0  1  0  0  0  0  0  0  0  0  0
    6.9473  -10.3084    0.0000 O   0  0  0  0  0  0  0  0  0  0  0  0
    5.8116   -9.0548    0.0000 C   0  0  0  0  0  0  0  0  0  0  0  0
    4.7596  -10.4661    0.0000 H   0  0  0  0  0  0  0  0  0  0  0  0
    7.7934   -7.6583    0.0000 C   0  0  0  0  0  0  0  0  0  0  0  0
  1  2  1  0  0  0  0
  2  3  1  0  0  0  0
  3  4  1  0  0  0  0
  4  5  1  0  0  0  0
  5  6  1  0  0  0  0
  6  7  1  0  0  0  0
  7  1  1  0  0  0  0
  6  8  1  0  0  0  0
  1  9  1  0  0  0  0
  1 10  1  0  0  0  0
  2 11  1  0  0  0  0
 11 12  1  0  0  0  0
 12 13  1  0  0  0  0
 13  3  1  0  0  0  0
  2 14  1  0  0  0  0
  7 15  1  0  0  0  0
  3 15  1  1  0  0  0
  7 16  1  1  0  0  0
 13 17  1  6  0  0  0
M  END
>  <cdx:fragmentId>
5

$$$$
