50592.cdx
  Mrv1902 05222410272D          

  8  8  0  0  0  0            999 V2000
    6.0068   -7.8089    0.0000 C   0  0  0  0  0  0  0  0  0  0  0  0
    6.0068   -8.6339    0.0000 C   0  0  0  0  0  0  0  0  0  0  0  0
    7.4357   -8.6339    0.0000 C   0  0  0  0  0  0  0  0  0  0  0  0
    7.4357   -7.8089    0.0000 C   0  0  0  0  0  0  0  0  0  0  0  0
    6.7213   -7.3964    0.0000 O   0  0  0  0  0  0  0  0  0  0  0  0
    5.2923   -7.3964    0.0000 C   0  0  0  0  0  0  0  0  0  0  0  0
    8.1502   -7.3964    0.0000 C   0  0  0  0  0  0  0  0  0  0  0  0
    8.8647   -7.8089    0.0000 O   0  0  0  0  0  0  0  0  0  0  0  0
  1  2  1  0  0  0  0
  3  4  1  0  0  0  0
  4  5  1  0  0  0  0
  5  1  1  0  0  0  0
  2  3  1  0  0  0  0
  1  6  1  0  0  0  0
  4  7  1  0  0  0  0
  7  8  1  0  0  0  0
M  END
>  <cdx:fragmentId>
5

$$$$
