50603.cdx
  Mrv1902 05222410192D          

 24 26  0  0  0  0            999 V2000
    4.3981   -7.1214    0.0000 C   0  0  0  0  0  0  0  0  0  0  0  0
    4.3981   -7.9464    0.0000 C   0  0  0  0  0  0  0  0  0  0  0  0
    5.1125   -8.3589    0.0000 C   0  0  0  0  0  0  0  0  0  0  0  0
    5.8270   -7.9464    0.0000 C   0  0  0  0  0  0  0  0  0  0  0  0
    5.8270   -7.1214    0.0000 C   0  0  0  0  0  0  0  0  0  0  0  0
    5.1125   -6.7089    0.0000 O   0  0  0  0  0  0  0  0  0  0  0  0
    6.5415   -8.3589    0.0000 C   0  0  0  0  0  0  0  0  0  0  0  0
    7.2559   -7.9464    0.0000 C   0  0  0  0  0  0  0  0  0  0  0  0
    7.2559   -7.1214    0.0000 C   0  0  0  0  0  0  0  0  0  0  0  0
    6.5415   -6.7089    0.0000 C   0  0  0  0  0  0  0  0  0  0  0  0
    3.6836   -6.7089    0.0000 O   0  0  0  0  0  0  0  0  0  0  0  0
    7.9704   -8.3589    0.0000 O   0  0  0  0  0  0  0  0  0  0  0  0
    7.9704   -6.7089    0.0000 O   0  0  0  0  0  0  0  0  0  0  0  0
    6.5415   -5.8839    0.0000 O   0  0  0  0  0  0  0  0  0  0  0  0
    9.4309   -8.3486    0.0000 C   0  0  1  0  0  0  0  0  0  0  0  0
   10.1426   -7.9312    0.0000 C   0  0  1  0  0  0  0  0  0  0  0  0
   10.1369   -7.1062    0.0000 C   0  0  2  0  0  0  0  0  0  0  0  0
    9.4196   -6.6986    0.0000 C   0  0  2  0  0  0  0  0  0  0  0  0
    8.7080   -7.1160    0.0000 C   0  0  1  0  0  0  0  0  0  0  0  0
    8.7137   -7.9410    0.0000 O   0  0  0  0  0  0  0  0  0  0  0  0
    9.4366   -9.1735    0.0000 C   0  0  0  0  0  0  0  0  0  0  0  0
   10.8485   -6.6888    0.0000 O   0  0  0  0  0  0  0  0  0  0  0  0
    9.4140   -5.8736    0.0000 O   0  0  0  0  0  0  0  0  0  0  0  0
   10.8598   -8.3387    0.0000 O   0  0  0  0  0  0  0  0  0  0  0  0
  1  2  1  0  0  0  0
  2  3  2  0  0  0  0
  3  4  1  0  0  0  0
  4  5  1  0  0  0  0
  5  6  1  0  0  0  0
  6  1  1  0  0  0  0
  4  7  2  0  0  0  0
  7  8  1  0  0  0  0
  8  9  2  0  0  0  0
  9 10  1  0  0  0  0
 10  5  2  0  0  0  0
  1 11  2  0  0  0  0
  8 12  1  0  0  0  0
  9 13  1  0  0  0  0
 10 14  1  0  0  0  0
 15 16  1  0  0  0  0
 16 17  1  0  0  0  0
 17 18  1  0  0  0  0
 18 19  1  0  0  0  0
 19 20  1  0  0  0  0
 20 15  1  0  0  0  0
 15 21  1  6  0  0  0
 17 22  1  6  0  0  0
 18 23  1  6  0  0  0
 16 24  1  1  0  0  0
 19 13  1  1  0  0  0
M  END
>  <cdx:fragmentId>
5

$$$$
