50601.cdx
  Mrv1902 05222410182D          

 20 22  0  0  0  0            999 V2000
    4.4806  -10.2839    0.0000 C   0  0  0  0  0  0  0  0  0  0  0  0
    4.4806  -11.1089    0.0000 C   0  0  0  0  0  0  0  0  0  0  0  0
    5.1950  -11.5214    0.0000 C   0  0  0  0  0  0  0  0  0  0  0  0
    5.9095  -11.1089    0.0000 C   0  0  0  0  0  0  0  0  0  0  0  0
    5.9095  -10.2839    0.0000 C   0  0  0  0  0  0  0  0  0  0  0  0
    5.1950   -9.8714    0.0000 C   0  0  0  0  0  0  0  0  0  0  0  0
    6.6240  -11.5214    0.0000 C   0  0  0  0  0  0  0  0  0  0  0  0
    7.3384  -11.1089    0.0000 C   0  0  0  0  0  0  0  0  0  0  0  0
    7.3384  -10.2839    0.0000 C   0  0  0  0  0  0  0  0  0  0  0  0
    6.6240   -9.8714    0.0000 C   0  0  0  0  0  0  0  0  0  0  0  0
    8.0529   -9.8714    0.0000 C   0  0  0  0  0  0  0  0  0  0  0  0
    8.0529   -9.0464    0.0000 C   0  0  0  0  0  0  0  0  0  0  0  0
    7.3384   -8.6339    0.0000 C   0  0  0  0  0  0  0  0  0  0  0  0
    6.6240   -9.0464    0.0000 C   0  0  0  0  0  0  0  0  0  0  0  0
    5.1950   -9.0464    0.0000 O   0  0  0  0  0  0  0  0  0  0  0  0
    5.1950  -12.3464    0.0000 O   0  0  0  0  0  0  0  0  0  0  0  0
    3.7661  -11.5214    0.0000 O   0  0  0  0  0  0  0  0  0  0  0  0
    3.0516  -11.1089    0.0000 C   0  0  0  0  0  0  0  0  0  0  0  0
    7.3384   -7.8089    0.0000 O   0  0  0  0  0  0  0  0  0  0  0  0
    8.7674   -8.6339    0.0000 O   0  0  0  0  0  0  0  0  0  0  0  0
  1  2  2  0  0  0  0
  2  3  1  0  0  0  0
  3  4  1  0  0  0  0
  4  5  2  0  0  0  0
  5  6  1  0  0  0  0
  6  1  1  0  0  0  0
  4  7  1  0  0  0  0
  7  8  2  0  0  0  0
  8  9  1  0  0  0  0
  9 10  1  0  0  0  0
 10  5  1  0  0  0  0
  9 11  2  0  0  0  0
 11 12  1  0  0  0  0
 12 13  2  0  0  0  0
 13 14  1  0  0  0  0
 14 10  2  0  0  0  0
  6 15  2  0  0  0  0
  3 16  2  0  0  0  0
  2 17  1  0  0  0  0
 17 18  1  0  0  0  0
 13 19  1  0  0  0  0
 12 20  1  0  0  0  0
M  END
>  <cdx:fragmentId>
5

$$$$
