50605.cdx
  Mrv1902 05222410202D          

 54 57  0  0  0  0            999 V2000
    3.6143   -5.8426    0.0000 C   0  0  2  0  0  0  0  0  0  0  0  0
    3.6143   -6.6676    0.0000 C   0  0  2  0  0  0  0  0  0  0  0  0
    4.3288   -7.0801    0.0000 C   0  0  1  0  0  0  0  0  0  0  0  0
    5.0432   -6.6676    0.0000 C   0  0  2  0  0  0  0  0  0  0  0  0
    5.0432   -5.8426    0.0000 C   0  0  2  0  0  0  0  0  0  0  0  0
    4.3288   -5.4301    0.0000 O   0  0  0  0  0  0  0  0  0  0  0  0
    2.8998   -5.4301    0.0000 O   0  0  0  0  0  0  0  0  0  0  0  0
    4.3288   -7.9051    0.0000 O   0  0  0  0  0  0  0  0  0  0  0  0
    5.7577   -5.4301    0.0000 O   0  0  0  0  0  0  0  0  0  0  0  0
    6.4722   -5.8426    0.0000 C   0  0  1  0  0  0  0  0  0  0  0  0
    6.7457   -6.6210    0.0000 C   0  0  2  0  0  0  0  0  0  0  0  0
    7.5704   -6.6014    0.0000 C   0  0  1  0  0  0  0  0  0  0  0  0
    7.8067   -5.8110    0.0000 C   0  0  2  0  0  0  0  0  0  0  0  0
    7.1279   -5.3420    0.0000 O   0  0  0  0  0  0  0  0  0  0  0  0
    2.8998   -7.0801    0.0000 O   0  0  0  0  0  0  0  0  0  0  0  0
    5.7577   -7.0801    0.0000 O   0  0  0  0  0  0  0  0  0  0  0  0
    2.1854   -5.8426    0.0000 C   0  0  0  0  0  0  0  0  0  0  0  0
    2.1854   -6.6676    0.0000 C   0  0  0  0  0  0  0  0  0  0  0  0
    1.4709   -5.4301    0.0000 O   0  0  0  0  0  0  0  0  0  0  0  0
    6.4722   -5.0176    0.0000 C   0  0  0  0  0  0  0  0  0  0  0  0
    8.0711   -7.2572    0.0000 O   0  0  0  0  0  0  0  0  0  0  0  0
    8.5850   -5.5375    0.0000 C   0  0  0  0  0  0  0  0  0  0  0  0
    6.2767   -7.2998    0.0000 O   0  0  0  0  0  0  0  0  0  0  0  0
    2.4873   -7.7946    0.0000 C   0  0  0  0  0  0  0  0  0  0  0  0
    2.8998   -8.5091    0.0000 C   0  0  0  0  0  0  0  0  0  0  0  0
    1.6623   -7.7946    0.0000 O   0  0  0  0  0  0  0  0  0  0  0  0
    5.7577   -4.6051    0.0000 O   0  0  0  0  0  0  0  0  0  0  0  0
   10.0704   -6.1154    0.0000 C   0  0  0  0  0  0  0  0  0  0  0  0
   10.4665   -5.3917    0.0000 C   0  0  0  0  0  0  0  0  0  0  0  0
   11.2913   -5.3730    0.0000 C   0  0  0  0  0  0  0  0  0  0  0  0
   11.6875   -4.6493    0.0000 C   0  0  0  0  0  0  0  0  0  0  0  0
   10.4990   -6.8203    0.0000 O   0  0  0  0  0  0  0  0  0  0  0  0
   12.5123   -4.6306    0.0000 C   0  0  0  0  0  0  0  0  0  0  0  0
   12.9084   -3.9069    0.0000 C   0  0  0  0  0  0  0  0  0  0  0  0
   12.4798   -3.2020    0.0000 C   0  0  0  0  0  0  0  0  0  0  0  0
   11.6550   -3.2207    0.0000 C   0  0  0  0  0  0  0  0  0  0  0  0
   11.2589   -3.9444    0.0000 C   0  0  0  0  0  0  0  0  0  0  0  0
   12.8760   -2.4784    0.0000 O   0  0  0  0  0  0  0  0  0  0  0  0
   13.7332   -3.8882    0.0000 O   0  0  0  0  0  0  0  0  0  0  0  0
   14.1618   -4.5931    0.0000 C   0  0  0  0  0  0  0  0  0  0  0  0
    5.8536   -8.0335    0.0000 C   0  0  0  0  0  0  0  0  0  0  0  0
    6.2686   -8.7465    0.0000 C   0  0  0  0  0  0  0  0  0  0  0  0
    5.8585   -9.4624    0.0000 C   0  0  0  0  0  0  0  0  0  0  0  0
    6.2735  -10.1754    0.0000 C   0  0  0  0  0  0  0  0  0  0  0  0
    5.0286   -8.0363    0.0000 O   0  0  0  0  0  0  0  0  0  0  0  0
    5.8635  -10.8913    0.0000 C   0  0  0  0  0  0  0  0  0  0  0  0
    6.2785  -11.6044    0.0000 C   0  0  0  0  0  0  0  0  0  0  0  0
    7.1035  -11.6015    0.0000 C   0  0  0  0  0  0  0  0  0  0  0  0
    7.5135  -10.8856    0.0000 C   0  0  0  0  0  0  0  0  0  0  0  0
    7.0985  -10.1726    0.0000 C   0  0  0  0  0  0  0  0  0  0  0  0
    7.5185  -12.3145    0.0000 O   0  0  0  0  0  0  0  0  0  0  0  0
    5.8685  -12.3203    0.0000 O   0  0  0  0  0  0  0  0  0  0  0  0
    5.0435  -12.3231    0.0000 C   0  0  0  0  0  0  0  0  0  0  0  0
    9.1684   -6.1209    0.0000 O   0  0  0  0  0  0  0  0  0  0  0  0
  1  2  1  0  0  0  0
  2  3  1  0  0  0  0
  3  4  1  0  0  0  0
  4  5  1  0  0  0  0
  5  6  1  0  0  0  0
  6  1  1  0  0  0  0
  1  7  1  1  0  0  0
  3  8  1  1  0  0  0
  5  9  1  6  0  0  0
 10  9  1  6  0  0  0
 10 11  1  0  0  0  0
 11 12  1  0  0  0  0
 12 13  1  0  0  0  0
 13 14  1  0  0  0  0
 14 10  1  0  0  0  0
  2 15  1  6  0  0  0
  4 16  1  6  0  0  0
  7 17  1  0  0  0  0
 17 18  1  0  0  0  0
 17 19  2  0  0  0  0
 10 20  1  1  0  0  0
 12 21  1  1  0  0  0
 13 22  1  6  0  0  0
 11 23  1  6  0  0  0
 15 24  1  0  0  0  0
 24 25  1  0  0  0  0
 24 26  2  0  0  0  0
 20 27  1  0  0  0  0
 28 29  1  0  0  0  0
 29 30  2  0  0  0  0
 30 31  1  0  0  0  0
 28 32  2  0  0  0  0
 31 33  2  0  0  0  0
 33 34  1  0  0  0  0
 34 35  2  0  0  0  0
 35 36  1  0  0  0  0
 36 37  2  0  0  0  0
 37 31  1  0  0  0  0
 35 38  1  0  0  0  0
 34 39  1  0  0  0  0
 39 40  1  0  0  0  0
 41 42  1  0  0  0  0
 42 43  2  0  0  0  0
 43 44  1  0  0  0  0
 41 45  2  0  0  0  0
 44 46  2  0  0  0  0
 46 47  1  0  0  0  0
 47 48  2  0  0  0  0
 48 49  1  0  0  0  0
 49 50  2  0  0  0  0
 50 44  1  0  0  0  0
 48 51  1  0  0  0  0
 47 52  1  0  0  0  0
 52 53  1  0  0  0  0
 41 23  1  0  0  0  0
 22 54  1  0  0  0  0
 28 54  1  0  0  0  0
M  END
>  <cdx:fragmentId>
5

$$$$
