50604.cdx
  Mrv1902 05222410202D          

 41 47  0  0  0  0            999 V2000
    8.7501   -8.1365    0.0000 C   0  0  1  0  0  0  0  0  0  0  0  0
    8.7480   -7.3116    0.0000 C   0  0  2  0  0  0  0  0  0  0  0  0
    8.0325   -6.9009    0.0000 C   0  0  1  0  0  0  0  0  0  0  0  0
    7.3191   -7.3152    0.0000 C   0  0  0  0  0  0  0  0  0  0  0  0
    7.3212   -8.1402    0.0000 C   0  0  2  0  0  0  0  0  0  0  0  0
    8.0367   -8.5509    0.0000 C   0  0  2  0  0  0  0  0  0  0  0  0
    6.6077   -8.5545    0.0000 C   0  0  0  0  0  0  0  0  0  0  0  0
    6.6098   -9.3795    0.0000 C   0  0  1  0  0  0  0  0  0  0  0  0
    7.3254   -9.7902    0.0000 C   0  0  0  0  0  0  0  0  0  0  0  0
    8.0388   -9.3759    0.0000 C   0  0  0  0  0  0  0  0  0  0  0  0
    5.8922   -8.1438    0.0000 C   0  0  0  0  0  0  0  0  0  0  0  0
    5.1788   -8.5581    0.0000 C   0  0  0  0  0  0  0  0  0  0  0  0
    5.1809   -9.3831    0.0000 O   0  0  0  0  0  0  0  0  0  0  0  0
    5.8964   -9.7938    0.0000 C   0  0  1  0  0  0  0  0  0  0  0  0
    9.5354   -8.3895    0.0000 C   0  0  1  0  0  0  0  0  0  0  0  0
   10.0186   -7.7208    0.0000 O   0  0  0  0  0  0  0  0  0  0  0  0
    9.5320   -7.0546    0.0000 C   0  0  0  0  0  0  0  0  0  0  0  0
    6.6036   -6.9045    0.0000 O   0  0  0  0  0  0  0  0  0  0  0  0
    4.4633   -8.1474    0.0000 O   0  0  0  0  0  0  0  0  0  0  0  0
    8.1384   -8.6901    0.0000 C   0  0  0  0  0  0  0  0  0  0  0  0
    8.3120   -9.4967    0.0000 O   0  0  0  0  0  0  0  0  0  0  0  0
    9.0973   -9.7496    0.0000 C   0  0  0  0  0  0  0  0  0  0  0  0
    9.7089   -9.1960    0.0000 C   0  0  0  0  0  0  0  0  0  0  0  0
    9.2708  -10.5562    0.0000 O   0  0  0  0  0  0  0  0  0  0  0  0
    5.8985  -10.6188    0.0000 C   0  0  0  0  0  0  0  0  0  0  0  0
    5.2323  -11.1054    0.0000 C   0  0  0  0  0  0  0  0  0  0  0  0
    5.4892  -11.8894    0.0000 O   0  0  0  0  0  0  0  0  0  0  0  0
    6.3142  -11.8873    0.0000 C   0  0  0  0  0  0  0  0  0  0  0  0
    6.5672  -11.1020    0.0000 C   0  0  0  0  0  0  0  0  0  0  0  0
   10.1139   -6.4698    0.0000 C   0  0  0  0  0  0  0  0  0  0  0  0
    8.7459   -6.4866    0.0000 H   0  0  0  0  0  0  0  0  0  0  0  0
    8.0304   -6.0759    0.0000 O   0  0  0  0  0  0  0  0  0  0  0  0
    7.3233   -8.9652    0.0000 C   0  0  0  0  0  0  0  0  0  0  0  0
    6.6057   -7.7295    0.0000 O   0  0  0  0  0  0  0  0  0  0  0  0
   10.3328   -8.6010    0.0000 H   0  0  0  0  0  0  0  0  0  0  0  0
    8.0346   -7.7259    0.0000 H   0  0  0  0  0  0  0  0  0  0  0  0
    9.3164   -6.2583    0.0000 C   0  0  0  0  0  0  0  0  0  0  0  0
    6.6119  -10.2045    0.0000 C   0  0  0  0  0  0  0  0  0  0  0  0
    7.4456   -5.4940    0.0000 C   0  0  0  0  0  0  0  0  0  0  0  0
    6.6279   -5.6037    0.0000 O   0  0  0  0  0  0  0  0  0  0  0  0
    7.6571   -4.6966    0.0000 C   0  0  0  0  0  0  0  0  0  0  0  0
  1  2  1  0  0  0  0
  2  3  1  0  0  0  0
  3  4  1  0  0  0  0
  4  5  1  0  0  0  0
  5  6  1  0  0  0  0
  6  1  1  0  0  0  0
  5  7  1  0  0  0  0
  7  8  1  0  0  0  0
  8  9  1  0  0  0  0
  9 10  1  0  0  0  0
 10  6  1  0  0  0  0
  7 11  1  0  0  0  0
 11 12  1  0  0  0  0
 12 13  1  0  0  0  0
 13 14  1  0  0  0  0
 14  8  1  0  0  0  0
  1 15  1  0  0  0  0
 15 16  1  0  0  0  0
 16 17  1  0  0  0  0
 17  2  1  0  0  0  0
  4 18  2  0  0  0  0
 12 19  2  0  0  0  0
  1 20  1  1  0  0  0
 20 21  1  0  0  0  0
 21 22  1  0  0  0  0
 22 23  1  0  0  0  0
 23 15  1  0  0  0  0
 22 24  2  0  0  0  0
 14 25  1  6  0  0  0
 25 26  2  0  0  0  0
 26 27  1  0  0  0  0
 27 28  1  0  0  0  0
 28 29  2  0  0  0  0
 29 25  1  0  0  0  0
 17 30  1  0  0  0  0
  2 31  1  1  0  0  0
  3 32  1  1  0  0  0
  5 33  1  1  0  0  0
  7 34  1  0  0  0  0
 11 34  1  0  0  0  0
 15 35  1  6  0  0  0
  6 36  1  6  0  0  0
 17 37  1  0  0  0  0
  8 38  1  6  0  0  0
 32 39  1  0  0  0  0
 39 40  2  0  0  0  0
 39 41  1  0  0  0  0
M  END
>  <cdx:fragmentId>
5

$$$$
