50598.cdx
  Mrv1902 05222410182D          

 22 21  0  0  0  0            999 V2000
    0.3850   -8.0850    0.0000 O   0  0  0  0  0  0  0  0  0  0  0  0
    1.0994   -7.6725    0.0000 C   0  0  0  0  0  0  0  0  0  0  0  0
    1.8139   -8.0850    0.0000 C   0  0  0  0  0  0  0  0  0  0  0  0
    2.5283   -7.6725    0.0000 C   0  0  0  0  0  0  0  0  0  0  0  0
    3.2428   -8.0850    0.0000 C   0  0  0  0  0  0  0  0  0  0  0  0
    3.9572   -7.6725    0.0000 C   0  0  0  0  0  0  0  0  0  0  0  0
    4.6717   -8.0850    0.0000 C   0  0  0  0  0  0  0  0  0  0  0  0
    5.3864   -7.6725    0.0000 C   0  0  0  0  0  0  0  0  0  0  0  0
    6.1009   -8.0850    0.0000 C   0  0  0  0  0  0  0  0  0  0  0  0
    6.8153   -7.6725    0.0000 C   0  0  0  0  0  0  0  0  0  0  0  0
    7.5298   -8.0850    0.0000 C   0  0  0  0  0  0  0  0  0  0  0  0
    8.2442   -7.6725    0.0000 C   0  0  0  0  0  0  0  0  0  0  0  0
    8.9587   -8.0850    0.0000 C   0  0  0  0  0  0  0  0  0  0  0  0
    9.6731   -7.6725    0.0000 C   0  0  0  0  0  0  0  0  0  0  0  0
   10.3876   -8.0850    0.0000 C   0  0  0  0  0  0  0  0  0  0  0  0
   11.1020   -7.6725    0.0000 C   0  0  0  0  0  0  0  0  0  0  0  0
   11.8165   -8.0850    0.0000 C   0  0  0  0  0  0  0  0  0  0  0  0
   12.5309   -7.6725    0.0000 C   0  0  0  0  0  0  0  0  0  0  0  0
    1.0994   -6.8475    0.0000 O   0  0  0  0  0  0  0  0  0  0  0  0
   13.2454   -8.0850    0.0000 C   0  0  0  0  0  0  0  0  0  0  0  0
   13.2454   -8.9100    0.0000 O   0  0  0  0  0  0  0  0  0  0  0  0
   13.9598   -7.6725    0.0000 O   0  0  0  0  0  0  0  0  0  0  0  0
  1  2  1  0  0  0  0
  2  3  1  0  0  0  0
  3  4  1  0  0  0  0
  4  5  1  0  0  0  0
  5  6  1  0  0  0  0
  6  7  1  0  0  0  0
  7  8  1  0  0  0  0
  8  9  2  0  0  0  0
  9 10  1  0  0  0  0
 10 11  1  0  0  0  0
 11 12  1  0  0  0  0
 12 13  2  0  0  0  0
 13 14  1  0  0  0  0
 14 15  1  0  0  0  0
 15 16  1  0  0  0  0
 16 17  1  0  0  0  0
 17 18  1  0  0  0  0
  2 19  2  0  0  0  0
 18 20  1  0  0  0  0
 20 21  2  0  0  0  0
 20 22  1  0  0  0  0
M  END
>  <cdx:fragmentId>
3

$$$$
