50606.cdx
  Mrv1902 05222410192D          

 22 24  0  0  0  0            999 V2000
    6.4850   -8.3933    0.0000 C   0  0  2  0  0  0  0  0  0  0  0  0
    5.5248   -8.7499    0.0000 C   0  0  0  0  0  0  0  0  0  0  0  0
    5.1898   -8.0040    0.0000 C   0  0  0  0  0  0  0  0  0  0  0  0
    6.2621   -7.6473    0.0000 C   0  0  1  0  0  0  0  0  0  0  0  0
    6.8287   -6.8059    0.0000 N   0  0  0  0  0  0  0  0  0  0  0  0
    7.5834   -7.9461    0.0000 C   0  0  0  0  0  0  0  0  0  0  0  0
    7.2969   -8.9351    0.0000 C   0  0  0  0  0  0  0  0  0  0  0  0
    7.8902   -8.5526    0.0000 C   0  0  0  0  0  0  0  0  0  0  0  0
    7.1523   -6.0469    0.0000 C   0  0  0  0  0  0  0  0  0  0  0  0
    5.2061   -9.5108    0.0000 C   0  0  0  0  0  0  0  0  0  0  0  0
    4.4092   -9.7244    0.0000 C   0  0  0  0  0  0  0  0  0  0  0  0
    5.7488  -10.1322    0.0000 O   0  0  0  0  0  0  0  0  0  0  0  0
    8.6865   -8.7686    0.0000 C   0  0  0  0  0  0  0  0  0  0  0  0
    9.2698   -8.1852    0.0000 C   0  0  0  0  0  0  0  0  0  0  0  0
    8.8987   -9.5658    0.0000 O   0  0  0  0  0  0  0  0  0  0  0  0
   10.0667   -8.3987    0.0000 C   0  0  0  0  0  0  0  0  0  0  0  0
   10.6501   -7.8154    0.0000 C   0  0  0  0  0  0  0  0  0  0  0  0
   10.4365   -7.0185    0.0000 C   0  0  0  0  0  0  0  0  0  0  0  0
    9.6397   -6.8050    0.0000 C   0  0  0  0  0  0  0  0  0  0  0  0
    9.0563   -7.3883    0.0000 C   0  0  0  0  0  0  0  0  0  0  0  0
    6.6985   -9.1902    0.0000 H   0  0  0  0  0  0  0  0  0  0  0  0
    6.0486   -6.8504    0.0000 H   0  0  0  0  0  0  0  0  0  0  0  0
  1  2  1  0  0  0  0
  2  3  1  0  0  0  0
  3  4  1  0  0  0  0
  4  5  1  0  0  0  0
  4  6  1  0  0  0  0
  1  7  1  0  0  0  0
  6  8  1  0  0  0  0
  7  8  1  0  0  0  0
  5  1  1  0  0  0  0
  5  9  1  0  0  0  0
  2 10  1  0  0  0  0
 10 11  1  0  0  0  0
 10 12  2  0  0  0  0
  8 13  1  0  0  0  0
 13 14  1  0  0  0  0
 13 15  2  0  0  0  0
 14 16  2  0  0  0  0
 16 17  1  0  0  0  0
 17 18  2  0  0  0  0
 18 19  1  0  0  0  0
 19 20  2  0  0  0  0
 20 14  1  0  0  0  0
  1 21  1  1  0  0  0
  4 22  1  6  0  0  0
M  END
>  <cdx:groupId>
816

>  <cdx:fragmentId>
817

$$$$
