50609.cdx
  Mrv1902 05222410262D          

 55 60  0  0  0  0            999 V2000
    6.2131   -7.5751    0.0000 C   0  0  0  0  0  0  0  0  0  0  0  0
    6.2131   -8.4001    0.0000 C   0  0  0  0  0  0  0  0  0  0  0  0
    6.9275   -8.8126    0.0000 C   0  0  0  0  0  0  0  0  0  0  0  0
    7.6420   -8.4001    0.0000 C   0  0  0  0  0  0  0  0  0  0  0  0
    7.6420   -7.5751    0.0000 C   0  0  0  0  0  0  0  0  0  0  0  0
    6.9275   -7.1626    0.0000 C   0  0  0  0  0  0  0  0  0  0  0  0
    8.3565   -8.8126    0.0000 C   0  0  0  0  0  0  0  0  0  0  0  0
    9.0709   -8.4001    0.0000 C   0  0  0  0  0  0  0  0  0  0  0  0
    9.0709   -7.5751    0.0000 C   0  0  0  0  0  0  0  0  0  0  0  0
    8.3565   -7.1626    0.0000 O   0  0  0  0  0  0  0  0  0  0  0  0
   10.4999   -7.5751    0.0000 C   0  0  0  0  0  0  0  0  0  0  0  0
    9.7854   -7.1626    0.0000 C   0  0  0  0  0  0  0  0  0  0  0  0
   11.2144   -7.1626    0.0000 C   0  0  0  0  0  0  0  0  0  0  0  0
   11.2144   -6.3376    0.0000 C   0  0  0  0  0  0  0  0  0  0  0  0
   10.4999   -5.9251    0.0000 C   0  0  0  0  0  0  0  0  0  0  0  0
    9.7854   -6.3376    0.0000 C   0  0  0  0  0  0  0  0  0  0  0  0
    5.4986   -7.1626    0.0000 O   0  0  0  0  0  0  0  0  0  0  0  0
    5.4986   -8.8126    0.0000 O   0  0  0  0  0  0  0  0  0  0  0  0
    6.9275   -9.6376    0.0000 O   0  0  0  0  0  0  0  0  0  0  0  0
    8.3565   -9.6376    0.0000 O   0  0  0  0  0  0  0  0  0  0  0  0
    9.7854   -8.8126    0.0000 O   0  0  0  0  0  0  0  0  0  0  0  0
   11.9288   -5.9251    0.0000 O   0  0  0  0  0  0  0  0  0  0  0  0
    3.3531   -9.2389    0.0000 C   0  0  2  0  0  0  0  0  0  0  0  0
    3.3531  -10.0639    0.0000 C   0  0  2  0  0  0  0  0  0  0  0  0
    4.0675  -10.4764    0.0000 C   0  0  1  0  0  0  0  0  0  0  0  0
    4.7820  -10.0639    0.0000 C   0  0  2  0  0  0  0  0  0  0  0  0
    4.7820   -9.2389    0.0000 C   0  0  1  0  0  0  0  0  0  0  0  0
    4.0675   -8.8264    0.0000 O   0  0  0  0  0  0  0  0  0  0  0  0
    2.6386   -8.8264    0.0000 C   0  0  0  0  0  0  0  0  0  0  0  0
    4.0675  -11.3014    0.0000 O   0  0  0  0  0  0  0  0  0  0  0  0
    5.4965  -10.4764    0.0000 O   0  0  0  0  0  0  0  0  0  0  0  0
    2.6386  -10.4764    0.0000 O   0  0  0  0  0  0  0  0  0  0  0  0
    1.9241   -9.2389    0.0000 O   0  0  0  0  0  0  0  0  0  0  0  0
    9.0530  -10.8725    0.0000 C   0  0  2  0  0  0  0  0  0  0  0  0
    9.7675  -11.2850    0.0000 C   0  0  2  0  0  0  0  0  0  0  0  0
   10.4820  -10.8725    0.0000 C   0  0  1  0  0  0  0  0  0  0  0  0
   10.4819  -10.0475    0.0000 C   0  0  2  0  0  0  0  0  0  0  0  0
    9.7675   -9.6350    0.0000 C   0  0  1  0  0  0  0  0  0  0  0  0
    9.0530  -10.0475    0.0000 O   0  0  0  0  0  0  0  0  0  0  0  0
    8.3386  -11.2851    0.0000 C   0  0  0  0  0  0  0  0  0  0  0  0
   11.1964  -11.2850    0.0000 O   0  0  0  0  0  0  0  0  0  0  0  0
   11.1964   -9.6350    0.0000 O   0  0  0  0  0  0  0  0  0  0  0  0
    9.7675  -12.1100    0.0000 O   0  0  0  0  0  0  0  0  0  0  0  0
    8.3386  -12.1101    0.0000 O   0  0  0  0  0  0  0  0  0  0  0  0
    5.0765   -5.0042    0.0000 C   0  0  2  0  0  0  0  0  0  0  0  0
    4.2515   -5.0042    0.0000 C   0  0  2  0  0  0  0  0  0  0  0  0
    3.8390   -5.7186    0.0000 C   0  0  1  0  0  0  0  0  0  0  0  0
    4.2515   -6.4331    0.0000 C   0  0  2  0  0  0  0  0  0  0  0  0
    5.0765   -6.4331    0.0000 C   0  0  1  0  0  0  0  0  0  0  0  0
    5.4890   -5.7186    0.0000 O   0  0  0  0  0  0  0  0  0  0  0  0
    5.4890   -4.2897    0.0000 C   0  0  0  0  0  0  0  0  0  0  0  0
    3.0140   -5.7186    0.0000 O   0  0  0  0  0  0  0  0  0  0  0  0
    3.8390   -7.1476    0.0000 O   0  0  0  0  0  0  0  0  0  0  0  0
    3.8390   -4.2897    0.0000 O   0  0  0  0  0  0  0  0  0  0  0  0
    5.0765   -3.5752    0.0000 O   0  0  0  0  0  0  0  0  0  0  0  0
  1  2  2  0  0  0  0
  2  3  1  0  0  0  0
  3  4  2  0  0  0  0
  4  5  1  0  0  0  0
  5  6  2  0  0  0  0
  6  1  1  0  0  0  0
  4  7  1  0  0  0  0
  7  8  1  0  0  0  0
  8  9  2  0  0  0  0
  9 10  1  0  0  0  0
 10  5  1  0  0  0  0
 11 12  2  0  0  0  0
 12  9  1  0  0  0  0
 11 13  1  0  0  0  0
 13 14  2  0  0  0  0
 14 15  1  0  0  0  0
 15 16  2  0  0  0  0
 16 12  1  0  0  0  0
  1 17  1  0  0  0  0
  2 18  1  0  0  0  0
  3 19  1  0  0  0  0
  7 20  2  0  0  0  0
  8 21  1  0  0  0  0
 14 22  1  0  0  0  0
 23 24  1  0  0  0  0
 24 25  1  0  0  0  0
 25 26  1  0  0  0  0
 26 27  1  0  0  0  0
 27 28  1  0  0  0  0
 28 23  1  0  0  0  0
 23 29  1  1  0  0  0
 25 30  1  1  0  0  0
 26 31  1  6  0  0  0
 24 32  1  6  0  0  0
 29 33  1  0  0  0  0
 34 35  1  0  0  0  0
 35 36  1  0  0  0  0
 36 37  1  0  0  0  0
 37 38  1  0  0  0  0
 38 39  1  0  0  0  0
 39 34  1  0  0  0  0
 34 40  1  1  0  0  0
 36 41  1  1  0  0  0
 37 42  1  6  0  0  0
 35 43  1  6  0  0  0
 40 44  1  0  0  0  0
 27 18  1  1  0  0  0
 38 21  1  1  0  0  0
 45 46  1  0  0  0  0
 46 47  1  0  0  0  0
 47 48  1  0  0  0  0
 48 49  1  0  0  0  0
 49 50  1  0  0  0  0
 50 45  1  0  0  0  0
 45 51  1  1  0  0  0
 47 52  1  1  0  0  0
 48 53  1  6  0  0  0
 46 54  1  6  0  0  0
 51 55  1  0  0  0  0
 49 17  1  1  0  0  0
M  END
>  <cdx:fragmentId>
5

$$$$
