50611.cdx
  Mrv1902 05222410202D          

 23 25  0  0  0  0            999 V2000
    4.6593   -7.0526    0.0000 C   0  0  0  0  0  0  0  0  0  0  0  0
    4.6593   -7.8776    0.0000 C   0  0  0  0  0  0  0  0  0  0  0  0
    5.3738   -8.2901    0.0000 C   0  0  0  0  0  0  0  0  0  0  0  0
    6.0882   -7.8776    0.0000 C   0  0  0  0  0  0  0  0  0  0  0  0
    6.0882   -7.0526    0.0000 C   0  0  0  0  0  0  0  0  0  0  0  0
    5.3738   -6.6401    0.0000 C   0  0  0  0  0  0  0  0  0  0  0  0
    6.8027   -8.2901    0.0000 C   0  0  0  0  0  0  0  0  0  0  0  0
    7.5172   -7.8776    0.0000 C   0  0  0  0  0  0  0  0  0  0  0  0
    7.5172   -7.0526    0.0000 C   0  0  0  0  0  0  0  0  0  0  0  0
    6.8027   -6.6401    0.0000 O   0  0  0  0  0  0  0  0  0  0  0  0
    8.9461   -7.0526    0.0000 C   0  0  0  0  0  0  0  0  0  0  0  0
    8.2317   -6.6401    0.0000 C   0  0  0  0  0  0  0  0  0  0  0  0
    9.6606   -6.6401    0.0000 C   0  0  0  0  0  0  0  0  0  0  0  0
    9.6606   -5.8151    0.0000 C   0  0  0  0  0  0  0  0  0  0  0  0
    8.9461   -5.4026    0.0000 C   0  0  0  0  0  0  0  0  0  0  0  0
    8.2317   -5.8151    0.0000 C   0  0  0  0  0  0  0  0  0  0  0  0
    6.8027   -9.1151    0.0000 O   0  0  0  0  0  0  0  0  0  0  0  0
    5.3738   -9.1151    0.0000 O   0  0  0  0  0  0  0  0  0  0  0  0
    3.9448   -6.6401    0.0000 O   0  0  0  0  0  0  0  0  0  0  0  0
    3.9448   -8.2901    0.0000 O   0  0  0  0  0  0  0  0  0  0  0  0
    3.2304   -7.8776    0.0000 C   0  0  0  0  0  0  0  0  0  0  0  0
    5.3738   -5.8151    0.0000 O   0  0  0  0  0  0  0  0  0  0  0  0
    4.6593   -5.4026    0.0000 C   0  0  0  0  0  0  0  0  0  0  0  0
  1  2  2  0  0  0  0
  2  3  1  0  0  0  0
  3  4  2  0  0  0  0
  4  5  1  0  0  0  0
  5  6  2  0  0  0  0
  6  1  1  0  0  0  0
  4  7  1  0  0  0  0
  7  8  1  0  0  0  0
  8  9  2  0  0  0  0
  9 10  1  0  0  0  0
 10  5  1  0  0  0  0
 11 12  2  0  0  0  0
 12  9  1  0  0  0  0
 11 13  1  0  0  0  0
 13 14  2  0  0  0  0
 14 15  1  0  0  0  0
 15 16  2  0  0  0  0
 16 12  1  0  0  0  0
  7 17  2  0  0  0  0
  3 18  1  0  0  0  0
  1 19  1  0  0  0  0
  2 20  1  0  0  0  0
 20 21  1  0  0  0  0
  6 22  1  0  0  0  0
 22 23  1  0  0  0  0
M  END
>  <cdx:fragmentId>
5

$$$$
