50616.cdx
  Mrv1902 05222410192D          

 33 36  0  0  0  0            999 V2000
    5.9111   -6.8549    0.0000 O   0  0  0  0  0  0  0  0  0  0  0  0
    5.1965   -7.2672    0.0000 C   0  0  2  0  0  0  0  0  0  0  0  0
    4.4821   -6.8545    0.0000 O   0  0  0  0  0  0  0  0  0  0  0  0
    3.7676   -7.2668    0.0000 C   0  0  1  0  0  0  0  0  0  0  0  0
    3.7673   -8.0918    0.0000 C   0  0  2  0  0  0  0  0  0  0  0  0
    4.4817   -8.5045    0.0000 C   0  0  1  0  0  0  0  0  0  0  0  0
    5.1963   -8.0922    0.0000 C   0  0  1  0  0  0  0  0  0  0  0  0
    3.0532   -6.8541    0.0000 C   0  0  0  0  0  0  0  0  0  0  0  0
    4.4815   -9.3295    0.0000 O   0  0  0  0  0  0  0  0  0  0  0  0
    5.9106   -8.5049    0.0000 O   0  0  0  0  0  0  0  0  0  0  0  0
    3.0527   -8.5041    0.0000 O   0  0  0  0  0  0  0  0  0  0  0  0
    2.3386   -7.2664    0.0000 O   0  0  0  0  0  0  0  0  0  0  0  0
   12.3413  -10.5674    0.0000 C   0  0  0  0  0  0  0  0  0  0  0  0
   12.3413   -9.7424    0.0000 O   0  0  0  0  0  0  0  0  0  0  0  0
   11.6269   -6.8549    0.0000 C   0  0  0  0  0  0  0  0  0  0  0  0
   10.9124   -7.2674    0.0000 O   0  0  0  0  0  0  0  0  0  0  0  0
   12.3413   -8.0924    0.0000 O   0  0  0  0  0  0  0  0  0  0  0  0
   10.9124   -9.7424    0.0000 C   0  0  0  0  0  0  0  0  0  0  0  0
   11.6269   -9.3299    0.0000 C   0  0  0  0  0  0  0  0  0  0  0  0
   11.6269   -8.5049    0.0000 C   0  0  0  0  0  0  0  0  0  0  0  0
   10.9124   -8.0924    0.0000 C   0  0  0  0  0  0  0  0  0  0  0  0
   10.1979   -9.3299    0.0000 C   0  0  0  0  0  0  0  0  0  0  0  0
   10.1979   -8.5049    0.0000 C   0  0  0  0  0  0  0  0  0  0  0  0
    8.7690   -8.5049    0.0000 C   0  0  0  0  0  0  0  0  0  0  0  0
    9.4834   -8.0924    0.0000 C   0  0  0  0  0  0  0  0  0  0  0  0
    9.4834   -7.2674    0.0000 C   0  0  0  0  0  0  0  0  0  0  0  0
    8.7690   -6.8549    0.0000 O   0  0  0  0  0  0  0  0  0  0  0  0
    7.3400   -8.5049    0.0000 C   0  0  0  0  0  0  0  0  0  0  0  0
    8.0545   -8.0924    0.0000 C   0  0  0  0  0  0  0  0  0  0  0  0
    8.0545   -7.2674    0.0000 C   0  0  0  0  0  0  0  0  0  0  0  0
    7.3400   -6.8549    0.0000 C   0  0  0  0  0  0  0  0  0  0  0  0
    6.6256   -7.2674    0.0000 C   0  0  0  0  0  0  0  0  0  0  0  0
    6.6256   -8.0924    0.0000 C   0  0  0  0  0  0  0  0  0  0  0  0
  2  1  1  1  0  0  0
  2  3  1  0  0  0  0
  3  4  1  0  0  0  0
  4  5  1  0  0  0  0
  5  6  1  0  0  0  0
  6  7  1  0  0  0  0
  7  2  1  0  0  0  0
  4  8  1  1  0  0  0
  6  9  1  1  0  0  0
  7 10  1  6  0  0  0
  5 11  1  6  0  0  0
 14 13  1  0  0  0  0
 19 14  1  0  0  0  0
 16 15  1  0  0  0  0
 21 16  1  0  0  0  0
 32  1  1  0  0  0  0
  8 12  1  0  0  0  0
 20 17  1  0  0  0  0
 18 22  1  0  0  0  0
 19 18  2  0  0  0  0
 20 19  1  0  0  0  0
 21 20  2  0  0  0  0
 23 21  1  0  0  0  0
 23 22  2  0  0  0  0
 25 23  1  0  0  0  0
 24 29  1  0  0  0  0
 25 24  1  0  0  0  0
 26 25  1  0  0  0  0
 27 26  1  0  0  0  0
 30 27  1  0  0  0  0
 28 33  1  0  0  0  0
 29 28  2  0  0  0  0
 30 29  1  0  0  0  0
 31 30  2  0  0  0  0
 32 31  1  0  0  0  0
 33 32  2  0  0  0  0
M  END
>  <cdx:fragmentId>
5

$$$$
