50617.cdx
  Mrv1902 05222410192D          

 22 24  0  0  0  0            999 V2000
    2.8316   -7.5149    0.0000 C   0  0  0  0  0  0  0  0  0  0  0  0
    3.5461   -7.9274    0.0000 O   0  0  0  0  0  0  0  0  0  0  0  0
    9.9763   -9.9899    0.0000 C   0  0  0  0  0  0  0  0  0  0  0  0
    9.9763   -9.1649    0.0000 O   0  0  0  0  0  0  0  0  0  0  0  0
    3.5461   -6.2774    0.0000 O   0  0  0  0  0  0  0  0  0  0  0  0
    9.9763   -7.5149    0.0000 O   0  0  0  0  0  0  0  0  0  0  0  0
    8.5474   -9.1649    0.0000 C   0  0  0  0  0  0  0  0  0  0  0  0
    9.2619   -8.7524    0.0000 C   0  0  0  0  0  0  0  0  0  0  0  0
    9.2619   -7.9274    0.0000 C   0  0  0  0  0  0  0  0  0  0  0  0
    8.5474   -7.5149    0.0000 C   0  0  0  0  0  0  0  0  0  0  0  0
    7.8329   -8.7524    0.0000 C   0  0  0  0  0  0  0  0  0  0  0  0
    7.8329   -7.9274    0.0000 C   0  0  0  0  0  0  0  0  0  0  0  0
    6.4040   -7.9274    0.0000 C   0  0  0  0  0  0  0  0  0  0  0  0
    7.1184   -7.5149    0.0000 C   0  0  0  0  0  0  0  0  0  0  0  0
    7.1184   -6.6899    0.0000 C   0  0  0  0  0  0  0  0  0  0  0  0
    6.4040   -6.2774    0.0000 O   0  0  0  0  0  0  0  0  0  0  0  0
    4.9750   -7.9274    0.0000 C   0  0  0  0  0  0  0  0  0  0  0  0
    5.6895   -7.5149    0.0000 C   0  0  0  0  0  0  0  0  0  0  0  0
    5.6895   -6.6899    0.0000 C   0  0  0  0  0  0  0  0  0  0  0  0
    4.9750   -6.2774    0.0000 C   0  0  0  0  0  0  0  0  0  0  0  0
    4.2606   -6.6899    0.0000 C   0  0  0  0  0  0  0  0  0  0  0  0
    4.2606   -7.5149    0.0000 C   0  0  0  0  0  0  0  0  0  0  0  0
  2  1  1  0  0  0  0
 22  2  1  0  0  0  0
  4  3  1  0  0  0  0
  8  4  1  0  0  0  0
 21  5  1  0  0  0  0
  9  6  1  0  0  0  0
  7 11  1  0  0  0  0
  8  7  2  0  0  0  0
  9  8  1  0  0  0  0
 10  9  2  0  0  0  0
 12 10  1  0  0  0  0
 12 11  2  0  0  0  0
 14 12  1  0  0  0  0
 13 18  1  0  0  0  0
 14 13  1  0  0  0  0
 15 14  1  0  0  0  0
 16 15  1  0  0  0  0
 19 16  1  0  0  0  0
 17 22  1  0  0  0  0
 18 17  2  0  0  0  0
 19 18  1  0  0  0  0
 20 19  2  0  0  0  0
 21 20  1  0  0  0  0
 22 21  2  0  0  0  0
M  END
>  <cdx:fragmentId>
5

$$$$
