50626.cdx
  Mrv1902 05222410272D          

 17 19  0  0  0  0            999 V2000
    4.7927  -10.2676    0.0000 O   0  0  0  0  0  0  0  0  0  0  0  0
    9.7724   -8.9458    0.0000 O   0  0  0  0  0  0  0  0  0  0  0  0
    6.8870   -7.3443    0.0000 O   0  0  0  0  0  0  0  0  0  0  0  0
    6.1935   -8.5937    0.0000 C   0  0  0  0  0  0  0  0  0  0  0  0
    5.4862   -9.0182    0.0000 C   0  0  0  0  0  0  0  0  0  0  0  0
    5.5001   -9.8431    0.0000 C   0  0  0  0  0  0  0  0  0  0  0  0
    6.2214  -10.2434    0.0000 C   0  0  0  0  0  0  0  0  0  0  0  0
    6.9149   -8.9941    0.0000 C   0  0  0  0  0  0  0  0  0  0  0  0
    6.9288   -9.8189    0.0000 C   0  0  0  0  0  0  0  0  0  0  0  0
    7.6502  -10.2193    0.0000 C   0  0  0  0  0  0  0  0  0  0  0  0
    8.3576   -9.7948    0.0000 C   0  0  0  0  0  0  0  0  0  0  0  0
    7.6083   -7.7447    0.0000 C   0  0  0  0  0  0  0  0  0  0  0  0
    7.6223   -8.5695    0.0000 C   0  0  0  0  0  0  0  0  0  0  0  0
    8.3436   -8.9699    0.0000 C   0  0  0  0  0  0  0  0  0  0  0  0
    9.0510   -8.5454    0.0000 C   0  0  0  0  0  0  0  0  0  0  0  0
    9.0371   -7.7205    0.0000 C   0  0  0  0  0  0  0  0  0  0  0  0
    8.3157   -7.3201    0.0000 C   0  0  0  0  0  0  0  0  0  0  0  0
  6  1  1  0  0  0  0
 15  2  2  0  0  0  0
 12  3  2  0  0  0  0
  4  8  2  0  0  0  0
  5  4  1  0  0  0  0
  6  5  2  0  0  0  0
  7  6  1  0  0  0  0
  9  7  2  0  0  0  0
  8 13  1  0  0  0  0
  9  8  1  0  0  0  0
 10  9  1  0  0  0  0
 11 10  1  0  0  0  0
 14 11  1  0  0  0  0
 12 17  1  0  0  0  0
 13 12  1  0  0  0  0
 14 13  2  0  0  0  0
 15 14  1  0  0  0  0
 16 15  1  0  0  0  0
 17 16  2  0  0  0  0
M  END
>  <cdx:fragmentId>
5

$$$$
