50620.cdx
  Mrv1902 05222410262D          

 42 47  0  0  0  0            999 V2000
    3.7381   -5.7739    0.0000 C   0  0  0  0  0  0  0  0  0  0  0  0
    3.7381   -6.5989    0.0000 C   0  0  0  0  0  0  0  0  0  0  0  0
    4.4525   -7.0114    0.0000 C   0  0  0  0  0  0  0  0  0  0  0  0
    5.1670   -6.5989    0.0000 C   0  0  0  0  0  0  0  0  0  0  0  0
    5.1670   -5.7739    0.0000 C   0  0  0  0  0  0  0  0  0  0  0  0
    4.4525   -5.3614    0.0000 C   0  0  0  0  0  0  0  0  0  0  0  0
    5.8815   -7.0114    0.0000 O   0  0  0  0  0  0  0  0  0  0  0  0
    6.5959   -6.5989    0.0000 C   0  0  0  0  0  0  0  0  0  0  0  0
    6.5959   -5.7739    0.0000 C   0  0  0  0  0  0  0  0  0  0  0  0
    5.8815   -5.3614    0.0000 C   0  0  0  0  0  0  0  0  0  0  0  0
    7.3104   -7.0114    0.0000 C   0  0  0  0  0  0  0  0  0  0  0  0
    8.0249   -6.5989    0.0000 C   0  0  0  0  0  0  0  0  0  0  0  0
    7.3104   -7.8364    0.0000 C   0  0  0  0  0  0  0  0  0  0  0  0
    8.0249   -8.2489    0.0000 C   0  0  0  0  0  0  0  0  0  0  0  0
    8.7394   -7.8364    0.0000 C   0  0  0  0  0  0  0  0  0  0  0  0
    8.7394   -7.0114    0.0000 C   0  0  0  0  0  0  0  0  0  0  0  0
    3.0236   -7.0114    0.0000 O   0  0  0  0  0  0  0  0  0  0  0  0
    3.0236   -7.8364    0.0000 O   0  0  0  0  0  0  0  0  0  0  0  0
    3.7381   -8.2489    0.0000 C   0  0  0  0  0  0  0  0  0  0  0  0
    4.4525   -7.8364    0.0000 C   0  0  0  0  0  0  0  0  0  0  0  0
    3.7381   -9.0739    0.0000 C   0  0  0  0  0  0  0  0  0  0  0  0
    4.4525   -9.4864    0.0000 C   0  0  0  0  0  0  0  0  0  0  0  0
    5.1670   -9.0739    0.0000 C   0  0  0  0  0  0  0  0  0  0  0  0
    5.1670   -8.2489    0.0000 C   0  0  0  0  0  0  0  0  0  0  0  0
    5.8815  -10.3114    0.0000 O   0  0  0  0  0  0  0  0  0  0  0  0
    5.8815   -9.4864    0.0000 C   0  0  0  0  0  0  0  0  0  0  0  0
    6.5959  -10.7239    0.0000 C   0  0  0  0  0  0  0  0  0  0  0  0
    7.3104  -10.3114    0.0000 C   0  0  0  0  0  0  0  0  0  0  0  0
    7.3104   -9.4864    0.0000 C   0  0  0  0  0  0  0  0  0  0  0  0
    6.5959   -9.0739    0.0000 C   0  0  0  0  0  0  0  0  0  0  0  0
    6.5959  -11.5489    0.0000 C   0  0  0  0  0  0  0  0  0  0  0  0
    7.3104  -11.9614    0.0000 C   0  0  0  0  0  0  0  0  0  0  0  0
    8.0249  -11.5489    0.0000 C   0  0  0  0  0  0  0  0  0  0  0  0
    8.0249  -10.7239    0.0000 C   0  0  0  0  0  0  0  0  0  0  0  0
    8.7394  -10.3114    0.0000 O   0  0  0  0  0  0  0  0  0  0  0  0
    8.0249   -9.0739    0.0000 O   0  0  0  0  0  0  0  0  0  0  0  0
    4.4525   -4.5364    0.0000 O   0  0  0  0  0  0  0  0  0  0  0  0
    5.8815   -4.5364    0.0000 O   0  0  0  0  0  0  0  0  0  0  0  0
    9.4538   -8.2489    0.0000 O   0  0  0  0  0  0  0  0  0  0  0  0
    7.3104  -12.7864    0.0000 O   0  0  0  0  0  0  0  0  0  0  0  0
    8.0249  -13.1989    0.0000 C   0  0  0  0  0  0  0  0  0  0  0  0
    2.3091   -6.5989    0.0000 C   0  0  0  0  0  0  0  0  0  0  0  0
  1  2  1  0  0  0  0
  2  3  2  0  0  0  0
  3  4  1  0  0  0  0
  4  5  2  0  0  0  0
  5  6  1  0  0  0  0
  6  1  2  0  0  0  0
  4  7  1  0  0  0  0
  7  8  1  0  0  0  0
  8  9  2  0  0  0  0
  9 10  1  0  0  0  0
 10  5  1  0  0  0  0
  8 11  1  0  0  0  0
 11 12  2  0  0  0  0
 11 13  1  0  0  0  0
 13 14  2  0  0  0  0
 14 15  1  0  0  0  0
 15 16  2  0  0  0  0
 16 12  1  0  0  0  0
  2 17  1  0  0  0  0
 18 19  1  0  0  0  0
 19 20  2  0  0  0  0
 20  3  1  0  0  0  0
 19 21  1  0  0  0  0
 21 22  2  0  0  0  0
 22 23  1  0  0  0  0
 23 24  2  0  0  0  0
 24 20  1  0  0  0  0
 25 26  1  0  0  0  0
 26 23  1  0  0  0  0
 25 27  1  0  0  0  0
 27 28  1  0  0  0  0
 28 29  1  0  0  0  0
 29 30  1  0  0  0  0
 30 26  2  0  0  0  0
 27 31  2  0  0  0  0
 31 32  1  0  0  0  0
 32 33  2  0  0  0  0
 33 34  1  0  0  0  0
 34 28  2  0  0  0  0
 34 35  1  0  0  0  0
 36 29  2  0  0  0  0
  6 37  1  0  0  0  0
 10 38  2  0  0  0  0
 15 39  1  0  0  0  0
 32 40  1  0  0  0  0
 40 41  1  0  0  0  0
 17 42  1  0  0  0  0
M  END
>  <cdx:fragmentId>
5

$$$$
