50623.cdx
  Mrv1902 05222410272D          

 14 15  0  0  0  0            999 V2000
    5.1406   -8.3039    0.0000 C   0  0  0  0  0  0  0  0  0  0  0  0
    5.1406   -9.1289    0.0000 C   0  0  0  0  0  0  0  0  0  0  0  0
    5.8550   -9.5414    0.0000 C   0  0  0  0  0  0  0  0  0  0  0  0
    6.5695   -9.1289    0.0000 C   0  0  0  0  0  0  0  0  0  0  0  0
    6.5695   -8.3039    0.0000 C   0  0  0  0  0  0  0  0  0  0  0  0
    5.8550   -7.8914    0.0000 C   0  0  0  0  0  0  0  0  0  0  0  0
    7.2840   -9.5414    0.0000 O   0  0  0  0  0  0  0  0  0  0  0  0
    7.9984   -9.1289    0.0000 C   0  0  0  0  0  0  0  0  0  0  0  0
    7.9984   -8.3039    0.0000 C   0  0  0  0  0  0  0  0  0  0  0  0
    7.2840   -7.8914    0.0000 C   0  0  0  0  0  0  0  0  0  0  0  0
    7.2840   -7.0664    0.0000 O   0  0  0  0  0  0  0  0  0  0  0  0
    4.4261   -9.5414    0.0000 O   0  0  0  0  0  0  0  0  0  0  0  0
    5.8550   -7.0664    0.0000 O   0  0  0  0  0  0  0  0  0  0  0  0
    5.1406   -6.6539    0.0000 C   0  0  0  0  0  0  0  0  0  0  0  0
  1  2  1  0  0  0  0
  2  3  2  0  0  0  0
  3  4  1  0  0  0  0
  4  5  2  0  0  0  0
  5  6  1  0  0  0  0
  6  1  2  0  0  0  0
  4  7  1  0  0  0  0
  7  8  1  0  0  0  0
  8  9  2  0  0  0  0
  9 10  1  0  0  0  0
 10  5  1  0  0  0  0
 10 11  2  0  0  0  0
  2 12  1  0  0  0  0
  6 13  1  0  0  0  0
 13 14  1  0  0  0  0
M  END
>  <cdx:fragmentId>
5

$$$$
