50622.cdx
  Mrv1902 05222410262D          

 18 19  0  0  0  0            999 V2000
    6.6898   -6.1864    0.0000 C   0  0  0  0  0  0  0  0  0  0  0  0
    6.6898   -7.0114    0.0000 C   0  0  0  0  0  0  0  0  0  0  0  0
    7.4744   -7.2663    0.0000 C   0  0  2  0  0  0  0  0  0  0  0  0
    7.9593   -6.5989    0.0000 C   0  0  2  0  0  0  0  0  0  0  0  0
    7.4744   -5.9315    0.0000 N   0  0  0  0  0  0  0  0  0  0  0  0
    8.7439   -6.3440    0.0000 C   0  0  1  0  0  0  0  0  0  0  0  0
    8.7439   -5.5190    0.0000 C   0  0  0  0  0  0  0  0  0  0  0  0
    7.9593   -5.2640    0.0000 C   0  0  0  0  0  0  0  0  0  0  0  0
    7.2609   -8.0632    0.0000 O   0  0  0  0  0  0  0  0  0  0  0  0
    6.4640   -8.2768    0.0000 C   0  0  0  0  0  0  0  0  0  0  0  0
    5.7495   -7.8643    0.0000 O   0  0  0  0  0  0  0  0  0  0  0  0
    6.2504   -9.0736    0.0000 C   0  0  0  0  0  0  0  0  0  0  0  0
    5.4536   -9.2872    0.0000 C   0  0  0  0  0  0  0  0  0  0  0  0
    6.8338   -9.6570    0.0000 C   0  0  0  0  0  0  0  0  0  0  0  0
    4.8702   -8.7038    0.0000 C   0  0  0  0  0  0  0  0  0  0  0  0
    8.5427   -7.1823    0.0000 H   0  0  0  0  0  0  0  0  0  0  0  0
    9.4114   -6.8289    0.0000 C   0  0  0  0  0  0  0  0  0  0  0  0
   10.1258   -6.4164    0.0000 O   0  0  0  0  0  0  0  0  0  0  0  0
  1  2  1  0  0  0  0
  2  3  1  0  0  0  0
  3  4  1  0  0  0  0
  4  5  1  0  0  0  0
  5  1  1  0  0  0  0
  4  6  1  0  0  0  0
  6  7  1  0  0  0  0
  7  8  1  0  0  0  0
  8  5  1  0  0  0  0
  3  9  1  6  0  0  0
  9 10  1  0  0  0  0
 10 11  2  0  0  0  0
 10 12  1  0  0  0  0
 12 13  2  0  0  0  0
 12 14  1  0  0  0  0
 13 15  1  0  0  0  0
  4 16  1  1  0  0  0
  6 17  1  1  0  0  0
 17 18  1  0  0  0  0
M  END
>  <cdx:fragmentId>
5

$$$$
