50632.cdx
  Mrv1902 05222410272D          

 22 24  0  0  0  0            999 V2000
    3.7793   -7.9051    0.0000 C   0  0  0  0  0  0  0  0  0  0  0  0
    3.7793   -8.7301    0.0000 C   0  0  0  0  0  0  0  0  0  0  0  0
    4.4938   -9.1426    0.0000 C   0  0  0  0  0  0  0  0  0  0  0  0
    5.2082   -8.7301    0.0000 C   0  0  0  0  0  0  0  0  0  0  0  0
    5.2082   -7.9051    0.0000 C   0  0  2  0  0  0  0  0  0  0  0  0
    4.4938   -7.4926    0.0000 C   0  0  0  0  0  0  0  0  0  0  0  0
    5.9227   -9.1426    0.0000 C   0  0  0  0  0  0  0  0  0  0  0  0
    6.6372   -8.7301    0.0000 C   0  0  0  0  0  0  0  0  0  0  0  0
    6.6372   -7.9051    0.0000 C   0  0  0  0  0  0  0  0  0  0  0  0
    5.9227   -7.4926    0.0000 C   0  0  0  0  0  0  0  0  0  0  0  0
    7.3517   -7.4926    0.0000 C   0  0  0  0  0  0  0  0  0  0  0  0
    7.3517   -6.6676    0.0000 C   0  0  0  0  0  0  0  0  0  0  0  0
    6.6372   -6.2551    0.0000 C   0  0  0  0  0  0  0  0  0  0  0  0
    5.9227   -6.6676    0.0000 C   0  0  0  0  0  0  0  0  0  0  0  0
    4.0813   -9.8571    0.0000 C   0  0  0  0  0  0  0  0  0  0  0  0
    4.9063   -9.8571    0.0000 C   0  0  0  0  0  0  0  0  0  0  0  0
    6.6372   -5.4301    0.0000 O   0  0  0  0  0  0  0  0  0  0  0  0
    8.0661   -6.2551    0.0000 O   0  0  0  0  0  0  0  0  0  0  0  0
    8.0661   -7.9051    0.0000 C   0  0  0  0  0  0  0  0  0  0  0  0
    8.0661   -8.7301    0.0000 C   0  0  0  0  0  0  0  0  0  0  0  0
    8.7806   -7.4926    0.0000 C   0  0  0  0  0  0  0  0  0  0  0  0
    5.2082   -7.0801    0.0000 C   0  0  0  0  0  0  0  0  0  0  0  0
  1  2  1  0  0  0  0
  2  3  1  0  0  0  0
  3  4  1  0  0  0  0
  4  5  1  0  0  0  0
  5  6  1  0  0  0  0
  6  1  1  0  0  0  0
  4  7  1  0  0  0  0
  7  8  1  0  0  0  0
  8  9  1  0  0  0  0
  9 10  1  0  0  0  0
 10  5  1  0  0  0  0
  9 11  2  0  0  0  0
 11 12  1  0  0  0  0
 12 13  2  0  0  0  0
 13 14  1  0  0  0  0
 14 10  2  0  0  0  0
  3 15  1  0  0  0  0
  3 16  1  0  0  0  0
 13 17  1  0  0  0  0
 12 18  1  0  0  0  0
 11 19  1  0  0  0  0
 19 20  1  0  0  0  0
 19 21  1  0  0  0  0
  5 22  1  1  0  0  0
M  END
>  <cdx:fragmentId>
5

$$$$
