50633.cdx
  Mrv1902 05222410272D          

 27 31  0  0  0  0            999 V2000
    9.4130   -6.7630    0.0000 C   0  0  0  0  0  0  0  0  0  0  0  0
    8.6984   -6.3507    0.0000 C   0  0  0  0  0  0  0  0  0  0  0  0
    7.9840   -6.7635    0.0000 C   0  0  0  0  0  0  0  0  0  0  0  0
    7.9843   -7.5885    0.0000 C   0  0  0  0  0  0  0  0  0  0  0  0
    8.6990   -8.0007    0.0000 C   0  0  0  0  0  0  0  0  0  0  0  0
    9.4133   -7.5880    0.0000 C   0  0  0  0  0  0  0  0  0  0  0  0
    7.2700   -8.0013    0.0000 C   0  0  0  0  0  0  0  0  0  0  0  0
    7.2703   -8.8263    0.0000 N   0  3  0  0  0  0  0  0  0  0  0  0
    7.9849   -9.2385    0.0000 C   0  0  0  0  0  0  0  0  0  0  0  0
    8.6993   -8.8257    0.0000 C   0  0  0  0  0  0  0  0  0  0  0  0
    6.5554   -7.5890    0.0000 C   0  0  0  0  0  0  0  0  0  0  0  0
    5.8411   -8.0018    0.0000 C   0  0  0  0  0  0  0  0  0  0  0  0
    5.8414   -8.8268    0.0000 C   0  0  0  0  0  0  0  0  0  0  0  0
    6.5560   -9.2390    0.0000 C   0  0  0  0  0  0  0  0  0  0  0  0
    5.1265   -7.5895    0.0000 C   0  0  0  0  0  0  0  0  0  0  0  0
    4.4121   -8.0023    0.0000 C   0  0  0  0  0  0  0  0  0  0  0  0
    4.4124   -8.8273    0.0000 C   0  0  0  0  0  0  0  0  0  0  0  0
    5.1271   -9.2395    0.0000 C   0  0  0  0  0  0  0  0  0  0  0  0
    3.7995   -9.3796    0.0000 O   0  0  0  0  0  0  0  0  0  0  0  0
    4.1354  -10.1331    0.0000 C   0  0  0  0  0  0  0  0  0  0  0  0
    4.9558  -10.0466    0.0000 O   0  0  0  0  0  0  0  0  0  0  0  0
   10.0259   -6.2107    0.0000 O   0  0  0  0  0  0  0  0  0  0  0  0
    9.6901   -5.4572    0.0000 C   0  0  0  0  0  0  0  0  0  0  0  0
    8.8696   -5.5437    0.0000 O   0  0  0  0  0  0  0  0  0  0  0  0
    6.5551   -6.7640    0.0000 O   0  0  0  0  0  0  0  0  0  0  0  0
    6.5563  -10.0640    0.0000 O   0  0  0  0  0  0  0  0  0  0  0  0
    7.1840   -9.6885    0.0000 O   0  5  0  0  0  0  0  0  0  0  0  0
  1  2  2  0  0  0  0
  2  3  1  0  0  0  0
  3  4  2  0  0  0  0
  4  5  1  0  0  0  0
  5  6  2  0  0  0  0
  6  1  1  0  0  0  0
  4  7  1  0  0  0  0
  7  8  2  0  0  0  0
  8  9  1  0  0  0  0
  9 10  1  0  0  0  0
 10  5  1  0  0  0  0
  7 11  1  0  0  0  0
 11 12  1  0  0  0  0
 12 13  2  0  0  0  0
 13 14  1  0  0  0  0
 14  8  1  0  0  0  0
 12 15  1  0  0  0  0
 15 16  2  0  0  0  0
 16 17  1  0  0  0  0
 17 18  2  0  0  0  0
 18 13  1  0  0  0  0
 17 19  1  0  0  0  0
 19 20  1  0  0  0  0
 20 21  1  0  0  0  0
 21 18  1  0  0  0  0
  1 22  1  0  0  0  0
 22 23  1  0  0  0  0
 23 24  1  0  0  0  0
 24  2  1  0  0  0  0
 11 25  2  0  0  0  0
 14 26  2  0  0  0  0
M  CHG  2   8   1  27  -1
M  END
>  <cdx:fragmentId>
101

$$$$
