50636.cdx
  Mrv1902 05222410262D          

 40 41  0  0  0  0            999 V2000
    3.0134  -14.0966    0.0000 C   0  0  0  0  0  0  0  0  0  0  0  0
    3.0100  -13.2716    0.0000 C   0  0  0  0  0  0  0  0  0  0  0  0
    3.7228  -12.8562    0.0000 C   0  0  0  0  0  0  0  0  0  0  0  0
    3.7194  -12.0313    0.0000 C   0  0  0  0  0  0  0  0  0  0  0  0
    4.4322  -11.6158    0.0000 C   0  0  0  0  0  0  0  0  0  0  0  0
    4.4289  -10.7909    0.0000 C   0  0  0  0  0  0  0  0  0  0  0  0
    5.1417  -10.3754    0.0000 C   0  0  0  0  0  0  0  0  0  0  0  0
    5.1383   -9.5505    0.0000 C   0  0  0  0  0  0  0  0  0  0  0  0
    5.8511   -9.1350    0.0000 C   0  0  0  0  0  0  0  0  0  0  0  0
    5.8477   -8.3101    0.0000 C   0  0  0  0  0  0  0  0  0  0  0  0
    6.5605   -7.8946    0.0000 C   0  0  0  0  0  0  0  0  0  0  0  0
    6.5571   -7.0697    0.0000 C   0  0  0  0  0  0  0  0  0  0  0  0
    7.2699   -6.6542    0.0000 C   0  0  0  0  0  0  0  0  0  0  0  0
    7.2666   -5.8293    0.0000 C   0  0  0  0  0  0  0  0  0  0  0  0
    7.9794   -5.4138    0.0000 C   0  0  0  0  0  0  0  0  0  0  0  0
    7.9760   -4.5889    0.0000 C   0  0  0  0  0  0  0  0  0  0  0  0
    8.6888   -4.1735    0.0000 C   0  0  0  0  0  0  0  0  0  0  0  0
    2.2981  -14.5077    0.0000 C   0  0  0  0  0  0  0  0  0  0  0  0
    2.2981  -15.3327    0.0000 C   0  0  0  0  0  0  0  0  0  0  0  0
    3.0134  -15.7466    0.0000 C   0  0  0  0  0  0  0  0  0  0  0  0
    3.7287  -15.3327    0.0000 C   0  0  0  0  0  0  0  0  0  0  0  0
    3.7287  -14.5077    0.0000 C   0  0  0  0  0  0  0  0  0  0  0  0
    1.5012  -14.7212    0.0000 C   0  0  0  0  0  0  0  0  0  0  0  0
    1.8856  -13.7932    0.0000 C   0  0  0  0  0  0  0  0  0  0  0  0
    4.4427  -14.0945    0.0000 C   0  0  0  0  0  0  0  0  0  0  0  0
    3.0033  -11.6217    0.0000 C   0  0  0  0  0  0  0  0  0  0  0  0
    4.4221   -9.1409    0.0000 C   0  0  0  0  0  0  0  0  0  0  0  0
    7.9861   -7.0638    0.0000 C   0  0  0  0  0  0  0  0  0  0  0  0
    8.6854   -3.3485    0.0000 C   0  0  0  0  0  0  0  0  0  0  0  0
    9.4049   -4.5830    0.0000 C   0  0  0  0  0  0  0  0  0  0  0  0
   10.1194   -4.1705    0.0000 C   0  0  0  0  0  0  0  0  0  0  0  0
   10.8339   -4.5830    0.0000 C   0  0  0  0  0  0  0  0  0  0  0  0
   10.8339   -5.4080    0.0000 C   0  0  0  0  0  0  0  0  0  0  0  0
   11.5483   -5.8205    0.0000 C   0  0  0  0  0  0  0  0  0  0  0  0
   12.2628   -5.4080    0.0000 C   0  0  0  0  0  0  0  0  0  0  0  0
   12.2628   -4.5830    0.0000 C   0  0  0  0  0  0  0  0  0  0  0  0
   11.5483   -4.1705    0.0000 C   0  0  0  0  0  0  0  0  0  0  0  0
   10.1194   -5.8205    0.0000 C   0  0  0  0  0  0  0  0  0  0  0  0
   11.1358   -3.4561    0.0000 C   0  0  0  0  0  0  0  0  0  0  0  0
   11.9608   -3.4561    0.0000 C   0  0  0  0  0  0  0  0  0  0  0  0
  1  2  1  0  0  0  0
  2  3  2  0  0  0  0
  3  4  1  0  0  0  0
  4  5  2  0  0  0  0
  5  6  1  0  0  0  0
  6  7  2  0  0  0  0
  7  8  1  0  0  0  0
  8  9  2  0  0  0  0
  9 10  1  0  0  0  0
 10 11  2  0  0  0  0
 11 12  1  0  0  0  0
 12 13  2  0  0  0  0
 13 14  1  0  0  0  0
 14 15  2  0  0  0  0
 15 16  1  0  0  0  0
 16 17  2  0  0  0  0
  1 18  1  0  0  0  0
 18 19  1  0  0  0  0
 19 20  1  0  0  0  0
 20 21  1  0  0  0  0
 21 22  1  0  0  0  0
 22  1  2  0  0  0  0
 18 23  1  0  0  0  0
 18 24  1  0  0  0  0
 22 25  1  0  0  0  0
  4 26  1  0  0  0  0
  8 27  1  0  0  0  0
 13 28  1  0  0  0  0
 17 29  1  0  0  0  0
 17 30  1  0  0  0  0
 30 31  2  0  0  0  0
 31 32  1  0  0  0  0
 32 33  2  0  0  0  0
 33 34  1  0  0  0  0
 34 35  1  0  0  0  0
 35 36  1  0  0  0  0
 36 37  1  0  0  0  0
 37 32  1  0  0  0  0
 33 38  1  0  0  0  0
 37 39  1  0  0  0  0
 37 40  1  0  0  0  0
M  END
>  <cdx:fragmentId>
3

$$$$
