50638.cdx
  Mrv1902 05222410202D          

 17 18  0  0  0  0            999 V2000
    5.9185   -6.7776    0.0000 O   0  0  0  0  0  0  0  0  0  0  0  0
    6.6330   -9.6651    0.0000 C   0  0  0  0  0  0  0  0  0  0  0  0
    7.3474  -10.0776    0.0000 C   0  0  0  0  0  0  0  0  0  0  0  0
    3.7751   -8.8401    0.0000 C   0  0  0  0  0  0  0  0  0  0  0  0
    4.4896  -10.0776    0.0000 C   0  0  0  0  0  0  0  0  0  0  0  0
    4.4896   -9.2526    0.0000 C   0  0  0  0  0  0  0  0  0  0  0  0
    8.7764   -7.6026    0.0000 O   0  0  0  0  0  0  0  0  0  0  0  0
    5.9185   -7.6026    0.0000 C   0  0  2  0  0  0  0  0  0  0  0  0
    5.2040   -8.0151    0.0000 C   0  0  0  0  0  0  0  0  0  0  0  0
    5.2040   -8.8401    0.0000 C   0  0  2  0  0  0  0  0  0  0  0  0
    5.9185   -9.2526    0.0000 C   0  0  0  0  0  0  0  0  0  0  0  0
    7.3474   -7.6026    0.0000 C   0  0  0  0  0  0  0  0  0  0  0  0
    6.6330   -8.0151    0.0000 C   0  0  0  0  0  0  0  0  0  0  0  0
    6.6330   -8.8401    0.0000 C   0  0  1  0  0  0  0  0  0  0  0  0
    7.3474   -9.2526    0.0000 C   0  0  1  0  0  0  0  0  0  0  0  0
    8.0619   -8.8401    0.0000 C   0  0  0  0  0  0  0  0  0  0  0  0
    8.0619   -8.0151    0.0000 C   0  0  0  0  0  0  0  0  0  0  0  0
  8  1  1  1  0  0  0
 14  2  1  1  0  0  0
 15  3  1  1  0  0  0
  6  4  1  0  0  0  0
  6  5  2  0  0  0  0
 10  6  1  6  0  0  0
 17  7  2  0  0  0  0
  8 13  1  0  0  0  0
  9  8  1  0  0  0  0
 10  9  1  0  0  0  0
 11 10  1  0  0  0  0
 14 11  1  0  0  0  0
 12 17  1  0  0  0  0
 13 12  2  0  0  0  0
 14 13  1  0  0  0  0
 15 14  1  0  0  0  0
 16 15  1  0  0  0  0
 17 16  1  0  0  0  0
M  END
>  <cdx:fragmentId>
5

$$$$
