50631.cdx
  Mrv1902 05222410282D          

 28 29  0  0  0  0            999 V2000
    6.7768   -8.3176    0.0000 C   0  0  2  0  0  0  0  0  0  0  0  0
    6.7768   -9.1426    0.0000 C   0  0  0  0  0  0  0  0  0  0  0  0
    7.4913   -9.5551    0.0000 C   0  0  2  0  0  0  0  0  0  0  0  0
    8.2057   -9.1426    0.0000 C   0  0  1  0  0  0  0  0  0  0  0  0
    8.2057   -8.3176    0.0000 C   0  0  2  0  0  0  0  0  0  0  0  0
    7.4913   -7.9051    0.0000 C   0  0  0  0  0  0  0  0  0  0  0  0
    8.9904   -9.3976    0.0000 C   0  0  2  0  0  0  0  0  0  0  0  0
    9.4753   -8.7301    0.0000 C   0  0  0  0  0  0  0  0  0  0  0  0
    8.9904   -8.0627    0.0000 C   0  0  2  0  0  0  0  0  0  0  0  0
    7.4913   -7.0801    0.0000 C   0  0  0  0  0  0  0  0  0  0  0  0
   10.3003   -8.7301    0.0000 O   0  0  0  0  0  0  0  0  0  0  0  0
    9.2453   -7.2781    0.0000 H   0  0  0  0  0  0  0  0  0  0  0  0
    7.4913  -10.3801    0.0000 C   0  0  0  0  0  0  0  0  0  0  0  0
    6.0623   -7.9051    0.0000 O   0  0  0  0  0  0  0  0  0  0  0  0
    8.2057   -7.4926    0.0000 H   0  0  0  0  0  0  0  0  0  0  0  0
    8.2057  -10.7926    0.0000 C   0  0  0  0  0  0  0  0  0  0  0  0
    8.2057   -9.9676    0.0000 H   0  0  0  0  0  0  0  0  0  0  0  0
    6.7768  -10.7926    0.0000 C   0  0  0  0  0  0  0  0  0  0  0  0
    5.3491   -8.3198    0.0000 C   0  0  0  0  0  0  0  0  0  0  0  0
    5.3515   -9.1448    0.0000 O   0  0  0  0  0  0  0  0  0  0  0  0
    4.6334   -7.9094    0.0000 C   0  0  0  0  0  0  0  0  0  0  0  0
    4.6310   -7.0844    0.0000 C   0  0  0  0  0  0  0  0  0  0  0  0
    3.9202   -8.3240    0.0000 C   0  0  0  0  0  0  0  0  0  0  0  0
    3.9226   -9.1490    0.0000 C   0  0  0  0  0  0  0  0  0  0  0  0
    9.2453  -10.1822    0.0000 C   0  0  1  0  0  0  0  0  0  0  0  0
    9.7750   -9.6525    0.0000 H   0  0  0  0  0  0  0  0  0  0  0  0
    8.6933  -10.7953    0.0000 C   0  0  0  0  0  0  0  0  0  0  0  0
   10.0523  -10.3537    0.0000 O   0  0  0  0  0  0  0  0  0  0  0  0
  1  2  1  0  0  0  0
  2  3  1  0  0  0  0
  3  4  1  0  0  0  0
  4  5  1  0  0  0  0
  5  6  1  0  0  0  0
  6  1  1  0  0  0  0
  4  7  1  0  0  0  0
  7  8  1  0  0  0  0
  8  9  1  0  0  0  0
  9  5  1  0  0  0  0
  6 10  2  0  0  0  0
  8 11  2  0  0  0  0
  9 12  1  6  0  0  0
  3 13  1  6  0  0  0
  1 14  1  1  0  0  0
  5 15  1  1  0  0  0
 13 16  1  0  0  0  0
  4 17  1  6  0  0  0
 13 18  1  0  0  0  0
 14 19  1  0  0  0  0
 19 20  2  0  0  0  0
 19 21  1  0  0  0  0
 21 22  1  0  0  0  0
 21 23  2  0  0  0  0
 23 24  1  0  0  0  0
  7 25  1  0  0  0  0
  7 26  1  1  0  0  0
 25 27  1  0  0  0  0
 25 28  1  6  0  0  0
M  END
>  <cdx:fragmentId>
5

$$$$
