50647.cdx
  Mrv1902 05222410252D          

 28 30  0  0  0  0            999 V2000
    6.8456   -8.5239    0.0000 C   0  0  0  0  0  0  0  0  0  0  0  0
    6.8456   -7.6989    0.0000 C   0  0  0  0  0  0  0  0  0  0  0  0
    7.5600   -7.2864    0.0000 C   0  0  0  0  0  0  0  0  0  0  0  0
    8.2745   -7.6989    0.0000 C   0  0  0  0  0  0  0  0  0  0  0  0
    8.2745   -8.5239    0.0000 C   0  0  0  0  0  0  0  0  0  0  0  0
    7.5600   -8.9364    0.0000 C   0  0  0  0  0  0  0  0  0  0  0  0
    8.9890   -7.2864    0.0000 O   0  0  0  0  0  0  0  0  0  0  0  0
    9.7034   -7.6989    0.0000 C   0  0  0  0  0  0  0  0  0  0  0  0
    9.7034   -8.5239    0.0000 C   0  0  0  0  0  0  0  0  0  0  0  0
    8.9890   -8.9364    0.0000 C   0  0  0  0  0  0  0  0  0  0  0  0
    8.9890   -9.7614    0.0000 O   0  0  0  0  0  0  0  0  0  0  0  0
    7.5600   -9.7614    0.0000 C   0  0  0  0  0  0  0  0  0  0  0  0
   10.4179   -7.2864    0.0000 C   0  0  0  0  0  0  0  0  0  0  0  0
   11.1324   -7.6989    0.0000 C   0  0  0  0  0  0  0  0  0  0  0  0
   11.1324   -8.5239    0.0000 O   0  0  0  0  0  0  0  0  0  0  0  0
   11.8469   -7.2864    0.0000 C   0  0  0  0  0  0  0  0  0  0  0  0
    2.5556   -7.6704    0.0000 O   0  0  0  0  0  0  0  0  0  0  0  0
    3.2602   -8.9136    0.0000 O   0  0  0  0  0  0  0  0  0  0  0  0
    6.1179   -8.9363    0.0000 O   0  0  0  0  0  0  0  0  0  0  0  0
    3.2733   -7.2636    0.0000 C   0  0  0  0  0  0  0  0  0  0  0  0
    4.6825   -9.7499    0.0000 O   0  0  0  0  0  0  0  0  0  0  0  0
    5.4068   -8.5182    0.0000 C   0  0  2  0  0  0  0  0  0  0  0  0
    4.6890   -8.9250    0.0000 C   0  0  2  0  0  0  0  0  0  0  0  0
    3.9779   -8.5068    0.0000 C   0  0  1  0  0  0  0  0  0  0  0  0
    3.9845   -7.6818    0.0000 C   0  0  2  0  0  0  0  0  0  0  0  0
    4.7022   -7.2750    0.0000 O   0  0  0  0  0  0  0  0  0  0  0  0
    5.4134   -7.6932    0.0000 C   0  0  1  0  0  0  0  0  0  0  0  0
    6.1311   -7.2864    0.0000 O   0  0  0  0  0  0  0  0  0  0  0  0
  1  2  1  0  0  0  0
  2  3  2  0  0  0  0
  3  4  1  0  0  0  0
  4  5  2  0  0  0  0
  5  6  1  0  0  0  0
  6  1  2  0  0  0  0
  4  7  1  0  0  0  0
  7  8  1  0  0  0  0
  8  9  2  0  0  0  0
  9 10  1  0  0  0  0
 10  5  1  0  0  0  0
 10 11  2  0  0  0  0
 12  6  1  0  0  0  0
  8 13  1  0  0  0  0
 13 14  1  0  0  0  0
 14 15  2  0  0  0  0
 20 17  1  0  0  0  0
  2 28  1  0  0  0  0
 14 16  1  0  0  0  0
 24 18  1  6  0  0  0
 22 19  1  6  0  0  0
 25 20  1  1  0  0  0
 23 21  1  1  0  0  0
 22 27  1  0  0  0  0
 23 22  1  0  0  0  0
 24 23  1  0  0  0  0
 25 24  1  0  0  0  0
 26 25  1  0  0  0  0
 27 26  1  0  0  0  0
 27 28  1  1  0  0  0
M  END
>  <cdx:fragmentId>
5

$$$$
