50641.cdx
  Mrv1902 05222410242D          

 21 20  0  0  0  0            999 V2000
    0.3963   -8.7576    0.0000 C   0  0  0  0  0  0  0  0  0  0  0  0
    1.1107   -8.3451    0.0000 O   0  0  0  0  0  0  0  0  0  0  0  0
    1.8252   -8.7576    0.0000 C   0  0  0  0  0  0  0  0  0  0  0  0
    2.5397   -8.3451    0.0000 C   0  0  0  0  0  0  0  0  0  0  0  0
    3.2542   -8.7576    0.0000 C   0  0  0  0  0  0  0  0  0  0  0  0
    3.9686   -8.3451    0.0000 C   0  0  0  0  0  0  0  0  0  0  0  0
    4.6831   -8.7576    0.0000 C   0  0  0  0  0  0  0  0  0  0  0  0
    5.3976   -8.3451    0.0000 C   0  0  0  0  0  0  0  0  0  0  0  0
    6.1120   -8.7576    0.0000 C   0  0  0  0  0  0  0  0  0  0  0  0
    6.8265   -8.3451    0.0000 C   0  0  0  0  0  0  0  0  0  0  0  0
    7.5410   -8.7576    0.0000 C   0  0  0  0  0  0  0  0  0  0  0  0
    8.2555   -8.3451    0.0000 C   0  0  0  0  0  0  0  0  0  0  0  0
    8.9699   -8.7576    0.0000 C   0  0  0  0  0  0  0  0  0  0  0  0
    9.6844   -8.3451    0.0000 C   0  0  0  0  0  0  0  0  0  0  0  0
   10.3989   -8.7576    0.0000 C   0  0  0  0  0  0  0  0  0  0  0  0
   11.1133   -8.3451    0.0000 C   0  0  0  0  0  0  0  0  0  0  0  0
   11.8278   -8.7576    0.0000 C   0  0  0  0  0  0  0  0  0  0  0  0
   12.5423   -8.3451    0.0000 C   0  0  0  0  0  0  0  0  0  0  0  0
   13.2568   -8.7576    0.0000 C   0  0  0  0  0  0  0  0  0  0  0  0
   13.9712   -8.3451    0.0000 C   0  0  0  0  0  0  0  0  0  0  0  0
    1.8252   -9.5826    0.0000 O   0  0  0  0  0  0  0  0  0  0  0  0
  1  2  1  0  0  0  0
  2  3  1  0  0  0  0
  3  4  1  0  0  0  0
  4  5  1  0  0  0  0
  5  6  1  0  0  0  0
  6  7  1  0  0  0  0
  7  8  1  0  0  0  0
  8  9  1  0  0  0  0
  9 10  1  0  0  0  0
 10 11  1  0  0  0  0
 11 12  2  0  0  0  0
 12 13  1  0  0  0  0
 13 14  1  0  0  0  0
 14 15  1  0  0  0  0
 15 16  1  0  0  0  0
 16 17  1  0  0  0  0
 17 18  1  0  0  0  0
 18 19  1  0  0  0  0
 19 20  1  0  0  0  0
  3 21  2  0  0  0  0
M  END
>  <cdx:fragmentId>
3

$$$$
