50644.cdx
  Mrv1902 05222410252D          

 35 38  0  0  0  0            999 V2000
    6.8456   -7.5064    0.0000 C   0  0  0  0  0  0  0  0  0  0  0  0
    6.8456   -8.3314    0.0000 C   0  0  0  0  0  0  0  0  0  0  0  0
    7.5600   -8.7439    0.0000 C   0  0  0  0  0  0  0  0  0  0  0  0
    8.2745   -8.3314    0.0000 C   0  0  0  0  0  0  0  0  0  0  0  0
    8.2745   -7.5064    0.0000 C   0  0  0  0  0  0  0  0  0  0  0  0
    7.5600   -7.0939    0.0000 C   0  0  0  0  0  0  0  0  0  0  0  0
    8.9890   -8.7439    0.0000 C   0  0  0  0  0  0  0  0  0  0  0  0
    9.7034   -8.3314    0.0000 C   0  0  0  0  0  0  0  0  0  0  0  0
    9.7034   -7.5064    0.0000 C   0  0  0  0  0  0  0  0  0  0  0  0
    8.9890   -7.0939    0.0000 O   0  0  0  0  0  0  0  0  0  0  0  0
   11.1324   -7.5064    0.0000 C   0  0  0  0  0  0  0  0  0  0  0  0
   10.4179   -7.0939    0.0000 C   0  0  0  0  0  0  0  0  0  0  0  0
   11.8469   -7.0939    0.0000 C   0  0  0  0  0  0  0  0  0  0  0  0
   11.8469   -6.2689    0.0000 C   0  0  0  0  0  0  0  0  0  0  0  0
   11.1324   -5.8564    0.0000 C   0  0  0  0  0  0  0  0  0  0  0  0
   10.4179   -6.2689    0.0000 C   0  0  0  0  0  0  0  0  0  0  0  0
    7.5600   -9.5689    0.0000 O   0  0  0  0  0  0  0  0  0  0  0  0
    8.9890   -9.5689    0.0000 O   0  0  0  0  0  0  0  0  0  0  0  0
    6.1311   -7.0939    0.0000 O   0  0  0  0  0  0  0  0  0  0  0  0
   12.5613   -5.8564    0.0000 O   0  0  0  0  0  0  0  0  0  0  0  0
   13.2758   -6.2689    0.0000 C   0  0  0  0  0  0  0  0  0  0  0  0
    5.4166   -7.5064    0.0000 C   0  0  2  0  0  0  0  0  0  0  0  0
    4.7021   -7.0939    0.0000 O   0  0  0  0  0  0  0  0  0  0  0  0
    3.9877   -7.5064    0.0000 C   0  0  1  0  0  0  0  0  0  0  0  0
    3.9877   -8.3314    0.0000 C   0  0  2  0  0  0  0  0  0  0  0  0
    4.7021   -8.7439    0.0000 C   0  0  1  0  0  0  0  0  0  0  0  0
    5.4166   -8.3314    0.0000 C   0  0  1  0  0  0  0  0  0  0  0  0
    3.2732   -7.0939    0.0000 C   0  0  0  0  0  0  0  0  0  0  0  0
    4.7021   -9.5689    0.0000 O   0  0  0  0  0  0  0  0  0  0  0  0
    6.1311   -8.7439    0.0000 O   0  0  0  0  0  0  0  0  0  0  0  0
    3.2732   -8.7439    0.0000 O   0  0  0  0  0  0  0  0  0  0  0  0
    2.5587   -7.5064    0.0000 O   0  0  0  0  0  0  0  0  0  0  0  0
    1.8443   -7.0939    0.0000 C   0  0  0  0  0  0  0  0  0  0  0  0
    1.1298   -7.5064    0.0000 C   0  0  0  0  0  0  0  0  0  0  0  0
    1.8443   -6.2689    0.0000 O   0  0  0  0  0  0  0  0  0  0  0  0
  1  2  2  0  0  0  0
  2  3  1  0  0  0  0
  3  4  2  0  0  0  0
  4  5  1  0  0  0  0
  5  6  2  0  0  0  0
  6  1  1  0  0  0  0
  4  7  1  0  0  0  0
  7  8  1  0  0  0  0
  8  9  2  0  0  0  0
  9 10  1  0  0  0  0
 10  5  1  0  0  0  0
 11 12  2  0  0  0  0
 12  9  1  0  0  0  0
 11 13  1  0  0  0  0
 13 14  2  0  0  0  0
 14 15  1  0  0  0  0
 15 16  2  0  0  0  0
 16 12  1  0  0  0  0
  3 17  1  0  0  0  0
 18  7  2  0  0  0  0
  1 19  1  0  0  0  0
 14 20  1  0  0  0  0
 20 21  1  0  0  0  0
 22 19  1  1  0  0  0
 22 23  1  0  0  0  0
 23 24  1  0  0  0  0
 24 25  1  0  0  0  0
 25 26  1  0  0  0  0
 26 27  1  0  0  0  0
 27 22  1  0  0  0  0
 24 28  1  1  0  0  0
 26 29  1  1  0  0  0
 27 30  1  6  0  0  0
 25 31  1  6  0  0  0
 28 32  1  0  0  0  0
 32 33  1  0  0  0  0
 33 34  1  0  0  0  0
 33 35  2  0  0  0  0
M  END
>  <cdx:fragmentId>
5

$$$$
