50645.cdx
  Mrv1902 05222410252D          

 28 30  0  0  0  0            999 V2000
    2.6518   -7.6714    0.0000 C   0  0  0  0  0  0  0  0  0  0  0  0
    2.6518   -8.4964    0.0000 C   0  0  0  0  0  0  0  0  0  0  0  0
    3.3663   -8.9089    0.0000 C   0  0  0  0  0  0  0  0  0  0  0  0
    4.0807   -8.4964    0.0000 C   0  0  0  0  0  0  0  0  0  0  0  0
    4.0807   -7.6714    0.0000 C   0  0  0  0  0  0  0  0  0  0  0  0
    3.3663   -7.2589    0.0000 C   0  0  0  0  0  0  0  0  0  0  0  0
    4.8654   -8.7513    0.0000 O   0  0  0  0  0  0  0  0  0  0  0  0
    5.3503   -8.0839    0.0000 C   0  0  0  0  0  0  0  0  0  0  0  0
    4.8654   -7.4165    0.0000 C   0  0  0  0  0  0  0  0  0  0  0  0
    1.9373   -8.9089    0.0000 O   0  0  0  0  0  0  0  0  0  0  0  0
    6.1753   -8.0839    0.0000 C   0  0  0  0  0  0  0  0  0  0  0  0
    6.5878   -8.7984    0.0000 C   0  0  0  0  0  0  0  0  0  0  0  0
    7.4128   -8.7984    0.0000 C   0  0  0  0  0  0  0  0  0  0  0  0
    7.8253   -8.0839    0.0000 C   0  0  0  0  0  0  0  0  0  0  0  0
    7.4128   -7.3694    0.0000 C   0  0  0  0  0  0  0  0  0  0  0  0
    6.5878   -7.3694    0.0000 C   0  0  0  0  0  0  0  0  0  0  0  0
    7.8253   -6.6550    0.0000 O   0  0  0  0  0  0  0  0  0  0  0  0
    7.8253   -9.5128    0.0000 O   0  0  0  0  0  0  0  0  0  0  0  0
    8.6503   -8.0839    0.0000 C   0  0  0  0  0  0  0  0  0  0  0  0
    9.0628   -7.3694    0.0000 C   0  0  0  0  0  0  0  0  0  0  0  0
    9.8878   -7.3694    0.0000 C   0  0  0  0  0  0  0  0  0  0  0  0
   10.3003   -6.6550    0.0000 C   0  0  0  0  0  0  0  0  0  0  0  0
   10.3003   -8.0839    0.0000 C   0  0  0  0  0  0  0  0  0  0  0  0
   11.1253   -6.6550    0.0000 C   0  0  0  0  0  0  0  0  0  0  0  0
   11.5378   -5.9405    0.0000 C   0  0  0  0  0  0  0  0  0  0  0  0
   12.3628   -5.9405    0.0000 C   0  0  0  0  0  0  0  0  0  0  0  0
   12.7753   -5.2260    0.0000 C   0  0  0  0  0  0  0  0  0  0  0  0
   12.7753   -6.6550    0.0000 C   0  0  0  0  0  0  0  0  0  0  0  0
  1  2  1  0  0  0  0
  2  3  2  0  0  0  0
  3  4  1  0  0  0  0
  4  5  2  0  0  0  0
  5  6  1  0  0  0  0
  6  1  2  0  0  0  0
  4  7  1  0  0  0  0
  7  8  1  0  0  0  0
  8  9  2  0  0  0  0
  9  5  1  0  0  0  0
  2 10  1  0  0  0  0
  8 11  1  0  0  0  0
 11 12  2  0  0  0  0
 12 13  1  0  0  0  0
 13 14  2  0  0  0  0
 14 15  1  0  0  0  0
 15 16  2  0  0  0  0
 16 11  1  0  0  0  0
 15 17  1  0  0  0  0
 13 18  1  0  0  0  0
 14 19  1  0  0  0  0
 19 20  1  0  0  0  0
 20 21  2  0  0  0  0
 21 22  1  0  0  0  0
 21 23  1  0  0  0  0
 22 24  1  0  0  0  0
 24 25  1  0  0  0  0
 25 26  2  0  0  0  0
 26 27  1  0  0  0  0
 26 28  1  0  0  0  0
M  END
>  <cdx:fragmentId>
5

$$$$
