50648.cdx
  Mrv1902 05222410212D          

 31 34  0  0  0  0            999 V2000
    5.0168   -5.4989    0.0000 C   0  0  0  0  0  0  0  0  0  0  0  0
    5.0168   -6.3239    0.0000 C   0  0  0  0  0  0  0  0  0  0  0  0
    5.7313   -6.7364    0.0000 C   0  0  0  0  0  0  0  0  0  0  0  0
    6.4457   -6.3239    0.0000 C   0  0  0  0  0  0  0  0  0  0  0  0
    6.4457   -5.4989    0.0000 C   0  0  0  0  0  0  0  0  0  0  0  0
    5.7313   -5.0864    0.0000 C   0  0  0  0  0  0  0  0  0  0  0  0
    7.1602   -6.7364    0.0000 C   0  0  0  0  0  0  0  0  0  0  0  0
    7.8747   -6.3239    0.0000 C   0  0  0  0  0  0  0  0  0  0  0  0
    7.8747   -5.4989    0.0000 C   0  0  0  0  0  0  0  0  0  0  0  0
    7.1602   -5.0864    0.0000 O   0  0  0  0  0  0  0  0  0  0  0  0
    5.7313   -7.5614    0.0000 O   0  0  0  0  0  0  0  0  0  0  0  0
    7.1602   -7.5614    0.0000 O   0  0  0  0  0  0  0  0  0  0  0  0
    9.3036   -5.4989    0.0000 C   0  0  0  0  0  0  0  0  0  0  0  0
    8.5892   -5.0864    0.0000 C   0  0  0  0  0  0  0  0  0  0  0  0
   10.0181   -5.0864    0.0000 C   0  0  0  0  0  0  0  0  0  0  0  0
   10.0181   -4.2614    0.0000 C   0  0  0  0  0  0  0  0  0  0  0  0
    9.3036   -3.8489    0.0000 C   0  0  0  0  0  0  0  0  0  0  0  0
    8.5892   -4.2614    0.0000 C   0  0  0  0  0  0  0  0  0  0  0  0
    4.3023   -7.5614    0.0000 O   0  0  0  0  0  0  0  0  0  0  0  0
    5.0168   -7.9739    0.0000 C   0  0  2  0  0  0  0  0  0  0  0  0
    3.5879   -7.9739    0.0000 C   0  0  1  0  0  0  0  0  0  0  0  0
    3.5879   -8.7989    0.0000 C   0  0  2  0  0  0  0  0  0  0  0  0
    4.3023   -9.2114    0.0000 C   0  0  1  0  0  0  0  0  0  0  0  0
    5.0168   -8.7989    0.0000 C   0  0  1  0  0  0  0  0  0  0  0  0
    2.8734   -7.5614    0.0000 C   0  0  0  0  0  0  0  0  0  0  0  0
    2.1589   -7.9739    0.0000 O   0  0  0  0  0  0  0  0  0  0  0  0
    4.3023   -5.0864    0.0000 O   0  0  0  0  0  0  0  0  0  0  0  0
   10.7326   -3.8489    0.0000 O   0  0  0  0  0  0  0  0  0  0  0  0
    4.3023  -10.0364    0.0000 O   0  0  0  0  0  0  0  0  0  0  0  0
    2.8734   -9.2114    0.0000 O   0  0  0  0  0  0  0  0  0  0  0  0
    5.7313   -9.2114    0.0000 O   0  0  0  0  0  0  0  0  0  0  0  0
  1  2  2  0  0  0  0
  2  3  1  0  0  0  0
  3  4  2  0  0  0  0
  4  5  1  0  0  0  0
  5  6  2  0  0  0  0
  6  1  1  0  0  0  0
  4  7  1  0  0  0  0
  7  8  1  0  0  0  0
  8  9  2  0  0  0  0
  9 10  1  0  0  0  0
 10  5  1  0  0  0  0
  3 11  1  0  0  0  0
 12  7  2  0  0  0  0
 13 14  2  0  0  0  0
 14  9  1  0  0  0  0
 13 15  1  0  0  0  0
 15 16  2  0  0  0  0
 16 17  1  0  0  0  0
 17 18  2  0  0  0  0
 18 14  1  0  0  0  0
 19 20  1  0  0  0  0
 20 11  1  1  0  0  0
 19 21  1  0  0  0  0
 21 22  1  0  0  0  0
 22 23  1  0  0  0  0
 23 24  1  0  0  0  0
 24 20  1  0  0  0  0
 21 25  1  1  0  0  0
 25 26  1  0  0  0  0
  1 27  1  0  0  0  0
 16 28  1  0  0  0  0
 23 29  1  1  0  0  0
 22 30  1  6  0  0  0
 24 31  1  6  0  0  0
M  END
>  <cdx:fragmentId>
5

$$$$
