50640.cdx
  Mrv1902 05222410242D          

 12 12  0  0  0  0            999 V2000
    4.4943   -7.0664    0.0000 C   0  0  0  0  0  0  0  0  0  0  0  0
    4.4943   -7.8914    0.0000 C   0  0  0  0  0  0  0  0  0  0  0  0
    5.2088   -8.3039    0.0000 C   0  0  0  0  0  0  0  0  0  0  0  0
    5.9232   -7.8914    0.0000 C   0  0  0  0  0  0  0  0  0  0  0  0
    5.9232   -7.0664    0.0000 C   0  0  0  0  0  0  0  0  0  0  0  0
    5.2088   -6.6539    0.0000 C   0  0  0  0  0  0  0  0  0  0  0  0
    3.7798   -6.6539    0.0000 C   0  0  0  0  0  0  0  0  0  0  0  0
    5.2088   -9.1289    0.0000 O   0  0  0  0  0  0  0  0  0  0  0  0
    6.6377   -8.3039    0.0000 C   0  0  0  0  0  0  0  0  0  0  0  0
    6.6377   -9.1289    0.0000 C   0  0  0  0  0  0  0  0  0  0  0  0
    7.3522   -7.8914    0.0000 C   0  0  0  0  0  0  0  0  0  0  0  0
    8.0667   -8.3039    0.0000 O   0  0  0  0  0  0  0  0  0  0  0  0
  1  2  2  0  0  0  0
  2  3  1  0  0  0  0
  3  4  2  0  0  0  0
  4  5  1  0  0  0  0
  5  6  2  0  0  0  0
  6  1  1  0  0  0  0
  1  7  1  0  0  0  0
  3  8  1  0  0  0  0
  4  9  1  0  0  0  0
  9 10  1  0  0  0  0
  9 11  1  0  0  0  0
 11 12  1  0  0  0  0
M  END
>  <cdx:fragmentId>
5

$$$$
