50649.cdx
  Mrv1902 05222410212D          

 32 35  0  0  0  0            999 V2000
    2.9594   -7.1978    0.0000 O   0  0  0  0  0  0  0  0  0  0  0  0
    4.3884   -8.0228    0.0000 O   0  0  0  0  0  0  0  0  0  0  0  0
    5.8173   -7.1978    0.0000 O   0  0  0  0  0  0  0  0  0  0  0  0
    7.2463   -8.0228    0.0000 O   0  0  0  0  0  0  0  0  0  0  0  0
   12.2476   -4.3103    0.0000 O   0  0  0  0  0  0  0  0  0  0  0  0
   10.1041   -4.7228    0.0000 C   0  0  0  0  0  0  0  0  0  0  0  0
   10.8186   -4.3103    0.0000 C   0  0  0  0  0  0  0  0  0  0  0  0
   11.5331   -4.7228    0.0000 C   0  0  0  0  0  0  0  0  0  0  0  0
   11.5331   -5.5478    0.0000 C   0  0  0  0  0  0  0  0  0  0  0  0
   10.8186   -5.9603    0.0000 C   0  0  0  0  0  0  0  0  0  0  0  0
   10.1041   -5.5478    0.0000 C   0  0  0  0  0  0  0  0  0  0  0  0
    8.6752   -8.0228    0.0000 O   0  0  0  0  0  0  0  0  0  0  0  0
    8.6752   -5.5478    0.0000 O   0  0  0  0  0  0  0  0  0  0  0  0
    7.9607   -5.9603    0.0000 C   0  0  0  0  0  0  0  0  0  0  0  0
    7.2463   -5.5478    0.0000 C   0  0  0  0  0  0  0  0  0  0  0  0
    6.5318   -5.9603    0.0000 C   0  0  0  0  0  0  0  0  0  0  0  0
    6.5318   -6.7853    0.0000 C   0  0  0  0  0  0  0  0  0  0  0  0
    7.2463   -7.1978    0.0000 C   0  0  0  0  0  0  0  0  0  0  0  0
    7.9607   -6.7853    0.0000 C   0  0  0  0  0  0  0  0  0  0  0  0
    8.6752   -7.1978    0.0000 C   0  0  0  0  0  0  0  0  0  0  0  0
    9.3897   -6.7853    0.0000 C   0  0  0  0  0  0  0  0  0  0  0  0
    9.3897   -5.9603    0.0000 C   0  0  0  0  0  0  0  0  0  0  0  0
    5.8173   -5.5478    0.0000 O   0  0  0  0  0  0  0  0  0  0  0  0
    2.2450   -5.9603    0.0000 O   0  0  0  0  0  0  0  0  0  0  0  0
    2.9594   -4.7228    0.0000 O   0  0  0  0  0  0  0  0  0  0  0  0
    2.9594   -5.5478    0.0000 C   0  0  0  0  0  0  0  0  0  0  0  0
    5.1028   -5.9603    0.0000 C   0  0  1  0  0  0  0  0  0  0  0  0
    5.1028   -6.7853    0.0000 C   0  0  1  0  0  0  0  0  0  0  0  0
    4.3884   -7.1978    0.0000 C   0  0  2  0  0  0  0  0  0  0  0  0
    3.6739   -6.7853    0.0000 C   0  0  1  0  0  0  0  0  0  0  0  0
    3.6739   -5.9603    0.0000 C   0  0  2  0  0  0  0  0  0  0  0  0
    4.3884   -5.5478    0.0000 O   0  0  0  0  0  0  0  0  0  0  0  0
 30  1  1  6  0  0  0
 29  2  1  1  0  0  0
 28  3  1  6  0  0  0
 27 23  1  1  0  0  0
 23 16  1  0  0  0  0
 18  4  1  0  0  0  0
 22 11  1  0  0  0  0
  8  5  1  0  0  0  0
 11  6  2  0  0  0  0
  7  6  1  0  0  0  0
  8  7  2  0  0  0  0
  9  8  1  0  0  0  0
 10  9  2  0  0  0  0
 11 10  1  0  0  0  0
 20 12  2  0  0  0  0
 22 13  1  0  0  0  0
 14 13  1  0  0  0  0
 19 14  2  0  0  0  0
 15 14  1  0  0  0  0
 16 15  2  0  0  0  0
 17 16  1  0  0  0  0
 18 17  2  0  0  0  0
 19 18  1  0  0  0  0
 20 19  1  0  0  0  0
 21 20  1  0  0  0  0
 22 21  2  0  0  0  0
 31 26  1  1  0  0  0
 26 24  1  0  0  0  0
 26 25  2  0  0  0  0
 32 27  1  0  0  0  0
 28 27  1  0  0  0  0
 29 28  1  0  0  0  0
 30 29  1  0  0  0  0
 31 30  1  0  0  0  0
 32 31  1  0  0  0  0
M  END
>  <cdx:fragmentId>
14005

$$$$
