50650.cdx
  Mrv1902 05222410252D          

 21 23  0  0  0  0            999 V2000
    7.5409   -8.8897    0.0000 H   0  0  0  0  0  0  0  0  0  0  0  0
    6.8240   -7.6536    0.0000 H   0  0  0  0  0  0  0  0  0  0  0  0
    6.7426  -10.1243    0.0000 H   0  0  0  0  0  0  0  0  0  0  0  0
    9.6835   -8.4730    0.0000 O   0  0  0  0  0  0  0  0  0  0  0  0
    5.7897  -10.3452    0.0000 C   0  0  0  0  0  0  0  0  0  0  0  0
    8.9699   -8.8869    0.0000 C   0  0  0  0  0  0  0  0  0  0  0  0
    6.8224   -6.8286    0.0000 C   0  0  0  0  0  0  0  0  0  0  0  0
    4.7319   -8.8953    0.0000 O   0  0  0  0  0  0  0  0  0  0  0  0
    8.9683   -8.0619    0.0000 C   0  0  2  0  0  0  0  0  0  0  0  0
    8.9666   -7.2369    0.0000 C   0  0  0  0  0  0  0  0  0  0  0  0
    8.2514   -6.8258    0.0000 C   0  0  0  0  0  0  0  0  0  0  0  0
    7.5377   -7.2397    0.0000 C   0  0  0  0  0  0  0  0  0  0  0  0
    6.8257   -8.4786    0.0000 C   0  0  2  0  0  0  0  0  0  0  0  0
    7.5393   -8.0647    0.0000 C   0  0  2  0  0  0  0  0  0  0  0  0
    8.2546   -8.4758    0.0000 C   0  0  2  0  0  0  0  0  0  0  0  0
    8.2562   -9.3008    0.0000 C   0  0  0  0  0  0  0  0  0  0  0  0
    7.5425   -9.7147    0.0000 C   0  0  0  0  0  0  0  0  0  0  0  0
    6.8273   -9.3036    0.0000 C   0  0  1  0  0  0  0  0  0  0  0  0
    6.0431   -9.5601    0.0000 C   0  0  1  0  0  0  0  0  0  0  0  0
    5.5569   -8.8936    0.0000 C   0  0  0  0  0  0  0  0  0  0  0  0
    6.0405   -8.2252    0.0000 O   0  0  0  0  0  0  0  0  0  0  0  0
 13  1  1  1  0  0  0
 14  2  1  6  0  0  0
 18  3  1  6  0  0  0
  9  4  1  1  0  0  0
 19  5  1  6  0  0  0
 15  6  1  1  0  0  0
 12  7  2  0  0  0  0
 20  8  2  0  0  0  0
 12 14  1  0  0  0  0
  9 15  1  0  0  0  0
 10  9  1  0  0  0  0
 11 10  1  0  0  0  0
 12 11  1  0  0  0  0
 21 13  1  0  0  0  0
 18 13  1  0  0  0  0
 14 13  1  0  0  0  0
 15 14  1  0  0  0  0
 16 15  1  0  0  0  0
 17 16  1  0  0  0  0
 18 17  1  0  0  0  0
 19 18  1  0  0  0  0
 20 19  1  0  0  0  0
 21 20  1  0  0  0  0
M  END
>  <cdx:fragmentId>
5

$$$$
