50657.cdx
  Mrv1902 05222410232D          

 15 16  0  0  0  0            999 V2000
    4.8415   -8.4001    0.0000 O   0  0  0  0  0  0  0  0  0  0  0  0
    4.1270   -7.1626    0.0000 C   0  0  0  0  0  0  0  0  0  0  0  0
    4.8415   -7.5751    0.0000 C   0  0  0  0  0  0  0  0  0  0  0  0
    8.8263   -5.6232    0.0000 C   0  0  0  0  0  0  0  0  0  0  0  0
    9.2107   -6.5512    0.0000 C   0  0  0  0  0  0  0  0  0  0  0  0
    6.2704   -5.9251    0.0000 C   0  0  0  0  0  0  0  0  0  0  0  0
    5.5559   -6.3376    0.0000 C   0  0  0  0  0  0  0  0  0  0  0  0
    5.5559   -7.1626    0.0000 C   0  0  0  0  0  0  0  0  0  0  0  0
    6.2704   -7.5751    0.0000 C   0  0  0  0  0  0  0  0  0  0  0  0
    7.6993   -5.9251    0.0000 O   0  0  0  0  0  0  0  0  0  0  0  0
    6.9849   -6.3376    0.0000 C   0  0  0  0  0  0  0  0  0  0  0  0
    6.9849   -7.1626    0.0000 C   0  0  0  0  0  0  0  0  0  0  0  0
    7.6993   -7.5751    0.0000 C   0  0  0  0  0  0  0  0  0  0  0  0
    8.4138   -7.1626    0.0000 C   0  0  0  0  0  0  0  0  0  0  0  0
    8.4138   -6.3376    0.0000 C   0  0  0  0  0  0  0  0  0  0  0  0
  3  1  2  0  0  0  0
  3  2  1  0  0  0  0
  8  3  1  0  0  0  0
 15  4  1  0  0  0  0
 15  5  1  0  0  0  0
  6 11  1  0  0  0  0
  7  6  2  0  0  0  0
  8  7  1  0  0  0  0
  9  8  2  0  0  0  0
 12  9  1  0  0  0  0
 10 15  1  0  0  0  0
 11 10  1  0  0  0  0
 12 11  2  0  0  0  0
 13 12  1  0  0  0  0
 14 13  1  0  0  0  0
 15 14  1  0  0  0  0
M  END
>  <cdx:fragmentId>
5

$$$$
