50652.cdx
  Mrv1902 05222410252D          

 25 24  0  0  0  0            999 V2000
    1.1084  -10.0249    0.0000 N   0  0  0  0  0  0  0  0  0  0  0  0
    1.6782   -9.6918    0.0000 C   0  0  0  0  0  0  0  0  0  0  0  0
    2.2516  -10.0186    0.0000 C   0  0  0  0  0  0  0  0  0  0  0  0
    2.8213   -9.6855    0.0000 C   0  0  0  0  0  0  0  0  0  0  0  0
    3.3947  -10.0124    0.0000 C   0  0  0  0  0  0  0  0  0  0  0  0
    3.9645   -9.6792    0.0000 C   0  0  0  0  0  0  0  0  0  0  0  0
    4.5379  -10.0061    0.0000 C   0  0  0  0  0  0  0  0  0  0  0  0
    5.1076   -9.6730    0.0000 C   0  0  0  0  0  0  0  0  0  0  0  0
    5.6810   -9.9998    0.0000 C   0  0  0  0  0  0  0  0  0  0  0  0
    6.2507   -9.6667    0.0000 C   0  0  0  0  0  0  0  0  0  0  0  0
    6.8241   -9.9936    0.0000 C   0  0  0  0  0  0  0  0  0  0  0  0
    7.3939   -9.6605    0.0000 C   0  0  0  0  0  0  0  0  0  0  0  0
    7.9673   -9.9873    0.0000 C   0  0  0  0  0  0  0  0  0  0  0  0
    8.5370   -9.6542    0.0000 C   0  0  0  0  0  0  0  0  0  0  0  0
    1.6746   -9.0318    0.0000 O   0  0  0  0  0  0  0  0  0  0  0  0
    9.1970   -9.6506    0.0000 C   0  0  0  0  0  0  0  0  0  0  0  0
    8.3627   -9.0176    0.0000 H   0  0  0  0  0  0  0  0  0  0  0  0
    9.5239   -9.0772    0.0000 H   0  0  0  0  0  0  0  0  0  0  0  0
    9.6663  -10.1147    0.0000 C   0  0  0  0  0  0  0  0  0  0  0  0
   10.2353   -9.7947    0.0000 C   0  0  0  0  0  0  0  0  0  0  0  0
   10.8023  -10.1326    0.0000 C   0  0  0  0  0  0  0  0  0  0  0  0
   11.3784   -9.8106    0.0000 C   0  0  0  0  0  0  0  0  0  0  0  0
   11.9453  -10.1485    0.0000 C   0  0  0  0  0  0  0  0  0  0  0  0
   12.5214   -9.8264    0.0000 C   0  0  0  0  0  0  0  0  0  0  0  0
   13.0884  -10.1643    0.0000 C   0  0  0  0  0  0  0  0  0  0  0  0
  1  2  1  0  0  0  0
  2  3  1  0  0  0  0
  3  4  1  0  0  0  0
  4  5  1  0  0  0  0
  5  6  1  0  0  0  0
  6  7  1  0  0  0  0
  7  8  1  0  0  0  0
  8  9  1  0  0  0  0
  9 10  1  0  0  0  0
 10 11  1  0  0  0  0
 11 12  1  0  0  0  0
 12 13  1  0  0  0  0
 13 14  1  0  0  0  0
  2 15  2  0  0  0  0
 14 16  2  0  0  0  0
 14 17  1  0  0  0  0
 16 18  1  0  0  0  0
 16 19  1  0  0  0  0
 20 21  1  0  0  0  0
 21 22  1  0  0  0  0
 22 23  1  0  0  0  0
 23 24  1  0  0  0  0
 24 25  1  0  0  0  0
 20 19  1  0  0  0  0
M  END
>  <cdx:fragmentId>
3

$$$$
