50651.cdx
  Mrv1902 05222410252D          

 22 25  0  0  0  0            999 V2000
    5.5393   -7.2589    0.0000 C   0  0  0  0  0  0  0  0  0  0  0  0
    5.5393   -8.0839    0.0000 C   0  0  0  0  0  0  0  0  0  0  0  0
    6.2538   -8.4964    0.0000 N   0  0  0  0  0  0  0  0  0  0  0  0
    6.9682   -8.0839    0.0000 C   0  0  0  0  0  0  0  0  0  0  0  0
    6.9682   -7.2589    0.0000 C   0  0  0  0  0  0  0  0  0  0  0  0
    6.2538   -6.8464    0.0000 C   0  0  0  0  0  0  0  0  0  0  0  0
    7.6827   -8.4964    0.0000 C   0  0  0  0  0  0  0  0  0  0  0  0
    8.3972   -8.0839    0.0000 C   0  0  0  0  0  0  0  0  0  0  0  0
    8.3972   -7.2589    0.0000 C   0  0  0  0  0  0  0  0  0  0  0  0
    7.6827   -6.8464    0.0000 C   0  0  0  0  0  0  0  0  0  0  0  0
    6.2538   -9.3214    0.0000 C   0  0  0  0  0  0  0  0  0  0  0  0
    6.9682   -9.7339    0.0000 C   0  0  0  0  0  0  0  0  0  0  0  0
    7.6827   -9.3214    0.0000 C   0  0  0  0  0  0  0  0  0  0  0  0
    9.1117   -6.8464    0.0000 O   0  0  0  0  0  0  0  0  0  0  0  0
    7.4692   -6.0495    0.0000 C   0  0  0  0  0  0  0  0  0  0  0  0
    6.6442   -6.0495    0.0000 C   0  0  0  0  0  0  0  0  0  0  0  0
    6.3849   -7.5005    0.0000 C   0  0  0  0  0  0  0  0  0  0  0  0
    6.1146   -5.4169    0.0000 C   0  0  0  0  0  0  0  0  0  0  0  0
    7.9714   -5.3950    0.0000 H   0  0  0  0  0  0  0  0  0  0  0  0
    6.3082   -6.3239    0.0000 O   0  0  0  0  0  0  0  0  0  0  0  0
    9.1117   -8.4964    0.0000 O   0  0  0  0  0  0  0  0  0  0  0  0
    5.4832   -6.3239    0.0000 C   0  0  0  0  0  0  0  0  0  0  0  0
  1  2  1  0  0  0  0
  2  3  1  0  0  0  0
  3  4  1  0  0  0  0
  4  5  1  0  0  0  0
  5  6  1  0  0  0  0
  6  1  1  0  0  0  0
  4  7  1  0  0  0  0
  7  8  1  0  0  0  0
  8  9  1  0  0  0  0
  9 10  1  0  0  0  0
 10  5  1  0  0  0  0
  3 11  1  0  0  0  0
 11 12  1  0  0  0  0
 12 13  1  0  0  0  0
 13  7  1  0  0  0  0
  9 14  1  0  0  0  0
 10 15  1  0  0  0  0
 15 16  1  0  0  0  0
  4 17  1  0  0  0  0
 17 16  1  0  0  0  0
 16 18  1  0  0  0  0
 15 19  1  0  0  0  0
  5 20  1  0  0  0  0
  8 21  2  0  0  0  0
 20 22  1  0  0  0  0
M  END
>  <cdx:fragmentId>
5

$$$$
