50654.cdx
  Mrv1902 05222410242D          

 19 21  0  0  0  0            999 V2000
    4.7281   -8.5651    0.0000 C   0  0  0  0  0  0  0  0  0  0  0  0
    4.7281   -9.3901    0.0000 C   0  0  0  0  0  0  0  0  0  0  0  0
    5.4425   -9.8026    0.0000 C   0  0  0  0  0  0  0  0  0  0  0  0
    6.1570   -9.3901    0.0000 C   0  0  0  0  0  0  0  0  0  0  0  0
    6.1570   -8.5651    0.0000 C   0  0  0  0  0  0  0  0  0  0  0  0
    5.4425   -8.1526    0.0000 C   0  0  0  0  0  0  0  0  0  0  0  0
    6.8715   -9.8026    0.0000 C   0  0  0  0  0  0  0  0  0  0  0  0
    7.5859   -9.3901    0.0000 C   0  0  0  0  0  0  0  0  0  0  0  0
    7.5859   -8.5651    0.0000 C   0  0  0  0  0  0  0  0  0  0  0  0
    6.8715   -8.1526    0.0000 C   0  0  0  0  0  0  0  0  0  0  0  0
    8.3004   -9.8026    0.0000 C   0  0  0  0  0  0  0  0  0  0  0  0
    9.0149   -9.3901    0.0000 C   0  0  0  0  0  0  0  0  0  0  0  0
    9.0149   -8.5651    0.0000 C   0  0  0  0  0  0  0  0  0  0  0  0
    8.3004   -8.1526    0.0000 C   0  0  0  0  0  0  0  0  0  0  0  0
    6.8715   -7.3276    0.0000 O   0  0  0  0  0  0  0  0  0  0  0  0
    6.8715  -10.6276    0.0000 O   0  0  0  0  0  0  0  0  0  0  0  0
    9.7294   -8.1526    0.0000 O   0  0  0  0  0  0  0  0  0  0  0  0
    8.3004   -7.3276    0.0000 O   0  0  0  0  0  0  0  0  0  0  0  0
    9.0149   -6.9151    0.0000 C   0  0  0  0  0  0  0  0  0  0  0  0
  1  2  2  0  0  0  0
  2  3  1  0  0  0  0
  3  4  2  0  0  0  0
  4  5  1  0  0  0  0
  5  6  2  0  0  0  0
  6  1  1  0  0  0  0
  4  7  1  0  0  0  0
  7  8  1  0  0  0  0
  8  9  2  0  0  0  0
  9 10  1  0  0  0  0
 10  5  1  0  0  0  0
  8 11  1  0  0  0  0
 11 12  2  0  0  0  0
 12 13  1  0  0  0  0
 13 14  2  0  0  0  0
 14  9  1  0  0  0  0
 10 15  2  0  0  0  0
  7 16  2  0  0  0  0
 13 17  1  0  0  0  0
 14 18  1  0  0  0  0
 18 19  1  0  0  0  0
M  END
>  <cdx:fragmentId>
5

$$$$
