50655.cdx
  Mrv1902 05222410242D          

 14 15  0  0  0  0            999 V2000
    3.9581   -7.3551    0.0000 C   0  0  0  0  0  0  0  0  0  0  0  0
    3.9581   -8.1801    0.0000 C   0  0  0  0  0  0  0  0  0  0  0  0
    4.6725   -8.5926    0.0000 C   0  0  0  0  0  0  0  0  0  0  0  0
    5.3870   -8.1801    0.0000 C   0  0  0  0  0  0  0  0  0  0  0  0
    5.3870   -7.3551    0.0000 C   0  0  0  0  0  0  0  0  0  0  0  0
    4.6725   -6.9426    0.0000 C   0  0  0  0  0  0  0  0  0  0  0  0
    6.1716   -8.4351    0.0000 N   0  0  0  0  0  0  0  0  0  0  0  0
    6.6565   -7.7676    0.0000 C   0  0  0  0  0  0  0  0  0  0  0  0
    6.1716   -7.1002    0.0000 C   0  0  0  0  0  0  0  0  0  0  0  0
    6.4266   -9.2197    0.0000 O   0  0  0  0  0  0  0  0  0  0  0  0
    7.2234   -9.4332    0.0000 C   0  0  0  0  0  0  0  0  0  0  0  0
    6.4266   -6.3156    0.0000 C   0  0  0  0  0  0  0  0  0  0  0  0
    7.2322   -6.1379    0.0000 C   0  0  0  0  0  0  0  0  0  0  0  0
    8.0378   -5.9602    0.0000 N   0  0  0  0  0  0  0  0  0  0  0  0
  1  2  2  0  0  0  0
  2  3  1  0  0  0  0
  3  4  2  0  0  0  0
  4  5  1  0  0  0  0
  5  6  2  0  0  0  0
  6  1  1  0  0  0  0
  4  7  1  0  0  0  0
  7  8  1  0  0  0  0
  8  9  2  0  0  0  0
  9  5  1  0  0  0  0
  7 10  1  0  0  0  0
 10 11  1  0  0  0  0
  9 12  1  0  0  0  0
 12 13  1  0  0  0  0
 13 14  3  0  0  0  0
M  END
>  <cdx:fragmentId>
5

$$$$
