50662.cdx
  Mrv1902 05222410212D          

 15 15  0  0  0  0            999 V2000
    6.1993  -10.1601    0.0000 C   0  0  0  0  0  0  0  0  0  0  0  0
    6.1993  -10.9851    0.0000 C   0  0  0  0  0  0  0  0  0  0  0  0
    6.9138  -11.3976    0.0000 C   0  0  0  0  0  0  0  0  0  0  0  0
    7.6282  -10.9851    0.0000 C   0  0  0  0  0  0  0  0  0  0  0  0
    7.6282  -10.1601    0.0000 C   0  0  0  0  0  0  0  0  0  0  0  0
    6.9138   -9.7476    0.0000 C   0  0  0  0  0  0  0  0  0  0  0  0
    8.3427   -9.7476    0.0000 C   0  0  0  0  0  0  0  0  0  0  0  0
    8.3427  -11.3976    0.0000 O   0  0  0  0  0  0  0  0  0  0  0  0
    5.3743  -10.1601    0.0000 C   0  0  0  0  0  0  0  0  0  0  0  0
    5.7868   -9.4457    0.0000 C   0  0  0  0  0  0  0  0  0  0  0  0
    6.9138   -8.9226    0.0000 C   0  0  0  0  0  0  0  0  0  0  0  0
    7.6282   -8.5101    0.0000 C   0  0  0  0  0  0  0  0  0  0  0  0
    7.6282   -7.6851    0.0000 C   0  0  0  0  0  0  0  0  0  0  0  0
    8.3427   -7.2726    0.0000 C   0  0  0  0  0  0  0  0  0  0  0  0
    6.9138   -7.2726    0.0000 O   0  0  0  0  0  0  0  0  0  0  0  0
  1  2  1  0  0  0  0
  2  3  1  0  0  0  0
  3  4  1  0  0  0  0
  4  5  1  0  0  0  0
  5  6  2  0  0  0  0
  6  1  1  0  0  0  0
  5  7  1  0  0  0  0
  4  8  2  0  0  0  0
  1  9  1  0  0  0  0
  1 10  1  0  0  0  0
  6 11  1  0  0  0  0
 11 12  2  0  0  0  0
 12 13  1  0  0  0  0
 13 14  1  0  0  0  0
 13 15  2  0  0  0  0
M  END
>  <cdx:fragmentId>
5

$$$$
