50664.cdx
  Mrv1902 05222410222D          

 18 17  0  0  0  0            999 V2000
   12.1451   -7.9464    0.0000 C   0  0  0  0  0  0  0  0  0  0  0  0
   11.4306   -8.3589    0.0000 C   0  0  0  0  0  0  0  0  0  0  0  0
   10.7162   -7.9464    0.0000 C   0  0  0  0  0  0  0  0  0  0  0  0
   10.0017   -8.3589    0.0000 C   0  0  0  0  0  0  0  0  0  0  0  0
    9.2872   -7.9464    0.0000 C   0  0  0  0  0  0  0  0  0  0  0  0
    8.5728   -8.3589    0.0000 C   0  0  0  0  0  0  0  0  0  0  0  0
    7.8583   -7.9464    0.0000 C   0  0  0  0  0  0  0  0  0  0  0  0
    7.1438   -8.3589    0.0000 C   0  0  0  0  0  0  0  0  0  0  0  0
    6.4294   -7.9464    0.0000 C   0  0  0  0  0  0  0  0  0  0  0  0
    5.7149   -8.3589    0.0000 C   0  0  0  0  0  0  0  0  0  0  0  0
    5.0004   -7.9464    0.0000 C   0  0  0  0  0  0  0  0  0  0  0  0
    4.2859   -8.3589    0.0000 C   0  0  0  0  0  0  0  0  0  0  0  0
    3.5715   -7.9464    0.0000 C   0  0  0  0  0  0  0  0  0  0  0  0
    2.8570   -8.3589    0.0000 C   0  0  0  0  0  0  0  0  0  0  0  0
    2.1425   -7.9464    0.0000 C   0  0  0  0  0  0  0  0  0  0  0  0
    2.8570   -9.1839    0.0000 C   0  0  0  0  0  0  0  0  0  0  0  0
    5.7149   -9.1839    0.0000 C   0  0  0  0  0  0  0  0  0  0  0  0
    8.5728   -9.1839    0.0000 C   0  0  0  0  0  0  0  0  0  0  0  0
  1  2  1  0  0  0  0
  2  3  1  0  0  0  0
  3  4  1  0  0  0  0
  4  5  1  0  0  0  0
  5  6  1  0  0  0  0
  6  7  1  0  0  0  0
  7  8  1  0  0  0  0
  8  9  1  0  0  0  0
  9 10  1  0  0  0  0
 10 11  1  0  0  0  0
 11 12  1  0  0  0  0
 12 13  1  0  0  0  0
 13 14  1  0  0  0  0
 14 15  1  0  0  0  0
 14 16  1  0  0  0  0
 10 17  1  0  0  0  0
  6 18  1  0  0  0  0
M  END
>  <cdx:fragmentId>
3

$$$$
