50663.cdx
  Mrv1902 05222410202D          

 13 13  0  0  0  0            999 V2000
    6.2818   -4.8251    0.0000 C   0  0  0  0  0  0  0  0  0  0  0  0
    6.2818   -5.6501    0.0000 C   0  0  0  0  0  0  0  0  0  0  0  0
    6.9963   -6.0626    0.0000 C   0  0  0  0  0  0  0  0  0  0  0  0
    7.7107   -5.6501    0.0000 C   0  0  0  0  0  0  0  0  0  0  0  0
    7.7107   -4.8251    0.0000 C   0  0  0  0  0  0  0  0  0  0  0  0
    6.9963   -4.4126    0.0000 C   0  0  0  0  0  0  0  0  0  0  0  0
    5.5673   -4.4126    0.0000 O   0  0  0  0  0  0  0  0  0  0  0  0
    8.4252   -6.0626    0.0000 C   0  0  0  0  0  0  0  0  0  0  0  0
    6.9963   -6.8876    0.0000 O   0  0  0  0  0  0  0  0  0  0  0  0
    6.5838   -3.6982    0.0000 C   0  0  0  0  0  0  0  0  0  0  0  0
    7.4088   -3.6982    0.0000 C   0  0  0  0  0  0  0  0  0  0  0  0
    8.4252   -4.4126    0.0000 C   0  0  0  0  0  0  0  0  0  0  0  0
    9.1397   -4.8251    0.0000 O   0  0  0  0  0  0  0  0  0  0  0  0
  1  2  2  0  0  0  0
  2  3  1  0  0  0  0
  3  4  1  0  0  0  0
  4  5  2  0  0  0  0
  5  6  1  0  0  0  0
  6  1  1  0  0  0  0
  1  7  1  0  0  0  0
  4  8  1  0  0  0  0
  3  9  2  0  0  0  0
  6 10  1  0  0  0  0
  6 11  1  0  0  0  0
  5 12  1  0  0  0  0
 12 13  2  0  0  0  0
M  END
>  <cdx:fragmentId>
5

$$$$
