50667.cdx
  Mrv1902 05222410232D          

 14 14  0  0  0  0            999 V2000
    6.4875   -8.6344    0.0000 C   0  0  0  0  0  0  0  0  0  0  0  0
    6.0750   -9.3489    0.0000 C   0  0  0  0  0  0  0  0  0  0  0  0
    6.4875  -10.0634    0.0000 C   0  0  0  0  0  0  0  0  0  0  0  0
    7.3125  -10.0634    0.0000 C   0  0  0  0  0  0  0  0  0  0  0  0
    7.7250   -9.3489    0.0000 C   0  0  0  0  0  0  0  0  0  0  0  0
    7.3125   -8.6344    0.0000 C   0  0  0  0  0  0  0  0  0  0  0  0
    6.0750   -7.9200    0.0000 C   0  0  0  0  0  0  0  0  0  0  0  0
    5.2500   -7.9200    0.0000 O   0  0  0  0  0  0  0  0  0  0  0  0
    7.7250  -10.7778    0.0000 C   0  0  0  0  0  0  0  0  0  0  0  0
    8.5500  -10.7778    0.0000 O   0  0  0  0  0  0  0  0  0  0  0  0
    7.7250   -7.9200    0.0000 O   0  0  0  0  0  0  0  0  0  0  0  0
    8.5500   -7.9200    0.0000 C   0  0  0  0  0  0  0  0  0  0  0  0
    5.2500   -9.3489    0.0000 O   0  0  0  0  0  0  0  0  0  0  0  0
    4.8375  -10.0634    0.0000 C   0  0  0  0  0  0  0  0  0  0  0  0
  1  2  2  0  0  0  0
  2  3  1  0  0  0  0
  3  4  2  0  0  0  0
  4  5  1  0  0  0  0
  5  6  2  0  0  0  0
  6  1  1  0  0  0  0
  1  7  1  0  0  0  0
  7  8  2  0  0  0  0
  4  9  1  0  0  0  0
  9 10  1  0  0  0  0
  6 11  1  0  0  0  0
 11 12  1  0  0  0  0
  2 13  1  0  0  0  0
 13 14  1  0  0  0  0
M  END
>  <cdx:fragmentId>
5

$$$$
