50668.cdx
  Mrv1902 05222410242D          

 10  9  0  0  0  0            999 V2000
    3.8063   -9.1151    0.0000 O   0  0  0  0  0  0  0  0  0  0  0  0
    4.5207   -8.7026    0.0000 C   0  0  0  0  0  0  0  0  0  0  0  0
    5.2352   -9.1151    0.0000 C   0  0  0  0  0  0  0  0  0  0  0  0
    5.9497   -8.7026    0.0000 C   0  0  0  0  0  0  0  0  0  0  0  0
    6.6642   -9.1151    0.0000 C   0  0  0  0  0  0  0  0  0  0  0  0
    7.3786   -8.7026    0.0000 C   0  0  0  0  0  0  0  0  0  0  0  0
    8.0931   -9.1151    0.0000 C   0  0  0  0  0  0  0  0  0  0  0  0
    8.8076   -8.7026    0.0000 C   0  0  0  0  0  0  0  0  0  0  0  0
    5.2352   -9.9401    0.0000 C   0  0  0  0  0  0  0  0  0  0  0  0
    8.0931   -9.9401    0.0000 C   0  0  0  0  0  0  0  0  0  0  0  0
  1  2  2  0  0  0  0
  2  3  1  0  0  0  0
  3  4  1  0  0  0  0
  4  5  1  0  0  0  0
  5  6  1  0  0  0  0
  6  7  2  0  0  0  0
  7  8  1  0  0  0  0
  3  9  1  0  0  0  0
  7 10  1  0  0  0  0
M  END
>  <cdx:fragmentId>
3

$$$$
