50669.cdx
  Mrv1902 05222410242D          

 11 11  0  0  0  0            999 V2000
    5.6997   -8.2626    0.0000 C   0  0  0  0  0  0  0  0  0  0  0  0
    5.6997   -9.0876    0.0000 C   0  0  0  0  0  0  0  0  0  0  0  0
    6.3447   -9.6020    0.0000 C   0  0  0  0  0  0  0  0  0  0  0  0
    7.1490   -9.4184    0.0000 C   0  0  0  0  0  0  0  0  0  0  0  0
    7.5070   -8.6751    0.0000 C   0  0  0  0  0  0  0  0  0  0  0  0
    7.1490   -7.9319    0.0000 C   0  0  0  0  0  0  0  0  0  0  0  0
    6.3447   -7.7483    0.0000 C   0  0  0  0  0  0  0  0  0  0  0  0
    6.1611  -10.4063    0.0000 C   0  0  0  0  0  0  0  0  0  0  0  0
    7.6634  -10.0635    0.0000 O   0  0  0  0  0  0  0  0  0  0  0  0
    8.2215   -8.2626    0.0000 C   0  0  0  0  0  0  0  0  0  0  0  0
    8.2215   -9.0876    0.0000 C   0  0  0  0  0  0  0  0  0  0  0  0
  1  2  1  0  0  0  0
  2  3  2  0  0  0  0
  3  4  1  0  0  0  0
  4  5  1  0  0  0  0
  5  6  1  0  0  0  0
  6  7  1  0  0  0  0
  7  1  2  0  0  0  0
  3  8  1  0  0  0  0
  4  9  2  0  0  0  0
  5 10  1  0  0  0  0
  5 11  1  0  0  0  0
M  END
>  <cdx:fragmentId>
5

$$$$
