50666.cdx
  Mrv1902 05222410222D          

 11 11  0  0  0  0            999 V2000
    6.7081   -8.9501    0.0000 C   0  0  0  0  0  0  0  0  0  0  0  0
    6.7081   -9.7751    0.0000 C   0  0  0  0  0  0  0  0  0  0  0  0
    7.4225  -10.1876    0.0000 C   0  0  0  0  0  0  0  0  0  0  0  0
    8.1370   -9.7751    0.0000 C   0  0  0  0  0  0  0  0  0  0  0  0
    8.1370   -8.9501    0.0000 C   0  0  0  0  0  0  0  0  0  0  0  0
    7.4225   -8.5376    0.0000 C   0  0  0  0  0  0  0  0  0  0  0  0
    5.9936   -8.5376    0.0000 O   0  0  0  0  0  0  0  0  0  0  0  0
    8.8515   -8.5376    0.0000 O   0  0  0  0  0  0  0  0  0  0  0  0
    7.4225   -7.7126    0.0000 C   0  0  0  0  0  0  0  0  0  0  0  0
    8.1370   -7.3001    0.0000 C   0  0  0  0  0  0  0  0  0  0  0  0
    6.7081   -7.3001    0.0000 O   0  0  0  0  0  0  0  0  0  0  0  0
  1  2  2  0  0  0  0
  2  3  1  0  0  0  0
  3  4  2  0  0  0  0
  4  5  1  0  0  0  0
  5  6  2  0  0  0  0
  6  1  1  0  0  0  0
  1  7  1  0  0  0  0
  5  8  1  0  0  0  0
  6  9  1  0  0  0  0
  9 10  1  0  0  0  0
  9 11  2  0  0  0  0
M  END
>  <cdx:fragmentId>
5

$$$$
