50670.cdx
  Mrv1902 05222410222D          

 11 12  0  0  0  0            999 V2000
    7.1438   -7.7777    0.0000 C   0  0  0  0  0  0  0  0  0  0  0  0
    6.4294   -8.1902    0.0000 C   0  0  0  0  0  0  0  0  0  0  0  0
    6.4294   -9.0152    0.0000 C   0  0  0  0  0  0  0  0  0  0  0  0
    7.1438   -9.4277    0.0000 C   0  0  0  0  0  0  0  0  0  0  0  0
    7.8583   -9.0152    0.0000 C   0  0  0  0  0  0  0  0  0  0  0  0
    7.3264   -8.4971    0.0000 C   0  0  0  0  0  0  0  0  0  0  0  0
    7.8583   -8.1902    0.0000 C   0  0  0  0  0  0  0  0  0  0  0  0
    6.7906   -8.8065    0.0000 O   0  0  0  0  0  0  0  0  0  0  0  0
    8.2708   -7.4758    0.0000 C   0  0  0  0  0  0  0  0  0  0  0  0
    8.6833   -8.1902    0.0000 C   0  0  0  0  0  0  0  0  0  0  0  0
    5.7149   -7.7777    0.0000 C   0  0  0  0  0  0  0  0  0  0  0  0
  1  2  1  0  0  0  0
  2  3  2  0  0  0  0
  3  4  1  0  0  0  0
  4  5  1  0  0  0  0
  5  6  1  0  0  0  0
  1  6  1  0  0  0  0
  1  7  1  0  0  0  0
  7  5  1  0  0  0  0
  6  8  2  0  0  0  0
  7  9  1  0  0  0  0
  7 10  1  0  0  0  0
  2 11  1  0  0  0  0
M  END
>  <cdx:fragmentId>
5

$$$$
