50677.cdx
  Mrv1902 05222410202D          

 43 50  0  0  0  0            999 V2000
    9.8879   -8.8911    0.0000 H   0  0  0  0  0  0  0  0  0  0  0  0
    9.1802   -9.2401    0.0000 H   0  0  0  0  0  0  0  0  0  0  0  0
    6.7547   -6.9009    0.0000 O   0  0  0  0  0  0  0  0  0  0  0  0
    6.0566   -8.9690    0.0000 C   0  0  2  0  0  0  0  0  0  0  0  0
    6.0501   -8.1440    0.0000 C   0  0  0  0  0  0  0  0  0  0  0  0
    6.7612   -7.7258    0.0000 C   0  0  2  0  0  0  0  0  0  0  0  0
    7.4790   -8.1327    0.0000 C   0  0  2  0  0  0  0  0  0  0  0  0
    8.2615   -7.8715    0.0000 C   0  0  1  0  0  0  0  0  0  0  0  0
    8.5911   -7.1152    0.0000 C   0  0  1  0  0  0  0  0  0  0  0  0
    9.4109   -7.0225    0.0000 C   0  0  0  0  0  0  0  0  0  0  0  0
    9.5715   -8.4424    0.0000 O   0  0  0  0  0  0  0  0  0  0  0  0
    8.7517   -8.5351    0.0000 C   0  0  1  0  0  0  0  0  0  0  0  0
    8.2721   -9.2064    0.0000 C   0  0  0  0  0  0  0  0  0  0  0  0
    7.4855   -8.9576    0.0000 C   0  0  1  0  0  0  0  0  0  0  0  0
    6.7743   -9.3758    0.0000 C   0  0  2  0  0  0  0  0  0  0  0  0
    6.7809  -10.2008    0.0000 C   0  0  0  0  0  0  0  0  0  0  0  0
    6.0697  -10.6189    0.0000 C   0  0  0  0  0  0  0  0  0  0  0  0
    5.3520  -10.2121    0.0000 C   0  0  1  0  0  0  0  0  0  0  0  0
    4.6408  -10.6302    0.0000 C   0  0  0  0  0  0  0  0  0  0  0  0
    3.9231  -10.2234    0.0000 C   0  0  2  0  0  0  0  0  0  0  0  0
    3.9165   -9.3984    0.0000 C   0  0  0  0  0  0  0  0  0  0  0  0
    4.6277   -8.9803    0.0000 C   0  0  0  0  0  0  0  0  0  0  0  0
    5.3454   -9.3871    0.0000 C   0  0  2  0  0  0  0  0  0  0  0  0
    5.3389   -8.5621    0.0000 C   0  0  0  0  0  0  0  0  0  0  0  0
    5.0589  -11.3414    0.0000 C   0  0  0  0  0  0  0  0  0  0  0  0
    4.2340  -11.3480    0.0000 C   0  0  0  0  0  0  0  0  0  0  0  0
    7.4920   -9.7826    0.0000 C   0  0  0  0  0  0  0  0  0  0  0  0
    8.1009   -6.4516    0.0000 C   0  0  0  0  0  0  0  0  0  0  0  0
    7.4604   -7.3079    0.0000 C   0  0  0  0  0  0  0  0  0  0  0  0
    7.8188   -7.1754    0.0000 H   0  0  0  0  0  0  0  0  0  0  0  0
    6.7678   -8.5508    0.0000 H   0  0  0  0  0  0  0  0  0  0  0  0
    5.3585  -11.0371    0.0000 H   0  0  0  0  0  0  0  0  0  0  0  0
   12.0339   -7.9467    0.0000 C   0  0  0  0  0  0  0  0  0  0  0  0
   11.1292   -8.7744    0.0000 O   0  0  0  0  0  0  0  0  0  0  0  0
   10.4580   -8.2947    0.0000 C   0  0  2  0  0  0  0  0  0  0  0  0
    9.9011   -7.6860    0.0000 C   0  0  2  0  0  0  0  0  0  0  0  0
   10.3079   -6.9683    0.0000 O   0  0  0  0  0  0  0  0  0  0  0  0
   11.1162   -7.1334    0.0000 C   0  0  0  0  0  0  0  0  0  0  0  0
   11.2089   -7.9532    0.0000 C   0  0  1  0  0  0  0  0  0  0  0  0
    3.2119  -10.6416    0.0000 O   0  0  0  0  0  0  0  0  0  0  0  0
    6.0370   -6.4940    0.0000 C   0  0  0  0  0  0  0  0  0  0  0  0
    5.3258   -6.9122    0.0000 C   0  0  0  0  0  0  0  0  0  0  0  0
    6.0304   -5.6691    0.0000 O   0  0  0  0  0  0  0  0  0  0  0  0
 35  1  1  1  0  0  0
 12  2  1  6  0  0  0
 39 33  1  1  0  0  0
 39 35  1  0  0  0  0
 39 34  1  0  0  0  0
 35 34  1  0  0  0  0
 36 35  1  0  0  0  0
 36 37  1  6  0  0  0
 38 37  1  0  0  0  0
 39 38  1  0  0  0  0
  4  5  1  0  0  0  0
  5  6  1  0  0  0  0
  6  7  1  0  0  0  0
  7  8  1  0  0  0  0
  8  9  1  0  0  0  0
  9 10  1  0  0  0  0
 11 12  1  0  0  0  0
 12 13  1  0  0  0  0
 13 14  1  0  0  0  0
 14 15  1  0  0  0  0
 15 16  1  0  0  0  0
 16 17  1  0  0  0  0
 17 18  1  0  0  0  0
 18 19  1  0  0  0  0
 19 20  1  0  0  0  0
 20 21  1  0  0  0  0
 21 22  1  0  0  0  0
 22 23  1  0  0  0  0
 23 24  1  1  0  0  0
  4 24  1  1  0  0  0
  4 15  1  0  0  0  0
 18 23  1  0  0  0  0
  4 23  1  0  0  0  0
  7 14  1  0  0  0  0
  8 12  1  0  0  0  0
 10 36  1  0  0  0  0
 11 36  1  0  0  0  0
 19 25  1  0  0  0  0
 19 26  1  0  0  0  0
 14 27  1  6  0  0  0
  9 28  1  6  0  0  0
  7 29  1  1  0  0  0
 20 40  1  1  0  0  0
  6  3  1  1  0  0  0
  8 30  1  6  0  0  0
 15 31  1  1  0  0  0
 18 32  1  6  0  0  0
  3 41  1  0  0  0  0
 41 42  1  0  0  0  0
 41 43  2  0  0  0  0
M  END
>  <cdx:fragmentId>
39

$$$$
