50671.cdx
  Mrv1902 05222410222D          

 18 19  0  0  0  0            999 V2000
    4.8793   -7.4651    0.0000 C   0  0  0  0  0  0  0  0  0  0  0  0
    4.8793   -8.2901    0.0000 C   0  0  0  0  0  0  0  0  0  0  0  0
    5.5938   -8.7026    0.0000 C   0  0  0  0  0  0  0  0  0  0  0  0
    6.3082   -8.2901    0.0000 C   0  0  0  0  0  0  0  0  0  0  0  0
    6.3082   -7.4651    0.0000 C   0  0  0  0  0  0  0  0  0  0  0  0
    5.5938   -7.0526    0.0000 C   0  0  0  0  0  0  0  0  0  0  0  0
    7.0227   -8.7026    0.0000 C   0  0  0  0  0  0  0  0  0  0  0  0
    7.7372   -8.2901    0.0000 C   0  0  0  0  0  0  0  0  0  0  0  0
    7.7372   -7.4651    0.0000 C   0  0  0  0  0  0  0  0  0  0  0  0
    7.0227   -7.0526    0.0000 C   0  0  0  0  0  0  0  0  0  0  0  0
    4.1648   -7.0526    0.0000 C   0  0  0  0  0  0  0  0  0  0  0  0
    3.4504   -7.4651    0.0000 C   0  0  0  0  0  0  0  0  0  0  0  0
    4.1648   -6.2276    0.0000 C   0  0  0  0  0  0  0  0  0  0  0  0
    3.4504   -6.6401    0.0000 C   0  0  0  0  0  0  0  0  0  0  0  0
    8.4517   -7.0526    0.0000 C   0  0  0  0  0  0  0  0  0  0  0  0
    8.4517   -6.2276    0.0000 C   0  0  0  0  0  0  0  0  0  0  0  0
    9.1661   -7.4651    0.0000 C   0  0  0  0  0  0  0  0  0  0  0  0
    9.1661   -6.6401    0.0000 C   0  0  0  0  0  0  0  0  0  0  0  0
  1  2  2  0  0  0  0
  2  3  1  0  0  0  0
  3  4  2  0  0  0  0
  4  5  1  0  0  0  0
  5  6  2  0  0  0  0
  6  1  1  0  0  0  0
  4  7  1  0  0  0  0
  7  8  2  0  0  0  0
  8  9  1  0  0  0  0
  9 10  2  0  0  0  0
 10  5  1  0  0  0  0
  1 11  1  0  0  0  0
 11 12  1  0  0  0  0
 11 13  1  0  0  0  0
 11 14  1  0  0  0  0
  9 15  1  0  0  0  0
 15 16  1  0  0  0  0
 15 17  1  0  0  0  0
 15 18  1  0  0  0  0
M  END
>  <cdx:fragmentId>
5

$$$$
