50681.cdx
  Mrv1902 05222410232D          

 33 36  0  0  0  0            999 V2000
    4.2056   -7.7951    0.0000 C   0  0  0  0  0  0  0  0  0  0  0  0
    4.2056   -8.6201    0.0000 C   0  0  1  0  0  0  0  0  0  0  0  0
    4.9200   -9.0326    0.0000 C   0  0  0  0  0  0  0  0  0  0  0  0
    5.6345   -8.6201    0.0000 C   0  0  2  0  0  0  0  0  0  0  0  0
    5.6345   -7.7951    0.0000 C   0  0  2  0  0  0  0  0  0  0  0  0
    4.9200   -7.3826    0.0000 C   0  0  0  0  0  0  0  0  0  0  0  0
    6.3490   -9.0326    0.0000 C   0  0  0  0  0  0  0  0  0  0  0  0
    7.0634   -8.6201    0.0000 C   0  0  0  0  0  0  0  0  0  0  0  0
    7.0634   -7.7951    0.0000 C   0  0  0  0  0  0  0  0  0  0  0  0
    6.3490   -7.3826    0.0000 C   0  0  0  0  0  0  0  0  0  0  0  0
    7.7779   -7.3826    0.0000 C   0  0  1  0  0  0  0  0  0  0  0  0
    7.7779   -6.5576    0.0000 C   0  0  2  0  0  0  0  0  0  0  0  0
    7.0634   -6.1451    0.0000 C   0  0  0  0  0  0  0  0  0  0  0  0
    6.3490   -6.5576    0.0000 C   0  0  0  0  0  0  0  0  0  0  0  0
    8.5625   -7.6376    0.0000 C   0  0  0  0  0  0  0  0  0  0  0  0
    9.0475   -6.9701    0.0000 C   0  0  0  0  0  0  0  0  0  0  0  0
    8.5625   -6.3027    0.0000 C   0  0  0  0  0  0  0  0  0  0  0  0
    6.3490   -9.8576    0.0000 O   0  0  0  0  0  0  0  0  0  0  0  0
    8.8175   -5.5181    0.0000 C   0  0  2  0  0  0  0  0  0  0  0  0
    9.6144   -5.3046    0.0000 C   0  0  1  0  0  0  0  0  0  0  0  0
    9.8279   -4.5077    0.0000 C   0  0  0  0  0  0  0  0  0  0  0  0
   10.6248   -4.2941    0.0000 C   0  0  0  0  0  0  0  0  0  0  0  0
   10.8383   -3.4973    0.0000 C   0  0  0  0  0  0  0  0  0  0  0  0
   11.6352   -3.2837    0.0000 C   0  0  0  0  0  0  0  0  0  0  0  0
   10.2549   -2.9139    0.0000 O   0  0  0  0  0  0  0  0  0  0  0  0
   11.0518   -2.7004    0.0000 C   0  0  0  0  0  0  0  0  0  0  0  0
    3.4911   -9.0326    0.0000 O   0  0  0  0  0  0  0  0  0  0  0  0
    5.6345   -6.9701    0.0000 C   0  0  0  0  0  0  0  0  0  0  0  0
    7.9914   -5.7608    0.0000 C   0  0  0  0  0  0  0  0  0  0  0  0
    8.0206   -5.3046    0.0000 O   0  0  0  0  0  0  0  0  0  0  0  0
   10.1977   -5.8879    0.0000 O   0  0  0  0  0  0  0  0  0  0  0  0
    8.8175   -4.6931    0.0000 C   0  0  0  0  0  0  0  0  0  0  0  0
    7.9914   -8.1795    0.0000 O   0  0  0  0  0  0  0  0  0  0  0  0
  1  2  1  0  0  0  0
  2  3  1  0  0  0  0
  4  3  1  6  0  0  0
  4  5  1  0  0  0  0
  5  6  1  0  0  0  0
  6  1  1  0  0  0  0
  4  7  1  0  0  0  0
  7  8  1  0  0  0  0
  8  9  2  0  0  0  0
  9 10  1  0  0  0  0
 10  5  1  0  0  0  0
  9 11  1  0  0  0  0
 11 12  1  0  0  0  0
 12 13  1  0  0  0  0
 13 14  1  0  0  0  0
 14 10  1  0  0  0  0
 11 15  1  0  0  0  0
 15 16  1  0  0  0  0
 16 17  1  0  0  0  0
 17 12  1  0  0  0  0
  7 18  2  0  0  0  0
 17 19  1  0  0  0  0
 19 20  1  0  0  0  0
 20 21  1  0  0  0  0
 21 22  1  0  0  0  0
 22 23  1  0  0  0  0
 23 24  1  0  0  0  0
 23 25  1  0  0  0  0
 23 26  1  0  0  0  0
  2 27  1  1  0  0  0
  5 28  1  1  0  0  0
 12 29  1  1  0  0  0
 19 30  1  1  0  0  0
 20 31  1  1  0  0  0
 19 32  1  6  0  0  0
 11 33  1  6  0  0  0
M  END
>  <cdx:fragmentId>
5

$$$$
