50688.cdx
  Mrv1902 05222410202D          

 12 13  0  0  0  0            999 V2000
    6.6490   -8.0358    0.0000 C   0  0  0  0  0  0  0  0  0  0  0  0
    7.3634   -8.4483    0.0000 C   0  0  0  0  0  0  0  0  0  0  0  0
    7.3634   -9.2733    0.0000 C   0  0  0  0  0  0  0  0  0  0  0  0
    6.6490   -9.6858    0.0000 C   0  0  0  0  0  0  0  0  0  0  0  0
    5.9345   -9.2733    0.0000 C   0  0  0  0  0  0  0  0  0  0  0  0
    5.9345   -8.4483    0.0000 C   0  0  0  0  0  0  0  0  0  0  0  0
    6.3134   -8.8612    0.0000 C   0  0  0  0  0  0  0  0  0  0  0  0
    5.5989   -9.2737    0.0000 C   0  0  0  0  0  0  0  0  0  0  0  0
    5.5989   -8.4487    0.0000 C   0  0  0  0  0  0  0  0  0  0  0  0
    6.6490   -7.2108    0.0000 C   0  0  0  0  0  0  0  0  0  0  0  0
    8.0779   -8.0358    0.0000 O   0  0  0  0  0  0  0  0  0  0  0  0
    8.7924   -8.4483    0.0000 C   0  0  0  0  0  0  0  0  0  0  0  0
  1  2  1  0  0  0  0
  2  3  1  0  0  0  0
  3  4  1  0  0  0  0
  4  5  1  0  0  0  0
  5  6  1  0  0  0  0
  1  6  1  0  0  0  0
  1  7  1  0  0  0  0
  7  4  1  0  0  0  0
  7  8  1  0  0  0  0
  7  9  1  0  0  0  0
  1 10  1  0  0  0  0
 11 12  1  0  0  0  0
  2 11  1  0  0  0  0
M  END
>  <cdx:fragmentId>
5

$$$$
