50689.cdx
  Mrv1902 05222410212D          

 18 20  0  0  0  0            999 V2000
    8.7739   -8.2585    0.0000 C   0  0  0  0  0  0  0  0  0  0  0  0
    8.7739   -7.4335    0.0000 C   0  0  0  0  0  0  0  0  0  0  0  0
    8.0595   -7.0210    0.0000 C   0  0  0  0  0  0  0  0  0  0  0  0
    7.3450   -7.4335    0.0000 C   0  0  0  0  0  0  0  0  0  0  0  0
    7.3450   -8.2585    0.0000 C   0  0  0  0  0  0  0  0  0  0  0  0
    6.6305   -8.6710    0.0000 C   0  0  0  0  0  0  0  0  0  0  0  0
    5.9160   -8.2585    0.0000 C   0  0  0  0  0  0  0  0  0  0  0  0
    5.2016   -8.6710    0.0000 C   0  0  0  0  0  0  0  0  0  0  0  0
    5.2016   -9.4960    0.0000 C   0  0  0  0  0  0  0  0  0  0  0  0
    5.9160   -9.9085    0.0000 C   0  0  0  0  0  0  0  0  0  0  0  0
    6.6305   -9.4960    0.0000 C   0  0  0  0  0  0  0  0  0  0  0  0
    7.3450   -9.9085    0.0000 C   0  0  0  0  0  0  0  0  0  0  0  0
    8.0595   -9.4960    0.0000 C   0  0  0  0  0  0  0  0  0  0  0  0
    8.0595   -8.6710    0.0000 C   0  0  0  0  0  0  0  0  0  0  0  0
    4.4871   -9.9085    0.0000 O   0  0  0  0  0  0  0  0  0  0  0  0
    6.6305   -7.0210    0.0000 O   0  0  0  0  0  0  0  0  0  0  0  0
    9.4884   -7.0210    0.0000 O   0  0  0  0  0  0  0  0  0  0  0  0
   10.2029   -7.4335    0.0000 C   0  0  0  0  0  0  0  0  0  0  0  0
  1  2  1  0  0  0  0
  2  3  2  0  0  0  0
  3  4  1  0  0  0  0
  4  5  2  0  0  0  0
  5  6  1  0  0  0  0
  6  7  1  0  0  0  0
  7  8  2  0  0  0  0
  8  9  1  0  0  0  0
  9 10  2  0  0  0  0
 10 11  1  0  0  0  0
  6 11  2  0  0  0  0
 11 12  1  0  0  0  0
 12 13  1  0  0  0  0
 13 14  1  0  0  0  0
  1 14  2  0  0  0  0
  5 14  1  0  0  0  0
  9 15  1  0  0  0  0
  4 16  1  0  0  0  0
 17 18  1  0  0  0  0
  2 17  1  0  0  0  0
M  END
>  <cdx:fragmentId>
5

$$$$
