50680.cdx
  Mrv1902 05222410232D          

 45 49  0  0  0  0            999 V2000
    5.4843   -8.1801    0.0000 C   0  0  0  0  0  0  0  0  0  0  0  0
    5.4843   -9.0051    0.0000 C   0  0  1  0  0  0  0  0  0  0  0  0
    6.1988   -9.4176    0.0000 C   0  0  0  0  0  0  0  0  0  0  0  0
    6.9132   -9.0051    0.0000 C   0  0  2  0  0  0  0  0  0  0  0  0
    6.9132   -8.1801    0.0000 C   0  0  2  0  0  0  0  0  0  0  0  0
    6.1988   -7.7676    0.0000 C   0  0  0  0  0  0  0  0  0  0  0  0
    7.6277   -9.4176    0.0000 C   0  0  0  0  0  0  0  0  0  0  0  0
    8.3422   -9.0051    0.0000 C   0  0  0  0  0  0  0  0  0  0  0  0
    8.3422   -8.1801    0.0000 C   0  0  0  0  0  0  0  0  0  0  0  0
    7.6277   -7.7676    0.0000 C   0  0  0  0  0  0  0  0  0  0  0  0
    9.0567   -7.7676    0.0000 C   0  0  1  0  0  0  0  0  0  0  0  0
    9.0567   -6.9426    0.0000 C   0  0  2  0  0  0  0  0  0  0  0  0
    8.3422   -6.5301    0.0000 C   0  0  0  0  0  0  0  0  0  0  0  0
    7.6277   -6.9426    0.0000 C   0  0  0  0  0  0  0  0  0  0  0  0
    9.8413   -8.0226    0.0000 C   0  0  0  0  0  0  0  0  0  0  0  0
   10.3262   -7.3551    0.0000 C   0  0  0  0  0  0  0  0  0  0  0  0
    9.8413   -6.6877    0.0000 C   0  0  0  0  0  0  0  0  0  0  0  0
    7.6277  -10.2426    0.0000 O   0  0  0  0  0  0  0  0  0  0  0  0
    9.8413   -5.8627    0.0000 C   0  0  1  0  0  0  0  0  0  0  0  0
   10.5558   -5.4502    0.0000 C   0  0  1  0  0  0  0  0  0  0  0  0
   11.2702   -5.8627    0.0000 C   0  0  0  0  0  0  0  0  0  0  0  0
   11.2702   -6.6877    0.0000 C   0  0  0  0  0  0  0  0  0  0  0  0
   11.9847   -7.1002    0.0000 C   0  0  0  0  0  0  0  0  0  0  0  0
   11.9847   -7.9252    0.0000 C   0  0  0  0  0  0  0  0  0  0  0  0
   12.6992   -6.6877    0.0000 C   0  0  0  0  0  0  0  0  0  0  0  0
   12.6992   -7.5127    0.0000 O   0  0  0  0  0  0  0  0  0  0  0  0
    9.0567   -8.5926    0.0000 O   0  0  0  0  0  0  0  0  0  0  0  0
    9.0163   -5.8627    0.0000 C   0  0  0  0  0  0  0  0  0  0  0  0
   10.5558   -4.6252    0.0000 O   0  0  0  0  0  0  0  0  0  0  0  0
    4.7698   -9.4176    0.0000 O   0  0  0  0  0  0  0  0  0  0  0  0
    6.9132   -9.8301    0.0000 H   0  0  0  0  0  0  0  0  0  0  0  0
    6.9132   -7.3551    0.0000 C   0  0  0  0  0  0  0  0  0  0  0  0
    9.0567   -6.1176    0.0000 C   0  0  0  0  0  0  0  0  0  0  0  0
    9.4288   -5.1482    0.0000 O   0  0  0  0  0  0  0  0  0  0  0  0
    4.0554   -9.8301    0.0000 C   0  0  2  0  0  0  0  0  0  0  0  0
    3.3409   -9.4176    0.0000 O   0  0  0  0  0  0  0  0  0  0  0  0
    2.6264   -9.8301    0.0000 C   0  0  1  0  0  0  0  0  0  0  0  0
    2.6264  -10.6551    0.0000 C   0  0  2  0  0  0  0  0  0  0  0  0
    3.3409  -11.0676    0.0000 C   0  0  1  0  0  0  0  0  0  0  0  0
    4.0554  -10.6551    0.0000 C   0  0  1  0  0  0  0  0  0  0  0  0
    1.9119   -9.4176    0.0000 C   0  0  0  0  0  0  0  0  0  0  0  0
    3.3409  -11.8926    0.0000 O   0  0  0  0  0  0  0  0  0  0  0  0
    4.7698  -11.0676    0.0000 O   0  0  0  0  0  0  0  0  0  0  0  0
    1.9119  -11.0676    0.0000 O   0  0  0  0  0  0  0  0  0  0  0  0
    1.1975   -9.8301    0.0000 O   0  0  0  0  0  0  0  0  0  0  0  0
  1  2  1  0  0  0  0
  2  3  1  0  0  0  0
  3  4  1  0  0  0  0
  4  5  1  0  0  0  0
  5  6  1  0  0  0  0
  6  1  1  0  0  0  0
  4  7  1  0  0  0  0
  7  8  1  0  0  0  0
  8  9  2  0  0  0  0
  9 10  1  0  0  0  0
 10  5  1  0  0  0  0
  9 11  1  0  0  0  0
 11 12  1  0  0  0  0
 12 13  1  0  0  0  0
 13 14  1  0  0  0  0
 14 10  1  0  0  0  0
 11 15  1  0  0  0  0
 15 16  1  0  0  0  0
 16 17  1  0  0  0  0
 17 12  1  0  0  0  0
  7 18  2  0  0  0  0
 17 19  1  0  0  0  0
 19 20  1  0  0  0  0
 20 21  1  0  0  0  0
 21 22  1  0  0  0  0
 22 23  1  0  0  0  0
 23 24  1  0  0  0  0
 23 25  1  0  0  0  0
 23 26  1  0  0  0  0
 11 27  1  6  0  0  0
 19 28  1  6  0  0  0
 20 29  1  6  0  0  0
  2 30  1  1  0  0  0
  4 31  1  1  0  0  0
  5 32  1  1  0  0  0
 12 33  1  1  0  0  0
 19 34  1  1  0  0  0
 35 30  1  1  0  0  0
 35 36  1  0  0  0  0
 36 37  1  0  0  0  0
 37 38  1  0  0  0  0
 38 39  1  0  0  0  0
 39 40  1  0  0  0  0
 40 35  1  0  0  0  0
 37 41  1  1  0  0  0
 39 42  1  1  0  0  0
 40 43  1  6  0  0  0
 38 44  1  6  0  0  0
 41 45  1  0  0  0  0
M  END
>  <cdx:fragmentId>
5

$$$$
