50682.cdx
  Mrv1902 05222410242D          

 35 38  0  0  0  0            999 V2000
    3.8206   -9.7889    0.0000 C   0  0  0  0  0  0  0  0  0  0  0  0
    3.8206  -10.6139    0.0000 C   0  0  1  0  0  0  0  0  0  0  0  0
    4.5350  -11.0264    0.0000 C   0  0  0  0  0  0  0  0  0  0  0  0
    5.2495  -10.6139    0.0000 C   0  0  2  0  0  0  0  0  0  0  0  0
    5.2495   -9.7889    0.0000 C   0  0  2  0  0  0  0  0  0  0  0  0
    4.5350   -9.3764    0.0000 C   0  0  0  0  0  0  0  0  0  0  0  0
    5.9640  -11.0264    0.0000 C   0  0  0  0  0  0  0  0  0  0  0  0
    6.6784  -10.6139    0.0000 C   0  0  0  0  0  0  0  0  0  0  0  0
    6.6784   -9.7889    0.0000 C   0  0  0  0  0  0  0  0  0  0  0  0
    5.9640   -9.3764    0.0000 C   0  0  2  0  0  0  0  0  0  0  0  0
    7.3929   -9.3764    0.0000 C   0  0  1  0  0  0  0  0  0  0  0  0
    7.3929   -8.5514    0.0000 C   0  0  2  0  0  0  0  0  0  0  0  0
    6.6784   -8.1389    0.0000 C   0  0  0  0  0  0  0  0  0  0  0  0
    5.9640   -8.5514    0.0000 C   0  0  0  0  0  0  0  0  0  0  0  0
    8.1775   -9.6313    0.0000 C   0  0  0  0  0  0  0  0  0  0  0  0
    8.6625   -8.9639    0.0000 C   0  0  0  0  0  0  0  0  0  0  0  0
    8.1775   -8.2965    0.0000 C   0  0  2  0  0  0  0  0  0  0  0  0
    5.9640  -11.8514    0.0000 O   0  0  0  0  0  0  0  0  0  0  0  0
    8.4325   -7.5118    0.0000 C   0  0  1  0  0  0  0  0  0  0  0  0
    9.2294   -7.2983    0.0000 C   0  0  1  0  0  0  0  0  0  0  0  0
    9.4429   -6.5014    0.0000 C   0  0  0  0  0  0  0  0  0  0  0  0
   10.2398   -6.2879    0.0000 C   0  0  0  0  0  0  0  0  0  0  0  0
   10.4533   -5.4910    0.0000 C   0  0  0  0  0  0  0  0  0  0  0  0
   11.2502   -5.2775    0.0000 C   0  0  0  0  0  0  0  0  0  0  0  0
    9.8699   -4.9076    0.0000 C   0  0  0  0  0  0  0  0  0  0  0  0
   10.6668   -4.6941    0.0000 O   0  0  0  0  0  0  0  0  0  0  0  0
    3.1061  -11.0264    0.0000 O   0  0  0  0  0  0  0  0  0  0  0  0
    5.2495   -8.9639    0.0000 C   0  0  0  0  0  0  0  0  0  0  0  0
    7.6064   -7.7545    0.0000 C   0  0  0  0  0  0  0  0  0  0  0  0
    9.8127   -7.8817    0.0000 O   0  0  0  0  0  0  0  0  0  0  0  0
    7.6064  -10.1733    0.0000 O   0  0  0  0  0  0  0  0  0  0  0  0
    5.2495  -11.4389    0.0000 H   0  0  0  0  0  0  0  0  0  0  0  0
    6.6784   -8.9639    0.0000 H   0  0  0  0  0  0  0  0  0  0  0  0
    8.9744   -8.0829    0.0000 H   0  0  0  0  0  0  0  0  0  0  0  0
    7.8646   -6.9134    0.0000 C   0  0  0  0  0  0  0  0  0  0  0  0
  1  2  1  0  0  0  0
  2  3  1  0  0  0  0
  3  4  1  0  0  0  0
  4  5  1  0  0  0  0
  5  6  1  0  0  0  0
  6  1  1  0  0  0  0
  4  7  1  0  0  0  0
  7  8  1  0  0  0  0
  8  9  2  0  0  0  0
  9 10  1  0  0  0  0
 10  5  1  0  0  0  0
  9 11  1  0  0  0  0
 11 12  1  0  0  0  0
 12 13  1  0  0  0  0
 13 14  1  0  0  0  0
 14 10  1  0  0  0  0
 11 15  1  0  0  0  0
 15 16  1  0  0  0  0
 16 17  1  0  0  0  0
 17 12  1  0  0  0  0
  7 18  2  0  0  0  0
 17 19  1  0  0  0  0
 19 20  1  0  0  0  0
 20 21  1  0  0  0  0
 21 22  1  0  0  0  0
 22 23  1  0  0  0  0
 23 24  1  0  0  0  0
 23 25  1  0  0  0  0
 23 26  1  0  0  0  0
  2 27  1  1  0  0  0
  5 28  1  1  0  0  0
 12 29  1  1  0  0  0
 20 30  1  1  0  0  0
 11 31  1  6  0  0  0
  4 32  1  1  0  0  0
 10 33  1  6  0  0  0
 17 34  1  6  0  0  0
 19 35  1  6  0  0  0
M  END
>  <cdx:fragmentId>
5

$$$$
