50694.cdx
  Mrv1902 05222410232D          

 19 20  0  0  0  0            999 V2000
    4.4531   -6.7364    0.0000 C   0  0  0  0  0  0  0  0  0  0  0  0
    4.4531   -7.5614    0.0000 C   0  0  0  0  0  0  0  0  0  0  0  0
    5.1675   -7.9739    0.0000 C   0  0  0  0  0  0  0  0  0  0  0  0
    5.8820   -7.5614    0.0000 C   0  0  0  0  0  0  0  0  0  0  0  0
    5.8820   -6.7364    0.0000 C   0  0  0  0  0  0  0  0  0  0  0  0
    5.1675   -6.3239    0.0000 C   0  0  0  0  0  0  0  0  0  0  0  0
    6.5965   -7.9739    0.0000 C   0  0  0  0  0  0  0  0  0  0  0  0
    7.3109   -7.5614    0.0000 C   0  0  0  0  0  0  0  0  0  0  0  0
    7.3109   -6.7364    0.0000 C   0  0  0  0  0  0  0  0  0  0  0  0
    6.5965   -6.3239    0.0000 C   0  0  0  0  0  0  0  0  0  0  0  0
    8.0956   -7.8163    0.0000 C   0  0  0  0  0  0  0  0  0  0  0  0
    8.5805   -7.1489    0.0000 C   0  0  0  0  0  0  0  0  0  0  0  0
    8.0956   -6.4815    0.0000 O   0  0  0  0  0  0  0  0  0  0  0  0
    3.7386   -6.3239    0.0000 O   0  0  0  0  0  0  0  0  0  0  0  0
    3.0241   -6.7364    0.0000 C   0  0  0  0  0  0  0  0  0  0  0  0
    5.1675   -8.7989    0.0000 C   0  0  0  0  0  0  0  0  0  0  0  0
    5.8820   -5.9114    0.0000 C   0  0  0  0  0  0  0  0  0  0  0  0
    8.3505   -8.6010    0.0000 C   0  0  0  0  0  0  0  0  0  0  0  0
    6.5965   -8.7989    0.0000 O   0  0  0  0  0  0  0  0  0  0  0  0
  1  2  1  0  0  0  0
  2  3  1  0  0  0  0
  3  4  1  0  0  0  0
  5  6  2  0  0  0  0
  6  1  1  0  0  0  0
  4  7  1  0  0  0  0
  7  8  1  0  0  0  0
  8  9  2  0  0  0  0
  9 10  1  0  0  0  0
 10  5  1  0  0  0  0
  8 11  1  0  0  0  0
 11 12  2  0  0  0  0
 12 13  1  0  0  0  0
 13  9  1  0  0  0  0
  1 14  1  0  0  0  0
 14 15  1  0  0  0  0
  3 16  1  0  0  0  0
  5 17  1  0  0  0  0
 11 18  1  0  0  0  0
  7 19  2  0  0  0  0
M  END
>  <cdx:fragmentId>
5

$$$$
