50696.cdx
  Mrv1902 05222410242D          

 38 42  0  0  0  0            999 V2000
   10.1875   -6.6114    0.0000 C   0  0  0  0  0  0  0  0  0  0  0  0
   10.1825   -5.7864    0.0000 C   0  0  0  0  0  0  0  0  0  0  0  0
    9.4655   -5.3783    0.0000 C   0  0  0  0  0  0  0  0  0  0  0  0
    8.7536   -5.7951    0.0000 C   0  0  0  0  0  0  0  0  0  0  0  0
    8.7586   -6.6201    0.0000 C   0  0  2  0  0  0  0  0  0  0  0  0
    9.4756   -7.0282    0.0000 C   0  0  1  0  0  0  0  0  0  0  0  0
    8.0467   -7.0369    0.0000 C   0  0  0  0  0  0  0  0  0  0  0  0
    8.0517   -7.8619    0.0000 C   0  0  1  0  0  0  0  0  0  0  0  0
    8.7687   -8.2701    0.0000 C   0  0  0  0  0  0  0  0  0  0  0  0
    9.4806   -7.8532    0.0000 C   0  0  0  0  0  0  0  0  0  0  0  0
    7.3297   -6.6288    0.0000 C   0  0  0  0  0  0  0  0  0  0  0  0
    6.6178   -7.0457    0.0000 C   0  0  0  0  0  0  0  0  0  0  0  0
    6.6228   -7.8706    0.0000 C   0  0  1  0  0  0  0  0  0  0  0  0
    7.3398   -8.2788    0.0000 C   0  0  1  0  0  0  0  0  0  0  0  0
    5.9109   -8.2875    0.0000 C   0  0  2  0  0  0  0  0  0  0  0  0
    5.9159   -9.1125    0.0000 C   0  0  1  0  0  0  0  0  0  0  0  0
    6.6329   -9.5206    0.0000 C   0  0  0  0  0  0  0  0  0  0  0  0
    7.3448   -9.1038    0.0000 C   0  0  0  0  0  0  0  0  0  0  0  0
    5.1939   -7.8793    0.0000 C   0  0  0  0  0  0  0  0  0  0  0  0
    4.4819   -8.2962    0.0000 C   0  0  2  0  0  0  0  0  0  0  0  0
    4.4870   -9.1212    0.0000 C   0  0  2  0  0  0  0  0  0  0  0  0
    5.2039   -9.5293    0.0000 C   0  0  2  0  0  0  0  0  0  0  0  0
    9.8737   -4.6613    0.0000 C   0  0  0  0  0  0  0  0  0  0  0  0
    9.0487   -4.6663    0.0000 C   0  0  0  0  0  0  0  0  0  0  0  0
   10.1926   -7.4364    0.0000 C   0  0  0  0  0  0  0  0  0  0  0  0
   10.1976   -8.2614    0.0000 O   0  0  0  0  0  0  0  0  0  0  0  0
   10.9045   -7.0195    0.0000 O   0  0  0  0  0  0  0  0  0  0  0  0
    4.7914  -10.2438    0.0000 C   0  0  0  0  0  0  0  0  0  0  0  0
    5.9058   -7.4625    0.0000 C   0  0  0  0  0  0  0  0  0  0  0  0
    5.6164  -10.2438    0.0000 C   0  0  0  0  0  0  0  0  0  0  0  0
    3.7750   -9.5380    0.0000 O   0  0  0  0  0  0  0  0  0  0  0  0
    3.7650   -7.8881    0.0000 O   0  0  0  0  0  0  0  0  0  0  0  0
    7.3398   -7.4538    0.0000 C   0  0  0  0  0  0  0  0  0  0  0  0
    5.2039  -10.9583    0.0000 O   0  0  0  0  0  0  0  0  0  0  0  0
    8.0567   -8.6869    0.0000 C   0  0  0  0  0  0  0  0  0  0  0  0
    5.9209   -9.9375    0.0000 H   0  0  0  0  0  0  0  0  0  0  0  0
    6.6278   -8.6956    0.0000 H   0  0  0  0  0  0  0  0  0  0  0  0
    8.0442   -6.2076    0.0000 H   0  0  0  0  0  0  0  0  0  0  0  0
  1  2  1  0  0  0  0
  2  3  1  0  0  0  0
  3  4  1  0  0  0  0
  4  5  1  0  0  0  0
  5  6  1  0  0  0  0
  6  1  1  0  0  0  0
  5  7  1  0  0  0  0
  7  8  1  0  0  0  0
  8  9  1  0  0  0  0
  9 10  1  0  0  0  0
 10  6  1  0  0  0  0
  7 11  2  0  0  0  0
 11 12  1  0  0  0  0
 12 13  1  0  0  0  0
 13 14  1  0  0  0  0
 14  8  1  0  0  0  0
 13 15  1  0  0  0  0
 15 16  1  0  0  0  0
 16 17  1  0  0  0  0
 17 18  1  0  0  0  0
 18 14  1  0  0  0  0
 15 19  1  0  0  0  0
 19 20  1  0  0  0  0
 20 21  1  0  0  0  0
 21 22  1  0  0  0  0
 22 16  1  0  0  0  0
  3 23  1  0  0  0  0
  3 24  1  0  0  0  0
  6 25  1  1  0  0  0
 25 26  1  0  0  0  0
 25 27  2  0  0  0  0
 22 28  1  1  0  0  0
 15 29  1  1  0  0  0
 22 30  1  6  0  0  0
 21 31  1  6  0  0  0
 20 32  1  6  0  0  0
 14 33  1  1  0  0  0
 28 34  1  0  0  0  0
  8 35  1  6  0  0  0
 16 36  1  6  0  0  0
 13 37  1  6  0  0  0
  5 38  1  1  0  0  0
M  END
>  <cdx:fragmentId>
5

$$$$
