50692.cdx
  Mrv1902 05222410252D          

 23 24  0  0  0  0            999 V2000
    5.0443   -7.1764    0.0000 C   0  0  0  0  0  0  0  0  0  0  0  0
    5.0443   -8.0014    0.0000 C   0  0  0  0  0  0  0  0  0  0  0  0
    5.7588   -8.4139    0.0000 C   0  0  0  0  0  0  0  0  0  0  0  0
    6.4732   -8.0014    0.0000 C   0  0  0  0  0  0  0  0  0  0  0  0
    6.4732   -7.1764    0.0000 C   0  0  0  0  0  0  0  0  0  0  0  0
    5.7588   -6.7639    0.0000 C   0  0  0  0  0  0  0  0  0  0  0  0
    7.1877   -8.4139    0.0000 C   0  0  0  0  0  0  0  0  0  0  0  0
    7.9022   -8.0014    0.0000 C   0  0  0  0  0  0  0  0  0  0  0  0
    7.9022   -7.1764    0.0000 C   0  0  0  0  0  0  0  0  0  0  0  0
    7.1877   -6.7639    0.0000 C   0  0  0  0  0  0  0  0  0  0  0  0
    4.3298   -6.7639    0.0000 O   0  0  0  0  0  0  0  0  0  0  0  0
    3.6154   -7.1764    0.0000 C   0  0  0  0  0  0  0  0  0  0  0  0
    6.4732   -6.3514    0.0000 C   0  0  0  0  0  0  0  0  0  0  0  0
    5.7588   -9.2389    0.0000 C   0  0  0  0  0  0  0  0  0  0  0  0
    7.1877   -9.2389    0.0000 O   0  0  0  0  0  0  0  0  0  0  0  0
    6.4625   -9.0200    0.0000 O   0  0  0  0  0  0  0  0  0  0  0  0
    5.9311   -9.6298    0.0000 C   0  0  0  0  0  0  0  0  0  0  0  0
    5.9311  -10.4548    0.0000 C   0  0  0  0  0  0  0  0  0  0  0  0
    5.1689   -9.3140    0.0000 O   0  0  0  0  0  0  0  0  0  0  0  0
    8.6868   -8.2563    0.0000 C   0  0  0  0  0  0  0  0  0  0  0  0
    9.1717   -7.5889    0.0000 C   0  0  0  0  0  0  0  0  0  0  0  0
    8.6868   -6.9215    0.0000 O   0  0  0  0  0  0  0  0  0  0  0  0
    8.9417   -9.0410    0.0000 C   0  0  0  0  0  0  0  0  0  0  0  0
  1  2  1  0  0  0  0
  2  3  1  0  0  0  0
  3  4  1  0  0  0  0
  5  6  2  0  0  0  0
  6  1  1  0  0  0  0
  4  7  1  0  0  0  0
  7  8  1  0  0  0  0
  8  9  2  0  0  0  0
  9 10  1  0  0  0  0
 10  5  1  0  0  0  0
  1 11  1  0  0  0  0
 11 12  1  0  0  0  0
  5 13  1  0  0  0  0
  3 14  1  0  0  0  0
  7 15  2  0  0  0  0
  4 16  1  0  0  0  0
 16 17  1  0  0  0  0
 17 18  1  0  0  0  0
 17 19  2  0  0  0  0
  8 20  1  0  0  0  0
 20 21  2  0  0  0  0
 21 22  1  0  0  0  0
 22  9  1  0  0  0  0
 20 23  1  0  0  0  0
M  END
>  <cdx:fragmentId>
5

$$$$
