50693.cdx
  Mrv1902 05222410242D          

 19 20  0  0  0  0            999 V2000
    3.8481   -8.4001    0.0000 C   0  0  0  0  0  0  0  0  0  0  0  0
    4.5625   -8.8126    0.0000 C   0  0  0  0  0  0  0  0  0  0  0  0
    5.2770   -8.4001    0.0000 C   0  0  0  0  0  0  0  0  0  0  0  0
    5.2770   -7.5751    0.0000 C   0  0  0  0  0  0  0  0  0  0  0  0
    4.5625   -7.1626    0.0000 C   0  0  0  0  0  0  0  0  0  0  0  0
    5.9915   -8.8126    0.0000 C   0  0  0  0  0  0  0  0  0  0  0  0
    6.7059   -8.4001    0.0000 C   0  0  0  0  0  0  0  0  0  0  0  0
    6.7059   -7.5751    0.0000 C   0  0  0  0  0  0  0  0  0  0  0  0
    5.9915   -7.1626    0.0000 C   0  0  0  0  0  0  0  0  0  0  0  0
    7.4204   -8.8126    0.0000 C   0  0  0  0  0  0  0  0  0  0  0  0
    8.1349   -8.4001    0.0000 C   0  0  0  0  0  0  0  0  0  0  0  0
    8.1349   -7.5751    0.0000 C   0  0  0  0  0  0  0  0  0  0  0  0
    7.4204   -7.1626    0.0000 C   0  0  0  0  0  0  0  0  0  0  0  0
    9.5638   -7.5751    0.0000 C   0  0  0  0  0  0  0  0  0  0  0  0
    8.8494   -7.1626    0.0000 O   0  0  0  0  0  0  0  0  0  0  0  0
    4.5625   -9.6376    0.0000 O   0  0  0  0  0  0  0  0  0  0  0  0
    5.9915   -9.6376    0.0000 O   0  0  0  0  0  0  0  0  0  0  0  0
    7.4204   -9.6376    0.0000 O   0  0  0  0  0  0  0  0  0  0  0  0
    7.4204   -6.3376    0.0000 O   0  0  0  0  0  0  0  0  0  0  0  0
  1  2  1  0  0  0  0
  2  3  1  0  0  0  0
  3  4  2  0  0  0  0
  4  5  1  0  0  0  0
  3  6  1  0  0  0  0
  6  7  2  0  0  0  0
  7  8  1  0  0  0  0
  8  9  2  0  0  0  0
  9  4  1  0  0  0  0
  7 10  1  0  0  0  0
 10 11  1  0  0  0  0
 11 12  2  0  0  0  0
 12 13  1  0  0  0  0
 13  8  1  0  0  0  0
 14 15  1  0  0  0  0
 15 12  1  0  0  0  0
  2 16  2  0  0  0  0
 17  6  1  0  0  0  0
 18 10  2  0  0  0  0
 19 13  2  0  0  0  0
M  END
>  <cdx:fragmentId>
5

$$$$
