50690.cdx
  Mrv1902 05222410252D          

 12 12  0  0  0  0            999 V2000
    5.9793   -8.8814    0.0000 C   0  0  0  0  0  0  0  0  0  0  0  0
    5.9793   -9.7064    0.0000 C   0  0  0  0  0  0  0  0  0  0  0  0
    6.6938  -10.1189    0.0000 C   0  0  0  0  0  0  0  0  0  0  0  0
    7.4082   -9.7064    0.0000 C   0  0  0  0  0  0  0  0  0  0  0  0
    7.4082   -8.8814    0.0000 C   0  0  0  0  0  0  0  0  0  0  0  0
    6.6938   -8.4689    0.0000 C   0  0  0  0  0  0  0  0  0  0  0  0
    6.6938   -7.6439    0.0000 O   0  0  0  0  0  0  0  0  0  0  0  0
    8.1227   -8.4689    0.0000 C   0  0  0  0  0  0  0  0  0  0  0  0
    5.2648   -8.4689    0.0000 O   0  0  0  0  0  0  0  0  0  0  0  0
    6.6938  -10.9439    0.0000 C   0  0  0  0  0  0  0  0  0  0  0  0
    7.4082  -11.3564    0.0000 C   0  0  0  0  0  0  0  0  0  0  0  0
    4.5504   -8.8814    0.0000 C   0  0  0  0  0  0  0  0  0  0  0  0
  1  2  2  0  0  0  0
  2  3  1  0  0  0  0
  3  4  2  0  0  0  0
  4  5  1  0  0  0  0
  5  6  2  0  0  0  0
  6  1  1  0  0  0  0
  6  7  1  0  0  0  0
  5  8  1  0  0  0  0
  1  9  1  0  0  0  0
  3 10  1  0  0  0  0
 10 11  1  0  0  0  0
  9 12  1  0  0  0  0
M  END
>  <cdx:fragmentId>
5

$$$$
