50699.cdx
  Mrv1902 05222410222D          

 39 43  0  0  0  0            999 V2000
    4.3706   -8.6201    0.0000 C   0  0  1  0  0  0  0  0  0  0  0  0
    4.3706   -9.4451    0.0000 C   0  0  1  0  0  0  0  0  0  0  0  0
    5.0850   -9.8576    0.0000 C   0  0  0  0  0  0  0  0  0  0  0  0
    5.7995   -9.4451    0.0000 C   0  0  1  0  0  0  0  0  0  0  0  0
    5.7995   -8.6201    0.0000 C   0  0  2  0  0  0  0  0  0  0  0  0
    5.0850   -8.2076    0.0000 C   0  0  0  0  0  0  0  0  0  0  0  0
    6.5140   -9.8576    0.0000 C   0  0  0  0  0  0  0  0  0  0  0  0
    7.2284   -9.4451    0.0000 C   0  0  0  0  0  0  0  0  0  0  0  0
    7.2284   -8.6201    0.0000 C   0  0  2  0  0  0  0  0  0  0  0  0
    6.5140   -8.2076    0.0000 C   0  0  2  0  0  0  0  0  0  0  0  0
    7.9429   -8.2076    0.0000 C   0  0  1  0  0  0  0  0  0  0  0  0
    7.9429   -7.3826    0.0000 C   0  0  0  0  0  0  0  0  0  0  0  0
    7.2284   -6.9701    0.0000 C   0  0  0  0  0  0  0  0  0  0  0  0
    6.5140   -7.3826    0.0000 C   0  0  0  0  0  0  0  0  0  0  0  0
    8.6574   -8.6201    0.0000 C   0  0  0  0  0  0  0  0  0  0  0  0
    9.3719   -8.2076    0.0000 C   0  0  0  0  0  0  0  0  0  0  0  0
    9.3719   -7.3826    0.0000 C   0  0  2  0  0  0  0  0  0  0  0  0
    8.6574   -6.9701    0.0000 C   0  0  1  0  0  0  0  0  0  0  0  0
   10.0863   -6.9701    0.0000 C   0  0  1  0  0  0  0  0  0  0  0  0
   10.0863   -6.1451    0.0000 C   0  0  0  0  0  0  0  0  0  0  0  0
    9.3719   -5.7326    0.0000 C   0  0  2  0  0  0  0  0  0  0  0  0
    8.6574   -6.1451    0.0000 C   0  0  2  0  0  0  0  0  0  0  0  0
    3.6561   -9.8576    0.0000 O   0  0  0  0  0  0  0  0  0  0  0  0
    5.7995   -7.7951    0.0000 C   0  0  0  0  0  0  0  0  0  0  0  0
    7.9429   -5.7326    0.0000 C   0  0  0  0  0  0  0  0  0  0  0  0
   10.0863   -7.7951    0.0000 C   0  0  0  0  0  0  0  0  0  0  0  0
    5.7995  -10.2701    0.0000 H   0  0  0  0  0  0  0  0  0  0  0  0
    9.3719   -4.9076    0.0000 C   0  0  0  0  0  0  0  0  0  0  0  0
    4.6725  -10.5721    0.0000 C   0  0  0  0  0  0  0  0  0  0  0  0
    5.4975  -10.5721    0.0000 C   0  0  0  0  0  0  0  0  0  0  0  0
   10.0863   -8.6201    0.0000 O   0  0  0  0  0  0  0  0  0  0  0  0
   10.8008   -7.3826    0.0000 O   0  0  0  0  0  0  0  0  0  0  0  0
    3.6561   -8.2076    0.0000 O   0  0  0  0  0  0  0  0  0  0  0  0
   10.9113   -6.9701    0.0000 O   0  0  0  0  0  0  0  0  0  0  0  0
    6.5140   -9.0326    0.0000 H   0  0  0  0  0  0  0  0  0  0  0  0
    7.2284   -7.7951    0.0000 C   0  0  0  0  0  0  0  0  0  0  0  0
    7.9429   -9.0326    0.0000 C   0  0  0  0  0  0  0  0  0  0  0  0
    8.6574   -7.7951    0.0000 H   0  0  0  0  0  0  0  0  0  0  0  0
    5.0850  -11.2866    0.0000 O   0  0  0  0  0  0  0  0  0  0  0  0
  1  2  1  0  0  0  0
  2  3  1  0  0  0  0
  3  4  1  0  0  0  0
  4  5  1  0  0  0  0
  5  6  1  0  0  0  0
  6  1  1  0  0  0  0
  4  7  1  0  0  0  0
  7  8  1  0  0  0  0
  8  9  1  0  0  0  0
  9 10  1  0  0  0  0
 10  5  1  0  0  0  0
  9 11  1  0  0  0  0
 11 12  1  0  0  0  0
 12 13  2  0  0  0  0
 13 14  1  0  0  0  0
 14 10  1  0  0  0  0
 11 15  1  0  0  0  0
 15 16  1  0  0  0  0
 16 17  1  0  0  0  0
 17 18  1  0  0  0  0
 18 12  1  0  0  0  0
 17 19  1  0  0  0  0
 19 20  1  0  0  0  0
 20 21  1  0  0  0  0
 21 22  1  0  0  0  0
 22 18  1  0  0  0  0
  2 23  1  1  0  0  0
  5 24  1  1  0  0  0
 22 25  1  1  0  0  0
 17 26  1  1  0  0  0
  4 27  1  6  0  0  0
 21 28  1  6  0  0  0
  3 29  1  0  0  0  0
  3 30  1  0  0  0  0
 26 31  2  0  0  0  0
 26 32  1  0  0  0  0
  1 33  1  6  0  0  0
 19 34  1  1  0  0  0
 10 35  1  6  0  0  0
  9 36  1  1  0  0  0
 11 37  1  6  0  0  0
 18 38  1  1  0  0  0
 30 39  1  0  0  0  0
M  END
>  <cdx:fragmentId>
5

$$$$
