50707.cdx
  Mrv1902 05222410232D          

 50 53  0  0  0  0            999 V2000
    6.4606   -6.1176    0.0000 C   0  0  0  0  0  0  0  0  0  0  0  0
    6.4606   -6.9426    0.0000 C   0  0  2  0  0  0  0  0  0  0  0  0
    7.1750   -7.3551    0.0000 C   0  0  1  0  0  0  0  0  0  0  0  0
    7.8895   -6.9426    0.0000 C   0  0  1  0  0  0  0  0  0  0  0  0
    7.8895   -6.1176    0.0000 C   0  0  0  0  0  0  0  0  0  0  0  0
    7.1750   -5.7051    0.0000 C   0  0  2  0  0  0  0  0  0  0  0  0
    6.7625   -4.9907    0.0000 O   0  0  0  0  0  0  0  0  0  0  0  0
    7.5875   -4.9907    0.0000 C   0  0  0  0  0  0  0  0  0  0  0  0
    8.4125   -4.9907    0.0000 O   0  0  0  0  0  0  0  0  0  0  0  0
    7.1750   -4.2762    0.0000 O   0  0  0  0  0  0  0  0  0  0  0  0
    5.7461   -7.3551    0.0000 O   0  0  0  0  0  0  0  0  0  0  0  0
    5.7461   -9.8301    0.0000 C   0  0  0  0  0  0  0  0  0  0  0  0
    8.6040   -7.3551    0.0000 O   0  0  0  0  0  0  0  0  0  0  0  0
    5.7461  -10.6551    0.0000 C   0  0  0  0  0  0  0  0  0  0  0  0
    5.0316  -11.0676    0.0000 C   0  0  0  0  0  0  0  0  0  0  0  0
    5.0316  -11.8926    0.0000 C   0  0  0  0  0  0  0  0  0  0  0  0
    5.7461  -12.3051    0.0000 C   0  0  0  0  0  0  0  0  0  0  0  0
    6.4606  -11.8926    0.0000 C   0  0  0  0  0  0  0  0  0  0  0  0
    6.4606  -11.0676    0.0000 C   0  0  0  0  0  0  0  0  0  0  0  0
    5.7461  -13.1301    0.0000 O   0  0  0  0  0  0  0  0  0  0  0  0
    4.3171  -12.3051    0.0000 O   0  0  0  0  0  0  0  0  0  0  0  0
    4.3171  -13.1301    0.0000 C   0  0  0  0  0  0  0  0  0  0  0  0
    6.4606   -9.4176    0.0000 C   0  0  0  0  0  0  0  0  0  0  0  0
    5.7461   -8.1801    0.0000 O   0  0  0  0  0  0  0  0  0  0  0  0
    6.4606   -8.5926    0.0000 C   0  0  0  0  0  0  0  0  0  0  0  0
    7.1750   -8.1801    0.0000 O   0  0  0  0  0  0  0  0  0  0  0  0
    5.0316   -6.9426    0.0000 C   0  0  0  0  0  0  0  0  0  0  0  0
    4.3171   -7.3551    0.0000 C   0  0  0  0  0  0  0  0  0  0  0  0
    5.0316   -6.1176    0.0000 O   0  0  0  0  0  0  0  0  0  0  0  0
    2.8882   -7.3551    0.0000 C   0  0  0  0  0  0  0  0  0  0  0  0
    2.1737   -6.9426    0.0000 C   0  0  0  0  0  0  0  0  0  0  0  0
    1.4593   -7.3551    0.0000 C   0  0  0  0  0  0  0  0  0  0  0  0
    1.4593   -8.1801    0.0000 C   0  0  0  0  0  0  0  0  0  0  0  0
    2.1737   -8.5926    0.0000 C   0  0  0  0  0  0  0  0  0  0  0  0
    2.8882   -8.1801    0.0000 C   0  0  0  0  0  0  0  0  0  0  0  0
    0.7448   -8.5926    0.0000 O   0  0  0  0  0  0  0  0  0  0  0  0
    0.7448   -6.9426    0.0000 O   0  0  0  0  0  0  0  0  0  0  0  0
    3.6027   -6.9426    0.0000 C   0  0  0  0  0  0  0  0  0  0  0  0
    9.3184   -6.9426    0.0000 C   0  0  0  0  0  0  0  0  0  0  0  0
   10.0329   -7.3551    0.0000 C   0  0  0  0  0  0  0  0  0  0  0  0
    9.3184   -6.1176    0.0000 O   0  0  0  0  0  0  0  0  0  0  0  0
   11.4619   -7.3551    0.0000 C   0  0  0  0  0  0  0  0  0  0  0  0
   11.4619   -8.1801    0.0000 C   0  0  0  0  0  0  0  0  0  0  0  0
   12.1763   -8.5926    0.0000 C   0  0  0  0  0  0  0  0  0  0  0  0
   12.8908   -8.1801    0.0000 C   0  0  0  0  0  0  0  0  0  0  0  0
   12.8908   -7.3551    0.0000 C   0  0  0  0  0  0  0  0  0  0  0  0
   12.1763   -6.9426    0.0000 C   0  0  0  0  0  0  0  0  0  0  0  0
   13.6053   -6.9426    0.0000 O   0  0  0  0  0  0  0  0  0  0  0  0
   13.6053   -8.5926    0.0000 O   0  0  0  0  0  0  0  0  0  0  0  0
   10.7474   -6.9426    0.0000 C   0  0  0  0  0  0  0  0  0  0  0  0
  1  2  1  0  0  0  0
  2  3  1  0  0  0  0
  3  4  1  0  0  0  0
  4  5  1  0  0  0  0
  5  6  1  0  0  0  0
  6  1  1  0  0  0  0
  6  7  1  1  0  0  0
  6  8  1  0  0  0  0
  8  9  1  0  0  0  0
  8 10  2  0  0  0  0
  2 11  1  6  0  0  0
  3 26  1  1  0  0  0
  4 13  1  1  0  0  0
 12 14  1  0  0  0  0
 14 15  2  0  0  0  0
 15 16  1  0  0  0  0
 16 17  2  0  0  0  0
 17 18  1  0  0  0  0
 18 19  2  0  0  0  0
 19 14  1  0  0  0  0
 17 20  1  0  0  0  0
 16 21  1  0  0  0  0
 23 12  2  0  0  0  0
 21 22  1  0  0  0  0
 25 23  1  0  0  0  0
 25 24  2  0  0  0  0
 26 25  1  0  0  0  0
 11 27  1  0  0  0  0
 27 28  1  0  0  0  0
 27 29  2  0  0  0  0
 28 38  2  0  0  0  0
 30 31  2  0  0  0  0
 31 32  1  0  0  0  0
 32 33  2  0  0  0  0
 33 34  1  0  0  0  0
 34 35  2  0  0  0  0
 35 30  1  0  0  0  0
 33 36  1  0  0  0  0
 38 30  1  0  0  0  0
 32 37  1  0  0  0  0
 13 39  1  0  0  0  0
 39 40  1  0  0  0  0
 39 41  2  0  0  0  0
 40 50  2  0  0  0  0
 42 43  2  0  0  0  0
 43 44  1  0  0  0  0
 44 45  2  0  0  0  0
 45 46  1  0  0  0  0
 46 47  2  0  0  0  0
 47 42  1  0  0  0  0
 46 48  1  0  0  0  0
 50 42  1  0  0  0  0
 45 49  1  0  0  0  0
M  END
>  <cdx:fragmentId>
5

$$$$
