50702.cdx
  Mrv1902 05222410212D          

 22 24  0  0  0  0            999 V2000
    3.4683   -6.6619    0.0000 C   0  0  0  0  0  0  0  0  0  0  0  0
    3.4683   -7.4869    0.0000 C   0  0  0  0  0  0  0  0  0  0  0  0
    4.1827   -7.8994    0.0000 C   0  0  0  0  0  0  0  0  0  0  0  0
    4.8972   -7.4869    0.0000 C   0  0  0  0  0  0  0  0  0  0  0  0
    4.8972   -6.6619    0.0000 C   0  0  0  0  0  0  0  0  0  0  0  0
    4.1827   -6.2494    0.0000 C   0  0  0  0  0  0  0  0  0  0  0  0
    5.6117   -7.8994    0.0000 O   0  0  0  0  0  0  0  0  0  0  0  0
    6.3262   -7.4869    0.0000 C   0  0  0  0  0  0  0  0  0  0  0  0
    6.3262   -6.6619    0.0000 C   0  0  1  0  0  0  0  0  0  0  0  0
    5.6117   -6.2494    0.0000 C   0  0  0  0  0  0  0  0  0  0  0  0
    7.7551   -7.4869    0.0000 C   0  0  0  0  0  0  0  0  0  0  0  0
    7.7551   -6.6619    0.0000 C   0  0  0  0  0  0  0  0  0  0  0  0
    7.0406   -6.2494    0.0000 C   0  0  0  0  0  0  0  0  0  0  0  0
    8.4696   -7.8994    0.0000 C   0  0  0  0  0  0  0  0  0  0  0  0
    9.1840   -7.4869    0.0000 C   0  0  0  0  0  0  0  0  0  0  0  0
    9.1840   -6.6619    0.0000 C   0  0  0  0  0  0  0  0  0  0  0  0
    8.4696   -6.2494    0.0000 C   0  0  0  0  0  0  0  0  0  0  0  0
    2.7538   -7.8994    0.0000 O   0  0  0  0  0  0  0  0  0  0  0  0
    9.8985   -6.2494    0.0000 O   0  0  0  0  0  0  0  0  0  0  0  0
    9.8985   -7.8994    0.0000 O   0  0  0  0  0  0  0  0  0  0  0  0
    6.3262   -5.8369    0.0000 O   0  0  0  0  0  0  0  0  0  0  0  0
    5.6117   -5.4244    0.0000 O   0  0  0  0  0  0  0  0  0  0  0  0
  1  2  1  0  0  0  0
  2  3  2  0  0  0  0
  3  4  1  0  0  0  0
  4  5  2  0  0  0  0
  5  6  1  0  0  0  0
  6  1  2  0  0  0  0
  4  7  1  0  0  0  0
  7  8  1  0  0  0  0
  8  9  1  0  0  0  0
  9 10  1  0  0  0  0
 10  5  1  0  0  0  0
 11 12  2  0  0  0  0
 12 13  1  0  0  0  0
 13  9  1  0  0  0  0
 11 14  1  0  0  0  0
 14 15  2  0  0  0  0
 15 16  1  0  0  0  0
 16 17  2  0  0  0  0
 17 12  1  0  0  0  0
  2 18  1  0  0  0  0
 16 19  1  0  0  0  0
 15 20  1  0  0  0  0
  9 21  1  6  0  0  0
 10 22  2  0  0  0  0
M  END
>  <cdx:fragmentId>
5

$$$$
