50701.cdx
  Mrv1902 05222410212D          

 18 19  0  0  0  0            999 V2000
    5.9513   -4.6882    0.0000 C   0  0  0  0  0  0  0  0  0  0  0  0
    5.5388   -5.4026    0.0000 C   0  0  0  0  0  0  0  0  0  0  0  0
    5.9513   -6.1171    0.0000 C   0  0  0  0  0  0  0  0  0  0  0  0
    6.7763   -6.1171    0.0000 C   0  0  0  0  0  0  0  0  0  0  0  0
    6.7763   -4.6882    0.0000 C   0  0  1  0  0  0  0  0  0  0  0  0
    7.4188   -3.9506    0.0000 C   0  0  0  0  0  0  0  0  0  0  0  0
    6.6118   -7.0262    0.0000 C   0  0  0  0  0  0  0  0  0  0  0  0
    7.9708   -7.4678    0.0000 C   0  0  0  0  0  0  0  0  0  0  0  0
    7.4188   -6.8547    0.0000 C   0  0  0  0  0  0  0  0  0  0  0  0
    4.7138   -5.4026    0.0000 C   0  0  0  0  0  0  0  0  0  0  0  0
    5.5388   -6.8316    0.0000 O   0  0  0  0  0  0  0  0  0  0  0  0
    7.6737   -6.0701    0.0000 C   0  0  1  0  0  0  0  0  0  0  0  0
    8.4583   -5.8151    0.0000 C   0  0  0  0  0  0  0  0  0  0  0  0
    8.4583   -4.9901    0.0000 C   0  0  1  0  0  0  0  0  0  0  0  0
    7.6737   -4.7352    0.0000 C   0  0  1  0  0  0  0  0  0  0  0  0
    7.1888   -5.4026    0.0000 C   0  0  2  0  0  0  0  0  0  0  0  0
    9.1258   -4.5052    0.0000 O   0  0  0  0  0  0  0  0  0  0  0  0
    7.1888   -3.9737    0.0000 O   0  0  0  0  0  0  0  0  0  0  0  0
 15  6  1  1  0  0  0
  1  2  2  0  0  0  0
  2  3  1  0  0  0  0
  3  4  1  0  0  0  0
 16  4  1  1  0  0  0
 16  5  1  0  0  0  0
  5  1  1  0  0  0  0
  9  7  1  0  0  0  0
  9  8  1  0  0  0  0
 12  9  1  6  0  0  0
  2 10  1  0  0  0  0
  3 11  2  0  0  0  0
 12 16  1  0  0  0  0
 13 12  1  0  0  0  0
 14 13  1  0  0  0  0
 15 14  1  0  0  0  0
 16 15  1  0  0  0  0
 14 17  1  1  0  0  0
  5 18  1  6  0  0  0
M  END
>  <cdx:fragmentId>
5

$$$$
