50706.cdx
  Mrv1902 05222410222D          

 47 51  0  0  0  0            999 V2000
    3.5868   -8.1114    0.0000 C   0  0  0  0  0  0  0  0  0  0  0  0
    3.5868   -8.9364    0.0000 C   0  0  0  0  0  0  0  0  0  0  0  0
    4.3013   -9.3489    0.0000 C   0  0  0  0  0  0  0  0  0  0  0  0
    5.0157   -8.9364    0.0000 C   0  0  0  0  0  0  0  0  0  0  0  0
    5.0157   -8.1114    0.0000 C   0  0  0  0  0  0  0  0  0  0  0  0
    4.3013   -7.6989    0.0000 C   0  0  0  0  0  0  0  0  0  0  0  0
    5.7302   -9.3489    0.0000 C   0  0  0  0  0  0  0  0  0  0  0  0
    6.4447   -8.9364    0.0000 C   0  0  0  0  0  0  0  0  0  0  0  0
    6.4447   -8.1114    0.0000 C   0  0  0  0  0  0  0  0  0  0  0  0
    5.7302   -7.6989    0.0000 O   0  0  0  0  0  0  0  0  0  0  0  0
    7.8736   -8.1114    0.0000 C   0  0  0  0  0  0  0  0  0  0  0  0
    7.1592   -7.6989    0.0000 C   0  0  0  0  0  0  0  0  0  0  0  0
    8.5881   -7.6989    0.0000 C   0  0  0  0  0  0  0  0  0  0  0  0
    8.5881   -6.8739    0.0000 C   0  0  0  0  0  0  0  0  0  0  0  0
    7.8736   -6.4614    0.0000 C   0  0  0  0  0  0  0  0  0  0  0  0
    7.1592   -6.8739    0.0000 C   0  0  0  0  0  0  0  0  0  0  0  0
    5.7302  -10.1739    0.0000 O   0  0  0  0  0  0  0  0  0  0  0  0
    6.4545  -11.4141    0.0000 C   0  0  2  0  0  0  0  0  0  0  0  0
    7.1715  -11.8224    0.0000 C   0  0  2  0  0  0  0  0  0  0  0  0
    7.8834  -11.4056    0.0000 C   0  0  1  0  0  0  0  0  0  0  0  0
    7.8785  -10.5806    0.0000 C   0  0  2  0  0  0  0  0  0  0  0  0
    7.1616  -10.1724    0.0000 C   0  0  1  0  0  0  0  0  0  0  0  0
    6.4496  -10.5892    0.0000 O   0  0  0  0  0  0  0  0  0  0  0  0
    5.7425  -11.8309    0.0000 C   0  0  0  0  0  0  0  0  0  0  0  0
    7.1566   -9.3474    0.0000 O   0  0  0  0  0  0  0  0  0  0  0  0
    8.6004  -11.8138    0.0000 O   0  0  0  0  0  0  0  0  0  0  0  0
    7.1764  -12.6473    0.0000 O   0  0  0  0  0  0  0  0  0  0  0  0
    8.5905  -10.1638    0.0000 O   0  0  0  0  0  0  0  0  0  0  0  0
    5.7475  -12.6559    0.0000 O   0  0  0  0  0  0  0  0  0  0  0  0
    7.8736   -5.6364    0.0000 O   0  0  0  0  0  0  0  0  0  0  0  0
    7.1592   -5.2239    0.0000 C   0  0  0  0  0  0  0  0  0  0  0  0
    9.3026   -6.4614    0.0000 O   0  0  0  0  0  0  0  0  0  0  0  0
    9.3026   -5.6364    0.0000 C   0  0  0  0  0  0  0  0  0  0  0  0
    4.3013  -10.1739    0.0000 O   0  0  0  0  0  0  0  0  0  0  0  0
    3.5868  -10.5864    0.0000 C   0  0  0  0  0  0  0  0  0  0  0  0
    2.8723   -7.6989    0.0000 O   0  0  0  0  0  0  0  0  0  0  0  0
    2.1579   -8.1114    0.0000 C   0  0  0  0  0  0  0  0  0  0  0  0
    5.0355  -13.0727    0.0000 C   0  0  2  0  0  0  0  0  0  0  0  0
    4.3161  -12.6688    0.0000 O   0  0  0  0  0  0  0  0  0  0  0  0
    3.6066  -13.0727    0.0000 C   0  0  2  0  0  0  0  0  0  0  0  0
    3.6066  -13.8976    0.0000 C   0  0  1  0  0  0  0  0  0  0  0  0
    4.3161  -14.3015    0.0000 C   0  0  2  0  0  0  0  0  0  0  0  0
    5.0355  -13.8976    0.0000 C   0  0  1  0  0  0  0  0  0  0  0  0
    2.8934  -14.3123    0.0000 O   0  0  0  0  0  0  0  0  0  0  0  0
    4.3137  -15.1265    0.0000 O   0  0  0  0  0  0  0  0  0  0  0  0
    5.7475  -14.3144    0.0000 O   0  0  0  0  0  0  0  0  0  0  0  0
    2.8934  -12.6580    0.0000 C   0  0  0  0  0  0  0  0  0  0  0  0
  1  2  2  0  0  0  0
  2  3  1  0  0  0  0
  3  4  2  0  0  0  0
  4  5  1  0  0  0  0
  5  6  2  0  0  0  0
  6  1  1  0  0  0  0
  4  7  1  0  0  0  0
  7  8  1  0  0  0  0
  8  9  2  0  0  0  0
  9 10  1  0  0  0  0
 10  5  1  0  0  0  0
 11 12  2  0  0  0  0
 12  9  1  0  0  0  0
 11 13  1  0  0  0  0
 13 14  2  0  0  0  0
 14 15  1  0  0  0  0
 15 16  2  0  0  0  0
 16 12  1  0  0  0  0
  7 17  2  0  0  0  0
 18 19  1  0  0  0  0
 19 20  1  0  0  0  0
 20 21  1  0  0  0  0
 21 22  1  0  0  0  0
 22 23  1  0  0  0  0
 23 18  1  0  0  0  0
 18 24  1  1  0  0  0
 22 25  1  1  0  0  0
 20 26  1  1  0  0  0
 19 27  1  6  0  0  0
 21 28  1  6  0  0  0
 24 29  1  0  0  0  0
  8 25  1  0  0  0  0
 15 30  1  0  0  0  0
 30 31  1  0  0  0  0
 14 32  1  0  0  0  0
 32 33  1  0  0  0  0
  3 34  1  0  0  0  0
 34 35  1  0  0  0  0
  1 36  1  0  0  0  0
 36 37  1  0  0  0  0
 38 29  1  1  0  0  0
 38 39  1  0  0  0  0
 39 40  1  0  0  0  0
 40 41  1  0  0  0  0
 41 42  1  0  0  0  0
 42 43  1  0  0  0  0
 43 38  1  0  0  0  0
 41 44  1  1  0  0  0
 42 45  1  6  0  0  0
 43 46  1  6  0  0  0
 40 47  1  6  0  0  0
M  END
>  <cdx:fragmentId>
65

$$$$
