50708.cdx
  Mrv1902 05222410242D          

 44 46  0  0  0  0            999 V2000
    7.0588   -7.6724    0.0000 C   0  0  1  0  0  0  0  0  0  0  0  0
    6.6480   -6.9570    0.0000 O   0  0  0  0  0  0  0  0  0  0  0  0
    7.0621   -6.2435    0.0000 O   0  0  0  0  0  0  0  0  0  0  0  0
    8.2980   -6.9608    0.0000 O   0  0  0  0  0  0  0  0  0  0  0  0
    7.4730   -6.9589    0.0000 C   0  0  0  0  0  0  0  0  0  0  0  0
    8.4840   -9.3257    0.0000 O   0  0  0  0  0  0  0  0  0  0  0  0
    7.0532  -10.1474    0.0000 O   0  0  0  0  0  0  0  0  0  0  0  0
    5.6261   -9.3192    0.0000 O   0  0  0  0  0  0  0  0  0  0  0  0
    6.3415   -8.9083    0.0000 C   0  0  1  0  0  0  0  0  0  0  0  0
    7.0551   -9.3224    0.0000 C   0  0  1  0  0  0  0  0  0  0  0  0
    7.7705   -8.9116    0.0000 C   0  0  1  0  0  0  0  0  0  0  0  0
    7.7724   -8.0866    0.0000 C   0  0  0  0  0  0  0  0  0  0  0  0
    6.3434   -8.0833    0.0000 C   0  0  0  0  0  0  0  0  0  0  0  0
    9.1889   -8.1315    0.0000 O   0  0  0  0  0  0  0  0  0  0  0  0
    9.1871   -8.9565    0.0000 C   0  0  0  0  0  0  0  0  0  0  0  0
    9.9006   -9.3706    0.0000 C   0  0  0  0  0  0  0  0  0  0  0  0
   10.6160   -8.9597    0.0000 C   0  0  0  0  0  0  0  0  0  0  0  0
   12.7566  -10.2021    0.0000 C   0  0  0  0  0  0  0  0  0  0  0  0
   12.0412  -10.6130    0.0000 C   0  0  0  0  0  0  0  0  0  0  0  0
   11.3277  -10.1988    0.0000 C   0  0  0  0  0  0  0  0  0  0  0  0
   11.3296   -9.3738    0.0000 C   0  0  0  0  0  0  0  0  0  0  0  0
   12.0450   -8.9630    0.0000 C   0  0  0  0  0  0  0  0  0  0  0  0
   12.7585   -9.3771    0.0000 C   0  0  0  0  0  0  0  0  0  0  0  0
   13.4702  -10.6162    0.0000 O   0  0  0  0  0  0  0  0  0  0  0  0
   13.4739   -8.9662    0.0000 O   0  0  0  0  0  0  0  0  0  0  0  0
    4.9049   -8.1198    0.0000 O   0  0  0  0  0  0  0  0  0  0  0  0
    4.9110   -8.9447    0.0000 C   0  0  0  0  0  0  0  0  0  0  0  0
    4.1996   -9.3625    0.0000 C   0  0  0  0  0  0  0  0  0  0  0  0
    3.4821   -8.9554    0.0000 C   0  0  0  0  0  0  0  0  0  0  0  0
    1.3480  -10.2087    0.0000 C   0  0  0  0  0  0  0  0  0  0  0  0
    2.0655  -10.6159    0.0000 C   0  0  0  0  0  0  0  0  0  0  0  0
    2.7769  -10.1981    0.0000 C   0  0  0  0  0  0  0  0  0  0  0  0
    2.7707   -9.3731    0.0000 C   0  0  0  0  0  0  0  0  0  0  0  0
    2.0532   -8.9660    0.0000 C   0  0  0  0  0  0  0  0  0  0  0  0
    1.3418   -9.3838    0.0000 C   0  0  0  0  0  0  0  0  0  0  0  0
    0.6366  -10.6265    0.0000 O   0  0  0  0  0  0  0  0  0  0  0  0
    0.6243   -8.9766    0.0000 O   0  0  0  0  0  0  0  0  0  0  0  0
    5.9870   -5.7464    0.0000 O   0  0  0  0  0  0  0  0  0  0  0  0
    3.8421   -7.8073    0.0000 O   0  0  0  0  0  0  0  0  0  0  0  0
    3.1285   -6.5693    0.0000 O   0  0  0  0  0  0  0  0  0  0  0  0
    3.8427   -6.9823    0.0000 C   0  0  0  0  0  0  0  0  0  0  0  0
    4.5575   -6.5703    0.0000 C   0  0  0  0  0  0  0  0  0  0  0  0
    5.2716   -6.9833    0.0000 C   0  0  0  0  0  0  0  0  0  0  0  0
    5.9864   -6.5714    0.0000 C   0  0  0  0  0  0  0  0  0  0  0  0
  5  3  2  0  0  0  0
  1  5  1  0  0  0  0
  1  2  1  1  0  0  0
  5  4  1  0  0  0  0
 11  6  1  1  0  0  0
 10  7  1  1  0  0  0
  9  8  1  6  0  0  0
  9 13  1  0  0  0  0
 10  9  1  0  0  0  0
 11 10  1  0  0  0  0
 12 11  1  0  0  0  0
  1 12  1  0  0  0  0
 13  1  1  0  0  0  0
 15 14  2  0  0  0  0
 16 15  1  0  0  0  0
 17 16  2  0  0  0  0
 21 17  1  0  0  0  0
 18 19  2  0  0  0  0
 19 20  1  0  0  0  0
 20 21  2  0  0  0  0
 21 22  1  0  0  0  0
 22 23  2  0  0  0  0
 23 18  1  0  0  0  0
 18 24  1  0  0  0  0
 23 25  1  0  0  0  0
 15  6  1  0  0  0  0
 27 26  2  0  0  0  0
 28 27  1  0  0  0  0
 29 28  2  0  0  0  0
 33 29  1  0  0  0  0
 30 31  2  0  0  0  0
 31 32  1  0  0  0  0
 32 33  2  0  0  0  0
 33 34  1  0  0  0  0
 34 35  2  0  0  0  0
 35 30  1  0  0  0  0
 30 36  1  0  0  0  0
 35 37  1  0  0  0  0
 44 38  2  0  0  0  0
 41 39  2  0  0  0  0
 40 41  1  0  0  0  0
 41 42  1  0  0  0  0
 42 43  2  0  0  0  0
 27  8  1  0  0  0  0
 43 44  1  0  0  0  0
 44  2  1  0  0  0  0
M  END
>  <cdx:fragmentId>
5

$$$$
