50704.cdx
  Mrv1902 05222410222D          

 30 32  0  0  0  0            999 V2000
    4.9618   -9.9951    0.0000 C   0  0  0  0  0  0  0  0  0  0  0  0
    4.9618  -10.8201    0.0000 C   0  0  2  0  0  0  0  0  0  0  0  0
    5.6763  -11.2326    0.0000 C   0  0  2  0  0  0  0  0  0  0  0  0
    6.3907  -10.8201    0.0000 C   0  0  0  0  0  0  0  0  0  0  0  0
    6.3907   -9.9951    0.0000 C   0  0  1  0  0  0  0  0  0  0  0  0
    5.6763   -9.5826    0.0000 C   0  0  0  0  0  0  0  0  0  0  0  0
    7.1052  -11.2326    0.0000 C   0  0  0  0  0  0  0  0  0  0  0  0
    7.8197  -10.8201    0.0000 C   0  0  0  0  0  0  0  0  0  0  0  0
    7.8197   -9.9951    0.0000 C   0  0  0  0  0  0  0  0  0  0  0  0
    7.1052   -9.5826    0.0000 C   0  0  1  0  0  0  0  0  0  0  0  0
    4.2473  -11.2326    0.0000 O   0  0  0  0  0  0  0  0  0  0  0  0
    6.3907   -9.1701    0.0000 C   0  0  0  0  0  0  0  0  0  0  0  0
    7.1052   -8.7576    0.0000 C   0  0  0  0  0  0  0  0  0  0  0  0
    6.0888  -11.9471    0.0000 C   0  0  0  0  0  0  0  0  0  0  0  0
    5.2638  -11.9471    0.0000 C   0  0  0  0  0  0  0  0  0  0  0  0
    6.0882  -12.8546    0.0000 O   0  0  0  0  0  0  0  0  0  0  0  0
    8.5342   -9.5826    0.0000 C   0  0  0  0  0  0  0  0  0  0  0  0
    7.8197   -8.3451    0.0000 C   0  0  0  0  0  0  0  0  0  0  0  0
    7.8197   -7.5201    0.0000 C   0  0  0  0  0  0  0  0  0  0  0  0
    8.4871   -7.0352    0.0000 C   0  0  0  0  0  0  0  0  0  0  0  0
    8.2322   -6.2506    0.0000 O   0  0  0  0  0  0  0  0  0  0  0  0
    7.4072   -6.2506    0.0000 C   0  0  0  0  0  0  0  0  0  0  0  0
    7.1522   -7.0352    0.0000 C   0  0  0  0  0  0  0  0  0  0  0  0
    9.2717   -7.2902    0.0000 O   0  0  0  0  0  0  0  0  0  0  0  0
    3.5329  -10.8201    0.0000 C   0  0  0  0  0  0  0  0  0  0  0  0
    2.8184  -11.2326    0.0000 C   0  0  0  0  0  0  0  0  0  0  0  0
    3.5329   -9.9951    0.0000 O   0  0  0  0  0  0  0  0  0  0  0  0
    6.8051  -13.2630    0.0000 C   0  0  0  0  0  0  0  0  0  0  0  0
    6.8098  -14.0880    0.0000 C   0  0  0  0  0  0  0  0  0  0  0  0
    7.5172  -12.8464    0.0000 O   0  0  0  0  0  0  0  0  0  0  0  0
  1  2  1  0  0  0  0
  2  3  1  0  0  0  0
  3  4  1  0  0  0  0
  4  5  1  0  0  0  0
  5  6  1  0  0  0  0
  6  1  1  0  0  0  0
  4  7  1  0  0  0  0
  7  8  1  0  0  0  0
  8  9  1  0  0  0  0
  9 10  1  0  0  0  0
 10  5  1  0  0  0  0
  2 11  1  6  0  0  0
  5 12  1  6  0  0  0
 10 13  1  6  0  0  0
  3 14  1  6  0  0  0
  3 15  1  1  0  0  0
 14 16  1  0  0  0  0
  9 17  2  0  0  0  0
 13 18  1  0  0  0  0
 18 19  2  0  0  0  0
 19 20  1  0  0  0  0
 20 21  1  0  0  0  0
 21 22  1  0  0  0  0
 22 23  2  0  0  0  0
 23 19  1  0  0  0  0
 20 24  2  0  0  0  0
 11 25  1  0  0  0  0
 25 26  1  0  0  0  0
 25 27  2  0  0  0  0
 16 28  1  0  0  0  0
 28 29  1  0  0  0  0
 28 30  2  0  0  0  0
M  END
>  <cdx:fragmentId>
5

$$$$
