50709.cdx
  Mrv1902 05222410242D          

 41 40  0  0  0  0            999 V2000
    4.8660   -7.1828    0.0000 C   0  0  0  0  0  0  0  0  0  0  0  0
    4.3978   -7.4610    0.0000 C   0  0  0  0  0  0  0  0  0  0  0  0
    3.9477   -7.2011    0.0000 C   0  0  0  0  0  0  0  0  0  0  0  0
    3.4976   -7.4610    0.0000 C   0  0  0  0  0  0  0  0  0  0  0  0
    3.0475   -7.2011    0.0000 C   0  0  0  0  0  0  0  0  0  0  0  0
    2.5974   -7.4610    0.0000 C   0  0  0  0  0  0  0  0  0  0  0  0
    2.1472   -7.2011    0.0000 C   0  0  0  0  0  0  0  0  0  0  0  0
    1.6971   -7.4610    0.0000 C   0  0  0  0  0  0  0  0  0  0  0  0
    1.2470   -7.2011    0.0000 C   0  0  0  0  0  0  0  0  0  0  0  0
    0.7969   -7.4610    0.0000 C   0  0  0  0  0  0  0  0  0  0  0  0
    0.3468   -7.2011    0.0000 C   0  0  0  0  0  0  0  0  0  0  0  0
    5.2827   -6.9382    0.0000 C   0  0  0  0  0  0  0  0  0  0  0  0
    5.7328   -7.1981    0.0000 C   0  0  0  0  0  0  0  0  0  0  0  0
    6.1829   -6.9382    0.0000 C   0  0  0  0  0  0  0  0  0  0  0  0
    6.6330   -7.1981    0.0000 C   0  0  0  0  0  0  0  0  0  0  0  0
    7.0832   -6.9382    0.0000 C   0  0  0  0  0  0  0  0  0  0  0  0
    7.5333   -7.1981    0.0000 C   0  0  0  0  0  0  0  0  0  0  0  0
    7.9834   -6.9382    0.0000 C   0  0  0  0  0  0  0  0  0  0  0  0
    8.4335   -7.1981    0.0000 C   0  0  0  0  0  0  0  0  0  0  0  0
    8.8836   -6.9382    0.0000 C   0  0  0  0  0  0  0  0  0  0  0  0
    9.3337   -7.1981    0.0000 C   0  0  0  0  0  0  0  0  0  0  0  0
    9.7839   -6.9382    0.0000 C   0  0  0  0  0  0  0  0  0  0  0  0
   10.2340   -7.1981    0.0000 C   0  0  0  0  0  0  0  0  0  0  0  0
   10.6841   -6.9382    0.0000 C   0  0  0  0  0  0  0  0  0  0  0  0
   11.1342   -7.1981    0.0000 C   0  0  0  0  0  0  0  0  0  0  0  0
   11.5843   -6.9382    0.0000 C   0  0  0  0  0  0  0  0  0  0  0  0
   12.0344   -7.1981    0.0000 C   0  0  0  0  0  0  0  0  0  0  0  0
   12.4846   -6.9382    0.0000 C   0  0  0  0  0  0  0  0  0  0  0  0
   12.9347   -7.1981    0.0000 C   0  0  0  0  0  0  0  0  0  0  0  0
   13.3848   -6.9382    0.0000 C   0  0  0  0  0  0  0  0  0  0  0  0
    5.3079   -7.4564    0.0000 C   0  0  0  0  0  0  0  0  0  0  0  0
    5.2918   -7.9759    0.0000 C   0  0  0  0  0  0  0  0  0  0  0  0
    5.7336   -8.2496    0.0000 O   0  0  0  0  0  0  0  0  0  0  0  0
    4.8479   -6.6814    0.0000 C   0  0  0  0  0  0  0  0  0  0  0  0
    5.2981   -6.4215    0.0000 C   0  0  0  0  0  0  0  0  0  0  0  0
    5.2981   -5.9018    0.0000 C   0  0  0  0  0  0  0  0  0  0  0  0
    5.7482   -5.6419    0.0000 C   0  0  0  0  0  0  0  0  0  0  0  0
    5.7482   -5.1221    0.0000 C   0  0  0  0  0  0  0  0  0  0  0  0
    6.1983   -4.8623    0.0000 C   0  0  0  0  0  0  0  0  0  0  0  0
    6.1983   -4.3425    0.0000 C   0  0  0  0  0  0  0  0  0  0  0  0
    6.6484   -4.0826    0.0000 C   0  0  0  0  0  0  0  0  0  0  0  0
  2  1  1  0  0  0  0
  3  2  1  0  0  0  0
  4  3  1  0  0  0  0
  5  4  1  0  0  0  0
  6  5  1  0  0  0  0
  7  6  1  0  0  0  0
  8  7  1  0  0  0  0
  9  8  1  0  0  0  0
 10  9  1  0  0  0  0
 11 10  1  0  0  0  0
 12 13  1  0  0  0  0
 13 14  1  0  0  0  0
 14 15  1  0  0  0  0
 15 16  1  0  0  0  0
 16 17  1  0  0  0  0
 17 18  1  0  0  0  0
 18 19  1  0  0  0  0
 19 20  1  0  0  0  0
 20 21  1  0  0  0  0
 21 22  1  0  0  0  0
 22 23  1  0  0  0  0
 23 24  1  0  0  0  0
 24 25  1  0  0  0  0
 25 26  1  0  0  0  0
 26 27  1  0  0  0  0
 27 28  1  0  0  0  0
 28 29  1  0  0  0  0
 29 30  1  0  0  0  0
  1 31  1  0  0  0  0
 31 32  1  0  0  0  0
 32 33  1  0  0  0  0
  1 34  1  0  0  0  0
 34 35  1  0  0  0  0
 35 36  1  0  0  0  0
 36 37  1  0  0  0  0
 37 38  1  0  0  0  0
 38 39  1  0  0  0  0
 39 40  1  0  0  0  0
 40 41  1  0  0  0  0
 12  1  1  0  0  0  0
M  END
>  <cdx:fragmentId>
3

$$$$
