50717.cdx
  Mrv1902 05222410202D          

 38 42  0  0  0  0            999 V2000
    4.3378   -9.7146    0.0000 C   0  0  2  0  0  0  0  0  0  0  0  0
    4.3378   -8.8896    0.0000 C   0  0  0  0  0  0  0  0  0  0  0  0
    5.0522   -8.4771    0.0000 C   0  0  0  0  0  0  0  0  0  0  0  0
    5.7667   -9.7146    0.0000 C   0  0  2  0  0  0  0  0  0  0  0  0
    5.7667  -10.5396    0.0000 H   0  0  0  0  0  0  0  0  0  0  0  0
    6.4812  -10.1271    0.0000 C   0  0  1  0  0  0  0  0  0  0  0  0
    7.1956   -9.7146    0.0000 C   0  0  0  0  0  0  0  0  0  0  0  0
    7.1956   -8.8896    0.0000 C   0  0  1  0  0  0  0  0  0  0  0  0
    7.1956   -8.0646    0.0000 C   0  0  0  0  0  0  0  0  0  0  0  0
    7.9101   -8.4771    0.0000 C   0  0  2  0  0  0  0  0  0  0  0  0
    7.9101   -9.3021    0.0000 C   0  0  0  0  0  0  0  0  0  0  0  0
    8.6246   -8.8896    0.0000 C   0  0  0  0  0  0  0  0  0  0  0  0
    9.3391   -8.4771    0.0000 C   0  0  0  0  0  0  0  0  0  0  0  0
    9.3391   -7.6521    0.0000 C   0  0  1  0  0  0  0  0  0  0  0  0
   10.0535   -8.0646    0.0000 C   0  0  0  0  0  0  0  0  0  0  0  0
   10.0535   -7.2396    0.0000 C   0  0  0  0  0  0  0  0  0  0  0  0
   10.0535   -6.4146    0.0000 C   0  0  0  0  0  0  0  0  0  0  0  0
    9.3391   -6.0021    0.0000 C   0  0  0  0  0  0  0  0  0  0  0  0
    8.9266   -5.2877    0.0000 C   0  0  0  0  0  0  0  0  0  0  0  0
    9.7516   -5.2877    0.0000 C   0  0  0  0  0  0  0  0  0  0  0  0
    8.6246   -6.4146    0.0000 C   0  0  0  0  0  0  0  0  0  0  0  0
    8.6246   -7.2396    0.0000 C   0  0  1  0  0  0  0  0  0  0  0  0
    8.6246   -8.0646    0.0000 H   0  0  0  0  0  0  0  0  0  0  0  0
    7.9101   -7.6521    0.0000 C   0  0  0  0  0  0  0  0  0  0  0  0
    7.1956   -7.2396    0.0000 C   0  0  0  0  0  0  0  0  0  0  0  0
    6.4812   -7.6521    0.0000 C   0  0  0  0  0  0  0  0  0  0  0  0
    6.4812   -8.4771    0.0000 C   0  0  2  0  0  0  0  0  0  0  0  0
    5.7667   -8.8896    0.0000 C   0  0  1  0  0  0  0  0  0  0  0  0
    5.7667   -8.0646    0.0000 C   0  0  0  0  0  0  0  0  0  0  0  0
   10.0535   -8.8896    0.0000 O   0  0  0  0  0  0  0  0  0  0  0  0
   10.7680   -7.6521    0.0000 O   0  0  0  0  0  0  0  0  0  0  0  0
    5.0522  -11.5561    0.0000 O   0  0  0  0  0  0  0  0  0  0  0  0
    6.4812  -10.9521    0.0000 O   0  0  0  0  0  0  0  0  0  0  0  0
    3.6233  -10.1271    0.0000 O   0  0  0  0  0  0  0  0  0  0  0  0
    6.4812   -9.3021    0.0000 H   0  0  0  0  0  0  0  0  0  0  0  0
    5.4647  -10.8416    0.0000 C   0  0  0  0  0  0  0  0  0  0  0  0
    4.6397  -10.8416    0.0000 C   0  0  0  0  0  0  0  0  0  0  0  0
    5.0522  -10.1271    0.0000 C   0  0  1  0  0  0  0  0  0  0  0  0
 37 32  1  0  0  0  0
 38 36  1  1  0  0  0
 38 37  1  0  0  0  0
  1  2  1  0  0  0  0
  2  3  1  0  0  0  0
  1 38  1  0  0  0  0
 38  4  1  0  0  0  0
  4  5  1  6  0  0  0
  4  6  1  0  0  0  0
  6  7  1  0  0  0  0
  7  8  1  0  0  0  0
  8  9  1  1  0  0  0
  8 10  1  0  0  0  0
 10 11  1  6  0  0  0
 10 12  1  0  0  0  0
 12 13  1  0  0  0  0
 13 14  1  0  0  0  0
 14 15  1  1  0  0  0
 14 16  1  0  0  0  0
 16 17  1  0  0  0  0
 17 18  1  0  0  0  0
 18 19  1  0  0  0  0
 18 20  1  0  0  0  0
 18 21  1  0  0  0  0
 21 22  1  0  0  0  0
 22 23  1  1  0  0  0
 14 22  1  0  0  0  0
 22 24  1  0  0  0  0
 10 24  1  0  0  0  0
 24 25  2  0  0  0  0
 25 26  1  0  0  0  0
 26 27  1  0  0  0  0
  8 27  1  0  0  0  0
 27 28  1  0  0  0  0
  3 28  1  0  0  0  0
  4 28  1  0  0  0  0
 28 29  1  1  0  0  0
 15 30  2  0  0  0  0
 15 31  1  0  0  0  0
  6 33  1  1  0  0  0
  1 34  1  1  0  0  0
 27 35  1  6  0  0  0
M  END
>  <cdx:fragmentId>
5

$$$$
