50718.cdx
  Mrv1902 05222410242D          

 40 44  0  0  0  0            999 V2000
    2.8856   -9.2114    0.0000 O   0  0  0  0  0  0  0  0  0  0  0  0
    2.8856  -10.0364    0.0000 C   0  0  0  0  0  0  0  0  0  0  0  0
    3.6000  -10.4489    0.0000 O   0  0  0  0  0  0  0  0  0  0  0  0
    4.3145  -10.0364    0.0000 C   0  0  1  0  0  0  0  0  0  0  0  0
    4.3145   -9.2114    0.0000 C   0  0  0  0  0  0  0  0  0  0  0  0
    5.0290  -10.4489    0.0000 C   0  0  0  0  0  0  0  0  0  0  0  0
    5.7434  -10.0364    0.0000 C   0  0  1  0  0  0  0  0  0  0  0  0
    5.7434   -9.2114    0.0000 C   0  0  2  0  0  0  0  0  0  0  0  0
    5.0290   -8.7989    0.0000 C   0  0  0  0  0  0  0  0  0  0  0  0
    6.4579  -10.4489    0.0000 C   0  0  0  0  0  0  0  0  0  0  0  0
    7.1724  -10.0364    0.0000 C   0  0  0  0  0  0  0  0  0  0  0  0
    7.1724   -9.2114    0.0000 C   0  0  2  0  0  0  0  0  0  0  0  0
    6.4579   -8.7989    0.0000 C   0  0  2  0  0  0  0  0  0  0  0  0
    7.8869   -8.7989    0.0000 C   0  0  1  0  0  0  0  0  0  0  0  0
    7.8869   -7.9739    0.0000 C   0  0  0  0  0  0  0  0  0  0  0  0
    7.1724   -7.5614    0.0000 C   0  0  0  0  0  0  0  0  0  0  0  0
    6.4579   -7.9739    0.0000 C   0  0  0  0  0  0  0  0  0  0  0  0
    8.6013   -9.2114    0.0000 C   0  0  0  0  0  0  0  0  0  0  0  0
    9.3158   -8.7989    0.0000 C   0  0  0  0  0  0  0  0  0  0  0  0
    9.3158   -7.9739    0.0000 C   0  0  2  0  0  0  0  0  0  0  0  0
    8.6013   -7.5614    0.0000 C   0  0  1  0  0  0  0  0  0  0  0  0
   10.0303   -7.5614    0.0000 C   0  0  0  0  0  0  0  0  0  0  0  0
   10.0303   -6.7364    0.0000 C   0  0  0  0  0  0  0  0  0  0  0  0
    9.3158   -6.3239    0.0000 C   0  0  2  0  0  0  0  0  0  0  0  0
    8.6013   -6.7364    0.0000 C   0  0  2  0  0  0  0  0  0  0  0  0
    2.1711  -10.4489    0.0000 C   0  0  0  0  0  0  0  0  0  0  0  0
    4.6165  -11.1634    0.0000 C   0  0  0  0  0  0  0  0  0  0  0  0
    5.4415  -11.1634    0.0000 C   0  0  0  0  0  0  0  0  0  0  0  0
   10.0303   -8.3864    0.0000 C   0  0  0  0  0  0  0  0  0  0  0  0
    5.7434   -8.3864    0.0000 C   0  0  0  0  0  0  0  0  0  0  0  0
    7.1724   -8.3864    0.0000 C   0  0  0  0  0  0  0  0  0  0  0  0
    7.8869   -7.1489    0.0000 H   0  0  0  0  0  0  0  0  0  0  0  0
    7.8869   -6.3239    0.0000 C   0  0  0  0  0  0  0  0  0  0  0  0
    5.7434  -10.8614    0.0000 H   0  0  0  0  0  0  0  0  0  0  0  0
    6.4579   -9.6239    0.0000 H   0  0  0  0  0  0  0  0  0  0  0  0
    7.8869   -9.6239    0.0000 C   0  0  0  0  0  0  0  0  0  0  0  0
    8.9033   -5.6094    0.0000 O   0  0  0  0  0  0  0  0  0  0  0  0
   10.7447   -7.9739    0.0000 O   0  0  0  0  0  0  0  0  0  0  0  0
   10.0303   -9.2114    0.0000 O   0  0  0  0  0  0  0  0  0  0  0  0
    9.7283   -5.6094    0.0000 C   0  0  0  0  0  0  0  0  0  0  0  0
  1  2  2  0  0  0  0
  2  3  1  0  0  0  0
  4  3  1  1  0  0  0
  4  5  1  0  0  0  0
  4  6  1  0  0  0  0
  6  7  1  0  0  0  0
  7  8  1  0  0  0  0
  8  9  1  0  0  0  0
  9  5  1  0  0  0  0
  7 10  1  0  0  0  0
 10 11  1  0  0  0  0
 11 12  1  0  0  0  0
 12 13  1  0  0  0  0
 13  8  1  0  0  0  0
 12 14  1  0  0  0  0
 14 15  1  0  0  0  0
 15 16  1  0  0  0  0
 16 17  1  0  0  0  0
 17 13  1  0  0  0  0
 14 18  1  0  0  0  0
 18 19  1  0  0  0  0
 19 20  1  0  0  0  0
 20 21  1  0  0  0  0
 21 15  1  0  0  0  0
 20 22  1  0  0  0  0
 22 23  1  0  0  0  0
 23 24  1  0  0  0  0
 24 25  1  0  0  0  0
 25 21  1  0  0  0  0
  2 26  1  0  0  0  0
  6 27  1  0  0  0  0
  6 28  1  0  0  0  0
 20 29  1  1  0  0  0
  8 30  1  1  0  0  0
 12 31  1  1  0  0  0
 21 32  1  1  0  0  0
 25 33  1  1  0  0  0
  7 34  1  6  0  0  0
 13 35  1  6  0  0  0
 14 36  1  6  0  0  0
 24 37  1  6  0  0  0
 29 38  1  0  0  0  0
 29 39  2  0  0  0  0
 24 40  1  1  0  0  0
M  END
>  <cdx:fragmentId>
5

$$$$
