50710.cdx
  Mrv1902 05222410222D          

 21 22  0  0  0  0            999 V2000
    5.5531   -5.3064    0.0000 C   0  0  0  0  0  0  0  0  0  0  0  0
    5.5531   -6.1314    0.0000 C   0  0  0  0  0  0  0  0  0  0  0  0
    6.2675   -6.5439    0.0000 C   0  0  0  0  0  0  0  0  0  0  0  0
    6.9820   -6.1314    0.0000 C   0  0  0  0  0  0  0  0  0  0  0  0
    6.9820   -5.3064    0.0000 C   0  0  0  0  0  0  0  0  0  0  0  0
    6.2675   -4.8939    0.0000 C   0  0  0  0  0  0  0  0  0  0  0  0
    4.8386   -4.8939    0.0000 O   0  0  0  0  0  0  0  0  0  0  0  0
    7.6965   -6.5439    0.0000 C   0  0  0  0  0  0  0  0  0  0  0  0
    7.6965   -7.3689    0.0000 C   0  0  0  0  0  0  0  0  0  0  0  0
    6.9820   -7.7814    0.0000 C   0  0  0  0  0  0  0  0  0  0  0  0
    6.2675   -7.3689    0.0000 C   0  0  0  0  0  0  0  0  0  0  0  0
    6.9820   -8.6064    0.0000 C   0  0  0  0  0  0  0  0  0  0  0  0
    5.5531   -7.7814    0.0000 C   0  0  0  0  0  0  0  0  0  0  0  0
    6.2675   -9.0189    0.0000 C   0  0  0  0  0  0  0  0  0  0  0  0
    6.2675   -9.8439    0.0000 C   0  0  0  0  0  0  0  0  0  0  0  0
    6.9820  -10.2564    0.0000 C   0  0  0  0  0  0  0  0  0  0  0  0
    7.6965   -9.8439    0.0000 C   0  0  0  0  0  0  0  0  0  0  0  0
    7.6965   -9.0189    0.0000 C   0  0  0  0  0  0  0  0  0  0  0  0
    6.9820  -11.0814    0.0000 O   0  0  0  0  0  0  0  0  0  0  0  0
    5.5531  -10.2564    0.0000 O   0  0  0  0  0  0  0  0  0  0  0  0
    4.8386   -9.8439    0.0000 C   0  0  0  0  0  0  0  0  0  0  0  0
  1  2  2  0  0  0  0
  2  3  1  0  0  0  0
  3  4  2  0  0  0  0
  4  5  1  0  0  0  0
  5  6  2  0  0  0  0
  6  1  1  0  0  0  0
  1  7  1  0  0  0  0
  4  8  1  0  0  0  0
  8  9  2  0  0  0  0
  9 10  1  0  0  0  0
 10 11  1  0  0  0  0
 10 12  1  0  0  0  0
 11 13  2  0  0  0  0
 12 14  2  0  0  0  0
 14 15  1  0  0  0  0
 15 16  2  0  0  0  0
 16 17  1  0  0  0  0
 17 18  2  0  0  0  0
 18 12  1  0  0  0  0
 16 19  1  0  0  0  0
 15 20  1  0  0  0  0
 20 21  1  0  0  0  0
M  END
>  <cdx:fragmentId>
5

$$$$
