50711.cdx
  Mrv1902 05222410222D          

 34 38  0  0  0  0            999 V2000
    3.6281   -8.9226    0.0000 C   0  0  0  0  0  0  0  0  0  0  0  0
    3.6281   -9.7476    0.0000 C   0  0  0  0  0  0  0  0  0  0  0  0
    4.3425  -10.1601    0.0000 C   0  0  0  0  0  0  0  0  0  0  0  0
    5.0570   -9.7476    0.0000 C   0  0  1  0  0  0  0  0  0  0  0  0
    5.0570   -8.9226    0.0000 C   0  0  2  0  0  0  0  0  0  0  0  0
    4.3425   -8.5101    0.0000 C   0  0  0  0  0  0  0  0  0  0  0  0
    5.7715  -10.1601    0.0000 C   0  0  0  0  0  0  0  0  0  0  0  0
    6.4859   -9.7476    0.0000 C   0  0  0  0  0  0  0  0  0  0  0  0
    6.4859   -8.9226    0.0000 C   0  0  2  0  0  0  0  0  0  0  0  0
    5.7715   -8.5101    0.0000 C   0  0  2  0  0  0  0  0  0  0  0  0
    7.2004   -8.5101    0.0000 C   0  0  1  0  0  0  0  0  0  0  0  0
    7.2004   -7.6851    0.0000 C   0  0  2  0  0  0  0  0  0  0  0  0
    6.4859   -7.2726    0.0000 C   0  0  0  0  0  0  0  0  0  0  0  0
    5.7715   -7.6851    0.0000 C   0  0  0  0  0  0  0  0  0  0  0  0
    7.9149   -8.9226    0.0000 C   0  0  0  0  0  0  0  0  0  0  0  0
    8.6294   -8.5101    0.0000 C   0  0  0  0  0  0  0  0  0  0  0  0
    8.6294   -7.6851    0.0000 C   0  0  2  0  0  0  0  0  0  0  0  0
    7.9149   -7.2726    0.0000 C   0  0  2  0  0  0  0  0  0  0  0  0
    9.2424   -7.1331    0.0000 C   0  0  2  0  0  0  0  0  0  0  0  0
    8.9069   -6.3794    0.0000 C   0  0  0  0  0  0  0  0  0  0  0  0
    8.0864   -6.4657    0.0000 C   0  0  0  0  0  0  0  0  0  0  0  0
   10.0494   -7.3046    0.0000 C   0  0  0  0  0  0  0  0  0  0  0  0
   10.3044   -8.0893    0.0000 C   0  0  0  0  0  0  0  0  0  0  0  0
   10.6014   -6.6915    0.0000 C   0  0  0  0  0  0  0  0  0  0  0  0
    5.0570   -8.0976    0.0000 C   0  0  0  0  0  0  0  0  0  0  0  0
    6.4859   -8.0976    0.0000 C   0  0  0  0  0  0  0  0  0  0  0  0
    7.2004   -9.3351    0.0000 C   0  0  0  0  0  0  0  0  0  0  0  0
    7.5024   -6.5582    0.0000 C   0  0  0  0  0  0  0  0  0  0  0  0
    3.9300  -10.8746    0.0000 C   0  0  0  0  0  0  0  0  0  0  0  0
    4.7550  -10.8746    0.0000 C   0  0  0  0  0  0  0  0  0  0  0  0
    9.3438   -8.0976    0.0000 H   0  0  0  0  0  0  0  0  0  0  0  0
    7.2004   -6.8601    0.0000 H   0  0  0  0  0  0  0  0  0  0  0  0
    5.7715   -9.3351    0.0000 H   0  0  0  0  0  0  0  0  0  0  0  0
    5.0570  -10.5726    0.0000 H   0  0  0  0  0  0  0  0  0  0  0  0
  1  2  1  0  0  0  0
  2  3  1  0  0  0  0
  3  4  1  0  0  0  0
  4  5  1  0  0  0  0
  5  6  1  0  0  0  0
  6  1  1  0  0  0  0
  4  7  1  0  0  0  0
  7  8  1  0  0  0  0
  8  9  1  0  0  0  0
  9 10  1  0  0  0  0
 10  5  1  0  0  0  0
  9 11  1  0  0  0  0
 11 12  1  0  0  0  0
 12 13  1  0  0  0  0
 13 14  1  0  0  0  0
 14 10  1  0  0  0  0
 11 15  1  0  0  0  0
 15 16  1  0  0  0  0
 16 17  1  0  0  0  0
 17 18  1  0  0  0  0
 18 12  1  0  0  0  0
 17 19  1  0  0  0  0
 19 20  1  0  0  0  0
 20 21  1  0  0  0  0
 21 18  1  0  0  0  0
 19 22  1  6  0  0  0
 22 23  2  0  0  0  0
 22 24  1  0  0  0  0
  5 25  1  1  0  0  0
  9 26  1  1  0  0  0
 11 27  1  6  0  0  0
 18 28  1  6  0  0  0
  3 29  1  0  0  0  0
  3 30  1  0  0  0  0
 17 31  1  1  0  0  0
 12 32  1  1  0  0  0
 10 33  1  6  0  0  0
  4 34  1  6  0  0  0
M  END
>  <cdx:fragmentId>
5

$$$$
