50714.cdx
  Mrv1902 05222410212D          

 40 44  0  0  0  0            999 V2000
    4.8518   -8.3864    0.0000 C   0  0  0  0  0  0  0  0  0  0  0  0
    4.8518   -9.2114    0.0000 C   0  0  2  0  0  0  0  0  0  0  0  0
    5.5663   -9.6239    0.0000 C   0  0  2  0  0  0  0  0  0  0  0  0
    6.2807   -9.2114    0.0000 C   0  0  1  0  0  0  0  0  0  0  0  0
    6.2807   -8.3864    0.0000 C   0  0  2  0  0  0  0  0  0  0  0  0
    5.5663   -7.9739    0.0000 C   0  0  0  0  0  0  0  0  0  0  0  0
    6.9952   -9.6239    0.0000 C   0  0  0  0  0  0  0  0  0  0  0  0
    7.7097   -9.2114    0.0000 C   0  0  0  0  0  0  0  0  0  0  0  0
    7.7097   -8.3864    0.0000 C   0  0  2  0  0  0  0  0  0  0  0  0
    6.9952   -7.9739    0.0000 C   0  0  2  0  0  0  0  0  0  0  0  0
    8.4242   -7.9739    0.0000 C   0  0  1  0  0  0  0  0  0  0  0  0
    8.4242   -7.1489    0.0000 C   0  0  2  0  0  0  0  0  0  0  0  0
    7.7097   -6.7364    0.0000 C   0  0  0  0  0  0  0  0  0  0  0  0
    6.9952   -7.1489    0.0000 C   0  0  1  0  0  0  0  0  0  0  0  0
    9.1386   -8.3864    0.0000 C   0  0  0  0  0  0  0  0  0  0  0  0
    9.8531   -7.9739    0.0000 C   0  0  0  0  0  0  0  0  0  0  0  0
    9.8531   -7.1489    0.0000 C   0  0  2  0  0  0  0  0  0  0  0  0
    9.1386   -6.7364    0.0000 C   0  0  2  0  0  0  0  0  0  0  0  0
   10.4662   -6.5969    0.0000 C   0  0  0  0  0  0  0  0  0  0  0  0
   10.1306   -5.8432    0.0000 C   0  0  0  0  0  0  0  0  0  0  0  0
    9.3102   -5.9294    0.0000 C   0  0  1  0  0  0  0  0  0  0  0  0
    8.7581   -5.3163    0.0000 C   0  0  0  0  0  0  0  0  0  0  0  0
    9.0131   -4.5317    0.0000 C   0  0  0  0  0  0  0  0  0  0  0  0
    7.9512   -5.4879    0.0000 C   0  0  0  0  0  0  0  0  0  0  0  0
   11.3212   -7.0720    0.0000 O   0  0  0  0  0  0  0  0  0  0  0  0
   10.6068   -8.3095    0.0000 O   0  0  0  0  0  0  0  0  0  0  0  0
   10.6068   -7.4845    0.0000 C   0  0  0  0  0  0  0  0  0  0  0  0
    4.1373   -9.6239    0.0000 O   0  0  0  0  0  0  0  0  0  0  0  0
    5.9788  -10.3384    0.0000 C   0  0  0  0  0  0  0  0  0  0  0  0
    6.2807  -10.0364    0.0000 H   0  0  0  0  0  0  0  0  0  0  0  0
    6.9952   -8.7989    0.0000 H   0  0  0  0  0  0  0  0  0  0  0  0
    8.4242   -8.7989    0.0000 C   0  0  0  0  0  0  0  0  0  0  0  0
    9.1386   -7.5614    0.0000 H   0  0  0  0  0  0  0  0  0  0  0  0
    5.1538  -10.3384    0.0000 C   0  0  0  0  0  0  0  0  0  0  0  0
    6.2807   -7.5614    0.0000 C   0  0  0  0  0  0  0  0  0  0  0  0
    7.7097   -7.5614    0.0000 C   0  0  0  0  0  0  0  0  0  0  0  0
    8.4242   -6.3239    0.0000 H   0  0  0  0  0  0  0  0  0  0  0  0
    5.5663  -11.0528    0.0000 O   0  0  0  0  0  0  0  0  0  0  0  0
    6.8038  -10.3384    0.0000 O   0  0  0  0  0  0  0  0  0  0  0  0
    6.2807   -6.7364    0.0000 O   0  0  0  0  0  0  0  0  0  0  0  0
  1  2  1  0  0  0  0
  2  3  1  0  0  0  0
  3  4  1  0  0  0  0
  4  5  1  0  0  0  0
  5  6  1  0  0  0  0
  6  1  1  0  0  0  0
  4  7  1  0  0  0  0
  7  8  1  0  0  0  0
  8  9  1  0  0  0  0
  9 10  1  0  0  0  0
 10  5  1  0  0  0  0
  9 11  1  0  0  0  0
 11 12  1  0  0  0  0
 12 13  1  0  0  0  0
 13 14  1  0  0  0  0
 14 10  1  0  0  0  0
 11 15  1  0  0  0  0
 15 16  1  0  0  0  0
 16 17  1  0  0  0  0
 17 18  1  0  0  0  0
 18 12  1  0  0  0  0
 17 19  1  0  0  0  0
 19 20  1  0  0  0  0
 20 21  1  0  0  0  0
 21 18  1  0  0  0  0
 21 22  1  6  0  0  0
 22 23  1  0  0  0  0
 22 24  2  0  0  0  0
 27 25  1  0  0  0  0
 17 27  1  1  0  0  0
 27 26  2  0  0  0  0
  2 28  1  6  0  0  0
  3 29  1  6  0  0  0
  4 30  1  6  0  0  0
 10 31  1  6  0  0  0
 11 32  1  6  0  0  0
 18 33  1  6  0  0  0
  3 34  1  1  0  0  0
  5 35  1  1  0  0  0
  9 36  1  1  0  0  0
 12 37  1  1  0  0  0
 29 38  2  0  0  0  0
 29 39  1  0  0  0  0
 14 40  1  6  0  0  0
M  END
>  <cdx:fragmentId>
5

$$$$
