50726.cdx
  Mrv1902 05222410252D          

 48 51  0  0  0  0            999 V2000
    2.6534   -5.3932    0.0000 C   0  0  0  0  0  0  0  0  0  0  0  0
    2.2517   -6.1138    0.0000 C   0  0  0  0  0  0  0  0  0  0  0  0
    2.6750   -6.8219    0.0000 C   0  0  0  0  0  0  0  0  0  0  0  0
    3.4999   -6.8095    0.0000 C   0  0  0  0  0  0  0  0  0  0  0  0
    3.9016   -6.0889    0.0000 C   0  0  0  0  0  0  0  0  0  0  0  0
    3.4783   -5.3807    0.0000 C   0  0  0  0  0  0  0  0  0  0  0  0
    5.4409   -6.4889    0.0000 C   0  0  0  0  0  0  0  0  0  0  0  0
    4.7265   -6.0764    0.0000 C   0  0  0  0  0  0  0  0  0  0  0  0
    6.1554   -7.7264    0.0000 O   0  0  0  0  0  0  0  0  0  0  0  0
    6.8699   -7.3139    0.0000 C   0  0  2  0  0  0  0  0  0  0  0  0
    6.8699   -6.4889    0.0000 C   0  0  1  0  0  0  0  0  0  0  0  0
    6.1554   -6.0764    0.0000 O   0  0  0  0  0  0  0  0  0  0  0  0
    7.5844   -7.7264    0.0000 C   0  0  1  0  0  0  0  0  0  0  0  0
    8.2988   -7.3139    0.0000 C   0  0  2  0  0  0  0  0  0  0  0  0
    8.2988   -6.4889    0.0000 C   0  0  1  0  0  0  0  0  0  0  0  0
    7.5844   -6.0764    0.0000 O   0  0  0  0  0  0  0  0  0  0  0  0
    9.0133   -7.7264    0.0000 O   0  0  0  0  0  0  0  0  0  0  0  0
    9.0133   -6.0764    0.0000 C   0  0  0  0  0  0  0  0  0  0  0  0
    7.5844   -8.5514    0.0000 O   0  0  0  0  0  0  0  0  0  0  0  0
    2.2302   -4.6850    0.0000 O   0  0  0  0  0  0  0  0  0  0  0  0
    1.4268   -6.1262    0.0000 O   0  0  0  0  0  0  0  0  0  0  0  0
    9.7278   -6.4889    0.0000 O   0  0  0  0  0  0  0  0  0  0  0  0
    9.0133   -8.5514    0.0000 C   0  0  0  0  0  0  0  0  0  0  0  0
    9.7278   -8.9639    0.0000 C   0  0  0  0  0  0  0  0  0  0  0  0
    8.2988   -8.9639    0.0000 O   0  0  0  0  0  0  0  0  0  0  0  0
    9.7278   -9.7889    0.0000 C   0  0  0  0  0  0  0  0  0  0  0  0
   10.4422  -10.2014    0.0000 C   0  0  0  0  0  0  0  0  0  0  0  0
   10.4422  -11.0264    0.0000 C   0  0  0  0  0  0  0  0  0  0  0  0
   11.1567  -11.4389    0.0000 C   0  0  0  0  0  0  0  0  0  0  0  0
   11.8712  -11.0264    0.0000 C   0  0  0  0  0  0  0  0  0  0  0  0
   11.8712  -10.2014    0.0000 C   0  0  0  0  0  0  0  0  0  0  0  0
   11.1567   -9.7889    0.0000 C   0  0  0  0  0  0  0  0  0  0  0  0
   12.5856  -11.4389    0.0000 O   0  0  0  0  0  0  0  0  0  0  0  0
   12.5856   -9.7889    0.0000 O   0  0  0  0  0  0  0  0  0  0  0  0
    6.8832   -8.9740    0.0000 C   0  0  2  0  0  0  0  0  0  0  0  0
    6.1709   -8.5578    0.0000 O   0  0  0  0  0  0  0  0  0  0  0  0
    5.4543   -8.9666    0.0000 C   0  0  2  0  0  0  0  0  0  0  0  0
    5.4500   -9.7916    0.0000 C   0  0  1  0  0  0  0  0  0  0  0  0
    6.1623  -10.2078    0.0000 C   0  0  2  0  0  0  0  0  0  0  0  0
    6.8789   -9.7990    0.0000 C   0  0  1  0  0  0  0  0  0  0  0  0
    4.7334  -10.2003    0.0000 O   0  0  0  0  0  0  0  0  0  0  0  0
    4.7420   -8.5504    0.0000 C   0  0  0  0  0  0  0  0  0  0  0  0
    6.1580  -11.0328    0.0000 O   0  0  0  0  0  0  0  0  0  0  0  0
    7.5912  -10.2152    0.0000 O   0  0  0  0  0  0  0  0  0  0  0  0
    3.9124   -7.5240    0.0000 O   0  0  0  0  0  0  0  0  0  0  0  0
    3.4999   -8.2384    0.0000 C   0  0  0  0  0  0  0  0  0  0  0  0
    3.9124   -8.9529    0.0000 C   0  0  0  0  0  0  0  0  0  0  0  0
    2.6749   -8.2384    0.0000 O   0  0  0  0  0  0  0  0  0  0  0  0
  1  2  2  0  0  0  0
  2  3  1  0  0  0  0
  3  4  2  0  0  0  0
  4  5  1  0  0  0  0
  5  6  2  0  0  0  0
  6  1  1  0  0  0  0
  7  8  1  0  0  0  0
  8  5  1  0  0  0  0
 10  9  1  6  0  0  0
 10 11  1  0  0  0  0
 11 12  1  1  0  0  0
 12  7  1  0  0  0  0
 10 13  1  0  0  0  0
 13 14  1  0  0  0  0
 14 15  1  0  0  0  0
 15 16  1  0  0  0  0
 16 11  1  0  0  0  0
 14 17  1  6  0  0  0
 15 18  1  1  0  0  0
 13 19  1  1  0  0  0
  1 20  1  0  0  0  0
  2 21  1  0  0  0  0
 18 22  1  0  0  0  0
 17 23  1  0  0  0  0
 23 24  1  0  0  0  0
 23 25  2  0  0  0  0
 24 26  2  0  0  0  0
 26 27  1  0  0  0  0
 27 28  2  0  0  0  0
 28 29  1  0  0  0  0
 29 30  2  0  0  0  0
 30 31  1  0  0  0  0
 31 32  2  0  0  0  0
 32 27  1  0  0  0  0
 30 33  1  0  0  0  0
 31 34  1  0  0  0  0
 35 36  1  0  0  0  0
 36 37  1  0  0  0  0
 37 38  1  0  0  0  0
 38 39  1  0  0  0  0
 39 40  1  0  0  0  0
 40 35  1  0  0  0  0
 38 41  1  1  0  0  0
 37 42  1  6  0  0  0
 39 43  1  6  0  0  0
 40 44  1  6  0  0  0
 35 19  1  1  0  0  0
  4 45  1  0  0  0  0
 45 46  1  0  0  0  0
 46 47  1  0  0  0  0
 46 48  2  0  0  0  0
M  END
>  <cdx:fragmentId>
5

$$$$
