50721.cdx
  Mrv1902 05222410242D          

 34 36  0  0  0  0            999 V2000
   10.2222   -7.2314    0.0000 C   0  0  0  0  0  0  0  0  0  0  0  0
    3.0775   -9.7064    0.0000 O   0  0  0  0  0  0  0  0  0  0  0  0
    1.6486   -8.8814    0.0000 O   0  0  0  0  0  0  0  0  0  0  0  0
    3.0775   -6.4064    0.0000 C   0  0  0  0  0  0  0  0  0  0  0  0
    1.6486   -7.2314    0.0000 O   0  0  0  0  0  0  0  0  0  0  0  0
    3.0775   -8.8814    0.0000 C   0  0  2  0  0  0  0  0  0  0  0  0
    2.3631   -8.4689    0.0000 C   0  0  1  0  0  0  0  0  0  0  0  0
    2.3631   -7.6439    0.0000 C   0  0  2  0  0  0  0  0  0  0  0  0
    3.0775   -7.2314    0.0000 C   0  0  1  0  0  0  0  0  0  0  0  0
    3.7920   -7.6439    0.0000 O   0  0  0  0  0  0  0  0  0  0  0  0
    3.7920   -8.4689    0.0000 C   0  0  1  0  0  0  0  0  0  0  0  0
    4.5065   -8.8814    0.0000 O   0  0  0  0  0  0  0  0  0  0  0  0
    9.5078   -7.6439    0.0000 O   0  0  0  0  0  0  0  0  0  0  0  0
   12.3656  -10.1189    0.0000 O   0  0  0  0  0  0  0  0  0  0  0  0
   12.3656   -8.4689    0.0000 O   0  0  0  0  0  0  0  0  0  0  0  0
    6.6499  -10.9439    0.0000 O   0  0  0  0  0  0  0  0  0  0  0  0
    5.2209   -8.4689    0.0000 C   0  0  0  0  0  0  0  0  0  0  0  0
    5.2209  -10.1189    0.0000 O   0  0  0  0  0  0  0  0  0  0  0  0
    6.6499   -8.4689    0.0000 O   0  0  0  0  0  0  0  0  0  0  0  0
    5.9354   -8.8814    0.0000 C   0  0  1  0  0  0  0  0  0  0  0  0
    5.9354   -9.7064    0.0000 C   0  0  2  0  0  0  0  0  0  0  0  0
    6.6499  -10.1189    0.0000 C   0  0  1  0  0  0  0  0  0  0  0  0
    8.0788   -8.4689    0.0000 O   0  0  0  0  0  0  0  0  0  0  0  0
    7.3644   -8.8814    0.0000 C   0  0  1  0  0  0  0  0  0  0  0  0
    7.3644   -9.7064    0.0000 C   0  0  2  0  0  0  0  0  0  0  0  0
    8.0788  -10.1189    0.0000 O   0  0  0  0  0  0  0  0  0  0  0  0
    9.5078   -8.4689    0.0000 C   0  0  2  0  0  0  0  0  0  0  0  0
    8.7933   -8.8814    0.0000 C   0  0  0  0  0  0  0  0  0  0  0  0
   10.9367   -8.4689    0.0000 C   0  0  0  0  0  0  0  0  0  0  0  0
   10.2222   -8.8814    0.0000 C   0  0  0  0  0  0  0  0  0  0  0  0
   10.2222   -9.7064    0.0000 C   0  0  0  0  0  0  0  0  0  0  0  0
   10.9367  -10.1189    0.0000 C   0  0  0  0  0  0  0  0  0  0  0  0
   11.6512   -9.7064    0.0000 C   0  0  0  0  0  0  0  0  0  0  0  0
   11.6512   -8.8814    0.0000 C   0  0  0  0  0  0  0  0  0  0  0  0
 13  1  1  0  0  0  0
  6  2  1  6  0  0  0
  7  3  1  6  0  0  0
  9  4  1  6  0  0  0
  8  5  1  1  0  0  0
  6 11  1  0  0  0  0
  7  6  1  0  0  0  0
  8  7  1  0  0  0  0
  9  8  1  0  0  0  0
 10  9  1  0  0  0  0
 11 10  1  0  0  0  0
 11 12  1  1  0  0  0
 17 12  1  0  0  0  0
 27 13  1  1  0  0  0
 33 14  1  0  0  0  0
 34 15  1  0  0  0  0
 22 16  1  1  0  0  0
 20 17  1  1  0  0  0
 21 18  1  6  0  0  0
 19 24  1  0  0  0  0
 20 19  1  0  0  0  0
 21 20  1  0  0  0  0
 22 21  1  0  0  0  0
 25 22  1  0  0  0  0
 23 28  1  0  0  0  0
 24 23  1  1  0  0  0
 25 24  1  0  0  0  0
 25 26  1  6  0  0  0
 27 30  1  0  0  0  0
 28 27  1  0  0  0  0
 29 34  1  0  0  0  0
 30 29  2  0  0  0  0
 31 30  1  0  0  0  0
 32 31  2  0  0  0  0
 33 32  1  0  0  0  0
 34 33  2  0  0  0  0
M  END
>  <cdx:fragmentId>
5

$$$$
