50724.cdx
  Mrv1902 05222410242D          

 52 55  0  0  0  0            999 V2000
    5.8792   -8.5926    0.0000 O   0  0  0  0  0  0  0  0  0  0  0  0
    5.1647   -8.1801    0.0000 C   0  0  0  0  0  0  0  0  0  0  0  0
    4.4503   -8.5926    0.0000 C   0  0  0  0  0  0  0  0  0  0  0  0
    5.1647   -7.3551    0.0000 O   0  0  0  0  0  0  0  0  0  0  0  0
    3.7358   -8.1801    0.0000 C   0  0  0  0  0  0  0  0  0  0  0  0
   11.6080   -6.1407    0.0000 O   0  0  0  0  0  0  0  0  0  0  0  0
   10.9003   -5.7168    0.0000 C   0  0  0  0  0  0  0  0  0  0  0  0
   10.9136   -4.8919    0.0000 C   0  0  0  0  0  0  0  0  0  0  0  0
   10.1793   -6.1178    0.0000 O   0  0  0  0  0  0  0  0  0  0  0  0
    7.3013  -11.0815    0.0000 O   0  0  0  0  0  0  0  0  0  0  0  0
    8.7345  -11.8990    0.0000 O   0  0  0  0  0  0  0  0  0  0  0  0
   10.1505   -9.4166    0.0000 C   0  0  0  0  0  0  0  0  0  0  0  0
   10.1591  -11.0666    0.0000 O   0  0  0  0  0  0  0  0  0  0  0  0
    8.0136  -10.6652    0.0000 C   0  0  2  0  0  0  0  0  0  0  0  0
    8.7302  -11.0740    0.0000 C   0  0  1  0  0  0  0  0  0  0  0  0
    9.4425  -10.6578    0.0000 C   0  0  2  0  0  0  0  0  0  0  0  0
    9.4382   -9.8328    0.0000 C   0  0  1  0  0  0  0  0  0  0  0  0
    8.7216   -9.4240    0.0000 O   0  0  0  0  0  0  0  0  0  0  0  0
    8.0093   -9.8402    0.0000 C   0  0  1  0  0  0  0  0  0  0  0  0
    3.0213   -8.5927    0.0000 C   0  0  0  0  0  0  0  0  0  0  0  0
    2.3068   -8.1802    0.0000 C   0  0  0  0  0  0  0  0  0  0  0  0
    1.5924   -8.5927    0.0000 C   0  0  0  0  0  0  0  0  0  0  0  0
    1.5924   -9.4177    0.0000 C   0  0  0  0  0  0  0  0  0  0  0  0
    2.3068   -9.8302    0.0000 C   0  0  0  0  0  0  0  0  0  0  0  0
    3.0213   -9.4177    0.0000 C   0  0  0  0  0  0  0  0  0  0  0  0
    0.8779   -9.8302    0.0000 O   0  0  0  0  0  0  0  0  0  0  0  0
    2.3068  -10.6551    0.0000 O   0  0  0  0  0  0  0  0  0  0  0  0
    3.7358   -7.3551    0.0000 O   0  0  0  0  0  0  0  0  0  0  0  0
    3.0213   -6.9426    0.0000 C   0  0  0  0  0  0  0  0  0  0  0  0
    3.0213   -6.1176    0.0000 C   0  0  0  0  0  0  0  0  0  0  0  0
    2.3068   -7.3551    0.0000 O   0  0  0  0  0  0  0  0  0  0  0  0
   12.9970   -8.6384    0.0000 O   0  0  0  0  0  0  0  0  0  0  0  0
   13.0235   -6.9886    0.0000 O   0  0  0  0  0  0  0  0  0  0  0  0
    7.3081   -9.4176    0.0000 O   0  0  0  0  0  0  0  0  0  0  0  0
    5.8792   -6.9426    0.0000 C   0  0  0  0  0  0  0  0  0  0  0  0
    7.3081   -6.9426    0.0000 O   0  0  0  0  0  0  0  0  0  0  0  0
    6.5937   -7.3551    0.0000 C   0  0  1  0  0  0  0  0  0  0  0  0
    6.5937   -8.1801    0.0000 C   0  0  2  0  0  0  0  0  0  0  0  0
    7.3081   -8.5926    0.0000 C   0  0  1  0  0  0  0  0  0  0  0  0
    8.7371   -6.9426    0.0000 O   0  0  0  0  0  0  0  0  0  0  0  0
    8.0226   -7.3551    0.0000 C   0  0  1  0  0  0  0  0  0  0  0  0
    8.0226   -8.1801    0.0000 C   0  0  2  0  0  0  0  0  0  0  0  0
    8.7371   -8.5926    0.0000 O   0  0  0  0  0  0  0  0  0  0  0  0
   10.1660   -6.9426    0.0000 C   0  0  0  0  0  0  0  0  0  0  0  0
    9.4516   -7.3551    0.0000 C   0  0  0  0  0  0  0  0  0  0  0  0
   11.5948   -6.9656    0.0000 C   0  0  0  0  0  0  0  0  0  0  0  0
   10.8738   -7.3666    0.0000 C   0  0  0  0  0  0  0  0  0  0  0  0
   10.8605   -8.1915    0.0000 C   0  0  0  0  0  0  0  0  0  0  0  0
   11.5683   -8.6154    0.0000 C   0  0  0  0  0  0  0  0  0  0  0  0
   12.2893   -8.2144    0.0000 C   0  0  0  0  0  0  0  0  0  0  0  0
   12.3025   -7.3896    0.0000 C   0  0  0  0  0  0  0  0  0  0  0  0
    5.8792   -6.1176    0.0000 O   0  0  0  0  0  0  0  0  0  0  0  0
  1  2  1  0  0  0  0
  2  3  1  0  0  0  0
  2  4  2  0  0  0  0
  6  7  1  0  0  0  0
  7  8  1  0  0  0  0
 46  6  1  0  0  0  0
  7  9  2  0  0  0  0
 19 34  1  6  0  0  0
 14 10  1  1  0  0  0
 15 11  1  1  0  0  0
 17 12  1  1  0  0  0
 16 13  1  6  0  0  0
 14 19  1  0  0  0  0
 15 14  1  0  0  0  0
 16 15  1  0  0  0  0
 17 16  1  0  0  0  0
 18 17  1  0  0  0  0
 19 18  1  0  0  0  0
  3  5  2  0  0  0  0
  5 20  1  0  0  0  0
 20 21  2  0  0  0  0
 21 22  1  0  0  0  0
 22 23  2  0  0  0  0
 23 24  1  0  0  0  0
 24 25  2  0  0  0  0
 25 20  1  0  0  0  0
 23 26  1  0  0  0  0
 24 27  1  0  0  0  0
  5 28  1  0  0  0  0
 28 29  1  0  0  0  0
 29 30  1  0  0  0  0
 50 32  1  0  0  0  0
 51 33  1  0  0  0  0
 39 34  1  1  0  0  0
 37 35  1  1  0  0  0
 38  1  1  6  0  0  0
 29 31  2  0  0  0  0
 36 41  1  0  0  0  0
 37 36  1  0  0  0  0
 38 37  1  0  0  0  0
 39 38  1  0  0  0  0
 42 39  1  0  0  0  0
 40 45  1  0  0  0  0
 41 40  1  1  0  0  0
 42 41  1  0  0  0  0
 42 43  1  6  0  0  0
 44 47  1  0  0  0  0
 45 44  1  0  0  0  0
 46 51  1  0  0  0  0
 47 46  2  0  0  0  0
 48 47  1  0  0  0  0
 49 48  2  0  0  0  0
 50 49  1  0  0  0  0
 51 50  2  0  0  0  0
 35 52  1  0  0  0  0
M  END
>  <cdx:fragmentId>
5

$$$$
