50720.cdx
  Mrv1902 05222410242D          

 33 35  0  0  0  0            999 V2000
    6.2981   -9.7512    0.0000 C   0  0  1  0  0  0  0  0  0  0  0  0
    7.0107  -10.1669    0.0000 C   0  0  1  0  0  0  0  0  0  0  0  0
    7.7270   -9.7577    0.0000 C   0  0  2  0  0  0  0  0  0  0  0  0
    7.7308   -8.9327    0.0000 C   0  0  1  0  0  0  0  0  0  0  0  0
    7.0182   -8.5170    0.0000 O   0  0  0  0  0  0  0  0  0  0  0  0
    6.3019   -8.9262    0.0000 C   0  0  2  0  0  0  0  0  0  0  0  0
    5.5893   -8.5104    0.0000 C   0  0  0  0  0  0  0  0  0  0  0  0
    4.8730   -8.9196    0.0000 O   0  0  0  0  0  0  0  0  0  0  0  0
    5.5818  -10.1604    0.0000 O   0  0  0  0  0  0  0  0  0  0  0  0
    9.8799   -7.7051    0.0000 O   0  0  0  0  0  0  0  0  0  0  0  0
   10.5887   -8.9458    0.0000 C   0  0  0  0  0  0  0  0  0  0  0  0
   11.3050   -8.5366    0.0000 C   0  0  0  0  0  0  0  0  0  0  0  0
   10.5849   -9.7708    0.0000 C   0  0  0  0  0  0  0  0  0  0  0  0
   11.2975  -10.1866    0.0000 C   0  0  0  0  0  0  0  0  0  0  0  0
   12.0138   -9.7774    0.0000 C   0  0  0  0  0  0  0  0  0  0  0  0
   12.0176   -8.9524    0.0000 C   0  0  0  0  0  0  0  0  0  0  0  0
   12.7340   -8.5431    0.0000 O   0  0  0  0  0  0  0  0  0  0  0  0
   12.7264  -10.1931    0.0000 O   0  0  0  0  0  0  0  0  0  0  0  0
    9.8761   -8.5301    0.0000 C   0  0  0  0  0  0  0  0  0  0  0  0
    9.1597   -8.9393    0.0000 C   0  0  0  0  0  0  0  0  0  0  0  0
    8.4472   -8.5235    0.0000 O   0  0  0  0  0  0  0  0  0  0  0  0
    7.0069  -10.9919    0.0000 O   0  0  0  0  0  0  0  0  0  0  0  0
    8.4396  -10.1735    0.0000 O   0  0  0  0  0  0  0  0  0  0  0  0
    3.4357   -7.2624    0.0000 C   0  0  1  0  0  0  0  0  0  0  0  0
    2.7179   -7.6690    0.0000 C   0  0  1  0  0  0  0  0  0  0  0  0
    2.7111   -8.4939    0.0000 C   0  0  2  0  0  0  0  0  0  0  0  0
    3.4221   -8.9123    0.0000 C   0  0  2  0  0  0  0  0  0  0  0  0
    4.1400   -8.5057    0.0000 C   0  0  1  0  0  0  0  0  0  0  0  0
    4.1468   -7.6808    0.0000 O   0  0  0  0  0  0  0  0  0  0  0  0
    2.0068   -7.2506    0.0000 O   0  0  0  0  0  0  0  0  0  0  0  0
    3.4425   -6.4374    0.0000 C   0  0  0  0  0  0  0  0  0  0  0  0
    1.9932   -8.9005    0.0000 O   0  0  0  0  0  0  0  0  0  0  0  0
    3.4153   -9.7373    0.0000 O   0  0  0  0  0  0  0  0  0  0  0  0
  1  2  1  0  0  0  0
  2  3  1  0  0  0  0
  3  4  1  0  0  0  0
  4  5  1  0  0  0  0
  5  6  1  0  0  0  0
  6  1  1  0  0  0  0
  6  7  1  1  0  0  0
  7  8  1  0  0  0  0
  1  9  1  6  0  0  0
 19 10  1  0  0  0  0
  4 21  1  1  0  0  0
 11 12  2  0  0  0  0
 11 13  1  0  0  0  0
 13 14  2  0  0  0  0
 14 15  1  0  0  0  0
 15 16  2  0  0  0  0
 16 12  1  0  0  0  0
 16 17  1  0  0  0  0
 19 11  1  0  0  0  0
 20 19  1  0  0  0  0
 15 18  1  0  0  0  0
 21 20  1  0  0  0  0
  2 22  1  1  0  0  0
  3 23  1  6  0  0  0
 24 25  1  0  0  0  0
 25 26  1  0  0  0  0
 26 27  1  0  0  0  0
 27 28  1  0  0  0  0
 28 29  1  0  0  0  0
 29 24  1  0  0  0  0
 25 30  1  1  0  0  0
 24 31  1  6  0  0  0
 26 32  1  6  0  0  0
 27 33  1  6  0  0  0
 28  8  1  1  0  0  0
M  END
>  <cdx:fragmentId>
5

$$$$
