50728.cdx
  Mrv1902 05222410212D          

 45 48  0  0  0  0            999 V2000
    6.5497   -7.4335    0.0000 C   0  0  2  0  0  0  0  0  0  0  0  0
    6.5497   -8.2585    0.0000 C   0  0  2  0  0  0  0  0  0  0  0  0
    7.2641   -8.6710    0.0000 C   0  0  1  0  0  0  0  0  0  0  0  0
    7.9786   -8.2585    0.0000 C   0  0  2  0  0  0  0  0  0  0  0  0
    7.9786   -7.4335    0.0000 C   0  0  1  0  0  0  0  0  0  0  0  0
    7.2641   -7.0210    0.0000 O   0  0  0  0  0  0  0  0  0  0  0  0
    5.8352   -7.0210    0.0000 C   0  0  0  0  0  0  0  0  0  0  0  0
    7.2641   -9.4960    0.0000 O   0  0  0  0  0  0  0  0  0  0  0  0
    8.6931   -7.0210    0.0000 O   0  0  0  0  0  0  0  0  0  0  0  0
    5.8352   -8.6710    0.0000 O   0  0  0  0  0  0  0  0  0  0  0  0
    8.6931   -8.6710    0.0000 O   0  0  0  0  0  0  0  0  0  0  0  0
    5.1207   -7.4335    0.0000 O   0  0  0  0  0  0  0  0  0  0  0  0
    9.4075   -7.4335    0.0000 C   0  0  0  0  0  0  0  0  0  0  0  0
   10.1220   -7.0210    0.0000 C   0  0  1  0  0  0  0  0  0  0  0  0
   10.8365   -7.4335    0.0000 C   0  0  0  0  0  0  0  0  0  0  0  0
   10.1220   -6.1960    0.0000 O   0  0  0  0  0  0  0  0  0  0  0  0
   10.8365   -8.2585    0.0000 C   0  0  0  0  0  0  0  0  0  0  0  0
   11.5510   -8.6710    0.0000 C   0  0  0  0  0  0  0  0  0  0  0  0
   12.2654   -8.2585    0.0000 C   0  0  0  0  0  0  0  0  0  0  0  0
   12.2654   -7.4335    0.0000 C   0  0  0  0  0  0  0  0  0  0  0  0
   11.5510   -7.0210    0.0000 C   0  0  0  0  0  0  0  0  0  0  0  0
   12.9799   -8.6710    0.0000 O   0  0  0  0  0  0  0  0  0  0  0  0
   12.9799   -7.0210    0.0000 O   0  0  0  0  0  0  0  0  0  0  0  0
    5.8256   -9.5073    0.0000 C   0  0  0  0  0  0  0  0  0  0  0  0
    6.5401   -9.9197    0.0000 O   0  0  0  0  0  0  0  0  0  0  0  0
    5.1112   -9.9199    0.0000 C   0  0  0  0  0  0  0  0  0  0  0  0
    5.1113  -10.7449    0.0000 C   0  0  0  0  0  0  0  0  0  0  0  0
    4.3969  -11.1575    0.0000 C   0  0  0  0  0  0  0  0  0  0  0  0
    3.6823  -10.7450    0.0000 C   0  0  0  0  0  0  0  0  0  0  0  0
    2.9679  -11.1576    0.0000 C   0  0  0  0  0  0  0  0  0  0  0  0
    2.9680  -11.9826    0.0000 C   0  0  0  0  0  0  0  0  0  0  0  0
    3.6825  -12.3950    0.0000 C   0  0  0  0  0  0  0  0  0  0  0  0
    4.3969  -11.9825    0.0000 C   0  0  0  0  0  0  0  0  0  0  0  0
    2.2536  -12.3952    0.0000 O   0  0  0  0  0  0  0  0  0  0  0  0
    2.2534  -10.7452    0.0000 O   0  0  0  0  0  0  0  0  0  0  0  0
    3.6956   -5.7930    0.0000 C   0  0  0  0  0  0  0  0  0  0  0  0
    2.9811   -6.2055    0.0000 C   0  0  2  0  0  0  0  0  0  0  0  0
    2.9811   -7.0305    0.0000 C   0  0  1  0  0  0  0  0  0  0  0  0
    3.6955   -7.4430    0.0000 C   0  0  2  0  0  0  0  0  0  0  0  0
    4.4100   -7.0306    0.0000 C   0  0  1  0  0  0  0  0  0  0  0  0
    4.4101   -6.2056    0.0000 O   0  0  0  0  0  0  0  0  0  0  0  0
    2.2666   -7.4429    0.0000 O   0  0  0  0  0  0  0  0  0  0  0  0
    2.2667   -5.7929    0.0000 O   0  0  0  0  0  0  0  0  0  0  0  0
    3.6954   -8.2680    0.0000 O   0  0  0  0  0  0  0  0  0  0  0  0
   10.8365   -5.7835    0.0000 C   0  0  0  0  0  0  0  0  0  0  0  0
  1  2  1  0  0  0  0
  2  3  1  0  0  0  0
  3  4  1  0  0  0  0
  4  5  1  0  0  0  0
  5  6  1  0  0  0  0
  6  1  1  0  0  0  0
  1  7  1  1  0  0  0
  3  8  1  1  0  0  0
  5  9  1  1  0  0  0
  2 10  1  6  0  0  0
  4 11  1  6  0  0  0
  7 12  1  0  0  0  0
  9 13  1  0  0  0  0
 13 14  1  0  0  0  0
 14 15  1  0  0  0  0
 14 16  1  6  0  0  0
 15 17  2  0  0  0  0
 17 18  1  0  0  0  0
 18 19  2  0  0  0  0
 19 20  1  0  0  0  0
 20 21  2  0  0  0  0
 21 15  1  0  0  0  0
 19 22  1  0  0  0  0
 20 23  1  0  0  0  0
 24 25  2  0  0  0  0
 24 26  1  0  0  0  0
 26 27  2  0  0  0  0
 27 28  1  0  0  0  0
 28 29  2  0  0  0  0
 29 30  1  0  0  0  0
 30 31  2  0  0  0  0
 31 32  1  0  0  0  0
 32 33  2  0  0  0  0
 33 28  1  0  0  0  0
 31 34  1  0  0  0  0
 30 35  1  0  0  0  0
 36 37  1  0  0  0  0
 37 38  1  0  0  0  0
 38 39  1  0  0  0  0
 39 40  1  0  0  0  0
 40 41  1  0  0  0  0
 41 36  1  0  0  0  0
 38 42  1  1  0  0  0
 37 43  1  6  0  0  0
 39 44  1  6  0  0  0
 40 12  1  1  0  0  0
 24 10  1  0  0  0  0
 16 45  1  0  0  0  0
M  END
>  <cdx:fragmentId>
336

$$$$
