50730.cdx
  Mrv1902 05222410242D          

 45 48  0  0  0  0            999 V2000
    2.3631   -8.8814    0.0000 C   0  0  0  0  0  0  0  0  0  0  0  0
    2.3631   -9.7064    0.0000 C   0  0  0  0  0  0  0  0  0  0  0  0
    3.0775  -10.1189    0.0000 C   0  0  0  0  0  0  0  0  0  0  0  0
    3.7920   -9.7064    0.0000 C   0  0  0  0  0  0  0  0  0  0  0  0
    3.7920   -8.8814    0.0000 C   0  0  0  0  0  0  0  0  0  0  0  0
    3.0775   -8.4689    0.0000 C   0  0  0  0  0  0  0  0  0  0  0  0
    5.2209   -8.8814    0.0000 C   0  0  0  0  0  0  0  0  0  0  0  0
    4.5065   -8.4689    0.0000 C   0  0  1  0  0  0  0  0  0  0  0  0
    5.9354  -10.1189    0.0000 O   0  0  0  0  0  0  0  0  0  0  0  0
    6.6499   -9.7064    0.0000 C   0  0  2  0  0  0  0  0  0  0  0  0
    6.6499   -8.8814    0.0000 C   0  0  1  0  0  0  0  0  0  0  0  0
    5.9354   -8.4689    0.0000 O   0  0  0  0  0  0  0  0  0  0  0  0
    7.3644  -10.1189    0.0000 C   0  0  1  0  0  0  0  0  0  0  0  0
    8.0788   -9.7064    0.0000 C   0  0  2  0  0  0  0  0  0  0  0  0
    8.0788   -8.8814    0.0000 C   0  0  1  0  0  0  0  0  0  0  0  0
    7.3644   -8.4689    0.0000 O   0  0  0  0  0  0  0  0  0  0  0  0
    8.7933  -10.1189    0.0000 O   0  0  0  0  0  0  0  0  0  0  0  0
    8.7933   -8.4689    0.0000 C   0  0  0  0  0  0  0  0  0  0  0  0
    7.3644  -10.9439    0.0000 O   0  0  0  0  0  0  0  0  0  0  0  0
    1.6486   -8.4689    0.0000 O   0  0  0  0  0  0  0  0  0  0  0  0
    1.6486  -10.1189    0.0000 O   0  0  0  0  0  0  0  0  0  0  0  0
    4.5065   -7.6439    0.0000 O   0  0  0  0  0  0  0  0  0  0  0  0
    9.5078   -8.8814    0.0000 O   0  0  0  0  0  0  0  0  0  0  0  0
   10.2222   -8.4689    0.0000 C   0  0  2  0  0  0  0  0  0  0  0  0
   10.9367   -8.8814    0.0000 O   0  0  0  0  0  0  0  0  0  0  0  0
   11.6512   -8.4689    0.0000 C   0  0  2  0  0  0  0  0  0  0  0  0
   11.6512   -7.6439    0.0000 C   0  0  1  0  0  0  0  0  0  0  0  0
   10.9367   -7.2314    0.0000 C   0  0  2  0  0  0  0  0  0  0  0  0
   10.2222   -7.6439    0.0000 C   0  0  1  0  0  0  0  0  0  0  0  0
   12.3656   -7.2314    0.0000 O   0  0  0  0  0  0  0  0  0  0  0  0
   12.3656   -8.8814    0.0000 C   0  0  0  0  0  0  0  0  0  0  0  0
   10.9367   -6.4064    0.0000 O   0  0  0  0  0  0  0  0  0  0  0  0
    9.5078   -7.2314    0.0000 O   0  0  0  0  0  0  0  0  0  0  0  0
    8.7955  -10.9535    0.0000 C   0  0  0  0  0  0  0  0  0  0  0  0
    9.5100  -11.3660    0.0000 C   0  0  0  0  0  0  0  0  0  0  0  0
    8.0811  -11.3660    0.0000 O   0  0  0  0  0  0  0  0  0  0  0  0
    9.5100  -12.1910    0.0000 C   0  0  0  0  0  0  0  0  0  0  0  0
   10.2245  -12.6035    0.0000 C   0  0  0  0  0  0  0  0  0  0  0  0
   10.2245  -13.4285    0.0000 C   0  0  0  0  0  0  0  0  0  0  0  0
   10.9389  -13.8410    0.0000 C   0  0  0  0  0  0  0  0  0  0  0  0
   11.6534  -13.4285    0.0000 C   0  0  0  0  0  0  0  0  0  0  0  0
   11.6534  -12.6035    0.0000 C   0  0  0  0  0  0  0  0  0  0  0  0
   10.9389  -12.1910    0.0000 C   0  0  0  0  0  0  0  0  0  0  0  0
   12.3679  -13.8410    0.0000 O   0  0  0  0  0  0  0  0  0  0  0  0
   12.3679  -12.1910    0.0000 O   0  0  0  0  0  0  0  0  0  0  0  0
  1  2  2  0  0  0  0
  2  3  1  0  0  0  0
  3  4  2  0  0  0  0
  4  5  1  0  0  0  0
  5  6  2  0  0  0  0
  6  1  1  0  0  0  0
  7  8  1  0  0  0  0
  8  5  1  0  0  0  0
 10  9  1  6  0  0  0
 10 11  1  0  0  0  0
 11 12  1  1  0  0  0
 12  7  1  0  0  0  0
 10 13  1  0  0  0  0
 13 14  1  0  0  0  0
 14 15  1  0  0  0  0
 15 16  1  0  0  0  0
 16 11  1  0  0  0  0
 14 17  1  6  0  0  0
 15 18  1  1  0  0  0
 13 19  1  1  0  0  0
  1 20  1  0  0  0  0
  2 21  1  0  0  0  0
  8 22  1  6  0  0  0
 18 23  1  0  0  0  0
 24 23  1  1  0  0  0
 24 25  1  0  0  0  0
 25 26  1  0  0  0  0
 26 27  1  0  0  0  0
 27 28  1  0  0  0  0
 28 29  1  0  0  0  0
 29 24  1  0  0  0  0
 27 30  1  1  0  0  0
 26 31  1  6  0  0  0
 28 32  1  6  0  0  0
 29 33  1  6  0  0  0
 34 35  1  0  0  0  0
 34 36  2  0  0  0  0
 35 37  2  0  0  0  0
 37 38  1  0  0  0  0
 38 39  2  0  0  0  0
 39 40  1  0  0  0  0
 40 41  2  0  0  0  0
 41 42  1  0  0  0  0
 42 43  2  0  0  0  0
 43 38  1  0  0  0  0
 41 44  1  0  0  0  0
 42 45  1  0  0  0  0
 34 17  1  0  0  0  0
M  END
>  <cdx:fragmentId>
5

$$$$
