50735.cdx
  Mrv1902 05222410242D          

  6  6  0  0  0  0            999 V2000
    5.5820   -7.0286    0.0000 C   0  0  0  0  0  0  0  0  0  0  0  0
    5.3289   -7.8138    0.0000 C   0  0  0  0  0  0  0  0  0  0  0  0
    5.9975   -8.2971    0.0000 N   0  0  0  0  0  0  0  0  0  0  0  0
    6.6638   -7.8106    0.0000 C   0  0  0  0  0  0  0  0  0  0  0  0
    6.4070   -7.0266    0.0000 C   0  0  0  0  0  0  0  0  0  0  0  0
    7.4490   -8.0637    0.0000 C   0  0  0  0  0  0  0  0  0  0  0  0
  1  2  2  0  0  0  0
  2  3  1  0  0  0  0
  3  4  1  0  0  0  0
  4  5  2  0  0  0  0
  5  1  1  0  0  0  0
  4  6  1  0  0  0  0
M  END
>  <cdx:fragmentId>
5

$$$$
