50733.cdx
  Mrv1902 05222410252D          

 23 25  0  0  0  0            999 V2000
    3.7656   -6.9289    0.0000 C   0  0  0  0  0  0  0  0  0  0  0  0
    3.7656   -7.7539    0.0000 C   0  0  0  0  0  0  0  0  0  0  0  0
    4.4800   -8.1664    0.0000 C   0  0  0  0  0  0  0  0  0  0  0  0
    5.1945   -7.7539    0.0000 C   0  0  0  0  0  0  0  0  0  0  0  0
    5.1945   -6.9289    0.0000 C   0  0  0  0  0  0  0  0  0  0  0  0
    4.4800   -6.5164    0.0000 C   0  0  0  0  0  0  0  0  0  0  0  0
    5.9090   -8.1664    0.0000 C   0  0  0  0  0  0  0  0  0  0  0  0
    6.6234   -7.7539    0.0000 C   0  0  0  0  0  0  0  0  0  0  0  0
    6.6234   -6.9289    0.0000 C   0  0  0  0  0  0  0  0  0  0  0  0
    5.9090   -6.5164    0.0000 O   0  0  0  0  0  0  0  0  0  0  0  0
    7.3379   -8.1664    0.0000 C   0  0  0  0  0  0  0  0  0  0  0  0
    8.0524   -7.7539    0.0000 C   0  0  0  0  0  0  0  0  0  0  0  0
    7.3379   -8.9914    0.0000 C   0  0  0  0  0  0  0  0  0  0  0  0
    8.0524   -9.4039    0.0000 C   0  0  0  0  0  0  0  0  0  0  0  0
    8.7669   -8.9914    0.0000 C   0  0  0  0  0  0  0  0  0  0  0  0
    8.7669   -8.1664    0.0000 C   0  0  0  0  0  0  0  0  0  0  0  0
    8.0524   -6.9289    0.0000 O   0  0  0  0  0  0  0  0  0  0  0  0
    9.4813   -7.7539    0.0000 O   0  0  0  0  0  0  0  0  0  0  0  0
   10.1958   -8.1664    0.0000 C   0  0  0  0  0  0  0  0  0  0  0  0
    9.4813   -9.4039    0.0000 O   0  0  0  0  0  0  0  0  0  0  0  0
    9.4813  -10.2289    0.0000 C   0  0  0  0  0  0  0  0  0  0  0  0
    3.0511   -6.5164    0.0000 O   0  0  0  0  0  0  0  0  0  0  0  0
    2.3366   -6.9289    0.0000 C   0  0  0  0  0  0  0  0  0  0  0  0
  1  2  2  0  0  0  0
  2  3  1  0  0  0  0
  3  4  2  0  0  0  0
  4  5  1  0  0  0  0
  5  6  2  0  0  0  0
  6  1  1  0  0  0  0
  4  7  1  0  0  0  0
  7  8  1  0  0  0  0
  8  9  1  0  0  0  0
  9 10  1  0  0  0  0
 10  5  1  0  0  0  0
  8 11  1  0  0  0  0
 11 12  2  0  0  0  0
 11 13  1  0  0  0  0
 13 14  2  0  0  0  0
 14 15  1  0  0  0  0
 15 16  2  0  0  0  0
 16 12  1  0  0  0  0
 12 17  1  0  0  0  0
 16 18  1  0  0  0  0
 18 19  1  0  0  0  0
 15 20  1  0  0  0  0
 20 21  1  0  0  0  0
  1 22  1  0  0  0  0
 22 23  1  0  0  0  0
M  END
>  <cdx:fragmentId>
5

$$$$
