50731.cdx
  Mrv1902 05222410252D          

 35 37  0  0  0  0            999 V2000
   12.1328   -8.9776    0.0000 C   0  0  0  0  0  0  0  0  0  0  0  0
   12.1328   -9.8026    0.0000 C   0  0  0  0  0  0  0  0  0  0  0  0
   11.4184  -10.2151    0.0000 C   0  0  0  0  0  0  0  0  0  0  0  0
   10.7039   -9.8026    0.0000 C   0  0  0  0  0  0  0  0  0  0  0  0
   10.7039   -8.9776    0.0000 C   0  0  0  0  0  0  0  0  0  0  0  0
   11.4184   -8.5651    0.0000 C   0  0  0  0  0  0  0  0  0  0  0  0
   12.8473   -8.5651    0.0000 O   0  0  0  0  0  0  0  0  0  0  0  0
   12.8473  -10.2151    0.0000 O   0  0  0  0  0  0  0  0  0  0  0  0
    9.9894   -8.5651    0.0000 C   0  0  1  0  0  0  0  0  0  0  0  0
    9.2750   -8.9776    0.0000 C   0  0  0  0  0  0  0  0  0  0  0  0
    9.9894   -7.7401    0.0000 O   0  0  0  0  0  0  0  0  0  0  0  0
    8.5605   -8.5651    0.0000 O   0  0  0  0  0  0  0  0  0  0  0  0
    7.8460   -8.9776    0.0000 C   0  0  1  0  0  0  0  0  0  0  0  0
    7.8460   -9.8026    0.0000 C   0  0  1  0  0  0  0  0  0  0  0  0
    7.1315  -10.2151    0.0000 C   0  0  2  0  0  0  0  0  0  0  0  0
    6.4171   -9.8026    0.0000 C   0  0  1  0  0  0  0  0  0  0  0  0
    6.4171   -8.9776    0.0000 C   0  0  2  0  0  0  0  0  0  0  0  0
    7.1315   -8.5651    0.0000 O   0  0  0  0  0  0  0  0  0  0  0  0
    5.7026   -8.5651    0.0000 C   0  0  0  0  0  0  0  0  0  0  0  0
    7.1315  -11.0401    0.0000 O   0  0  0  0  0  0  0  0  0  0  0  0
    8.5605  -10.2151    0.0000 O   0  0  0  0  0  0  0  0  0  0  0  0
    5.7026  -10.2151    0.0000 O   0  0  0  0  0  0  0  0  0  0  0  0
    4.9881   -8.9776    0.0000 O   0  0  0  0  0  0  0  0  0  0  0  0
   10.7039   -7.3276    0.0000 C   0  0  0  0  0  0  0  0  0  0  0  0
    3.5902   -7.2950    0.0000 C   0  0  2  0  0  0  0  0  0  0  0  0
    2.8680   -7.6938    0.0000 C   0  0  2  0  0  0  0  0  0  0  0  0
    2.8523   -8.5186    0.0000 C   0  0  1  0  0  0  0  0  0  0  0  0
    3.5587   -8.9447    0.0000 C   0  0  2  0  0  0  0  0  0  0  0  0
    4.2809   -8.5459    0.0000 C   0  0  1  0  0  0  0  0  0  0  0  0
    4.2967   -7.7210    0.0000 O   0  0  0  0  0  0  0  0  0  0  0  0
    3.6059   -6.4701    0.0000 C   0  0  0  0  0  0  0  0  0  0  0  0
    2.1300   -8.9174    0.0000 O   0  0  0  0  0  0  0  0  0  0  0  0
    3.5430   -9.7695    0.0000 O   0  0  0  0  0  0  0  0  0  0  0  0
    2.1615   -7.2677    0.0000 O   0  0  0  0  0  0  0  0  0  0  0  0
    2.8995   -6.0441    0.0000 O   0  0  0  0  0  0  0  0  0  0  0  0
  1  2  2  0  0  0  0
  2  3  1  0  0  0  0
  3  4  2  0  0  0  0
  4  5  1  0  0  0  0
  5  6  2  0  0  0  0
  6  1  1  0  0  0  0
  1  7  1  0  0  0  0
  2  8  1  0  0  0  0
  5  9  1  0  0  0  0
  9 10  1  0  0  0  0
  9 11  1  1  0  0  0
 10 12  1  0  0  0  0
 13 12  1  1  0  0  0
 13 14  1  0  0  0  0
 14 15  1  0  0  0  0
 15 16  1  0  0  0  0
 16 17  1  0  0  0  0
 17 18  1  0  0  0  0
 18 13  1  0  0  0  0
 17 19  1  1  0  0  0
 15 20  1  1  0  0  0
 14 21  1  6  0  0  0
 16 22  1  6  0  0  0
 19 23  1  0  0  0  0
 11 24  1  0  0  0  0
 25 26  1  0  0  0  0
 26 27  1  0  0  0  0
 27 28  1  0  0  0  0
 28 29  1  0  0  0  0
 29 30  1  0  0  0  0
 30 25  1  0  0  0  0
 25 31  1  1  0  0  0
 27 32  1  1  0  0  0
 28 33  1  6  0  0  0
 26 34  1  6  0  0  0
 31 35  1  0  0  0  0
 29 23  1  1  0  0  0
M  END
>  <cdx:fragmentId>
5

$$$$
