50734.cdx
  Mrv1902 05222410242D          

  9  9  0  0  0  0            999 V2000
    6.1031   -6.4614    0.0000 C   0  0  0  0  0  0  0  0  0  0  0  0
    6.1031   -7.2864    0.0000 C   0  0  0  0  0  0  0  0  0  0  0  0
    6.8175   -7.6989    0.0000 C   0  0  0  0  0  0  0  0  0  0  0  0
    7.5320   -7.2864    0.0000 C   0  0  0  0  0  0  0  0  0  0  0  0
    7.5320   -6.4614    0.0000 C   0  0  0  0  0  0  0  0  0  0  0  0
    6.8175   -6.0489    0.0000 C   0  0  0  0  0  0  0  0  0  0  0  0
    5.3886   -7.6989    0.0000 C   0  0  0  0  0  0  0  0  0  0  0  0
    5.3886   -6.0489    0.0000 C   0  0  0  0  0  0  0  0  0  0  0  0
    4.6741   -6.4614    0.0000 O   0  0  0  0  0  0  0  0  0  0  0  0
  1  2  2  0  0  0  0
  2  3  1  0  0  0  0
  3  4  2  0  0  0  0
  4  5  1  0  0  0  0
  5  6  2  0  0  0  0
  6  1  1  0  0  0  0
  2  7  1  0  0  0  0
  1  8  1  0  0  0  0
  8  9  1  0  0  0  0
M  END
>  <cdx:fragmentId>
5

$$$$
