508396.cdx
  Mrv1902 05222410272D          

 42 48  0  0  0  0            999 V2000
    8.1706   -8.7823    0.0000 C   0  0  0  0  0  0  0  0  0  0  0  0
    8.9664   -8.5648    0.0000 C   0  0  0  0  0  0  0  0  0  0  0  0
    9.1759   -7.7668    0.0000 C   0  0  0  0  0  0  0  0  0  0  0  0
    7.5843   -8.2019    0.0000 O   0  0  0  0  0  0  0  0  0  0  0  0
    7.9611   -9.5803    0.0000 N   0  0  0  0  0  0  0  0  0  0  0  0
    8.5474  -10.1607    0.0000 C   0  0  0  0  0  0  0  0  0  0  0  0
    8.3379  -10.9586    0.0000 C   0  0  0  0  0  0  0  0  0  0  0  0
    7.5421  -11.1762    0.0000 C   0  0  0  0  0  0  0  0  0  0  0  0
    6.9558  -10.5957    0.0000 C   0  0  0  0  0  0  0  0  0  0  0  0
    7.1653   -9.7978    0.0000 C   0  0  0  0  0  0  0  0  0  0  0  0
    8.5896   -7.1864    0.0000 C   0  0  1  0  0  0  0  0  0  0  0  0
    8.5855   -6.3614    0.0000 C   0  0  1  0  0  0  0  0  0  0  0  0
    7.7605   -6.3656    0.0000 C   0  0  2  0  0  0  0  0  0  0  0  0
    7.7646   -7.1905    0.0000 C   0  0  2  0  0  0  0  0  0  0  0  0
    7.1742   -5.7851    0.0000 C   0  0  0  0  0  0  0  0  0  0  0  0
    7.3837   -4.9872    0.0000 O   0  0  0  0  0  0  0  0  0  0  0  0
    6.3784   -6.0027    0.0000 N   0  0  0  0  0  0  0  0  0  0  0  0
    5.7921   -5.4222    0.0000 C   0  0  0  0  0  0  0  0  0  0  0  0
    4.9963   -5.6398    0.0000 C   0  0  0  0  0  0  0  0  0  0  0  0
    4.7868   -6.4377    0.0000 C   0  0  0  0  0  0  0  0  0  0  0  0
    5.3731   -7.0181    0.0000 C   0  0  0  0  0  0  0  0  0  0  0  0
    6.1689   -6.8006    0.0000 C   0  0  0  0  0  0  0  0  0  0  0  0
    7.1842   -7.7768    0.0000 C   0  0  0  0  0  0  0  0  0  0  0  0
    6.3863   -7.5673    0.0000 C   0  0  0  0  0  0  0  0  0  0  0  0
    3.9554   -9.7790    0.0000 O   0  0  0  0  0  0  0  0  0  0  0  0
    3.3116   -9.2630    0.0000 C   0  0  0  0  0  0  0  0  0  0  0  0
    3.6034   -8.4913    0.0000 O   0  0  0  0  0  0  0  0  0  0  0  0
    4.4275   -8.5304    0.0000 C   0  0  0  0  0  0  0  0  0  0  0  0
    4.6450   -9.3262    0.0000 C   0  0  0  0  0  0  0  0  0  0  0  0
    5.0079   -7.9441    0.0000 C   0  0  0  0  0  0  0  0  0  0  0  0
    5.8059   -8.1536    0.0000 C   0  0  0  0  0  0  0  0  0  0  0  0
    6.0234   -8.9494    0.0000 C   0  0  0  0  0  0  0  0  0  0  0  0
    5.4430   -9.5357    0.0000 C   0  0  0  0  0  0  0  0  0  0  0  0
   11.0164   -4.1497    0.0000 O   0  0  0  0  0  0  0  0  0  0  0  0
   11.6601   -4.6657    0.0000 C   0  0  0  0  0  0  0  0  0  0  0  0
   11.3684   -5.4374    0.0000 O   0  0  0  0  0  0  0  0  0  0  0  0
   10.5443   -5.3983    0.0000 C   0  0  0  0  0  0  0  0  0  0  0  0
   10.3268   -4.6025    0.0000 C   0  0  0  0  0  0  0  0  0  0  0  0
    9.9639   -5.9846    0.0000 C   0  0  0  0  0  0  0  0  0  0  0  0
    9.1659   -5.7751    0.0000 C   0  0  0  0  0  0  0  0  0  0  0  0
    8.9484   -4.9793    0.0000 C   0  0  0  0  0  0  0  0  0  0  0  0
    9.5288   -4.3930    0.0000 C   0  0  0  0  0  0  0  0  0  0  0  0
  1  2  1  0  0  0  0
  2  3  2  0  0  0  0
  1  4  2  0  0  0  0
  5  6  1  0  0  0  0
  6  7  1  0  0  0  0
  7  8  1  0  0  0  0
  8  9  1  0  0  0  0
  9 10  1  0  0  0  0
  5 10  1  0  0  0  0
  1  5  1  0  0  0  0
 11 12  1  0  0  0  0
 12 13  1  0  0  0  0
 13 14  1  0  0  0  0
 11 14  1  0  0  0  0
 15 16  2  0  0  0  0
 17 18  1  0  0  0  0
 18 19  1  0  0  0  0
 19 20  1  0  0  0  0
 20 21  1  0  0  0  0
 21 22  1  0  0  0  0
 17 22  1  0  0  0  0
 15 17  1  0  0  0  0
 13 15  1  6  0  0  0
 23 24  2  0  0  0  0
 25 26  1  0  0  0  0
 26 27  1  0  0  0  0
 27 28  1  0  0  0  0
 28 29  1  0  0  0  0
 25 29  1  0  0  0  0
 30 31  1  0  0  0  0
 31 32  2  0  0  0  0
 32 33  1  0  0  0  0
 33 29  2  0  0  0  0
 30 28  2  0  0  0  0
 24 31  1  0  0  0  0
 14 23  1  1  0  0  0
 34 35  1  0  0  0  0
 35 36  1  0  0  0  0
 36 37  1  0  0  0  0
 37 38  1  0  0  0  0
 34 38  1  0  0  0  0
 39 40  1  0  0  0  0
 40 41  2  0  0  0  0
 41 42  1  0  0  0  0
 42 38  2  0  0  0  0
 39 37  2  0  0  0  0
 12 40  1  1  0  0  0
 11  3  1  6  0  0  0
M  END
>  <cdx:groupId>
113698

>  <cdx:fragmentId>
113601

$$$$
