50833.cdx
  Mrv1902 05222410182D          

 23 24  0  0  0  0            999 V2000
    9.5021  -15.6029    0.0000 C   0  0  0  0  0  0  0  0  0  0  0  0
    7.9626  -13.5404    0.0000 C   0  0  0  0  0  0  0  0  0  0  0  0
    8.3751  -12.8259    0.0000 C   0  0  0  0  0  0  0  0  0  0  0  0
    7.3587  -16.0154    0.0000 O   0  0  0  0  0  0  0  0  0  0  0  0
    5.9297  -16.8404    0.0000 O   0  0  0  0  0  0  0  0  0  0  0  0
    4.5008  -16.0154    0.0000 O   0  0  0  0  0  0  0  0  0  0  0  0
    3.7863  -14.7779    0.0000 O   0  0  0  0  0  0  0  0  0  0  0  0
    4.5008  -14.3654    0.0000 C   0  0  0  0  0  0  0  0  0  0  0  0
    5.2153  -14.7779    0.0000 C   0  0  2  0  0  0  0  0  0  0  0  0
    5.2153  -15.6029    0.0000 C   0  0  2  0  0  0  0  0  0  0  0  0
    5.9297  -16.0154    0.0000 C   0  0  1  0  0  0  0  0  0  0  0  0
    6.6442  -15.6029    0.0000 C   0  0  2  0  0  0  0  0  0  0  0  0
    6.6442  -14.7779    0.0000 C   0  0  1  0  0  0  0  0  0  0  0  0
    5.9297  -14.3654    0.0000 O   0  0  0  0  0  0  0  0  0  0  0  0
    7.3587  -14.3654    0.0000 O   0  0  0  0  0  0  0  0  0  0  0  0
    8.0732  -14.7779    0.0000 C   0  0  0  0  0  0  0  0  0  0  0  0
   10.9310  -13.1279    0.0000 O   0  0  0  0  0  0  0  0  0  0  0  0
    9.5021  -13.1279    0.0000 C   0  0  0  0  0  0  0  0  0  0  0  0
    8.7876  -13.5404    0.0000 C   0  0  0  0  0  0  0  0  0  0  0  0
    8.7876  -14.3654    0.0000 C   0  0  2  0  0  0  0  0  0  0  0  0
    9.5021  -14.7779    0.0000 C   0  0  0  0  0  0  0  0  0  0  0  0
   10.2166  -14.3654    0.0000 C   0  0  0  0  0  0  0  0  0  0  0  0
   10.2166  -13.5404    0.0000 C   0  0  0  0  0  0  0  0  0  0  0  0
 21  1  1  0  0  0  0
 19  2  1  0  0  0  0
 19  3  1  0  0  0  0
 20 16  1  6  0  0  0
 16 15  1  0  0  0  0
 13 15  1  1  0  0  0
 12  4  1  6  0  0  0
 11  5  1  1  0  0  0
 10  6  1  6  0  0  0
  9  8  1  1  0  0  0
  8  7  1  0  0  0  0
 14  9  1  0  0  0  0
 10  9  1  0  0  0  0
 11 10  1  0  0  0  0
 12 11  1  0  0  0  0
 13 12  1  0  0  0  0
 14 13  1  0  0  0  0
 23 17  2  0  0  0  0
 23 18  1  0  0  0  0
 19 18  1  0  0  0  0
 20 19  1  0  0  0  0
 21 20  1  0  0  0  0
 22 21  2  0  0  0  0
 23 22  1  0  0  0  0
M  END
>  <cdx:fragmentId>
220281

$$$$
