50839.cdx
  Mrv1902 05222410262D          

 24 26  0  0  0  0            999 V2000
    9.4661  -10.1940    0.0000 C   0  0  0  0  0  0  0  0  0  0  0  0
   10.8951  -11.8440    0.0000 C   0  0  0  0  0  0  0  0  0  0  0  0
   10.1806  -11.4315    0.0000 C   0  0  0  0  0  0  0  0  0  0  0  0
   10.1806  -10.6065    0.0000 C   0  0  0  0  0  0  0  0  0  0  0  0
   10.8951  -10.1940    0.0000 C   0  0  0  0  0  0  0  0  0  0  0  0
   11.6096  -11.4315    0.0000 C   0  0  0  0  0  0  0  0  0  0  0  0
   11.6096  -10.6065    0.0000 C   0  0  0  0  0  0  0  0  0  0  0  0
   12.3942  -10.3515    0.0000 O   0  0  0  0  0  0  0  0  0  0  0  0
   12.8791  -11.0190    0.0000 C   0  0  0  0  0  0  0  0  0  0  0  0
   12.3942  -11.6864    0.0000 O   0  0  0  0  0  0  0  0  0  0  0  0
    2.2822  -10.2709    0.0000 C   0  0  0  0  0  0  0  0  0  0  0  0
    1.7302  -10.8840    0.0000 C   0  0  0  0  0  0  0  0  0  0  0  0
    2.1427  -11.5985    0.0000 C   0  0  0  0  0  0  0  0  0  0  0  0
    2.9497  -11.4270    0.0000 C   0  0  0  0  0  0  0  0  0  0  0  0
    3.0359  -10.6065    0.0000 N   0  0  0  0  0  0  0  0  0  0  0  0
    3.7504   -9.3690    0.0000 O   0  0  0  0  0  0  0  0  0  0  0  0
    8.7517  -10.6065    0.0000 C   0  0  0  0  0  0  0  0  0  0  0  0
    8.0372  -10.1940    0.0000 C   0  0  0  0  0  0  0  0  0  0  0  0
    7.3227  -10.6065    0.0000 C   0  0  0  0  0  0  0  0  0  0  0  0
    6.6083  -10.1940    0.0000 C   0  0  0  0  0  0  0  0  0  0  0  0
    5.8938  -10.6065    0.0000 C   0  0  0  0  0  0  0  0  0  0  0  0
    5.1793  -10.1940    0.0000 C   0  0  0  0  0  0  0  0  0  0  0  0
    4.4648  -10.6065    0.0000 C   0  0  0  0  0  0  0  0  0  0  0  0
    3.7504  -10.1940    0.0000 C   0  0  0  0  0  0  0  0  0  0  0  0
  5  7  2  0  0  0  0
  2  6  2  0  0  0  0
  3  2  1  0  0  0  0
  4  3  2  0  0  0  0
  5  4  1  0  0  0  0
 10  6  1  0  0  0  0
  7  6  1  0  0  0  0
  8  7  1  0  0  0  0
  9  8  1  0  0  0  0
 10  9  1  0  0  0  0
 24 15  1  0  0  0  0
 15 11  1  0  0  0  0
 12 11  1  0  0  0  0
 13 12  1  0  0  0  0
 14 13  1  0  0  0  0
 15 14  1  0  0  0  0
 24 16  2  0  0  0  0
 17  1  2  0  0  0  0
 18 17  1  0  0  0  0
 19 18  1  0  0  0  0
 20 19  1  0  0  0  0
 21 20  1  0  0  0  0
 22 21  1  0  0  0  0
 23 22  1  0  0  0  0
 24 23  1  0  0  0  0
  1  4  1  0  0  0  0
M  END
>  <cdx:fragmentId>
113837

$$$$
