508395.cdx
  Mrv1902 05222410282D          

 44 50  0  0  0  0            999 V2000
    8.8358   -8.9321    0.0000 C   0  0  0  0  0  0  0  0  0  0  0  0
    9.6295   -8.7069    0.0000 C   0  0  0  0  0  0  0  0  0  0  0  0
    9.8313   -7.9070    0.0000 C   0  0  0  0  0  0  0  0  0  0  0  0
    8.2440   -8.3574    0.0000 O   0  0  0  0  0  0  0  0  0  0  0  0
    8.6340   -9.7321    0.0000 N   0  0  0  0  0  0  0  0  0  0  0  0
    9.2259  -10.3068    0.0000 C   0  0  0  0  0  0  0  0  0  0  0  0
    9.0241  -11.1067    0.0000 C   0  0  0  0  0  0  0  0  0  0  0  0
    8.2304  -11.3319    0.0000 C   0  0  0  0  0  0  0  0  0  0  0  0
    7.6385  -10.7572    0.0000 C   0  0  0  0  0  0  0  0  0  0  0  0
    7.8404   -9.9573    0.0000 C   0  0  0  0  0  0  0  0  0  0  0  0
    9.2394   -7.3323    0.0000 C   0  0  1  0  0  0  0  0  0  0  0  0
    9.2273   -6.5073    0.0000 C   0  0  1  0  0  0  0  0  0  0  0  0
    8.4024   -6.5195    0.0000 C   0  0  2  0  0  0  0  0  0  0  0  0
    8.4145   -7.3444    0.0000 C   0  0  2  0  0  0  0  0  0  0  0  0
    7.8106   -5.9447    0.0000 C   0  0  0  0  0  0  0  0  0  0  0  0
    8.0124   -5.1448    0.0000 O   0  0  0  0  0  0  0  0  0  0  0  0
    7.0169   -6.1699    0.0000 N   0  0  0  0  0  0  0  0  0  0  0  0
    6.4250   -5.5952    0.0000 C   0  0  0  0  0  0  0  0  0  0  0  0
    5.6314   -5.8204    0.0000 C   0  0  0  0  0  0  0  0  0  0  0  0
    5.4296   -6.6203    0.0000 C   0  0  0  0  0  0  0  0  0  0  0  0
    6.0214   -7.1950    0.0000 C   0  0  0  0  0  0  0  0  0  0  0  0
    6.8151   -6.9699    0.0000 C   0  0  0  0  0  0  0  0  0  0  0  0
    7.8398   -7.9362    0.0000 C   0  0  0  0  0  0  0  0  0  0  0  0
    7.0399   -7.7344    0.0000 C   0  0  0  0  0  0  0  0  0  0  0  0
    6.4651   -8.3263    0.0000 C   0  0  0  0  0  0  0  0  0  0  0  0
    5.6652   -8.1245    0.0000 C   0  0  0  0  0  0  0  0  0  0  0  0
    3.2557  -10.3595    0.0000 O   0  0  0  0  0  0  0  0  0  0  0  0
    2.6070   -9.8498    0.0000 C   0  0  0  0  0  0  0  0  0  0  0  0
    2.8914   -9.0753    0.0000 O   0  0  0  0  0  0  0  0  0  0  0  0
    3.7158   -9.1064    0.0000 C   0  0  0  0  0  0  0  0  0  0  0  0
    3.9410   -9.9001    0.0000 C   0  0  0  0  0  0  0  0  0  0  0  0
    4.2905   -8.5145    0.0000 C   0  0  0  0  0  0  0  0  0  0  0  0
    5.0904   -8.7163    0.0000 C   0  0  0  0  0  0  0  0  0  0  0  0
    5.3156   -9.5100    0.0000 C   0  0  0  0  0  0  0  0  0  0  0  0
    4.7409  -10.1019    0.0000 C   0  0  0  0  0  0  0  0  0  0  0  0
   11.6368   -4.2723    0.0000 O   0  0  0  0  0  0  0  0  0  0  0  0
   12.2855   -4.7821    0.0000 C   0  0  0  0  0  0  0  0  0  0  0  0
   12.0012   -5.5565    0.0000 O   0  0  0  0  0  0  0  0  0  0  0  0
   11.1768   -5.5254    0.0000 C   0  0  0  0  0  0  0  0  0  0  0  0
   10.9516   -4.7318    0.0000 C   0  0  0  0  0  0  0  0  0  0  0  0
   10.6020   -6.1173    0.0000 C   0  0  0  0  0  0  0  0  0  0  0  0
    9.8021   -5.9155    0.0000 C   0  0  0  0  0  0  0  0  0  0  0  0
    9.5769   -5.1218    0.0000 C   0  0  0  0  0  0  0  0  0  0  0  0
   10.1516   -4.5300    0.0000 C   0  0  0  0  0  0  0  0  0  0  0  0
  1  2  1  0  0  0  0
  2  3  2  0  0  0  0
  1  4  2  0  0  0  0
  5  6  1  0  0  0  0
  6  7  1  0  0  0  0
  7  8  1  0  0  0  0
  8  9  1  0  0  0  0
  9 10  1  0  0  0  0
  5 10  1  0  0  0  0
  1  5  1  0  0  0  0
 11 12  1  0  0  0  0
 12 13  1  0  0  0  0
 13 14  1  0  0  0  0
 11 14  1  0  0  0  0
 15 16  2  0  0  0  0
 17 18  1  0  0  0  0
 18 19  1  0  0  0  0
 19 20  1  0  0  0  0
 20 21  1  0  0  0  0
 21 22  1  0  0  0  0
 17 22  1  0  0  0  0
 15 17  1  0  0  0  0
 13 15  1  6  0  0  0
 23 24  2  0  0  0  0
 24 25  1  0  0  0  0
 25 26  2  0  0  0  0
 27 28  1  0  0  0  0
 28 29  1  0  0  0  0
 29 30  1  0  0  0  0
 30 31  1  0  0  0  0
 27 31  1  0  0  0  0
 32 33  1  0  0  0  0
 33 34  2  0  0  0  0
 34 35  1  0  0  0  0
 35 31  2  0  0  0  0
 32 30  2  0  0  0  0
 26 33  1  0  0  0  0
 14 23  1  1  0  0  0
 36 37  1  0  0  0  0
 37 38  1  0  0  0  0
 38 39  1  0  0  0  0
 39 40  1  0  0  0  0
 36 40  1  0  0  0  0
 41 42  1  0  0  0  0
 42 43  2  0  0  0  0
 43 44  1  0  0  0  0
 44 40  2  0  0  0  0
 41 39  2  0  0  0  0
 12 42  1  1  0  0  0
 11  3  1  6  0  0  0
M  END
>  <cdx:groupId>
113551

>  <cdx:fragmentId>
113468

$$$$
