22508511.cdx
  Mrv1902 05222410222D          

 12 11  0  0  0  0            999 V2000
   11.1978  -14.2313    0.0000 C   0  0  0  0  0  0  0  0  0  0  0  0
   10.4834  -14.6438    0.0000 C   0  0  0  0  0  0  0  0  0  0  0  0
    9.7689  -14.2313    0.0000 C   0  0  0  0  0  0  0  0  0  0  0  0
    9.0544  -14.6438    0.0000 C   0  0  0  0  0  0  0  0  0  0  0  0
    8.3400  -14.2313    0.0000 C   0  0  0  0  0  0  0  0  0  0  0  0
    7.6255  -14.6438    0.0000 C   0  0  0  0  0  0  0  0  0  0  0  0
    6.9110  -14.2313    0.0000 C   0  0  0  0  0  0  0  0  0  0  0  0
    6.1965  -14.6438    0.0000 C   0  0  0  0  0  0  0  0  0  0  0  0
    5.4821  -14.2313    0.0000 C   0  0  0  0  0  0  0  0  0  0  0  0
    4.7676  -14.6438    0.0000 C   0  0  0  0  0  0  0  0  0  0  0  0
    4.0531  -14.2313    0.0000 C   0  0  0  0  0  0  0  0  0  0  0  0
    3.3387  -14.6437    0.0000 C   0  0  0  0  0  0  0  0  0  0  0  0
  1  2  2  0  0  0  0
  2  3  1  0  0  0  0
  3  4  1  0  0  0  0
  4  5  1  0  0  0  0
  5  6  1  0  0  0  0
  6  7  2  0  0  0  0
  7  8  1  0  0  0  0
  8  9  1  0  0  0  0
  9 10  1  0  0  0  0
 10 11  2  0  0  0  0
 11 12  1  0  0  0  0
M  END
>  <cdx:groupId>
142919

>  <cdx:fragmentId>
142887

$$$$
