22508510.cdx
  Mrv1902 05222410222D          

  8  9  0  0  0  0            999 V2000
    7.2682  -15.2625    0.0000 C   0  0  0  0  0  0  0  0  0  0  0  0
    6.9270  -14.7474    0.0000 O   0  0  0  0  0  0  0  0  0  0  0  0
    6.9270  -14.1286    0.0000 C   0  0  0  0  0  0  0  0  0  0  0  0
    7.2682  -13.6125    0.0000 C   0  0  0  0  0  0  0  0  0  0  0  0
    6.5538  -14.0250    0.0000 C   0  0  0  0  0  0  0  0  0  0  0  0
    6.5538  -14.8500    0.0000 C   0  0  0  0  0  0  0  0  0  0  0  0
    7.9827  -14.8500    0.0000 C   0  0  0  0  0  0  0  0  0  0  0  0
    7.9827  -14.0250    0.0000 C   0  0  0  0  0  0  0  0  0  0  0  0
  1  2  1  0  0  0  0
  2  3  1  0  0  0  0
  3  4  1  0  0  0  0
  4  5  1  0  0  0  0
  5  6  1  0  0  0  0
  7  8  1  0  0  0  0
  1  6  1  0  0  0  0
  1  7  1  0  0  0  0
  8  4  1  0  0  0  0
M  END
>  <cdx:groupId>
142882

>  <cdx:fragmentId>
142860

$$$$
