508688.cdx
  Mrv1902 05222410212D          

 25 26  0  0  0  0            999 V2000
    7.8482  -11.4924    0.0000 C   0  0  0  0  0  0  0  0  0  0  0  0
    8.3576  -10.1573    0.0000 O   0  0  0  0  0  0  0  0  0  0  0  0
    7.7175  -10.6778    0.0000 C   0  0  0  0  0  0  0  0  0  0  0  0
    8.4341   -7.7002    0.0000 O   0  0  0  0  0  0  0  0  0  0  0  0
    9.5464   -8.5973    0.0000 C   0  0  0  0  0  0  0  0  0  0  0  0
    8.7313   -8.4698    0.0000 C   0  0  0  0  0  0  0  0  0  0  0  0
    5.3459  -10.3969    0.0000 O   0  0  0  0  0  0  0  0  0  0  0  0
    5.3459   -9.5719    0.0000 C   0  0  0  0  0  0  0  0  0  0  0  0
    6.9467  -10.3836    0.0000 O   0  0  0  0  0  0  0  0  0  0  0  0
    8.2134   -9.1120    0.0000 O   0  0  0  0  0  0  0  0  0  0  0  0
    9.3397   -5.3069    0.0000 C   0  0  0  0  0  0  0  0  0  0  0  0
    8.5147   -5.3069    0.0000 O   0  0  0  0  0  0  0  0  0  0  0  0
    6.9447   -6.8234    0.0000 C   0  0  0  0  0  0  0  0  0  0  0  0
    7.3178   -6.0875    0.0000 C   0  0  0  0  0  0  0  0  0  0  0  0
    8.1416   -6.0427    0.0000 C   0  0  0  0  0  0  0  0  0  0  0  0
    8.5923   -6.7338    0.0000 C   0  0  0  0  0  0  0  0  0  0  0  0
    8.2192   -7.4696    0.0000 C   0  0  0  0  0  0  0  0  0  0  0  0
    7.3954   -7.5144    0.0000 C   0  0  0  0  0  0  0  0  0  0  0  0
    5.4104   -8.1689    0.0000 C   0  0  0  0  0  0  0  0  0  0  0  0
    5.9926   -7.5844    0.0000 C   0  0  0  0  0  0  0  0  0  0  0  0
    7.0223   -8.2502    0.0000 C   0  0  2  0  0  0  0  0  0  0  0  0
    7.3983   -8.9845    0.0000 C   0  0  2  0  0  0  0  0  0  0  0  0
    6.8161   -9.5691    0.0000 C   0  0  1  0  0  0  0  0  0  0  0  0
    6.0802   -9.1960    0.0000 C   0  0  2  0  0  0  0  0  0  0  0  0
    6.2077   -8.3809    0.0000 N   0  3  1  0  0  0  0  0  0  0  0  0
  3  1  1  0  0  0  0
  3  2  2  0  0  0  0
  9  3  1  0  0  0  0
  6  4  2  0  0  0  0
  6  5  1  0  0  0  0
 10  6  1  0  0  0  0
  8  7  1  0  0  0  0
 24  8  1  1  0  0  0
 23  9  1  6  0  0  0
 22 10  1  1  0  0  0
 21 18  1  6  0  0  0
 15 12  1  0  0  0  0
 12 11  1  0  0  0  0
 18 13  2  0  0  0  0
 14 13  1  0  0  0  0
 15 14  2  0  0  0  0
 16 15  1  0  0  0  0
 17 16  2  0  0  0  0
 18 17  1  0  0  0  0
 25 19  1  1  0  0  0
 25 20  1  6  0  0  0
 25 21  1  0  0  0  0
 22 21  1  0  0  0  0
 23 22  1  0  0  0  0
 24 23  1  0  0  0  0
 25 24  1  0  0  0  0
M  CHG  1  25   1
M  END
>  <cdx:fragmentId>
36002

$$$$
