508879.cdx
  Mrv1902 05222410212D          

 26 28  0  0  0  0            999 V2000
    9.6349   -7.9178    0.0000 C   0  0  0  0  0  0  0  0  0  0  0  0
    9.6276   -8.7428    0.0000 C   0  0  0  0  0  0  0  0  0  0  0  0
    8.9094   -9.1489    0.0000 C   0  0  0  0  0  0  0  0  0  0  0  0
   10.3530   -7.5117    0.0000 O   0  0  0  0  0  0  0  0  0  0  0  0
    8.9241   -7.4990    0.0000 O   0  0  0  0  0  0  0  0  0  0  0  0
    6.1690   -7.3349    0.0000 O   0  0  0  0  0  0  0  0  0  0  0  0
    6.5112   -6.5842    0.0000 C   0  0  0  0  0  0  0  0  0  0  0  0
    7.3309   -6.6778    0.0000 C   0  0  0  0  0  0  0  0  0  0  0  0
    7.4952   -7.4862    0.0000 C   0  0  0  0  0  0  0  0  0  0  0  0
    8.2060   -7.9051    0.0000 C   0  0  0  0  0  0  0  0  0  0  0  0
    8.1987   -8.7300    0.0000 C   0  0  0  0  0  0  0  0  0  0  0  0
    7.4806   -9.1362    0.0000 C   0  0  0  0  0  0  0  0  0  0  0  0
    6.7698   -8.7173    0.0000 C   0  0  0  0  0  0  0  0  0  0  0  0
    6.7771   -7.8924    0.0000 C   0  0  0  0  0  0  0  0  0  0  0  0
    7.4732   -9.9611    0.0000 O   0  0  0  0  0  0  0  0  0  0  0  0
    7.4585  -11.6111    0.0000 O   0  0  0  0  0  0  0  0  0  0  0  0
    6.0223  -12.4233    0.0000 O   0  0  0  0  0  0  0  0  0  0  0  0
    4.6008  -11.5856    0.0000 O   0  0  0  0  0  0  0  0  0  0  0  0
    3.8855  -10.3201    0.0000 O   0  0  0  0  0  0  0  0  0  0  0  0
    4.6154   -9.9357    0.0000 C   0  0  0  0  0  0  0  0  0  0  0  0
    5.3262  -10.3545    0.0000 C   0  0  2  0  0  0  0  0  0  0  0  0
    5.3189  -11.1795    0.0000 C   0  0  2  0  0  0  0  0  0  0  0  0
    6.0296  -11.5984    0.0000 C   0  0  1  0  0  0  0  0  0  0  0  0
    6.7478  -11.1922    0.0000 C   0  0  2  0  0  0  0  0  0  0  0  0
    6.7551  -10.3673    0.0000 C   0  0  1  0  0  0  0  0  0  0  0  0
    6.0443   -9.9484    0.0000 O   0  0  0  0  0  0  0  0  0  0  0  0
 25 15  1  1  0  0  0
 24 16  1  6  0  0  0
 23 17  1  1  0  0  0
 22 18  1  6  0  0  0
 21 20  1  1  0  0  0
 20 19  1  0  0  0  0
 26 21  1  0  0  0  0
 22 21  1  0  0  0  0
 23 22  1  0  0  0  0
 24 23  1  0  0  0  0
 25 24  1  0  0  0  0
 26 25  1  0  0  0  0
  1  2  1  0  0  0  0
  2  3  2  0  0  0  0
  1  4  2  0  0  0  0
  1  5  1  0  0  0  0
  6  7  1  0  0  0  0
  7  8  2  0  0  0  0
  8  9  1  0  0  0  0
  9 10  1  0  0  0  0
 10 11  2  0  0  0  0
 11 12  1  0  0  0  0
 12 13  2  0  0  0  0
 13 14  1  0  0  0  0
  9 14  2  0  0  0  0
  6 14  1  0  0  0  0
 12 15  1  0  0  0  0
  3 11  1  0  0  0  0
M  END
>  <cdx:groupId>
73473

>  <cdx:fragmentId>
73426

$$$$
