509245.cdx
  Mrv1902 05222410192D          

 25 27  0  0  0  0            999 V2000
    5.6097   -9.0549    0.0000 O   0  0  0  0  0  0  0  0  0  0  0  0
    4.2105   -6.5630    0.0000 O   0  0  0  0  0  0  0  0  0  0  0  0
   10.6551   -5.4026    0.0000 O   0  0  0  0  0  0  0  0  0  0  0  0
    8.5069   -5.7894    0.0000 C   0  0  0  0  0  0  0  0  0  0  0  0
    9.2263   -5.3854    0.0000 C   0  0  0  0  0  0  0  0  0  0  0  0
    9.9357   -5.8065    0.0000 C   0  0  0  0  0  0  0  0  0  0  0  0
    9.9259   -6.6314    0.0000 C   0  0  0  0  0  0  0  0  0  0  0  0
    9.2065   -7.0353    0.0000 C   0  0  0  0  0  0  0  0  0  0  0  0
    8.4970   -6.6143    0.0000 C   0  0  0  0  0  0  0  0  0  0  0  0
    4.2401   -4.0881    0.0000 C   0  0  0  0  0  0  0  0  0  0  0  0
    5.6690   -4.1052    0.0000 C   0  0  0  0  0  0  0  0  0  0  0  0
    4.9496   -4.5092    0.0000 C   0  0  0  0  0  0  0  0  0  0  0  0
    4.9397   -5.3341    0.0000 C   0  0  0  0  0  0  0  0  0  0  0  0
    5.6492   -5.7551    0.0000 C   0  0  0  0  0  0  0  0  0  0  0  0
    7.0385   -9.0720    0.0000 O   0  0  0  0  0  0  0  0  0  0  0  0
    7.0682   -6.5972    0.0000 O   0  0  0  0  0  0  0  0  0  0  0  0
    6.3488   -7.0011    0.0000 C   0  0  0  0  0  0  0  0  0  0  0  0
    5.6393   -6.5801    0.0000 C   0  0  0  0  0  0  0  0  0  0  0  0
    4.9200   -6.9840    0.0000 C   0  0  0  0  0  0  0  0  0  0  0  0
    4.9101   -7.8089    0.0000 C   0  0  0  0  0  0  0  0  0  0  0  0
    5.6196   -8.2299    0.0000 C   0  0  0  0  0  0  0  0  0  0  0  0
    6.3389   -7.8260    0.0000 C   0  0  0  0  0  0  0  0  0  0  0  0
    7.0484   -8.2471    0.0000 C   0  0  0  0  0  0  0  0  0  0  0  0
    7.7678   -7.8432    0.0000 C   0  0  0  0  0  0  0  0  0  0  0  0
    7.7777   -7.0182    0.0000 C   0  0  0  0  0  0  0  0  0  0  0  0
 21  1  1  0  0  0  0
 19  2  1  0  0  0  0
 25  9  1  0  0  0  0
  6  3  1  0  0  0  0
  9  4  2  0  0  0  0
  5  4  1  0  0  0  0
  6  5  2  0  0  0  0
  7  6  1  0  0  0  0
  8  7  2  0  0  0  0
  9  8  1  0  0  0  0
 18 14  1  0  0  0  0
 12 10  1  0  0  0  0
 12 11  1  0  0  0  0
 13 12  2  0  0  0  0
 14 13  1  0  0  0  0
 23 15  2  0  0  0  0
 25 16  1  0  0  0  0
 17 16  1  0  0  0  0
 22 17  2  0  0  0  0
 18 17  1  0  0  0  0
 19 18  2  0  0  0  0
 20 19  1  0  0  0  0
 21 20  2  0  0  0  0
 22 21  1  0  0  0  0
 23 22  1  0  0  0  0
 24 23  1  0  0  0  0
 25 24  1  0  0  0  0
M  END
>  <cdx:fragmentId>
5

$$$$
