509988.cdx
  Mrv1902 05222410232D          

 69 76  0  0  0  0            999 V2000
    7.2450  -11.6930    0.0000 O   0  0  0  0  0  0  0  0  0  0  0  0
    7.9595  -12.1055    0.0000 C   0  0  2  0  0  0  0  0  0  0  0  0
    7.9595  -12.9305    0.0000 C   0  0  1  0  0  0  0  0  0  0  0  0
    7.2450  -13.3430    0.0000 C   0  0  2  0  0  0  0  0  0  0  0  0
    6.5306  -12.9305    0.0000 C   0  0  1  0  0  0  0  0  0  0  0  0
    6.5306  -12.1055    0.0000 C   0  0  0  0  0  0  0  0  0  0  0  0
    8.6740  -13.3430    0.0000 O   0  0  0  0  0  0  0  0  0  0  0  0
    7.2450  -14.1680    0.0000 O   0  0  0  0  0  0  0  0  0  0  0  0
    5.8161  -13.3430    0.0000 O   0  0  0  0  0  0  0  0  0  0  0  0
    8.6740  -11.6930    0.0000 O   0  0  0  0  0  0  0  0  0  0  0  0
    9.3884   -9.6305    0.0000 O   0  0  0  0  0  0  0  0  0  0  0  0
    9.3884  -10.4555    0.0000 C   0  0  2  0  0  0  0  0  0  0  0  0
    8.6740  -10.8680    0.0000 C   0  0  1  0  0  0  0  0  0  0  0  0
    7.9595  -10.4555    0.0000 C   0  0  2  0  0  0  0  0  0  0  0  0
    7.9595   -9.6305    0.0000 C   0  0  1  0  0  0  0  0  0  0  0  0
    8.6740   -9.2180    0.0000 C   0  0  1  0  0  0  0  0  0  0  0  0
    8.6740   -8.3930    0.0000 C   0  0  0  0  0  0  0  0  0  0  0  0
    7.9595   -7.9805    0.0000 O   0  0  0  0  0  0  0  0  0  0  0  0
    7.2450   -9.2180    0.0000 O   0  0  0  0  0  0  0  0  0  0  0  0
    7.2450  -10.8680    0.0000 O   0  0  0  0  0  0  0  0  0  0  0  0
   10.1029  -10.8680    0.0000 O   0  0  0  0  0  0  0  0  0  0  0  0
   13.6753   -9.6305    0.0000 C   0  0  1  0  0  0  0  0  0  0  0  0
   14.3897   -9.2180    0.0000 C   0  0  2  0  0  0  0  0  0  0  0  0
   15.1744   -9.4729    0.0000 C   0  0  0  0  0  0  0  0  0  0  0  0
   15.6593   -8.8055    0.0000 C   0  0  2  0  0  0  0  0  0  0  0  0
   16.4439   -8.5506    0.0000 O   0  0  0  0  0  0  0  0  0  0  0  0
   16.4439   -7.7256    0.0000 C   0  0  0  0  0  0  0  0  0  0  0  0
   15.6593   -7.4706    0.0000 C   0  0  2  0  0  0  0  0  0  0  0  0
   15.1744   -8.1381    0.0000 C   0  0  2  0  0  0  0  0  0  0  0  0
   14.3897   -8.3930    0.0000 C   0  0  1  0  0  0  0  0  0  0  0  0
   13.6753   -7.9805    0.0000 C   0  0  0  0  0  0  0  0  0  0  0  0
   12.9608   -8.3930    0.0000 C   0  0  0  0  0  0  0  0  0  0  0  0
   12.9608   -9.2180    0.0000 C   0  0  2  0  0  0  0  0  0  0  0  0
   12.2463   -9.6305    0.0000 C   0  0  1  0  0  0  0  0  0  0  0  0
   11.5319   -9.2180    0.0000 C   0  0  0  0  0  0  0  0  0  0  0  0
   10.8174   -9.6305    0.0000 C   0  0  2  0  0  0  0  0  0  0  0  0
   10.8174  -10.4555    0.0000 C   0  0  1  0  0  0  0  0  0  0  0  0
   11.5319  -10.8680    0.0000 C   0  0  0  0  0  0  0  0  0  0  0  0
   12.2463  -10.4555    0.0000 C   0  0  2  0  0  0  0  0  0  0  0  0
   12.9608  -10.8680    0.0000 C   0  0  0  0  0  0  0  0  0  0  0  0
   13.6753  -10.4555    0.0000 C   0  0  0  0  0  0  0  0  0  0  0  0
   17.2644   -7.6393    0.0000 C   0  0  0  0  0  0  0  0  0  0  0  0
   17.7493   -8.3068    0.0000 C   0  0  0  0  0  0  0  0  0  0  0  0
   18.5698   -8.2205    0.0000 C   0  0  2  0  0  0  0  0  0  0  0  0
   19.0547   -8.8880    0.0000 C   0  0  0  0  0  0  0  0  0  0  0  0
   18.9053   -7.4668    0.0000 C   0  0  0  0  0  0  0  0  0  0  0  0
   12.2463   -8.8055    0.0000 C   0  0  0  0  0  0  0  0  0  0  0  0
   14.3897   -7.5680    0.0000 C   0  0  0  0  0  0  0  0  0  0  0  0
   15.4043   -6.6860    0.0000 C   0  0  0  0  0  0  0  0  0  0  0  0
   10.1029   -9.2180    0.0000 O   0  0  0  0  0  0  0  0  0  0  0  0
   16.7795   -6.9719    0.0000 O   0  0  0  0  0  0  0  0  0  0  0  0
   13.6753   -8.8055    0.0000 H   0  0  0  0  0  0  0  0  0  0  0  0
   14.3897  -10.0430    0.0000 H   0  0  0  0  0  0  0  0  0  0  0  0
   16.1442   -9.4729    0.0000 H   0  0  0  0  0  0  0  0  0  0  0  0
   14.8127   -7.3966    0.0000 H   0  0  0  0  0  0  0  0  0  0  0  0
   12.9608  -10.0430    0.0000 H   0  0  0  0  0  0  0  0  0  0  0  0
   12.2463  -11.2805    0.0000 H   0  0  0  0  0  0  0  0  0  0  0  0
   21.5251   -8.7847    0.0000 O   0  0  0  0  0  0  0  0  0  0  0  0
   22.3648  -10.2051    0.0000 O   0  0  0  0  0  0  0  0  0  0  0  0
   21.5545  -11.6425    0.0000 O   0  0  0  0  0  0  0  0  0  0  0  0
   20.3244  -12.3696    0.0000 O   0  0  0  0  0  0  0  0  0  0  0  0
   19.9046  -11.6595    0.0000 C   0  0  0  0  0  0  0  0  0  0  0  0
   20.3097  -10.9408    0.0000 C   0  0  2  0  0  0  0  0  0  0  0  0
   21.1347  -10.9323    0.0000 C   0  0  2  0  0  0  0  0  0  0  0  0
   21.5398  -10.2136    0.0000 C   0  0  1  0  0  0  0  0  0  0  0  0
   21.1200   -9.5034    0.0000 C   0  0  2  0  0  0  0  0  0  0  0  0
   20.2950   -9.5119    0.0000 C   0  0  1  0  0  0  0  0  0  0  0  0
   19.8899  -10.2306    0.0000 O   0  0  0  0  0  0  0  0  0  0  0  0
   19.8752   -8.8017    0.0000 O   0  0  0  0  0  0  0  0  0  0  0  0
 67 69  1  1  0  0  0
 66 58  1  6  0  0  0
 65 59  1  1  0  0  0
 64 60  1  6  0  0  0
 63 62  1  1  0  0  0
 62 61  1  0  0  0  0
 68 63  1  0  0  0  0
 64 63  1  0  0  0  0
 65 64  1  0  0  0  0
 66 65  1  0  0  0  0
 67 66  1  0  0  0  0
 68 67  1  0  0  0  0
  1  2  1  0  0  0  0
  2  3  1  0  0  0  0
  3  4  1  0  0  0  0
  4  5  1  0  0  0  0
  5  6  1  0  0  0  0
  1  6  1  0  0  0  0
  3  7  1  6  0  0  0
  4  8  1  1  0  0  0
  5  9  1  6  0  0  0
 11 12  1  0  0  0  0
 12 13  1  0  0  0  0
 13 14  1  0  0  0  0
 14 15  1  0  0  0  0
 15 16  1  0  0  0  0
 11 16  1  0  0  0  0
 17 18  1  0  0  0  0
 16 17  1  1  0  0  0
 15 19  1  6  0  0  0
 14 20  1  1  0  0  0
 22 23  1  0  0  0  0
 23 24  1  0  0  0  0
 24 25  1  0  0  0  0
 25 26  1  0  0  0  0
 26 27  1  0  0  0  0
 27 28  1  0  0  0  0
 28 29  1  0  0  0  0
 29 30  1  0  0  0  0
 30 31  1  0  0  0  0
 31 32  1  0  0  0  0
 32 33  1  0  0  0  0
 33 34  1  0  0  0  0
 34 35  1  0  0  0  0
 35 36  1  0  0  0  0
 36 37  1  0  0  0  0
 37 38  1  0  0  0  0
 38 39  1  0  0  0  0
 39 40  1  0  0  0  0
 40 41  1  0  0  0  0
 22 41  1  0  0  0  0
 22 33  1  0  0  0  0
 34 39  1  0  0  0  0
 23 30  1  0  0  0  0
 25 29  1  0  0  0  0
 42 43  1  0  0  0  0
 43 44  1  0  0  0  0
 44 45  1  0  0  0  0
 45 69  1  0  0  0  0
 44 46  1  1  0  0  0
 27 42  1  0  0  0  0
 34 47  1  1  0  0  0
 30 48  1  1  0  0  0
 28 49  1  6  0  0  0
 36 50  1  6  0  0  0
 27 51  1  0  0  0  0
 37 21  1  1  0  0  0
 12 21  1  1  0  0  0
 13 10  1  6  0  0  0
  2 10  1  1  0  0  0
 22 52  1  1  0  0  0
 23 53  1  6  0  0  0
 25 54  1  6  0  0  0
 29 55  1  6  0  0  0
 33 56  1  6  0  0  0
 39 57  1  6  0  0  0
M  END
>  <cdx:fragmentId>
60899

$$$$
