51002.cdx
  Mrv1902 05222410252D          

 36 40  0  0  0  0            999 V2000
    3.7680   -6.6825    0.0000 C   0  0  0  0  0  0  0  0  0  0  0  0
    3.7680   -7.5075    0.0000 C   0  0  0  0  0  0  0  0  0  0  0  0
    4.4825   -7.9200    0.0000 C   0  0  2  0  0  0  0  0  0  0  0  0
    5.1970   -7.5075    0.0000 C   0  0  1  0  0  0  0  0  0  0  0  0
    5.1970   -6.6825    0.0000 C   0  0  2  0  0  0  0  0  0  0  0  0
    4.4825   -6.2700    0.0000 C   0  0  0  0  0  0  0  0  0  0  0  0
    5.9114   -7.9200    0.0000 C   0  0  0  0  0  0  0  0  0  0  0  0
    6.6259   -7.5075    0.0000 C   0  0  2  0  0  0  0  0  0  0  0  0
    6.6259   -6.6825    0.0000 C   0  0  2  0  0  0  0  0  0  0  0  0
    5.9114   -6.2700    0.0000 C   0  0  2  0  0  0  0  0  0  0  0  0
    7.3404   -7.9200    0.0000 O   0  0  0  0  0  0  0  0  0  0  0  0
    8.0549   -7.5075    0.0000 C   0  0  0  0  0  0  0  0  0  0  0  0
    8.0549   -6.6825    0.0000 C   0  0  0  0  0  0  0  0  0  0  0  0
    7.3404   -6.2700    0.0000 C   0  0  1  0  0  0  0  0  0  0  0  0
    7.3404   -5.4450    0.0000 C   0  0  2  0  0  0  0  0  0  0  0  0
    6.6259   -5.0325    0.0000 C   0  0  1  0  0  0  0  0  0  0  0  0
    5.9114   -5.4450    0.0000 C   0  0  1  0  0  0  0  0  0  0  0  0
    6.4544   -4.2255    0.0000 O   0  0  0  0  0  0  0  0  0  0  0  0
    5.6339   -4.1393    0.0000 C   0  0  0  0  0  0  0  0  0  0  0  0
    5.2983   -4.8930    0.0000 O   0  0  0  0  0  0  0  0  0  0  0  0
    4.4825   -5.4450    0.0000 O   0  0  0  0  0  0  0  0  0  0  0  0
    4.4825   -8.7450    0.0000 C   0  0  0  0  0  0  0  0  0  0  0  0
    3.0536   -6.2700    0.0000 O   0  0  0  0  0  0  0  0  0  0  0  0
    2.3391   -6.6825    0.0000 C   0  0  0  0  0  0  0  0  0  0  0  0
    5.1970   -5.8575    0.0000 C   0  0  0  0  0  0  0  0  0  0  0  0
    5.1970   -8.3325    0.0000 H   0  0  0  0  0  0  0  0  0  0  0  0
    5.9114   -7.0950    0.0000 H   0  0  0  0  0  0  0  0  0  0  0  0
    6.6259   -5.8575    0.0000 C   0  0  0  0  0  0  0  0  0  0  0  0
    6.6259   -8.3325    0.0000 H   0  0  0  0  0  0  0  0  0  0  0  0
    7.3404   -7.0950    0.0000 H   0  0  0  0  0  0  0  0  0  0  0  0
    8.7693   -7.9200    0.0000 O   0  0  0  0  0  0  0  0  0  0  0  0
    8.1373   -5.6585    0.0000 C   0  0  0  0  0  0  0  0  0  0  0  0
    7.9237   -4.8616    0.0000 O   0  0  0  0  0  0  0  0  0  0  0  0
    8.7206   -5.0752    0.0000 C   0  0  0  0  0  0  0  0  0  0  0  0
    9.3040   -4.4918    0.0000 C   0  0  0  0  0  0  0  0  0  0  0  0
    8.9342   -5.8721    0.0000 O   0  0  0  0  0  0  0  0  0  0  0  0
  1  2  2  0  0  0  0
  2  3  1  0  0  0  0
  3  4  1  0  0  0  0
  4  5  1  0  0  0  0
  5  6  1  0  0  0  0
  6  1  1  0  0  0  0
  4  7  1  0  0  0  0
  7  8  1  0  0  0  0
  8  9  1  0  0  0  0
  9 10  1  0  0  0  0
 10  5  1  0  0  0  0
  8 11  1  0  0  0  0
 11 12  1  0  0  0  0
 12 13  1  0  0  0  0
 13 14  1  0  0  0  0
 14  9  1  0  0  0  0
 14 15  1  0  0  0  0
 15 16  1  0  0  0  0
 16 17  1  0  0  0  0
 17 10  1  0  0  0  0
 16 18  1  1  0  0  0
 18 19  1  0  0  0  0
 19 20  1  0  0  0  0
 17 20  1  6  0  0  0
  6 21  2  0  0  0  0
  3 22  1  6  0  0  0
  1 23  1  0  0  0  0
 23 24  1  0  0  0  0
  5 25  1  1  0  0  0
  4 26  1  6  0  0  0
 10 27  1  6  0  0  0
  9 28  1  1  0  0  0
  8 29  1  1  0  0  0
 14 30  1  1  0  0  0
 12 31  2  0  0  0  0
 15 32  1  6  0  0  0
 15 33  1  0  0  0  0
 33 34  1  0  0  0  0
 34 35  1  0  0  0  0
 34 36  2  0  0  0  0
M  END
>  <cdx:fragmentId>
469

$$$$
