51010.cdx
  Mrv1902 05222410232D          

 37 40  0  0  0  0            999 V2000
    3.7680   -6.6825    0.0000 C   0  0  0  0  0  0  0  0  0  0  0  0
    3.7680   -7.5075    0.0000 C   0  0  0  0  0  0  0  0  0  0  0  0
    4.4825   -7.9200    0.0000 C   0  0  2  0  0  0  0  0  0  0  0  0
    5.1970   -7.5075    0.0000 C   0  0  1  0  0  0  0  0  0  0  0  0
    5.1970   -6.6825    0.0000 C   0  0  2  0  0  0  0  0  0  0  0  0
    4.4825   -6.2700    0.0000 C   0  0  0  0  0  0  0  0  0  0  0  0
    5.9114   -7.9200    0.0000 C   0  0  0  0  0  0  0  0  0  0  0  0
    6.6259   -7.5075    0.0000 C   0  0  2  0  0  0  0  0  0  0  0  0
    6.6259   -6.6825    0.0000 C   0  0  2  0  0  0  0  0  0  0  0  0
    5.9114   -6.2700    0.0000 C   0  0  2  0  0  0  0  0  0  0  0  0
    7.3404   -7.9200    0.0000 O   0  0  0  0  0  0  0  0  0  0  0  0
    8.0549   -7.5075    0.0000 C   0  0  0  0  0  0  0  0  0  0  0  0
    8.0549   -6.6825    0.0000 C   0  0  0  0  0  0  0  0  0  0  0  0
    7.3404   -6.2700    0.0000 C   0  0  1  0  0  0  0  0  0  0  0  0
    7.3404   -5.4450    0.0000 C   0  0  2  0  0  0  0  0  0  0  0  0
    6.6259   -5.0325    0.0000 C   0  0  1  0  0  0  0  0  0  0  0  0
    5.9114   -5.4450    0.0000 C   0  0  1  0  0  0  0  0  0  0  0  0
    4.4825   -5.4450    0.0000 O   0  0  0  0  0  0  0  0  0  0  0  0
    4.4825   -8.7450    0.0000 C   0  0  0  0  0  0  0  0  0  0  0  0
    3.0536   -6.2700    0.0000 O   0  0  0  0  0  0  0  0  0  0  0  0
    2.3391   -6.6825    0.0000 C   0  0  0  0  0  0  0  0  0  0  0  0
    5.1970   -5.8575    0.0000 C   0  0  0  0  0  0  0  0  0  0  0  0
    5.1970   -8.3325    0.0000 H   0  0  0  0  0  0  0  0  0  0  0  0
    5.9114   -7.0950    0.0000 H   0  0  0  0  0  0  0  0  0  0  0  0
    6.6259   -5.8575    0.0000 C   0  0  0  0  0  0  0  0  0  0  0  0
    6.6259   -8.3325    0.0000 H   0  0  0  0  0  0  0  0  0  0  0  0
    7.3404   -7.0950    0.0000 H   0  0  0  0  0  0  0  0  0  0  0  0
    8.7693   -7.9200    0.0000 O   0  0  0  0  0  0  0  0  0  0  0  0
    8.0549   -5.0325    0.0000 C   0  0  0  0  0  0  0  0  0  0  0  0
    5.1970   -5.0325    0.0000 O   0  0  0  0  0  0  0  0  0  0  0  0
    8.0549   -4.2075    0.0000 C   0  0  0  0  0  0  0  0  0  0  0  0
    7.3404   -2.9700    0.0000 O   0  0  0  0  0  0  0  0  0  0  0  0
    7.3404   -3.7950    0.0000 C   0  0  0  0  0  0  0  0  0  0  0  0
    6.6259   -4.2075    0.0000 O   0  0  0  0  0  0  0  0  0  0  0  0
    5.1970   -4.2075    0.0000 C   0  0  0  0  0  0  0  0  0  0  0  0
    4.4825   -3.7950    0.0000 C   0  0  0  0  0  0  0  0  0  0  0  0
    5.9114   -3.7950    0.0000 O   0  0  0  0  0  0  0  0  0  0  0  0
  1  2  2  0  0  0  0
  2  3  1  0  0  0  0
  3  4  1  0  0  0  0
  4  5  1  0  0  0  0
  5  6  1  0  0  0  0
  6  1  1  0  0  0  0
  4  7  1  0  0  0  0
  7  8  1  0  0  0  0
  8  9  1  0  0  0  0
  9 10  1  0  0  0  0
 10  5  1  0  0  0  0
  8 11  1  0  0  0  0
 11 12  1  0  0  0  0
 12 13  1  0  0  0  0
 13 14  1  0  0  0  0
 14  9  1  0  0  0  0
 14 15  1  0  0  0  0
 15 16  1  0  0  0  0
 16 17  1  0  0  0  0
 17 10  1  0  0  0  0
  6 18  2  0  0  0  0
  3 19  1  6  0  0  0
  1 20  1  0  0  0  0
 20 21  1  0  0  0  0
  5 22  1  1  0  0  0
  4 23  1  6  0  0  0
 10 24  1  6  0  0  0
  9 25  1  1  0  0  0
  8 26  1  1  0  0  0
 14 27  1  1  0  0  0
 12 28  2  0  0  0  0
 15 29  1  6  0  0  0
 33 31  1  0  0  0  0
 16 34  1  1  0  0  0
 17 30  1  6  0  0  0
 33 32  2  0  0  0  0
 34 33  1  0  0  0  0
 30 35  1  0  0  0  0
 35 36  1  0  0  0  0
 35 37  2  0  0  0  0
M  END
>  <cdx:fragmentId>
469

$$$$
