102510329.cdx
  Mrv1902 05222410202D          

 23 24  0  0  0  0            999 V2000
    9.3869  -15.3807    0.0000 C   0  0  0  0  0  0  0  0  0  0  0  0
    8.6724  -15.7932    0.0000 C   0  0  0  0  0  0  0  0  0  0  0  0
    7.9580  -15.3807    0.0000 C   0  0  0  0  0  0  0  0  0  0  0  0
    7.9580  -14.5557    0.0000 C   0  0  0  0  0  0  0  0  0  0  0  0
    8.6724  -14.1432    0.0000 C   0  0  0  0  0  0  0  0  0  0  0  0
    9.3869  -14.5557    0.0000 C   0  0  0  0  0  0  0  0  0  0  0  0
   10.1014  -15.7932    0.0000 O   0  0  0  0  0  0  0  0  0  0  0  0
    8.6724  -16.6182    0.0000 O   0  0  0  0  0  0  0  0  0  0  0  0
   10.1014  -13.3182    0.0000 C   0  0  0  0  0  0  0  0  0  0  0  0
   10.1014  -14.1432    0.0000 C   0  0  0  0  0  0  0  0  0  0  0  0
   10.8159  -14.5557    0.0000 C   0  0  0  0  0  0  0  0  0  0  0  0
    7.2435  -15.7932    0.0000 C   0  0  0  0  0  0  0  0  0  0  0  0
    6.5290  -15.3807    0.0000 C   0  0  0  0  0  0  0  0  0  0  0  0
    5.8146  -15.7932    0.0000 C   0  0  0  0  0  0  0  0  0  0  0  0
    5.1001  -15.3807    0.0000 C   0  0  0  0  0  0  0  0  0  0  0  0
    5.1001  -14.5557    0.0000 C   0  0  0  0  0  0  0  0  0  0  0  0
    5.8146  -14.1432    0.0000 C   0  0  0  0  0  0  0  0  0  0  0  0
    6.5290  -14.5557    0.0000 C   0  0  0  0  0  0  0  0  0  0  0  0
    4.3856  -13.3182    0.0000 C   0  0  0  0  0  0  0  0  0  0  0  0
    4.3856  -14.1432    0.0000 C   0  0  0  0  0  0  0  0  0  0  0  0
    3.6711  -14.5557    0.0000 C   0  0  0  0  0  0  0  0  0  0  0  0
    4.3856  -15.7932    0.0000 O   0  0  0  0  0  0  0  0  0  0  0  0
    5.8146  -16.6182    0.0000 O   0  0  0  0  0  0  0  0  0  0  0  0
  1  2  1  0  0  0  0
  2  3  2  0  0  0  0
  3  4  1  0  0  0  0
  4  5  2  0  0  0  0
  5  6  1  0  0  0  0
  1  6  2  0  0  0  0
  1  7  1  0  0  0  0
  2  8  1  0  0  0  0
  9 10  1  0  0  0  0
 10 11  1  0  0  0  0
  6 10  1  0  0  0  0
 13 14  1  0  0  0  0
 14 15  2  0  0  0  0
 15 16  1  0  0  0  0
 16 17  2  0  0  0  0
 17 18  1  0  0  0  0
 13 18  2  0  0  0  0
 19 20  1  0  0  0  0
 20 21  1  0  0  0  0
 16 20  1  0  0  0  0
 15 22  1  0  0  0  0
 14 23  1  0  0  0  0
 12 13  1  0  0  0  0
  3 12  1  0  0  0  0
M  END
>  <cdx:groupId>
40908

>  <cdx:fragmentId>
40865

$$$$
