51042.cdx
  Mrv1902 05222410202D          

 40 44  0  0  0  0            999 V2000
    4.1574   -9.5425    0.0000 C   0  0  0  0  0  0  0  0  0  0  0  0
    4.1574  -10.3675    0.0000 C   0  0  0  0  0  0  0  0  0  0  0  0
    4.8719  -10.7800    0.0000 C   0  0  0  0  0  0  0  0  0  0  0  0
    5.5864  -10.3675    0.0000 C   0  0  1  0  0  0  0  0  0  0  0  0
    5.5864   -9.5425    0.0000 C   0  0  2  0  0  0  0  0  0  0  0  0
    4.8719   -9.1300    0.0000 C   0  0  0  0  0  0  0  0  0  0  0  0
    6.3008  -10.7800    0.0000 C   0  0  0  0  0  0  0  0  0  0  0  0
    7.0153  -10.3675    0.0000 C   0  0  0  0  0  0  0  0  0  0  0  0
    7.0153   -9.5425    0.0000 C   0  0  0  0  0  0  0  0  0  0  0  0
    6.3008   -9.1300    0.0000 C   0  0  2  0  0  0  0  0  0  0  0  0
    7.7298   -9.1300    0.0000 C   0  0  1  0  0  0  0  0  0  0  0  0
    7.7298   -8.3050    0.0000 C   0  0  2  0  0  0  0  0  0  0  0  0
    7.0153   -7.8925    0.0000 C   0  0  0  0  0  0  0  0  0  0  0  0
    6.3008   -8.3050    0.0000 C   0  0  0  0  0  0  0  0  0  0  0  0
    3.4430  -10.7800    0.0000 O   0  0  0  0  0  0  0  0  0  0  0  0
    4.4594  -11.4945    0.0000 C   0  0  0  0  0  0  0  0  0  0  0  0
    5.2844  -11.4945    0.0000 C   0  0  0  0  0  0  0  0  0  0  0  0
    7.7298   -9.9550    0.0000 C   0  0  0  0  0  0  0  0  0  0  0  0
    5.5864   -8.7175    0.0000 C   0  0  0  0  0  0  0  0  0  0  0  0
    5.5864  -11.1925    0.0000 H   0  0  0  0  0  0  0  0  0  0  0  0
    6.3008   -9.9550    0.0000 H   0  0  0  0  0  0  0  0  0  0  0  0
    7.7298   -7.4800    0.0000 C   0  0  0  0  0  0  0  0  0  0  0  0
    8.5144   -9.3849    0.0000 C   0  0  0  0  0  0  0  0  0  0  0  0
    8.9993   -8.7175    0.0000 C   0  0  0  0  0  0  0  0  0  0  0  0
    8.5144   -8.0501    0.0000 C   0  0  1  0  0  0  0  0  0  0  0  0
    8.7693   -7.2654    0.0000 C   0  0  2  0  0  0  0  0  0  0  0  0
    9.5540   -7.0105    0.0000 C   0  0  0  0  0  0  0  0  0  0  0  0
    9.5540   -6.1855    0.0000 C   0  0  2  0  0  0  0  0  0  0  0  0
    8.7693   -5.9306    0.0000 O   0  0  0  0  0  0  0  0  0  0  0  0
    8.2844   -6.5980    0.0000 C   0  0  2  0  0  0  0  0  0  0  0  0
    7.4594   -6.5980    0.0000 O   0  0  0  0  0  0  0  0  0  0  0  0
   10.2214   -5.7006    0.0000 C   0  0  1  0  0  0  0  0  0  0  0  0
   10.9751   -6.0361    0.0000 C   0  0  0  0  0  0  0  0  0  0  0  0
   10.1352   -4.8801    0.0000 O   0  0  0  0  0  0  0  0  0  0  0  0
   11.6896   -6.4486    0.0000 O   0  0  0  0  0  0  0  0  0  0  0  0
   10.9751   -6.8611    0.0000 C   0  0  0  0  0  0  0  0  0  0  0  0
   11.5584   -5.4528    0.0000 C   0  0  0  0  0  0  0  0  0  0  0  0
   10.3509   -6.3990    0.0000 H   0  0  0  0  0  0  0  0  0  0  0  0
    9.3113   -8.2636    0.0000 H   0  0  0  0  0  0  0  0  0  0  0  0
    9.4838   -7.6779    0.0000 H   0  0  0  0  0  0  0  0  0  0  0  0
  1  2  1  0  0  0  0
  2  3  1  0  0  0  0
  3  4  1  0  0  0  0
  4  5  1  0  0  0  0
  5  6  1  0  0  0  0
  6  1  1  0  0  0  0
  4  7  1  0  0  0  0
  7  8  1  0  0  0  0
  8  9  2  0  0  0  0
  9 10  1  0  0  0  0
 10  5  1  0  0  0  0
  9 11  1  0  0  0  0
 11 12  1  0  0  0  0
 12 13  1  0  0  0  0
 13 14  1  0  0  0  0
 14 10  1  0  0  0  0
  2 15  2  0  0  0  0
  3 16  1  0  0  0  0
  3 17  1  0  0  0  0
 11 18  1  1  0  0  0
  5 19  1  1  0  0  0
  4 20  1  6  0  0  0
 10 21  1  6  0  0  0
 12 22  1  6  0  0  0
 11 23  1  0  0  0  0
 23 24  1  0  0  0  0
 24 25  1  0  0  0  0
 25 12  1  0  0  0  0
 25 26  1  0  0  0  0
 26 27  1  0  0  0  0
 27 28  1  0  0  0  0
 28 29  1  0  0  0  0
 29 30  1  0  0  0  0
 30 26  1  0  0  0  0
 30 31  1  1  0  0  0
 28 32  1  0  0  0  0
 32 33  1  0  0  0  0
 32 34  1  6  0  0  0
 33 35  1  0  0  0  0
 33 36  1  0  0  0  0
 33 37  1  0  0  0  0
 28 38  1  1  0  0  0
 25 39  1  1  0  0  0
 26 40  1  6  0  0  0
M  END
>  <cdx:fragmentId>
5

$$$$
