51053.cdx
  Mrv1902 05222410182D          

 39 43  0  0  0  0            999 V2000
    4.1574   -9.5425    0.0000 C   0  0  0  0  0  0  0  0  0  0  0  0
    4.1574  -10.3675    0.0000 C   0  0  1  0  0  0  0  0  0  0  0  0
    4.8719  -10.7800    0.0000 C   0  0  0  0  0  0  0  0  0  0  0  0
    5.5864  -10.3675    0.0000 C   0  0  1  0  0  0  0  0  0  0  0  0
    5.5864   -9.5425    0.0000 C   0  0  2  0  0  0  0  0  0  0  0  0
    4.8719   -9.1300    0.0000 C   0  0  0  0  0  0  0  0  0  0  0  0
    6.3008  -10.7800    0.0000 C   0  0  0  0  0  0  0  0  0  0  0  0
    7.0153  -10.3675    0.0000 C   0  0  0  0  0  0  0  0  0  0  0  0
    7.0153   -9.5425    0.0000 C   0  0  0  0  0  0  0  0  0  0  0  0
    6.3008   -9.1300    0.0000 C   0  0  2  0  0  0  0  0  0  0  0  0
    7.7298   -9.1300    0.0000 C   0  0  1  0  0  0  0  0  0  0  0  0
    7.7298   -8.3050    0.0000 C   0  0  2  0  0  0  0  0  0  0  0  0
    7.0153   -7.8925    0.0000 C   0  0  0  0  0  0  0  0  0  0  0  0
    6.3008   -8.3050    0.0000 C   0  0  0  0  0  0  0  0  0  0  0  0
    3.4430  -10.7800    0.0000 O   0  0  0  0  0  0  0  0  0  0  0  0
    4.4594  -11.4945    0.0000 C   0  0  0  0  0  0  0  0  0  0  0  0
    5.2844  -11.4945    0.0000 C   0  0  0  0  0  0  0  0  0  0  0  0
    7.7298   -9.9550    0.0000 C   0  0  0  0  0  0  0  0  0  0  0  0
    5.5864   -8.7175    0.0000 C   0  0  0  0  0  0  0  0  0  0  0  0
    5.5864  -11.1925    0.0000 H   0  0  0  0  0  0  0  0  0  0  0  0
    7.7298   -7.4800    0.0000 C   0  0  0  0  0  0  0  0  0  0  0  0
    8.5144   -9.3849    0.0000 C   0  0  0  0  0  0  0  0  0  0  0  0
    8.9993   -8.7175    0.0000 C   0  0  0  0  0  0  0  0  0  0  0  0
    8.5144   -8.0501    0.0000 C   0  0  1  0  0  0  0  0  0  0  0  0
    8.7693   -7.2654    0.0000 C   0  0  2  0  0  0  0  0  0  0  0  0
    9.3113   -7.8365    0.0000 H   0  0  0  0  0  0  0  0  0  0  0  0
    9.5763   -7.0939    0.0000 C   0  0  0  0  0  0  0  0  0  0  0  0
    9.8313   -6.3093    0.0000 C   0  0  2  0  0  0  0  0  0  0  0  0
    9.2792   -5.6962    0.0000 C   0  0  1  0  0  0  0  0  0  0  0  0
    8.4722   -5.8677    0.0000 O   0  0  0  0  0  0  0  0  0  0  0  0
    8.2173   -6.6523    0.0000 C   0  0  0  0  0  0  0  0  0  0  0  0
    9.5342   -4.9116    0.0000 C   0  0  0  0  0  0  0  0  0  0  0  0
   10.0862   -5.5247    0.0000 H   0  0  0  0  0  0  0  0  0  0  0  0
    8.9821   -4.2985    0.0000 C   0  0  0  0  0  0  0  0  0  0  0  0
   10.3411   -4.7400    0.0000 C   0  0  0  0  0  0  0  0  0  0  0  0
    9.7891   -4.1270    0.0000 O   0  0  0  0  0  0  0  0  0  0  0  0
   10.6382   -6.1378    0.0000 O   0  0  0  0  0  0  0  0  0  0  0  0
    8.9829   -6.4686    0.0000 H   0  0  0  0  0  0  0  0  0  0  0  0
    6.3008   -9.9550    0.0000 H   0  0  0  0  0  0  0  0  0  0  0  0
  1  2  1  0  0  0  0
  2  3  1  0  0  0  0
  3  4  1  0  0  0  0
  4  5  1  0  0  0  0
  5  6  1  0  0  0  0
  6  1  1  0  0  0  0
  4  7  1  0  0  0  0
  7  8  1  0  0  0  0
  8  9  2  0  0  0  0
  9 10  1  0  0  0  0
 10  5  1  0  0  0  0
  9 11  1  0  0  0  0
 11 12  1  0  0  0  0
 12 13  1  0  0  0  0
 13 14  1  0  0  0  0
 14 10  1  0  0  0  0
  2 15  1  1  0  0  0
  3 16  1  0  0  0  0
  3 17  1  0  0  0  0
 11 18  1  1  0  0  0
  5 19  1  1  0  0  0
  4 20  1  6  0  0  0
 12 21  1  6  0  0  0
 11 22  1  0  0  0  0
 22 23  1  0  0  0  0
 23 24  1  0  0  0  0
 24 12  1  0  0  0  0
 24 25  1  0  0  0  0
 24 26  1  1  0  0  0
 25 27  1  0  0  0  0
 27 28  1  0  0  0  0
 28 29  1  0  0  0  0
 29 30  1  0  0  0  0
 30 31  1  0  0  0  0
 31 25  1  0  0  0  0
 29 32  1  0  0  0  0
 29 33  1  6  0  0  0
 32 34  1  0  0  0  0
 32 35  1  0  0  0  0
 32 36  1  0  0  0  0
 28 37  1  6  0  0  0
 25 38  1  6  0  0  0
 10 39  1  6  0  0  0
M  END
>  <cdx:fragmentId>
5

$$$$
