51106.cdx
  Mrv1902 05222410262D          

 45 50  0  0  0  0            999 V2000
    8.1048   -6.7378    0.0000 C   0  0  0  0  0  0  0  0  0  0  0  0
    8.1078   -7.5628    0.0000 C   0  0  0  0  0  0  0  0  0  0  0  0
    8.8238   -7.9726    0.0000 C   0  0  0  0  0  0  0  0  0  0  0  0
    9.5368   -7.5575    0.0000 C   0  0  0  0  0  0  0  0  0  0  0  0
    9.5337   -6.7325    0.0000 C   0  0  0  0  0  0  0  0  0  0  0  0
    8.8177   -6.3227    0.0000 C   0  0  0  0  0  0  0  0  0  0  0  0
   10.2528   -7.9674    0.0000 O   0  0  0  0  0  0  0  0  0  0  0  0
    7.3888   -6.3279    0.0000 C   0  0  0  0  0  0  0  0  0  0  0  0
    3.8089   -4.2787    0.0000 C   0  0  0  0  0  0  0  0  0  0  0  0
    4.5218   -3.8635    0.0000 O   0  0  0  0  0  0  0  0  0  0  0  0
    8.8147   -5.4977    0.0000 C   0  0  0  0  0  0  0  0  0  0  0  0
    4.5279   -5.5135    0.0000 O   0  0  0  0  0  0  0  0  0  0  0  0
    6.6698   -5.0931    0.0000 C   0  0  0  0  0  0  0  0  0  0  0  0
    5.9568   -5.5082    0.0000 C   0  0  0  0  0  0  0  0  0  0  0  0
    5.2408   -5.0984    0.0000 C   0  0  0  0  0  0  0  0  0  0  0  0
    5.2378   -4.2734    0.0000 C   0  0  0  0  0  0  0  0  0  0  0  0
    5.9507   -3.8582    0.0000 C   0  0  0  0  0  0  0  0  0  0  0  0
    6.6667   -4.2681    0.0000 C   0  0  0  0  0  0  0  0  0  0  0  0
    7.3797   -3.8530    0.0000 C   0  0  0  0  0  0  0  0  0  0  0  0
    8.0956   -4.2628    0.0000 C   0  0  0  0  0  0  0  0  0  0  0  0
    8.0987   -5.0878    0.0000 N   0  0  0  0  0  0  0  0  0  0  0  0
    3.1295  -13.7687    0.0000 C   0  0  0  0  0  0  0  0  0  0  0  0
    3.1264  -12.9437    0.0000 O   0  0  0  0  0  0  0  0  0  0  0  0
    2.4074  -11.7089    0.0000 C   0  0  0  0  0  0  0  0  0  0  0  0
    3.1203  -11.2937    0.0000 O   0  0  0  0  0  0  0  0  0  0  0  0
    7.4071  -11.2779    0.0000 C   0  0  0  0  0  0  0  0  0  0  0  0
    5.2652  -11.6983    0.0000 C   0  0  0  0  0  0  0  0  0  0  0  0
    4.5492  -11.2885    0.0000 C   0  0  0  0  0  0  0  0  0  0  0  0
    3.8363  -11.7036    0.0000 C   0  0  0  0  0  0  0  0  0  0  0  0
    3.8393  -12.5286    0.0000 C   0  0  0  0  0  0  0  0  0  0  0  0
    4.5553  -12.9385    0.0000 C   0  0  0  0  0  0  0  0  0  0  0  0
    5.2683  -12.5233    0.0000 C   0  0  0  0  0  0  0  0  0  0  0  0
    5.9843  -12.9332    0.0000 C   0  0  0  0  0  0  0  0  0  0  0  0
    6.6972  -12.5180    0.0000 C   0  0  0  0  0  0  0  0  0  0  0  0
    6.6942  -11.6930    0.0000 N   0  0  0  0  0  0  0  0  0  0  0  0
    5.9782  -11.2832    0.0000 C   0  0  2  0  0  0  0  0  0  0  0  0
    5.9751  -10.4582    0.0000 C   0  0  0  0  0  0  0  0  0  0  0  0
    8.1170  -10.0378    0.0000 C   0  0  0  0  0  0  0  0  0  0  0  0
    7.4041  -10.4529    0.0000 C   0  0  0  0  0  0  0  0  0  0  0  0
    6.6881  -10.0431    0.0000 C   0  0  0  0  0  0  0  0  0  0  0  0
    6.6850   -9.2181    0.0000 C   0  0  0  0  0  0  0  0  0  0  0  0
    7.3980   -8.8029    0.0000 C   0  0  0  0  0  0  0  0  0  0  0  0
    8.1139   -9.2128    0.0000 C   0  0  0  0  0  0  0  0  0  0  0  0
    8.8269   -8.7976    0.0000 O   0  0  0  0  0  0  0  0  0  0  0  0
    7.3858   -5.5029    0.0000 C   0  0  2  0  0  0  0  0  0  0  0  0
 45  8  1  6  0  0  0
 16 10  1  0  0  0  0
 10  9  1  0  0  0  0
 21 11  1  0  0  0  0
 15 12  1  0  0  0  0
 18 13  2  0  0  0  0
 45 13  1  0  0  0  0
 14 13  1  0  0  0  0
 15 14  2  0  0  0  0
 16 15  1  0  0  0  0
 17 16  2  0  0  0  0
 18 17  1  0  0  0  0
 19 18  1  0  0  0  0
 20 19  1  0  0  0  0
 21 20  1  0  0  0  0
 40 37  1  0  0  0  0
 36 37  1  1  0  0  0
 30 23  1  0  0  0  0
 23 22  1  0  0  0  0
 29 25  1  0  0  0  0
 25 24  1  0  0  0  0
 35 26  1  0  0  0  0
 32 27  2  0  0  0  0
 36 27  1  0  0  0  0
 28 27  1  0  0  0  0
 29 28  2  0  0  0  0
 30 29  1  0  0  0  0
 31 30  2  0  0  0  0
 32 31  1  0  0  0  0
 33 32  1  0  0  0  0
 34 33  1  0  0  0  0
 35 34  1  0  0  0  0
 36 35  1  0  0  0  0
 44 43  1  0  0  0  0
 43 38  2  0  0  0  0
 39 38  1  0  0  0  0
 40 39  2  0  0  0  0
 41 40  1  0  0  0  0
 45 21  1  0  0  0  0
  1  2  1  0  0  0  0
  2  3  2  0  0  0  0
  3  4  1  0  0  0  0
  4  5  2  0  0  0  0
  5  6  1  0  0  0  0
  1  6  2  0  0  0  0
  4  7  1  0  0  0  0
 42 41  2  0  0  0  0
 43 42  1  0  0  0  0
  3 44  1  0  0  0  0
  8  1  1  0  0  0  0
M  END
>  <cdx:fragmentId>
65

$$$$
