511452.cdx
  Mrv1902 05222410222D          

 11 13  0  0  0  0            999 V2000
   15.4688   -8.9690    0.0000 C   0  0  0  0  0  0  0  0  0  0  0  0
   16.1832   -9.3815    0.0000 C   0  0  0  0  0  0  0  0  0  0  0  0
   16.8977   -8.9690    0.0000 C   0  0  0  0  0  0  0  0  0  0  0  0
   16.8977   -8.1440    0.0000 C   0  0  0  0  0  0  0  0  0  0  0  0
   16.1832   -7.7315    0.0000 C   0  0  0  0  0  0  0  0  0  0  0  0
   15.8174   -8.5393    0.0000 C   0  0  0  0  0  0  0  0  0  0  0  0
   14.0398   -8.9690    0.0000 C   0  0  0  0  0  0  0  0  0  0  0  0
   14.0398   -8.1440    0.0000 C   0  0  0  0  0  0  0  0  0  0  0  0
   14.7543   -7.7315    0.0000 C   0  0  0  0  0  0  0  0  0  0  0  0
   15.4688   -8.1440    0.0000 C   0  0  0  0  0  0  0  0  0  0  0  0
   14.7543   -9.3815    0.0000 C   0  0  0  0  0  0  0  0  0  0  0  0
  1  2  1  0  0  0  0
  2  3  1  0  0  0  0
  3  4  1  0  0  0  0
  4  5  1  0  0  0  0
  5  6  1  0  0  0  0
  6  7  1  0  0  0  0
  7  8  1  0  0  0  0
  8  9  1  0  0  0  0
  9 10  1  0  0  0  0
  1 10  1  0  0  0  0
  5 10  1  0  0  0  0
  1 11  1  0  0  0  0
  7 11  1  0  0  0  0
M  END
>  <cdx:groupId>
22563

>  <cdx:fragmentId>
22531

$$$$
