511785.cdx
  Mrv1902 05222410202D          

 25 27  0  0  0  0            999 V2000
    6.3398   -8.2307    0.0000 C   0  0  0  0  0  0  0  0  0  0  0  0
    7.0509   -8.6491    0.0000 O   0  0  0  0  0  0  0  0  0  0  0  0
    7.7687   -8.2425    0.0000 C   0  0  0  0  0  0  0  0  0  0  0  0
    7.7755   -7.4175    0.0000 C   0  0  0  0  0  0  0  0  0  0  0  0
    7.0645   -6.9991    0.0000 C   0  0  0  0  0  0  0  0  0  0  0  0
    6.3466   -7.4057    0.0000 C   0  0  0  0  0  0  0  0  0  0  0  0
    8.4798   -8.6609    0.0000 C   0  0  0  0  0  0  0  0  0  0  0  0
    9.1976   -8.2543    0.0000 C   0  0  0  0  0  0  0  0  0  0  0  0
    9.2044   -7.4293    0.0000 C   0  0  0  0  0  0  0  0  0  0  0  0
    8.4934   -7.0109    0.0000 C   0  0  0  0  0  0  0  0  0  0  0  0
    9.9223   -7.0227    0.0000 C   0  0  0  0  0  0  0  0  0  0  0  0
    9.9291   -6.1977    0.0000 C   0  0  0  0  0  0  0  0  0  0  0  0
    9.2180   -5.7793    0.0000 C   0  0  0  0  0  0  0  0  0  0  0  0
    8.5002   -6.1859    0.0000 O   0  0  0  0  0  0  0  0  0  0  0  0
    5.6356   -6.9874    0.0000 O   0  0  0  0  0  0  0  0  0  0  0  0
    7.0713   -6.1742    0.0000 O   0  0  0  0  0  0  0  0  0  0  0  0
    5.9215   -8.9418    0.0000 C   0  0  0  0  0  0  0  0  0  0  0  0
    5.5149   -8.2239    0.0000 C   0  0  0  0  0  0  0  0  0  0  0  0
    9.2248   -4.9544    0.0000 O   0  0  0  0  0  0  0  0  0  0  0  0
    6.3766   -5.7586    0.0000 C   0  0  0  0  0  0  0  0  0  0  0  0
    6.3890   -4.9337    0.0000 C   0  0  0  0  0  0  0  0  0  0  0  0
    5.6561   -6.1603    0.0000 O   0  0  0  0  0  0  0  0  0  0  0  0
    5.6808   -4.5105    0.0000 C   0  0  0  0  0  0  0  0  0  0  0  0
    5.6931   -3.6856    0.0000 C   0  0  0  0  0  0  0  0  0  0  0  0
    4.9602   -4.9123    0.0000 C   0  0  0  0  0  0  0  0  0  0  0  0
  1  2  1  0  0  0  0
  2  3  1  0  0  0  0
  3  4  2  0  0  0  0
  4  5  1  0  0  0  0
  5  6  1  0  0  0  0
  6  1  1  0  0  0  0
  3  7  1  0  0  0  0
  7  8  2  0  0  0  0
  8  9  1  0  0  0  0
  9 10  2  0  0  0  0
 10  4  1  0  0  0  0
  9 11  1  0  0  0  0
 11 12  2  0  0  0  0
 12 13  1  0  0  0  0
 13 14  1  0  0  0  0
 14 10  1  0  0  0  0
  6 15  1  0  0  0  0
  5 16  1  0  0  0  0
  1 17  1  0  0  0  0
  1 18  1  0  0  0  0
 13 19  2  0  0  0  0
 20 21  1  0  0  0  0
 20 22  2  0  0  0  0
 21 23  2  0  0  0  0
 20 16  1  0  0  0  0
 23 24  1  0  0  0  0
 23 25  1  0  0  0  0
M  END
>  <cdx:fragmentId>
5

$$$$
