5121.cdx
  Mrv1902 05222410222D          

 66 74  0  0  0  0            999 V2000
    7.6522   -9.9085    0.0000 C   0  0  1  0  0  0  0  0  0  0  0  0
    7.6522   -9.0835    0.0000 C   0  0  0  0  0  0  0  0  0  0  0  0
    8.3667   -8.6710    0.0000 C   0  0  0  0  0  0  0  0  0  0  0  0
    8.3667  -10.3210    0.0000 C   0  0  2  0  0  0  0  0  0  0  0  0
    8.7792  -11.0355    0.0000 C   0  0  0  0  0  0  0  0  0  0  0  0
    7.9542  -11.0355    0.0000 C   0  0  0  0  0  0  0  0  0  0  0  0
    9.0811   -9.9085    0.0000 C   0  0  2  0  0  0  0  0  0  0  0  0
    9.0811  -10.7335    0.0000 H   0  0  0  0  0  0  0  0  0  0  0  0
    9.7956  -10.3210    0.0000 C   0  0  0  0  0  0  0  0  0  0  0  0
   10.5101   -9.9085    0.0000 C   0  0  0  0  0  0  0  0  0  0  0  0
   10.5101   -9.0835    0.0000 C   0  0  1  0  0  0  0  0  0  0  0  0
   10.5101   -8.2585    0.0000 C   0  0  0  0  0  0  0  0  0  0  0  0
   11.2245   -8.6710    0.0000 C   0  0  2  0  0  0  0  0  0  0  0  0
   11.2245   -9.4960    0.0000 C   0  0  0  0  0  0  0  0  0  0  0  0
   11.9390   -9.0835    0.0000 C   0  0  0  0  0  0  0  0  0  0  0  0
   12.6535   -8.6710    0.0000 C   0  0  0  0  0  0  0  0  0  0  0  0
   12.6535   -7.8460    0.0000 C   0  0  1  0  0  0  0  0  0  0  0  0
   13.3680   -7.4335    0.0000 C   0  0  0  0  0  0  0  0  0  0  0  0
   13.3680   -6.6085    0.0000 C   0  0  0  0  0  0  0  0  0  0  0  0
   12.6535   -6.1960    0.0000 C   0  0  1  0  0  0  0  0  0  0  0  0
   12.2410   -5.4815    0.0000 C   0  0  0  0  0  0  0  0  0  0  0  0
   13.0660   -5.4815    0.0000 C   0  0  0  0  0  0  0  0  0  0  0  0
   11.9390   -6.6085    0.0000 C   0  0  0  0  0  0  0  0  0  0  0  0
   11.9390   -7.4335    0.0000 C   0  0  1  0  0  0  0  0  0  0  0  0
   11.9390   -8.2585    0.0000 H   0  0  0  0  0  0  0  0  0  0  0  0
   11.2245   -7.8460    0.0000 C   0  0  1  0  0  0  0  0  0  0  0  0
   10.5101   -7.4335    0.0000 C   0  0  0  0  0  0  0  0  0  0  0  0
    9.7956   -7.8460    0.0000 C   0  0  0  0  0  0  0  0  0  0  0  0
    9.7956   -8.6710    0.0000 C   0  0  2  0  0  0  0  0  0  0  0  0
    9.0811   -9.0835    0.0000 C   0  0  1  0  0  0  0  0  0  0  0  0
    9.0811   -8.2585    0.0000 C   0  0  0  0  0  0  0  0  0  0  0  0
   11.4160   -5.4815    0.0000 O   0  0  0  0  0  0  0  0  0  0  0  0
   13.3680   -9.0835    0.0000 O   0  0  0  0  0  0  0  0  0  0  0  0
    6.9377  -10.3210    0.0000 O   0  0  0  0  0  0  0  0  0  0  0  0
    6.2232   -9.9085    0.0000 C   0  0  1  0  0  0  0  0  0  0  0  0
    5.5088  -10.3210    0.0000 C   0  0  2  0  0  0  0  0  0  0  0  0
    5.5088  -11.1460    0.0000 O   0  0  0  0  0  0  0  0  0  0  0  0
    4.7943   -9.9085    0.0000 C   0  0  1  0  0  0  0  0  0  0  0  0
    4.0798  -10.3210    0.0000 O   0  0  0  0  0  0  0  0  0  0  0  0
    4.7943   -9.0835    0.0000 C   0  0  1  0  0  0  0  0  0  0  0  0
    4.0798   -8.6710    0.0000 O   0  0  0  0  0  0  0  0  0  0  0  0
    5.5088   -8.6710    0.0000 C   0  0  0  0  0  0  0  0  0  0  0  0
    6.2232   -9.0835    0.0000 O   0  0  0  0  0  0  0  0  0  0  0  0
    3.3654   -9.0835    0.0000 C   0  0  1  0  0  0  0  0  0  0  0  0
    2.6509   -8.6710    0.0000 C   0  0  2  0  0  0  0  0  0  0  0  0
    2.6509   -7.8460    0.0000 O   0  0  0  0  0  0  0  0  0  0  0  0
    1.9364   -9.0835    0.0000 C   0  0  1  0  0  0  0  0  0  0  0  0
    1.2219   -8.6710    0.0000 O   0  0  0  0  0  0  0  0  0  0  0  0
    1.9364   -9.9085    0.0000 C   0  0  2  0  0  0  0  0  0  0  0  0
    1.2219  -10.3210    0.0000 O   0  0  0  0  0  0  0  0  0  0  0  0
    2.6509  -10.3210    0.0000 C   0  0  2  0  0  0  0  0  0  0  0  0
    3.3654   -9.9085    0.0000 O   0  0  0  0  0  0  0  0  0  0  0  0
    2.6509  -11.1460    0.0000 C   0  0  0  0  0  0  0  0  0  0  0  0
    1.9364  -11.5585    0.0000 O   0  0  0  0  0  0  0  0  0  0  0  0
    3.3654   -7.4335    0.0000 C   0  0  1  0  0  0  0  0  0  0  0  0
    3.3654   -6.6085    0.0000 C   0  0  2  0  0  0  0  0  0  0  0  0
    2.6509   -6.1960    0.0000 O   0  0  0  0  0  0  0  0  0  0  0  0
    4.0798   -6.1960    0.0000 C   0  0  1  0  0  0  0  0  0  0  0  0
    4.0798   -5.3710    0.0000 O   0  0  0  0  0  0  0  0  0  0  0  0
    4.7943   -6.6085    0.0000 C   0  0  2  0  0  0  0  0  0  0  0  0
    5.5088   -6.1960    0.0000 O   0  0  0  0  0  0  0  0  0  0  0  0
    4.7943   -7.4335    0.0000 C   0  0  0  0  0  0  0  0  0  0  0  0
    4.0798   -7.8460    0.0000 O   0  0  0  0  0  0  0  0  0  0  0  0
    9.7956   -9.4960    0.0000 H   0  0  0  0  0  0  0  0  0  0  0  0
   11.2245   -7.0210    0.0000 O   0  0  0  0  0  0  0  0  0  0  0  0
   12.6535   -7.0210    0.0000 C   0  0  0  0  0  0  0  0  0  0  0  0
  1  2  1  0  0  0  0
  2  3  1  0  0  0  0
  1  4  1  0  0  0  0
  4  5  1  6  0  0  0
  4  6  1  1  0  0  0
  4  7  1  0  0  0  0
  7  8  1  6  0  0  0
  7  9  1  0  0  0  0
  9 10  1  0  0  0  0
 10 11  1  0  0  0  0
 11 12  1  1  0  0  0
 11 13  1  0  0  0  0
 13 14  1  6  0  0  0
 13 15  1  0  0  0  0
 15 16  1  0  0  0  0
 16 17  1  0  0  0  0
 17 18  1  0  0  0  0
 18 19  1  0  0  0  0
 19 20  1  0  0  0  0
 20 21  1  1  0  0  0
 20 22  1  6  0  0  0
 20 23  1  0  0  0  0
 23 24  1  0  0  0  0
 24 25  1  1  0  0  0
 17 24  1  0  0  0  0
 24 26  1  0  0  0  0
 13 26  1  0  0  0  0
 26 27  1  0  0  0  0
 27 28  1  0  0  0  0
 28 29  1  0  0  0  0
 11 29  1  0  0  0  0
 29 30  1  0  0  0  0
  3 30  1  0  0  0  0
  7 30  1  0  0  0  0
 30 31  1  1  0  0  0
 21 32  2  0  0  0  0
 16 33  2  0  0  0  0
  1 34  1  1  0  0  0
 35 36  1  0  0  0  0
 36 37  1  6  0  0  0
 36 38  1  0  0  0  0
 38 39  1  1  0  0  0
 38 40  1  0  0  0  0
 40 41  1  1  0  0  0
 40 42  1  0  0  0  0
 42 43  1  0  0  0  0
 35 43  1  0  0  0  0
 44 45  1  0  0  0  0
 45 46  1  1  0  0  0
 45 47  1  0  0  0  0
 47 48  1  6  0  0  0
 47 49  1  0  0  0  0
 49 50  1  1  0  0  0
 49 51  1  0  0  0  0
 51 52  1  0  0  0  0
 51 53  1  6  0  0  0
 53 54  1  0  0  0  0
 44 52  1  0  0  0  0
 55 56  1  0  0  0  0
 56 57  1  6  0  0  0
 56 58  1  0  0  0  0
 58 59  1  1  0  0  0
 58 60  1  0  0  0  0
 60 61  1  6  0  0  0
 60 62  1  0  0  0  0
 62 63  1  0  0  0  0
 55 63  1  0  0  0  0
 55 46  1  1  0  0  0
 44 41  1  6  0  0  0
 35 34  1  1  0  0  0
 29 64  1  6  0  0  0
 26 65  1  1  0  0  0
 17 66  1  1  0  0  0
 66 65  1  0  0  0  0
M  END
>  <cdx:fragmentId>
5

$$$$
