5123.cdx
  Mrv1902 05222410232D          

109120  0  0  0  0            999 V2000
   10.8108  -11.3506    0.0000 C   0  0  0  0  0  0  0  0  0  0  0  0
   10.8108  -12.1756    0.0000 C   0  0  1  0  0  0  0  0  0  0  0  0
   11.5252  -12.5881    0.0000 C   0  0  1  0  0  0  0  0  0  0  0  0
   12.2397  -12.1756    0.0000 C   0  0  1  0  0  0  0  0  0  0  0  0
   12.2397  -11.3506    0.0000 C   0  0  2  0  0  0  0  0  0  0  0  0
   11.5252  -10.9381    0.0000 C   0  0  0  0  0  0  0  0  0  0  0  0
   12.9542  -12.5881    0.0000 C   0  0  0  0  0  0  0  0  0  0  0  0
   13.6687  -12.1756    0.0000 C   0  0  0  0  0  0  0  0  0  0  0  0
   13.6687  -11.3506    0.0000 C   0  0  2  0  0  0  0  0  0  0  0  0
   12.9542  -10.9381    0.0000 C   0  0  2  0  0  0  0  0  0  0  0  0
   14.3831  -10.9381    0.0000 C   0  0  1  0  0  0  0  0  0  0  0  0
   14.3831  -10.1131    0.0000 C   0  0  0  0  0  0  0  0  0  0  0  0
   13.6687   -9.7006    0.0000 C   0  0  0  0  0  0  0  0  0  0  0  0
   12.9542  -10.1131    0.0000 C   0  0  0  0  0  0  0  0  0  0  0  0
   15.0976  -11.3506    0.0000 C   0  0  0  0  0  0  0  0  0  0  0  0
   15.8121  -10.9381    0.0000 C   0  0  0  0  0  0  0  0  0  0  0  0
   15.8121  -10.1131    0.0000 C   0  0  2  0  0  0  0  0  0  0  0  0
   15.0976   -9.7006    0.0000 C   0  0  1  0  0  0  0  0  0  0  0  0
   16.5265   -9.7006    0.0000 C   0  0  0  0  0  0  0  0  0  0  0  0
   16.5265   -8.8756    0.0000 C   0  0  0  0  0  0  0  0  0  0  0  0
   15.8121   -8.4631    0.0000 C   0  0  0  0  0  0  0  0  0  0  0  0
   15.0976   -8.8756    0.0000 C   0  0  0  0  0  0  0  0  0  0  0  0
   12.2397  -10.5256    0.0000 C   0  0  0  0  0  0  0  0  0  0  0  0
   13.6687  -10.5256    0.0000 C   0  0  0  0  0  0  0  0  0  0  0  0
   15.0976  -10.5256    0.0000 H   0  0  0  0  0  0  0  0  0  0  0  0
   15.3996   -7.7487    0.0000 C   0  0  0  0  0  0  0  0  0  0  0  0
   11.1127  -13.3026    0.0000 C   0  0  0  0  0  0  0  0  0  0  0  0
   10.0963  -12.5881    0.0000 O   0  0  0  0  0  0  0  0  0  0  0  0
   11.9377  -13.3026    0.0000 C   0  0  0  0  0  0  0  0  0  0  0  0
   12.9542  -11.7631    0.0000 H   0  0  0  0  0  0  0  0  0  0  0  0
   14.3831  -11.7631    0.0000 C   0  0  0  0  0  0  0  0  0  0  0  0
   16.2246   -7.7487    0.0000 C   0  0  0  0  0  0  0  0  0  0  0  0
   11.5252  -14.0171    0.0000 O   0  0  0  0  0  0  0  0  0  0  0  0
   16.5265  -10.5256    0.0000 C   0  0  0  0  0  0  0  0  0  0  0  0
   17.2410  -10.1131    0.0000 O   0  0  0  0  0  0  0  0  0  0  0  0
   16.5265  -11.3506    0.0000 O   0  0  0  0  0  0  0  0  0  0  0  0
   17.9555  -10.5256    0.0000 C   0  0  2  0  0  0  0  0  0  0  0  0
   17.9555  -11.3506    0.0000 O   0  0  0  0  0  0  0  0  0  0  0  0
   18.6700  -11.7631    0.0000 C   0  0  1  0  0  0  0  0  0  0  0  0
   19.3844  -11.3506    0.0000 C   0  0  1  0  0  0  0  0  0  0  0  0
   19.3844  -10.5256    0.0000 C   0  0  1  0  0  0  0  0  0  0  0  0
   18.6700  -10.1131    0.0000 C   0  0  1  0  0  0  0  0  0  0  0  0
   18.6700   -9.2881    0.0000 O   0  0  0  0  0  0  0  0  0  0  0  0
   20.0989  -10.1131    0.0000 O   0  0  0  0  0  0  0  0  0  0  0  0
   20.0989  -11.7631    0.0000 O   0  0  0  0  0  0  0  0  0  0  0  0
   18.6700  -12.5881    0.0000 C   0  0  0  0  0  0  0  0  0  0  0  0
   19.3844   -8.8756    0.0000 C   0  0  2  0  0  0  0  0  0  0  0  0
   20.0989   -9.2881    0.0000 O   0  0  0  0  0  0  0  0  0  0  0  0
   20.8134   -8.8756    0.0000 C   0  0  2  0  0  0  0  0  0  0  0  0
   20.8134   -8.0506    0.0000 C   0  0  1  0  0  0  0  0  0  0  0  0
   20.0989   -7.6381    0.0000 C   0  0  2  0  0  0  0  0  0  0  0  0
   19.3844   -8.0506    0.0000 C   0  0  1  0  0  0  0  0  0  0  0  0
   21.5278   -7.6381    0.0000 O   0  0  0  0  0  0  0  0  0  0  0  0
   21.5278   -9.2881    0.0000 C   0  0  0  0  0  0  0  0  0  0  0  0
   20.0989   -6.8131    0.0000 O   0  0  0  0  0  0  0  0  0  0  0  0
   18.6700   -7.6381    0.0000 O   0  0  0  0  0  0  0  0  0  0  0  0
   22.2423   -8.0506    0.0000 C   0  0  2  0  0  0  0  0  0  0  0  0
   22.2423   -8.8756    0.0000 O   0  0  0  0  0  0  0  0  0  0  0  0
   22.9568   -9.2881    0.0000 C   0  0  0  0  0  0  0  0  0  0  0  0
   23.6713   -8.8756    0.0000 C   0  0  2  0  0  0  0  0  0  0  0  0
   23.6713   -8.0506    0.0000 C   0  0  1  0  0  0  0  0  0  0  0  0
   22.9568   -7.6381    0.0000 C   0  0  1  0  0  0  0  0  0  0  0  0
   22.9568   -6.8131    0.0000 O   0  0  0  0  0  0  0  0  0  0  0  0
   24.3857   -7.6381    0.0000 O   0  0  0  0  0  0  0  0  0  0  0  0
   24.3857   -9.2881    0.0000 O   0  0  0  0  0  0  0  0  0  0  0  0
    9.3818  -12.1756    0.0000 C   0  0  2  0  0  0  0  0  0  0  0  0
    9.3818  -11.3506    0.0000 O   0  0  0  0  0  0  0  0  0  0  0  0
    8.6674  -10.9381    0.0000 C   0  0  1  0  0  0  0  0  0  0  0  0
    7.9529  -11.3506    0.0000 C   0  0  2  0  0  0  0  0  0  0  0  0
    7.9529  -12.1756    0.0000 C   0  0  1  0  0  0  0  0  0  0  0  0
    8.6674  -12.5881    0.0000 C   0  0  1  0  0  0  0  0  0  0  0  0
    8.6674  -10.1131    0.0000 C   0  0  0  0  0  0  0  0  0  0  0  0
    7.2384  -12.5881    0.0000 O   0  0  0  0  0  0  0  0  0  0  0  0
    7.2384  -10.9381    0.0000 O   0  0  0  0  0  0  0  0  0  0  0  0
    8.6674  -13.4131    0.0000 O   0  0  0  0  0  0  0  0  0  0  0  0
    9.3818   -9.7006    0.0000 O   0  0  0  0  0  0  0  0  0  0  0  0
    7.9529   -9.7006    0.0000 O   0  0  0  0  0  0  0  0  0  0  0  0
    8.2647  -14.1332    0.0000 C   0  0  2  0  0  0  0  0  0  0  0  0
    7.4397  -14.1444    0.0000 O   0  0  0  0  0  0  0  0  0  0  0  0
    7.0371  -14.8645    0.0000 C   0  0  1  0  0  0  0  0  0  0  0  0
    7.4593  -15.5733    0.0000 C   0  0  1  0  0  0  0  0  0  0  0  0
    8.2842  -15.5620    0.0000 C   0  0  1  0  0  0  0  0  0  0  0  0
    8.6869  -14.8419    0.0000 C   0  0  1  0  0  0  0  0  0  0  0  0
    6.2121  -14.8758    0.0000 C   0  0  0  0  0  0  0  0  0  0  0  0
    8.7064  -16.2707    0.0000 O   0  0  0  0  0  0  0  0  0  0  0  0
    7.0566  -16.2933    0.0000 O   0  0  0  0  0  0  0  0  0  0  0  0
    9.5118  -14.8307    0.0000 O   0  0  0  0  0  0  0  0  0  0  0  0
    5.8094  -15.5958    0.0000 O   0  0  0  0  0  0  0  0  0  0  0  0
    6.5240  -12.1756    0.0000 C   0  0  2  0  0  0  0  0  0  0  0  0
    6.5240  -11.3506    0.0000 O   0  0  0  0  0  0  0  0  0  0  0  0
    5.8095  -10.9381    0.0000 C   0  0  0  0  0  0  0  0  0  0  0  0
    5.0950  -11.3506    0.0000 C   0  0  2  0  0  0  0  0  0  0  0  0
    5.0950  -12.1756    0.0000 C   0  0  1  0  0  0  0  0  0  0  0  0
    5.8095  -12.5881    0.0000 C   0  0  1  0  0  0  0  0  0  0  0  0
    5.8095  -13.4131    0.0000 O   0  0  0  0  0  0  0  0  0  0  0  0
    4.3805  -12.5881    0.0000 O   0  0  0  0  0  0  0  0  0  0  0  0
    4.3805  -10.9381    0.0000 O   0  0  0  0  0  0  0  0  0  0  0  0
   12.2397  -13.0006    0.0000 H   0  0  0  0  0  0  0  0  0  0  0  0
   19.6835   -6.1003    0.0000 C   0  0  2  0  0  0  0  0  0  0  0  0
   20.0931   -5.3842    0.0000 O   0  0  0  0  0  0  0  0  0  0  0  0
   19.6777   -4.6714    0.0000 C   0  0  1  0  0  0  0  0  0  0  0  0
   18.8527   -4.6748    0.0000 C   0  0  2  0  0  0  0  0  0  0  0  0
   18.4431   -5.3909    0.0000 C   0  0  1  0  0  0  0  0  0  0  0  0
   18.8585   -6.1037    0.0000 C   0  0  1  0  0  0  0  0  0  0  0  0
   20.0873   -3.9553    0.0000 C   0  0  0  0  0  0  0  0  0  0  0  0
   17.6181   -5.3943    0.0000 O   0  0  0  0  0  0  0  0  0  0  0  0
   19.6718   -3.2425    0.0000 O   0  0  0  0  0  0  0  0  0  0  0  0
   18.4373   -3.9620    0.0000 O   0  0  0  0  0  0  0  0  0  0  0  0
   18.4489   -6.8198    0.0000 O   0  0  0  0  0  0  0  0  0  0  0  0
  1  2  1  0  0  0  0
  2  3  1  0  0  0  0
  3  4  1  0  0  0  0
  4  5  1  0  0  0  0
  5  6  1  0  0  0  0
  6  1  1  0  0  0  0
  4  7  1  0  0  0  0
  7  8  1  0  0  0  0
  8  9  1  0  0  0  0
  9 10  1  0  0  0  0
 10  5  1  0  0  0  0
  9 11  1  0  0  0  0
 11 12  1  0  0  0  0
 12 13  2  0  0  0  0
 13 14  1  0  0  0  0
 14 10  1  0  0  0  0
 11 15  1  0  0  0  0
 15 16  1  0  0  0  0
 16 17  1  0  0  0  0
 17 18  1  0  0  0  0
 18 12  1  0  0  0  0
 17 19  1  0  0  0  0
 19 20  1  0  0  0  0
 20 21  1  0  0  0  0
 21 22  1  0  0  0  0
 22 18  1  0  0  0  0
  5 23  1  1  0  0  0
  9 24  1  1  0  0  0
 18 25  1  1  0  0  0
 21 26  1  0  0  0  0
  3 27  1  1  0  0  0
  2 28  1  1  0  0  0
  3 29  1  0  0  0  0
 10 30  1  6  0  0  0
 11 31  1  6  0  0  0
 21 32  1  0  0  0  0
 29 33  2  0  0  0  0
 17 34  1  1  0  0  0
 34 35  1  0  0  0  0
 34 36  2  0  0  0  0
 37 35  1  1  0  0  0
 37 38  1  0  0  0  0
 38 39  1  0  0  0  0
 39 40  1  0  0  0  0
 40 41  1  0  0  0  0
 41 42  1  0  0  0  0
 42 37  1  0  0  0  0
 42 43  1  6  0  0  0
 41 44  1  1  0  0  0
 40 45  1  1  0  0  0
 39 46  1  1  0  0  0
 47 43  1  1  0  0  0
 47 48  1  0  0  0  0
 48 49  1  0  0  0  0
 49 50  1  0  0  0  0
 50 51  1  0  0  0  0
 51 52  1  0  0  0  0
 52 47  1  0  0  0  0
 50 53  1  1  0  0  0
 49 54  1  6  0  0  0
 51 55  1  6  0  0  0
 52 56  1  6  0  0  0
 57 53  1  1  0  0  0
 57 58  1  0  0  0  0
 58 59  1  0  0  0  0
 59 60  1  0  0  0  0
 60 61  1  0  0  0  0
 61 62  1  0  0  0  0
 62 57  1  0  0  0  0
 62 63  1  6  0  0  0
 61 64  1  1  0  0  0
 60 65  1  6  0  0  0
 66 28  1  1  0  0  0
 66 67  1  0  0  0  0
 67 68  1  0  0  0  0
 68 69  1  0  0  0  0
 69 70  1  0  0  0  0
 70 71  1  0  0  0  0
 71 66  1  0  0  0  0
 68 72  1  1  0  0  0
 70 73  1  1  0  0  0
 69 74  1  6  0  0  0
 71 75  1  6  0  0  0
 72 76  2  0  0  0  0
 72 77  1  0  0  0  0
 78 75  1  1  0  0  0
 78 79  1  0  0  0  0
 79 80  1  0  0  0  0
 80 81  1  0  0  0  0
 81 82  1  0  0  0  0
 82 83  1  0  0  0  0
 83 78  1  0  0  0  0
 80 84  1  1  0  0  0
 82 85  1  1  0  0  0
 81 86  1  1  0  0  0
 83 87  1  6  0  0  0
 84 88  1  0  0  0  0
 89 73  1  1  0  0  0
 89 90  1  0  0  0  0
 90 91  1  0  0  0  0
 91 92  1  0  0  0  0
 92 93  1  0  0  0  0
 93 94  1  0  0  0  0
 94 89  1  0  0  0  0
 94 95  1  6  0  0  0
 93 96  1  1  0  0  0
 92 97  1  6  0  0  0
  4 98  1  6  0  0  0
 99 55  1  1  0  0  0
 99100  1  0  0  0  0
100101  1  0  0  0  0
101102  1  0  0  0  0
102103  1  0  0  0  0
103104  1  0  0  0  0
104 99  1  0  0  0  0
101105  1  1  0  0  0
103106  1  1  0  0  0
105107  1  0  0  0  0
102108  1  6  0  0  0
104109  1  6  0  0  0
M  END
>  <cdx:fragmentId>
5

$$$$
