512664.cdx
  Mrv1902 05222410182D          

 42 44  0  0  0  0            999 V2000
    7.8542   -7.9135    0.0000 C   0  0  2  0  0  0  0  0  0  0  0  0
    7.1518   -8.3463    0.0000 C   0  0  0  0  0  0  0  0  0  0  0  0
    7.1754   -9.1710    0.0000 C   0  0  2  0  0  0  0  0  0  0  0  0
    7.9014   -9.5629    0.0000 C   0  0  2  0  0  0  0  0  0  0  0  0
    8.6038   -9.1301    0.0000 C   0  0  1  0  0  0  0  0  0  0  0  0
    8.5802   -8.3054    0.0000 C   0  0  0  0  0  0  0  0  0  0  0  0
    7.8306   -7.0889    0.0000 C   0  0  0  0  0  0  0  0  0  0  0  0
    7.1046   -6.6970    0.0000 O   0  0  0  0  0  0  0  0  0  0  0  0
    8.5330   -6.6561    0.0000 O   0  0  0  0  0  0  0  0  0  0  0  0
    7.9250  -10.3875    0.0000 O   0  0  0  0  0  0  0  0  0  0  0  0
    7.2085  -10.7964    0.0000 C   0  0  0  0  0  0  0  0  0  0  0  0
    7.2043  -11.6214    0.0000 C   0  0  0  0  0  0  0  0  0  0  0  0
    6.4878  -12.0304    0.0000 C   0  0  0  0  0  0  0  0  0  0  0  0
    6.4961  -10.3804    0.0000 O   0  0  0  0  0  0  0  0  0  0  0  0
    6.4837  -12.8554    0.0000 C   0  0  0  0  0  0  0  0  0  0  0  0
    7.1961  -13.2714    0.0000 C   0  0  0  0  0  0  0  0  0  0  0  0
    7.1920  -14.0964    0.0000 C   0  0  0  0  0  0  0  0  0  0  0  0
    6.4755  -14.5053    0.0000 C   0  0  0  0  0  0  0  0  0  0  0  0
    5.7631  -14.0893    0.0000 C   0  0  0  0  0  0  0  0  0  0  0  0
    5.7672  -13.2643    0.0000 C   0  0  0  0  0  0  0  0  0  0  0  0
    5.0465  -14.4982    0.0000 O   0  0  0  0  0  0  0  0  0  0  0  0
    5.0424  -15.3232    0.0000 C   0  0  0  0  0  0  0  0  0  0  0  0
    7.9044  -14.5125    0.0000 O   0  0  0  0  0  0  0  0  0  0  0  0
    7.9003  -15.3375    0.0000 C   0  0  0  0  0  0  0  0  0  0  0  0
    6.4713  -15.3303    0.0000 O   0  0  0  0  0  0  0  0  0  0  0  0
    9.3298   -9.5220    0.0000 O   0  0  0  0  0  0  0  0  0  0  0  0
    7.1282   -7.5216    0.0000 O   0  0  0  0  0  0  0  0  0  0  0  0
    6.4730   -9.6037    0.0000 O   0  0  0  0  0  0  0  0  0  0  0  0
    5.7560   -9.1958    0.0000 C   0  0  0  0  0  0  0  0  0  0  0  0
    5.0441   -9.6128    0.0000 C   0  0  0  0  0  0  0  0  0  0  0  0
    4.3270   -9.2049    0.0000 C   0  0  0  0  0  0  0  0  0  0  0  0
    5.7507   -8.3708    0.0000 O   0  0  0  0  0  0  0  0  0  0  0  0
    3.6152   -9.6219    0.0000 C   0  0  0  0  0  0  0  0  0  0  0  0
    3.6205  -10.4469    0.0000 C   0  0  0  0  0  0  0  0  0  0  0  0
    2.9086  -10.8640    0.0000 C   0  0  0  0  0  0  0  0  0  0  0  0
    2.1916  -10.4560    0.0000 C   0  0  0  0  0  0  0  0  0  0  0  0
    2.1863   -9.6311    0.0000 C   0  0  0  0  0  0  0  0  0  0  0  0
    2.8981   -9.2140    0.0000 C   0  0  0  0  0  0  0  0  0  0  0  0
    1.4797  -10.8731    0.0000 O   0  0  0  0  0  0  0  0  0  0  0  0
    2.9139  -11.6890    0.0000 O   0  0  0  0  0  0  0  0  0  0  0  0
    8.5094   -5.8314    0.0000 C   0  0  0  0  0  0  0  0  0  0  0  0
    9.2118   -5.3987    0.0000 C   0  0  0  0  0  0  0  0  0  0  0  0
  1  2  1  0  0  0  0
  2  3  1  0  0  0  0
  3  4  1  0  0  0  0
  4  5  1  0  0  0  0
  5  6  1  0  0  0  0
  1  6  1  0  0  0  0
  7  8  2  0  0  0  0
  7  9  1  0  0  0  0
  1  7  1  0  0  0  0
 11 12  1  0  0  0  0
 12 13  2  0  0  0  0
 11 14  2  0  0  0  0
 15 16  1  0  0  0  0
 16 17  2  0  0  0  0
 17 18  1  0  0  0  0
 18 19  2  0  0  0  0
 19 20  1  0  0  0  0
 15 20  2  0  0  0  0
 21 22  1  0  0  0  0
 19 21  1  0  0  0  0
 23 24  1  0  0  0  0
 17 23  1  0  0  0  0
 18 25  1  0  0  0  0
 13 15  1  0  0  0  0
 10 11  1  0  0  0  0
  4 10  1  6  0  0  0
  5 26  1  1  0  0  0
  1 27  1  6  0  0  0
 29 30  1  0  0  0  0
 30 31  2  0  0  0  0
 29 32  2  0  0  0  0
 33 34  1  0  0  0  0
 34 35  2  0  0  0  0
 35 36  1  0  0  0  0
 36 37  2  0  0  0  0
 37 38  1  0  0  0  0
 33 38  2  0  0  0  0
 36 39  1  0  0  0  0
 35 40  1  0  0  0  0
 31 33  1  0  0  0  0
 28 29  1  0  0  0  0
  3 28  1  6  0  0  0
 41 42  1  0  0  0  0
  9 41  1  0  0  0  0
M  END
>  <cdx:fragmentId>
73512

$$$$
