5134.cdx
  Mrv1902 05222410222D          

 22 25  0  0  0  0            999 V2000
    7.7455   -9.6364    0.0000 C   0  0  0  0  0  0  0  0  0  0  0  0
    8.1034  -10.3797    0.0000 C   0  0  0  0  0  0  0  0  0  0  0  0
    8.9078  -10.5633    0.0000 C   0  0  2  0  0  0  0  0  0  0  0  0
    8.1034   -8.8931    0.0000 C   0  0  0  0  0  0  0  0  0  0  0  0
    8.9078   -8.7095    0.0000 C   0  0  1  0  0  0  0  0  0  0  0  0
    9.5528   -9.2239    0.0000 C   0  0  0  0  0  0  0  0  0  0  0  0
    9.5528  -10.0489    0.0000 C   0  0  0  0  0  0  0  0  0  0  0  0
    8.3731   -9.6373    0.0000 N   0  0  0  0  0  0  0  0  0  0  0  0
    7.5979   -9.3552    0.0000 C   0  0  0  0  0  0  0  0  0  0  0  0
   10.2672   -9.6364    0.0000 O   0  0  0  0  0  0  0  0  0  0  0  0
    6.9205   -9.6364    0.0000 O   0  0  0  0  0  0  0  0  0  0  0  0
    6.5080   -8.9219    0.0000 C   0  0  0  0  0  0  0  0  0  0  0  0
    6.9205   -8.2075    0.0000 O   0  0  0  0  0  0  0  0  0  0  0  0
    5.6830   -8.9219    0.0000 C   0  0  0  0  0  0  0  0  0  0  0  0
    5.2705   -8.2075    0.0000 C   0  0  0  0  0  0  0  0  0  0  0  0
    4.4455   -8.2075    0.0000 C   0  0  0  0  0  0  0  0  0  0  0  0
    4.0330   -7.4930    0.0000 C   0  0  0  0  0  0  0  0  0  0  0  0
    4.4455   -6.7785    0.0000 C   0  0  0  0  0  0  0  0  0  0  0  0
    5.2705   -6.7785    0.0000 C   0  0  0  0  0  0  0  0  0  0  0  0
    5.6830   -7.4930    0.0000 C   0  0  0  0  0  0  0  0  0  0  0  0
    9.0913   -7.9052    0.0000 H   0  0  0  0  0  0  0  0  0  0  0  0
    9.0913  -11.3676    0.0000 H   0  0  0  0  0  0  0  0  0  0  0  0
  1  2  1  0  0  0  0
  2  3  1  0  0  0  0
  1  4  1  0  0  0  0
  4  5  1  0  0  0  0
  5  6  1  0  0  0  0
  6  7  1  0  0  0  0
  3  7  1  0  0  0  0
  5  8  1  0  0  0  0
  3  8  1  0  0  0  0
  8  9  1  0  0  0  0
  6 10  1  0  0  0  0
  7 10  1  0  0  0  0
 12 13  2  0  0  0  0
 12 14  1  0  0  0  0
 11 12  1  0  0  0  0
 15 16  1  0  0  0  0
 16 17  2  0  0  0  0
 17 18  1  0  0  0  0
 18 19  2  0  0  0  0
 19 20  1  0  0  0  0
 15 20  2  0  0  0  0
 14 15  1  0  0  0  0
  1 11  1  0  0  0  0
  5 21  1  6  0  0  0
  3 22  1  6  0  0  0
M  END
>  <cdx:fragmentId>
5

$$$$
