5136.cdx
  Mrv1902 05222410222D          

 21 23  0  0  0  0            999 V2000
    9.1447  -10.2847    0.0000 H   0  0  0  0  0  0  0  0  0  0  0  0
    9.1447   -6.8223    0.0000 H   0  0  0  0  0  0  0  0  0  0  0  0
    9.6062   -8.1410    0.0000 C   0  0  0  0  0  0  0  0  0  0  0  0
    9.6062   -8.9660    0.0000 C   0  0  0  0  0  0  0  0  0  0  0  0
    8.9612   -9.4803    0.0000 C   0  0  1  0  0  0  0  0  0  0  0  0
    8.1568   -9.2968    0.0000 C   0  0  0  0  0  0  0  0  0  0  0  0
    7.7989   -8.5535    0.0000 C   0  0  0  0  0  0  0  0  0  0  0  0
    8.1568   -7.8102    0.0000 C   0  0  0  0  0  0  0  0  0  0  0  0
    8.9612   -7.6266    0.0000 C   0  0  2  0  0  0  0  0  0  0  0  0
    4.4989   -7.1245    0.0000 C   0  0  0  0  0  0  0  0  0  0  0  0
    4.0864   -6.4101    0.0000 C   0  0  0  0  0  0  0  0  0  0  0  0
    4.4989   -5.6956    0.0000 C   0  0  0  0  0  0  0  0  0  0  0  0
    5.3239   -5.6956    0.0000 C   0  0  0  0  0  0  0  0  0  0  0  0
    5.7364   -6.4101    0.0000 C   0  0  0  0  0  0  0  0  0  0  0  0
    5.3239   -7.1245    0.0000 C   0  0  0  0  0  0  0  0  0  0  0  0
    6.9739   -8.5535    0.0000 O   0  0  0  0  0  0  0  0  0  0  0  0
    6.9739   -7.1245    0.0000 O   0  0  0  0  0  0  0  0  0  0  0  0
    5.7364   -7.8390    0.0000 C   0  0  0  0  0  0  0  0  0  0  0  0
    6.5614   -7.8390    0.0000 C   0  0  0  0  0  0  0  0  0  0  0  0
    8.4112   -8.5061    0.0000 N   0  0  0  0  0  0  0  0  0  0  0  0
    7.6005   -8.2100    0.0000 C   0  0  0  0  0  0  0  0  0  0  0  0
  5  1  1  6  0  0  0
  9  2  1  6  0  0  0
 16  7  1  0  0  0  0
  9  3  1  0  0  0  0
  4  3  1  0  0  0  0
  5  4  1  0  0  0  0
  6  5  1  0  0  0  0
  7  6  1  0  0  0  0
  8  7  1  0  0  0  0
  9  8  1  0  0  0  0
 18 15  1  0  0  0  0
 15 10  2  0  0  0  0
 11 10  1  0  0  0  0
 12 11  2  0  0  0  0
 13 12  1  0  0  0  0
 14 13  2  0  0  0  0
 15 14  1  0  0  0  0
 19 16  1  0  0  0  0
 19 17  2  0  0  0  0
 19 18  1  0  0  0  0
  9 20  1  0  0  0  0
  5 20  1  0  0  0  0
 20 21  1  0  0  0  0
M  END
>  <cdx:fragmentId>
13

$$$$
