5137.cdx
  Mrv1902 05222410232D          

 13 13  0  0  0  0            999 V2000
    5.4879   -3.3619    0.0000 C   0  0  0  0  0  0  0  0  0  0  0  0
    4.7735   -2.9494    0.0000 C   0  0  0  0  0  0  0  0  0  0  0  0
    4.0590   -3.3619    0.0000 C   0  0  0  0  0  0  0  0  0  0  0  0
    4.0590   -4.1869    0.0000 C   0  0  0  0  0  0  0  0  0  0  0  0
    4.7735   -4.5994    0.0000 C   0  0  0  0  0  0  0  0  0  0  0  0
    9.0603   -5.4244    0.0000 O   0  0  0  0  0  0  0  0  0  0  0  0
    5.4879   -4.1869    0.0000 C   0  0  0  0  0  0  0  0  0  0  0  0
    6.2024   -4.5994    0.0000 C   0  0  0  0  0  0  0  0  0  0  0  0
    6.9169   -4.1869    0.0000 C   0  0  0  0  0  0  0  0  0  0  0  0
    7.6314   -4.5994    0.0000 C   0  0  0  0  0  0  0  0  0  0  0  0
    8.3458   -4.1869    0.0000 O   0  0  0  0  0  0  0  0  0  0  0  0
    9.0603   -4.5994    0.0000 C   0  0  0  0  0  0  0  0  0  0  0  0
    9.7748   -4.1869    0.0000 C   0  0  0  0  0  0  0  0  0  0  0  0
  1  7  1  0  0  0  0
  2  1  2  0  0  0  0
  3  2  1  0  0  0  0
  4  3  2  0  0  0  0
  5  4  1  0  0  0  0
  7  5  2  0  0  0  0
 12  6  2  0  0  0  0
  8  7  1  0  0  0  0
  9  8  1  0  0  0  0
 10  9  1  0  0  0  0
 11 10  1  0  0  0  0
 12 11  1  0  0  0  0
 13 12  1  0  0  0  0
M  END
>  <cdx:fragmentId>
3

$$$$
