513838.cdx
  Mrv1902 05222410202D          

 38 44  0  0  0  0            999 V2000
    8.7244   -9.5529    0.0000 C   0  0  0  0  0  0  0  0  0  0  0  0
    8.2395  -10.2203    0.0000 C   0  0  2  0  0  0  0  0  0  0  0  0
    7.4549   -9.9654    0.0000 C   0  0  1  0  0  0  0  0  0  0  0  0
    6.7404  -10.3779    0.0000 C   0  0  2  0  0  0  0  0  0  0  0  0
    6.7404  -11.2029    0.0000 C   0  0  0  0  0  0  0  0  0  0  0  0
    6.0259  -11.6154    0.0000 C   0  0  0  0  0  0  0  0  0  0  0  0
    5.3115  -11.2029    0.0000 C   0  0  0  0  0  0  0  0  0  0  0  0
    4.5970  -11.6154    0.0000 C   0  0  0  0  0  0  0  0  0  0  0  0
    3.8825  -11.2029    0.0000 C   0  0  2  0  0  0  0  0  0  0  0  0
    3.8825  -10.3779    0.0000 C   0  0  0  0  0  0  0  0  0  0  0  0
    4.5970   -9.9654    0.0000 C   0  0  0  0  0  0  0  0  0  0  0  0
    5.3115  -10.3779    0.0000 C   0  0  1  0  0  0  0  0  0  0  0  0
    5.3115   -9.5529    0.0000 C   0  0  0  0  0  0  0  0  0  0  0  0
    6.0259   -9.9654    0.0000 C   0  0  1  0  0  0  0  0  0  0  0  0
    6.0259   -9.1404    0.0000 C   0  0  0  0  0  0  0  0  0  0  0  0
    6.7404   -8.7279    0.0000 C   0  0  0  0  0  0  0  0  0  0  0  0
    7.4549   -9.1404    0.0000 C   0  0  2  0  0  0  0  0  0  0  0  0
    8.2395   -8.8855    0.0000 C   0  0  0  0  0  0  0  0  0  0  0  0
    8.4590   -8.0902    0.0000 C   0  0  0  0  0  0  0  0  0  0  0  0
    9.2176   -7.7659    0.0000 C   0  0  0  0  0  0  0  0  0  0  0  0
    9.9441   -8.1569    0.0000 C   0  0  1  0  0  0  0  0  0  0  0  0
   10.0914   -8.9686    0.0000 C   0  0  1  0  0  0  0  0  0  0  0  0
    9.5486   -9.5899    0.0000 O   0  0  0  0  0  0  0  0  0  0  0  0
    8.9323   -8.5024    0.0000 O   0  0  0  0  0  0  0  0  0  0  0  0
    8.4944  -11.0050    0.0000 O   0  0  0  0  0  0  0  0  0  0  0  0
    3.1681  -11.6154    0.0000 O   0  0  0  0  0  0  0  0  0  0  0  0
    7.8377   -7.5474    0.0000 C   0  0  0  0  0  0  0  0  0  0  0  0
    7.4549   -8.3154    0.0000 C   0  0  0  0  0  0  0  0  0  0  0  0
    5.0095  -12.3299    0.0000 C   0  0  0  0  0  0  0  0  0  0  0  0
    4.1845  -12.3299    0.0000 C   0  0  0  0  0  0  0  0  0  0  0  0
    7.4549  -10.7904    0.0000 C   0  0  0  0  0  0  0  0  0  0  0  0
   10.6731   -9.9850    0.0000 C   0  0  0  0  0  0  0  0  0  0  0  0
   10.8867   -9.1881    0.0000 C   0  0  0  0  0  0  0  0  0  0  0  0
   11.1002   -8.3912    0.0000 C   0  0  0  0  0  0  0  0  0  0  0  0
   11.6819   -9.4076    0.0000 O   0  0  0  0  0  0  0  0  0  0  0  0
    6.7404   -9.5529    0.0000 H   0  0  0  0  0  0  0  0  0  0  0  0
   10.6115   -7.6720    0.0000 H   0  0  0  0  0  0  0  0  0  0  0  0
   10.2387   -9.7804    0.0000 H   0  0  0  0  0  0  0  0  0  0  0  0
  1  2  1  0  0  0  0
  2  3  1  0  0  0  0
  3  4  1  0  0  0  0
  4  5  1  0  0  0  0
  5  6  1  0  0  0  0
  6  7  1  0  0  0  0
  7  8  1  0  0  0  0
  8  9  1  0  0  0  0
  9 10  1  0  0  0  0
 10 11  1  0  0  0  0
 11 12  1  0  0  0  0
 12 13  1  1  0  0  0
 14 13  1  1  0  0  0
 14 15  1  0  0  0  0
 15 16  1  0  0  0  0
 16 17  1  0  0  0  0
 17 18  1  0  0  0  0
 18 19  1  0  0  0  0
 19 20  1  0  0  0  0
 20 21  1  0  0  0  0
 21 22  1  0  0  0  0
 22 23  1  0  0  0  0
  1 23  1  0  0  0  0
  1 24  1  0  0  0  0
 21 24  1  0  0  0  0
  1 18  1  0  0  0  0
  3 17  1  0  0  0  0
 12 14  1  0  0  0  0
  4 14  1  0  0  0  0
  7 12  1  0  0  0  0
  2 25  1  1  0  0  0
  9 26  1  1  0  0  0
 19 27  1  0  0  0  0
 17 28  1  1  0  0  0
  8 29  1  0  0  0  0
  8 30  1  0  0  0  0
  3 31  1  6  0  0  0
 32 33  1  0  0  0  0
 33 34  1  0  0  0  0
 33 35  1  0  0  0  0
 22 33  1  0  0  0  0
  4 36  1  1  0  0  0
 21 37  1  6  0  0  0
 22 38  1  1  0  0  0
M  END
>  <cdx:fragmentId>
14009

$$$$
