513925.cdx
  Mrv1902 05222410252D          

 14 14  0  0  0  0            999 V2000
    5.8762   -7.9063    0.0000 C   0  0  0  0  0  0  0  0  0  0  0  0
    5.8762   -8.7313    0.0000 C   0  0  0  0  0  0  0  0  0  0  0  0
    6.5906   -9.1438    0.0000 C   0  0  0  0  0  0  0  0  0  0  0  0
    7.3051   -8.7313    0.0000 C   0  0  0  0  0  0  0  0  0  0  0  0
    7.3051   -7.9063    0.0000 C   0  0  0  0  0  0  0  0  0  0  0  0
    6.5906   -7.4937    0.0000 C   0  0  0  0  0  0  0  0  0  0  0  0
    6.5906   -9.9688    0.0000 O   0  0  0  0  0  0  0  0  0  0  0  0
    6.1781   -6.7793    0.0000 O   0  0  0  0  0  0  0  0  0  0  0  0
    7.0031   -6.7793    0.0000 C   0  0  0  0  0  0  0  0  0  0  0  0
    7.8281   -6.7793    0.0000 C   0  0  0  0  0  0  0  0  0  0  0  0
    8.2406   -6.0648    0.0000 O   0  0  0  0  0  0  0  0  0  0  0  0
    9.0656   -6.0648    0.0000 C   0  0  0  0  0  0  0  0  0  0  0  0
    9.4781   -5.3503    0.0000 C   0  0  0  0  0  0  0  0  0  0  0  0
    9.4781   -6.7793    0.0000 O   0  0  0  0  0  0  0  0  0  0  0  0
  1  2  2  0  0  0  0
  2  3  1  0  0  0  0
  3  4  1  0  0  0  0
  4  5  2  0  0  0  0
  5  6  1  0  0  0  0
  6  1  1  0  0  0  0
  3  7  2  0  0  0  0
  6  8  1  0  0  0  0
  6  9  1  0  0  0  0
  9 10  1  0  0  0  0
 10 11  1  0  0  0  0
 11 12  1  0  0  0  0
 12 13  1  0  0  0  0
 12 14  2  0  0  0  0
M  END
>  <cdx:fragmentId>
40

$$$$
