514480.cdx
  Mrv1902 05222410252D          

 18 18  0  0  0  0            999 V2000
    8.0252   -8.3241    0.0000 C   0  0  0  0  0  0  0  0  0  0  0  0
    7.3077   -8.7312    0.0000 C   0  0  0  0  0  0  0  0  0  0  0  0
    7.3015   -9.5562    0.0000 O   0  0  0  0  0  0  0  0  0  0  0  0
    8.7489   -7.0919    0.0000 C   0  0  0  0  0  0  0  0  0  0  0  0
    7.2891  -11.2061    0.0000 O   0  0  0  0  0  0  0  0  0  0  0  0
    5.8541  -12.0204    0.0000 O   0  0  0  0  0  0  0  0  0  0  0  0
    4.4313  -11.1847    0.0000 O   0  0  0  0  0  0  0  0  0  0  0  0
    3.7262   -9.9419    0.0000 O   0  0  0  0  0  0  0  0  0  0  0  0
    4.4437   -9.5348    0.0000 C   0  0  0  0  0  0  0  0  0  0  0  0
    5.1551   -9.9526    0.0000 C   0  0  2  0  0  0  0  0  0  0  0  0
    5.1489  -10.7776    0.0000 C   0  0  2  0  0  0  0  0  0  0  0  0
    5.8602  -11.1954    0.0000 C   0  0  1  0  0  0  0  0  0  0  0  0
    6.5778  -10.7883    0.0000 C   0  0  2  0  0  0  0  0  0  0  0  0
    6.5840   -9.9633    0.0000 C   0  0  1  0  0  0  0  0  0  0  0  0
    5.8726   -9.5455    0.0000 O   0  0  0  0  0  0  0  0  0  0  0  0
    6.6087   -6.6634    0.0000 N   0  0  0  0  0  0  0  0  0  0  0  0
    8.0314   -7.4991    0.0000 C   0  0  0  0  0  0  0  0  0  0  0  0
    7.3200   -7.0812    0.0000 C   0  0  0  0  0  0  0  0  0  0  0  0
 17  4  1  0  0  0  0
 18 16  3  0  0  0  0
 14  3  1  1  0  0  0
 13  5  1  6  0  0  0
 12  6  1  1  0  0  0
 11  7  1  6  0  0  0
 10  9  1  1  0  0  0
  9  8  1  0  0  0  0
 15 10  1  0  0  0  0
 11 10  1  0  0  0  0
 12 11  1  0  0  0  0
 13 12  1  0  0  0  0
 14 13  1  0  0  0  0
 15 14  1  0  0  0  0
 18 17  1  0  0  0  0
 17  1  2  0  0  0  0
  1  2  1  0  0  0  0
  2  3  1  0  0  0  0
M  END
>  <cdx:groupId>
2654

>  <cdx:fragmentId>
2615

$$$$
