5144.cdx
  Mrv1902 05222410182D          

 12 13  0  0  0  0            999 V2000
    6.4428   -5.0122    0.0000 C   0  0  0  0  0  0  0  0  0  0  0  0
    6.4428   -5.8372    0.0000 C   0  0  0  0  0  0  0  0  0  0  0  0
    5.7284   -6.2497    0.0000 C   0  0  0  0  0  0  0  0  0  0  0  0
    5.0139   -5.8372    0.0000 C   0  0  0  0  0  0  0  0  0  0  0  0
    5.0139   -5.0122    0.0000 C   0  0  0  0  0  0  0  0  0  0  0  0
    5.7284   -4.5997    0.0000 C   0  0  0  0  0  0  0  0  0  0  0  0
    7.7124   -5.4247    0.0000 C   0  0  0  0  0  0  0  0  0  0  0  0
    7.2275   -4.7573    0.0000 O   0  0  0  0  0  0  0  0  0  0  0  0
    7.2275   -6.0922    0.0000 O   0  0  0  0  0  0  0  0  0  0  0  0
    4.2994   -6.2497    0.0000 C   0  0  0  0  0  0  0  0  0  0  0  0
    3.5850   -5.8372    0.0000 C   0  0  0  0  0  0  0  0  0  0  0  0
    2.8705   -6.2497    0.0000 C   0  0  0  0  0  0  0  0  0  0  0  0
  1  2  1  0  0  0  0
  2  3  2  0  0  0  0
  3  4  1  0  0  0  0
  4  5  2  0  0  0  0
  5  6  1  0  0  0  0
  1  6  2  0  0  0  0
  7  8  1  0  0  0  0
  7  9  1  0  0  0  0
  1  8  1  0  0  0  0
  2  9  1  0  0  0  0
 10 11  1  0  0  0  0
 11 12  2  0  0  0  0
  4 10  1  0  0  0  0
M  END
>  <cdx:groupId>
39

>  <cdx:fragmentId>
5

$$$$
