515.cdx
  Mrv1902 05222410192D          

 14 13  0  0  0  0            999 V2000
    7.0311   -7.6695    0.0000 C   0  0  0  0  0  0  0  0  0  0  0  0
    7.7500   -8.0741    0.0000 C   0  0  0  0  0  0  0  0  0  0  0  0
    4.8923   -8.1054    0.0000 O   0  0  0  0  0  0  0  0  0  0  0  0
    9.1789   -8.0585    0.0000 O   0  0  0  0  0  0  0  0  0  0  0  0
    7.0311   -8.4945    0.0000 O   0  0  0  0  0  0  0  0  0  0  0  0
    5.5932   -6.8602    0.0000 O   0  0  0  0  0  0  0  0  0  0  0  0
    6.3212   -8.0898    0.0000 C   0  0  0  0  0  0  0  0  0  0  0  0
    5.6022   -7.6851    0.0000 C   0  0  0  0  0  0  0  0  0  0  0  0
    8.4509   -6.8289    0.0000 O   0  0  0  0  0  0  0  0  0  0  0  0
    8.4600   -7.6538    0.0000 C   0  0  0  0  0  0  0  0  0  0  0  0
    6.2941   -5.6149    0.0000 C   0  0  0  0  0  0  0  0  0  0  0  0
    6.3031   -6.4399    0.0000 O   0  0  0  0  0  0  0  0  0  0  0  0
    7.7320   -6.4242    0.0000 O   0  0  0  0  0  0  0  0  0  0  0  0
    7.0221   -6.8445    0.0000 C   0  0  0  0  0  0  0  0  0  0  0  0
  8  3  1  0  0  0  0
  8  6  2  0  0  0  0
 10  4  1  0  0  0  0
  8  7  1  0  0  0  0
 10  9  2  0  0  0  0
 14 12  1  0  0  0  0
 12 11  1  0  0  0  0
 14 13  2  0  0  0  0
  7  1  1  0  0  0  0
  1  2  1  0  0  0  0
  2 10  1  0  0  0  0
  1  5  1  0  0  0  0
  1 14  1  0  0  0  0
M  END
>  <cdx:fragmentId>
127101

$$$$
