51597.cdx
  Mrv1902 05222410212D          

 86 95  0  0  0  0            999 V2000
   17.2345   -5.0050    0.0000 C   0  0  0  0  0  0  0  0  0  0  0  0
   17.9490   -4.5925    0.0000 C   0  0  0  0  0  0  0  0  0  0  0  0
   18.6635   -5.0050    0.0000 C   0  0  0  0  0  0  0  0  0  0  0  0
   18.6635   -5.8300    0.0000 C   0  0  0  0  0  0  0  0  0  0  0  0
   17.9490   -6.2425    0.0000 C   0  0  2  0  0  0  0  0  0  0  0  0
   17.9490   -7.0675    0.0000 C   0  0  0  0  0  0  0  0  0  0  0  0
   17.2345   -7.4800    0.0000 C   0  0  0  0  0  0  0  0  0  0  0  0
   16.5200   -7.0675    0.0000 C   0  0  1  0  0  0  0  0  0  0  0  0
   15.8056   -7.4800    0.0000 C   0  0  2  0  0  0  0  0  0  0  0  0
   15.8056   -8.3050    0.0000 C   0  0  0  0  0  0  0  0  0  0  0  0
   15.0911   -8.7175    0.0000 C   0  0  0  0  0  0  0  0  0  0  0  0
   14.3766   -8.3050    0.0000 C   0  0  1  0  0  0  0  0  0  0  0  0
   13.6622   -8.7175    0.0000 C   0  0  0  0  0  0  0  0  0  0  0  0
   12.9477   -8.3050    0.0000 C   0  0  2  0  0  0  0  0  0  0  0  0
   12.9477   -7.4800    0.0000 C   0  0  0  0  0  0  0  0  0  0  0  0
   13.6622   -7.0675    0.0000 C   0  0  0  0  0  0  0  0  0  0  0  0
   14.3766   -7.4800    0.0000 C   0  0  2  0  0  0  0  0  0  0  0  0
   15.0911   -7.0675    0.0000 C   0  0  1  0  0  0  0  0  0  0  0  0
   15.0911   -6.2425    0.0000 C   0  0  0  0  0  0  0  0  0  0  0  0
   15.8056   -5.8300    0.0000 C   0  0  0  0  0  0  0  0  0  0  0  0
   16.5200   -6.2425    0.0000 C   0  0  0  0  0  0  0  0  0  0  0  0
   17.2345   -5.8300    0.0000 C   0  0  2  0  0  0  0  0  0  0  0  0
   18.6635   -6.6550    0.0000 C   0  0  0  0  0  0  0  0  0  0  0  0
   18.6635   -7.4800    0.0000 O   0  0  0  0  0  0  0  0  0  0  0  0
   14.0747   -9.4319    0.0000 C   0  0  0  0  0  0  0  0  0  0  0  0
   13.2497   -9.4319    0.0000 C   0  0  0  0  0  0  0  0  0  0  0  0
   17.5365   -3.8780    0.0000 C   0  0  0  0  0  0  0  0  0  0  0  0
   18.3615   -3.8780    0.0000 C   0  0  0  0  0  0  0  0  0  0  0  0
   12.2332   -8.7175    0.0000 O   0  0  0  0  0  0  0  0  0  0  0  0
   11.5187   -7.4800    0.0000 O   0  0  0  0  0  0  0  0  0  0  0  0
   11.5187   -8.3050    0.0000 C   0  0  2  0  0  0  0  0  0  0  0  0
   10.8043   -8.7175    0.0000 C   0  0  1  0  0  0  0  0  0  0  0  0
   10.0898   -8.3050    0.0000 C   0  0  2  0  0  0  0  0  0  0  0  0
   10.0898   -7.4800    0.0000 C   0  0  2  0  0  0  0  0  0  0  0  0
   10.8043   -7.0675    0.0000 C   0  0  0  0  0  0  0  0  0  0  0  0
    9.3753   -7.0675    0.0000 O   0  0  0  0  0  0  0  0  0  0  0  0
    9.3753   -8.7175    0.0000 O   0  0  0  0  0  0  0  0  0  0  0  0
   10.8043   -9.5425    0.0000 O   0  0  0  0  0  0  0  0  0  0  0  0
    9.3753   -9.5425    0.0000 O   0  0  0  0  0  0  0  0  0  0  0  0
   10.0898   -9.9550    0.0000 C   0  0  2  0  0  0  0  0  0  0  0  0
   10.0898  -10.7800    0.0000 C   0  0  1  0  0  0  0  0  0  0  0  0
    9.3753  -11.1925    0.0000 C   0  0  2  0  0  0  0  0  0  0  0  0
    8.6609  -10.7800    0.0000 C   0  0  1  0  0  0  0  0  0  0  0  0
    8.6609   -9.9550    0.0000 C   0  0  0  0  0  0  0  0  0  0  0  0
    7.9464  -11.1925    0.0000 O   0  0  0  0  0  0  0  0  0  0  0  0
   10.8043  -11.1925    0.0000 O   0  0  0  0  0  0  0  0  0  0  0  0
   14.3766   -9.1300    0.0000 H   0  0  0  0  0  0  0  0  0  0  0  0
   17.2345   -6.6550    0.0000 H   0  0  0  0  0  0  0  0  0  0  0  0
   21.5284   -9.1247    0.0000 O   0  0  0  0  0  0  0  0  0  0  0  0
   20.7976  -10.3526    0.0000 O   0  0  0  0  0  0  0  0  0  0  0  0
   21.5175   -9.9496    0.0000 C   0  0  2  0  0  0  0  0  0  0  0  0
   22.2265  -10.3715    0.0000 C   0  0  1  0  0  0  0  0  0  0  0  0
   22.2155  -11.1965    0.0000 C   0  0  2  0  0  0  0  0  0  0  0  0
   21.4957  -11.5995    0.0000 C   0  0  1  0  0  0  0  0  0  0  0  0
   20.7867  -11.1776    0.0000 C   0  0  1  0  0  0  0  0  0  0  0  0
   20.0669  -11.5806    0.0000 C   0  0  0  0  0  0  0  0  0  0  0  0
   19.3524  -11.1681    0.0000 O   0  0  0  0  0  0  0  0  0  0  0  0
   22.9245  -11.6184    0.0000 O   0  0  0  0  0  0  0  0  0  0  0  0
   22.9463   -9.9685    0.0000 O   0  0  0  0  0  0  0  0  0  0  0  0
    9.3753  -12.0175    0.0000 O   0  0  0  0  0  0  0  0  0  0  0  0
   21.4865  -14.0744    0.0000 O   0  0  0  0  0  0  0  0  0  0  0  0
   20.0584  -14.9009    0.0000 O   0  0  0  0  0  0  0  0  0  0  0  0
   18.6286  -14.0774    0.0000 O   0  0  0  0  0  0  0  0  0  0  0  0
   18.6269  -12.4274    0.0000 C   0  0  0  0  0  0  0  0  0  0  0  0
   19.3418  -12.8391    0.0000 C   0  0  1  0  0  0  0  0  0  0  0  0
   19.3426  -13.6641    0.0000 C   0  0  1  0  0  0  0  0  0  0  0  0
   20.0575  -14.0759    0.0000 C   0  0  2  0  0  0  0  0  0  0  0  0
   20.7716  -13.6627    0.0000 C   0  0  2  0  0  0  0  0  0  0  0  0
   20.7707  -12.8377    0.0000 C   0  0  1  0  0  0  0  0  0  0  0  0
   20.0558  -12.4259    0.0000 O   0  0  0  0  0  0  0  0  0  0  0  0
   21.4848  -12.4244    0.0000 O   0  0  0  0  0  0  0  0  0  0  0  0
   20.8130   -8.7140    0.0000 C   0  0  0  0  0  0  0  0  0  0  0  0
   20.8048   -5.4140    0.0000 O   0  0  0  0  0  0  0  0  0  0  0  0
   22.2358   -6.2354    0.0000 O   0  0  0  0  0  0  0  0  0  0  0  0
   22.2399   -7.8854    0.0000 O   0  0  0  0  0  0  0  0  0  0  0  0
   20.8109   -7.8890    0.0000 C   0  0  2  0  0  0  0  0  0  0  0  0
   21.5244   -7.4747    0.0000 C   0  0  2  0  0  0  0  0  0  0  0  0
   21.5223   -6.6497    0.0000 C   0  0  1  0  0  0  0  0  0  0  0  0
   20.8069   -6.2390    0.0000 C   0  0  2  0  0  0  0  0  0  0  0  0
   20.0934   -6.6532    0.0000 C   0  0  1  0  0  0  0  0  0  0  0  0
   20.0954   -7.4782    0.0000 O   0  0  0  0  0  0  0  0  0  0  0  0
   19.3779   -6.2425    0.0000 O   0  0  0  0  0  0  0  0  0  0  0  0
   14.3766   -6.6550    0.0000 C   0  0  0  0  0  0  0  0  0  0  0  0
   15.8056   -6.6550    0.0000 C   0  0  0  0  0  0  0  0  0  0  0  0
   16.5200   -7.8925    0.0000 C   0  0  0  0  0  0  0  0  0  0  0  0
   15.0911   -7.8925    0.0000 H   0  0  0  0  0  0  0  0  0  0  0  0
 80 82  1  1  0  0  0
 76 72  1  1  0  0  0
 72 49  1  0  0  0  0
 69 71  1  1  0  0  0
 68 61  1  6  0  0  0
 67 62  1  6  0  0  0
 66 63  1  1  0  0  0
 65 64  1  6  0  0  0
 70 65  1  0  0  0  0
 66 65  1  0  0  0  0
 67 66  1  0  0  0  0
 68 67  1  0  0  0  0
 69 68  1  0  0  0  0
 70 69  1  0  0  0  0
 50 51  1  0  0  0  0
 79 73  1  6  0  0  0
 78 74  1  1  0  0  0
 77 75  1  6  0  0  0
 81 76  1  0  0  0  0
 77 76  1  0  0  0  0
 78 77  1  0  0  0  0
 79 78  1  0  0  0  0
  1  2  1  0  0  0  0
  2  3  1  0  0  0  0
  3  4  1  0  0  0  0
  4  5  1  0  0  0  0
  5  6  1  0  0  0  0
  6  7  1  0  0  0  0
  7  8  1  0  0  0  0
  8  9  1  0  0  0  0
  9 10  1  0  0  0  0
 10 11  1  0  0  0  0
 11 12  1  0  0  0  0
 12 13  1  0  0  0  0
 13 14  1  0  0  0  0
 14 15  1  0  0  0  0
 15 16  1  0  0  0  0
 16 17  1  0  0  0  0
 12 17  1  0  0  0  0
 17 18  1  0  0  0  0
  9 18  1  0  0  0  0
 18 19  1  0  0  0  0
 19 20  1  0  0  0  0
 20 21  2  0  0  0  0
  8 21  1  0  0  0  0
 21 22  1  0  0  0  0
  5 22  1  0  0  0  0
  1 22  1  0  0  0  0
 23 24  2  0  0  0  0
 23 82  1  0  0  0  0
  5 23  1  1  0  0  0
 13 25  1  0  0  0  0
 13 26  1  0  0  0  0
  2 27  1  0  0  0  0
  2 28  1  0  0  0  0
 30 31  1  0  0  0  0
 31 32  1  0  0  0  0
 32 33  1  0  0  0  0
 33 34  1  0  0  0  0
 34 35  1  0  0  0  0
 30 35  1  0  0  0  0
 34 36  1  1  0  0  0
 33 37  1  1  0  0  0
 39 40  1  0  0  0  0
 40 41  1  0  0  0  0
 41 42  1  0  0  0  0
 42 43  1  0  0  0  0
 43 44  1  0  0  0  0
 39 44  1  0  0  0  0
 43 45  1  6  0  0  0
 41 46  1  6  0  0  0
 42 60  1  1  0  0  0
 40 38  1  1  0  0  0
 32 38  1  6  0  0  0
 31 29  1  1  0  0  0
 14 29  1  1  0  0  0
 12 47  1  6  0  0  0
 22 48  1  1  0  0  0
 80 79  1  0  0  0  0
 81 80  1  0  0  0  0
 51 52  1  0  0  0  0
 52 53  1  0  0  0  0
 53 54  1  0  0  0  0
 54 55  1  0  0  0  0
 50 55  1  0  0  0  0
 54 71  1  6  0  0  0
 56 57  1  0  0  0  0
 55 56  1  1  0  0  0
 53 58  1  1  0  0  0
 52 59  1  6  0  0  0
 51 49  1  1  0  0  0
 17 83  1  1  0  0  0
  9 84  1  1  0  0  0
  8 85  1  6  0  0  0
 18 86  1  6  0  0  0
M  END
>  <cdx:fragmentId>
181457

$$$$
