51591.cdx
  Mrv1902 05222410222D          

 82 90  0  0  0  0            999 V2000
   17.2345   -4.8675    0.0000 C   0  0  0  0  0  0  0  0  0  0  0  0
   17.9490   -4.4550    0.0000 C   0  0  0  0  0  0  0  0  0  0  0  0
   18.6635   -4.8675    0.0000 C   0  0  0  0  0  0  0  0  0  0  0  0
   18.6635   -5.6925    0.0000 C   0  0  0  0  0  0  0  0  0  0  0  0
   17.9490   -6.1050    0.0000 C   0  0  2  0  0  0  0  0  0  0  0  0
   17.9490   -6.9300    0.0000 C   0  0  0  0  0  0  0  0  0  0  0  0
   17.2345   -7.3425    0.0000 C   0  0  0  0  0  0  0  0  0  0  0  0
   16.5200   -6.9300    0.0000 C   0  0  1  0  0  0  0  0  0  0  0  0
   15.8056   -7.3425    0.0000 C   0  0  2  0  0  0  0  0  0  0  0  0
   15.8056   -8.1675    0.0000 C   0  0  0  0  0  0  0  0  0  0  0  0
   15.0911   -8.5800    0.0000 C   0  0  0  0  0  0  0  0  0  0  0  0
   14.3766   -8.1675    0.0000 C   0  0  1  0  0  0  0  0  0  0  0  0
   13.6622   -8.5800    0.0000 C   0  0  0  0  0  0  0  0  0  0  0  0
   12.9477   -8.1675    0.0000 C   0  0  2  0  0  0  0  0  0  0  0  0
   12.9477   -7.3425    0.0000 C   0  0  0  0  0  0  0  0  0  0  0  0
   13.6622   -6.9300    0.0000 C   0  0  0  0  0  0  0  0  0  0  0  0
   14.3766   -7.3425    0.0000 C   0  0  2  0  0  0  0  0  0  0  0  0
   15.0911   -6.9300    0.0000 C   0  0  1  0  0  0  0  0  0  0  0  0
   15.0911   -6.1050    0.0000 C   0  0  0  0  0  0  0  0  0  0  0  0
   15.8056   -5.6925    0.0000 C   0  0  0  0  0  0  0  0  0  0  0  0
   16.5200   -6.1050    0.0000 C   0  0  0  0  0  0  0  0  0  0  0  0
   17.2345   -5.6925    0.0000 C   0  0  2  0  0  0  0  0  0  0  0  0
   18.6635   -6.5175    0.0000 C   0  0  0  0  0  0  0  0  0  0  0  0
   18.6635   -7.3425    0.0000 O   0  0  0  0  0  0  0  0  0  0  0  0
   14.0747   -9.2944    0.0000 C   0  0  0  0  0  0  0  0  0  0  0  0
   13.2497   -9.2944    0.0000 C   0  0  0  0  0  0  0  0  0  0  0  0
   17.5365   -3.7405    0.0000 C   0  0  0  0  0  0  0  0  0  0  0  0
   18.3615   -3.7405    0.0000 C   0  0  0  0  0  0  0  0  0  0  0  0
   12.2332   -8.5800    0.0000 O   0  0  0  0  0  0  0  0  0  0  0  0
   11.5187   -8.1675    0.0000 C   0  0  0  0  0  0  0  0  0  0  0  0
   14.3766   -8.9925    0.0000 H   0  0  0  0  0  0  0  0  0  0  0  0
   17.2345   -6.5175    0.0000 H   0  0  0  0  0  0  0  0  0  0  0  0
   21.5284   -8.9872    0.0000 O   0  0  0  0  0  0  0  0  0  0  0  0
   20.7976  -10.2151    0.0000 O   0  0  0  0  0  0  0  0  0  0  0  0
   21.5175   -9.8121    0.0000 C   0  0  2  0  0  0  0  0  0  0  0  0
   22.2265  -10.2340    0.0000 C   0  0  1  0  0  0  0  0  0  0  0  0
   22.2155  -11.0590    0.0000 C   0  0  2  0  0  0  0  0  0  0  0  0
   21.4957  -11.4620    0.0000 C   0  0  1  0  0  0  0  0  0  0  0  0
   20.7867  -11.0401    0.0000 C   0  0  1  0  0  0  0  0  0  0  0  0
   20.0669  -11.4431    0.0000 C   0  0  0  0  0  0  0  0  0  0  0  0
   19.3524  -11.0306    0.0000 O   0  0  0  0  0  0  0  0  0  0  0  0
   22.9245  -11.4809    0.0000 O   0  0  0  0  0  0  0  0  0  0  0  0
   22.9463   -9.8310    0.0000 O   0  0  0  0  0  0  0  0  0  0  0  0
   21.4865  -13.9369    0.0000 O   0  0  0  0  0  0  0  0  0  0  0  0
   20.0584  -14.7634    0.0000 O   0  0  0  0  0  0  0  0  0  0  0  0
   18.6286  -13.9399    0.0000 O   0  0  0  0  0  0  0  0  0  0  0  0
   18.6269  -12.2899    0.0000 C   0  0  0  0  0  0  0  0  0  0  0  0
   19.3418  -12.7016    0.0000 C   0  0  1  0  0  0  0  0  0  0  0  0
   19.3426  -13.5266    0.0000 C   0  0  1  0  0  0  0  0  0  0  0  0
   20.0575  -13.9384    0.0000 C   0  0  2  0  0  0  0  0  0  0  0  0
   20.7716  -13.5252    0.0000 C   0  0  2  0  0  0  0  0  0  0  0  0
   20.7707  -12.7002    0.0000 C   0  0  1  0  0  0  0  0  0  0  0  0
   20.0558  -12.2884    0.0000 O   0  0  0  0  0  0  0  0  0  0  0  0
   21.4848  -12.2869    0.0000 O   0  0  0  0  0  0  0  0  0  0  0  0
   20.8130   -8.5765    0.0000 C   0  0  0  0  0  0  0  0  0  0  0  0
   20.8048   -5.2765    0.0000 O   0  0  0  0  0  0  0  0  0  0  0  0
   22.2358   -6.0979    0.0000 O   0  0  0  0  0  0  0  0  0  0  0  0
   22.2399   -7.7479    0.0000 O   0  0  0  0  0  0  0  0  0  0  0  0
   20.8109   -7.7515    0.0000 C   0  0  2  0  0  0  0  0  0  0  0  0
   21.5244   -7.3372    0.0000 C   0  0  2  0  0  0  0  0  0  0  0  0
   21.5223   -6.5122    0.0000 C   0  0  1  0  0  0  0  0  0  0  0  0
   20.8069   -6.1015    0.0000 C   0  0  2  0  0  0  0  0  0  0  0  0
   20.0934   -6.5157    0.0000 C   0  0  1  0  0  0  0  0  0  0  0  0
   20.0954   -7.3407    0.0000 O   0  0  0  0  0  0  0  0  0  0  0  0
   19.3779   -6.1050    0.0000 O   0  0  0  0  0  0  0  0  0  0  0  0
   14.3766   -6.5175    0.0000 C   0  0  0  0  0  0  0  0  0  0  0  0
   15.8056   -6.5175    0.0000 C   0  0  0  0  0  0  0  0  0  0  0  0
   16.5200   -7.7550    0.0000 C   0  0  0  0  0  0  0  0  0  0  0  0
   15.0911   -7.7550    0.0000 H   0  0  0  0  0  0  0  0  0  0  0  0
   10.8043   -8.5800    0.0000 C   0  0  0  0  0  0  0  0  0  0  0  0
   11.5187   -7.3425    0.0000 O   0  0  0  0  0  0  0  0  0  0  0  0
   10.0898   -8.1675    0.0000 C   0  0  0  0  0  0  0  0  0  0  0  0
    9.3753   -8.5800    0.0000 C   0  0  0  0  0  0  0  0  0  0  0  0
    8.6609   -8.1675    0.0000 C   0  0  0  0  0  0  0  0  0  0  0  0
    7.9464   -8.5800    0.0000 C   0  0  0  0  0  0  0  0  0  0  0  0
    7.9464   -9.4050    0.0000 C   0  0  0  0  0  0  0  0  0  0  0  0
    8.6609   -9.8175    0.0000 C   0  0  0  0  0  0  0  0  0  0  0  0
    9.3753   -9.4050    0.0000 C   0  0  0  0  0  0  0  0  0  0  0  0
    7.2319   -9.8175    0.0000 O   0  0  0  0  0  0  0  0  0  0  0  0
    7.2319   -8.1675    0.0000 O   0  0  0  0  0  0  0  0  0  0  0  0
    6.5174   -9.4050    0.0000 C   0  0  0  0  0  0  0  0  0  0  0  0
    6.5174   -8.5800    0.0000 C   0  0  0  0  0  0  0  0  0  0  0  0
 63 65  1  1  0  0  0
 59 55  1  1  0  0  0
 55 33  1  0  0  0  0
 52 54  1  1  0  0  0
 51 44  1  6  0  0  0
 50 45  1  6  0  0  0
 49 46  1  1  0  0  0
 48 47  1  6  0  0  0
 53 48  1  0  0  0  0
 49 48  1  0  0  0  0
 50 49  1  0  0  0  0
 51 50  1  0  0  0  0
 52 51  1  0  0  0  0
 53 52  1  0  0  0  0
 34 35  1  0  0  0  0
 62 56  1  6  0  0  0
 61 57  1  1  0  0  0
 60 58  1  6  0  0  0
 64 59  1  0  0  0  0
 60 59  1  0  0  0  0
 61 60  1  0  0  0  0
 62 61  1  0  0  0  0
  1  2  1  0  0  0  0
  2  3  1  0  0  0  0
  3  4  1  0  0  0  0
  4  5  1  0  0  0  0
  5  6  1  0  0  0  0
  6  7  1  0  0  0  0
  7  8  1  0  0  0  0
  8  9  1  0  0  0  0
  9 10  1  0  0  0  0
 10 11  1  0  0  0  0
 11 12  1  0  0  0  0
 12 13  1  0  0  0  0
 13 14  1  0  0  0  0
 14 15  1  0  0  0  0
 15 16  1  0  0  0  0
 16 17  1  0  0  0  0
 12 17  1  0  0  0  0
 17 18  1  0  0  0  0
  9 18  1  0  0  0  0
 18 19  1  0  0  0  0
 19 20  1  0  0  0  0
 20 21  2  0  0  0  0
  8 21  1  0  0  0  0
 21 22  1  0  0  0  0
  5 22  1  0  0  0  0
  1 22  1  0  0  0  0
 23 24  2  0  0  0  0
 23 65  1  0  0  0  0
  5 23  1  1  0  0  0
 13 25  1  0  0  0  0
 13 26  1  0  0  0  0
  2 27  1  0  0  0  0
  2 28  1  0  0  0  0
 30 29  1  0  0  0  0
 14 29  1  1  0  0  0
 12 31  1  6  0  0  0
 22 32  1  1  0  0  0
 63 62  1  0  0  0  0
 64 63  1  0  0  0  0
 35 36  1  0  0  0  0
 36 37  1  0  0  0  0
 37 38  1  0  0  0  0
 38 39  1  0  0  0  0
 34 39  1  0  0  0  0
 38 54  1  6  0  0  0
 40 41  1  0  0  0  0
 39 40  1  1  0  0  0
 37 42  1  1  0  0  0
 36 43  1  6  0  0  0
 35 33  1  1  0  0  0
 17 66  1  1  0  0  0
  9 67  1  1  0  0  0
  8 68  1  6  0  0  0
 18 69  1  6  0  0  0
 30 70  1  0  0  0  0
 30 71  2  0  0  0  0
 70 72  2  0  0  0  0
 72 73  1  0  0  0  0
 73 74  2  0  0  0  0
 74 75  1  0  0  0  0
 75 76  2  0  0  0  0
 76 77  1  0  0  0  0
 77 78  2  0  0  0  0
 78 73  1  0  0  0  0
 76 79  1  0  0  0  0
 75 80  1  0  0  0  0
 79 81  1  0  0  0  0
 80 82  1  0  0  0  0
M  END
>  <cdx:fragmentId>
181457

$$$$
