516095.cdx
  Mrv1902 05222410252D          

 30 32  0  0  0  0            999 V2000
    9.6752   -7.2800    0.0000 O   0  0  0  0  0  0  0  0  0  0  0  0
    9.4548   -9.4034    0.0000 C   0  0  0  0  0  0  0  0  0  0  0  0
    8.6661   -9.1612    0.0000 C   0  0  1  0  0  0  0  0  0  0  0  0
    8.6527   -8.3364    0.0000 C   0  0  2  0  0  0  0  0  0  0  0  0
    9.4330   -8.0687    0.0000 C   0  0  0  0  0  0  0  0  0  0  0  0
    9.9288   -8.7281    0.0000 O   0  0  0  0  0  0  0  0  0  0  0  0
    7.9774   -7.8624    0.0000 C   0  0  0  0  0  0  0  0  0  0  0  0
    7.2665   -8.2810    0.0000 C   0  0  0  0  0  0  0  0  0  0  0  0
    6.5485   -7.8746    0.0000 C   0  0  0  0  0  0  0  0  0  0  0  0
    5.8376   -8.2933    0.0000 C   0  0  0  0  0  0  0  0  0  0  0  0
    5.8447   -9.1182    0.0000 C   0  0  0  0  0  0  0  0  0  0  0  0
    6.5627   -9.5246    0.0000 C   0  0  0  0  0  0  0  0  0  0  0  0
    7.2736   -9.1060    0.0000 C   0  0  0  0  0  0  0  0  0  0  0  0
    8.6392   -7.5115    0.0000 O   0  0  0  0  0  0  0  0  0  0  0  0
    8.0067   -9.6570    0.0000 C   0  0  0  0  0  0  0  0  0  0  0  0
    8.0036  -10.4820    0.0000 C   0  0  0  0  0  0  0  0  0  0  0  0
    7.2877  -10.8919    0.0000 C   0  0  0  0  0  0  0  0  0  0  0  0
    7.2846  -11.7169    0.0000 C   0  0  0  0  0  0  0  0  0  0  0  0
    7.9976  -12.1320    0.0000 C   0  0  0  0  0  0  0  0  0  0  0  0
    8.7136  -11.7221    0.0000 C   0  0  0  0  0  0  0  0  0  0  0  0
    8.7166  -10.8971    0.0000 C   0  0  0  0  0  0  0  0  0  0  0  0
    6.5687  -12.1267    0.0000 O   0  0  0  0  0  0  0  0  0  0  0  0
    7.9946  -12.9570    0.0000 O   0  0  0  0  0  0  0  0  0  0  0  0
    9.4265  -12.1372    0.0000 O   0  0  0  0  0  0  0  0  0  0  0  0
   10.1425  -11.7273    0.0000 C   0  0  0  0  0  0  0  0  0  0  0  0
    5.8557  -11.7116    0.0000 C   0  0  0  0  0  0  0  0  0  0  0  0
    5.1338   -9.5369    0.0000 O   0  0  0  0  0  0  0  0  0  0  0  0
    5.1196   -7.8869    0.0000 O   0  0  0  0  0  0  0  0  0  0  0  0
    4.4087   -8.3055    0.0000 C   0  0  0  0  0  0  0  0  0  0  0  0
    7.2786  -13.3668    0.0000 C   0  0  0  0  0  0  0  0  0  0  0  0
  5  1  2  0  0  0  0
  6  2  1  0  0  0  0
  3  2  1  0  0  0  0
  4  3  1  0  0  0  0
  5  4  1  0  0  0  0
  6  5  1  0  0  0  0
  4  7  1  1  0  0  0
  7  8  1  0  0  0  0
  8  9  2  0  0  0  0
  9 10  1  0  0  0  0
 10 11  2  0  0  0  0
 11 12  1  0  0  0  0
 12 13  2  0  0  0  0
 13  8  1  0  0  0  0
  4 14  1  6  0  0  0
  3 15  1  6  0  0  0
 15 16  1  0  0  0  0
 16 17  2  0  0  0  0
 17 18  1  0  0  0  0
 18 19  2  0  0  0  0
 19 20  1  0  0  0  0
 20 21  2  0  0  0  0
 21 16  1  0  0  0  0
 18 22  1  0  0  0  0
 19 23  1  0  0  0  0
 20 24  1  0  0  0  0
 24 25  1  0  0  0  0
 22 26  1  0  0  0  0
 11 27  1  0  0  0  0
 10 28  1  0  0  0  0
 28 29  1  0  0  0  0
 23 30  1  0  0  0  0
M  END
>  <cdx:groupId>
41087

>  <cdx:fragmentId>
41012

$$$$
