5166.cdx
  Mrv1902 05222410262D          

 37 41  0  0  0  0            999 V2000
    4.3414   -8.9925    0.0000 C   0  0  0  0  0  0  0  0  0  0  0  0
    4.3414   -9.8175    0.0000 C   0  0  2  0  0  0  0  0  0  0  0  0
    5.0559  -10.2300    0.0000 C   0  0  1  0  0  0  0  0  0  0  0  0
    5.7703   -9.8175    0.0000 C   0  0  1  0  0  0  0  0  0  0  0  0
    5.7703   -8.9925    0.0000 C   0  0  2  0  0  0  0  0  0  0  0  0
    5.0559   -8.5800    0.0000 C   0  0  0  0  0  0  0  0  0  0  0  0
    6.4848  -10.2300    0.0000 C   0  0  0  0  0  0  0  0  0  0  0  0
    7.1993   -9.8175    0.0000 C   0  0  0  0  0  0  0  0  0  0  0  0
    7.1993   -8.9925    0.0000 C   0  0  2  0  0  0  0  0  0  0  0  0
    6.4848   -8.5800    0.0000 C   0  0  2  0  0  0  0  0  0  0  0  0
    7.9138   -8.5800    0.0000 C   0  0  1  0  0  0  0  0  0  0  0  0
    7.9138   -7.7550    0.0000 C   0  0  0  0  0  0  0  0  0  0  0  0
    7.1993   -7.3425    0.0000 C   0  0  0  0  0  0  0  0  0  0  0  0
    6.4848   -7.7550    0.0000 C   0  0  0  0  0  0  0  0  0  0  0  0
    8.6282   -8.9925    0.0000 C   0  0  0  0  0  0  0  0  0  0  0  0
    9.3427   -8.5800    0.0000 C   0  0  0  0  0  0  0  0  0  0  0  0
    9.3427   -7.7550    0.0000 C   0  0  2  0  0  0  0  0  0  0  0  0
    8.6282   -7.3425    0.0000 C   0  0  1  0  0  0  0  0  0  0  0  0
   10.0572   -7.3425    0.0000 C   0  0  0  0  0  0  0  0  0  0  0  0
   10.0572   -6.5175    0.0000 C   0  0  0  0  0  0  0  0  0  0  0  0
    9.3427   -6.1050    0.0000 C   0  0  0  0  0  0  0  0  0  0  0  0
    8.6282   -6.5175    0.0000 C   0  0  0  0  0  0  0  0  0  0  0  0
    4.6434  -10.9445    0.0000 C   0  0  0  0  0  0  0  0  0  0  0  0
    8.9302   -5.3905    0.0000 C   0  0  0  0  0  0  0  0  0  0  0  0
    9.7552   -5.3905    0.0000 C   0  0  0  0  0  0  0  0  0  0  0  0
    5.7703   -8.1675    0.0000 C   0  0  0  0  0  0  0  0  0  0  0  0
    7.1993   -8.1675    0.0000 C   0  0  0  0  0  0  0  0  0  0  0  0
    7.9138   -6.9300    0.0000 H   0  0  0  0  0  0  0  0  0  0  0  0
   10.0572   -8.1675    0.0000 C   0  0  0  0  0  0  0  0  0  0  0  0
    3.6269  -10.2300    0.0000 O   0  0  0  0  0  0  0  0  0  0  0  0
    5.7703  -10.6425    0.0000 H   0  0  0  0  0  0  0  0  0  0  0  0
    6.4848   -9.4050    0.0000 H   0  0  0  0  0  0  0  0  0  0  0  0
    7.9138   -9.4050    0.0000 C   0  0  0  0  0  0  0  0  0  0  0  0
   10.7716   -7.7550    0.0000 O   0  0  0  0  0  0  0  0  0  0  0  0
   10.0572   -8.9925    0.0000 O   0  0  0  0  0  0  0  0  0  0  0  0
    5.4684  -10.9445    0.0000 C   0  0  0  0  0  0  0  0  0  0  0  0
    5.0559  -11.6589    0.0000 O   0  0  0  0  0  0  0  0  0  0  0  0
  1  2  1  0  0  0  0
  2  3  1  0  0  0  0
  3  4  1  0  0  0  0
  4  5  1  0  0  0  0
  5  6  1  0  0  0  0
  6  1  1  0  0  0  0
  4  7  1  0  0  0  0
  7  8  1  0  0  0  0
  8  9  1  0  0  0  0
  9 10  1  0  0  0  0
 10  5  1  0  0  0  0
  9 11  1  0  0  0  0
 11 12  1  0  0  0  0
 12 13  2  0  0  0  0
 13 14  1  0  0  0  0
 14 10  1  0  0  0  0
 11 15  1  0  0  0  0
 15 16  1  0  0  0  0
 16 17  1  0  0  0  0
 17 18  1  0  0  0  0
 18 12  1  0  0  0  0
 17 19  1  0  0  0  0
 19 20  1  0  0  0  0
 20 21  1  0  0  0  0
 21 22  1  0  0  0  0
 22 18  1  0  0  0  0
  3 23  1  1  0  0  0
 21 24  1  0  0  0  0
 21 25  1  0  0  0  0
  5 26  1  1  0  0  0
  9 27  1  1  0  0  0
 18 28  1  1  0  0  0
 17 29  1  1  0  0  0
  2 30  1  6  0  0  0
  4 31  1  6  0  0  0
 10 32  1  6  0  0  0
 11 33  1  6  0  0  0
 29 34  2  0  0  0  0
 29 35  1  0  0  0  0
  3 36  1  0  0  0  0
 23 37  1  0  0  0  0
M  END
>  <cdx:fragmentId>
5

$$$$
