5168.cdx
  Mrv1902 05222410202D          

 49 53  0  0  0  0            999 V2000
    4.3827  -11.1513    0.0000 C   0  0  0  0  0  0  0  0  0  0  0  0
    4.3827  -11.9763    0.0000 C   0  0  2  0  0  0  0  0  0  0  0  0
    5.0971  -12.3887    0.0000 C   0  0  0  0  0  0  0  0  0  0  0  0
    5.8116  -11.9763    0.0000 C   0  0  1  0  0  0  0  0  0  0  0  0
    5.8116  -11.1513    0.0000 C   0  0  2  0  0  0  0  0  0  0  0  0
    5.0971  -10.7387    0.0000 C   0  0  0  0  0  0  0  0  0  0  0  0
    6.5261  -12.3887    0.0000 C   0  0  0  0  0  0  0  0  0  0  0  0
    7.2405  -11.9763    0.0000 C   0  0  0  0  0  0  0  0  0  0  0  0
    7.2405  -11.1513    0.0000 C   0  0  0  0  0  0  0  0  0  0  0  0
    6.5261  -10.7387    0.0000 C   0  0  0  0  0  0  0  0  0  0  0  0
    7.9550  -10.7387    0.0000 C   0  0  1  0  0  0  0  0  0  0  0  0
    7.9550   -9.9138    0.0000 C   0  0  2  0  0  0  0  0  0  0  0  0
    7.2405   -9.5013    0.0000 C   0  0  0  0  0  0  0  0  0  0  0  0
    6.5261   -9.9138    0.0000 C   0  0  0  0  0  0  0  0  0  0  0  0
    8.7396  -10.9937    0.0000 C   0  0  0  0  0  0  0  0  0  0  0  0
    9.2246  -10.3262    0.0000 C   0  0  0  0  0  0  0  0  0  0  0  0
    8.7396   -9.6588    0.0000 C   0  0  2  0  0  0  0  0  0  0  0  0
    7.9550   -9.0887    0.0000 C   0  0  0  0  0  0  0  0  0  0  0  0
    5.8116  -10.3262    0.0000 C   0  0  0  0  0  0  0  0  0  0  0  0
    4.6846  -13.1032    0.0000 C   0  0  0  0  0  0  0  0  0  0  0  0
    8.9532   -8.8619    0.0000 C   0  0  2  0  0  0  0  0  0  0  0  0
    8.3698   -8.2786    0.0000 C   0  0  0  0  0  0  0  0  0  0  0  0
    7.9550  -11.5638    0.0000 C   0  0  0  0  0  0  0  0  0  0  0  0
    3.6682  -12.3887    0.0000 O   0  0  0  0  0  0  0  0  0  0  0  0
    5.5096  -13.1032    0.0000 C   0  0  0  0  0  0  0  0  0  0  0  0
    5.8116  -12.8012    0.0000 H   0  0  0  0  0  0  0  0  0  0  0  0
    2.9537  -11.9763    0.0000 C   0  0  0  0  0  0  0  0  0  0  0  0
    2.2392  -12.3887    0.0000 C   0  0  0  0  0  0  0  0  0  0  0  0
    2.9537  -11.1513    0.0000 O   0  0  0  0  0  0  0  0  0  0  0  0
    9.5365   -9.4453    0.0000 H   0  0  0  0  0  0  0  0  0  0  0  0
    9.7500   -8.6484    0.0000 C   0  0  0  0  0  0  0  0  0  0  0  0
    9.9636   -7.8515    0.0000 C   0  0  0  0  0  0  0  0  0  0  0  0
   10.7605   -7.6380    0.0000 C   0  0  0  0  0  0  0  0  0  0  0  0
   10.9740   -6.8411    0.0000 C   0  0  0  0  0  0  0  0  0  0  0  0
   10.3906   -6.2577    0.0000 C   0  0  0  0  0  0  0  0  0  0  0  0
   11.7709   -6.6276    0.0000 C   0  0  0  0  0  0  0  0  0  0  0  0
    8.5833   -7.4817    0.0000 O   0  0  0  0  0  0  0  0  0  0  0  0
    7.5729   -8.4921    0.0000 O   0  0  0  0  0  0  0  0  0  0  0  0
    8.0000   -6.8983    0.0000 C   0  0  2  0  0  0  0  0  0  0  0  0
    8.2135   -6.1014    0.0000 O   0  0  0  0  0  0  0  0  0  0  0  0
    7.6301   -5.5181    0.0000 C   0  0  1  0  0  0  0  0  0  0  0  0
    6.8332   -5.7316    0.0000 C   0  0  2  0  0  0  0  0  0  0  0  0
    6.6197   -6.5285    0.0000 C   0  0  1  0  0  0  0  0  0  0  0  0
    7.2031   -7.1118    0.0000 C   0  0  1  0  0  0  0  0  0  0  0  0
    7.8436   -4.7212    0.0000 C   0  0  0  0  0  0  0  0  0  0  0  0
    5.8228   -6.7420    0.0000 O   0  0  0  0  0  0  0  0  0  0  0  0
    6.9895   -7.9087    0.0000 O   0  0  0  0  0  0  0  0  0  0  0  0
    6.2499   -5.1482    0.0000 O   0  0  0  0  0  0  0  0  0  0  0  0
    7.2603   -4.1378    0.0000 O   0  0  0  0  0  0  0  0  0  0  0  0
  1  2  1  0  0  0  0
  2  3  1  0  0  0  0
  3  4  1  0  0  0  0
  4  5  1  0  0  0  0
  5  6  1  0  0  0  0
  6  1  1  0  0  0  0
  4  7  1  0  0  0  0
  7  8  1  0  0  0  0
  8  9  1  0  0  0  0
  9 10  2  0  0  0  0
 10  5  1  0  0  0  0
  9 11  1  0  0  0  0
 11 12  1  0  0  0  0
 12 13  1  0  0  0  0
 13 14  1  0  0  0  0
 14 10  1  0  0  0  0
 11 15  1  0  0  0  0
 15 16  1  0  0  0  0
 16 17  1  0  0  0  0
 17 12  1  0  0  0  0
 12 18  1  1  0  0  0
  5 19  1  1  0  0  0
  3 20  1  0  0  0  0
 17 21  1  0  0  0  0
 21 22  1  6  0  0  0
 11 23  1  6  0  0  0
  2 24  1  6  0  0  0
  3 25  1  0  0  0  0
  4 26  1  6  0  0  0
 24 27  1  0  0  0  0
 27 28  1  0  0  0  0
 27 29  2  0  0  0  0
 17 30  1  6  0  0  0
 21 31  1  0  0  0  0
 31 32  1  0  0  0  0
 32 33  1  0  0  0  0
 33 34  2  0  0  0  0
 34 35  1  0  0  0  0
 34 36  1  0  0  0  0
 22 37  1  0  0  0  0
 22 38  2  0  0  0  0
 39 37  1  1  0  0  0
 39 40  1  0  0  0  0
 40 41  1  0  0  0  0
 41 42  1  0  0  0  0
 42 43  1  0  0  0  0
 43 44  1  0  0  0  0
 44 39  1  0  0  0  0
 41 45  1  1  0  0  0
 43 46  1  1  0  0  0
 44 47  1  6  0  0  0
 42 48  1  6  0  0  0
 45 49  1  0  0  0  0
M  END
>  <cdx:fragmentId>
5

$$$$
