517653.cdx
  Mrv1902 05222410202D          

  8  7  0  0  0  0            999 V2000
    9.9944   -4.5828    0.0000 C   0  0  0  0  0  0  0  0  0  0  0  0
    9.2799   -4.9953    0.0000 C   0  0  0  0  0  0  0  0  0  0  0  0
    8.5655   -4.5828    0.0000 C   0  0  0  0  0  0  0  0  0  0  0  0
    7.8510   -4.9953    0.0000 C   0  0  0  0  0  0  0  0  0  0  0  0
    7.1365   -4.5828    0.0000 C   0  0  0  0  0  0  0  0  0  0  0  0
    6.4220   -4.9953    0.0000 C   0  0  0  0  0  0  0  0  0  0  0  0
    5.7076   -4.5828    0.0000 C   0  0  0  0  0  0  0  0  0  0  0  0
    4.9931   -4.9953    0.0000 C   0  0  0  0  0  0  0  0  0  0  0  0
  1  2  2  0  0  0  0
  2  3  1  0  0  0  0
  3  4  2  0  0  0  0
  4  5  1  0  0  0  0
  5  6  1  0  0  0  0
  6  7  1  0  0  0  0
  7  8  1  0  0  0  0
M  END
>  <cdx:fragmentId>
23054

$$$$
