5176.cdx
  Mrv1902 05222410272D          

 37 41  0  0  0  0            999 V2000
    5.2368   -7.9051    0.0000 C   0  0  0  0  0  0  0  0  0  0  0  0
    5.2368   -8.7301    0.0000 C   0  0  2  0  0  0  0  0  0  0  0  0
    5.9513   -9.1426    0.0000 C   0  0  2  0  0  0  0  0  0  0  0  0
    6.6657   -8.7301    0.0000 C   0  0  1  0  0  0  0  0  0  0  0  0
    6.6657   -7.9051    0.0000 C   0  0  2  0  0  0  0  0  0  0  0  0
    5.9513   -7.4926    0.0000 C   0  0  0  0  0  0  0  0  0  0  0  0
    7.3802   -9.1426    0.0000 C   0  0  0  0  0  0  0  0  0  0  0  0
    8.0947   -8.7301    0.0000 C   0  0  0  0  0  0  0  0  0  0  0  0
    8.0947   -7.9051    0.0000 C   0  0  2  0  0  0  0  0  0  0  0  0
    7.3802   -7.4926    0.0000 C   0  0  2  0  0  0  0  0  0  0  0  0
    8.8092   -7.4926    0.0000 C   0  0  1  0  0  0  0  0  0  0  0  0
    8.8092   -6.6676    0.0000 C   0  0  2  0  0  0  0  0  0  0  0  0
    8.0947   -6.2551    0.0000 C   0  0  0  0  0  0  0  0  0  0  0  0
    7.3802   -6.6676    0.0000 C   0  0  0  0  0  0  0  0  0  0  0  0
    9.5236   -7.9051    0.0000 C   0  0  0  0  0  0  0  0  0  0  0  0
   10.2381   -7.4926    0.0000 C   0  0  0  0  0  0  0  0  0  0  0  0
   10.2381   -6.6676    0.0000 C   0  0  2  0  0  0  0  0  0  0  0  0
    9.5236   -6.2551    0.0000 C   0  0  2  0  0  0  0  0  0  0  0  0
   10.8512   -6.1156    0.0000 C   0  0  0  0  0  0  0  0  0  0  0  0
   10.5156   -5.3619    0.0000 C   0  0  0  0  0  0  0  0  0  0  0  0
    9.6952   -5.4482    0.0000 C   0  0  1  0  0  0  0  0  0  0  0  0
    4.5223   -9.1426    0.0000 O   0  0  0  0  0  0  0  0  0  0  0  0
    6.3638   -9.8571    0.0000 C   0  0  0  0  0  0  0  0  0  0  0  0
    5.5388   -9.8571    0.0000 C   0  0  0  0  0  0  0  0  0  0  0  0
    5.9513  -10.5716    0.0000 O   0  0  0  0  0  0  0  0  0  0  0  0
    4.7138   -9.8571    0.0000 O   0  0  0  0  0  0  0  0  0  0  0  0
    9.1431   -4.8351    0.0000 C   0  0  0  0  0  0  0  0  0  0  0  0
    9.3981   -4.0505    0.0000 C   0  0  0  0  0  0  0  0  0  0  0  0
    8.3362   -5.0066    0.0000 C   0  0  0  0  0  0  0  0  0  0  0  0
    6.6657   -7.0801    0.0000 C   0  0  0  0  0  0  0  0  0  0  0  0
    8.0947   -7.0801    0.0000 C   0  0  0  0  0  0  0  0  0  0  0  0
    8.8092   -5.8426    0.0000 H   0  0  0  0  0  0  0  0  0  0  0  0
   10.9526   -7.0801    0.0000 C   0  0  0  0  0  0  0  0  0  0  0  0
    8.8092   -8.3176    0.0000 C   0  0  0  0  0  0  0  0  0  0  0  0
    9.5236   -7.0801    0.0000 H   0  0  0  0  0  0  0  0  0  0  0  0
    6.6657   -9.5551    0.0000 H   0  0  0  0  0  0  0  0  0  0  0  0
    7.3802   -8.3176    0.0000 H   0  0  0  0  0  0  0  0  0  0  0  0
  1  2  1  0  0  0  0
  2  3  1  0  0  0  0
  3  4  1  0  0  0  0
  4  5  1  0  0  0  0
  5  6  1  0  0  0  0
  6  1  1  0  0  0  0
  4  7  1  0  0  0  0
  7  8  1  0  0  0  0
  8  9  1  0  0  0  0
  9 10  1  0  0  0  0
 10  5  1  0  0  0  0
  9 11  1  0  0  0  0
 11 12  1  0  0  0  0
 12 13  1  0  0  0  0
 13 14  1  0  0  0  0
 14 10  1  0  0  0  0
 11 15  1  0  0  0  0
 15 16  1  0  0  0  0
 16 17  1  0  0  0  0
 17 18  1  0  0  0  0
 18 12  1  0  0  0  0
 17 19  1  0  0  0  0
 19 20  1  0  0  0  0
 20 21  1  0  0  0  0
 21 18  1  0  0  0  0
  2 22  1  6  0  0  0
  3 23  1  6  0  0  0
  3 24  1  1  0  0  0
 24 25  1  0  0  0  0
 24 26  2  0  0  0  0
 21 27  1  6  0  0  0
 27 28  2  0  0  0  0
 27 29  1  0  0  0  0
  5 30  1  1  0  0  0
  9 31  1  1  0  0  0
 12 32  1  1  0  0  0
 17 33  1  1  0  0  0
 11 34  1  6  0  0  0
 18 35  1  6  0  0  0
  4 36  1  6  0  0  0
 10 37  1  6  0  0  0
M  END
>  <cdx:fragmentId>
139

$$$$
