5177.cdx
  Mrv1902 05222410272D          

 22 25  0  0  0  0            999 V2000
    9.6152   -6.0569    0.0000 O   0  0  0  0  0  0  0  0  0  0  0  0
   10.1001   -5.3894    0.0000 C   0  0  0  0  0  0  0  0  0  0  0  0
    9.6152   -4.7220    0.0000 C   0  0  0  0  0  0  0  0  0  0  0  0
    8.8306   -4.9769    0.0000 C   0  0  0  0  0  0  0  0  0  0  0  0
    8.1161   -4.5644    0.0000 C   0  0  0  0  0  0  0  0  0  0  0  0
    7.4016   -4.9769    0.0000 C   0  0  0  0  0  0  0  0  0  0  0  0
    7.4016   -5.8019    0.0000 C   0  0  0  0  0  0  0  0  0  0  0  0
    8.1161   -6.2144    0.0000 C   0  0  0  0  0  0  0  0  0  0  0  0
    8.8306   -5.8019    0.0000 C   0  0  0  0  0  0  0  0  0  0  0  0
    8.1161   -7.0394    0.0000 C   0  0  0  0  0  0  0  0  0  0  0  0
    7.4016   -7.4519    0.0000 C   0  0  0  0  0  0  0  0  0  0  0  0
    6.6872   -7.0394    0.0000 C   0  0  0  0  0  0  0  0  0  0  0  0
    5.9727   -7.4519    0.0000 C   0  0  0  0  0  0  0  0  0  0  0  0
    5.2582   -7.0394    0.0000 C   0  0  1  0  0  0  0  0  0  0  0  0
    5.2582   -6.2144    0.0000 C   0  0  0  0  0  0  0  0  0  0  0  0
    5.9727   -5.8019    0.0000 C   0  0  0  0  0  0  0  0  0  0  0  0
    6.6872   -6.2144    0.0000 C   0  0  0  0  0  0  0  0  0  0  0  0
    6.6872   -4.5644    0.0000 O   0  0  0  0  0  0  0  0  0  0  0  0
    8.1161   -3.7394    0.0000 O   0  0  0  0  0  0  0  0  0  0  0  0
    5.9727   -8.2769    0.0000 C   0  0  0  0  0  0  0  0  0  0  0  0
    9.8701   -3.9374    0.0000 C   0  0  0  0  0  0  0  0  0  0  0  0
    4.5437   -7.4519    0.0000 O   0  0  0  0  0  0  0  0  0  0  0  0
  1  2  1  0  0  0  0
  2  3  2  0  0  0  0
  3  4  1  0  0  0  0
  4  5  1  0  0  0  0
  5  6  1  0  0  0  0
  6  7  1  0  0  0  0
  7  8  1  0  0  0  0
  8  9  1  0  0  0  0
  4  9  2  0  0  0  0
  1  9  1  0  0  0  0
 10 11  1  0  0  0  0
 11 12  2  0  0  0  0
 12 13  1  0  0  0  0
 13 14  1  0  0  0  0
 14 15  1  0  0  0  0
 15 16  1  0  0  0  0
 16 17  1  0  0  0  0
 12 17  1  0  0  0  0
 17  7  2  0  0  0  0
 10  8  2  0  0  0  0
  6 18  2  0  0  0  0
  5 19  2  0  0  0  0
 13 20  2  0  0  0  0
  3 21  1  0  0  0  0
 14 22  1  6  0  0  0
M  END
>  <cdx:fragmentId>
89

$$$$
