517803.cdx
  Mrv1902 05222410232D          

 11 11  0  0  0  0            999 V2000
    6.8760   -5.9889    0.0000 C   0  0  0  0  0  0  0  0  0  0  0  0
    7.5910   -5.5774    0.0000 C   0  0  0  0  0  0  0  0  0  0  0  0
    8.3049   -5.9909    0.0000 C   0  0  0  0  0  0  0  0  0  0  0  0
    8.3038   -6.8159    0.0000 C   0  0  0  0  0  0  0  0  0  0  0  0
    7.5887   -7.2274    0.0000 C   0  0  0  0  0  0  0  0  0  0  0  0
    6.8748   -6.8139    0.0000 C   0  0  0  0  0  0  0  0  0  0  0  0
    7.5922   -4.7524    0.0000 C   0  0  0  0  0  0  0  0  0  0  0  0
    8.3073   -4.3409    0.0000 C   0  0  0  0  0  0  0  0  0  0  0  0
    6.8783   -4.3389    0.0000 C   0  0  0  0  0  0  0  0  0  0  0  0
    6.1621   -5.5754    0.0000 O   0  0  0  0  0  0  0  0  0  0  0  0
    5.4476   -5.9879    0.0000 C   0  0  0  0  0  0  0  0  0  0  0  0
  1  2  1  0  0  0  0
  2  3  2  0  0  0  0
  3  4  1  0  0  0  0
  4  5  2  0  0  0  0
  5  6  1  0  0  0  0
  1  6  2  0  0  0  0
  7  8  2  0  0  0  0
  7  9  1  0  0  0  0
  2  7  1  0  0  0  0
 10 11  1  0  0  0  0
  1 10  1  0  0  0  0
M  END
>  <cdx:fragmentId>
23080

$$$$
