517974.cdx
  Mrv1902 05222410222D          

 10 10  0  0  0  0            999 V2000
   15.8260   -7.7415    0.0000 C   0  0  0  0  0  0  0  0  0  0  0  0
   15.8260   -8.5665    0.0000 C   0  0  0  0  0  0  0  0  0  0  0  0
   15.1115   -8.9790    0.0000 C   0  0  0  0  0  0  0  0  0  0  0  0
   14.3970   -8.5665    0.0000 C   0  0  0  0  0  0  0  0  0  0  0  0
   14.3970   -7.7415    0.0000 C   0  0  0  0  0  0  0  0  0  0  0  0
   15.1115   -7.3290    0.0000 C   0  0  0  0  0  0  0  0  0  0  0  0
   13.6826   -7.3290    0.0000 C   0  0  0  0  0  0  0  0  0  0  0  0
   16.5405   -8.9790    0.0000 C   0  0  0  0  0  0  0  0  0  0  0  0
   16.5405   -9.8040    0.0000 C   0  0  0  0  0  0  0  0  0  0  0  0
   17.2549   -8.5665    0.0000 C   0  0  0  0  0  0  0  0  0  0  0  0
  1  2  1  0  0  0  0
  2  3  1  0  0  0  0
  3  4  1  0  0  0  0
  4  5  1  0  0  0  0
  5  6  1  0  0  0  0
  1  6  2  0  0  0  0
  5  7  1  0  0  0  0
  8  9  1  0  0  0  0
  8 10  1  0  0  0  0
  2  8  1  0  0  0  0
M  END
>  <cdx:groupId>
23176

>  <cdx:fragmentId>
23149

$$$$
