517924.cdx
  Mrv1902 05222410262D          

 21 21  0  0  0  0            999 V2000
   10.6401   -6.4344    0.0000 C   0  0  0  0  0  0  0  0  0  0  0  0
    9.9256   -6.8469    0.0000 C   0  0  1  0  0  0  0  0  0  0  0  0
    9.2112   -6.4344    0.0000 C   0  0  2  0  0  0  0  0  0  0  0  0
    9.2112   -5.6094    0.0000 C   0  0  0  0  0  0  0  0  0  0  0  0
   10.6401   -5.6094    0.0000 O   0  0  0  0  0  0  0  0  0  0  0  0
   11.3546   -6.8469    0.0000 O   0  0  0  0  0  0  0  0  0  0  0  0
    8.4967   -5.1969    0.0000 O   0  0  0  0  0  0  0  0  0  0  0  0
    9.9256   -5.1969    0.0000 O   0  0  0  0  0  0  0  0  0  0  0  0
    8.4967   -6.8469    0.0000 O   0  0  0  0  0  0  0  0  0  0  0  0
    7.7822   -6.4344    0.0000 C   0  0  0  0  0  0  0  0  0  0  0  0
    7.0678   -6.8469    0.0000 C   0  0  0  0  0  0  0  0  0  0  0  0
    6.3533   -6.4344    0.0000 C   0  0  0  0  0  0  0  0  0  0  0  0
    7.7822   -5.6094    0.0000 O   0  0  0  0  0  0  0  0  0  0  0  0
    5.6388   -6.8469    0.0000 C   0  0  0  0  0  0  0  0  0  0  0  0
    5.6388   -7.6719    0.0000 C   0  0  0  0  0  0  0  0  0  0  0  0
    4.9244   -8.0844    0.0000 C   0  0  0  0  0  0  0  0  0  0  0  0
    4.2099   -7.6719    0.0000 C   0  0  0  0  0  0  0  0  0  0  0  0
    4.2099   -6.8469    0.0000 C   0  0  0  0  0  0  0  0  0  0  0  0
    4.9244   -6.4344    0.0000 C   0  0  0  0  0  0  0  0  0  0  0  0
    3.4954   -8.0844    0.0000 O   0  0  0  0  0  0  0  0  0  0  0  0
    9.9256   -7.6719    0.0000 O   0  0  0  0  0  0  0  0  0  0  0  0
  1  2  1  0  0  0  0
  2  3  1  0  0  0  0
  3  4  1  0  0  0  0
  1  5  2  0  0  0  0
  1  6  1  0  0  0  0
  4  7  2  0  0  0  0
  4  8  1  0  0  0  0
 10 11  1  0  0  0  0
 11 12  2  0  0  0  0
 10 13  2  0  0  0  0
 14 15  1  0  0  0  0
 15 16  2  0  0  0  0
 16 17  1  0  0  0  0
 17 18  2  0  0  0  0
 18 19  1  0  0  0  0
 14 19  2  0  0  0  0
 17 20  1  0  0  0  0
 12 14  1  0  0  0  0
  9 10  1  0  0  0  0
  3  9  1  1  0  0  0
  2 21  1  6  0  0  0
M  END
>  <cdx:groupId>
65

>  <cdx:fragmentId>
31

$$$$
