518459.cdx
  Mrv1902 05222410212D          

 16 15  0  0  0  0            999 V2000
   12.2536   -8.6854    0.0000 C   0  0  0  0  0  0  0  0  0  0  0  0
   12.9681   -8.2729    0.0000 C   0  0  0  0  0  0  0  0  0  0  0  0
   13.6826   -8.6854    0.0000 C   0  0  0  0  0  0  0  0  0  0  0  0
   14.3970   -8.2729    0.0000 C   0  0  0  0  0  0  0  0  0  0  0  0
   15.1115   -8.6854    0.0000 C   0  0  0  0  0  0  0  0  0  0  0  0
   15.8260   -8.2729    0.0000 C   0  0  0  0  0  0  0  0  0  0  0  0
   16.5405   -8.6854    0.0000 C   0  0  0  0  0  0  0  0  0  0  0  0
   17.2549   -8.2729    0.0000 C   0  0  0  0  0  0  0  0  0  0  0  0
   17.9694   -8.6854    0.0000 C   0  0  0  0  0  0  0  0  0  0  0  0
   18.6839   -8.2729    0.0000 C   0  0  0  0  0  0  0  0  0  0  0  0
   15.8260   -7.4479    0.0000 C   0  0  0  0  0  0  0  0  0  0  0  0
   16.5405   -7.0354    0.0000 C   0  0  0  0  0  0  0  0  0  0  0  0
   16.5405   -6.2104    0.0000 C   0  0  0  0  0  0  0  0  0  0  0  0
   15.1115   -9.5104    0.0000 C   0  0  0  0  0  0  0  0  0  0  0  0
   14.3970   -9.9229    0.0000 C   0  0  0  0  0  0  0  0  0  0  0  0
   14.3970  -10.7479    0.0000 C   0  0  0  0  0  0  0  0  0  0  0  0
  1  2  1  0  0  0  0
  2  3  1  0  0  0  0
  3  4  1  0  0  0  0
  4  5  1  0  0  0  0
  5  6  1  0  0  0  0
  6  7  1  0  0  0  0
  7  8  1  0  0  0  0
  8  9  1  0  0  0  0
  9 10  1  0  0  0  0
 11 12  1  0  0  0  0
 12 13  1  0  0  0  0
  6 11  1  0  0  0  0
 14 15  1  0  0  0  0
 15 16  1  0  0  0  0
  5 14  1  0  0  0  0
M  END
>  <cdx:groupId>
23162

>  <cdx:fragmentId>
23118

$$$$
