51847.cdx
  Mrv1902 05222410262D          

 29 31  0  0  0  0            999 V2000
    6.6510   -8.7090    0.0000 C   0  0  0  0  0  0  0  0  0  0  0  0
    6.6510   -9.5340    0.0000 C   0  0  0  0  0  0  0  0  0  0  0  0
    5.9365   -9.9465    0.0000 C   0  0  0  0  0  0  0  0  0  0  0  0
    5.2221   -9.5340    0.0000 C   0  0  0  0  0  0  0  0  0  0  0  0
    4.5076   -9.9465    0.0000 C   0  0  0  0  0  0  0  0  0  0  0  0
    3.7931   -9.5340    0.0000 C   0  0  0  0  0  0  0  0  0  0  0  0
    3.7931   -8.7090    0.0000 C   0  0  0  0  0  0  0  0  0  0  0  0
    4.5076   -8.2965    0.0000 C   0  0  0  0  0  0  0  0  0  0  0  0
    5.2221   -8.7090    0.0000 C   0  0  0  0  0  0  0  0  0  0  0  0
    5.9365   -8.2965    0.0000 O   0  0  0  0  0  0  0  0  0  0  0  0
    5.9365  -10.7715    0.0000 O   0  0  0  0  0  0  0  0  0  0  0  0
    4.5076   -7.4715    0.0000 C   0  0  0  0  0  0  0  0  0  0  0  0
    3.7931   -7.0590    0.0000 C   0  0  0  0  0  0  0  0  0  0  0  0
    3.7931   -6.2340    0.0000 C   0  0  0  0  0  0  0  0  0  0  0  0
    4.5076   -5.8215    0.0000 C   0  0  0  0  0  0  0  0  0  0  0  0
    3.0787   -5.8215    0.0000 C   0  0  0  0  0  0  0  0  0  0  0  0
    7.3655   -9.9465    0.0000 C   0  0  0  0  0  0  0  0  0  0  0  0
    8.0800   -9.5340    0.0000 C   0  0  0  0  0  0  0  0  0  0  0  0
    8.7944   -9.9465    0.0000 C   0  0  0  0  0  0  0  0  0  0  0  0
    8.7944  -10.7715    0.0000 C   0  0  0  0  0  0  0  0  0  0  0  0
    8.0800  -11.1840    0.0000 C   0  0  0  0  0  0  0  0  0  0  0  0
    7.3655  -10.7715    0.0000 C   0  0  0  0  0  0  0  0  0  0  0  0
    9.5089   -9.5340    0.0000 C   0  0  0  0  0  0  0  0  0  0  0  0
   10.2234   -9.9465    0.0000 C   0  0  0  0  0  0  0  0  0  0  0  0
   10.9378   -9.5340    0.0000 C   0  0  0  0  0  0  0  0  0  0  0  0
   10.9378   -8.7090    0.0000 C   0  0  0  0  0  0  0  0  0  0  0  0
   11.6523   -9.9465    0.0000 C   0  0  0  0  0  0  0  0  0  0  0  0
    9.5089  -11.1840    0.0000 O   0  0  0  0  0  0  0  0  0  0  0  0
    3.0787   -8.2965    0.0000 O   0  0  0  0  0  0  0  0  0  0  0  0
  1  2  2  0  0  0  0
  2  3  1  0  0  0  0
  3  4  1  0  0  0  0
  4  5  1  0  0  0  0
  5  6  2  0  0  0  0
  6  7  1  0  0  0  0
  7  8  2  0  0  0  0
  8  9  1  0  0  0  0
  4  9  2  0  0  0  0
  9 10  1  0  0  0  0
  1 10  1  0  0  0  0
  3 11  2  0  0  0  0
 12 13  1  0  0  0  0
 13 14  2  0  0  0  0
 14 15  1  0  0  0  0
 14 16  1  0  0  0  0
  8 12  1  0  0  0  0
 17 18  1  0  0  0  0
 18 19  2  0  0  0  0
 19 20  1  0  0  0  0
 20 21  2  0  0  0  0
 21 22  1  0  0  0  0
 17 22  2  0  0  0  0
 23 24  1  0  0  0  0
 24 25  2  0  0  0  0
 25 26  1  0  0  0  0
 25 27  1  0  0  0  0
 19 23  1  0  0  0  0
 20 28  1  0  0  0  0
  2 17  1  0  0  0  0
  7 29  1  0  0  0  0
M  END
>  <cdx:groupId>
86653

>  <cdx:fragmentId>
86567

$$$$
