518724.cdx
  Mrv1902 05222410232D          

 45 52  0  0  0  0            999 V2000
    7.2041  -10.6568    0.0000 C   0  0  0  0  0  0  0  0  0  0  0  0
    7.9786  -10.9412    0.0000 C   0  0  0  0  0  0  0  0  0  0  0  0
    8.6121  -10.4127    0.0000 C   0  0  0  0  0  0  0  0  0  0  0  0
    9.3865  -10.6971    0.0000 C   0  0  0  0  0  0  0  0  0  0  0  0
    9.5274  -11.5100    0.0000 C   0  0  0  0  0  0  0  0  0  0  0  0
    8.8939  -12.0384    0.0000 C   0  0  0  0  0  0  0  0  0  0  0  0
    8.1195  -11.7540    0.0000 C   0  0  0  0  0  0  0  0  0  0  0  0
    6.5706  -11.1852    0.0000 O   0  0  0  0  0  0  0  0  0  0  0  0
    7.0632   -9.8439    0.0000 O   0  0  0  0  0  0  0  0  0  0  0  0
    6.2888   -9.5595    0.0000 C   0  0  0  0  0  0  0  0  0  0  0  0
    5.3069   -7.0946    0.0000 C   0  0  2  0  0  0  0  0  0  0  0  0
    4.6734   -7.6231    0.0000 C   0  0  2  0  0  0  0  0  0  0  0  0
    3.8834   -7.3855    0.0000 C   0  0  0  0  0  0  0  0  0  0  0  0
    3.4133   -8.0635    0.0000 C   0  0  1  0  0  0  0  0  0  0  0  0
    3.9128   -8.7200    0.0000 C   0  0  1  0  0  0  0  0  0  0  0  0
    4.6916   -8.4479    0.0000 C   0  0  1  0  0  0  0  0  0  0  0  0
    5.3478   -8.9479    0.0000 C   0  0  1  0  0  0  0  0  0  0  0  0
    6.1479   -8.7466    0.0000 C   0  0  2  0  0  0  0  0  0  0  0  0
    6.9690   -8.6668    0.0000 O   0  0  0  0  0  0  0  0  0  0  0  0
    6.4893   -7.9956    0.0000 C   0  0  1  0  0  0  0  0  0  0  0  0
    6.1151   -7.2604    0.0000 C   0  0  1  0  0  0  0  0  0  0  0  0
    6.6628   -6.6434    0.0000 C   0  0  1  0  0  0  0  0  0  0  0  0
    7.4877   -6.6375    0.0000 O   0  0  0  0  0  0  0  0  0  0  0  0
    7.7371   -5.8511    0.0000 C   0  0  0  0  0  0  0  0  0  0  0  0
    7.0662   -5.3709    0.0000 O   0  0  0  0  0  0  0  0  0  0  0  0
    6.4023   -5.8606    0.0000 C   0  0  1  0  0  0  0  0  0  0  0  0
    5.5941   -5.6948    0.0000 C   0  0  0  0  0  0  0  0  0  0  0  0
    5.0464   -6.3118    0.0000 C   0  0  1  0  0  0  0  0  0  0  0  0
    5.8850   -6.4420    0.0000 O   0  0  0  0  0  0  0  0  0  0  0  0
    4.2382   -6.1460    0.0000 C   0  0  0  0  0  0  0  0  0  0  0  0
    2.5885   -8.0816    0.0000 C   0  0  0  0  0  0  0  0  0  0  0  0
    5.1820   -9.7561    0.0000 O   0  0  0  0  0  0  0  0  0  0  0  0
    4.5622   -9.2627    0.0000 O   0  0  0  0  0  0  0  0  0  0  0  0
    3.6752   -9.5101    0.0000 O   0  0  0  0  0  0  0  0  0  0  0  0
    4.5082   -6.8148    0.0000 H   0  0  0  0  0  0  0  0  0  0  0  0
    6.9283   -7.3993    0.0000 H   0  0  0  0  0  0  0  0  0  0  0  0
    8.5199   -5.5906    0.0000 C   0  0  0  0  0  0  0  0  0  0  0  0
    9.1369   -6.1383    0.0000 C   0  0  0  0  0  0  0  0  0  0  0  0
    9.9197   -5.8778    0.0000 C   0  0  0  0  0  0  0  0  0  0  0  0
   10.0855   -5.0696    0.0000 C   0  0  0  0  0  0  0  0  0  0  0  0
    9.4685   -4.5220    0.0000 C   0  0  0  0  0  0  0  0  0  0  0  0
    8.6857   -4.7825    0.0000 C   0  0  0  0  0  0  0  0  0  0  0  0
    6.4023   -5.0356    0.0000 C   0  0  0  0  0  0  0  0  0  0  0  0
    5.6878   -4.6231    0.0000 C   0  0  0  0  0  0  0  0  0  0  0  0
    7.1167   -4.6231    0.0000 C   0  0  0  0  0  0  0  0  0  0  0  0
  1  2  1  0  0  0  0
  2  3  1  0  0  0  0
  3  4  2  0  0  0  0
  4  5  1  0  0  0  0
  5  6  2  0  0  0  0
  6  7  1  0  0  0  0
  2  7  2  0  0  0  0
  1  8  2  0  0  0  0
  1  9  1  0  0  0  0
 11 12  1  0  0  0  0
 12 13  1  0  0  0  0
 13 14  1  0  0  0  0
 14 15  1  0  0  0  0
 15 16  1  0  0  0  0
 16 17  1  0  0  0  0
 17 18  1  0  0  0  0
 18 19  1  6  0  0  0
 20 19  1  6  0  0  0
 20 21  1  0  0  0  0
 21 22  1  0  0  0  0
 22 23  1  6  0  0  0
 24 23  1  0  0  0  0
 24 25  1  0  0  0  0
 26 25  1  6  0  0  0
 26 27  1  0  0  0  0
 27 28  1  0  0  0  0
 11 28  1  0  0  0  0
 11 29  1  6  0  0  0
 29 24  1  0  0  0  0
 22 26  1  0  0  0  0
 11 21  1  0  0  0  0
 18 20  1  0  0  0  0
 12 16  1  0  0  0  0
 28 30  1  6  0  0  0
 14 31  1  1  0  0  0
 17 32  1  1  0  0  0
 16 33  1  1  0  0  0
 15 34  1  1  0  0  0
 18 10  1  0  0  0  0
  9 10  1  0  0  0  0
 12 35  1  6  0  0  0
 21 36  1  1  0  0  0
 24 37  1  0  0  0  0
 37 38  2  0  0  0  0
 38 39  1  0  0  0  0
 39 40  2  0  0  0  0
 40 41  1  0  0  0  0
 41 42  2  0  0  0  0
 42 37  1  0  0  0  0
 26 43  1  0  0  0  0
 43 44  1  0  0  0  0
 43 45  2  0  0  0  0
M  END
>  <cdx:fragmentId>
248116

$$$$
