518725.cdx
  Mrv1902 05222410242D          

 45 52  0  0  0  0            999 V2000
    8.8232  -10.1739    0.0000 O   0  0  0  0  0  0  0  0  0  0  0  0
    8.0488   -9.8895    0.0000 C   0  0  0  0  0  0  0  0  0  0  0  0
    7.0669   -7.4246    0.0000 C   0  0  2  0  0  0  0  0  0  0  0  0
    6.4334   -7.9531    0.0000 C   0  0  2  0  0  0  0  0  0  0  0  0
    5.6434   -7.7155    0.0000 C   0  0  0  0  0  0  0  0  0  0  0  0
    5.1733   -8.3935    0.0000 C   0  0  1  0  0  0  0  0  0  0  0  0
    5.6728   -9.0500    0.0000 C   0  0  1  0  0  0  0  0  0  0  0  0
    6.4516   -8.7779    0.0000 C   0  0  1  0  0  0  0  0  0  0  0  0
    7.1078   -9.2779    0.0000 C   0  0  1  0  0  0  0  0  0  0  0  0
    7.9079   -9.0766    0.0000 C   0  0  2  0  0  0  0  0  0  0  0  0
    8.7290   -8.9968    0.0000 O   0  0  0  0  0  0  0  0  0  0  0  0
    8.2493   -8.3256    0.0000 C   0  0  1  0  0  0  0  0  0  0  0  0
    7.8751   -7.5904    0.0000 C   0  0  1  0  0  0  0  0  0  0  0  0
    8.4228   -6.9734    0.0000 C   0  0  1  0  0  0  0  0  0  0  0  0
    9.2477   -6.9675    0.0000 O   0  0  0  0  0  0  0  0  0  0  0  0
    9.4971   -6.1811    0.0000 C   0  0  0  0  0  0  0  0  0  0  0  0
    8.8262   -5.7009    0.0000 O   0  0  0  0  0  0  0  0  0  0  0  0
    8.1623   -6.1906    0.0000 C   0  0  1  0  0  0  0  0  0  0  0  0
    7.3541   -6.0248    0.0000 C   0  0  0  0  0  0  0  0  0  0  0  0
    6.8064   -6.6418    0.0000 C   0  0  1  0  0  0  0  0  0  0  0  0
    7.6450   -6.7720    0.0000 O   0  0  0  0  0  0  0  0  0  0  0  0
    5.9982   -6.4760    0.0000 C   0  0  0  0  0  0  0  0  0  0  0  0
    4.3485   -8.4116    0.0000 C   0  0  0  0  0  0  0  0  0  0  0  0
    6.9420  -10.0861    0.0000 O   0  0  0  0  0  0  0  0  0  0  0  0
    6.3222   -9.5927    0.0000 O   0  0  0  0  0  0  0  0  0  0  0  0
    5.4352   -9.8401    0.0000 O   0  0  0  0  0  0  0  0  0  0  0  0
    6.2682   -7.1448    0.0000 H   0  0  0  0  0  0  0  0  0  0  0  0
    8.6883   -7.7293    0.0000 H   0  0  0  0  0  0  0  0  0  0  0  0
    4.6322  -10.0294    0.0000 C   0  0  0  0  0  0  0  0  0  0  0  0
    4.0668   -9.4286    0.0000 O   0  0  0  0  0  0  0  0  0  0  0  0
    4.3946  -10.8194    0.0000 C   0  0  0  0  0  0  0  0  0  0  0  0
    3.5917  -11.0087    0.0000 C   0  0  0  0  0  0  0  0  0  0  0  0
    3.3541  -11.7988    0.0000 C   0  0  0  0  0  0  0  0  0  0  0  0
    3.9195  -12.3995    0.0000 C   0  0  0  0  0  0  0  0  0  0  0  0
    4.7225  -12.2102    0.0000 C   0  0  0  0  0  0  0  0  0  0  0  0
    4.9601  -11.4202    0.0000 C   0  0  0  0  0  0  0  0  0  0  0  0
    8.1623   -5.3656    0.0000 C   0  0  0  0  0  0  0  0  0  0  0  0
    7.4478   -4.9531    0.0000 C   0  0  0  0  0  0  0  0  0  0  0  0
    8.8767   -4.9531    0.0000 C   0  0  0  0  0  0  0  0  0  0  0  0
   10.2799   -5.9206    0.0000 C   0  0  0  0  0  0  0  0  0  0  0  0
   10.8969   -6.4683    0.0000 C   0  0  0  0  0  0  0  0  0  0  0  0
   11.6797   -6.2078    0.0000 C   0  0  0  0  0  0  0  0  0  0  0  0
   11.8455   -5.3996    0.0000 C   0  0  0  0  0  0  0  0  0  0  0  0
   11.2285   -4.8520    0.0000 C   0  0  0  0  0  0  0  0  0  0  0  0
   10.4457   -5.1125    0.0000 C   0  0  0  0  0  0  0  0  0  0  0  0
  3  4  1  0  0  0  0
  4  5  1  0  0  0  0
  5  6  1  0  0  0  0
  6  7  1  0  0  0  0
  7  8  1  0  0  0  0
  8  9  1  0  0  0  0
  9 10  1  0  0  0  0
 10 11  1  6  0  0  0
 12 11  1  6  0  0  0
 12 13  1  0  0  0  0
 13 14  1  0  0  0  0
 14 15  1  6  0  0  0
 16 15  1  0  0  0  0
 16 17  1  0  0  0  0
 18 17  1  6  0  0  0
 18 19  1  0  0  0  0
 19 20  1  0  0  0  0
  3 20  1  0  0  0  0
  3 21  1  6  0  0  0
 21 16  1  0  0  0  0
 14 18  1  0  0  0  0
  3 13  1  0  0  0  0
 10 12  1  0  0  0  0
  4  8  1  0  0  0  0
 20 22  1  6  0  0  0
  6 23  1  1  0  0  0
  9 24  1  1  0  0  0
  8 25  1  1  0  0  0
  7 26  1  1  0  0  0
 10  2  1  0  0  0  0
  1  2  1  0  0  0  0
  4 27  1  6  0  0  0
 13 28  1  1  0  0  0
 26 29  1  0  0  0  0
 29 30  2  0  0  0  0
 29 31  1  0  0  0  0
 31 32  2  0  0  0  0
 32 33  1  0  0  0  0
 33 34  2  0  0  0  0
 34 35  1  0  0  0  0
 35 36  2  0  0  0  0
 36 31  1  0  0  0  0
 18 37  1  0  0  0  0
 37 38  1  0  0  0  0
 37 39  2  0  0  0  0
 16 40  1  0  0  0  0
 40 41  2  0  0  0  0
 41 42  1  0  0  0  0
 42 43  2  0  0  0  0
 43 44  1  0  0  0  0
 44 45  2  0  0  0  0
 45 40  1  0  0  0  0
M  END
>  <cdx:fragmentId>
248116

$$$$
