518726.cdx
  Mrv1902 05222410242D          

 38 42  0  0  0  0            999 V2000
    4.9185   -7.0373    0.0000 H   0  0  0  0  0  0  0  0  0  0  0  0
    7.3991   -7.4990    0.0000 H   0  0  0  0  0  0  0  0  0  0  0  0
    5.6363   -9.9682    0.0000 O   0  0  0  0  0  0  0  0  0  0  0  0
    4.9811   -9.4668    0.0000 O   0  0  0  0  0  0  0  0  0  0  0  0
    4.1300   -9.7192    0.0000 O   0  0  0  0  0  0  0  0  0  0  0  0
    6.3500   -6.7236    0.0000 O   0  0  0  0  0  0  0  0  0  0  0  0
    7.4580  -10.1864    0.0000 O   0  0  0  0  0  0  0  0  0  0  0  0
    6.7435   -9.7739    0.0000 C   0  0  0  0  0  0  0  0  0  0  0  0
    3.0462   -8.2885    0.0000 C   0  0  0  0  0  0  0  0  0  0  0  0
    4.6999   -6.3562    0.0000 C   0  0  0  0  0  0  0  0  0  0  0  0
    7.1234   -6.8585    0.0000 C   0  0  1  0  0  0  0  0  0  0  0  0
    6.8645   -6.0752    0.0000 C   0  0  2  0  0  0  0  0  0  0  0  0
    6.0567   -5.9078    0.0000 C   0  0  0  0  0  0  0  0  0  0  0  0
    5.5077   -6.5237    0.0000 C   0  0  2  0  0  0  0  0  0  0  0  0
    5.7666   -7.3070    0.0000 C   0  0  1  0  0  0  0  0  0  0  0  0
    5.1321   -7.8342    0.0000 C   0  0  2  0  0  0  0  0  0  0  0  0
    4.3425   -7.5950    0.0000 C   0  0  0  0  0  0  0  0  0  0  0  0
    3.8710   -8.2720    0.0000 C   0  0  1  0  0  0  0  0  0  0  0  0
    4.3692   -8.9296    0.0000 C   0  0  1  0  0  0  0  0  0  0  0  0
    5.1486   -8.6590    0.0000 C   0  0  2  0  0  0  0  0  0  0  0  0
    5.8037   -9.1604    0.0000 C   0  0  1  0  0  0  0  0  0  0  0  0
    6.6042   -8.9607    0.0000 C   0  0  2  0  0  0  0  0  0  0  0  0
    7.4255   -8.8826    0.0000 O   0  0  0  0  0  0  0  0  0  0  0  0
    6.9472   -8.2104    0.0000 C   0  0  1  0  0  0  0  0  0  0  0  0
    6.5745   -7.4744    0.0000 C   0  0  1  0  0  0  0  0  0  0  0  0
    7.9312   -7.0260    0.0000 O   0  0  0  0  0  0  0  0  0  0  0  0
    7.5790   -5.6627    0.0000 O   0  0  0  0  0  0  0  0  0  0  0  0
    6.8645   -5.2502    0.0000 C   0  0  0  0  0  0  0  0  0  0  0  0
    6.1500   -4.8377    0.0000 C   0  0  0  0  0  0  0  0  0  0  0  0
    7.5790   -4.8377    0.0000 C   0  0  0  0  0  0  0  0  0  0  0  0
    8.6403   -6.6043    0.0000 C   0  0  0  0  0  0  0  0  0  0  0  0
    9.3601   -7.0076    0.0000 C   0  0  0  0  0  0  0  0  0  0  0  0
    8.6297   -5.7794    0.0000 O   0  0  0  0  0  0  0  0  0  0  0  0
    9.3707   -7.8325    0.0000 C   0  0  0  0  0  0  0  0  0  0  0  0
   10.0904   -8.2358    0.0000 C   0  0  0  0  0  0  0  0  0  0  0  0
   10.7995   -7.8141    0.0000 C   0  0  0  0  0  0  0  0  0  0  0  0
   10.7889   -6.9892    0.0000 C   0  0  0  0  0  0  0  0  0  0  0  0
   10.0692   -6.5859    0.0000 C   0  0  0  0  0  0  0  0  0  0  0  0
 16  1  1  6  0  0  0
 25  2  1  1  0  0  0
 21  3  1  1  0  0  0
 20  4  1  1  0  0  0
 19  5  1  1  0  0  0
 15  6  1  6  0  0  0
 22  8  1  0  0  0  0
  8  7  1  0  0  0  0
 18  9  1  1  0  0  0
 14 10  1  6  0  0  0
 24 22  1  0  0  0  0
 20 16  1  0  0  0  0
 25 15  1  0  0  0  0
 25 11  1  0  0  0  0
 12 11  1  0  0  0  0
 13 12  1  0  0  0  0
 14 13  1  0  0  0  0
 15 14  1  0  0  0  0
 16 15  1  0  0  0  0
 17 16  1  0  0  0  0
 18 17  1  0  0  0  0
 19 18  1  0  0  0  0
 20 19  1  0  0  0  0
 21 20  1  0  0  0  0
 22 21  1  0  0  0  0
 22 23  1  6  0  0  0
 24 23  1  6  0  0  0
 25 24  1  0  0  0  0
 11 26  1  6  0  0  0
 12 27  1  6  0  0  0
 12 28  1  0  0  0  0
 28 29  1  0  0  0  0
 28 30  2  0  0  0  0
 26 31  1  0  0  0  0
 31 32  1  0  0  0  0
 31 33  2  0  0  0  0
 32 34  2  0  0  0  0
 34 35  1  0  0  0  0
 35 36  2  0  0  0  0
 36 37  1  0  0  0  0
 37 38  2  0  0  0  0
 38 32  1  0  0  0  0
M  END
>  <cdx:fragmentId>
248439

$$$$
