518900.cdx
  Mrv1902 05222410242D          

 12 12  0  0  0  0            999 V2000
    8.3449   -4.8599    0.0000 C   0  0  0  0  0  0  0  0  0  0  0  0
    6.8894   -9.8021    0.0000 O   0  0  0  0  0  0  0  0  0  0  0  0
    6.1860   -7.7358    0.0000 C   0  0  0  0  0  0  0  0  0  0  0  0
    6.1816   -8.5608    0.0000 C   0  0  0  0  0  0  0  0  0  0  0  0
    6.8938   -8.9771    0.0000 C   0  0  0  0  0  0  0  0  0  0  0  0
    7.6105   -8.5685    0.0000 C   0  0  0  0  0  0  0  0  0  0  0  0
    7.6149   -7.7435    0.0000 C   0  0  0  0  0  0  0  0  0  0  0  0
    6.9027   -7.3272    0.0000 C   0  0  0  0  0  0  0  0  0  0  0  0
    7.6282   -5.2685    0.0000 O   0  0  0  0  0  0  0  0  0  0  0  0
    8.3360   -6.5098    0.0000 O   0  0  0  0  0  0  0  0  0  0  0  0
    6.9071   -6.5022    0.0000 C   0  0  0  0  0  0  0  0  0  0  0  0
    7.6238   -6.0935    0.0000 C   0  0  0  0  0  0  0  0  0  0  0  0
  9  1  1  0  0  0  0
 11  8  1  0  0  0  0
  5  2  1  0  0  0  0
  8  3  2  0  0  0  0
  4  3  1  0  0  0  0
  5  4  2  0  0  0  0
  6  5  1  0  0  0  0
  7  6  2  0  0  0  0
  8  7  1  0  0  0  0
 12  9  1  0  0  0  0
 12 10  2  0  0  0  0
 12 11  1  0  0  0  0
M  END
>  <cdx:fragmentId>
23180

$$$$
