519006.cdx
  Mrv1902 05222410252D          

 20 19  0  0  0  0            999 V2000
    8.6813   -8.6854    0.0000 C   0  0  0  0  0  0  0  0  0  0  0  0
    9.3958   -8.2729    0.0000 C   0  0  0  0  0  0  0  0  0  0  0  0
   10.1102   -8.6854    0.0000 C   0  0  0  0  0  0  0  0  0  0  0  0
   10.8247   -8.2729    0.0000 C   0  0  0  0  0  0  0  0  0  0  0  0
   11.5392   -8.6854    0.0000 C   0  0  0  0  0  0  0  0  0  0  0  0
   12.2536   -8.2729    0.0000 C   0  0  0  0  0  0  0  0  0  0  0  0
   12.9681   -8.6854    0.0000 C   0  0  0  0  0  0  0  0  0  0  0  0
   13.6826   -8.2729    0.0000 C   0  0  0  0  0  0  0  0  0  0  0  0
   14.3970   -8.6854    0.0000 C   0  0  0  0  0  0  0  0  0  0  0  0
   15.1115   -8.2729    0.0000 C   0  0  0  0  0  0  0  0  0  0  0  0
   15.8260   -8.6854    0.0000 C   0  0  0  0  0  0  0  0  0  0  0  0
   16.5405   -8.2729    0.0000 C   0  0  0  0  0  0  0  0  0  0  0  0
   17.2549   -8.6854    0.0000 C   0  0  0  0  0  0  0  0  0  0  0  0
   17.9694   -8.2729    0.0000 C   0  0  0  0  0  0  0  0  0  0  0  0
   18.6839   -8.6854    0.0000 C   0  0  0  0  0  0  0  0  0  0  0  0
   19.3983   -8.2729    0.0000 C   0  0  0  0  0  0  0  0  0  0  0  0
   20.1128   -8.6854    0.0000 C   0  0  0  0  0  0  0  0  0  0  0  0
   20.8273   -8.2729    0.0000 C   0  0  0  0  0  0  0  0  0  0  0  0
   21.5418   -8.6854    0.0000 C   0  0  0  0  0  0  0  0  0  0  0  0
   22.2562   -8.2729    0.0000 C   0  0  0  0  0  0  0  0  0  0  0  0
  1  2  2  0  0  0  0
  2  3  1  0  0  0  0
  3  4  1  0  0  0  0
  4  5  1  0  0  0  0
  5  6  1  0  0  0  0
  6  7  1  0  0  0  0
  7  8  1  0  0  0  0
  8  9  1  0  0  0  0
  9 10  1  0  0  0  0
 10 11  1  0  0  0  0
 11 12  1  0  0  0  0
 12 13  1  0  0  0  0
 13 14  1  0  0  0  0
 14 15  1  0  0  0  0
 15 16  1  0  0  0  0
 16 17  1  0  0  0  0
 17 18  1  0  0  0  0
 18 19  1  0  0  0  0
 19 20  2  0  0  0  0
M  END
>  <cdx:groupId>
23315

>  <cdx:fragmentId>
23259

$$$$
