519195.cdx
  Mrv1902 05222410212D          

 11 11  0  0  0  0            999 V2000
    6.9041   -4.6856    0.0000 C   0  0  0  0  0  0  0  0  0  0  0  0
    8.3292   -3.8539    0.0000 C   0  0  0  0  0  0  0  0  0  0  0  0
    8.3330   -4.6789    0.0000 C   0  0  0  0  0  0  0  0  0  0  0  0
    7.6205   -5.0947    0.0000 C   0  0  0  0  0  0  0  0  0  0  0  0
    7.6359   -8.3947    0.0000 C   0  0  0  0  0  0  0  0  0  0  0  0
    8.3408   -6.3289    0.0000 C   0  0  0  0  0  0  0  0  0  0  0  0
    8.3446   -7.1539    0.0000 C   0  0  0  0  0  0  0  0  0  0  0  0
    7.6321   -7.5697    0.0000 C   0  0  0  0  0  0  0  0  0  0  0  0
    6.9157   -7.1605    0.0000 C   0  0  0  0  0  0  0  0  0  0  0  0
    6.9118   -6.3356    0.0000 C   0  0  0  0  0  0  0  0  0  0  0  0
    7.6244   -5.9197    0.0000 C   0  0  0  0  0  0  0  0  0  0  0  0
 11  4  1  0  0  0  0
  4  1  1  0  0  0  0
  3  2  1  0  0  0  0
  4  3  1  0  0  0  0
  8  5  1  0  0  0  0
 11  6  2  0  0  0  0
  7  6  1  0  0  0  0
  8  7  2  0  0  0  0
  9  8  1  0  0  0  0
 10  9  2  0  0  0  0
 11 10  1  0  0  0  0
M  END
>  <cdx:fragmentId>
23474

$$$$
