519145.cdx
  Mrv1902 05222410222D          

 23 22  0  0  0  0            999 V2000
    6.5918   -9.6380    0.0000 C   0  0  0  0  0  0  0  0  0  0  0  0
   21.5957   -9.2255    0.0000 C   0  0  0  0  0  0  0  0  0  0  0  0
   20.8812   -9.6380    0.0000 C   0  0  0  0  0  0  0  0  0  0  0  0
   20.1668   -9.2255    0.0000 C   0  0  0  0  0  0  0  0  0  0  0  0
   19.4523   -9.6380    0.0000 C   0  0  0  0  0  0  0  0  0  0  0  0
   18.7378   -9.2255    0.0000 C   0  0  0  0  0  0  0  0  0  0  0  0
   18.0233   -9.6380    0.0000 C   0  0  0  0  0  0  0  0  0  0  0  0
   17.3089   -9.2255    0.0000 C   0  0  0  0  0  0  0  0  0  0  0  0
   16.5944   -9.6380    0.0000 C   0  0  0  0  0  0  0  0  0  0  0  0
   15.8799   -9.2255    0.0000 C   0  0  0  0  0  0  0  0  0  0  0  0
   15.1655   -9.6380    0.0000 C   0  0  0  0  0  0  0  0  0  0  0  0
   14.4510   -9.2255    0.0000 C   0  0  0  0  0  0  0  0  0  0  0  0
   13.7365   -9.6380    0.0000 C   0  0  0  0  0  0  0  0  0  0  0  0
   13.0220   -9.2255    0.0000 C   0  0  0  0  0  0  0  0  0  0  0  0
   12.3076   -9.6380    0.0000 C   0  0  0  0  0  0  0  0  0  0  0  0
   11.5931   -9.2255    0.0000 C   0  0  0  0  0  0  0  0  0  0  0  0
   10.8786   -9.6380    0.0000 C   0  0  0  0  0  0  0  0  0  0  0  0
   10.1642   -9.2255    0.0000 C   0  0  0  0  0  0  0  0  0  0  0  0
    9.4497   -9.6380    0.0000 C   0  0  0  0  0  0  0  0  0  0  0  0
    8.7352   -9.2255    0.0000 C   0  0  0  0  0  0  0  0  0  0  0  0
    8.0208   -9.6380    0.0000 C   0  0  0  0  0  0  0  0  0  0  0  0
    7.3063   -9.2255    0.0000 C   0  0  0  0  0  0  0  0  0  0  0  0
    7.3063   -8.4005    0.0000 C   0  0  0  0  0  0  0  0  0  0  0  0
 22  1  1  0  0  0  0
  3  2  1  0  0  0  0
  4  3  1  0  0  0  0
  5  4  1  0  0  0  0
  6  5  1  0  0  0  0
  7  6  1  0  0  0  0
  8  7  1  0  0  0  0
  9  8  1  0  0  0  0
 10  9  1  0  0  0  0
 11 10  1  0  0  0  0
 12 11  1  0  0  0  0
 13 12  1  0  0  0  0
 14 13  1  0  0  0  0
 15 14  1  0  0  0  0
 16 15  1  0  0  0  0
 17 16  1  0  0  0  0
 18 17  1  0  0  0  0
 19 18  1  0  0  0  0
 20 19  1  0  0  0  0
 21 20  1  0  0  0  0
 22 21  1  0  0  0  0
 23 22  1  0  0  0  0
M  END
>  <cdx:fragmentId>
23322

$$$$
