519158.cdx
  Mrv1902 05222410242D          

 11 10  0  0  0  0            999 V2000
    5.4876   -6.8759    0.0000 O   0  0  0  0  0  0  0  0  0  0  0  0
   10.4889   -8.1134    0.0000 C   0  0  0  0  0  0  0  0  0  0  0  0
    9.7744   -7.7009    0.0000 C   0  0  0  0  0  0  0  0  0  0  0  0
    9.0599   -8.1134    0.0000 C   0  0  0  0  0  0  0  0  0  0  0  0
    8.3455   -7.7009    0.0000 C   0  0  0  0  0  0  0  0  0  0  0  0
    7.6310   -8.1134    0.0000 C   0  0  0  0  0  0  0  0  0  0  0  0
    6.9165   -7.7009    0.0000 C   0  0  0  0  0  0  0  0  0  0  0  0
    6.2020   -8.1134    0.0000 C   0  0  0  0  0  0  0  0  0  0  0  0
    5.4876   -7.7009    0.0000 C   0  0  0  0  0  0  0  0  0  0  0  0
    4.7731   -8.1134    0.0000 C   0  0  0  0  0  0  0  0  0  0  0  0
    4.0586   -7.7009    0.0000 C   0  0  0  0  0  0  0  0  0  0  0  0
  9  1  1  0  0  0  0
  3  2  1  0  0  0  0
  4  3  1  0  0  0  0
  5  4  1  0  0  0  0
  6  5  1  0  0  0  0
  7  6  1  0  0  0  0
  8  7  1  0  0  0  0
  9  8  1  0  0  0  0
 10  9  1  0  0  0  0
 11 10  1  0  0  0  0
M  END
>  <cdx:groupId>
23426

>  <cdx:fragmentId>
23397

$$$$
