519186.cdx
  Mrv1902 05222410222D          

 12 11  0  0  0  0            999 V2000
    8.9774   -6.5077    0.0000 C   0  0  0  0  0  0  0  0  0  0  0  0
    8.2630   -6.9202    0.0000 C   0  0  0  0  0  0  0  0  0  0  0  0
    7.5485   -6.5077    0.0000 C   0  0  0  0  0  0  0  0  0  0  0  0
    6.8340   -6.9202    0.0000 C   0  0  0  0  0  0  0  0  0  0  0  0
    6.1195   -6.5077    0.0000 C   0  0  0  0  0  0  0  0  0  0  0  0
    5.4051   -6.9202    0.0000 C   0  0  0  0  0  0  0  0  0  0  0  0
    4.6906   -6.5077    0.0000 C   0  0  0  0  0  0  0  0  0  0  0  0
    3.9761   -6.9202    0.0000 C   0  0  0  0  0  0  0  0  0  0  0  0
    8.9774   -5.6827    0.0000 O   0  0  0  0  0  0  0  0  0  0  0  0
    9.6919   -6.9202    0.0000 O   0  0  0  0  0  0  0  0  0  0  0  0
    6.8340   -7.7452    0.0000 C   0  0  0  0  0  0  0  0  0  0  0  0
   10.4064   -6.5077    0.0000 C   0  0  0  0  0  0  0  0  0  0  0  0
  1  2  1  0  0  0  0
  2  3  1  0  0  0  0
  3  4  1  0  0  0  0
  4  5  1  0  0  0  0
  5  6  1  0  0  0  0
  6  7  1  0  0  0  0
  7  8  1  0  0  0  0
  1  9  2  0  0  0  0
  1 10  1  0  0  0  0
  4 11  1  0  0  0  0
 10 12  1  0  0  0  0
M  END
>  <cdx:fragmentId>
23434

$$$$
