519271.cdx
  Mrv1902 05222410272D          

  6  5  0  0  0  0            999 V2000
   14.8531   -8.1939    0.0000 C   0  0  0  0  0  0  0  0  0  0  0  0
   15.5676   -8.6064    0.0000 C   0  0  0  0  0  0  0  0  0  0  0  0
   16.2821   -8.1939    0.0000 C   0  0  0  0  0  0  0  0  0  0  0  0
   16.9965   -8.6064    0.0000 C   0  0  0  0  0  0  0  0  0  0  0  0
   14.1386   -7.7814    0.0000 N   0  0  0  0  0  0  0  0  0  0  0  0
   15.5676   -9.4314    0.0000 C   0  0  0  0  0  0  0  0  0  0  0  0
  1  2  1  0  0  0  0
  2  3  1  0  0  0  0
  3  4  1  0  0  0  0
  1  5  3  0  0  0  0
  2  6  2  0  0  0  0
M  END
>  <cdx:groupId>
23565

>  <cdx:fragmentId>
23551

$$$$
