519249.cdx
  Mrv1902 05222410272D          

 12 11  0  0  0  0            999 V2000
   12.6109   -8.8991    0.0000 C   0  0  0  0  0  0  0  0  0  0  0  0
   13.3253   -8.4866    0.0000 C   0  0  0  0  0  0  0  0  0  0  0  0
   14.0398   -8.8991    0.0000 C   0  0  0  0  0  0  0  0  0  0  0  0
   14.7543   -8.4866    0.0000 C   0  0  0  0  0  0  0  0  0  0  0  0
   15.4688   -8.8991    0.0000 C   0  0  0  0  0  0  0  0  0  0  0  0
   16.1832   -8.4866    0.0000 C   0  0  0  0  0  0  0  0  0  0  0  0
   16.8977   -8.8991    0.0000 C   0  0  0  0  0  0  0  0  0  0  0  0
   17.6122   -8.4866    0.0000 C   0  0  0  0  0  0  0  0  0  0  0  0
   18.3266   -8.8991    0.0000 C   0  0  0  0  0  0  0  0  0  0  0  0
   15.4688   -9.7241    0.0000 C   0  0  0  0  0  0  0  0  0  0  0  0
   14.7543   -7.6616    0.0000 C   0  0  0  0  0  0  0  0  0  0  0  0
   14.0398   -7.2491    0.0000 C   0  0  0  0  0  0  0  0  0  0  0  0
  1  2  1  0  0  0  0
  2  3  1  0  0  0  0
  3  4  1  0  0  0  0
  4  5  1  0  0  0  0
  5  6  1  0  0  0  0
  6  7  1  0  0  0  0
  7  8  1  0  0  0  0
  8  9  1  0  0  0  0
  5 10  1  0  0  0  0
 11 12  1  0  0  0  0
  4 11  1  0  0  0  0
M  END
>  <cdx:groupId>
23544

>  <cdx:fragmentId>
23512

$$$$
