519379.cdx
  Mrv1902 05222410232D          

 15 15  0  0  0  0            999 V2000
    8.4918   -6.5066    0.0000 C   0  0  0  0  0  0  0  0  0  0  0  0
    7.7773   -6.9191    0.0000 C   0  0  0  0  0  0  0  0  0  0  0  0
    7.0630   -7.3318    0.0000 C   0  0  0  0  0  0  0  0  0  0  0  0
    7.0633   -8.1568    0.0000 C   0  0  0  0  0  0  0  0  0  0  0  0
    6.3490   -8.5696    0.0000 C   0  0  0  0  0  0  0  0  0  0  0  0
    5.6344   -8.1574    0.0000 C   0  0  0  0  0  0  0  0  0  0  0  0
    5.6341   -7.3324    0.0000 C   0  0  0  0  0  0  0  0  0  0  0  0
    6.3484   -6.9196    0.0000 C   0  0  0  0  0  0  0  0  0  0  0  0
    5.9356   -6.2053    0.0000 C   0  0  0  0  0  0  0  0  0  0  0  0
    6.7606   -6.2050    0.0000 C   0  0  0  0  0  0  0  0  0  0  0  0
    7.7780   -8.5691    0.0000 C   0  0  0  0  0  0  0  0  0  0  0  0
    9.2063   -6.0941    0.0000 C   0  0  0  0  0  0  0  0  0  0  0  0
    9.9207   -6.5066    0.0000 O   0  0  0  0  0  0  0  0  0  0  0  0
    9.2063   -5.2691    0.0000 C   0  0  0  0  0  0  0  0  0  0  0  0
    4.9201   -8.5702    0.0000 O   0  0  0  0  0  0  0  0  0  0  0  0
  1  2  3  0  0  0  0
  3  4  2  0  0  0  0
  4  5  1  0  0  0  0
  5  6  1  0  0  0  0
  6  7  1  0  0  0  0
  7  8  1  0  0  0  0
  3  8  1  0  0  0  0
  8  9  1  0  0  0  0
  8 10  1  0  0  0  0
  4 11  1  0  0  0  0
  2  3  1  0  0  0  0
  1 12  1  0  0  0  0
 12 13  1  0  0  0  0
 12 14  1  0  0  0  0
  6 15  1  0  0  0  0
M  END
>  <cdx:fragmentId>
32196

$$$$
