519383.cdx
  Mrv1902 05222410212D          

 14 14  0  0  0  0            999 V2000
    8.0475   -3.4859    0.0000 C   0  0  0  0  0  0  0  0  0  0  0  0
    7.3331   -3.8984    0.0000 C   0  0  0  0  0  0  0  0  0  0  0  0
    6.6186   -4.3109    0.0000 C   0  0  0  0  0  0  0  0  0  0  0  0
    5.9041   -3.8984    0.0000 C   0  0  0  0  0  0  0  0  0  0  0  0
    5.1896   -4.3109    0.0000 C   0  0  0  0  0  0  0  0  0  0  0  0
    5.1896   -5.1359    0.0000 C   0  0  0  0  0  0  0  0  0  0  0  0
    5.9041   -5.5484    0.0000 C   0  0  0  0  0  0  0  0  0  0  0  0
    6.6186   -5.1359    0.0000 C   0  0  0  0  0  0  0  0  0  0  0  0
    7.0311   -5.8504    0.0000 C   0  0  0  0  0  0  0  0  0  0  0  0
    7.4436   -5.1359    0.0000 C   0  0  0  0  0  0  0  0  0  0  0  0
    5.9041   -3.0734    0.0000 C   0  0  0  0  0  0  0  0  0  0  0  0
    8.7620   -3.0734    0.0000 C   0  0  0  0  0  0  0  0  0  0  0  0
    8.7620   -2.2484    0.0000 O   0  0  0  0  0  0  0  0  0  0  0  0
    9.4765   -3.4859    0.0000 C   0  0  0  0  0  0  0  0  0  0  0  0
  1  2  3  0  0  0  0
  3  4  2  0  0  0  0
  4  5  1  0  0  0  0
  5  6  1  0  0  0  0
  6  7  1  0  0  0  0
  7  8  1  0  0  0  0
  3  8  1  0  0  0  0
  8  9  1  0  0  0  0
  8 10  1  0  0  0  0
  4 11  1  0  0  0  0
  2  3  1  0  0  0  0
  1 12  1  0  0  0  0
 12 13  2  0  0  0  0
 12 14  1  0  0  0  0
M  END
>  <cdx:fragmentId>
23775

$$$$
