519382.cdx
  Mrv1902 05222410202D          

 14 14  0  0  0  0            999 V2000
    9.4765   -4.3109    0.0000 C   0  0  0  0  0  0  0  0  0  0  0  0
    8.7620   -3.8984    0.0000 C   0  0  0  0  0  0  0  0  0  0  0  0
    8.0475   -4.3109    0.0000 C   0  0  0  0  0  0  0  0  0  0  0  0
    7.3331   -3.8984    0.0000 C   0  0  0  0  0  0  0  0  0  0  0  0
    8.7620   -3.0734    0.0000 O   0  0  0  0  0  0  0  0  0  0  0  0
    6.6186   -4.3109    0.0000 C   0  0  0  0  0  0  0  0  0  0  0  0
    5.9041   -3.8984    0.0000 C   0  0  0  0  0  0  0  0  0  0  0  0
    5.1896   -4.3109    0.0000 C   0  0  0  0  0  0  0  0  0  0  0  0
    5.1896   -5.1359    0.0000 C   0  0  0  0  0  0  0  0  0  0  0  0
    5.9041   -5.5484    0.0000 C   0  0  0  0  0  0  0  0  0  0  0  0
    6.6186   -5.1359    0.0000 C   0  0  0  0  0  0  0  0  0  0  0  0
    7.0311   -5.8504    0.0000 C   0  0  0  0  0  0  0  0  0  0  0  0
    7.4436   -5.1359    0.0000 C   0  0  0  0  0  0  0  0  0  0  0  0
    5.9041   -3.0734    0.0000 C   0  0  0  0  0  0  0  0  0  0  0  0
  1  2  1  0  0  0  0
  2  3  1  0  0  0  0
  3  4  1  0  0  0  0
  2  5  2  0  0  0  0
  6  7  2  0  0  0  0
  7  8  1  0  0  0  0
  8  9  1  0  0  0  0
  9 10  1  0  0  0  0
 10 11  1  0  0  0  0
  6 11  1  0  0  0  0
 11 12  1  0  0  0  0
 11 13  1  0  0  0  0
  7 14  1  0  0  0  0
  4  6  1  0  0  0  0
M  END
>  <cdx:fragmentId>
23775

$$$$
