519407.cdx
  Mrv1902 05222410242D          

 11 10  0  0  0  0            999 V2000
    4.1411   -6.4278    0.0000 C   0  0  0  0  0  0  0  0  0  0  0  0
    4.8556   -6.8403    0.0000 O   0  0  0  0  0  0  0  0  0  0  0  0
    5.5701   -5.6028    0.0000 O   0  0  0  0  0  0  0  0  0  0  0  0
   10.5714   -6.8403    0.0000 C   0  0  0  0  0  0  0  0  0  0  0  0
    9.8569   -6.4278    0.0000 C   0  0  0  0  0  0  0  0  0  0  0  0
    9.1424   -6.8403    0.0000 C   0  0  0  0  0  0  0  0  0  0  0  0
    8.4280   -6.4278    0.0000 C   0  0  0  0  0  0  0  0  0  0  0  0
    7.7135   -6.8403    0.0000 C   0  0  0  0  0  0  0  0  0  0  0  0
    6.9990   -6.4278    0.0000 C   0  0  0  0  0  0  0  0  0  0  0  0
    6.2845   -6.8403    0.0000 C   0  0  0  0  0  0  0  0  0  0  0  0
    5.5701   -6.4278    0.0000 C   0  0  0  0  0  0  0  0  0  0  0  0
  2  1  1  0  0  0  0
 11  2  1  0  0  0  0
 11  3  2  0  0  0  0
  5  4  1  0  0  0  0
  6  5  1  0  0  0  0
  7  6  1  0  0  0  0
  8  7  2  0  0  0  0
  9  8  1  0  0  0  0
 10  9  1  0  0  0  0
 11 10  1  0  0  0  0
M  END
>  <cdx:groupId>
23882

>  <cdx:fragmentId>
23853

$$$$
