519592.cdx
  Mrv1902 05222410212D          

 20 19  0  0  0  0            999 V2000
    3.6737   -7.5794    0.0000 C   0  0  0  0  0  0  0  0  0  0  0  0
    4.3872   -7.1653    0.0000 C   0  0  0  0  0  0  0  0  0  0  0  0
    5.1026   -7.5763    0.0000 C   0  0  0  0  0  0  0  0  0  0  0  0
    5.8162   -7.1622    0.0000 C   0  0  0  0  0  0  0  0  0  0  0  0
    6.5316   -7.5731    0.0000 C   0  0  0  0  0  0  0  0  0  0  0  0
    7.2451   -7.1590    0.0000 C   0  0  0  0  0  0  0  0  0  0  0  0
    7.9605   -7.5699    0.0000 C   0  0  0  0  0  0  0  0  0  0  0  0
    8.6741   -7.1559    0.0000 C   0  0  0  0  0  0  0  0  0  0  0  0
    9.3894   -7.5668    0.0000 C   0  0  0  0  0  0  0  0  0  0  0  0
   10.1030   -7.1527    0.0000 C   0  0  0  0  0  0  0  0  0  0  0  0
   10.8184   -7.5636    0.0000 C   0  0  0  0  0  0  0  0  0  0  0  0
   11.5319   -7.1495    0.0000 C   0  0  0  0  0  0  0  0  0  0  0  0
   12.2473   -7.5604    0.0000 C   0  0  0  0  0  0  0  0  0  0  0  0
   12.9609   -7.1464    0.0000 C   0  0  0  0  0  0  0  0  0  0  0  0
    3.6755   -8.4044    0.0000 O   0  0  0  0  0  0  0  0  0  0  0  0
    2.9583   -7.1685    0.0000 O   0  0  0  0  0  0  0  0  0  0  0  0
    2.2447   -7.5826    0.0000 Si  0  0  0  0  0  0  0  0  0  0  0  0
    1.5312   -7.9967    0.0000 C   0  0  0  0  0  0  0  0  0  0  0  0
    2.6588   -8.2961    0.0000 C   0  0  0  0  0  0  0  0  0  0  0  0
    1.8307   -6.8690    0.0000 C   0  0  0  0  0  0  0  0  0  0  0  0
  1  2  1  0  0  0  0
  2  3  1  0  0  0  0
  3  4  1  0  0  0  0
  4  5  1  0  0  0  0
  5  6  1  0  0  0  0
  6  7  1  0  0  0  0
  7  8  1  0  0  0  0
  8  9  1  0  0  0  0
  9 10  1  0  0  0  0
 10 11  1  0  0  0  0
 11 12  1  0  0  0  0
 12 13  1  0  0  0  0
 13 14  1  0  0  0  0
  1 15  2  0  0  0  0
  1 16  1  0  0  0  0
 17 18  1  0  0  0  0
 17 19  1  0  0  0  0
 17 20  1  0  0  0  0
 16 17  1  0  0  0  0
M  END
>  <cdx:groupId>
24003

>  <cdx:fragmentId>
23947

$$$$
