519642.cdx
  Mrv1902 05222410202D          

  7  7  0  0  0  0            999 V2000
    7.6584   -6.3927    0.0000 C   0  0  0  0  0  0  0  0  0  0  0  0
    6.9047   -6.7283    0.0000 C   0  0  0  0  0  0  0  0  0  0  0  0
    6.3527   -6.1152    0.0000 C   0  0  0  0  0  0  0  0  0  0  0  0
    6.7652   -5.4007    0.0000 C   0  0  0  0  0  0  0  0  0  0  0  0
    7.5722   -5.5723    0.0000 S   0  0  0  0  0  0  0  0  0  0  0  0
    8.3729   -6.8052    0.0000 C   0  0  0  0  0  0  0  0  0  0  0  0
    9.0873   -6.3927    0.0000 C   0  0  0  0  0  0  0  0  0  0  0  0
  1  2  2  0  0  0  0
  2  3  1  0  0  0  0
  3  4  2  0  0  0  0
  4  5  1  0  0  0  0
  1  5  1  0  0  0  0
  6  7  2  0  0  0  0
  1  6  1  0  0  0  0
M  END
>  <cdx:groupId>
24031

>  <cdx:fragmentId>
24013

$$$$
