519762.cdx
  Mrv1902 05222410242D          

 16 16  0  0  0  0            999 V2000
    7.4133   -7.5181    0.0000 C   0  0  1  0  0  0  0  0  0  0  0  0
    6.6921   -7.9187    0.0000 C   0  0  1  0  0  0  0  0  0  0  0  0
    6.6784   -8.7436    0.0000 C   0  0  0  0  0  0  0  0  0  0  0  0
    7.3860   -9.1678    0.0000 C   0  0  0  0  0  0  0  0  0  0  0  0
    8.1072   -8.7672    0.0000 C   0  0  0  0  0  0  0  0  0  0  0  0
    8.1208   -7.9423    0.0000 C   0  0  0  0  0  0  0  0  0  0  0  0
    7.3723   -9.9927    0.0000 C   0  0  0  0  0  0  0  0  0  0  0  0
    6.6511  -10.3933    0.0000 C   0  0  0  0  0  0  0  0  0  0  0  0
    8.0799  -10.4170    0.0000 C   0  0  0  0  0  0  0  0  0  0  0  0
    5.9845   -7.4944    0.0000 C   0  0  0  0  0  0  0  0  0  0  0  0
    5.2633   -7.8950    0.0000 C   0  0  0  0  0  0  0  0  0  0  0  0
    5.9982   -6.6695    0.0000 C   0  0  0  0  0  0  0  0  0  0  0  0
    7.8375   -6.8105    0.0000 C   0  0  0  0  0  0  0  0  0  0  0  0
    7.0127   -6.7969    0.0000 C   0  0  0  0  0  0  0  0  0  0  0  0
    8.6625   -6.8105    0.0000 C   0  0  0  0  0  0  0  0  0  0  0  0
    8.8147   -9.1915    0.0000 O   0  0  0  0  0  0  0  0  0  0  0  0
  1  2  1  0  0  0  0
  2  3  1  0  0  0  0
  3  4  1  0  0  0  0
  4  5  1  0  0  0  0
  5  6  1  0  0  0  0
  1  6  1  0  0  0  0
  7  8  1  0  0  0  0
  7  9  1  0  0  0  0
  4  7  2  0  0  0  0
 10 11  1  0  0  0  0
 10 12  2  0  0  0  0
  2 10  1  1  0  0  0
  1 13  1  0  0  0  0
  1 14  1  1  0  0  0
 13 15  2  0  0  0  0
  5 16  2  0  0  0  0
M  END
>  <cdx:fragmentId>
5

$$$$
