519743.cdx
  Mrv1902 05222410222D          

 15 17  0  0  0  0            999 V2000
   17.0705   -8.3183    0.0000 C   0  0  0  0  0  0  0  0  0  0  0  0
   16.3561   -7.9058    0.0000 C   0  0  0  0  0  0  0  0  0  0  0  0
   15.6416   -8.3183    0.0000 C   0  0  0  0  0  0  0  0  0  0  0  0
   14.9271   -7.9058    0.0000 C   0  0  0  0  0  0  0  0  0  0  0  0
   14.2127   -8.3183    0.0000 C   0  0  0  0  0  0  0  0  0  0  0  0
   14.2127   -9.1433    0.0000 C   0  0  0  0  0  0  0  0  0  0  0  0
   14.9271   -9.6560    0.0000 C   0  0  0  0  0  0  0  0  0  0  0  0
   15.6416   -9.1433    0.0000 C   0  0  0  0  0  0  0  0  0  0  0  0
   16.3561   -9.5558    0.0000 C   0  0  0  0  0  0  0  0  0  0  0  0
   17.0705   -9.1433    0.0000 C   0  0  0  0  0  0  0  0  0  0  0  0
   17.4255   -9.8632    0.0000 C   0  0  0  0  0  0  0  0  0  0  0  0
   16.3561   -7.0808    0.0000 C   0  0  0  0  0  0  0  0  0  0  0  0
   14.9271   -8.7308    0.0000 C   0  0  0  0  0  0  0  0  0  0  0  0
   13.4982   -9.5558    0.0000 C   0  0  0  0  0  0  0  0  0  0  0  0
   15.6416   -7.4933    0.0000 C   0  0  0  0  0  0  0  0  0  0  0  0
  1  2  1  0  0  0  0
  2  3  1  0  0  0  0
  3  4  1  0  0  0  0
  4  5  1  0  0  0  0
  5  6  1  0  0  0  0
  6  7  1  0  0  0  0
  7  8  1  0  0  0  0
  8  9  1  0  0  0  0
  9 10  1  0  0  0  0
  1 10  1  0  0  0  0
  1 11  1  0  0  0  0
 11  7  1  0  0  0  0
  3  8  1  0  0  0  0
  2 12  2  0  0  0  0
  8 13  1  0  0  0  0
  6 14  1  0  0  0  0
  3 15  1  0  0  0  0
M  END
>  <cdx:groupId>
24187

>  <cdx:fragmentId>
24143

$$$$
