519894.cdx
  Mrv1902 05222410262D          

 10  9  0  0  0  0            999 V2000
    4.1956   -5.9878    0.0000 C   0  0  0  0  0  0  0  0  0  0  0  0
    9.1969   -6.4003    0.0000 C   0  0  0  0  0  0  0  0  0  0  0  0
    4.9101   -6.4003    0.0000 O   0  0  0  0  0  0  0  0  0  0  0  0
    5.6245   -5.1628    0.0000 O   0  0  0  0  0  0  0  0  0  0  0  0
    8.4824   -5.1628    0.0000 C   0  0  0  0  0  0  0  0  0  0  0  0
    8.4824   -5.9878    0.0000 C   0  0  0  0  0  0  0  0  0  0  0  0
    7.7680   -6.4003    0.0000 C   0  0  0  0  0  0  0  0  0  0  0  0
    7.0535   -5.9878    0.0000 C   0  0  0  0  0  0  0  0  0  0  0  0
    6.3390   -6.4003    0.0000 C   0  0  0  0  0  0  0  0  0  0  0  0
    5.6245   -5.9878    0.0000 C   0  0  0  0  0  0  0  0  0  0  0  0
  3  1  1  0  0  0  0
  6  2  1  0  0  0  0
 10  3  1  0  0  0  0
 10  4  2  0  0  0  0
  6  5  1  0  0  0  0
  7  6  1  0  0  0  0
  8  7  1  0  0  0  0
  9  8  1  0  0  0  0
 10  9  1  0  0  0  0
M  END
>  <cdx:groupId>
24428

>  <cdx:fragmentId>
24402

$$$$
