520125.cdx
  Mrv1902 05222410242D          

 10  9  0  0  0  0            999 V2000
   15.4688   -8.2428    0.0000 C   0  0  0  0  0  0  0  0  0  0  0  0
   14.7543   -8.6553    0.0000 C   0  0  0  0  0  0  0  0  0  0  0  0
   14.0398   -8.2428    0.0000 C   0  0  0  0  0  0  0  0  0  0  0  0
   14.0398   -7.4178    0.0000 C   0  0  0  0  0  0  0  0  0  0  0  0
   15.4688   -7.4178    0.0000 O   0  0  0  0  0  0  0  0  0  0  0  0
   16.1832   -8.6553    0.0000 O   0  0  0  0  0  0  0  0  0  0  0  0
   13.3253   -8.6553    0.0000 C   0  0  0  0  0  0  0  0  0  0  0  0
   14.7543   -9.4803    0.0000 O   0  0  0  0  0  0  0  0  0  0  0  0
   16.8977   -8.2428    0.0000 C   0  0  0  0  0  0  0  0  0  0  0  0
   17.6122   -8.6553    0.0000 C   0  0  0  0  0  0  0  0  0  0  0  0
  1  2  1  0  0  0  0
  2  3  1  0  0  0  0
  3  4  1  0  0  0  0
  1  5  2  0  0  0  0
  1  6  1  0  0  0  0
  3  7  1  0  0  0  0
  2  8  1  0  0  0  0
  9 10  1  0  0  0  0
  6  9  1  0  0  0  0
M  END
>  <cdx:groupId>
24496

>  <cdx:fragmentId>
24470

$$$$
