520188.cdx
  Mrv1902 05222410192D          

 11 10  0  0  0  0            999 V2000
    4.4434   -5.3324    0.0000 C   0  0  0  0  0  0  0  0  0  0  0  0
   10.1591   -5.3324    0.0000 C   0  0  0  0  0  0  0  0  0  0  0  0
    5.1578   -5.7449    0.0000 O   0  0  0  0  0  0  0  0  0  0  0  0
    5.8723   -4.5074    0.0000 O   0  0  0  0  0  0  0  0  0  0  0  0
    9.4447   -6.5699    0.0000 C   0  0  0  0  0  0  0  0  0  0  0  0
    9.4447   -5.7449    0.0000 C   0  0  0  0  0  0  0  0  0  0  0  0
    8.7302   -5.3324    0.0000 C   0  0  0  0  0  0  0  0  0  0  0  0
    8.0157   -5.7449    0.0000 C   0  0  0  0  0  0  0  0  0  0  0  0
    7.3013   -5.3324    0.0000 C   0  0  0  0  0  0  0  0  0  0  0  0
    6.5868   -5.7449    0.0000 C   0  0  0  0  0  0  0  0  0  0  0  0
    5.8723   -5.3324    0.0000 C   0  0  0  0  0  0  0  0  0  0  0  0
  3  1  1  0  0  0  0
  6  2  1  0  0  0  0
 11  3  1  0  0  0  0
 11  4  2  0  0  0  0
  6  5  1  0  0  0  0
  7  6  1  0  0  0  0
  8  7  1  0  0  0  0
  9  8  1  0  0  0  0
 10  9  1  0  0  0  0
 11 10  1  0  0  0  0
M  END
>  <cdx:groupId>
24711

>  <cdx:fragmentId>
24682

$$$$
