5202.cdx
  Mrv1902 05222410282D          

 17 17  0  0  0  0            999 V2000
    5.0875   -5.2525    0.0000 C   0  0  0  0  0  0  0  0  0  0  0  0
    5.8020   -4.8400    0.0000 C   0  0  0  0  0  0  0  0  0  0  0  0
    6.5164   -5.2525    0.0000 C   0  0  0  0  0  0  0  0  0  0  0  0
    7.2309   -4.8400    0.0000 C   0  0  0  0  0  0  0  0  0  0  0  0
    7.9454   -5.2525    0.0000 C   0  0  0  0  0  0  0  0  0  0  0  0
    7.9454   -6.0775    0.0000 C   0  0  0  0  0  0  0  0  0  0  0  0
    8.6599   -6.4900    0.0000 C   0  0  0  0  0  0  0  0  0  0  0  0
    7.2309   -6.4900    0.0000 C   0  0  0  0  0  0  0  0  0  0  0  0
    7.9454   -6.9025    0.0000 O   0  0  0  0  0  0  0  0  0  0  0  0
    7.2309   -7.3150    0.0000 C   0  0  0  0  0  0  0  0  0  0  0  0
    5.0875   -6.0775    0.0000 C   0  0  0  0  0  0  0  0  0  0  0  0
    5.8020   -6.4900    0.0000 C   0  0  0  0  0  0  0  0  0  0  0  0
    5.8020   -7.3150    0.0000 C   0  0  0  0  0  0  0  0  0  0  0  0
    5.8020   -8.1400    0.0000 C   0  0  0  0  0  0  0  0  0  0  0  0
    4.9770   -7.3150    0.0000 C   0  0  0  0  0  0  0  0  0  0  0  0
    6.5164   -4.4275    0.0000 O   0  0  0  0  0  0  0  0  0  0  0  0
    5.8020   -4.0150    0.0000 C   0  0  0  0  0  0  0  0  0  0  0  0
  1  2  1  0  0  0  0
  2  3  1  0  0  0  0
  3  4  1  0  0  0  0
  4  5  1  0  0  0  0
  5  6  1  0  0  0  0
  6  7  2  0  0  0  0
  6  8  1  0  0  0  0
  8  9  1  0  0  0  0
  8 10  1  0  0  0  0
  1 11  1  0  0  0  0
 11 12  2  0  0  0  0
 12 13  1  0  0  0  0
 13 10  1  0  0  0  0
 13 14  1  0  0  0  0
 13 15  1  0  0  0  0
  3 16  1  0  0  0  0
  2 17  2  0  0  0  0
M  END
>  <cdx:fragmentId>
43103

$$$$
