520326.cdx
  Mrv1902 05222410242D          

 12 11  0  0  0  0            999 V2000
   14.7543   -8.3574    0.0000 C   0  0  0  0  0  0  0  0  0  0  0  0
   14.0398   -8.7699    0.0000 C   0  0  0  0  0  0  0  0  0  0  0  0
   13.3253   -8.3574    0.0000 C   0  0  0  0  0  0  0  0  0  0  0  0
   12.6109   -8.7699    0.0000 C   0  0  0  0  0  0  0  0  0  0  0  0
   14.7543   -7.5324    0.0000 O   0  0  0  0  0  0  0  0  0  0  0  0
   15.4688   -8.7699    0.0000 O   0  0  0  0  0  0  0  0  0  0  0  0
   14.0398   -9.5949    0.0000 C   0  0  0  0  0  0  0  0  0  0  0  0
   16.1832   -8.3574    0.0000 C   0  0  0  0  0  0  0  0  0  0  0  0
   16.8977   -8.7699    0.0000 C   0  0  0  0  0  0  0  0  0  0  0  0
   17.6122   -8.3574    0.0000 C   0  0  0  0  0  0  0  0  0  0  0  0
   17.6122   -7.5324    0.0000 C   0  0  0  0  0  0  0  0  0  0  0  0
   18.3266   -8.7699    0.0000 C   0  0  0  0  0  0  0  0  0  0  0  0
  1  2  1  0  0  0  0
  2  3  1  0  0  0  0
  3  4  1  0  0  0  0
  1  5  2  0  0  0  0
  1  6  1  0  0  0  0
  2  7  1  0  0  0  0
  8  9  1  0  0  0  0
  9 10  1  0  0  0  0
 10 11  1  0  0  0  0
 10 12  1  0  0  0  0
  6  8  1  0  0  0  0
M  END
>  <cdx:groupId>
24816

>  <cdx:fragmentId>
24784

$$$$
