520383.cdx
  Mrv1902 05222410272D          

 15 16  0  0  0  0            999 V2000
    8.6709   -8.4654    0.0000 C   0  0  0  0  0  0  0  0  0  0  0  0
    9.3854   -8.0529    0.0000 C   0  0  0  0  0  0  0  0  0  0  0  0
    9.3854   -7.2279    0.0000 C   0  0  0  0  0  0  0  0  0  0  0  0
    8.6709   -6.8154    0.0000 C   0  0  0  0  0  0  0  0  0  0  0  0
    7.9564   -7.2279    0.0000 C   0  0  0  0  0  0  0  0  0  0  0  0
    7.2420   -6.8154    0.0000 C   0  0  0  0  0  0  0  0  0  0  0  0
    6.5275   -7.2279    0.0000 C   0  0  0  0  0  0  0  0  0  0  0  0
    6.5275   -8.0529    0.0000 C   0  0  0  0  0  0  0  0  0  0  0  0
    7.2420   -8.4654    0.0000 C   0  0  0  0  0  0  0  0  0  0  0  0
    7.9564   -8.0529    0.0000 C   0  0  0  0  0  0  0  0  0  0  0  0
    5.8130   -5.9904    0.0000 C   0  0  0  0  0  0  0  0  0  0  0  0
    5.8130   -6.8154    0.0000 C   0  0  0  0  0  0  0  0  0  0  0  0
    5.0985   -7.2279    0.0000 C   0  0  0  0  0  0  0  0  0  0  0  0
    7.9564   -8.8779    0.0000 C   0  0  0  0  0  0  0  0  0  0  0  0
    8.6709   -5.9904    0.0000 C   0  0  0  0  0  0  0  0  0  0  0  0
  1  2  1  0  0  0  0
  2  3  1  0  0  0  0
  3  4  1  0  0  0  0
  4  5  2  0  0  0  0
  5  6  1  0  0  0  0
  6  7  2  0  0  0  0
  7  8  1  0  0  0  0
  8  9  1  0  0  0  0
  9 10  1  0  0  0  0
  1 10  1  0  0  0  0
  5 10  1  0  0  0  0
 11 12  1  0  0  0  0
 12 13  1  0  0  0  0
  7 12  1  0  0  0  0
 10 14  1  0  0  0  0
  4 15  1  0  0  0  0
M  END
>  <cdx:fragmentId>
24967

$$$$
