5203.cdx
  Mrv1902 05222410282D          

 18 19  0  0  0  0            999 V2000
    4.4377   -6.7237    0.0000 C   0  0  0  0  0  0  0  0  0  0  0  0
    4.4377   -7.5488    0.0000 C   0  0  1  0  0  0  0  0  0  0  0  0
    5.1521   -7.9612    0.0000 C   0  0  2  0  0  0  0  0  0  0  0  0
    5.8666   -7.5488    0.0000 C   0  0  1  0  0  0  0  0  0  0  0  0
    5.8666   -6.7237    0.0000 C   0  0  2  0  0  0  0  0  0  0  0  0
    5.1521   -6.3113    0.0000 C   0  0  0  0  0  0  0  0  0  0  0  0
    6.5811   -7.9612    0.0000 C   0  0  0  0  0  0  0  0  0  0  0  0
    7.2955   -7.5488    0.0000 C   0  0  2  0  0  0  0  0  0  0  0  0
    7.2955   -6.7237    0.0000 C   0  0  0  0  0  0  0  0  0  0  0  0
    6.5811   -6.3113    0.0000 C   0  0  0  0  0  0  0  0  0  0  0  0
    5.8666   -5.8988    0.0000 C   0  0  0  0  0  0  0  0  0  0  0  0
    3.7232   -7.9612    0.0000 O   0  0  0  0  0  0  0  0  0  0  0  0
    4.7396   -8.6757    0.0000 O   0  0  0  0  0  0  0  0  0  0  0  0
    5.5646   -8.6757    0.0000 C   0  0  0  0  0  0  0  0  0  0  0  0
    5.8666   -8.3737    0.0000 H   0  0  0  0  0  0  0  0  0  0  0  0
    8.0100   -7.9612    0.0000 C   0  0  0  0  0  0  0  0  0  0  0  0
    8.0100   -8.7862    0.0000 C   0  0  0  0  0  0  0  0  0  0  0  0
    8.7245   -7.5488    0.0000 C   0  0  0  0  0  0  0  0  0  0  0  0
  1  2  1  0  0  0  0
  2  3  1  0  0  0  0
  3  4  1  0  0  0  0
  4  5  1  0  0  0  0
  5  6  1  0  0  0  0
  6  1  1  0  0  0  0
  4  7  1  0  0  0  0
  7  8  1  0  0  0  0
  8  9  1  0  0  0  0
  9 10  1  0  0  0  0
 10  5  1  0  0  0  0
  5 11  1  1  0  0  0
  2 12  1  1  0  0  0
  3 13  1  6  0  0  0
  3 14  1  1  0  0  0
  4 15  1  6  0  0  0
  8 16  1  6  0  0  0
 16 17  1  0  0  0  0
 16 18  2  0  0  0  0
M  END
>  <cdx:fragmentId>
5

$$$$
