520300.cdx
  Mrv1902 05222410232D          

  9  9  0  0  0  0            999 V2000
    6.9164   -6.8402    0.0000 C   0  0  0  0  0  0  0  0  0  0  0  0
    6.2020   -6.4277    0.0000 C   0  0  0  0  0  0  0  0  0  0  0  0
    5.4875   -6.8402    0.0000 C   0  0  0  0  0  0  0  0  0  0  0  0
    5.4875   -7.6652    0.0000 C   0  0  0  0  0  0  0  0  0  0  0  0
    6.2020   -8.0777    0.0000 C   0  0  0  0  0  0  0  0  0  0  0  0
    6.9164   -7.6652    0.0000 N   0  0  0  0  0  0  0  0  0  0  0  0
    7.6309   -6.4277    0.0000 C   0  0  0  0  0  0  0  0  0  0  0  0
    7.6309   -5.6027    0.0000 O   0  0  0  0  0  0  0  0  0  0  0  0
    8.3454   -6.8402    0.0000 C   0  0  0  0  0  0  0  0  0  0  0  0
  1  2  1  0  0  0  0
  2  3  1  0  0  0  0
  3  4  1  0  0  0  0
  4  5  1  0  0  0  0
  5  6  1  0  0  0  0
  1  6  2  0  0  0  0
  7  8  2  0  0  0  0
  7  9  1  0  0  0  0
  1  7  1  0  0  0  0
M  END
>  <cdx:groupId>
24741

>  <cdx:fragmentId>
24717

$$$$
