520444.cdx
  Mrv1902 05222410252D          

 20 20  0  0  0  0            999 V2000
   17.2549   -8.8917    0.0000 C   0  0  0  0  0  0  0  0  0  0  0  0
   17.9694   -9.3042    0.0000 C   0  0  0  0  0  0  0  0  0  0  0  0
   17.9694  -10.1292    0.0000 C   0  0  0  0  0  0  0  0  0  0  0  0
   17.2549  -10.5417    0.0000 C   0  0  0  0  0  0  0  0  0  0  0  0
   16.5405  -10.1292    0.0000 C   0  0  0  0  0  0  0  0  0  0  0  0
   15.8260  -10.5417    0.0000 C   0  0  0  0  0  0  0  0  0  0  0  0
   15.1115  -10.1292    0.0000 C   0  0  0  0  0  0  0  0  0  0  0  0
   14.3970  -10.5417    0.0000 C   0  0  0  0  0  0  0  0  0  0  0  0
   13.6826  -10.1292    0.0000 C   0  0  0  0  0  0  0  0  0  0  0  0
   13.6826   -9.3042    0.0000 C   0  0  0  0  0  0  0  0  0  0  0  0
   12.9681   -8.8917    0.0000 C   0  0  0  0  0  0  0  0  0  0  0  0
   12.9681   -8.0667    0.0000 C   0  0  0  0  0  0  0  0  0  0  0  0
   13.6826   -7.6542    0.0000 C   0  0  0  0  0  0  0  0  0  0  0  0
   13.6826   -6.8292    0.0000 C   0  0  0  0  0  0  0  0  0  0  0  0
   14.3970   -6.4167    0.0000 C   0  0  0  0  0  0  0  0  0  0  0  0
   15.1115   -6.8292    0.0000 C   0  0  0  0  0  0  0  0  0  0  0  0
   15.8260   -6.4167    0.0000 C   0  0  0  0  0  0  0  0  0  0  0  0
   16.5405   -6.8292    0.0000 C   0  0  0  0  0  0  0  0  0  0  0  0
   16.5405   -7.6542    0.0000 C   0  0  0  0  0  0  0  0  0  0  0  0
   17.2549   -8.0667    0.0000 C   0  0  0  0  0  0  0  0  0  0  0  0
  1  2  1  0  0  0  0
  2  3  1  0  0  0  0
  3  4  1  0  0  0  0
  4  5  1  0  0  0  0
  5  6  1  0  0  0  0
  6  7  1  0  0  0  0
  7  8  1  0  0  0  0
  8  9  1  0  0  0  0
  9 10  1  0  0  0  0
 10 11  1  0  0  0  0
 11 12  1  0  0  0  0
 12 13  1  0  0  0  0
 13 14  1  0  0  0  0
 14 15  1  0  0  0  0
 15 16  1  0  0  0  0
 16 17  1  0  0  0  0
 17 18  1  0  0  0  0
 18 19  1  0  0  0  0
 19 20  1  0  0  0  0
  1 20  1  0  0  0  0
M  END
>  <cdx:groupId>
25146

>  <cdx:fragmentId>
25089

$$$$
