520454.cdx
  Mrv1902 05222410242D          

 12 11  0  0  0  0            999 V2000
    3.6189   -6.5855    0.0000 C   0  0  0  0  0  0  0  0  0  0  0  0
    4.3334   -6.1730    0.0000 C   0  0  0  0  0  0  0  0  0  0  0  0
    5.0478   -6.5855    0.0000 C   0  0  0  0  0  0  0  0  0  0  0  0
    5.7623   -6.1730    0.0000 C   0  0  0  0  0  0  0  0  0  0  0  0
    6.4768   -6.5855    0.0000 C   0  0  0  0  0  0  0  0  0  0  0  0
    7.1913   -6.1730    0.0000 C   0  0  0  0  0  0  0  0  0  0  0  0
    7.9057   -6.5855    0.0000 C   0  0  0  0  0  0  0  0  0  0  0  0
    8.6202   -6.1730    0.0000 C   0  0  0  0  0  0  0  0  0  0  0  0
    9.3347   -6.5855    0.0000 C   0  0  0  0  0  0  0  0  0  0  0  0
   10.0491   -6.1730    0.0000 C   0  0  0  0  0  0  0  0  0  0  0  0
   10.7636   -6.5855    0.0000 C   0  0  0  0  0  0  0  0  0  0  0  0
    5.7623   -5.3480    0.0000 C   0  0  0  0  0  0  0  0  0  0  0  0
  1  2  1  0  0  0  0
  2  3  1  0  0  0  0
  3  4  1  0  0  0  0
  4  5  1  0  0  0  0
  5  6  1  0  0  0  0
  6  7  1  0  0  0  0
  7  8  1  0  0  0  0
  8  9  1  0  0  0  0
  9 10  1  0  0  0  0
 10 11  1  0  0  0  0
  4 12  1  0  0  0  0
M  END
>  <cdx:fragmentId>
25323

$$$$
