520473.cdx
  Mrv1902 05222410232D          

 14 15  0  0  0  0            999 V2000
   15.8303   -9.3042    0.0000 C   0  0  0  0  0  0  0  0  0  0  0  0
   16.5448   -8.8917    0.0000 C   0  0  0  0  0  0  0  0  0  0  0  0
   16.5448   -8.0667    0.0000 C   0  0  0  0  0  0  0  0  0  0  0  0
   15.8303   -7.6542    0.0000 C   0  0  0  0  0  0  0  0  0  0  0  0
   15.1158   -8.0667    0.0000 C   0  0  0  0  0  0  0  0  0  0  0  0
   14.4013   -7.6542    0.0000 C   0  0  0  0  0  0  0  0  0  0  0  0
   13.6869   -8.0667    0.0000 C   0  0  0  0  0  0  0  0  0  0  0  0
   13.6869   -8.8917    0.0000 C   0  0  0  0  0  0  0  0  0  0  0  0
   14.4013   -9.3042    0.0000 C   0  0  0  0  0  0  0  0  0  0  0  0
   15.1158   -8.8917    0.0000 C   0  0  0  0  0  0  0  0  0  0  0  0
   15.8303   -6.8292    0.0000 C   0  0  0  0  0  0  0  0  0  0  0  0
   17.2592   -7.6542    0.0000 C   0  0  0  0  0  0  0  0  0  0  0  0
   17.2592   -9.3042    0.0000 C   0  0  0  0  0  0  0  0  0  0  0  0
   15.8303  -10.1292    0.0000 C   0  0  0  0  0  0  0  0  0  0  0  0
  1  2  1  0  0  0  0
  2  3  2  0  0  0  0
  3  4  1  0  0  0  0
  4  5  2  0  0  0  0
  5  6  1  0  0  0  0
  6  7  2  0  0  0  0
  7  8  1  0  0  0  0
  8  9  2  0  0  0  0
  9 10  1  0  0  0  0
  1 10  2  0  0  0  0
  5 10  1  0  0  0  0
  4 11  1  0  0  0  0
  3 12  1  0  0  0  0
  2 13  1  0  0  0  0
  1 14  1  0  0  0  0
M  END
>  <cdx:groupId>
25403

>  <cdx:fragmentId>
25363

$$$$
