520451.cdx
  Mrv1902 05222410252D          

 28 28  0  0  0  0            999 V2000
   10.2969   -7.4892    0.0000 C   0  0  0  0  0  0  0  0  0  0  0  0
   11.0114   -7.9017    0.0000 C   0  0  0  0  0  0  0  0  0  0  0  0
   11.0114   -8.7267    0.0000 C   0  0  0  0  0  0  0  0  0  0  0  0
   10.2969   -9.1392    0.0000 C   0  0  0  0  0  0  0  0  0  0  0  0
    9.5824   -8.7267    0.0000 C   0  0  0  0  0  0  0  0  0  0  0  0
    8.8680   -9.1392    0.0000 C   0  0  0  0  0  0  0  0  0  0  0  0
    8.8680   -9.9642    0.0000 C   0  0  0  0  0  0  0  0  0  0  0  0
    8.1535  -10.3767    0.0000 C   0  0  0  0  0  0  0  0  0  0  0  0
    7.4390   -9.9642    0.0000 C   0  0  0  0  0  0  0  0  0  0  0  0
    6.7245  -10.3767    0.0000 C   0  0  0  0  0  0  0  0  0  0  0  0
    6.0101   -9.9642    0.0000 C   0  0  0  0  0  0  0  0  0  0  0  0
    6.0101   -9.1392    0.0000 C   0  0  0  0  0  0  0  0  0  0  0  0
    5.2956   -8.7267    0.0000 C   0  0  0  0  0  0  0  0  0  0  0  0
    5.2956   -7.9017    0.0000 C   0  0  0  0  0  0  0  0  0  0  0  0
    4.5811   -7.4892    0.0000 C   0  0  0  0  0  0  0  0  0  0  0  0
    4.5811   -6.6642    0.0000 C   0  0  0  0  0  0  0  0  0  0  0  0
    5.2956   -6.2517    0.0000 C   0  0  0  0  0  0  0  0  0  0  0  0
    5.2956   -5.4267    0.0000 C   0  0  0  0  0  0  0  0  0  0  0  0
    6.0101   -5.0142    0.0000 C   0  0  0  0  0  0  0  0  0  0  0  0
    6.0101   -4.1892    0.0000 C   0  0  0  0  0  0  0  0  0  0  0  0
    6.7245   -3.7767    0.0000 C   0  0  0  0  0  0  0  0  0  0  0  0
    7.4390   -4.1892    0.0000 C   0  0  0  0  0  0  0  0  0  0  0  0
    8.1535   -3.7767    0.0000 C   0  0  0  0  0  0  0  0  0  0  0  0
    8.8680   -4.1892    0.0000 C   0  0  0  0  0  0  0  0  0  0  0  0
    8.8680   -5.0142    0.0000 C   0  0  0  0  0  0  0  0  0  0  0  0
    9.5824   -5.4267    0.0000 C   0  0  0  0  0  0  0  0  0  0  0  0
    9.5824   -6.2517    0.0000 C   0  0  0  0  0  0  0  0  0  0  0  0
   10.2969   -6.6642    0.0000 C   0  0  0  0  0  0  0  0  0  0  0  0
  1  2  1  0  0  0  0
  2  3  1  0  0  0  0
  3  4  1  0  0  0  0
  4  5  1  0  0  0  0
  5  6  1  0  0  0  0
  6  7  1  0  0  0  0
  7  8  1  0  0  0  0
  8  9  1  0  0  0  0
  9 10  1  0  0  0  0
 10 11  1  0  0  0  0
 11 12  1  0  0  0  0
 12 13  1  0  0  0  0
 13 14  1  0  0  0  0
 14 15  1  0  0  0  0
 15 16  1  0  0  0  0
 16 17  1  0  0  0  0
 17 18  1  0  0  0  0
 18 19  1  0  0  0  0
 19 20  1  0  0  0  0
 20 21  1  0  0  0  0
 21 22  1  0  0  0  0
 22 23  1  0  0  0  0
 23 24  1  0  0  0  0
 24 25  1  0  0  0  0
 25 26  1  0  0  0  0
 26 27  1  0  0  0  0
 27 28  1  0  0  0  0
  1 28  1  0  0  0  0
M  END
>  <cdx:fragmentId>
25232

$$$$
