520546.cdx
  Mrv1902 05222410272D          

  8  8  0  0  0  0            999 V2000
   14.8617   -8.1890    0.0000 C   0  0  0  0  0  0  0  0  0  0  0  0
   15.5762   -7.7765    0.0000 C   0  0  0  0  0  0  0  0  0  0  0  0
   16.2906   -8.1890    0.0000 C   0  0  0  0  0  0  0  0  0  0  0  0
   16.2906   -9.0140    0.0000 C   0  0  0  0  0  0  0  0  0  0  0  0
   15.5762   -9.4265    0.0000 C   0  0  0  0  0  0  0  0  0  0  0  0
   14.8617   -9.0140    0.0000 C   0  0  0  0  0  0  0  0  0  0  0  0
   14.1472   -7.7765    0.0000 O   0  0  0  0  0  0  0  0  0  0  0  0
   17.0051   -7.7765    0.0000 C   0  0  0  0  0  0  0  0  0  0  0  0
  1  2  1  0  0  0  0
  2  3  1  0  0  0  0
  3  4  2  0  0  0  0
  4  5  1  0  0  0  0
  5  6  1  0  0  0  0
  1  6  1  0  0  0  0
  1  7  2  0  0  0  0
  3  8  1  0  0  0  0
M  END
>  <cdx:groupId>
25431

>  <cdx:fragmentId>
25410

$$$$
