5205.cdx
  Mrv1902 05222410272D          

 28 33  0  0  0  0            999 V2000
    4.8928   -6.3762    0.0000 C   0  0  0  0  0  0  0  0  0  0  0  0
    5.6072   -6.7887    0.0000 C   0  0  0  0  0  0  0  0  0  0  0  0
    5.6072   -7.6137    0.0000 C   0  0  0  0  0  0  0  0  0  0  0  0
    4.8928   -8.0262    0.0000 C   0  0  0  0  0  0  0  0  0  0  0  0
    4.1783   -6.7887    0.0000 C   0  0  0  0  0  0  0  0  0  0  0  0
    4.1783   -7.6137    0.0000 C   0  0  0  0  0  0  0  0  0  0  0  0
    3.3937   -7.8686    0.0000 O   0  0  0  0  0  0  0  0  0  0  0  0
    2.9088   -7.2012    0.0000 C   0  0  0  0  0  0  0  0  0  0  0  0
    3.3937   -6.5338    0.0000 O   0  0  0  0  0  0  0  0  0  0  0  0
    7.4879   -6.9762    0.0000 C   0  0  0  0  0  0  0  0  0  0  0  0
    8.3811   -7.9682    0.0000 C   0  0  2  0  0  0  0  0  0  0  0  0
    8.2949   -7.1477    0.0000 O   0  0  0  0  0  0  0  0  0  0  0  0
    6.3217   -8.0262    0.0000 C   0  0  1  0  0  0  0  0  0  0  0  0
    7.0754   -7.6907    0.0000 C   0  0  1  0  0  0  0  0  0  0  0  0
    7.6274   -8.3037    0.0000 C   0  0  1  0  0  0  0  0  0  0  0  0
    7.2149   -9.0182    0.0000 C   0  0  0  0  0  0  0  0  0  0  0  0
    6.4080   -8.8467    0.0000 O   0  0  0  0  0  0  0  0  0  0  0  0
    9.8100   -9.6182    0.0000 C   0  0  0  0  0  0  0  0  0  0  0  0
    9.0956   -9.2057    0.0000 C   0  0  0  0  0  0  0  0  0  0  0  0
    9.0956   -8.3807    0.0000 C   0  0  0  0  0  0  0  0  0  0  0  0
    9.8100   -7.9682    0.0000 C   0  0  0  0  0  0  0  0  0  0  0  0
   10.5245   -9.2057    0.0000 C   0  0  0  0  0  0  0  0  0  0  0  0
   10.5245   -8.3807    0.0000 C   0  0  0  0  0  0  0  0  0  0  0  0
   11.3091   -8.1257    0.0000 O   0  0  0  0  0  0  0  0  0  0  0  0
   11.7941   -8.7932    0.0000 C   0  0  0  0  0  0  0  0  0  0  0  0
   11.3091   -9.4606    0.0000 O   0  0  0  0  0  0  0  0  0  0  0  0
    6.4920   -7.1073    0.0000 H   0  0  0  0  0  0  0  0  0  0  0  0
    8.2108   -8.8871    0.0000 H   0  0  0  0  0  0  0  0  0  0  0  0
 11 20  1  1  0  0  0
 13  3  1  1  0  0  0
  6  4  2  0  0  0  0
  5  1  2  0  0  0  0
  2  1  1  0  0  0  0
  3  2  2  0  0  0  0
  4  3  1  0  0  0  0
  9  5  1  0  0  0  0
  6  5  1  0  0  0  0
  7  6  1  0  0  0  0
  8  7  1  0  0  0  0
  9  8  1  0  0  0  0
 14 10  1  0  0  0  0
 15 11  1  0  0  0  0
 12 10  1  0  0  0  0
 12 11  1  0  0  0  0
 17 13  1  0  0  0  0
 14 13  1  0  0  0  0
 15 14  1  0  0  0  0
 16 15  1  0  0  0  0
 17 16  1  0  0  0  0
 23 21  2  0  0  0  0
 22 18  2  0  0  0  0
 19 18  1  0  0  0  0
 20 19  2  0  0  0  0
 21 20  1  0  0  0  0
 26 22  1  0  0  0  0
 23 22  1  0  0  0  0
 24 23  1  0  0  0  0
 25 24  1  0  0  0  0
 26 25  1  0  0  0  0
 14 27  1  1  0  0  0
 15 28  1  1  0  0  0
M  END
>  <cdx:fragmentId>
43005

$$$$
