520680.cdx
  Mrv1902 05222410242D          

 11 11  0  0  0  0            999 V2000
    6.0987   -4.8942    0.0000 C   0  0  0  0  0  0  0  0  0  0  0  0
    6.8131   -5.3067    0.0000 C   0  0  0  0  0  0  0  0  0  0  0  0
    7.5276   -4.8942    0.0000 C   0  0  0  0  0  0  0  0  0  0  0  0
    8.2421   -5.3067    0.0000 C   0  0  0  0  0  0  0  0  0  0  0  0
    8.2421   -6.1317    0.0000 C   0  0  0  0  0  0  0  0  0  0  0  0
    7.5276   -6.5442    0.0000 C   0  0  0  0  0  0  0  0  0  0  0  0
    6.8131   -6.1317    0.0000 C   0  0  0  0  0  0  0  0  0  0  0  0
    5.3842   -5.3067    0.0000 O   0  0  0  0  0  0  0  0  0  0  0  0
    8.9566   -4.8942    0.0000 C   0  0  0  0  0  0  0  0  0  0  0  0
    8.9566   -4.0692    0.0000 C   0  0  0  0  0  0  0  0  0  0  0  0
    9.6710   -5.3067    0.0000 C   0  0  0  0  0  0  0  0  0  0  0  0
  1  2  1  0  0  0  0
  2  3  1  0  0  0  0
  3  4  2  0  0  0  0
  4  5  1  0  0  0  0
  5  6  2  0  0  0  0
  6  7  1  0  0  0  0
  2  7  2  0  0  0  0
  1  8  2  0  0  0  0
  9 10  1  0  0  0  0
  9 11  1  0  0  0  0
  4  9  1  0  0  0  0
M  END
>  <cdx:fragmentId>
25437

$$$$
