520704.cdx
  Mrv1902 05222410222D          

 17 19  0  0  0  0            999 V2000
    4.4916   -6.3868    0.0000 C   0  0  0  0  0  0  0  0  0  0  0  0
    5.3166   -6.3868    0.0000 C   0  0  0  0  0  0  0  0  0  0  0  0
    5.7291   -5.6723    0.0000 C   0  0  0  0  0  0  0  0  0  0  0  0
    9.5789   -7.9944    0.0000 O   0  0  0  0  0  0  0  0  0  0  0  0
    5.7291   -7.1012    0.0000 C   0  0  2  0  0  0  0  0  0  0  0  0
    6.5495   -7.1875    0.0000 C   0  0  0  0  0  0  0  0  0  0  0  0
    5.3935   -7.8549    0.0000 O   0  0  0  0  0  0  0  0  0  0  0  0
    8.1500   -7.9944    0.0000 O   0  0  0  0  0  0  0  0  0  0  0  0
    7.4355   -8.4069    0.0000 C   0  0  0  0  0  0  0  0  0  0  0  0
    6.7211   -7.9944    0.0000 C   0  0  0  0  0  0  0  0  0  0  0  0
    6.0066   -8.4069    0.0000 C   0  0  0  0  0  0  0  0  0  0  0  0
    6.0066   -9.2319    0.0000 C   0  0  0  0  0  0  0  0  0  0  0  0
    6.7211   -9.6444    0.0000 C   0  0  0  0  0  0  0  0  0  0  0  0
    7.4355   -9.2319    0.0000 C   0  0  0  0  0  0  0  0  0  0  0  0
    8.1500   -9.6444    0.0000 C   0  0  0  0  0  0  0  0  0  0  0  0
    8.8645   -9.2319    0.0000 C   0  0  0  0  0  0  0  0  0  0  0  0
    8.8645   -8.4069    0.0000 C   0  0  0  0  0  0  0  0  0  0  0  0
  5  2  1  6  0  0  0
  2  1  1  0  0  0  0
  3  2  2  0  0  0  0
 17  4  2  0  0  0  0
  6 10  1  0  0  0  0
  7 11  1  0  0  0  0
  7  5  1  0  0  0  0
  6  5  1  0  0  0  0
 17  8  1  0  0  0  0
  9  8  1  0  0  0  0
 14  9  2  0  0  0  0
 10  9  1  0  0  0  0
 11 10  2  0  0  0  0
 12 11  1  0  0  0  0
 13 12  2  0  0  0  0
 14 13  1  0  0  0  0
 15 14  1  0  0  0  0
 16 15  2  0  0  0  0
 17 16  1  0  0  0  0
M  END
>  <cdx:fragmentId>
185345

$$$$
