520895.cdx
  Mrv1902 05222410232D          

  9  9  0  0  0  0            999 V2000
    7.2390   -6.6949    0.0000 S   0  0  0  0  0  0  0  0  0  0  0  0
    8.0640   -6.6942    0.0000 S   0  0  0  0  0  0  0  0  0  0  0  0
    8.3184   -5.9094    0.0000 C   0  0  0  0  0  0  0  0  0  0  0  0
    7.6506   -5.4250    0.0000 S   0  0  0  0  0  0  0  0  0  0  0  0
    6.9835   -5.9104    0.0000 C   0  0  0  0  0  0  0  0  0  0  0  0
    6.1987   -5.6561    0.0000 C   0  0  0  0  0  0  0  0  0  0  0  0
    5.5860   -6.2086    0.0000 C   0  0  0  0  0  0  0  0  0  0  0  0
    9.1028   -5.6539    0.0000 C   0  0  0  0  0  0  0  0  0  0  0  0
    9.7163   -6.2055    0.0000 C   0  0  0  0  0  0  0  0  0  0  0  0
  1  2  1  0  0  0  0
  2  3  1  0  0  0  0
  3  4  1  0  0  0  0
  4  5  1  0  0  0  0
  1  5  1  0  0  0  0
  6  7  1  0  0  0  0
  5  6  1  0  0  0  0
  8  9  1  0  0  0  0
  3  8  1  0  0  0  0
M  END
>  <cdx:groupId>
25497

>  <cdx:fragmentId>
25473

$$$$
