520811.cdx
  Mrv1902 05222410262D          

 24 29  0  0  0  0            999 V2000
    8.4311   -8.1362    0.0000 C   0  0  0  0  0  0  0  0  0  0  0  0
    9.1456   -7.7237    0.0000 C   0  0  0  0  0  0  0  0  0  0  0  0
    9.1456   -6.8987    0.0000 C   0  0  0  0  0  0  0  0  0  0  0  0
    9.8600   -6.4862    0.0000 C   0  0  0  0  0  0  0  0  0  0  0  0
   10.0316   -5.6793    0.0000 O   0  0  0  0  0  0  0  0  0  0  0  0
   10.8520   -5.5930    0.0000 C   0  0  0  0  0  0  0  0  0  0  0  0
   11.1876   -6.3467    0.0000 O   0  0  0  0  0  0  0  0  0  0  0  0
   10.5745   -6.8987    0.0000 C   0  0  0  0  0  0  0  0  0  0  0  0
   10.5745   -7.7237    0.0000 C   0  0  0  0  0  0  0  0  0  0  0  0
    9.8600   -8.1362    0.0000 C   0  0  0  0  0  0  0  0  0  0  0  0
    9.8600   -8.9612    0.0000 C   0  0  0  0  0  0  0  0  0  0  0  0
    9.1456   -9.3737    0.0000 C   0  0  0  0  0  0  0  0  0  0  0  0
    8.4311   -8.9612    0.0000 N   0  3  0  0  0  0  0  0  0  0  0  0
    7.7166   -9.3737    0.0000 C   0  0  0  0  0  0  0  0  0  0  0  0
    7.0021   -8.9612    0.0000 C   0  0  0  0  0  0  0  0  0  0  0  0
    6.2877   -9.3737    0.0000 C   0  0  0  0  0  0  0  0  0  0  0  0
    5.5732   -8.9612    0.0000 C   0  0  0  0  0  0  0  0  0  0  0  0
    4.7886   -9.2162    0.0000 O   0  0  0  0  0  0  0  0  0  0  0  0
    4.3037   -8.5487    0.0000 C   0  0  0  0  0  0  0  0  0  0  0  0
    4.7886   -7.8813    0.0000 O   0  0  0  0  0  0  0  0  0  0  0  0
    5.5732   -8.1362    0.0000 C   0  0  0  0  0  0  0  0  0  0  0  0
    6.2877   -7.7237    0.0000 C   0  0  0  0  0  0  0  0  0  0  0  0
    7.0021   -8.1362    0.0000 C   0  0  0  0  0  0  0  0  0  0  0  0
    7.7166   -7.7237    0.0000 C   0  0  0  0  0  0  0  0  0  0  0  0
  1  2  1  0  0  0  0
  2  3  2  0  0  0  0
  3  4  1  0  0  0  0
  4  5  1  0  0  0  0
  5  6  1  0  0  0  0
  6  7  1  0  0  0  0
  7  8  1  0  0  0  0
  8  9  1  0  0  0  0
  9 10  2  0  0  0  0
 10 11  1  0  0  0  0
 11 12  1  0  0  0  0
 12 13  1  0  0  0  0
 13 14  2  0  0  0  0
 14 15  1  0  0  0  0
 15 16  2  0  0  0  0
 16 17  1  0  0  0  0
 17 18  1  0  0  0  0
 18 19  1  0  0  0  0
 19 20  1  0  0  0  0
 20 21  1  0  0  0  0
 21 22  1  0  0  0  0
 22 23  2  0  0  0  0
 23 24  1  0  0  0  0
  1 24  2  0  0  0  0
  1 13  1  0  0  0  0
 15 23  1  0  0  0  0
 17 21  2  0  0  0  0
  2 10  1  0  0  0  0
  4  8  2  0  0  0  0
M  CHG  1  13   1
M  END
>  <cdx:fragmentId>
113711

$$$$
