520965.cdx
  Mrv1902 05222410262D          

 11 11  0  0  0  0            999 V2000
   16.1789   -8.4891    0.0000 C   0  0  0  0  0  0  0  0  0  0  0  0
   16.1789   -7.6641    0.0000 C   0  0  0  0  0  0  0  0  0  0  0  0
   16.8934   -7.2516    0.0000 C   0  0  0  0  0  0  0  0  0  0  0  0
   17.6079   -7.6641    0.0000 C   0  0  0  0  0  0  0  0  0  0  0  0
   17.6079   -8.4891    0.0000 C   0  0  0  0  0  0  0  0  0  0  0  0
   16.8934   -8.9016    0.0000 C   0  0  0  0  0  0  0  0  0  0  0  0
   15.4645   -8.9016    0.0000 C   0  0  0  0  0  0  0  0  0  0  0  0
   14.7500   -8.4891    0.0000 C   0  0  0  0  0  0  0  0  0  0  0  0
   14.0355   -8.9016    0.0000 C   0  0  0  0  0  0  0  0  0  0  0  0
   14.0355   -9.7266    0.0000 C   0  0  0  0  0  0  0  0  0  0  0  0
   13.3210   -8.4891    0.0000 C   0  0  0  0  0  0  0  0  0  0  0  0
  1  2  2  0  0  0  0
  2  3  1  0  0  0  0
  3  4  1  0  0  0  0
  4  5  1  0  0  0  0
  5  6  1  0  0  0  0
  1  6  1  0  0  0  0
  7  8  1  0  0  0  0
  8  9  1  0  0  0  0
  9 10  1  0  0  0  0
 11  9  1  0  0  0  0
  1  7  1  0  0  0  0
M  END
>  <cdx:groupId>
25666

>  <cdx:fragmentId>
25636

$$$$
