520911.cdx
  Mrv1902 05222410242D          

  8  8  0  0  0  0            999 V2000
    7.2157   -6.5264    0.0000 O   0  0  0  0  0  0  0  0  0  0  0  0
    7.8822   -6.0401    0.0000 C   0  0  0  0  0  0  0  0  0  0  0  0
    7.6257   -5.2560    0.0000 C   0  0  0  0  0  0  0  0  0  0  0  0
    6.8007   -5.2576    0.0000 C   0  0  0  0  0  0  0  0  0  0  0  0
    6.5473   -6.0428    0.0000 C   0  0  0  0  0  0  0  0  0  0  0  0
    8.6673   -6.2935    0.0000 C   0  0  0  0  0  0  0  0  0  0  0  0
    9.2793   -5.7402    0.0000 O   0  0  0  0  0  0  0  0  0  0  0  0
    5.7632   -6.2993    0.0000 C   0  0  0  0  0  0  0  0  0  0  0  0
  1  2  1  0  0  0  0
  2  3  2  0  0  0  0
  3  4  1  0  0  0  0
  4  5  2  0  0  0  0
  1  5  1  0  0  0  0
  6  7  1  0  0  0  0
  2  6  1  0  0  0  0
  5  8  1  0  0  0  0
M  END
>  <cdx:fragmentId>
25558

$$$$
