521177.cdx
  Mrv1902 05222410252D          

 18 17  0  0  0  0            999 V2000
   10.1575   -8.2884    0.0000 C   0  0  0  0  0  0  0  0  0  0  0  0
   10.8720   -8.7009    0.0000 C   0  0  0  0  0  0  0  0  0  0  0  0
   11.5864   -8.2884    0.0000 C   0  0  0  0  0  0  0  0  0  0  0  0
   12.3009   -8.7009    0.0000 C   0  0  0  0  0  0  0  0  0  0  0  0
   13.0154   -8.2884    0.0000 C   0  0  0  0  0  0  0  0  0  0  0  0
   13.7298   -8.7009    0.0000 C   0  0  0  0  0  0  0  0  0  0  0  0
   14.4443   -8.2884    0.0000 C   0  0  0  0  0  0  0  0  0  0  0  0
   15.1588   -8.7009    0.0000 C   0  0  0  0  0  0  0  0  0  0  0  0
   15.8733   -8.2884    0.0000 C   0  0  0  0  0  0  0  0  0  0  0  0
   16.5877   -8.7009    0.0000 C   0  0  0  0  0  0  0  0  0  0  0  0
   17.3022   -8.2884    0.0000 C   0  0  0  0  0  0  0  0  0  0  0  0
   18.0167   -8.7009    0.0000 C   0  0  0  0  0  0  0  0  0  0  0  0
   18.7311   -8.2884    0.0000 C   0  0  0  0  0  0  0  0  0  0  0  0
   19.4456   -8.7009    0.0000 C   0  0  0  0  0  0  0  0  0  0  0  0
   20.1601   -8.2884    0.0000 C   0  0  0  0  0  0  0  0  0  0  0  0
   20.8746   -8.7009    0.0000 C   0  0  0  0  0  0  0  0  0  0  0  0
   21.5890   -8.2884    0.0000 Br  0  0  0  0  0  0  0  0  0  0  0  0
    9.4430   -8.7009    0.0000 Br  0  0  0  0  0  0  0  0  0  0  0  0
  1  2  1  0  0  0  0
  2  3  1  0  0  0  0
  3  4  1  0  0  0  0
  4  5  1  0  0  0  0
  5  6  1  0  0  0  0
  6  7  1  0  0  0  0
  7  8  1  0  0  0  0
  8  9  1  0  0  0  0
  9 10  1  0  0  0  0
 10 11  1  0  0  0  0
 11 12  1  0  0  0  0
 12 13  1  0  0  0  0
 13 14  1  0  0  0  0
 14 15  1  0  0  0  0
 15 16  1  0  0  0  0
 16 17  1  0  0  0  0
  1 18  1  0  0  0  0
M  END
>  <cdx:groupId>
25723

>  <cdx:fragmentId>
25673

$$$$
