521240.cdx
  Mrv1902 05222410192D          

 12 12  0  0  0  0            999 V2000
    7.4384   -6.6675    0.0000 C   0  0  0  0  0  0  0  0  0  0  0  0
    8.1529   -7.0800    0.0000 C   0  0  0  0  0  0  0  0  0  0  0  0
    8.8673   -6.6675    0.0000 C   0  0  0  0  0  0  0  0  0  0  0  0
    8.8673   -5.8425    0.0000 C   0  0  0  0  0  0  0  0  0  0  0  0
    7.4384   -5.8425    0.0000 O   0  0  0  0  0  0  0  0  0  0  0  0
    5.9703   -6.7445    0.0000 O   0  0  0  0  0  0  0  0  0  0  0  0
    6.7239   -7.0800    0.0000 C   0  0  0  0  0  0  0  0  0  0  0  0
    6.6377   -7.9005    0.0000 C   0  0  0  0  0  0  0  0  0  0  0  0
    5.8307   -8.0720    0.0000 C   0  0  0  0  0  0  0  0  0  0  0  0
    5.4182   -7.3576    0.0000 C   0  0  0  0  0  0  0  0  0  0  0  0
    7.2508   -8.4525    0.0000 C   0  0  0  0  0  0  0  0  0  0  0  0
    9.5818   -7.0800    0.0000 C   0  0  0  0  0  0  0  0  0  0  0  0
  1  2  1  0  0  0  0
  2  3  1  0  0  0  0
  3  4  1  0  0  0  0
  1  5  2  0  0  0  0
  6  7  1  0  0  0  0
  7  8  2  0  0  0  0
  8  9  1  0  0  0  0
  9 10  2  0  0  0  0
  6 10  1  0  0  0  0
  8 11  1  0  0  0  0
  1  7  1  0  0  0  0
  3 12  1  0  0  0  0
M  END
>  <cdx:fragmentId>
25783

$$$$
