521238.cdx
  Mrv1902 05222410232D          

 12 11  0  0  0  0            999 V2000
    7.3288   -4.1370    0.0000 C   0  0  0  0  0  0  0  0  0  0  0  0
    6.6143   -4.5495    0.0000 C   0  0  0  0  0  0  0  0  0  0  0  0
    6.6143   -5.3745    0.0000 C   0  0  0  0  0  0  0  0  0  0  0  0
    7.3288   -5.7870    0.0000 C   0  0  0  0  0  0  0  0  0  0  0  0
    8.0432   -5.3745    0.0000 C   0  0  0  0  0  0  0  0  0  0  0  0
    8.7577   -5.7870    0.0000 C   0  0  0  0  0  0  0  0  0  0  0  0
    9.4722   -5.3745    0.0000 C   0  0  0  0  0  0  0  0  0  0  0  0
   10.1866   -5.7870    0.0000 C   0  0  0  0  0  0  0  0  0  0  0  0
    5.1853   -5.3745    0.0000 C   0  0  0  0  0  0  0  0  0  0  0  0
    4.4709   -5.7870    0.0000 C   0  0  0  0  0  0  0  0  0  0  0  0
    5.1853   -4.5495    0.0000 O   0  0  0  0  0  0  0  0  0  0  0  0
    5.8998   -5.7870    0.0000 O   0  0  0  0  0  0  0  0  0  0  0  0
  1  2  1  0  0  0  0
  2  3  1  0  0  0  0
  3  4  1  0  0  0  0
  4  5  1  0  0  0  0
  5  6  1  0  0  0  0
  6  7  1  0  0  0  0
  7  8  1  0  0  0  0
  9 10  1  0  0  0  0
  9 11  2  0  0  0  0
  9 12  1  0  0  0  0
  3 12  1  0  0  0  0
M  END
>  <cdx:fragmentId>
25733

$$$$
