521245.cdx
  Mrv1902 05222410192D          

 16 17  0  0  0  0            999 V2000
    7.2112   -4.9818    0.0000 C   0  0  0  0  0  0  0  0  0  0  0  0
    6.9098   -5.7498    0.0000 C   0  0  0  0  0  0  0  0  0  0  0  0
    6.0940   -5.8727    0.0000 C   0  0  0  0  0  0  0  0  0  0  0  0
    6.3954   -5.1047    0.0000 O   0  0  0  0  0  0  0  0  0  0  0  0
    9.6581   -7.8055    0.0000 C   0  0  0  0  0  0  0  0  0  0  0  0
   10.1430   -7.1381    0.0000 C   0  0  0  0  0  0  0  0  0  0  0  0
    9.6581   -6.4706    0.0000 C   0  0  0  0  0  0  0  0  0  0  0  0
    8.8735   -6.7256    0.0000 C   0  0  0  0  0  0  0  0  0  0  0  0
    8.2285   -6.2112    0.0000 C   0  0  0  0  0  0  0  0  0  0  0  0
    7.4242   -6.3948    0.0000 C   0  0  0  0  0  0  0  0  0  0  0  0
    7.0662   -7.1381    0.0000 C   0  0  0  0  0  0  0  0  0  0  0  0
    7.4242   -7.8814    0.0000 C   0  0  0  0  0  0  0  0  0  0  0  0
    8.2285   -8.0649    0.0000 C   0  0  0  0  0  0  0  0  0  0  0  0
    8.8735   -7.5506    0.0000 C   0  0  0  0  0  0  0  0  0  0  0  0
    8.4121   -8.8693    0.0000 C   0  0  0  0  0  0  0  0  0  0  0  0
    9.9131   -5.6860    0.0000 C   0  0  0  0  0  0  0  0  0  0  0  0
  1  2  1  0  0  0  0
  2  3  1  0  0  0  0
  2  4  1  0  0  0  0
  5  6  1  0  0  0  0
  6  7  1  0  0  0  0
  7  8  1  0  0  0  0
  8  9  1  0  0  0  0
  9 10  1  0  0  0  0
 10 11  1  0  0  0  0
 11 12  1  0  0  0  0
 12 13  1  0  0  0  0
 13 14  1  0  0  0  0
  5 14  1  0  0  0  0
  8 14  2  0  0  0  0
 13 15  1  0  0  0  0
  7 16  1  0  0  0  0
  2 10  1  0  0  0  0
M  END
>  <cdx:fragmentId>
25871

$$$$
