521323.cdx
  Mrv1902 05222410202D          

 16 15  0  0  0  0            999 V2000
    9.9664   -6.0677    0.0000 C   0  0  0  0  0  0  0  0  0  0  0  0
    9.2519   -6.4802    0.0000 C   0  0  0  0  0  0  0  0  0  0  0  0
    8.5374   -6.0677    0.0000 C   0  0  0  0  0  0  0  0  0  0  0  0
    7.8230   -6.4802    0.0000 C   0  0  0  0  0  0  0  0  0  0  0  0
    7.1085   -6.0677    0.0000 C   0  0  0  0  0  0  0  0  0  0  0  0
    6.3940   -6.4802    0.0000 C   0  0  0  0  0  0  0  0  0  0  0  0
    5.6795   -6.0677    0.0000 C   0  0  0  0  0  0  0  0  0  0  0  0
    4.9651   -6.4802    0.0000 C   0  0  0  0  0  0  0  0  0  0  0  0
    4.2506   -6.0677    0.0000 C   0  0  0  0  0  0  0  0  0  0  0  0
    3.5361   -6.4802    0.0000 C   0  0  0  0  0  0  0  0  0  0  0  0
    2.8217   -6.0677    0.0000 C   0  0  0  0  0  0  0  0  0  0  0  0
    2.1072   -6.4802    0.0000 C   0  0  0  0  0  0  0  0  0  0  0  0
    9.9664   -5.2427    0.0000 O   0  0  0  0  0  0  0  0  0  0  0  0
   10.6808   -6.4802    0.0000 O   0  0  0  0  0  0  0  0  0  0  0  0
    3.5361   -7.3052    0.0000 C   0  0  0  0  0  0  0  0  0  0  0  0
   11.3953   -6.0677    0.0000 C   0  0  0  0  0  0  0  0  0  0  0  0
  1  2  1  0  0  0  0
  2  3  1  0  0  0  0
  3  4  1  0  0  0  0
  4  5  1  0  0  0  0
  5  6  1  0  0  0  0
  6  7  1  0  0  0  0
  7  8  1  0  0  0  0
  8  9  1  0  0  0  0
  9 10  1  0  0  0  0
 10 11  1  0  0  0  0
 11 12  1  0  0  0  0
  1 13  2  0  0  0  0
  1 14  1  0  0  0  0
 10 15  1  0  0  0  0
 14 16  1  0  0  0  0
M  END
>  <cdx:groupId>
26157

>  <cdx:fragmentId>
26113

$$$$
