521483.cdx
  Mrv1902 05222410182D          

 10  9  0  0  0  0            999 V2000
    7.7685   -6.5581    0.0000 C   0  0  0  0  0  0  0  0  0  0  0  0
    7.7685   -5.7331    0.0000 C   0  0  0  0  0  0  0  0  0  0  0  0
    8.4830   -5.3206    0.0000 C   0  0  0  0  0  0  0  0  0  0  0  0
    9.1974   -5.7331    0.0000 C   0  0  0  0  0  0  0  0  0  0  0  0
    9.9119   -5.3206    0.0000 C   0  0  0  0  0  0  0  0  0  0  0  0
    6.3395   -5.7331    0.0000 C   0  0  0  0  0  0  0  0  0  0  0  0
    5.6251   -5.3206    0.0000 C   0  0  0  0  0  0  0  0  0  0  0  0
    4.9106   -5.7331    0.0000 C   0  0  0  0  0  0  0  0  0  0  0  0
    6.3395   -6.5581    0.0000 O   0  0  0  0  0  0  0  0  0  0  0  0
    7.0540   -5.3206    0.0000 O   0  0  0  0  0  0  0  0  0  0  0  0
  1  2  1  0  0  0  0
  2  3  1  0  0  0  0
  3  4  1  0  0  0  0
  4  5  1  0  0  0  0
  6  7  1  0  0  0  0
  7  8  1  0  0  0  0
  6  9  2  0  0  0  0
  6 10  1  0  0  0  0
  2 10  1  0  0  0  0
M  END
>  <cdx:fragmentId>
26177

$$$$
