521502.cdx
  Mrv1902 05222410262D          

 12 12  0  0  0  0            999 V2000
    8.2105   -8.2691    0.0000 C   0  0  0  0  0  0  0  0  0  0  0  0
    9.6395   -7.4441    0.0000 C   0  0  0  0  0  0  0  0  0  0  0  0
    8.9250   -7.0316    0.0000 C   0  0  0  0  0  0  0  0  0  0  0  0
    8.2105   -7.4441    0.0000 C   0  0  0  0  0  0  0  0  0  0  0  0
    7.4961   -7.0316    0.0000 C   0  0  0  0  0  0  0  0  0  0  0  0
    6.7816   -7.4441    0.0000 C   0  0  0  0  0  0  0  0  0  0  0  0
    5.3527   -7.4441    0.0000 C   0  0  0  0  0  0  0  0  0  0  0  0
    4.6382   -7.0316    0.0000 C   0  0  0  0  0  0  0  0  0  0  0  0
    4.6382   -6.2066    0.0000 C   0  0  0  0  0  0  0  0  0  0  0  0
    5.3527   -5.7941    0.0000 C   0  0  0  0  0  0  0  0  0  0  0  0
    6.0671   -6.2066    0.0000 C   0  0  0  0  0  0  0  0  0  0  0  0
    6.0671   -7.0316    0.0000 C   0  0  0  0  0  0  0  0  0  0  0  0
 12  6  1  0  0  0  0
  4  1  1  0  0  0  0
  3  2  1  0  0  0  0
  4  3  1  0  0  0  0
  5  4  1  0  0  0  0
  6  5  1  0  0  0  0
 12  7  2  0  0  0  0
  8  7  1  0  0  0  0
  9  8  2  0  0  0  0
 10  9  1  0  0  0  0
 11 10  2  0  0  0  0
 12 11  1  0  0  0  0
M  END
>  <cdx:fragmentId>
26278

$$$$
