521590.cdx
  Mrv1902 05222410232D          

 24 23  0  0  0  0            999 V2000
   21.1845   -7.8505    0.0000 C   0  0  0  0  0  0  0  0  0  0  0  0
   21.1845   -8.6755    0.0000 C   0  0  0  0  0  0  0  0  0  0  0  0
   20.4701   -9.0880    0.0000 C   0  0  0  0  0  0  0  0  0  0  0  0
   19.7556   -8.6755    0.0000 C   0  0  0  0  0  0  0  0  0  0  0  0
   19.0411   -9.0880    0.0000 C   0  0  0  0  0  0  0  0  0  0  0  0
   18.3266   -8.6755    0.0000 C   0  0  0  0  0  0  0  0  0  0  0  0
   17.6122   -9.0880    0.0000 C   0  0  0  0  0  0  0  0  0  0  0  0
   16.8977   -8.6755    0.0000 C   0  0  0  0  0  0  0  0  0  0  0  0
   16.1832   -9.0880    0.0000 C   0  0  0  0  0  0  0  0  0  0  0  0
   15.4688   -8.6755    0.0000 C   0  0  0  0  0  0  0  0  0  0  0  0
   14.7543   -9.0880    0.0000 C   0  0  0  0  0  0  0  0  0  0  0  0
   14.0398   -8.6755    0.0000 C   0  0  0  0  0  0  0  0  0  0  0  0
   13.3253   -9.0880    0.0000 C   0  0  0  0  0  0  0  0  0  0  0  0
   12.6109   -8.6755    0.0000 C   0  0  0  0  0  0  0  0  0  0  0  0
   11.8964   -9.0880    0.0000 C   0  0  0  0  0  0  0  0  0  0  0  0
   11.1819   -8.6755    0.0000 C   0  0  0  0  0  0  0  0  0  0  0  0
   10.4675   -9.0880    0.0000 C   0  0  0  0  0  0  0  0  0  0  0  0
    9.7530   -8.6755    0.0000 C   0  0  0  0  0  0  0  0  0  0  0  0
    9.0385   -9.0880    0.0000 C   0  0  0  0  0  0  0  0  0  0  0  0
    9.7530   -7.8505    0.0000 C   0  0  0  0  0  0  0  0  0  0  0  0
   12.6109   -7.8505    0.0000 C   0  0  0  0  0  0  0  0  0  0  0  0
   15.4688   -7.8505    0.0000 C   0  0  0  0  0  0  0  0  0  0  0  0
   18.3266   -7.8505    0.0000 C   0  0  0  0  0  0  0  0  0  0  0  0
   21.8990   -9.0880    0.0000 C   0  0  0  0  0  0  0  0  0  0  0  0
  1  2  1  0  0  0  0
  2  3  1  0  0  0  0
  3  4  1  0  0  0  0
  4  5  1  0  0  0  0
  5  6  1  0  0  0  0
  6  7  1  0  0  0  0
  7  8  1  0  0  0  0
  8  9  1  0  0  0  0
  9 10  1  0  0  0  0
 10 11  1  0  0  0  0
 11 12  1  0  0  0  0
 12 13  1  0  0  0  0
 13 14  1  0  0  0  0
 14 15  1  0  0  0  0
 15 16  1  0  0  0  0
 16 17  1  0  0  0  0
 17 18  1  0  0  0  0
 18 19  1  0  0  0  0
 18 20  1  0  0  0  0
 14 21  1  0  0  0  0
 10 22  1  0  0  0  0
  6 23  1  0  0  0  0
  2 24  1  0  0  0  0
M  END
>  <cdx:groupId>
26486

>  <cdx:fragmentId>
26418

$$$$
