521559.cdx
  Mrv1902 05222410252D          

 14 14  0  0  0  0            999 V2000
    7.8474   -5.6410    0.0000 C   0  0  0  0  0  0  0  0  0  0  0  0
    7.1346   -6.0563    0.0000 C   0  0  0  0  0  0  0  0  0  0  0  0
    7.1379   -6.8813    0.0000 C   0  0  0  0  0  0  0  0  0  0  0  0
    7.8540   -7.2910    0.0000 C   0  0  0  0  0  0  0  0  0  0  0  0
    8.5668   -6.8757    0.0000 C   0  0  0  0  0  0  0  0  0  0  0  0
    8.5635   -6.0507    0.0000 C   0  0  0  0  0  0  0  0  0  0  0  0
    7.8572   -8.1160    0.0000 C   0  0  0  0  0  0  0  0  0  0  0  0
    6.4185   -5.6467    0.0000 C   0  0  0  0  0  0  0  0  0  0  0  0
    9.2698   -3.9854    0.0000 Cl  0  0  0  0  0  0  0  0  0  0  0  0
    8.1445   -3.6862    0.0000 C   0  0  0  0  0  0  0  0  0  0  0  0
    7.1281   -4.4064    0.0000 O   0  0  0  0  0  0  0  0  0  0  0  0
    8.9695   -5.1152    0.0000 C   0  0  0  0  0  0  0  0  0  0  0  0
    8.5570   -4.4007    0.0000 C   0  0  0  0  0  0  0  0  0  0  0  0
    7.8442   -4.8160    0.0000 C   0  0  0  0  0  0  0  0  0  0  0  0
 13  9  1  0  0  0  0
 14  1  1  0  0  0  0
 13 10  1  0  0  0  0
 14 11  2  0  0  0  0
 13 12  1  0  0  0  0
 14 13  1  0  0  0  0
  1  2  1  0  0  0  0
  2  3  2  0  0  0  0
  3  4  1  0  0  0  0
  4  5  2  0  0  0  0
  5  6  1  0  0  0  0
  1  6  2  0  0  0  0
  4  7  1  0  0  0  0
  2  8  1  0  0  0  0
M  END
>  <cdx:fragmentId>
26328

$$$$
