521640.cdx
  Mrv1902 05222410192D          

 18 17  0  0  0  0            999 V2000
    4.3345   -6.6838    0.0000 C   0  0  0  0  0  0  0  0  0  0  0  0
    5.0530   -6.2783    0.0000 C   0  0  0  0  0  0  0  0  0  0  0  0
    5.7634   -6.6978    0.0000 C   0  0  0  0  0  0  0  0  0  0  0  0
    6.4819   -6.2923    0.0000 C   0  0  0  0  0  0  0  0  0  0  0  0
    7.1923   -6.7118    0.0000 C   0  0  0  0  0  0  0  0  0  0  0  0
    7.9107   -6.3063    0.0000 C   0  0  0  0  0  0  0  0  0  0  0  0
    8.6211   -6.7258    0.0000 C   0  0  0  0  0  0  0  0  0  0  0  0
    9.3396   -6.3203    0.0000 C   0  0  0  0  0  0  0  0  0  0  0  0
   10.0500   -6.7398    0.0000 C   0  0  0  0  0  0  0  0  0  0  0  0
   10.7685   -6.3343    0.0000 C   0  0  0  0  0  0  0  0  0  0  0  0
   11.4789   -6.7538    0.0000 C   0  0  0  0  0  0  0  0  0  0  0  0
   12.1974   -6.3483    0.0000 C   0  0  0  0  0  0  0  0  0  0  0  0
    4.3264   -7.5087    0.0000 O   0  0  0  0  0  0  0  0  0  0  0  0
    3.6241   -6.2643    0.0000 O   0  0  0  0  0  0  0  0  0  0  0  0
    2.9056   -6.6698    0.0000 Si  0  0  0  0  0  0  0  0  0  0  0  0
    2.1872   -7.0752    0.0000 C   0  0  0  0  0  0  0  0  0  0  0  0
    3.3111   -7.3882    0.0000 C   0  0  0  0  0  0  0  0  0  0  0  0
    2.5002   -5.9513    0.0000 C   0  0  0  0  0  0  0  0  0  0  0  0
  1  2  1  0  0  0  0
  2  3  1  0  0  0  0
  3  4  1  0  0  0  0
  4  5  1  0  0  0  0
  5  6  1  0  0  0  0
  6  7  1  0  0  0  0
  7  8  1  0  0  0  0
  8  9  1  0  0  0  0
  9 10  1  0  0  0  0
 10 11  1  0  0  0  0
 11 12  1  0  0  0  0
  1 13  2  0  0  0  0
  1 14  1  0  0  0  0
 15 16  1  0  0  0  0
 15 17  1  0  0  0  0
 15 18  1  0  0  0  0
 14 15  1  0  0  0  0
M  END
>  <cdx:groupId>
26710

>  <cdx:fragmentId>
26660

$$$$
