521602.cdx
  Mrv1902 05222410242D          

 27 26  0  0  0  0            999 V2000
   10.1102   -8.8874    0.0000 C   0  0  0  0  0  0  0  0  0  0  0  0
   10.8247   -8.4749    0.0000 C   0  0  0  0  0  0  0  0  0  0  0  0
   11.5392   -8.8874    0.0000 C   0  0  0  0  0  0  0  0  0  0  0  0
   12.2536   -8.4749    0.0000 C   0  0  0  0  0  0  0  0  0  0  0  0
   12.9681   -8.8874    0.0000 C   0  0  0  0  0  0  0  0  0  0  0  0
   13.6826   -8.4749    0.0000 C   0  0  0  0  0  0  0  0  0  0  0  0
   14.3970   -8.8874    0.0000 C   0  0  0  0  0  0  0  0  0  0  0  0
   15.1115   -8.4749    0.0000 C   0  0  0  0  0  0  0  0  0  0  0  0
   15.8260   -8.0624    0.0000 C   0  0  0  0  0  0  0  0  0  0  0  0
   16.5405   -8.4749    0.0000 C   0  0  0  0  0  0  0  0  0  0  0  0
   17.2549   -8.0624    0.0000 C   0  0  0  0  0  0  0  0  0  0  0  0
   17.9694   -8.4749    0.0000 C   0  0  0  0  0  0  0  0  0  0  0  0
   18.6839   -8.0624    0.0000 C   0  0  0  0  0  0  0  0  0  0  0  0
   19.3983   -8.4749    0.0000 C   0  0  0  0  0  0  0  0  0  0  0  0
   20.1128   -8.0624    0.0000 C   0  0  0  0  0  0  0  0  0  0  0  0
   20.8273   -8.4749    0.0000 C   0  0  0  0  0  0  0  0  0  0  0  0
   14.6990   -7.7604    0.0000 C   0  0  0  0  0  0  0  0  0  0  0  0
   13.8740   -7.7604    0.0000 C   0  0  0  0  0  0  0  0  0  0  0  0
   13.4615   -7.0459    0.0000 C   0  0  0  0  0  0  0  0  0  0  0  0
   12.6365   -7.0459    0.0000 C   0  0  0  0  0  0  0  0  0  0  0  0
   12.2240   -6.3315    0.0000 C   0  0  0  0  0  0  0  0  0  0  0  0
   15.5240   -9.1893    0.0000 C   0  0  0  0  0  0  0  0  0  0  0  0
   16.3490   -9.1893    0.0000 C   0  0  0  0  0  0  0  0  0  0  0  0
   16.7615   -9.9038    0.0000 C   0  0  0  0  0  0  0  0  0  0  0  0
   17.5865   -9.9038    0.0000 C   0  0  0  0  0  0  0  0  0  0  0  0
   17.9990  -10.6183    0.0000 C   0  0  0  0  0  0  0  0  0  0  0  0
   18.8240  -10.6183    0.0000 C   0  0  0  0  0  0  0  0  0  0  0  0
  1  2  1  0  0  0  0
  2  3  1  0  0  0  0
  3  4  1  0  0  0  0
  4  5  1  0  0  0  0
  5  6  1  0  0  0  0
  6  7  1  0  0  0  0
  7  8  1  0  0  0  0
  8  9  1  0  0  0  0
  9 10  1  0  0  0  0
 10 11  1  0  0  0  0
 11 12  1  0  0  0  0
 12 13  1  0  0  0  0
 13 14  1  0  0  0  0
 14 15  1  0  0  0  0
 15 16  1  0  0  0  0
 17 18  1  0  0  0  0
 18 19  1  0  0  0  0
 19 20  1  0  0  0  0
 20 21  1  0  0  0  0
  8 17  1  0  0  0  0
 22 23  1  0  0  0  0
 23 24  1  0  0  0  0
 24 25  1  0  0  0  0
 25 26  1  0  0  0  0
 26 27  1  0  0  0  0
  8 22  1  0  0  0  0
M  END
>  <cdx:groupId>
26575

>  <cdx:fragmentId>
26498

$$$$
