521669.cdx
  Mrv1902 05222410182D          

 28 30  0  0  0  0            999 V2000
   10.5378   -6.6324    0.0000 C   0  0  0  0  0  0  0  0  0  0  0  0
    9.8294   -6.2095    0.0000 O   0  0  0  0  0  0  0  0  0  0  0  0
    9.1090   -6.6115    0.0000 C   0  0  0  0  0  0  0  0  0  0  0  0
    9.0970   -7.4364    0.0000 C   0  0  0  0  0  0  0  0  0  0  0  0
    9.8053   -7.8593    0.0000 O   0  0  0  0  0  0  0  0  0  0  0  0
    8.4006   -6.1886    0.0000 C   0  0  0  0  0  0  0  0  0  0  0  0
    7.6802   -6.5906    0.0000 C   0  0  0  0  0  0  0  0  0  0  0  0
    7.6682   -7.4155    0.0000 C   0  0  0  0  0  0  0  0  0  0  0  0
    8.3765   -7.8384    0.0000 C   0  0  0  0  0  0  0  0  0  0  0  0
    6.9719   -6.1677    0.0000 C   0  0  0  0  0  0  0  0  0  0  0  0
    6.2514   -6.5698    0.0000 C   0  0  1  0  0  0  0  0  0  0  0  0
    6.2394   -7.3947    0.0000 C   0  0  2  0  0  0  0  0  0  0  0  0
    6.9478   -7.8176    0.0000 C   0  0  2  0  0  0  0  0  0  0  0  0
    5.5431   -6.1469    0.0000 C   0  0  0  0  0  0  0  0  0  0  0  0
    4.8106   -7.3738    0.0000 O   0  0  0  0  0  0  0  0  0  0  0  0
    5.5190   -7.7967    0.0000 C   0  0  0  0  0  0  0  0  0  0  0  0
    6.9357   -8.6425    0.0000 C   0  0  0  0  0  0  0  0  0  0  0  0
    7.6441   -9.0654    0.0000 C   0  0  0  0  0  0  0  0  0  0  0  0
    6.2153   -9.0445    0.0000 C   0  0  0  0  0  0  0  0  0  0  0  0
    6.2032   -9.8694    0.0000 C   0  0  0  0  0  0  0  0  0  0  0  0
    6.9116  -10.2923    0.0000 C   0  0  0  0  0  0  0  0  0  0  0  0
    7.6320   -9.8903    0.0000 C   0  0  0  0  0  0  0  0  0  0  0  0
    4.7744   -9.8485    0.0000 C   0  0  0  0  0  0  0  0  0  0  0  0
    5.4828  -10.2714    0.0000 O   0  0  0  0  0  0  0  0  0  0  0  0
    5.5551   -5.3220    0.0000 O   0  0  0  0  0  0  0  0  0  0  0  0
    6.8996  -11.1172    0.0000 O   0  0  0  0  0  0  0  0  0  0  0  0
    8.3645   -8.6634    0.0000 O   0  0  0  0  0  0  0  0  0  0  0  0
    9.0729   -9.0862    0.0000 C   0  0  0  0  0  0  0  0  0  0  0  0
  1  2  1  0  0  0  0
  2  3  1  0  0  0  0
  3  4  1  0  0  0  0
  4  5  1  0  0  0  0
  3  6  2  0  0  0  0
  6  7  1  0  0  0  0
  7  8  2  0  0  0  0
  8  9  1  0  0  0  0
  9  4  2  0  0  0  0
  7 10  1  0  0  0  0
 10 11  1  0  0  0  0
 11 12  1  0  0  0  0
 12 13  1  0  0  0  0
 13  8  1  0  0  0  0
 11 14  1  1  0  0  0
 15 16  1  0  0  0  0
 12 16  1  6  0  0  0
 13 17  1  1  0  0  0
 17 18  2  0  0  0  0
 17 19  1  0  0  0  0
 19 20  2  0  0  0  0
 20 21  1  0  0  0  0
 21 22  2  0  0  0  0
 22 18  1  0  0  0  0
 23 24  1  0  0  0  0
 24 20  1  0  0  0  0
 14 25  1  0  0  0  0
 21 26  1  0  0  0  0
  9 27  1  0  0  0  0
 27 28  1  0  0  0  0
M  END
>  <cdx:fragmentId>
5

$$$$
