521791.cdx
  Mrv1902 05222410222D          

 31 33  0  0  0  0            999 V2000
    7.3217   -5.8290    0.0000 C   0  0  0  0  0  0  0  0  0  0  0  0
    6.6033   -6.2347    0.0000 C   0  0  0  0  0  0  0  0  0  0  0  0
    5.8929   -5.8153    0.0000 C   0  0  0  0  0  0  0  0  0  0  0  0
    5.9008   -4.9904    0.0000 C   0  0  0  0  0  0  0  0  0  0  0  0
    7.3297   -5.0041    0.0000 O   0  0  0  0  0  0  0  0  0  0  0  0
    8.0322   -6.2484    0.0000 O   0  0  0  0  0  0  0  0  0  0  0  0
    5.1745   -6.2209    0.0000 C   0  0  0  0  0  0  0  0  0  0  0  0
    7.2980   -8.3039    0.0000 C   0  0  0  0  0  0  0  0  0  0  0  0
    7.3059   -7.4790    0.0000 C   0  0  2  0  0  0  0  0  0  0  0  0
    8.0243   -7.0734    0.0000 C   0  0  1  0  0  0  0  0  0  0  0  0
    8.7348   -7.4927    0.0000 C   0  0  0  0  0  0  0  0  0  0  0  0
    9.4532   -7.0871    0.0000 C   0  0  0  0  0  0  0  0  0  0  0  0
   10.1636   -7.5064    0.0000 C   0  0  0  0  0  0  0  0  0  0  0  0
   10.1557   -8.3314    0.0000 C   0  0  0  0  0  0  0  0  0  0  0  0
    9.4373   -8.7370    0.0000 C   0  0  0  0  0  0  0  0  0  0  0  0
    8.7268   -8.3177    0.0000 C   0  0  0  0  0  0  0  0  0  0  0  0
    8.0084   -8.7233    0.0000 O   0  0  0  0  0  0  0  0  0  0  0  0
   10.8820   -7.1008    0.0000 C   0  0  0  0  0  0  0  0  0  0  0  0
   11.5925   -7.5201    0.0000 C   0  0  0  0  0  0  0  0  0  0  0  0
   11.5846   -8.3451    0.0000 C   0  0  0  0  0  0  0  0  0  0  0  0
   10.8662   -8.7507    0.0000 O   0  0  0  0  0  0  0  0  0  0  0  0
   12.2951   -8.7645    0.0000 O   0  0  0  0  0  0  0  0  0  0  0  0
    6.5954   -7.0596    0.0000 O   0  0  0  0  0  0  0  0  0  0  0  0
    5.8770   -7.4652    0.0000 C   0  0  0  0  0  0  0  0  0  0  0  0
    5.1665   -7.0459    0.0000 C   0  0  0  0  0  0  0  0  0  0  0  0
    4.4481   -7.4515    0.0000 C   0  0  0  0  0  0  0  0  0  0  0  0
    3.7377   -7.0322    0.0000 C   0  0  0  0  0  0  0  0  0  0  0  0
    5.8691   -8.2902    0.0000 O   0  0  0  0  0  0  0  0  0  0  0  0
    4.4402   -8.2765    0.0000 C   0  0  0  0  0  0  0  0  0  0  0  0
    6.8786   -9.0144    0.0000 C   0  0  0  0  0  0  0  0  0  0  0  0
    6.4730   -8.2960    0.0000 C   0  0  0  0  0  0  0  0  0  0  0  0
  1  2  1  0  0  0  0
  2  3  2  0  0  0  0
  3  4  1  0  0  0  0
  1  5  2  0  0  0  0
  1  6  1  0  0  0  0
  3  7  1  0  0  0  0
  8  9  1  0  0  0  0
  9 10  1  0  0  0  0
 10 11  1  0  0  0  0
 11 12  1  0  0  0  0
 12 13  2  0  0  0  0
 13 14  1  0  0  0  0
 14 15  2  0  0  0  0
 15 16  1  0  0  0  0
 11 16  2  0  0  0  0
 16 17  1  0  0  0  0
  8 17  1  0  0  0  0
 18 19  2  0  0  0  0
 19 20  1  0  0  0  0
 20 21  1  0  0  0  0
 18 13  1  0  0  0  0
 21 14  1  0  0  0  0
 20 22  2  0  0  0  0
 24 25  1  0  0  0  0
 25 26  2  0  0  0  0
 26 27  1  0  0  0  0
 24 28  2  0  0  0  0
 23 24  1  0  0  0  0
 26 29  1  0  0  0  0
  9 23  1  1  0  0  0
  8 30  1  0  0  0  0
  8 31  1  0  0  0  0
 10  6  1  6  0  0  0
M  END
>  <cdx:fragmentId>
113810

$$$$
