521710.cdx
  Mrv1902 05222410272D          

 15 17  0  0  0  0            999 V2000
    4.8100  -10.0215    0.0000 C   0  0  0  0  0  0  0  0  0  0  0  0
    8.2592  -10.7207    0.0000 C   0  0  0  0  0  0  0  0  0  0  0  0
    8.1312   -8.9243    0.0000 C   0  0  0  0  0  0  0  0  0  0  0  0
    8.1577   -9.7489    0.0000 C   0  0  0  0  0  0  0  0  0  0  0  0
    7.4304   -9.3596    0.0000 C   0  0  0  0  0  0  0  0  0  0  0  0
    7.7241  -10.0928    0.0000 C   0  0  0  0  0  0  0  0  0  0  0  0
    8.0577   -9.3382    0.0000 C   0  0  0  0  0  0  0  0  0  0  0  0
    7.6757   -8.6070    0.0000 C   0  0  0  0  0  0  0  0  0  0  0  0
    6.8658   -8.4497    0.0000 C   0  0  0  0  0  0  0  0  0  0  0  0
    6.2379   -8.9848    0.0000 C   0  0  0  0  0  0  0  0  0  0  0  0
    6.2648   -9.8094    0.0000 C   0  0  0  0  0  0  0  0  0  0  0  0
    5.5914  -10.2860    0.0000 C   0  0  0  0  0  0  0  0  0  0  0  0
    5.8367  -11.0737    0.0000 C   0  0  0  0  0  0  0  0  0  0  0  0
    6.6616  -11.0839    0.0000 C   0  0  0  0  0  0  0  0  0  0  0  0
    6.9262  -10.3025    0.0000 C   0  0  0  0  0  0  0  0  0  0  0  0
 12  1  1  0  0  0  0
  6  2  1  0  0  0  0
  5  3  1  0  0  0  0
  5  4  1  0  0  0  0
 15 11  1  0  0  0  0
  5  9  1  0  0  0  0
 15  5  1  0  0  0  0
 15  6  1  0  0  0  0
  7  6  2  0  0  0  0
  8  7  1  0  0  0  0
  9  8  1  0  0  0  0
 10  9  1  0  0  0  0
 11 10  1  0  0  0  0
 12 11  1  0  0  0  0
 13 12  1  0  0  0  0
 14 13  1  0  0  0  0
 15 14  1  0  0  0  0
M  END
>  <cdx:fragmentId>
26720

$$$$
