521846.cdx
  Mrv1902 05222410272D          

 54 53  0  0  0  0            999 V2000
   39.4572   -9.7223    0.0000 C   0  0  0  0  0  0  0  0  0  0  0  0
   38.7435  -10.1361    0.0000 C   0  0  0  0  0  0  0  0  0  0  0  0
   38.0283   -9.7250    0.0000 C   0  0  0  0  0  0  0  0  0  0  0  0
   37.3146  -10.1389    0.0000 C   0  0  0  0  0  0  0  0  0  0  0  0
   36.5993   -9.7278    0.0000 C   0  0  0  0  0  0  0  0  0  0  0  0
   35.8857  -10.1417    0.0000 C   0  0  0  0  0  0  0  0  0  0  0  0
   35.1704   -9.7306    0.0000 C   0  0  0  0  0  0  0  0  0  0  0  0
   34.4567  -10.1444    0.0000 C   0  0  0  0  0  0  0  0  0  0  0  0
   33.7415   -9.7333    0.0000 C   0  0  0  0  0  0  0  0  0  0  0  0
   33.0278  -10.1472    0.0000 C   0  0  0  0  0  0  0  0  0  0  0  0
   32.3125   -9.7361    0.0000 C   0  0  0  0  0  0  0  0  0  0  0  0
   31.5989  -10.1500    0.0000 C   0  0  0  0  0  0  0  0  0  0  0  0
   30.8836   -9.7389    0.0000 C   0  0  0  0  0  0  0  0  0  0  0  0
   30.1699  -10.1528    0.0000 C   0  0  0  0  0  0  0  0  0  0  0  0
   29.4546   -9.7416    0.0000 C   0  0  0  0  0  0  0  0  0  0  0  0
   28.7410  -10.1555    0.0000 C   0  0  0  0  0  0  0  0  0  0  0  0
   28.0257   -9.7444    0.0000 C   0  0  0  0  0  0  0  0  0  0  0  0
   27.3120  -10.1583    0.0000 C   0  0  0  0  0  0  0  0  0  0  0  0
   26.5968   -9.7472    0.0000 C   0  0  0  0  0  0  0  0  0  0  0  0
   25.8831  -10.1611    0.0000 C   0  0  0  0  0  0  0  0  0  0  0  0
   25.1678   -9.7500    0.0000 C   0  0  0  0  0  0  0  0  0  0  0  0
   24.4542  -10.1638    0.0000 C   0  0  0  0  0  0  0  0  0  0  0  0
   23.7389   -9.7527    0.0000 C   0  0  0  0  0  0  0  0  0  0  0  0
   23.0252  -10.1666    0.0000 C   0  0  0  0  0  0  0  0  0  0  0  0
   22.3099   -9.7555    0.0000 C   0  0  0  0  0  0  0  0  0  0  0  0
   21.5963  -10.1694    0.0000 C   0  0  0  0  0  0  0  0  0  0  0  0
   20.8810   -9.7583    0.0000 C   0  0  0  0  0  0  0  0  0  0  0  0
   20.1673  -10.1722    0.0000 C   0  0  0  0  0  0  0  0  0  0  0  0
   19.4521   -9.7610    0.0000 C   0  0  0  0  0  0  0  0  0  0  0  0
   18.7384  -10.1749    0.0000 C   0  0  0  0  0  0  0  0  0  0  0  0
   18.0231   -9.7638    0.0000 C   0  0  0  0  0  0  0  0  0  0  0  0
   17.3095  -10.1777    0.0000 C   0  0  0  0  0  0  0  0  0  0  0  0
   16.5942   -9.7666    0.0000 C   0  0  0  0  0  0  0  0  0  0  0  0
   15.8805  -10.1805    0.0000 C   0  0  0  0  0  0  0  0  0  0  0  0
   15.1653   -9.7694    0.0000 C   0  0  0  0  0  0  0  0  0  0  0  0
   14.4516  -10.1832    0.0000 C   0  0  0  0  0  0  0  0  0  0  0  0
   13.7363   -9.7721    0.0000 C   0  0  0  0  0  0  0  0  0  0  0  0
   13.0226  -10.1860    0.0000 C   0  0  0  0  0  0  0  0  0  0  0  0
   12.3074   -9.7749    0.0000 C   0  0  0  0  0  0  0  0  0  0  0  0
   11.5937  -10.1888    0.0000 C   0  0  0  0  0  0  0  0  0  0  0  0
   10.8784   -9.7777    0.0000 C   0  0  0  0  0  0  0  0  0  0  0  0
   10.1648  -10.1916    0.0000 C   0  0  0  0  0  0  0  0  0  0  0  0
    9.4495   -9.7804    0.0000 C   0  0  0  0  0  0  0  0  0  0  0  0
    8.7358  -10.1943    0.0000 C   0  0  0  0  0  0  0  0  0  0  0  0
    8.0206   -9.7832    0.0000 C   0  0  0  0  0  0  0  0  0  0  0  0
    7.3069  -10.1971    0.0000 C   0  0  0  0  0  0  0  0  0  0  0  0
    6.5916   -9.7860    0.0000 C   0  0  0  0  0  0  0  0  0  0  0  0
    5.8779  -10.1999    0.0000 C   0  0  0  0  0  0  0  0  0  0  0  0
    5.1627   -9.7888    0.0000 C   0  0  0  0  0  0  0  0  0  0  0  0
    4.4490  -10.2026    0.0000 C   0  0  0  0  0  0  0  0  0  0  0  0
    3.7337   -9.7915    0.0000 C   0  0  0  0  0  0  0  0  0  0  0  0
    3.0201  -10.2054    0.0000 C   0  0  0  0  0  0  0  0  0  0  0  0
    2.3048   -9.7943    0.0000 C   0  0  0  0  0  0  0  0  0  0  0  0
    1.5911  -10.2082    0.0000 C   0  0  0  0  0  0  0  0  0  0  0  0
  1  2  1  0  0  0  0
  2  3  1  0  0  0  0
  3  4  1  0  0  0  0
  4  5  1  0  0  0  0
  5  6  1  0  0  0  0
  6  7  1  0  0  0  0
  7  8  1  0  0  0  0
  8  9  1  0  0  0  0
  9 10  1  0  0  0  0
 10 11  1  0  0  0  0
 11 12  1  0  0  0  0
 12 13  1  0  0  0  0
 13 14  1  0  0  0  0
 14 15  1  0  0  0  0
 15 16  1  0  0  0  0
 16 17  1  0  0  0  0
 17 18  1  0  0  0  0
 18 19  1  0  0  0  0
 19 20  1  0  0  0  0
 20 21  1  0  0  0  0
 21 22  1  0  0  0  0
 22 23  1  0  0  0  0
 23 24  1  0  0  0  0
 24 25  1  0  0  0  0
 25 26  1  0  0  0  0
 26 27  1  0  0  0  0
 27 28  1  0  0  0  0
 28 29  1  0  0  0  0
 29 30  1  0  0  0  0
 30 31  1  0  0  0  0
 31 32  1  0  0  0  0
 32 33  1  0  0  0  0
 33 34  1  0  0  0  0
 34 35  1  0  0  0  0
 35 36  1  0  0  0  0
 36 37  1  0  0  0  0
 37 38  1  0  0  0  0
 38 39  1  0  0  0  0
 39 40  1  0  0  0  0
 40 41  1  0  0  0  0
 41 42  1  0  0  0  0
 42 43  1  0  0  0  0
 43 44  1  0  0  0  0
 44 45  1  0  0  0  0
 45 46  1  0  0  0  0
 46 47  1  0  0  0  0
 47 48  1  0  0  0  0
 48 49  1  0  0  0  0
 49 50  1  0  0  0  0
 50 51  1  0  0  0  0
 51 52  1  0  0  0  0
 52 53  1  0  0  0  0
 53 54  1  0  0  0  0
M  END
>  <cdx:fragmentId>
26772

$$$$
