521945.cdx
  Mrv1902 05222410242D          

  9  8  0  0  0  0            999 V2000
    5.4053   -7.9158    0.0000 C   0  0  0  0  0  0  0  0  0  0  0  0
    8.9777   -6.6783    0.0000 C   0  0  0  0  0  0  0  0  0  0  0  0
    9.6922   -7.9158    0.0000 C   0  0  0  0  0  0  0  0  0  0  0  0
    8.9777   -7.5033    0.0000 C   0  0  0  0  0  0  0  0  0  0  0  0
    8.2632   -7.9158    0.0000 C   0  0  0  0  0  0  0  0  0  0  0  0
    7.5488   -7.5033    0.0000 C   0  0  0  0  0  0  0  0  0  0  0  0
    6.8343   -7.9158    0.0000 C   0  0  0  0  0  0  0  0  0  0  0  0
    6.1198   -7.5033    0.0000 C   0  0  0  0  0  0  0  0  0  0  0  0
    6.1198   -6.6783    0.0000 C   0  0  0  0  0  0  0  0  0  0  0  0
  8  1  1  0  0  0  0
  4  2  1  0  0  0  0
  4  3  1  0  0  0  0
  5  4  2  0  0  0  0
  6  5  1  0  0  0  0
  7  6  1  0  0  0  0
  8  7  2  0  0  0  0
  9  8  1  0  0  0  0
M  END
>  <cdx:groupId>
27006

>  <cdx:fragmentId>
26983

$$$$
