522071.cdx
  Mrv1902 05222410222D          

  8  7  0  0  0  0            999 V2000
   13.3253  -10.1656    0.0000 C   0  0  0  0  0  0  0  0  0  0  0  0
   14.0398   -9.7531    0.0000 C   0  0  0  0  0  0  0  0  0  0  0  0
   14.7543  -10.1656    0.0000 C   0  0  0  0  0  0  0  0  0  0  0  0
   15.4688   -9.7531    0.0000 C   0  0  0  0  0  0  0  0  0  0  0  0
   16.1832  -10.1656    0.0000 C   0  0  0  0  0  0  0  0  0  0  0  0
   16.8977   -9.7531    0.0000 C   0  0  0  0  0  0  0  0  0  0  0  0
   17.6122  -10.1656    0.0000 C   0  0  0  0  0  0  0  0  0  0  0  0
   14.0398   -8.9281    0.0000 S   0  0  0  0  0  0  0  0  0  0  0  0
  1  2  1  0  0  0  0
  2  3  1  0  0  0  0
  3  4  1  0  0  0  0
  4  5  1  0  0  0  0
  5  6  1  0  0  0  0
  6  7  1  0  0  0  0
  2  8  1  0  0  0  0
M  END
>  <cdx:groupId>
27117

>  <cdx:fragmentId>
27097

$$$$
