522120.cdx
  Mrv1902 05222410242D          

 22 21  0  0  0  0            999 V2000
   22.6135   -9.6208    0.0000 C   0  0  0  0  0  0  0  0  0  0  0  0
   21.8990  -10.0333    0.0000 C   0  0  0  0  0  0  0  0  0  0  0  0
   21.1845   -9.6208    0.0000 C   0  0  0  0  0  0  0  0  0  0  0  0
   20.4701  -10.0333    0.0000 C   0  0  0  0  0  0  0  0  0  0  0  0
   19.7556   -9.6208    0.0000 C   0  0  0  0  0  0  0  0  0  0  0  0
   19.0411  -10.0333    0.0000 C   0  0  0  0  0  0  0  0  0  0  0  0
   18.3266   -9.6208    0.0000 C   0  0  0  0  0  0  0  0  0  0  0  0
   17.6122  -10.0333    0.0000 C   0  0  0  0  0  0  0  0  0  0  0  0
   16.8977   -9.6208    0.0000 C   0  0  0  0  0  0  0  0  0  0  0  0
   16.1832  -10.0333    0.0000 C   0  0  0  0  0  0  0  0  0  0  0  0
   15.4688   -9.6208    0.0000 C   0  0  0  0  0  0  0  0  0  0  0  0
   14.7543  -10.0333    0.0000 C   0  0  0  0  0  0  0  0  0  0  0  0
   14.0398   -9.6208    0.0000 C   0  0  0  0  0  0  0  0  0  0  0  0
   13.3253  -10.0333    0.0000 C   0  0  0  0  0  0  0  0  0  0  0  0
   12.6109   -9.6208    0.0000 C   0  0  0  0  0  0  0  0  0  0  0  0
   11.8964  -10.0333    0.0000 C   0  0  0  0  0  0  0  0  0  0  0  0
   11.1819   -9.6208    0.0000 C   0  0  0  0  0  0  0  0  0  0  0  0
   10.4675  -10.0333    0.0000 C   0  0  0  0  0  0  0  0  0  0  0  0
    9.7530   -9.6208    0.0000 C   0  0  0  0  0  0  0  0  0  0  0  0
    9.0385  -10.0333    0.0000 C   0  0  0  0  0  0  0  0  0  0  0  0
    8.3240   -9.6208    0.0000 C   0  0  0  0  0  0  0  0  0  0  0  0
   21.1845   -8.7958    0.0000 C   0  0  0  0  0  0  0  0  0  0  0  0
  1  2  1  0  0  0  0
  2  3  1  0  0  0  0
  3  4  1  0  0  0  0
  4  5  1  0  0  0  0
  5  6  1  0  0  0  0
  6  7  1  0  0  0  0
  7  8  1  0  0  0  0
  8  9  1  0  0  0  0
  9 10  1  0  0  0  0
 10 11  1  0  0  0  0
 11 12  1  0  0  0  0
 12 13  1  0  0  0  0
 13 14  1  0  0  0  0
 14 15  1  0  0  0  0
 15 16  1  0  0  0  0
 16 17  1  0  0  0  0
 17 18  1  0  0  0  0
 18 19  1  0  0  0  0
 19 20  1  0  0  0  0
 20 21  1  0  0  0  0
  3 22  1  0  0  0  0
M  END
>  <cdx:groupId>
27186

>  <cdx:fragmentId>
27124

$$$$
