522161.cdx
  Mrv1902 05222410182D          

 11 11  0  0  0  0            999 V2000
    8.1304   -8.0164    0.0000 C   0  0  0  0  0  0  0  0  0  0  0  0
    8.8449   -7.6039    0.0000 O   0  0  0  0  0  0  0  0  0  0  0  0
    7.4159   -8.4289    0.0000 C   0  0  0  0  0  0  0  0  0  0  0  0
    7.4159   -9.2539    0.0000 C   0  0  0  0  0  0  0  0  0  0  0  0
    6.7015   -9.6664    0.0000 C   0  0  0  0  0  0  0  0  0  0  0  0
    5.9870   -9.2539    0.0000 C   0  0  0  0  0  0  0  0  0  0  0  0
    5.9870   -8.4289    0.0000 C   0  0  0  0  0  0  0  0  0  0  0  0
    6.7015   -8.0164    0.0000 C   0  0  0  0  0  0  0  0  0  0  0  0
    5.2725   -9.6664    0.0000 C   0  0  0  0  0  0  0  0  0  0  0  0
    7.7179   -7.3019    0.0000 C   0  0  0  0  0  0  0  0  0  0  0  0
    8.5429   -8.7308    0.0000 C   0  0  0  0  0  0  0  0  0  0  0  0
  1  2  1  0  0  0  0
  3  4  1  0  0  0  0
  4  5  2  0  0  0  0
  5  6  1  0  0  0  0
  6  7  1  0  0  0  0
  7  8  1  0  0  0  0
  3  8  1  0  0  0  0
  6  9  2  0  0  0  0
  1  3  1  0  0  0  0
  1 10  1  0  0  0  0
  1 11  1  0  0  0  0
M  END
>  <cdx:fragmentId>
13

$$$$
