522260.cdx
  Mrv1902 05222410212D          

 32 31  0  0  0  0            999 V2000
    8.6246   -9.4875    0.0000 C   0  0  0  0  0  0  0  0  0  0  0  0
    8.6246   -8.6625    0.0000 C   0  0  0  0  0  0  0  0  0  0  0  0
    7.9101   -8.2500    0.0000 C   0  0  0  0  0  0  0  0  0  0  0  0
    7.1956   -8.6625    0.0000 C   0  0  0  0  0  0  0  0  0  0  0  0
    6.4812   -8.2500    0.0000 C   0  0  0  0  0  0  0  0  0  0  0  0
    5.7667   -8.6625    0.0000 C   0  0  0  0  0  0  0  0  0  0  0  0
    9.3391   -9.9000    0.0000 O   0  0  0  0  0  0  0  0  0  0  0  0
    5.0522   -8.2500    0.0000 O   0  0  0  0  0  0  0  0  0  0  0  0
    4.3378   -8.6625    0.0000 Si  0  0  0  0  0  0  0  0  0  0  0  0
    3.6233   -9.0750    0.0000 C   0  0  0  0  0  0  0  0  0  0  0  0
    4.3378   -9.4875    0.0000 C   0  0  0  0  0  0  0  0  0  0  0  0
    3.6233   -8.2500    0.0000 C   0  0  0  0  0  0  0  0  0  0  0  0
    6.4812   -7.4250    0.0000 O   0  0  0  0  0  0  0  0  0  0  0  0
    5.7667   -7.0125    0.0000 Si  0  0  0  0  0  0  0  0  0  0  0  0
    5.0522   -6.6000    0.0000 C   0  0  0  0  0  0  0  0  0  0  0  0
    5.0522   -7.4250    0.0000 C   0  0  0  0  0  0  0  0  0  0  0  0
    5.7667   -6.1875    0.0000 C   0  0  0  0  0  0  0  0  0  0  0  0
    7.1956   -9.4875    0.0000 O   0  0  0  0  0  0  0  0  0  0  0  0
    6.4812   -9.9000    0.0000 Si  0  0  0  0  0  0  0  0  0  0  0  0
    5.7667  -10.3125    0.0000 C   0  0  0  0  0  0  0  0  0  0  0  0
    5.7667   -9.4875    0.0000 C   0  0  0  0  0  0  0  0  0  0  0  0
    6.4812  -10.7250    0.0000 C   0  0  0  0  0  0  0  0  0  0  0  0
    7.9101   -7.4250    0.0000 O   0  0  0  0  0  0  0  0  0  0  0  0
    8.6246   -7.0125    0.0000 Si  0  0  0  0  0  0  0  0  0  0  0  0
    9.3391   -7.4250    0.0000 C   0  0  0  0  0  0  0  0  0  0  0  0
    9.3391   -6.6000    0.0000 C   0  0  0  0  0  0  0  0  0  0  0  0
    8.6246   -6.1875    0.0000 C   0  0  0  0  0  0  0  0  0  0  0  0
    9.3391   -8.2500    0.0000 O   0  0  0  0  0  0  0  0  0  0  0  0
   10.0535   -8.6625    0.0000 Si  0  0  0  0  0  0  0  0  0  0  0  0
   10.7680   -8.2500    0.0000 C   0  0  0  0  0  0  0  0  0  0  0  0
   10.0535   -9.4875    0.0000 C   0  0  0  0  0  0  0  0  0  0  0  0
   10.7680   -9.0750    0.0000 C   0  0  0  0  0  0  0  0  0  0  0  0
  1  2  1  0  0  0  0
  2  3  1  0  0  0  0
  3  4  1  0  0  0  0
  4  5  1  0  0  0  0
  5  6  1  0  0  0  0
  1  7  2  0  0  0  0
  9 10  1  0  0  0  0
  9 11  1  0  0  0  0
  9 12  1  0  0  0  0
  8  9  1  0  0  0  0
  6  8  1  0  0  0  0
 14 15  1  0  0  0  0
 14 16  1  0  0  0  0
 14 17  1  0  0  0  0
 13 14  1  0  0  0  0
  5 13  1  0  0  0  0
 19 20  1  0  0  0  0
 19 21  1  0  0  0  0
 19 22  1  0  0  0  0
 18 19  1  0  0  0  0
  4 18  1  0  0  0  0
 24 25  1  0  0  0  0
 24 26  1  0  0  0  0
 24 27  1  0  0  0  0
 23 24  1  0  0  0  0
  3 23  1  0  0  0  0
 29 30  1  0  0  0  0
 29 31  1  0  0  0  0
 29 32  1  0  0  0  0
 28 29  1  0  0  0  0
  2 28  1  0  0  0  0
M  END
>  <cdx:fragmentId>
5

$$$$
