522398.cdx
  Mrv1902 05222410202D          

 43 42  0  0  0  0            999 V2000
    0.4649   -9.6307    0.0000 C   0  0  0  0  0  0  0  0  0  0  0  0
    1.1793   -9.2182    0.0000 C   0  0  0  0  0  0  0  0  0  0  0  0
    1.8938   -9.6307    0.0000 C   0  0  0  0  0  0  0  0  0  0  0  0
    2.6083   -9.2182    0.0000 C   0  0  0  0  0  0  0  0  0  0  0  0
    3.3228   -9.6307    0.0000 C   0  0  0  0  0  0  0  0  0  0  0  0
    4.0372   -9.2182    0.0000 C   0  0  0  0  0  0  0  0  0  0  0  0
    4.7517   -9.6307    0.0000 C   0  0  0  0  0  0  0  0  0  0  0  0
    5.4662   -9.2182    0.0000 C   0  0  0  0  0  0  0  0  0  0  0  0
    6.1806   -9.6307    0.0000 C   0  0  0  0  0  0  0  0  0  0  0  0
    6.8951   -9.2182    0.0000 C   0  0  0  0  0  0  0  0  0  0  0  0
    7.6096   -9.6307    0.0000 C   0  0  0  0  0  0  0  0  0  0  0  0
    8.3240   -9.2182    0.0000 C   0  0  0  0  0  0  0  0  0  0  0  0
    9.0385   -9.6307    0.0000 C   0  0  0  0  0  0  0  0  0  0  0  0
    9.7530   -9.2182    0.0000 C   0  0  0  0  0  0  0  0  0  0  0  0
   10.4675   -9.6307    0.0000 C   0  0  0  0  0  0  0  0  0  0  0  0
   11.1819   -9.2182    0.0000 C   0  0  0  0  0  0  0  0  0  0  0  0
   11.8964   -9.6307    0.0000 C   0  0  0  0  0  0  0  0  0  0  0  0
   12.6109   -9.2182    0.0000 C   0  0  0  0  0  0  0  0  0  0  0  0
   13.3253   -9.6307    0.0000 C   0  0  0  0  0  0  0  0  0  0  0  0
   14.0398   -9.2182    0.0000 C   0  0  0  0  0  0  0  0  0  0  0  0
   14.7543   -9.6307    0.0000 C   0  0  0  0  0  0  0  0  0  0  0  0
   15.4688   -9.2182    0.0000 C   0  0  0  0  0  0  0  0  0  0  0  0
   16.1832   -9.6307    0.0000 C   0  0  0  0  0  0  0  0  0  0  0  0
   16.8977   -9.2182    0.0000 C   0  0  0  0  0  0  0  0  0  0  0  0
   17.6122   -9.6307    0.0000 C   0  0  0  0  0  0  0  0  0  0  0  0
   18.3266   -9.2182    0.0000 C   0  0  0  0  0  0  0  0  0  0  0  0
   19.0411   -9.6307    0.0000 C   0  0  0  0  0  0  0  0  0  0  0  0
   19.7556   -9.2182    0.0000 C   0  0  0  0  0  0  0  0  0  0  0  0
   20.4701   -9.6307    0.0000 C   0  0  0  0  0  0  0  0  0  0  0  0
   21.1845   -9.2182    0.0000 C   0  0  0  0  0  0  0  0  0  0  0  0
   21.8990   -9.6307    0.0000 C   0  0  0  0  0  0  0  0  0  0  0  0
   22.6135   -9.2182    0.0000 C   0  0  0  0  0  0  0  0  0  0  0  0
   23.3279   -9.6307    0.0000 C   0  0  0  0  0  0  0  0  0  0  0  0
   24.0424   -9.2182    0.0000 C   0  0  0  0  0  0  0  0  0  0  0  0
   24.7569   -9.6307    0.0000 C   0  0  0  0  0  0  0  0  0  0  0  0
   25.4713   -9.2182    0.0000 C   0  0  0  0  0  0  0  0  0  0  0  0
   26.1858   -9.6307    0.0000 C   0  0  0  0  0  0  0  0  0  0  0  0
   26.9003   -9.2182    0.0000 C   0  0  0  0  0  0  0  0  0  0  0  0
   27.6148   -9.6307    0.0000 C   0  0  0  0  0  0  0  0  0  0  0  0
   28.3292   -9.2182    0.0000 C   0  0  0  0  0  0  0  0  0  0  0  0
   29.0437   -9.6307    0.0000 C   0  0  0  0  0  0  0  0  0  0  0  0
   29.7582   -9.2182    0.0000 C   0  0  0  0  0  0  0  0  0  0  0  0
   30.4726   -9.6307    0.0000 C   0  0  0  0  0  0  0  0  0  0  0  0
  1  2  1  0  0  0  0
  2  3  1  0  0  0  0
  3  4  1  0  0  0  0
  4  5  1  0  0  0  0
  5  6  1  0  0  0  0
  6  7  1  0  0  0  0
  7  8  1  0  0  0  0
  8  9  1  0  0  0  0
  9 10  1  0  0  0  0
 10 11  1  0  0  0  0
 11 12  1  0  0  0  0
 12 13  1  0  0  0  0
 13 14  1  0  0  0  0
 14 15  1  0  0  0  0
 15 16  1  0  0  0  0
 16 17  1  0  0  0  0
 17 18  1  0  0  0  0
 18 19  1  0  0  0  0
 19 20  1  0  0  0  0
 20 21  1  0  0  0  0
 21 22  1  0  0  0  0
 22 23  1  0  0  0  0
 23 24  1  0  0  0  0
 24 25  1  0  0  0  0
 25 26  1  0  0  0  0
 26 27  1  0  0  0  0
 27 28  1  0  0  0  0
 28 29  1  0  0  0  0
 29 30  1  0  0  0  0
 30 31  1  0  0  0  0
 31 32  1  0  0  0  0
 32 33  1  0  0  0  0
 33 34  1  0  0  0  0
 34 35  1  0  0  0  0
 35 36  1  0  0  0  0
 36 37  1  0  0  0  0
 37 38  1  0  0  0  0
 38 39  1  0  0  0  0
 39 40  1  0  0  0  0
 40 41  1  0  0  0  0
 41 42  1  0  0  0  0
 42 43  1  0  0  0  0
M  END
>  <cdx:groupId>
27549

>  <cdx:fragmentId>
27424

$$$$
