522487.cdx
  Mrv1902 05222410242D          

 20 19  0  0  0  0            999 V2000
   20.8702   -8.9281    0.0000 C   0  0  0  0  0  0  0  0  0  0  0  0
   20.1558   -9.3406    0.0000 C   0  0  0  0  0  0  0  0  0  0  0  0
   19.4413   -8.9281    0.0000 C   0  0  0  0  0  0  0  0  0  0  0  0
   18.7268   -9.3406    0.0000 C   0  0  0  0  0  0  0  0  0  0  0  0
   18.0123   -8.9281    0.0000 C   0  0  0  0  0  0  0  0  0  0  0  0
   17.2979   -9.3406    0.0000 C   0  0  0  0  0  0  0  0  0  0  0  0
   16.5834   -8.9281    0.0000 C   0  0  0  0  0  0  0  0  0  0  0  0
   15.8689   -9.3406    0.0000 C   0  0  0  0  0  0  0  0  0  0  0  0
   15.1545   -8.9281    0.0000 C   0  0  0  0  0  0  0  0  0  0  0  0
   14.4400   -9.3406    0.0000 C   0  0  0  0  0  0  0  0  0  0  0  0
   13.7255   -9.7531    0.0000 C   0  0  0  0  0  0  0  0  0  0  0  0
   13.0111  -10.1656    0.0000 C   0  0  0  0  0  0  0  0  0  0  0  0
   12.2966  -10.5781    0.0000 C   0  0  0  0  0  0  0  0  0  0  0  0
   11.5821  -10.9906    0.0000 C   0  0  0  0  0  0  0  0  0  0  0  0
   10.8676  -10.5781    0.0000 C   0  0  0  0  0  0  0  0  0  0  0  0
   10.1532  -10.9906    0.0000 C   0  0  0  0  0  0  0  0  0  0  0  0
    9.4387  -10.5781    0.0000 C   0  0  0  0  0  0  0  0  0  0  0  0
    8.7242  -10.9906    0.0000 C   0  0  0  0  0  0  0  0  0  0  0  0
   20.8702   -8.1031    0.0000 O   0  0  0  0  0  0  0  0  0  0  0  0
   21.5847   -9.3406    0.0000 O   0  0  0  0  0  0  0  0  0  0  0  0
  1  2  1  0  0  0  0
  2  3  1  0  0  0  0
  3  4  1  0  0  0  0
  4  5  1  0  0  0  0
  5  6  1  0  0  0  0
  6  7  1  0  0  0  0
  7  8  1  0  0  0  0
  8  9  1  0  0  0  0
  9 10  1  0  0  0  0
 10 11  3  0  0  0  0
 11 12  1  0  0  0  0
 12 13  3  0  0  0  0
 13 14  1  0  0  0  0
 14 15  1  0  0  0  0
 15 16  1  0  0  0  0
 16 17  1  0  0  0  0
 17 18  1  0  0  0  0
  1 19  2  0  0  0  0
  1 20  1  0  0  0  0
M  END
>  <cdx:groupId>
27622

>  <cdx:fragmentId>
27566

$$$$
