522526.cdx
  Mrv1902 05222410232D          

  8  7  0  0  0  0            999 V2000
    7.0815   -6.5842    0.0000 C   0  0  0  0  0  0  0  0  0  0  0  0
    8.5105   -6.5842    0.0000 C   0  0  0  0  0  0  0  0  0  0  0  0
    9.2249   -5.3467    0.0000 C   0  0  0  0  0  0  0  0  0  0  0  0
    8.5105   -5.7592    0.0000 C   0  0  0  0  0  0  0  0  0  0  0  0
    7.7960   -5.3467    0.0000 C   0  0  0  0  0  0  0  0  0  0  0  0
    7.0815   -5.7592    0.0000 C   0  0  0  0  0  0  0  0  0  0  0  0
    6.3670   -5.3467    0.0000 C   0  0  0  0  0  0  0  0  0  0  0  0
    5.6526   -5.7592    0.0000 C   0  0  0  0  0  0  0  0  0  0  0  0
  6  1  1  0  0  0  0
  4  2  1  0  0  0  0
  4  3  1  0  0  0  0
  5  4  1  0  0  0  0
  6  5  1  0  0  0  0
  7  6  1  0  0  0  0
  8  7  2  0  0  0  0
M  END
>  <cdx:fragmentId>
27632

$$$$
