522552.cdx
  Mrv1902 05222410272D          

 12 11  0  0  0  0            999 V2000
    4.1414   -7.1634    0.0000 C   0  0  0  0  0  0  0  0  0  0  0  0
    4.8559   -6.7509    0.0000 C   0  0  0  0  0  0  0  0  0  0  0  0
    5.5703   -7.1634    0.0000 C   0  0  0  0  0  0  0  0  0  0  0  0
    6.2848   -6.7509    0.0000 C   0  0  0  0  0  0  0  0  0  0  0  0
    6.9993   -7.1634    0.0000 C   0  0  0  0  0  0  0  0  0  0  0  0
    7.7138   -6.7509    0.0000 C   0  0  0  0  0  0  0  0  0  0  0  0
    8.4282   -7.1634    0.0000 C   0  0  0  0  0  0  0  0  0  0  0  0
    9.1427   -6.7509    0.0000 C   0  0  0  0  0  0  0  0  0  0  0  0
    9.8572   -7.1634    0.0000 C   0  0  0  0  0  0  0  0  0  0  0  0
   10.5716   -6.7509    0.0000 C   0  0  0  0  0  0  0  0  0  0  0  0
   11.2861   -7.1634    0.0000 C   0  0  0  0  0  0  0  0  0  0  0  0
    9.1427   -5.9259    0.0000 C   0  0  0  0  0  0  0  0  0  0  0  0
  1  2  2  0  0  0  0
  2  3  1  0  0  0  0
  3  4  1  0  0  0  0
  4  5  1  0  0  0  0
  5  6  1  0  0  0  0
  6  7  1  0  0  0  0
  7  8  1  0  0  0  0
  8  9  1  0  0  0  0
  9 10  1  0  0  0  0
 10 11  1  0  0  0  0
  8 12  1  0  0  0  0
M  END
>  <cdx:fragmentId>
27657

$$$$
