522667.cdx
  Mrv1902 05222410212D          

 16 18  0  0  0  0            999 V2000
    8.2395   -7.4035    0.0000 C   0  0  0  0  0  0  0  0  0  0  0  0
    9.0241   -7.1486    0.0000 C   0  0  0  0  0  0  0  0  0  0  0  0
    9.5091   -7.8160    0.0000 C   0  0  0  0  0  0  0  0  0  0  0  0
    9.0241   -8.4835    0.0000 C   0  0  0  0  0  0  0  0  0  0  0  0
    8.2395   -8.2285    0.0000 C   0  0  0  0  0  0  0  0  0  0  0  0
    7.5945   -8.7429    0.0000 C   0  0  0  0  0  0  0  0  0  0  0  0
    6.7902   -8.5593    0.0000 C   0  0  0  0  0  0  0  0  0  0  0  0
    6.4322   -7.8160    0.0000 C   0  0  0  0  0  0  0  0  0  0  0  0
    6.7902   -7.0727    0.0000 C   0  0  0  0  0  0  0  0  0  0  0  0
    7.5945   -6.8891    0.0000 C   0  0  0  0  0  0  0  0  0  0  0  0
    7.1823   -7.5629    0.0000 C   0  0  0  0  0  0  0  0  0  0  0  0
    5.7178   -8.2285    0.0000 O   0  0  0  0  0  0  0  0  0  0  0  0
    5.7178   -7.4035    0.0000 C   0  0  0  0  0  0  0  0  0  0  0  0
    8.1557   -9.3477    0.0000 C   0  0  0  0  0  0  0  0  0  0  0  0
    7.3513   -9.5312    0.0000 C   0  0  0  0  0  0  0  0  0  0  0  0
    9.2791   -6.3640    0.0000 C   0  0  0  0  0  0  0  0  0  0  0  0
  1  2  1  0  0  0  0
  2  3  1  0  0  0  0
  3  4  1  0  0  0  0
  4  5  1  0  0  0  0
  5  6  1  0  0  0  0
  6  7  1  0  0  0  0
  7  8  1  0  0  0  0
  8  9  1  0  0  0  0
  9 10  1  0  0  0  0
  1 10  1  0  0  0  0
  1 11  1  0  0  0  0
 11  7  1  0  0  0  0
  1  5  1  0  0  0  0
  8 12  1  0  0  0  0
  8 13  1  0  0  0  0
  6 14  1  0  0  0  0
  6 15  1  0  0  0  0
  2 16  1  0  0  0  0
M  END
>  <cdx:fragmentId>
24018

$$$$
