523159.cdx
  Mrv1902 05222410252D          

 27 31  0  0  0  0            999 V2000
    4.9956   -8.1645    0.0000 C   0  0  0  0  0  0  0  0  0  0  0  0
    5.8165   -8.2475    0.0000 C   0  0  0  0  0  0  0  0  0  0  0  0
    6.1550   -8.9999    0.0000 C   0  0  0  0  0  0  0  0  0  0  0  0
    5.6728   -9.6692    0.0000 C   0  0  0  0  0  0  0  0  0  0  0  0
    4.5134   -8.8339    0.0000 C   0  0  0  0  0  0  0  0  0  0  0  0
    4.8519   -9.5862    0.0000 C   0  0  0  0  0  0  0  0  0  0  0  0
    4.2410  -10.1407    0.0000 O   0  0  0  0  0  0  0  0  0  0  0  0
    3.5249   -9.7311    0.0000 C   0  0  0  0  0  0  0  0  0  0  0  0
    3.6932   -8.9234    0.0000 O   0  0  0  0  0  0  0  0  0  0  0  0
   10.7174   -7.6580    0.0000 C   0  0  0  0  0  0  0  0  0  0  0  0
    9.9338   -7.9161    0.0000 C   0  0  0  0  0  0  0  0  0  0  0  0
    9.3185   -7.3665    0.0000 C   0  0  0  0  0  0  0  0  0  0  0  0
    9.4868   -6.5588    0.0000 C   0  0  0  0  0  0  0  0  0  0  0  0
   10.8857   -6.8504    0.0000 C   0  0  0  0  0  0  0  0  0  0  0  0
   10.2704   -6.3008    0.0000 C   0  0  0  0  0  0  0  0  0  0  0  0
   10.6030   -5.5458    0.0000 O   0  0  0  0  0  0  0  0  0  0  0  0
   11.4238   -5.6287    0.0000 C   0  0  0  0  0  0  0  0  0  0  0  0
   11.5985   -6.4350    0.0000 O   0  0  0  0  0  0  0  0  0  0  0  0
    8.4381   -9.8307    0.0000 O   0  0  0  0  0  0  0  0  0  0  0  0
    8.7707   -9.0757    0.0000 C   0  0  0  0  0  0  0  0  0  0  0  0
    8.5349   -7.6245    0.0000 C   0  0  2  0  0  0  0  0  0  0  0  0
    8.2831   -8.4102    0.0000 C   0  0  2  0  0  0  0  0  0  0  0  0
    7.4581   -8.4135    0.0000 C   0  0  2  0  0  0  0  0  0  0  0  0
    7.2000   -7.6299    0.0000 C   0  0  0  0  0  0  0  0  0  0  0  0
    7.8655   -7.1423    0.0000 O   0  0  0  0  0  0  0  0  0  0  0  0
    7.3144   -9.8352    0.0000 O   0  0  0  0  0  0  0  0  0  0  0  0
    6.9758   -9.0828    0.0000 C   0  0  0  0  0  0  0  0  0  0  0  0
 27  3  1  0  0  0  0
  4  6  2  0  0  0  0
  1  5  2  0  0  0  0
  2  1  1  0  0  0  0
  3  2  2  0  0  0  0
  4  3  1  0  0  0  0
  9  5  1  0  0  0  0
  6  5  1  0  0  0  0
  7  6  1  0  0  0  0
  8  7  1  0  0  0  0
  9  8  1  0  0  0  0
 23 27  1  1  0  0  0
 21 12  1  6  0  0  0
 13 15  2  0  0  0  0
 10 14  2  0  0  0  0
 11 10  1  0  0  0  0
 12 11  2  0  0  0  0
 13 12  1  0  0  0  0
 18 14  1  0  0  0  0
 15 14  1  0  0  0  0
 16 15  1  0  0  0  0
 17 16  1  0  0  0  0
 18 17  1  0  0  0  0
 22 20  1  1  0  0  0
 20 19  1  0  0  0  0
 25 21  1  0  0  0  0
 22 21  1  0  0  0  0
 23 22  1  0  0  0  0
 24 23  1  0  0  0  0
 25 24  1  0  0  0  0
 27 26  2  0  0  0  0
M  END
>  <cdx:fragmentId>
52902

$$$$
