54523919.cdx
  Mrv1902 05222410282D          

  9  8  0  0  0  0            999 V2000
    8.3472   -6.8469    0.0000 C   0  0  0  0  0  0  0  0  0  0  0  0
    7.6327   -6.4344    0.0000 C   0  0  0  0  0  0  0  0  0  0  0  0
    8.3472   -7.6719    0.0000 O   0  0  0  0  0  0  0  0  0  0  0  0
    9.0617   -6.4344    0.0000 O   0  0  0  0  0  0  0  0  0  0  0  0
    7.6327   -5.6094    0.0000 O   0  0  0  0  0  0  0  0  0  0  0  0
    6.9183   -6.8469    0.0000 O   0  0  0  0  0  0  0  0  0  0  0  0
    6.2038   -6.4344    0.0000 C   0  0  0  0  0  0  0  0  0  0  0  0
    6.2038   -5.6094    0.0000 O   0  0  0  0  0  0  0  0  0  0  0  0
    5.4893   -6.8469    0.0000 C   0  0  0  0  0  0  0  0  0  0  0  0
  1  2  1  0  0  0  0
  1  3  2  0  0  0  0
  1  4  1  0  0  0  0
  2  5  2  0  0  0  0
  7  8  2  0  0  0  0
  7  9  1  0  0  0  0
  6  7  1  0  0  0  0
  2  6  1  0  0  0  0
M  END
>  <cdx:groupId>
28

>  <cdx:fragmentId>
5

$$$$
