524272.cdx
  Mrv1902 05222410202D          

 11 12  0  0  0  0            999 V2000
    7.5278   -6.8229    0.0000 C   0  0  0  0  0  0  0  0  0  0  0  0
    6.6184   -7.0201    0.0000 C   0  0  0  0  0  0  0  0  0  0  0  0
    6.5384   -6.2907    0.0000 C   0  0  0  0  0  0  0  0  0  0  0  0
    7.9250   -6.0391    0.0000 C   0  0  0  0  0  0  0  0  0  0  0  0
    9.1860   -6.3819    0.0000 C   0  0  0  0  0  0  0  0  0  0  0  0
    8.8402   -7.1995    0.0000 C   0  0  0  0  0  0  0  0  0  0  0  0
    7.5381   -5.3288    0.0000 C   0  0  0  0  0  0  0  0  0  0  0  0
    6.5216   -7.8394    0.0000 O   0  0  0  0  0  0  0  0  0  0  0  0
    7.0272   -4.6811    0.0000 C   0  0  0  0  0  0  0  0  0  0  0  0
    7.8436   -4.5625    0.0000 C   0  0  0  0  0  0  0  0  0  0  0  0
    5.7415   -7.2897    0.0000 C   0  0  0  0  0  0  0  0  0  0  0  0
  1  2  1  0  0  0  0
  2  3  1  0  0  0  0
  3  4  1  0  0  0  0
  4  5  1  0  0  0  0
  5  6  1  0  0  0  0
  1  6  1  0  0  0  0
  1  7  1  0  0  0  0
  7  4  1  0  0  0  0
  2  8  1  0  0  0  0
  7  9  1  0  0  0  0
  7 10  1  0  0  0  0
  2 11  1  0  0  0  0
M  END
>  <cdx:fragmentId>
27867

$$$$
