22524410.cdx
  Mrv1902 05222410212D          

 30 32  0  0  0  0            999 V2000
    7.0003   -7.1927    0.0000 C   0  0  0  0  0  0  0  0  0  0  0  0
    7.7126   -6.7765    0.0000 C   0  0  0  0  0  0  0  0  0  0  0  0
    7.7083   -5.9515    0.0000 C   0  0  0  0  0  0  0  0  0  0  0  0
    6.2837   -6.7839    0.0000 O   0  0  0  0  0  0  0  0  0  0  0  0
    8.4207   -5.5353    0.0000 C   0  0  0  0  0  0  0  0  0  0  0  0
    8.4164   -4.7103    0.0000 C   0  0  0  0  0  0  0  0  0  0  0  0
    9.1287   -4.2941    0.0000 C   0  0  0  0  0  0  0  0  0  0  0  0
    9.8453   -4.7028    0.0000 C   0  0  0  0  0  0  0  0  0  0  0  0
    9.8496   -5.5278    0.0000 C   0  0  0  0  0  0  0  0  0  0  0  0
    9.1373   -5.9441    0.0000 C   0  0  0  0  0  0  0  0  0  0  0  0
   10.5576   -4.2866    0.0000 O   0  0  0  0  0  0  0  0  0  0  0  0
    5.5757   -8.0251    0.0000 O   0  0  0  0  0  0  0  0  0  0  0  0
    7.0061  -12.1426    0.0000 O   0  0  0  0  0  0  0  0  0  0  0  0
    5.5714  -12.9577    0.0000 O   0  0  0  0  0  0  0  0  0  0  0  0
    4.1482  -12.1228    0.0000 O   0  0  0  0  0  0  0  0  0  0  0  0
    3.4424  -10.8803    0.0000 O   0  0  0  0  0  0  0  0  0  0  0  0
    4.1597  -10.4728    0.0000 C   0  0  0  0  0  0  0  0  0  0  0  0
    4.8713  -10.8903    0.0000 C   0  0  2  0  0  0  0  0  0  0  0  0
    4.8656  -11.7152    0.0000 C   0  0  2  0  0  0  0  0  0  0  0  0
    5.5772  -12.1327    0.0000 C   0  0  1  0  0  0  0  0  0  0  0  0
    6.2945  -11.7252    0.0000 C   0  0  2  0  0  0  0  0  0  0  0  0
    6.3002  -10.9002    0.0000 C   0  0  1  0  0  0  0  0  0  0  0  0
    5.5886  -10.4827    0.0000 O   0  0  0  0  0  0  0  0  0  0  0  0
    7.0175  -10.4927    0.0000 O   0  0  0  0  0  0  0  0  0  0  0  0
    7.7212   -8.4265    0.0000 C   0  0  0  0  0  0  0  0  0  0  0  0
    7.7255   -9.2515    0.0000 C   0  0  0  0  0  0  0  0  0  0  0  0
    7.0132   -9.6677    0.0000 C   0  0  0  0  0  0  0  0  0  0  0  0
    6.2966   -9.2589    0.0000 C   0  0  0  0  0  0  0  0  0  0  0  0
    6.2923   -8.4339    0.0000 C   0  0  0  0  0  0  0  0  0  0  0  0
    7.0046   -8.0177    0.0000 C   0  0  0  0  0  0  0  0  0  0  0  0
  1 30  1  0  0  0  0
 29 12  1  0  0  0  0
 27 24  1  0  0  0  0
 22 24  1  1  0  0  0
 21 13  1  6  0  0  0
 20 14  1  1  0  0  0
 19 15  1  6  0  0  0
 18 17  1  1  0  0  0
 17 16  1  0  0  0  0
 23 18  1  0  0  0  0
 19 18  1  0  0  0  0
 20 19  1  0  0  0  0
 21 20  1  0  0  0  0
 22 21  1  0  0  0  0
 23 22  1  0  0  0  0
 30 25  2  0  0  0  0
 26 25  1  0  0  0  0
 27 26  2  0  0  0  0
 28 27  1  0  0  0  0
 29 28  2  0  0  0  0
 30 29  1  0  0  0  0
  1  2  1  0  0  0  0
  2  3  2  0  0  0  0
  1  4  2  0  0  0  0
  5  6  1  0  0  0  0
  6  7  2  0  0  0  0
  7  8  1  0  0  0  0
  8  9  2  0  0  0  0
  9 10  1  0  0  0  0
  5 10  2  0  0  0  0
  8 11  1  0  0  0  0
  3  5  1  0  0  0  0
M  END
>  <cdx:fragmentId>
60157

$$$$
