22524411.cdx
  Mrv1902 05222410212D          

 30 33  0  0  0  0            999 V2000
    9.3298   -8.3649    0.0000 C   0  0  2  0  0  0  0  0  0  0  0  0
    9.3298   -9.1899    0.0000 C   0  0  0  0  0  0  0  0  0  0  0  0
    8.6154   -9.6024    0.0000 C   0  0  0  0  0  0  0  0  0  0  0  0
    7.9009   -9.1899    0.0000 C   0  0  0  0  0  0  0  0  0  0  0  0
    7.1864   -9.6024    0.0000 C   0  0  0  0  0  0  0  0  0  0  0  0
    6.4719   -9.1899    0.0000 C   0  0  0  0  0  0  0  0  0  0  0  0
    6.4719   -8.3649    0.0000 C   0  0  0  0  0  0  0  0  0  0  0  0
    7.1864   -7.9524    0.0000 C   0  0  0  0  0  0  0  0  0  0  0  0
    7.9009   -8.3649    0.0000 C   0  0  0  0  0  0  0  0  0  0  0  0
    8.6154   -7.9524    0.0000 O   0  0  0  0  0  0  0  0  0  0  0  0
    8.6154  -10.4274    0.0000 O   0  0  0  0  0  0  0  0  0  0  0  0
    5.7575   -7.9524    0.0000 O   0  0  0  0  0  0  0  0  0  0  0  0
    4.3285   -7.9524    0.0000 O   0  0  0  0  0  0  0  0  0  0  0  0
    5.0430   -8.3649    0.0000 C   0  0  2  0  0  0  0  0  0  0  0  0
    5.0430   -9.1899    0.0000 C   0  0  1  0  0  0  0  0  0  0  0  0
    4.3285   -9.6024    0.0000 C   0  0  2  0  0  0  0  0  0  0  0  0
    3.6141   -9.1899    0.0000 C   0  0  1  0  0  0  0  0  0  0  0  0
    3.6141   -8.3649    0.0000 C   0  0  1  0  0  0  0  0  0  0  0  0
    2.8996   -7.9524    0.0000 C   0  0  0  0  0  0  0  0  0  0  0  0
    2.1851   -8.3649    0.0000 O   0  0  0  0  0  0  0  0  0  0  0  0
    2.8996   -9.6024    0.0000 O   0  0  0  0  0  0  0  0  0  0  0  0
    4.3285  -10.4274    0.0000 O   0  0  0  0  0  0  0  0  0  0  0  0
    5.7575   -9.6024    0.0000 O   0  0  0  0  0  0  0  0  0  0  0  0
   10.0443   -7.9524    0.0000 C   0  0  0  0  0  0  0  0  0  0  0  0
   10.0443   -7.1274    0.0000 C   0  0  0  0  0  0  0  0  0  0  0  0
   10.7588   -6.7149    0.0000 C   0  0  0  0  0  0  0  0  0  0  0  0
   11.4732   -7.1274    0.0000 C   0  0  0  0  0  0  0  0  0  0  0  0
   11.4732   -7.9524    0.0000 C   0  0  0  0  0  0  0  0  0  0  0  0
   10.7588   -8.3649    0.0000 C   0  0  0  0  0  0  0  0  0  0  0  0
   12.1877   -6.7149    0.0000 O   0  0  0  0  0  0  0  0  0  0  0  0
  1  2  1  0  0  0  0
  2  3  1  0  0  0  0
  3  4  1  0  0  0  0
  4  5  1  0  0  0  0
  5  6  2  0  0  0  0
  6  7  1  0  0  0  0
  7  8  2  0  0  0  0
  8  9  1  0  0  0  0
  4  9  2  0  0  0  0
  9 10  1  0  0  0  0
  1 10  1  0  0  0  0
  3 11  2  0  0  0  0
 13 14  1  0  0  0  0
 14 15  1  0  0  0  0
 15 16  1  0  0  0  0
 16 17  1  0  0  0  0
 17 18  1  0  0  0  0
 13 18  1  0  0  0  0
 19 20  1  0  0  0  0
 18 19  1  1  0  0  0
 17 21  1  6  0  0  0
 16 22  1  1  0  0  0
 15 23  1  6  0  0  0
 14 12  1  1  0  0  0
  7 12  1  0  0  0  0
 24 25  1  0  0  0  0
 25 26  2  0  0  0  0
 26 27  1  0  0  0  0
 27 28  2  0  0  0  0
 28 29  1  0  0  0  0
 24 29  2  0  0  0  0
 27 30  1  0  0  0  0
  1 24  1  6  0  0  0
M  END
>  <cdx:fragmentId>
60630

$$$$
