524436.cdx
  Mrv1902 05222410252D          

 19 19  0  0  0  0            999 V2000
   11.1819   -9.8752    0.0000 C   0  0  0  0  0  0  0  0  0  0  0  0
   11.8964   -9.4627    0.0000 C   0  0  0  0  0  0  0  0  0  0  0  0
   12.6109   -9.8752    0.0000 C   0  0  0  0  0  0  0  0  0  0  0  0
   13.3253   -9.4627    0.0000 C   0  0  0  0  0  0  0  0  0  0  0  0
   14.0398   -9.8752    0.0000 C   0  0  0  0  0  0  0  0  0  0  0  0
   14.7543   -9.4627    0.0000 C   0  0  0  0  0  0  0  0  0  0  0  0
   15.4688   -9.8752    0.0000 C   0  0  0  0  0  0  0  0  0  0  0  0
   16.1832   -9.4627    0.0000 C   0  0  0  0  0  0  0  0  0  0  0  0
   16.8977   -9.8752    0.0000 C   0  0  0  0  0  0  0  0  0  0  0  0
   17.6122   -9.4627    0.0000 C   0  0  0  0  0  0  0  0  0  0  0  0
   18.3266   -9.8752    0.0000 C   0  0  0  0  0  0  0  0  0  0  0  0
   19.0411   -9.4627    0.0000 C   0  0  0  0  0  0  0  0  0  0  0  0
   19.7556   -9.8752    0.0000 C   0  0  0  0  0  0  0  0  0  0  0  0
   14.7543   -8.6377    0.0000 C   0  0  0  0  0  0  0  0  0  0  0  0
   14.0398   -8.2252    0.0000 C   0  0  0  0  0  0  0  0  0  0  0  0
   14.0398   -7.4002    0.0000 C   0  0  0  0  0  0  0  0  0  0  0  0
   14.7543   -6.9877    0.0000 C   0  0  0  0  0  0  0  0  0  0  0  0
   15.4688   -7.4002    0.0000 C   0  0  0  0  0  0  0  0  0  0  0  0
   15.4688   -8.2252    0.0000 C   0  0  0  0  0  0  0  0  0  0  0  0
  1  2  1  0  0  0  0
  2  3  1  0  0  0  0
  3  4  1  0  0  0  0
  4  5  1  0  0  0  0
  5  6  1  0  0  0  0
  6  7  1  0  0  0  0
  7  8  1  0  0  0  0
  8  9  1  0  0  0  0
  9 10  1  0  0  0  0
 10 11  1  0  0  0  0
 11 12  1  0  0  0  0
 12 13  1  0  0  0  0
 14 15  1  0  0  0  0
 15 16  1  0  0  0  0
 16 17  1  0  0  0  0
 17 18  1  0  0  0  0
 18 19  1  0  0  0  0
 14 19  1  0  0  0  0
  6 14  1  0  0  0  0
M  END
>  <cdx:groupId>
27958

>  <cdx:fragmentId>
27904

$$$$
