524431.cdx
  Mrv1902 05222410242D          

 32 35  0  0  0  0            999 V2000
    9.7229  -10.0809    0.0000 O   0  0  0  0  0  0  0  0  0  0  0  0
    9.1527  -11.7828    0.0000 O   0  0  0  0  0  0  0  0  0  0  0  0
    7.5715  -12.5634    0.0000 O   0  0  0  0  0  0  0  0  0  0  0  0
    7.3579  -11.7665    0.0000 C   0  0  0  0  0  0  0  0  0  0  0  0
    7.8489  -11.1035    0.0000 C   0  0  1  0  0  0  0  0  0  0  0  0
    8.6739  -11.1110    0.0000 C   0  0  1  0  0  0  0  0  0  0  0  0
    8.9359  -10.3287    0.0000 C   0  0  2  0  0  0  0  0  0  0  0  0
    8.2729   -9.8377    0.0000 C   0  0  1  0  0  0  0  0  0  0  0  0
    7.6011  -10.3166    0.0000 O   0  0  0  0  0  0  0  0  0  0  0  0
    8.2804   -9.0128    0.0000 O   0  0  0  0  0  0  0  0  0  0  0  0
    5.4152   -9.8117    0.0000 O   0  0  0  0  0  0  0  0  0  0  0  0
    4.0088   -7.3239    0.0000 O   0  0  0  0  0  0  0  0  0  0  0  0
   10.4350   -7.7948    0.0000 O   0  0  0  0  0  0  0  0  0  0  0  0
   10.4500   -6.1449    0.0000 O   0  0  0  0  0  0  0  0  0  0  0  0
    9.0286   -5.3069    0.0000 O   0  0  0  0  0  0  0  0  0  0  0  0
    8.3029   -6.5379    0.0000 C   0  0  0  0  0  0  0  0  0  0  0  0
    9.0211   -6.1319    0.0000 C   0  0  0  0  0  0  0  0  0  0  0  0
    9.7318   -6.5509    0.0000 C   0  0  0  0  0  0  0  0  0  0  0  0
    9.7243   -7.3758    0.0000 C   0  0  0  0  0  0  0  0  0  0  0  0
    9.0061   -7.7818    0.0000 C   0  0  0  0  0  0  0  0  0  0  0  0
    8.2954   -7.3628    0.0000 C   0  0  0  0  0  0  0  0  0  0  0  0
    6.8441   -9.8247    0.0000 O   0  0  0  0  0  0  0  0  0  0  0  0
    6.8666   -7.3498    0.0000 O   0  0  0  0  0  0  0  0  0  0  0  0
    6.1484   -7.7558    0.0000 C   0  0  0  0  0  0  0  0  0  0  0  0
    5.4377   -7.3369    0.0000 C   0  0  0  0  0  0  0  0  0  0  0  0
    4.7195   -7.7428    0.0000 C   0  0  0  0  0  0  0  0  0  0  0  0
    4.7120   -8.5678    0.0000 C   0  0  0  0  0  0  0  0  0  0  0  0
    5.4227   -8.9868    0.0000 C   0  0  0  0  0  0  0  0  0  0  0  0
    6.1409   -8.5808    0.0000 C   0  0  0  0  0  0  0  0  0  0  0  0
    6.8516   -8.9998    0.0000 C   0  0  0  0  0  0  0  0  0  0  0  0
    7.5698   -8.5938    0.0000 C   0  0  0  0  0  0  0  0  0  0  0  0
    7.5773   -7.7688    0.0000 C   0  0  0  0  0  0  0  0  0  0  0  0
 31 10  1  0  0  0  0
  8 10  1  1  0  0  0
  7  1  1  6  0  0  0
  6  2  1  1  0  0  0
  5  4  1  6  0  0  0
  4  3  1  0  0  0  0
  9  5  1  0  0  0  0
  6  5  1  0  0  0  0
  7  6  1  0  0  0  0
  8  7  1  0  0  0  0
  9  8  1  0  0  0  0
 28 11  1  0  0  0  0
 26 12  1  0  0  0  0
 32 21  1  0  0  0  0
 19 13  1  0  0  0  0
 18 14  1  0  0  0  0
 17 15  1  0  0  0  0
 21 16  2  0  0  0  0
 17 16  1  0  0  0  0
 18 17  2  0  0  0  0
 19 18  1  0  0  0  0
 20 19  2  0  0  0  0
 21 20  1  0  0  0  0
 30 22  2  0  0  0  0
 32 23  1  0  0  0  0
 24 23  1  0  0  0  0
 29 24  2  0  0  0  0
 25 24  1  0  0  0  0
 26 25  2  0  0  0  0
 27 26  1  0  0  0  0
 28 27  2  0  0  0  0
 29 28  1  0  0  0  0
 30 29  1  0  0  0  0
 31 30  1  0  0  0  0
 32 31  2  0  0  0  0
M  END
>  <cdx:fragmentId>
106009

$$$$
