525.cdx
  Mrv1902 05222410272D          

  9  8  0  0  0  0            999 V2000
    8.1007   -3.4177    0.0000 C   0  0  0  0  0  0  0  0  0  0  0  0
    7.3862   -3.8302    0.0000 C   0  0  0  0  0  0  0  0  0  0  0  0
    6.6718   -3.4177    0.0000 C   0  0  0  0  0  0  0  0  0  0  0  0
    5.9573   -3.8302    0.0000 C   0  0  0  0  0  0  0  0  0  0  0  0
    8.1007   -2.5927    0.0000 O   0  0  0  0  0  0  0  0  0  0  0  0
    8.8152   -3.8302    0.0000 O   0  0  0  0  0  0  0  0  0  0  0  0
    5.9573   -4.6552    0.0000 O   0  0  0  0  0  0  0  0  0  0  0  0
    5.2428   -3.4177    0.0000 O   0  0  0  0  0  0  0  0  0  0  0  0
    7.3862   -4.6552    0.0000 O   0  0  0  0  0  0  0  0  0  0  0  0
  1  2  1  0  0  0  0
  2  3  1  0  0  0  0
  3  4  1  0  0  0  0
  1  5  2  0  0  0  0
  1  6  1  0  0  0  0
  4  7  2  0  0  0  0
  4  8  1  0  0  0  0
  2  9  1  0  0  0  0
M  END
>  <cdx:fragmentId>
5

$$$$
