525329.cdx
  Mrv1902 05222410242D          

  8  7  0  0  0  0            999 V2000
    8.2355   -6.1803    0.0000 S   0  0  0  0  0  0  0  0  0  0  0  0
    7.5210   -6.5928    0.0000 S   0  0  0  0  0  0  0  0  0  0  0  0
    8.9499   -6.5928    0.0000 S   0  0  0  0  0  0  0  0  0  0  0  0
    6.8065   -6.1803    0.0000 S   0  0  0  0  0  0  0  0  0  0  0  0
    9.6644   -6.1803    0.0000 C   0  0  0  0  0  0  0  0  0  0  0  0
    6.0920   -6.5928    0.0000 C   0  0  0  0  0  0  0  0  0  0  0  0
    5.3776   -6.1803    0.0000 C   0  0  0  0  0  0  0  0  0  0  0  0
    4.6631   -6.5928    0.0000 C   0  0  0  0  0  0  0  0  0  0  0  0
  1  2  1  0  0  0  0
  1  3  1  0  0  0  0
  2  4  1  0  0  0  0
  3  5  1  0  0  0  0
  6  7  1  0  0  0  0
  7  8  2  0  0  0  0
  4  6  1  0  0  0  0
M  END
>  <cdx:groupId>
27987

>  <cdx:fragmentId>
27967

$$$$
