5256.cdx
  Mrv1902 05222410222D          

 20 22  0  0  0  0            999 V2000
    5.9845   -6.6000    0.0000 C   0  0  0  0  0  0  0  0  0  0  0  0
    5.9845   -7.4250    0.0000 C   0  0  0  0  0  0  0  0  0  0  0  0
    6.6990   -7.8375    0.0000 C   0  0  0  0  0  0  0  0  0  0  0  0
    7.4135   -7.4250    0.0000 C   0  0  2  0  0  0  0  0  0  0  0  0
    7.4135   -6.6000    0.0000 C   0  0  0  0  0  0  0  0  0  0  0  0
    6.6990   -6.1875    0.0000 C   0  0  0  0  0  0  0  0  0  0  0  0
    8.1279   -7.8375    0.0000 C   0  0  0  0  0  0  0  0  0  0  0  0
    8.8424   -7.4250    0.0000 C   0  0  0  0  0  0  0  0  0  0  0  0
    8.8424   -6.6000    0.0000 C   0  0  1  0  0  0  0  0  0  0  0  0
    8.1279   -6.1875    0.0000 C   0  0  0  0  0  0  0  0  0  0  0  0
    5.1999   -6.3451    0.0000 C   0  0  0  0  0  0  0  0  0  0  0  0
    4.7150   -7.0125    0.0000 C   0  0  0  0  0  0  0  0  0  0  0  0
    5.1999   -7.6799    0.0000 O   0  0  0  0  0  0  0  0  0  0  0  0
    4.9864   -5.5482    0.0000 C   0  0  0  0  0  0  0  0  0  0  0  0
    8.1279   -5.3625    0.0000 C   0  0  0  0  0  0  0  0  0  0  0  0
    9.5569   -6.1875    0.0000 O   0  0  0  0  0  0  0  0  0  0  0  0
   10.2714   -6.6000    0.0000 C   0  0  0  0  0  0  0  0  0  0  0  0
   10.9858   -6.1875    0.0000 O   0  0  0  0  0  0  0  0  0  0  0  0
   10.2714   -7.4250    0.0000 C   0  0  0  0  0  0  0  0  0  0  0  0
    7.4135   -8.2500    0.0000 C   0  0  0  0  0  0  0  0  0  0  0  0
  1  2  2  0  0  0  0
  2  3  1  0  0  0  0
  3  4  1  0  0  0  0
  4  5  1  0  0  0  0
  6  5  1  1  0  0  0
  6  1  1  0  0  0  0
  4  7  1  0  0  0  0
  7  8  1  0  0  0  0
  8  9  1  0  0  0  0
  9 10  1  0  0  0  0
 10  5  1  0  0  0  0
  1 11  1  0  0  0  0
 11 12  2  0  0  0  0
 12 13  1  0  0  0  0
 13  2  1  0  0  0  0
 11 14  1  0  0  0  0
 10 15  2  0  0  0  0
  9 16  1  1  0  0  0
 16 17  1  0  0  0  0
 17 18  2  0  0  0  0
 17 19  1  0  0  0  0
  4 20  1  1  0  0  0
M  END
>  <cdx:fragmentId>
5

$$$$
