526612.cdx
  Mrv1902 05222410222D          

 11 11  0  0  0  0            999 V2000
    7.0916   -7.1738    0.0000 C   0  0  1  0  0  0  0  0  0  0  0  0
    7.3475   -7.9581    0.0000 C   0  0  0  0  0  0  0  0  0  0  0  0
    8.1725   -7.9571    0.0000 C   0  0  0  0  0  0  0  0  0  0  0  0
    8.4265   -7.1722    0.0000 C   0  0  0  0  0  0  0  0  0  0  0  0
    7.7584   -6.6881    0.0000 C   0  0  0  0  0  0  0  0  0  0  0  0
    9.2108   -6.9163    0.0000 C   0  0  0  0  0  0  0  0  0  0  0  0
    6.3067   -6.9198    0.0000 C   0  0  0  0  0  0  0  0  0  0  0  0
    7.3459   -5.9736    0.0000 C   0  0  0  0  0  0  0  0  0  0  0  0
    8.1709   -5.9736    0.0000 C   0  0  0  0  0  0  0  0  0  0  0  0
    5.6942   -7.4726    0.0000 C   0  0  0  0  0  0  0  0  0  0  0  0
    4.9093   -7.2187    0.0000 O   0  0  0  0  0  0  0  0  0  0  0  0
  1  2  1  0  0  0  0
  2  3  1  0  0  0  0
  3  4  2  0  0  0  0
  4  5  1  0  0  0  0
  5  1  1  0  0  0  0
  4  6  1  0  0  0  0
  1  7  1  6  0  0  0
  5  8  1  0  0  0  0
  5  9  1  0  0  0  0
  7 10  1  0  0  0  0
 10 11  2  0  0  0  0
M  END
>  <cdx:fragmentId>
28170

$$$$
