11526742.cdx
  Mrv1902 05222410242D          

 39 42  0  0  0  0            999 V2000
    6.9193  -17.0787    0.0000 O   0  0  0  0  0  0  0  0  0  0  0  0
    6.1347  -16.8237    0.0000 C   0  0  2  0  0  0  0  0  0  0  0  0
    6.1347  -15.9987    0.0000 C   0  0  0  0  0  0  0  0  0  0  0  0
    6.9193  -15.7438    0.0000 C   0  0  0  0  0  0  0  0  0  0  0  0
    7.4043  -16.4112    0.0000 C   0  0  0  0  0  0  0  0  0  0  0  0
    5.4897  -15.4843    0.0000 C   0  0  0  0  0  0  0  0  0  0  0  0
    4.6854  -15.6679    0.0000 C   0  0  0  0  0  0  0  0  0  0  0  0
    4.0891  -15.0978    0.0000 C   0  0  0  0  0  0  0  0  0  0  0  0
    3.3626  -15.4887    0.0000 C   0  0  0  0  0  0  0  0  0  0  0  0
    3.5099  -16.3005    0.0000 C   0  0  0  0  0  0  0  0  0  0  0  0
    4.3274  -16.4112    0.0000 C   0  0  0  0  0  0  0  0  0  0  0  0
    4.6854  -17.1545    0.0000 C   0  0  0  0  0  0  0  0  0  0  0  0
    5.4897  -17.3381    0.0000 C   0  0  0  0  0  0  0  0  0  0  0  0
    8.2293  -16.4112    0.0000 O   0  0  0  0  0  0  0  0  0  0  0  0
    4.1710  -17.7995    0.0000 C   0  0  0  0  0  0  0  0  0  0  0  0
    7.1743  -14.9592    0.0000 C   0  0  0  0  0  0  0  0  0  0  0  0
    4.1998  -14.2803    0.0000 C   0  0  0  0  0  0  0  0  0  0  0  0
    4.9632  -13.9674    0.0000 O   0  0  0  0  0  0  0  0  0  0  0  0
    5.8373  -12.8370    0.0000 O   0  0  0  0  0  0  0  0  0  0  0  0
    5.0740  -13.1499    0.0000 C   0  0  2  0  0  0  0  0  0  0  0  0
    4.4213  -12.6452    0.0000 C   0  0  1  0  0  0  0  0  0  0  0  0
    4.5321  -11.8277    0.0000 C   0  0  2  0  0  0  0  0  0  0  0  0
    5.2954  -11.5148    0.0000 C   0  0  1  0  0  0  0  0  0  0  0  0
    5.9481  -12.0195    0.0000 C   0  0  1  0  0  0  0  0  0  0  0  0
    5.4062  -10.6973    0.0000 O   0  0  0  0  0  0  0  0  0  0  0  0
    3.8794  -11.3230    0.0000 O   0  0  0  0  0  0  0  0  0  0  0  0
    3.6579  -12.9580    0.0000 O   0  0  0  0  0  0  0  0  0  0  0  0
    6.7114  -11.7066    0.0000 C   0  0  0  0  0  0  0  0  0  0  0  0
    7.3641  -12.2113    0.0000 O   0  0  0  0  0  0  0  0  0  0  0  0
    8.3230  -11.0969    0.0000 O   0  0  0  0  0  0  0  0  0  0  0  0
    8.1275  -11.8984    0.0000 C   0  0  2  0  0  0  0  0  0  0  0  0
    8.8293  -12.3321    0.0000 C   0  0  1  0  0  0  0  0  0  0  0  0
    9.4586  -11.7987    0.0000 C   0  0  2  0  0  0  0  0  0  0  0  0
    9.1457  -11.0353    0.0000 C   0  0  0  0  0  0  0  0  0  0  0  0
   10.2505  -11.5673    0.0000 C   0  0  0  0  0  0  0  0  0  0  0  0
   10.8339  -12.1507    0.0000 O   0  0  0  0  0  0  0  0  0  0  0  0
   10.0549  -12.3688    0.0000 O   0  0  0  0  0  0  0  0  0  0  0  0
    8.8293  -13.1571    0.0000 O   0  0  0  0  0  0  0  0  0  0  0  0
    6.2820  -17.6355    0.0000 H   0  0  0  0  0  0  0  0  0  0  0  0
  1  2  1  0  0  0  0
  2  3  1  0  0  0  0
  3  4  2  0  0  0  0
  4  5  1  0  0  0  0
  1  5  1  0  0  0  0
  6  7  1  0  0  0  0
  7  8  2  0  0  0  0
  8  9  1  0  0  0  0
  9 10  1  0  0  0  0
 10 11  1  0  0  0  0
 11 12  2  0  0  0  0
 12 13  1  0  0  0  0
 13  2  1  0  0  0  0
  6  3  1  0  0  0  0
  5 14  2  0  0  0  0
 12 15  1  0  0  0  0
  4 16  1  0  0  0  0
 19 20  1  0  0  0  0
 20 21  1  0  0  0  0
 21 22  1  0  0  0  0
 22 23  1  0  0  0  0
 23 24  1  0  0  0  0
 19 24  1  0  0  0  0
 23 25  1  6  0  0  0
 22 26  1  1  0  0  0
 21 27  1  6  0  0  0
 30 31  1  0  0  0  0
 31 32  1  0  0  0  0
 32 33  1  0  0  0  0
 33 34  1  0  0  0  0
 30 34  1  0  0  0  0
 35 36  1  0  0  0  0
 33 35  1  6  0  0  0
 33 37  1  1  0  0  0
 32 38  1  1  0  0  0
 31 29  1  6  0  0  0
 28 29  1  0  0  0  0
 24 28  1  1  0  0  0
 20 18  1  1  0  0  0
 17 18  1  0  0  0  0
  8 17  1  0  0  0  0
  2 39  1  6  0  0  0
M  END
>  <cdx:groupId>
74038

>  <cdx:fragmentId>
73979

$$$$
