5268.cdx
  Mrv1902 05222410232D          

 34 37  0  0  0  0            999 V2000
    3.0145   -7.3012    0.0000 C   0  0  0  0  0  0  0  0  0  0  0  0
    3.0145   -8.1263    0.0000 C   0  0  1  0  0  0  0  0  0  0  0  0
    3.7290   -8.5388    0.0000 C   0  0  0  0  0  0  0  0  0  0  0  0
    4.4435   -8.1263    0.0000 C   0  0  0  0  0  0  0  0  0  0  0  0
    4.4435   -7.3012    0.0000 C   0  0  2  0  0  0  0  0  0  0  0  0
    3.7290   -6.8888    0.0000 C   0  0  0  0  0  0  0  0  0  0  0  0
    5.1579   -8.5388    0.0000 C   0  0  0  0  0  0  0  0  0  0  0  0
    5.8724   -8.1263    0.0000 C   0  0  0  0  0  0  0  0  0  0  0  0
    5.8724   -7.3012    0.0000 C   0  0  0  0  0  0  0  0  0  0  0  0
    5.1579   -6.8888    0.0000 C   0  0  0  0  0  0  0  0  0  0  0  0
    6.5869   -6.8888    0.0000 C   0  0  1  0  0  0  0  0  0  0  0  0
    6.5869   -6.0638    0.0000 C   0  0  2  0  0  0  0  0  0  0  0  0
    5.8724   -5.6512    0.0000 C   0  0  0  0  0  0  0  0  0  0  0  0
    5.1579   -6.0638    0.0000 C   0  0  0  0  0  0  0  0  0  0  0  0
    7.3715   -7.1437    0.0000 C   0  0  0  0  0  0  0  0  0  0  0  0
    7.8564   -6.4763    0.0000 C   0  0  0  0  0  0  0  0  0  0  0  0
    7.3715   -5.8088    0.0000 C   0  0  2  0  0  0  0  0  0  0  0  0
    2.3001   -8.5388    0.0000 O   0  0  0  0  0  0  0  0  0  0  0  0
    4.4435   -5.6512    0.0000 O   0  0  0  0  0  0  0  0  0  0  0  0
    3.3165   -9.2532    0.0000 C   0  0  0  0  0  0  0  0  0  0  0  0
    4.4435   -6.4763    0.0000 C   0  0  0  0  0  0  0  0  0  0  0  0
    6.5869   -5.2387    0.0000 C   0  0  0  0  0  0  0  0  0  0  0  0
    7.5850   -5.0119    0.0000 C   0  0  2  0  0  0  0  0  0  0  0  0
    4.1415   -9.2532    0.0000 C   0  0  0  0  0  0  0  0  0  0  0  0
    6.5869   -7.7138    0.0000 C   0  0  0  0  0  0  0  0  0  0  0  0
    7.0017   -4.4286    0.0000 C   0  0  0  0  0  0  0  0  0  0  0  0
    9.3923   -3.7880    0.0000 C   0  0  0  0  0  0  0  0  0  0  0  0
    8.5954   -4.0015    0.0000 C   0  0  0  0  0  0  0  0  0  0  0  0
    8.3819   -4.7984    0.0000 C   0  0  0  0  0  0  0  0  0  0  0  0
    6.5869   -8.5388    0.0000 O   0  0  0  0  0  0  0  0  0  0  0  0
    7.5850   -7.9406    0.0000 O   0  0  0  0  0  0  0  0  0  0  0  0
    9.6059   -2.9911    0.0000 O   0  0  0  0  0  0  0  0  0  0  0  0
    9.9757   -4.3713    0.0000 O   0  0  0  0  0  0  0  0  0  0  0  0
    8.1684   -5.5953    0.0000 H   0  0  0  0  0  0  0  0  0  0  0  0
  1  2  1  0  0  0  0
  2  3  1  0  0  0  0
  3  4  1  0  0  0  0
  4  5  1  0  0  0  0
  5  6  1  0  0  0  0
  6  1  1  0  0  0  0
  4  7  1  0  0  0  0
  7  8  1  0  0  0  0
  8  9  1  0  0  0  0
  9 10  2  0  0  0  0
 10  5  1  0  0  0  0
  9 11  1  0  0  0  0
 11 12  1  0  0  0  0
 12 13  1  0  0  0  0
 13 14  1  0  0  0  0
 14 10  1  0  0  0  0
 11 15  1  0  0  0  0
 15 16  1  0  0  0  0
 16 17  1  0  0  0  0
 17 12  1  0  0  0  0
  2 18  1  1  0  0  0
 14 19  2  0  0  0  0
  3 20  1  0  0  0  0
  5 21  1  1  0  0  0
 12 22  1  1  0  0  0
 17 23  1  0  0  0  0
  3 24  1  0  0  0  0
 11 25  1  6  0  0  0
 23 26  1  6  0  0  0
 28 27  1  0  0  0  0
 23 29  1  0  0  0  0
 29 28  1  0  0  0  0
  8 30  2  0  0  0  0
 15 31  2  0  0  0  0
 27 32  2  0  0  0  0
 27 33  1  0  0  0  0
 17 34  1  6  0  0  0
M  END
>  <cdx:fragmentId>
5

$$$$
