527.cdx
  Mrv1902 05222410282D          

  4  3  0  0  0  0            999 V2000
    3.7602   -3.5205    0.0000 C   0  0  0  0  0  0  0  0  0  0  0  0
    4.4747   -3.1080    0.0000 C   0  0  0  0  0  0  0  0  0  0  0  0
    5.1891   -3.5205    0.0000 C   0  0  0  0  0  0  0  0  0  0  0  0
    3.0457   -3.1080    0.0000 O   0  0  0  0  0  0  0  0  0  0  0  0
  1  2  1  0  0  0  0
  2  3  1  0  0  0  0
  1  4  2  0  0  0  0
M  END
>  <cdx:groupId>
13

>  <cdx:fragmentId>
5

$$$$
