5270.cdx
  Mrv1902 05222410232D          

 23 24  0  0  0  0            999 V2000
    4.6852   -8.7862    0.0000 C   0  0  0  0  0  0  0  0  0  0  0  0
    4.6852   -9.6112    0.0000 C   0  0  1  0  0  0  0  0  0  0  0  0
    5.3996  -10.0238    0.0000 C   0  0  0  0  0  0  0  0  0  0  0  0
    6.1141   -9.6112    0.0000 C   0  0  0  0  0  0  0  0  0  0  0  0
    6.1141   -8.7862    0.0000 C   0  0  2  0  0  0  0  0  0  0  0  0
    5.3996   -8.3737    0.0000 C   0  0  0  0  0  0  0  0  0  0  0  0
    6.8286  -10.0238    0.0000 C   0  0  0  0  0  0  0  0  0  0  0  0
    7.5430   -9.6112    0.0000 C   0  0  0  0  0  0  0  0  0  0  0  0
    7.5430   -8.7862    0.0000 C   0  0  0  0  0  0  0  0  0  0  0  0
    6.8286   -8.3737    0.0000 C   0  0  2  0  0  0  0  0  0  0  0  0
    4.9871  -10.7382    0.0000 C   0  0  0  0  0  0  0  0  0  0  0  0
    5.8121  -10.7382    0.0000 C   0  0  0  0  0  0  0  0  0  0  0  0
    8.2575   -8.3737    0.0000 C   0  0  0  0  0  0  0  0  0  0  0  0
    6.8286   -7.5488    0.0000 C   0  0  0  0  0  0  0  0  0  0  0  0
    7.5430   -7.1362    0.0000 C   0  0  0  0  0  0  0  0  0  0  0  0
    7.5430   -6.3113    0.0000 C   0  0  0  0  0  0  0  0  0  0  0  0
    6.8286   -5.8988    0.0000 C   0  0  0  0  0  0  0  0  0  0  0  0
    8.2575   -5.8988    0.0000 C   0  0  0  0  0  0  0  0  0  0  0  0
    8.2575   -5.0737    0.0000 C   0  0  0  0  0  0  0  0  0  0  0  0
    7.5430   -4.6612    0.0000 O   0  0  0  0  0  0  0  0  0  0  0  0
    8.9720   -4.6612    0.0000 O   0  0  0  0  0  0  0  0  0  0  0  0
    3.9707  -10.0238    0.0000 O   0  0  0  0  0  0  0  0  0  0  0  0
    6.1141   -7.9612    0.0000 C   0  0  0  0  0  0  0  0  0  0  0  0
  1  2  1  0  0  0  0
  2  3  1  0  0  0  0
  3  4  1  0  0  0  0
  4  5  1  0  0  0  0
  5  6  1  0  0  0  0
  6  1  1  0  0  0  0
  4  7  1  0  0  0  0
  7  8  1  0  0  0  0
  8  9  1  0  0  0  0
  9 10  1  0  0  0  0
 10  5  1  0  0  0  0
  3 11  1  0  0  0  0
  3 12  1  0  0  0  0
  9 13  2  0  0  0  0
 10 14  1  1  0  0  0
 14 15  1  0  0  0  0
 15 16  1  0  0  0  0
 16 17  1  0  0  0  0
 16 18  2  0  0  0  0
 18 19  1  0  0  0  0
 19 20  2  0  0  0  0
 19 21  1  0  0  0  0
  2 22  1  1  0  0  0
  5 23  1  1  0  0  0
M  END
>  <cdx:fragmentId>
5

$$$$
