527032.cdx
  Mrv1902 05222410182D          

 11 12  0  0  0  0            999 V2000
   15.4178   -7.7518    0.0000 C   0  0  0  0  0  0  0  0  0  0  0  0
   14.7033   -8.1643    0.0000 C   0  0  0  0  0  0  0  0  0  0  0  0
   14.7033   -8.9893    0.0000 C   0  0  0  0  0  0  0  0  0  0  0  0
   15.4178   -9.4018    0.0000 C   0  0  0  0  0  0  0  0  0  0  0  0
   16.1323   -8.9893    0.0000 C   0  0  0  0  0  0  0  0  0  0  0  0
   15.6004   -8.4712    0.0000 C   0  0  0  0  0  0  0  0  0  0  0  0
   16.1323   -8.1643    0.0000 C   0  0  0  0  0  0  0  0  0  0  0  0
   15.0645   -8.7806    0.0000 O   0  0  0  0  0  0  0  0  0  0  0  0
   16.5448   -7.4498    0.0000 C   0  0  0  0  0  0  0  0  0  0  0  0
   16.9573   -8.1643    0.0000 C   0  0  0  0  0  0  0  0  0  0  0  0
   13.9888   -7.7518    0.0000 C   0  0  0  0  0  0  0  0  0  0  0  0
  1  2  1  0  0  0  0
  2  3  2  0  0  0  0
  3  4  1  0  0  0  0
  4  5  1  0  0  0  0
  5  6  1  0  0  0  0
  1  6  1  0  0  0  0
  1  7  1  0  0  0  0
  7  5  1  0  0  0  0
  6  8  1  0  0  0  0
  7  9  1  0  0  0  0
  7 10  1  0  0  0  0
  2 11  1  0  0  0  0
M  END
>  <cdx:groupId>
28241

>  <cdx:fragmentId>
28210

$$$$
