527304.cdx
  Mrv1902 05222410232D          

 17 18  0  0  0  0            999 V2000
    5.3423   -5.1392    0.0000 C   0  0  2  0  0  0  0  0  0  0  0  0
    4.6334   -5.5610    0.0000 C   0  0  0  0  0  0  0  0  0  0  0  0
    4.6442   -6.3860    0.0000 C   0  0  0  0  0  0  0  0  0  0  0  0
    5.3640   -6.7890    0.0000 C   0  0  0  0  0  0  0  0  0  0  0  0
    6.0730   -6.3672    0.0000 C   0  0  2  0  0  0  0  0  0  0  0  0
    6.7929   -6.7702    0.0000 C   0  0  0  0  0  0  0  0  0  0  0  0
    7.5018   -6.3484    0.0000 C   0  0  0  0  0  0  0  0  0  0  0  0
    7.4910   -5.5235    0.0000 C   0  0  0  0  0  0  0  0  0  0  0  0
    6.7712   -5.1204    0.0000 C   0  0  0  0  0  0  0  0  0  0  0  0
    6.0622   -5.5423    0.0000 C   0  0  1  0  0  0  0  0  0  0  0  0
    5.3315   -4.3143    0.0000 O   0  0  0  0  0  0  0  0  0  0  0  0
    8.2325   -7.5764    0.0000 C   0  0  0  0  0  0  0  0  0  0  0  0
    8.2217   -6.7515    0.0000 C   0  0  0  0  0  0  0  0  0  0  0  0
    8.9307   -6.3296    0.0000 C   0  0  0  0  0  0  0  0  0  0  0  0
    5.3749   -7.6140    0.0000 C   0  0  0  0  0  0  0  0  0  0  0  0
    6.0513   -4.7173    0.0000 C   0  0  0  0  0  0  0  0  0  0  0  0
    6.0839   -7.1921    0.0000 H   0  0  0  0  0  0  0  0  0  0  0  0
  1  2  1  0  0  0  0
  2  3  1  0  0  0  0
  3  4  1  0  0  0  0
  4  5  1  0  0  0  0
  5  6  1  0  0  0  0
  6  7  1  0  0  0  0
  7  8  2  0  0  0  0
  8  9  1  0  0  0  0
  9 10  1  0  0  0  0
  1 10  1  0  0  0  0
  5 10  1  0  0  0  0
  1 11  1  1  0  0  0
 12 13  1  0  0  0  0
 13 14  1  0  0  0  0
  7 13  1  1  0  0  0
  4 15  2  0  0  0  0
 10 16  1  1  0  0  0
  5 17  1  6  0  0  0
M  END
>  <cdx:fragmentId>
28431

$$$$
