527347.cdx
  Mrv1902 05222410182D          

 32 35  0  0  0  0            999 V2000
   11.4937   -9.3042    0.0000 O   0  0  0  0  0  0  0  0  0  0  0  0
   12.2011   -8.0627    0.0000 C   0  0  0  0  0  0  0  0  0  0  0  0
   11.4843   -7.6542    0.0000 O   0  0  0  0  0  0  0  0  0  0  0  0
    9.3480   -8.9039    0.0000 C   0  0  0  0  0  0  0  0  0  0  0  0
   10.0648   -9.3124    0.0000 C   0  0  0  0  0  0  0  0  0  0  0  0
   10.7769   -8.8958    0.0000 C   0  0  0  0  0  0  0  0  0  0  0  0
   10.7722   -8.0708    0.0000 C   0  0  0  0  0  0  0  0  0  0  0  0
   10.0554   -7.6624    0.0000 C   0  0  0  0  0  0  0  0  0  0  0  0
    9.3433   -8.0789    0.0000 C   0  0  0  0  0  0  0  0  0  0  0  0
    5.0568   -8.1033    0.0000 O   0  0  0  0  0  0  0  0  0  0  0  0
    3.6328   -8.9367    0.0000 O   0  0  0  0  0  0  0  0  0  0  0  0
    2.1990   -8.1201    0.0000 O   0  0  0  0  0  0  0  0  0  0  0  0
    1.4773   -6.8868    0.0000 O   0  0  0  0  0  0  0  0  0  0  0  0
    2.1893   -6.4701    0.0000 C   0  0  0  0  0  0  0  0  0  0  0  0
    2.9062   -6.8784    0.0000 C   0  0  2  0  0  0  0  0  0  0  0  0
    2.9110   -7.7034    0.0000 C   0  0  2  0  0  0  0  0  0  0  0  0
    3.6279   -8.1117    0.0000 C   0  0  1  0  0  0  0  0  0  0  0  0
    4.3400   -7.6950    0.0000 C   0  0  2  0  0  0  0  0  0  0  0  0
    4.3351   -6.8701    0.0000 C   0  0  1  0  0  0  0  0  0  0  0  0
    3.6182   -6.4618    0.0000 O   0  0  0  0  0  0  0  0  0  0  0  0
    5.0472   -6.4534    0.0000 O   0  0  0  0  0  0  0  0  0  0  0  0
    7.9191   -8.9121    0.0000 O   0  0  0  0  0  0  0  0  0  0  0  0
    7.9050   -6.4371    0.0000 O   0  0  0  0  0  0  0  0  0  0  0  0
    7.1929   -6.8537    0.0000 C   0  0  0  0  0  0  0  0  0  0  0  0
    6.4761   -6.4452    0.0000 C   0  0  0  0  0  0  0  0  0  0  0  0
    5.7640   -6.8618    0.0000 C   0  0  0  0  0  0  0  0  0  0  0  0
    5.7687   -7.6868    0.0000 C   0  0  0  0  0  0  0  0  0  0  0  0
    6.4855   -8.0952    0.0000 C   0  0  0  0  0  0  0  0  0  0  0  0
    7.1976   -7.6787    0.0000 C   0  0  0  0  0  0  0  0  0  0  0  0
    7.9144   -8.0871    0.0000 C   0  0  0  0  0  0  0  0  0  0  0  0
    8.6265   -7.6705    0.0000 C   0  0  0  0  0  0  0  0  0  0  0  0
    8.6218   -6.8455    0.0000 C   0  0  0  0  0  0  0  0  0  0  0  0
 31  9  1  0  0  0  0
  6  1  1  0  0  0  0
  7  3  1  0  0  0  0
  3  2  1  0  0  0  0
  9  4  2  0  0  0  0
  5  4  1  0  0  0  0
  6  5  2  0  0  0  0
  7  6  1  0  0  0  0
  8  7  2  0  0  0  0
  9  8  1  0  0  0  0
 26 21  1  0  0  0  0
 19 21  1  1  0  0  0
 18 10  1  6  0  0  0
 17 11  1  1  0  0  0
 16 12  1  6  0  0  0
 15 14  1  1  0  0  0
 14 13  1  0  0  0  0
 20 15  1  0  0  0  0
 16 15  1  0  0  0  0
 17 16  1  0  0  0  0
 18 17  1  0  0  0  0
 19 18  1  0  0  0  0
 20 19  1  0  0  0  0
 30 22  2  0  0  0  0
 32 23  1  0  0  0  0
 24 23  1  0  0  0  0
 29 24  2  0  0  0  0
 25 24  1  0  0  0  0
 26 25  2  0  0  0  0
 27 26  1  0  0  0  0
 28 27  2  0  0  0  0
 29 28  1  0  0  0  0
 30 29  1  0  0  0  0
 31 30  1  0  0  0  0
 32 31  2  0  0  0  0
M  END
>  <cdx:fragmentId>
53001

$$$$
