11052747.cdx
  Mrv1902 05222410262D          

 17 18  0  0  0  0            999 V2000
    8.3118  -12.5456    0.0000 C   0  0  2  0  0  0  0  0  0  0  0  0
    9.0262  -12.1331    0.0000 C   0  0  0  0  0  0  0  0  0  0  0  0
    9.0262  -11.3081    0.0000 C   0  0  0  0  0  0  0  0  0  0  0  0
    8.3118  -10.8956    0.0000 C   0  0  2  0  0  0  0  0  0  0  0  0
    7.5973  -11.3081    0.0000 C   0  0  2  0  0  0  0  0  0  0  0  0
    6.8828  -10.8956    0.0000 C   0  0  0  0  0  0  0  0  0  0  0  0
    6.1684  -11.3081    0.0000 C   0  0  0  0  0  0  0  0  0  0  0  0
    6.1684  -12.1331    0.0000 C   0  0  0  0  0  0  0  0  0  0  0  0
    6.8828  -12.5456    0.0000 C   0  0  0  0  0  0  0  0  0  0  0  0
    7.5973  -12.1331    0.0000 C   0  0  2  0  0  0  0  0  0  0  0  0
    7.5973  -13.7831    0.0000 C   0  0  0  0  0  0  0  0  0  0  0  0
    8.3118  -13.3706    0.0000 C   0  0  0  0  0  0  0  0  0  0  0  0
    9.0262  -13.7831    0.0000 C   0  0  0  0  0  0  0  0  0  0  0  0
    5.4539  -12.5456    0.0000 C   0  0  0  0  0  0  0  0  0  0  0  0
    8.3118  -10.0706    0.0000 C   0  0  0  0  0  0  0  0  0  0  0  0
    7.5973  -10.4831    0.0000 H   0  0  0  0  0  0  0  0  0  0  0  0
    7.5973  -12.9581    0.0000 H   0  0  0  0  0  0  0  0  0  0  0  0
  1  2  1  0  0  0  0
  2  3  1  0  0  0  0
  3  4  1  0  0  0  0
  4  5  1  0  0  0  0
  5  6  1  0  0  0  0
  6  7  1  0  0  0  0
  7  8  1  0  0  0  0
  8  9  2  0  0  0  0
  9 10  1  0  0  0  0
  1 10  1  0  0  0  0
  5 10  1  0  0  0  0
 11 12  2  0  0  0  0
 12 13  1  0  0  0  0
  1 12  1  1  0  0  0
  8 14  1  0  0  0  0
  4 15  1  6  0  0  0
  5 16  1  6  0  0  0
 10 17  1  6  0  0  0
M  END
>  <cdx:groupId>
65739

>  <cdx:fragmentId>
65690

$$$$
