5274.cdx
  Mrv1902 05222410252D          

 19 20  0  0  0  0            999 V2000
    4.5160   -5.9878    0.0000 C   0  0  0  0  0  0  0  0  0  0  0  0
    4.5114   -6.8128    0.0000 C   0  0  1  0  0  0  0  0  0  0  0  0
    5.2235   -7.2293    0.0000 C   0  0  1  0  0  0  0  0  0  0  0  0
    5.9403   -6.8208    0.0000 C   0  0  1  0  0  0  0  0  0  0  0  0
    5.9449   -5.9958    0.0000 C   0  0  2  0  0  0  0  0  0  0  0  0
    5.2327   -5.5793    0.0000 C   0  0  0  0  0  0  0  0  0  0  0  0
    6.6524   -7.2373    0.0000 C   0  0  0  0  0  0  0  0  0  0  0  0
    7.3692   -6.8288    0.0000 C   0  0  1  0  0  0  0  0  0  0  0  0
    7.3738   -6.0038    0.0000 C   0  0  0  0  0  0  0  0  0  0  0  0
    6.6617   -5.5873    0.0000 C   0  0  0  0  0  0  0  0  0  0  0  0
    3.7946   -7.2213    0.0000 O   0  0  0  0  0  0  0  0  0  0  0  0
    5.6320   -7.9460    0.0000 C   0  0  0  0  0  0  0  0  0  0  0  0
    5.9495   -5.1708    0.0000 C   0  0  0  0  0  0  0  0  0  0  0  0
    8.0814   -7.2452    0.0000 C   0  0  0  0  0  0  0  0  0  0  0  0
    4.8070   -7.9414    0.0000 O   0  0  0  0  0  0  0  0  0  0  0  0
    5.9357   -7.6458    0.0000 H   0  0  0  0  0  0  0  0  0  0  0  0
    8.7981   -6.8367    0.0000 C   0  0  0  0  0  0  0  0  0  0  0  0
    8.0767   -8.0702    0.0000 C   0  0  0  0  0  0  0  0  0  0  0  0
    8.7889   -8.4867    0.0000 O   0  0  0  0  0  0  0  0  0  0  0  0
  1  2  1  0  0  0  0
  2  3  1  0  0  0  0
  3  4  1  0  0  0  0
  4  5  1  0  0  0  0
  5  6  1  0  0  0  0
  6  1  1  0  0  0  0
  4  7  1  0  0  0  0
  7  8  1  0  0  0  0
  8  9  1  0  0  0  0
  9 10  1  0  0  0  0
 10  5  1  0  0  0  0
  2 11  1  1  0  0  0
  3 12  1  1  0  0  0
  5 13  1  1  0  0  0
  8 14  1  1  0  0  0
  3 15  1  6  0  0  0
  4 16  1  6  0  0  0
 14 17  2  0  0  0  0
 14 18  1  0  0  0  0
 18 19  1  0  0  0  0
M  END
>  <cdx:fragmentId>
5

$$$$
