527426.cdx
  Mrv1902 05222410192D          

 10 11  0  0  0  0            999 V2000
    7.2348   -5.7278    0.0000 C   0  0  0  0  0  0  0  0  0  0  0  0
    8.0194   -5.4729    0.0000 C   0  0  0  0  0  0  0  0  0  0  0  0
    8.5043   -6.1403    0.0000 C   0  0  0  0  0  0  0  0  0  0  0  0
    8.0194   -6.8078    0.0000 C   0  0  0  0  0  0  0  0  0  0  0  0
    7.2348   -6.5528    0.0000 C   0  0  0  0  0  0  0  0  0  0  0  0
    6.5203   -6.1403    0.0000 C   0  0  0  0  0  0  0  0  0  0  0  0
    8.2743   -4.6883    0.0000 O   0  0  0  0  0  0  0  0  0  0  0  0
    7.3841   -7.9740    0.0000 C   0  0  0  0  0  0  0  0  0  0  0  0
    6.8992   -7.3065    0.0000 C   0  0  0  0  0  0  0  0  0  0  0  0
    6.0787   -7.3928    0.0000 C   0  0  0  0  0  0  0  0  0  0  0  0
  1  2  1  0  0  0  0
  2  3  1  0  0  0  0
  3  4  2  0  0  0  0
  4  5  1  0  0  0  0
  5  6  1  0  0  0  0
  1  6  1  0  0  0  0
  1  5  1  0  0  0  0
  2  7  2  0  0  0  0
  8  9  1  0  0  0  0
  9 10  1  0  0  0  0
  5  9  1  0  0  0  0
M  END
>  <cdx:fragmentId>
28632

$$$$
