529455.cdx
  Mrv1902 05222410222D          

 16 17  0  0  0  0            999 V2000
   16.9990   -9.3044    0.0000 C   0  0  0  0  0  0  0  0  0  0  0  0
   17.4839   -8.6369    0.0000 C   0  0  0  0  0  0  0  0  0  0  0  0
   16.9990   -7.9695    0.0000 C   0  0  0  0  0  0  0  0  0  0  0  0
   16.2144   -8.2244    0.0000 C   0  0  0  0  0  0  0  0  0  0  0  0
   15.5694   -7.7101    0.0000 C   0  0  0  0  0  0  0  0  0  0  0  0
   14.7651   -7.8936    0.0000 C   0  0  0  0  0  0  0  0  0  0  0  0
   14.4071   -8.6369    0.0000 C   0  0  0  0  0  0  0  0  0  0  0  0
   14.7651   -9.3802    0.0000 C   0  0  0  0  0  0  0  0  0  0  0  0
   15.5694   -9.5638    0.0000 C   0  0  0  0  0  0  0  0  0  0  0  0
   16.2144   -9.0494    0.0000 C   0  0  0  0  0  0  0  0  0  0  0  0
   15.7530   -6.9057    0.0000 O   0  0  0  0  0  0  0  0  0  0  0  0
   14.5521   -6.4807    0.0000 C   0  0  0  0  0  0  0  0  0  0  0  0
   14.2507   -7.2486    0.0000 C   0  0  0  0  0  0  0  0  0  0  0  0
   13.4349   -7.3716    0.0000 C   0  0  0  0  0  0  0  0  0  0  0  0
   15.7530  -10.3681    0.0000 C   0  0  0  0  0  0  0  0  0  0  0  0
   17.2539   -7.1849    0.0000 C   0  0  0  0  0  0  0  0  0  0  0  0
  1  2  1  0  0  0  0
  2  3  1  0  0  0  0
  3  4  2  0  0  0  0
  4  5  1  0  0  0  0
  5  6  1  0  0  0  0
  6  7  1  0  0  0  0
  7  8  1  0  0  0  0
  8  9  1  0  0  0  0
  9 10  1  0  0  0  0
  1 10  1  0  0  0  0
  4 10  1  0  0  0  0
  5 11  2  0  0  0  0
 12 13  1  0  0  0  0
 13 14  1  0  0  0  0
  6 13  1  0  0  0  0
  9 15  2  0  0  0  0
  3 16  1  0  0  0  0
M  END
>  <cdx:groupId>
28850

>  <cdx:fragmentId>
28804

$$$$
