5295.cdx
  Mrv1902 05222410222D          

 11 11  0  0  0  0            999 V2000
    6.3352   -5.2869    0.0000 C   0  0  0  0  0  0  0  0  0  0  0  0
    6.3352   -6.1119    0.0000 C   0  0  0  0  0  0  0  0  0  0  0  0
    7.0496   -6.5244    0.0000 C   0  0  0  0  0  0  0  0  0  0  0  0
    7.7641   -6.1119    0.0000 C   0  0  0  0  0  0  0  0  0  0  0  0
    7.7641   -5.2869    0.0000 C   0  0  0  0  0  0  0  0  0  0  0  0
    7.0496   -4.8744    0.0000 C   0  0  0  0  0  0  0  0  0  0  0  0
    7.0496   -7.3494    0.0000 C   0  0  0  0  0  0  0  0  0  0  0  0
    6.3352   -7.7619    0.0000 C   0  0  0  0  0  0  0  0  0  0  0  0
    7.7641   -7.7619    0.0000 C   0  0  0  0  0  0  0  0  0  0  0  0
    7.0496   -4.0494    0.0000 C   0  0  0  0  0  0  0  0  0  0  0  0
    7.7641   -3.6369    0.0000 O   0  0  0  0  0  0  0  0  0  0  0  0
  1  2  1  0  0  0  0
  2  3  1  0  0  0  0
  3  4  2  0  0  0  0
  4  5  1  0  0  0  0
  5  6  1  0  0  0  0
  6  1  2  0  0  0  0
  3  7  1  0  0  0  0
  7  8  1  0  0  0  0
  7  9  1  0  0  0  0
  6 10  1  0  0  0  0
 10 11  1  0  0  0  0
M  END
>  <cdx:fragmentId>
5

$$$$
