529805.cdx
  Mrv1902 05222410202D          

 22 21  0  0  0  0            999 V2000
    7.9385   -8.5125    0.0000 O   0  0  0  0  0  0  0  0  0  0  0  0
   21.5135   -9.7500    0.0000 C   0  0  0  0  0  0  0  0  0  0  0  0
   20.7990   -9.3375    0.0000 C   0  0  0  0  0  0  0  0  0  0  0  0
   20.0845   -9.7500    0.0000 C   0  0  0  0  0  0  0  0  0  0  0  0
   19.3701   -9.3375    0.0000 C   0  0  0  0  0  0  0  0  0  0  0  0
   18.6556   -9.7500    0.0000 C   0  0  0  0  0  0  0  0  0  0  0  0
   17.9411   -9.3375    0.0000 C   0  0  0  0  0  0  0  0  0  0  0  0
   17.2266   -9.7500    0.0000 C   0  0  0  0  0  0  0  0  0  0  0  0
   16.5122   -9.3375    0.0000 C   0  0  0  0  0  0  0  0  0  0  0  0
   15.7977   -9.7500    0.0000 C   0  0  0  0  0  0  0  0  0  0  0  0
   15.0832   -9.3375    0.0000 C   0  0  0  0  0  0  0  0  0  0  0  0
   14.3688   -9.7500    0.0000 C   0  0  0  0  0  0  0  0  0  0  0  0
   13.6543   -9.3375    0.0000 C   0  0  0  0  0  0  0  0  0  0  0  0
   12.9398   -9.7500    0.0000 C   0  0  0  0  0  0  0  0  0  0  0  0
   12.2253   -9.3375    0.0000 C   0  0  0  0  0  0  0  0  0  0  0  0
   11.5109   -9.7500    0.0000 C   0  0  0  0  0  0  0  0  0  0  0  0
   10.7964   -9.3375    0.0000 C   0  0  0  0  0  0  0  0  0  0  0  0
   10.0819   -9.7500    0.0000 C   0  0  0  0  0  0  0  0  0  0  0  0
    9.3675   -9.3375    0.0000 C   0  0  0  0  0  0  0  0  0  0  0  0
    8.6530   -9.7500    0.0000 C   0  0  0  0  0  0  0  0  0  0  0  0
    7.9385   -9.3375    0.0000 C   0  0  0  0  0  0  0  0  0  0  0  0
    7.2240   -9.7500    0.0000 C   0  0  0  0  0  0  0  0  0  0  0  0
 21  1  2  0  0  0  0
  3  2  1  0  0  0  0
  4  3  1  0  0  0  0
  5  4  1  0  0  0  0
  6  5  1  0  0  0  0
  7  6  1  0  0  0  0
  8  7  1  0  0  0  0
  9  8  1  0  0  0  0
 10  9  1  0  0  0  0
 11 10  1  0  0  0  0
 12 11  1  0  0  0  0
 13 12  1  0  0  0  0
 14 13  1  0  0  0  0
 15 14  1  0  0  0  0
 16 15  1  0  0  0  0
 17 16  1  0  0  0  0
 18 17  1  0  0  0  0
 19 18  1  0  0  0  0
 20 19  1  0  0  0  0
 21 20  1  0  0  0  0
 22 21  1  0  0  0  0
M  END
>  <cdx:fragmentId>
28859

$$$$
