529893.cdx
  Mrv1902 05222410252D          

 15 15  0  0  0  0            999 V2000
   10.1693   -7.9530    0.0000 O   0  0  0  0  0  0  0  0  0  0  0  0
    9.4549   -8.3655    0.0000 C   0  0  0  0  0  0  0  0  0  0  0  0
    8.7404   -7.9530    0.0000 C   0  0  0  0  0  0  0  0  0  0  0  0
    8.0259   -8.3655    0.0000 C   0  0  0  0  0  0  0  0  0  0  0  0
    5.8825   -5.4780    0.0000 C   0  0  0  0  0  0  0  0  0  0  0  0
    6.5970   -5.8905    0.0000 O   0  0  0  0  0  0  0  0  0  0  0  0
    4.4536   -7.9530    0.0000 C   0  0  0  0  0  0  0  0  0  0  0  0
    5.1681   -8.3655    0.0000 O   0  0  0  0  0  0  0  0  0  0  0  0
    5.1681   -6.7155    0.0000 O   0  0  0  0  0  0  0  0  0  0  0  0
    5.8825   -7.9530    0.0000 C   0  0  0  0  0  0  0  0  0  0  0  0
    6.5970   -8.3655    0.0000 C   0  0  0  0  0  0  0  0  0  0  0  0
    7.3115   -7.9530    0.0000 C   0  0  0  0  0  0  0  0  0  0  0  0
    7.3115   -7.1280    0.0000 C   0  0  0  0  0  0  0  0  0  0  0  0
    6.5970   -6.7155    0.0000 C   0  0  0  0  0  0  0  0  0  0  0  0
    5.8825   -7.1280    0.0000 C   0  0  0  0  0  0  0  0  0  0  0  0
 12  4  1  0  0  0  0
  2  1  1  0  0  0  0
  3  2  1  0  0  0  0
  4  3  1  0  0  0  0
 14  6  1  0  0  0  0
  6  5  1  0  0  0  0
 10  8  1  0  0  0  0
  8  7  1  0  0  0  0
 15  9  1  0  0  0  0
 15 10  2  0  0  0  0
 11 10  1  0  0  0  0
 12 11  2  0  0  0  0
 13 12  1  0  0  0  0
 14 13  2  0  0  0  0
 15 14  1  0  0  0  0
M  END
>  <cdx:fragmentId>
28972

$$$$
