529848.cdx
  Mrv1902 05222410212D          

 12 11  0  0  0  0            999 V2000
   10.6264   -5.8714    0.0000 C   0  0  0  0  0  0  0  0  0  0  0  0
    9.9119   -6.2839    0.0000 C   0  0  0  0  0  0  0  0  0  0  0  0
    9.1974   -5.8714    0.0000 C   0  0  0  0  0  0  0  0  0  0  0  0
    8.4830   -6.2839    0.0000 C   0  0  0  0  0  0  0  0  0  0  0  0
    7.7685   -5.8714    0.0000 C   0  0  0  0  0  0  0  0  0  0  0  0
    7.0540   -6.2839    0.0000 C   0  0  0  0  0  0  0  0  0  0  0  0
    6.3395   -5.8714    0.0000 C   0  0  0  0  0  0  0  0  0  0  0  0
    5.6251   -6.2839    0.0000 C   0  0  0  0  0  0  0  0  0  0  0  0
    4.9106   -5.8714    0.0000 C   0  0  0  0  0  0  0  0  0  0  0  0
    4.1961   -6.2839    0.0000 C   0  0  0  0  0  0  0  0  0  0  0  0
    7.7685   -5.0464    0.0000 C   0  0  0  0  0  0  0  0  0  0  0  0
    8.4830   -4.6339    0.0000 C   0  0  0  0  0  0  0  0  0  0  0  0
  1  2  1  0  0  0  0
  2  3  1  0  0  0  0
  3  4  1  0  0  0  0
  4  5  1  0  0  0  0
  5  6  1  0  0  0  0
  6  7  1  0  0  0  0
  7  8  1  0  0  0  0
  8  9  1  0  0  0  0
  9 10  1  0  0  0  0
 11 12  1  0  0  0  0
  5 11  1  0  0  0  0
M  END
>  <cdx:fragmentId>
28932

$$$$
