5301.cdx
  Mrv1902 05222410252D          

 14 14  0  0  0  0            999 V2000
    4.7677   -6.6000    0.0000 C   0  0  0  0  0  0  0  0  0  0  0  0
    4.7677   -7.4250    0.0000 C   0  0  0  0  0  0  0  0  0  0  0  0
    5.4821   -7.8375    0.0000 C   0  0  0  0  0  0  0  0  0  0  0  0
    6.1966   -7.4250    0.0000 C   0  0  0  0  0  0  0  0  0  0  0  0
    6.1966   -6.6000    0.0000 C   0  0  0  0  0  0  0  0  0  0  0  0
    5.4821   -6.1875    0.0000 C   0  0  0  0  0  0  0  0  0  0  0  0
    5.8946   -5.4730    0.0000 C   0  0  0  0  0  0  0  0  0  0  0  0
    5.0696   -5.4730    0.0000 C   0  0  0  0  0  0  0  0  0  0  0  0
    6.9111   -7.8375    0.0000 C   0  0  0  0  0  0  0  0  0  0  0  0
    6.9111   -6.1875    0.0000 C   0  0  0  0  0  0  0  0  0  0  0  0
    7.6255   -6.6000    0.0000 C   0  0  0  0  0  0  0  0  0  0  0  0
    8.3400   -6.1875    0.0000 C   0  0  0  0  0  0  0  0  0  0  0  0
    8.3400   -5.3625    0.0000 C   0  0  0  0  0  0  0  0  0  0  0  0
    9.0545   -6.6000    0.0000 O   0  0  0  0  0  0  0  0  0  0  0  0
  1  2  1  0  0  0  0
  2  3  2  0  0  0  0
  3  4  1  0  0  0  0
  4  5  2  0  0  0  0
  5  6  1  0  0  0  0
  6  1  1  0  0  0  0
  6  7  1  0  0  0  0
  6  8  1  0  0  0  0
  4  9  1  0  0  0  0
  5 10  1  0  0  0  0
 10 11  2  0  0  0  0
 11 12  1  0  0  0  0
 12 13  1  0  0  0  0
 12 14  1  0  0  0  0
M  END
>  <cdx:fragmentId>
5

$$$$
