530340.cdx
  Mrv1902 05222410272D          

 23 22  0  0  0  0            999 V2000
   12.9224   -8.3574    0.0000 C   0  0  0  0  0  0  0  0  0  0  0  0
   12.2079   -8.7699    0.0000 C   0  0  0  0  0  0  0  0  0  0  0  0
   11.4934   -8.3574    0.0000 C   0  0  0  0  0  0  0  0  0  0  0  0
   10.7789   -8.7699    0.0000 C   0  0  0  0  0  0  0  0  0  0  0  0
   10.0645   -8.3574    0.0000 C   0  0  0  0  0  0  0  0  0  0  0  0
    9.3500   -8.7699    0.0000 C   0  0  0  0  0  0  0  0  0  0  0  0
    8.6355   -8.3574    0.0000 C   0  0  0  0  0  0  0  0  0  0  0  0
    7.9211   -8.7699    0.0000 C   0  0  0  0  0  0  0  0  0  0  0  0
    7.2066   -8.3574    0.0000 C   0  0  0  0  0  0  0  0  0  0  0  0
    6.4921   -8.7699    0.0000 C   0  0  0  0  0  0  0  0  0  0  0  0
    5.7776   -8.3574    0.0000 C   0  0  0  0  0  0  0  0  0  0  0  0
    5.0632   -8.7699    0.0000 C   0  0  0  0  0  0  0  0  0  0  0  0
    4.3487   -8.3574    0.0000 C   0  0  0  0  0  0  0  0  0  0  0  0
    3.6342   -8.7699    0.0000 C   0  0  0  0  0  0  0  0  0  0  0  0
    2.9198   -8.3574    0.0000 C   0  0  0  0  0  0  0  0  0  0  0  0
    2.2053   -8.7699    0.0000 C   0  0  0  0  0  0  0  0  0  0  0  0
    1.4908   -8.3574    0.0000 C   0  0  0  0  0  0  0  0  0  0  0  0
    0.7763   -8.7699    0.0000 C   0  0  0  0  0  0  0  0  0  0  0  0
    0.7763   -9.5949    0.0000 C   0  0  0  0  0  0  0  0  0  0  0  0
   12.9224   -7.5324    0.0000 O   0  0  0  0  0  0  0  0  0  0  0  0
   13.6368   -8.7699    0.0000 O   0  0  0  0  0  0  0  0  0  0  0  0
    0.0619   -8.3574    0.0000 C   0  0  0  0  0  0  0  0  0  0  0  0
   14.3513   -8.3574    0.0000 C   0  0  0  0  0  0  0  0  0  0  0  0
  1  2  1  0  0  0  0
  2  3  1  0  0  0  0
  3  4  1  0  0  0  0
  4  5  1  0  0  0  0
  5  6  1  0  0  0  0
  6  7  1  0  0  0  0
  7  8  1  0  0  0  0
  8  9  1  0  0  0  0
  9 10  1  0  0  0  0
 10 11  1  0  0  0  0
 11 12  1  0  0  0  0
 12 13  1  0  0  0  0
 13 14  1  0  0  0  0
 14 15  1  0  0  0  0
 15 16  1  0  0  0  0
 16 17  1  0  0  0  0
 17 18  1  0  0  0  0
 18 19  1  0  0  0  0
  1 20  2  0  0  0  0
  1 21  1  0  0  0  0
 18 22  1  0  0  0  0
 21 23  1  0  0  0  0
M  END
>  <cdx:groupId>
29178

>  <cdx:fragmentId>
29113

$$$$
