530421.cdx
  Mrv1902 05222410282D          

 15 17  0  0  0  0            999 V2000
   15.1072   -8.6476    0.0000 C   0  0  0  0  0  0  0  0  0  0  0  0
   14.3928   -8.2351    0.0000 C   0  0  0  0  0  0  0  0  0  0  0  0
   14.3928   -7.4101    0.0000 C   0  0  0  0  0  0  0  0  0  0  0  0
   15.1072   -6.9976    0.0000 C   0  0  0  0  0  0  0  0  0  0  0  0
   15.8217   -7.4101    0.0000 C   0  0  0  0  0  0  0  0  0  0  0  0
   16.5362   -6.9976    0.0000 C   0  0  0  0  0  0  0  0  0  0  0  0
   17.2506   -7.4101    0.0000 C   0  0  0  0  0  0  0  0  0  0  0  0
   17.2506   -8.2351    0.0000 C   0  0  0  0  0  0  0  0  0  0  0  0
   16.5362   -8.6476    0.0000 C   0  0  0  0  0  0  0  0  0  0  0  0
   15.8217   -8.2351    0.0000 C   0  0  0  0  0  0  0  0  0  0  0  0
   14.3928   -9.0601    0.0000 C   0  0  0  0  0  0  0  0  0  0  0  0
   15.8217   -9.0601    0.0000 C   0  0  0  0  0  0  0  0  0  0  0  0
   16.5362   -9.4726    0.0000 C   0  0  0  0  0  0  0  0  0  0  0  0
   14.3928   -9.8851    0.0000 C   0  0  0  0  0  0  0  0  0  0  0  0
   13.6783   -9.4726    0.0000 C   0  0  0  0  0  0  0  0  0  0  0  0
  1  2  1  0  0  0  0
  2  3  1  0  0  0  0
  3  4  1  0  0  0  0
  4  5  2  0  0  0  0
  5  6  1  0  0  0  0
  6  7  1  0  0  0  0
  7  8  1  0  0  0  0
  8  9  1  0  0  0  0
  9 10  1  0  0  0  0
  1 10  1  0  0  0  0
  5 10  1  0  0  0  0
 11  1  1  0  0  0  0
 11  2  1  0  0  0  0
 10 12  1  0  0  0  0
  9 13  1  0  0  0  0
 11 14  1  0  0  0  0
 11 15  1  0  0  0  0
M  END
>  <cdx:groupId>
29233

>  <cdx:fragmentId>
29189

$$$$
