530426.cdx
  Mrv1902 05222410272D          

 15 17  0  0  0  0            999 V2000
   16.5212   -9.3939    0.0000 C   0  0  0  0  0  0  0  0  0  0  0  0
   17.0061   -8.7264    0.0000 C   0  0  0  0  0  0  0  0  0  0  0  0
   16.5212   -8.0590    0.0000 C   0  0  0  0  0  0  0  0  0  0  0  0
   15.7365   -8.3139    0.0000 C   0  0  0  0  0  0  0  0  0  0  0  0
   15.0915   -7.7996    0.0000 C   0  0  0  0  0  0  0  0  0  0  0  0
   14.2872   -7.9831    0.0000 C   0  0  0  0  0  0  0  0  0  0  0  0
   13.9293   -8.7264    0.0000 C   0  0  0  0  0  0  0  0  0  0  0  0
   14.2872   -9.4697    0.0000 C   0  0  0  0  0  0  0  0  0  0  0  0
   15.0915   -9.6533    0.0000 C   0  0  0  0  0  0  0  0  0  0  0  0
   15.7365   -9.1389    0.0000 C   0  0  0  0  0  0  0  0  0  0  0  0
   14.5304   -7.1948    0.0000 C   0  0  0  0  0  0  0  0  0  0  0  0
   16.7761   -7.2744    0.0000 C   0  0  0  0  0  0  0  0  0  0  0  0
   15.2751  -10.4576    0.0000 C   0  0  0  0  0  0  0  0  0  0  0  0
   13.9692   -6.5900    0.0000 C   0  0  0  0  0  0  0  0  0  0  0  0
   14.7736   -6.4065    0.0000 C   0  0  0  0  0  0  0  0  0  0  0  0
  1  2  1  0  0  0  0
  2  3  1  0  0  0  0
  3  4  1  0  0  0  0
  4  5  1  0  0  0  0
  5  6  1  0  0  0  0
  6  7  1  0  0  0  0
  7  8  1  0  0  0  0
  8  9  1  0  0  0  0
  9 10  1  0  0  0  0
  1 10  1  0  0  0  0
  4 10  2  0  0  0  0
 11  5  1  0  0  0  0
 11  6  1  0  0  0  0
  3 12  1  0  0  0  0
  9 13  1  0  0  0  0
 11 14  1  0  0  0  0
 11 15  1  0  0  0  0
M  END
>  <cdx:groupId>
29321

>  <cdx:fragmentId>
29277

$$$$
