5304.cdx
  Mrv1902 05222410232D          

 36 36  0  0  0  0            999 V2000
    3.8282  -15.3817    0.0000 C   0  0  0  0  0  0  0  0  0  0  0  0
    3.8171  -14.7218    0.0000 C   0  0  0  0  0  0  0  0  0  0  0  0
    3.2401  -14.4014    0.0000 C   0  0  0  0  0  0  0  0  0  0  0  0
    3.2290  -13.7415    0.0000 C   0  0  0  0  0  0  0  0  0  0  0  0
    3.7950  -13.4019    0.0000 C   0  0  0  0  0  0  0  0  0  0  0  0
    4.3720  -13.7223    0.0000 C   0  0  0  0  0  0  0  0  0  0  0  0
    4.3831  -14.3822    0.0000 C   0  0  0  0  0  0  0  0  0  0  0  0
    4.4052  -15.7020    0.0000 O   0  0  0  0  0  0  0  0  0  0  0  0
    3.2622  -15.7212    0.0000 O   0  0  0  0  0  0  0  0  0  0  0  0
    3.7839  -12.7420    0.0000 C   0  0  0  0  0  0  0  0  0  0  0  0
    4.3499  -12.4025    0.0000 C   0  0  0  0  0  0  0  0  0  0  0  0
    4.3388  -11.7426    0.0000 C   0  0  0  0  0  0  0  0  0  0  0  0
    3.7618  -11.4222    0.0000 O   0  0  0  0  0  0  0  0  0  0  0  0
    4.9048  -11.4031    0.0000 O   0  0  0  0  0  0  0  0  0  0  0  0
    4.8937  -10.7432    0.0000 C   0  0  0  0  0  0  0  0  0  0  0  0
    5.4597  -10.4036    0.0000 C   0  0  0  0  0  0  0  0  0  0  0  0
    5.4486   -9.7437    0.0000 C   0  0  0  0  0  0  0  0  0  0  0  0
    6.0146   -9.4042    0.0000 C   0  0  0  0  0  0  0  0  0  0  0  0
    6.0036   -8.7443    0.0000 C   0  0  0  0  0  0  0  0  0  0  0  0
    6.5695   -8.4047    0.0000 C   0  0  0  0  0  0  0  0  0  0  0  0
    6.5585   -7.7448    0.0000 C   0  0  0  0  0  0  0  0  0  0  0  0
    7.1244   -7.4053    0.0000 C   0  0  0  0  0  0  0  0  0  0  0  0
    7.1134   -6.7454    0.0000 C   0  0  0  0  0  0  0  0  0  0  0  0
    7.6793   -6.4059    0.0000 C   0  0  0  0  0  0  0  0  0  0  0  0
    7.6683   -5.7460    0.0000 C   0  0  0  0  0  0  0  0  0  0  0  0
    8.2342   -5.4064    0.0000 C   0  0  0  0  0  0  0  0  0  0  0  0
    8.2232   -4.7465    0.0000 C   0  0  0  0  0  0  0  0  0  0  0  0
    8.7891   -4.4070    0.0000 C   0  0  0  0  0  0  0  0  0  0  0  0
    8.7781   -3.7471    0.0000 C   0  0  0  0  0  0  0  0  0  0  0  0
    9.3441   -3.4076    0.0000 C   0  0  0  0  0  0  0  0  0  0  0  0
    9.3330   -2.7476    0.0000 C   0  0  0  0  0  0  0  0  0  0  0  0
    9.8990   -2.4081    0.0000 C   0  0  0  0  0  0  0  0  0  0  0  0
    9.8879   -1.7482    0.0000 C   0  0  0  0  0  0  0  0  0  0  0  0
   10.4539   -1.4087    0.0000 C   0  0  0  0  0  0  0  0  0  0  0  0
   10.4428   -0.7488    0.0000 C   0  0  0  0  0  0  0  0  0  0  0  0
   11.0088   -0.4092    0.0000 C   0  0  0  0  0  0  0  0  0  0  0  0
  1  2  1  0  0  0  0
  2  3  1  0  0  0  0
  3  4  2  0  0  0  0
  4  5  1  0  0  0  0
  5  6  2  0  0  0  0
  6  7  1  0  0  0  0
  2  7  2  0  0  0  0
  1  8  2  0  0  0  0
  1  9  1  0  0  0  0
 10 11  2  0  0  0  0
 11 12  1  0  0  0  0
 12 13  2  0  0  0  0
 15 16  1  0  0  0  0
 16 17  1  0  0  0  0
 17 18  1  0  0  0  0
 18 19  1  0  0  0  0
 19 20  1  0  0  0  0
 20 21  1  0  0  0  0
 21 22  1  0  0  0  0
 22 23  1  0  0  0  0
 23 24  1  0  0  0  0
 24 25  1  0  0  0  0
 25 26  1  0  0  0  0
 26 27  1  0  0  0  0
 27 28  1  0  0  0  0
 28 29  1  0  0  0  0
 29 30  1  0  0  0  0
 30 31  1  0  0  0  0
 31 32  1  0  0  0  0
 32 33  1  0  0  0  0
 33 34  1  0  0  0  0
 34 35  1  0  0  0  0
 35 36  1  0  0  0  0
 14 15  1  0  0  0  0
 12 14  1  0  0  0  0
  5 10  1  0  0  0  0
M  END
>  <cdx:fragmentId>
158

$$$$
