530428.cdx
  Mrv1902 05222410202D          

 16 18  0  0  0  0            999 V2000
   14.7185   -9.5949    0.0000 C   0  0  0  0  0  0  0  0  0  0  0  0
   15.4330   -9.1824    0.0000 C   0  0  0  0  0  0  0  0  0  0  0  0
   16.0780   -9.6968    0.0000 C   0  0  0  0  0  0  0  0  0  0  0  0
   16.8823   -9.5132    0.0000 C   0  0  0  0  0  0  0  0  0  0  0  0
   17.2403   -8.7699    0.0000 C   0  0  0  0  0  0  0  0  0  0  0  0
   16.8823   -8.0266    0.0000 C   0  0  0  0  0  0  0  0  0  0  0  0
   16.0780   -7.8430    0.0000 C   0  0  0  0  0  0  0  0  0  0  0  0
   15.4330   -8.3574    0.0000 C   0  0  0  0  0  0  0  0  0  0  0  0
   14.7185   -7.9449    0.0000 C   0  0  0  0  0  0  0  0  0  0  0  0
   14.0040   -8.3574    0.0000 C   0  0  0  0  0  0  0  0  0  0  0  0
   14.0040   -9.1824    0.0000 C   0  0  0  0  0  0  0  0  0  0  0  0
   14.7185   -7.1199    0.0000 O   0  0  0  0  0  0  0  0  0  0  0  0
   13.2896   -9.5949    0.0000 C   0  0  0  0  0  0  0  0  0  0  0  0
   17.0053   -7.2108    0.0000 C   0  0  0  0  0  0  0  0  0  0  0  0
   17.6503   -7.7252    0.0000 C   0  0  0  0  0  0  0  0  0  0  0  0
   15.4330  -10.0074    0.0000 C   0  0  0  0  0  0  0  0  0  0  0  0
  1  2  1  0  0  0  0
  2  3  1  0  0  0  0
  3  4  1  0  0  0  0
  4  5  1  0  0  0  0
  5  6  1  0  0  0  0
  6  7  1  0  0  0  0
  7  8  1  0  0  0  0
  8  9  1  0  0  0  0
  9 10  1  0  0  0  0
 10 11  2  0  0  0  0
  1 11  1  0  0  0  0
  1  7  1  0  0  0  0
  2  8  1  0  0  0  0
  9 12  2  0  0  0  0
 11 13  1  0  0  0  0
  6 14  1  0  0  0  0
  6 15  1  0  0  0  0
  2 16  1  0  0  0  0
M  END
>  <cdx:groupId>
29378

>  <cdx:fragmentId>
29331

$$$$
