5305.cdx
  Mrv1902 05222410242D          

 34 34  0  0  0  0            999 V2000
    4.2850  -14.7851    0.0000 C   0  0  0  0  0  0  0  0  0  0  0  0
    4.3173  -14.1259    0.0000 C   0  0  0  0  0  0  0  0  0  0  0  0
    3.7626  -13.7683    0.0000 C   0  0  0  0  0  0  0  0  0  0  0  0
    3.7949  -13.1091    0.0000 C   0  0  0  0  0  0  0  0  0  0  0  0
    4.3819  -12.8074    0.0000 C   0  0  0  0  0  0  0  0  0  0  0  0
    4.9367  -13.1650    0.0000 C   0  0  0  0  0  0  0  0  0  0  0  0
    4.9044  -13.8242    0.0000 C   0  0  0  0  0  0  0  0  0  0  0  0
    4.8398  -15.1426    0.0000 O   0  0  0  0  0  0  0  0  0  0  0  0
    3.6980  -15.0867    0.0000 O   0  0  0  0  0  0  0  0  0  0  0  0
    4.4143  -12.1482    0.0000 C   0  0  0  0  0  0  0  0  0  0  0  0
    5.0013  -11.8466    0.0000 C   0  0  0  0  0  0  0  0  0  0  0  0
    5.0336  -11.1874    0.0000 C   0  0  0  0  0  0  0  0  0  0  0  0
    4.4789  -10.8298    0.0000 O   0  0  0  0  0  0  0  0  0  0  0  0
    5.6207  -10.8858    0.0000 O   0  0  0  0  0  0  0  0  0  0  0  0
    5.6530  -10.2266    0.0000 C   0  0  0  0  0  0  0  0  0  0  0  0
    6.2400   -9.9249    0.0000 C   0  0  0  0  0  0  0  0  0  0  0  0
    6.2723   -9.2657    0.0000 C   0  0  0  0  0  0  0  0  0  0  0  0
    6.8594   -8.9641    0.0000 C   0  0  0  0  0  0  0  0  0  0  0  0
    6.8917   -8.3049    0.0000 C   0  0  0  0  0  0  0  0  0  0  0  0
    7.4787   -8.0033    0.0000 C   0  0  0  0  0  0  0  0  0  0  0  0
    7.5110   -7.3441    0.0000 C   0  0  0  0  0  0  0  0  0  0  0  0
    8.0981   -7.0424    0.0000 C   0  0  0  0  0  0  0  0  0  0  0  0
    8.1304   -6.3832    0.0000 C   0  0  0  0  0  0  0  0  0  0  0  0
    8.7174   -6.0816    0.0000 C   0  0  0  0  0  0  0  0  0  0  0  0
    8.7497   -5.4224    0.0000 C   0  0  0  0  0  0  0  0  0  0  0  0
    9.3368   -5.1208    0.0000 C   0  0  0  0  0  0  0  0  0  0  0  0
    9.3691   -4.4616    0.0000 C   0  0  0  0  0  0  0  0  0  0  0  0
    9.9561   -4.1599    0.0000 C   0  0  0  0  0  0  0  0  0  0  0  0
    9.9885   -3.5007    0.0000 C   0  0  0  0  0  0  0  0  0  0  0  0
   10.5755   -3.1991    0.0000 C   0  0  0  0  0  0  0  0  0  0  0  0
   10.6078   -2.5399    0.0000 C   0  0  0  0  0  0  0  0  0  0  0  0
   11.1949   -2.2383    0.0000 C   0  0  0  0  0  0  0  0  0  0  0  0
   11.2272   -1.5791    0.0000 C   0  0  0  0  0  0  0  0  0  0  0  0
   11.8142   -1.2774    0.0000 C   0  0  0  0  0  0  0  0  0  0  0  0
  1  2  1  0  0  0  0
  2  3  1  0  0  0  0
  3  4  2  0  0  0  0
  4  5  1  0  0  0  0
  5  6  2  0  0  0  0
  6  7  1  0  0  0  0
  2  7  2  0  0  0  0
  1  8  2  0  0  0  0
  1  9  1  0  0  0  0
 10 11  2  0  0  0  0
 11 12  1  0  0  0  0
 12 13  2  0  0  0  0
 15 16  1  0  0  0  0
 16 17  1  0  0  0  0
 17 18  1  0  0  0  0
 18 19  1  0  0  0  0
 19 20  1  0  0  0  0
 20 21  1  0  0  0  0
 21 22  1  0  0  0  0
 22 23  1  0  0  0  0
 23 24  1  0  0  0  0
 24 25  1  0  0  0  0
 25 26  1  0  0  0  0
 26 27  1  0  0  0  0
 27 28  1  0  0  0  0
 28 29  1  0  0  0  0
 29 30  1  0  0  0  0
 30 31  1  0  0  0  0
 31 32  1  0  0  0  0
 32 33  1  0  0  0  0
 33 34  1  0  0  0  0
 14 15  1  0  0  0  0
 12 14  1  0  0  0  0
  5 10  1  0  0  0  0
M  END
>  <cdx:fragmentId>
154

$$$$
