530816.cdx
  Mrv1902 05222410272D          

 18 20  0  0  0  0            999 V2000
    7.2939   -7.4103    0.0000 C   0  0  1  0  0  0  0  0  0  0  0  0
    8.1189   -7.4103    0.0000 C   0  0  2  0  0  0  0  0  0  0  0  0
    8.9035   -7.6652    0.0000 C   0  0  0  0  0  0  0  0  0  0  0  0
    9.3885   -6.9978    0.0000 C   0  0  0  0  0  0  0  0  0  0  0  0
    8.9035   -6.3304    0.0000 C   0  0  0  0  0  0  0  0  0  0  0  0
    8.1189   -6.5853    0.0000 C   0  0  2  0  0  0  0  0  0  0  0  0
    7.2939   -6.5853    0.0000 C   0  0  1  0  0  0  0  0  0  0  0  0
    6.5093   -6.3304    0.0000 C   0  0  1  0  0  0  0  0  0  0  0  0
    6.0244   -6.9978    0.0000 C   0  0  0  0  0  0  0  0  0  0  0  0
    6.5093   -7.6652    0.0000 C   0  0  0  0  0  0  0  0  0  0  0  0
    6.8064   -4.9326    0.0000 C   0  0  0  0  0  0  0  0  0  0  0  0
    6.2544   -5.5457    0.0000 C   0  0  0  0  0  0  0  0  0  0  0  0
    5.4474   -5.3742    0.0000 C   0  0  0  0  0  0  0  0  0  0  0  0
    9.1585   -5.5457    0.0000 C   0  0  0  0  0  0  0  0  0  0  0  0
    7.2939   -8.2353    0.0000 C   0  0  0  0  0  0  0  0  0  0  0  0
    8.1189   -8.2353    0.0000 H   0  0  0  0  0  0  0  0  0  0  0  0
    8.1189   -5.7603    0.0000 H   0  0  0  0  0  0  0  0  0  0  0  0
    7.2939   -5.7603    0.0000 H   0  0  0  0  0  0  0  0  0  0  0  0
  1  2  1  0  0  0  0
  2  3  1  0  0  0  0
  3  4  1  0  0  0  0
  4  5  2  0  0  0  0
  5  6  1  0  0  0  0
  6  7  1  0  0  0  0
  7  8  1  0  0  0  0
  8  9  1  0  0  0  0
  9 10  1  0  0  0  0
  1 10  1  0  0  0  0
  1  7  1  0  0  0  0
  2  6  1  0  0  0  0
 11 12  1  0  0  0  0
 12 13  1  0  0  0  0
  8 12  1  1  0  0  0
  5 14  1  0  0  0  0
  1 15  1  1  0  0  0
  2 16  1  6  0  0  0
  6 17  1  6  0  0  0
  7 18  1  1  0  0  0
M  END
>  <cdx:fragmentId>
5

$$$$
