531154.cdx
  Mrv1902 05222410212D          

 41 43  0  0  0  0            999 V2000
    6.0893  -12.0362    0.0000 C   0  0  2  0  0  0  0  0  0  0  0  0
    5.3748  -12.4487    0.0000 C   0  0  1  0  0  0  0  0  0  0  0  0
    4.6604  -12.0362    0.0000 C   0  0  2  0  0  0  0  0  0  0  0  0
    4.6604  -11.2112    0.0000 C   0  0  1  0  0  0  0  0  0  0  0  0
    5.3748  -10.7987    0.0000 C   0  0  0  0  0  0  0  0  0  0  0  0
    6.0893  -11.2112    0.0000 C   0  0  0  0  0  0  0  0  0  0  0  0
    6.8038  -12.4487    0.0000 C   0  0  0  0  0  0  0  0  0  0  0  0
    6.8038  -13.2737    0.0000 O   0  0  0  0  0  0  0  0  0  0  0  0
    7.5182  -12.0362    0.0000 O   0  0  0  0  0  0  0  0  0  0  0  0
    5.3748  -13.2737    0.0000 C   0  0  0  0  0  0  0  0  0  0  0  0
    6.0893  -13.6862    0.0000 O   0  0  0  0  0  0  0  0  0  0  0  0
    4.6604  -13.6862    0.0000 O   0  0  0  0  0  0  0  0  0  0  0  0
    3.9459  -10.7987    0.0000 C   0  0  0  0  0  0  0  0  0  0  0  0
    3.9459   -9.9737    0.0000 O   0  0  0  0  0  0  0  0  0  0  0  0
    3.2314  -11.2112    0.0000 O   0  0  0  0  0  0  0  0  0  0  0  0
    3.9459  -12.4487    0.0000 C   0  0  0  0  0  0  0  0  0  0  0  0
    3.2314  -12.0362    0.0000 C   0  0  0  0  0  0  0  0  0  0  0  0
    2.5169  -12.4487    0.0000 C   0  0  0  0  0  0  0  0  0  0  0  0
    2.5169  -13.2737    0.0000 C   0  0  0  0  0  0  0  0  0  0  0  0
    3.2314  -13.6862    0.0000 C   0  0  0  0  0  0  0  0  0  0  0  0
    3.9459  -13.2737    0.0000 C   0  0  0  0  0  0  0  0  0  0  0  0
    1.8025  -13.6862    0.0000 O   0  0  0  0  0  0  0  0  0  0  0  0
    1.8025  -12.0362    0.0000 O   0  0  0  0  0  0  0  0  0  0  0  0
    6.8038  -10.7987    0.0000 C   0  0  0  0  0  0  0  0  0  0  0  0
    7.5182  -11.2112    0.0000 C   0  0  0  0  0  0  0  0  0  0  0  0
    8.2327  -10.7987    0.0000 C   0  0  0  0  0  0  0  0  0  0  0  0
    8.2327   -9.9737    0.0000 O   0  0  0  0  0  0  0  0  0  0  0  0
    8.9472  -11.2112    0.0000 O   0  0  0  0  0  0  0  0  0  0  0  0
    9.6616  -10.7987    0.0000 C   0  0  2  0  0  0  0  0  0  0  0  0
    9.6616   -9.9737    0.0000 C   0  0  0  0  0  0  0  0  0  0  0  0
   10.3761   -9.5612    0.0000 C   0  0  0  0  0  0  0  0  0  0  0  0
   11.0906   -9.9737    0.0000 C   0  0  0  0  0  0  0  0  0  0  0  0
   11.8051   -9.5612    0.0000 C   0  0  0  0  0  0  0  0  0  0  0  0
   11.8051   -8.7362    0.0000 C   0  0  0  0  0  0  0  0  0  0  0  0
   11.0906   -8.3237    0.0000 C   0  0  0  0  0  0  0  0  0  0  0  0
   10.3761   -8.7362    0.0000 C   0  0  0  0  0  0  0  0  0  0  0  0
   12.5195   -8.3237    0.0000 O   0  0  0  0  0  0  0  0  0  0  0  0
   12.5195   -9.9737    0.0000 O   0  0  0  0  0  0  0  0  0  0  0  0
   10.3761  -11.2112    0.0000 C   0  0  0  0  0  0  0  0  0  0  0  0
   10.3761  -12.0362    0.0000 O   0  0  0  0  0  0  0  0  0  0  0  0
   11.0906  -10.7987    0.0000 O   0  0  0  0  0  0  0  0  0  0  0  0
  1  2  1  0  0  0  0
  2  3  1  0  0  0  0
  3  4  1  0  0  0  0
  4  5  1  0  0  0  0
  5  6  2  0  0  0  0
  1  6  1  0  0  0  0
  7  8  2  0  0  0  0
  7  9  1  0  0  0  0
  1  7  1  6  0  0  0
 10 11  2  0  0  0  0
 10 12  1  0  0  0  0
  2 10  1  6  0  0  0
 13 14  2  0  0  0  0
 13 15  1  0  0  0  0
  4 13  1  6  0  0  0
 16 17  1  0  0  0  0
 17 18  2  0  0  0  0
 18 19  1  0  0  0  0
 19 20  2  0  0  0  0
 20 21  1  0  0  0  0
 16 21  2  0  0  0  0
 19 22  1  0  0  0  0
 18 23  1  0  0  0  0
  3 16  1  1  0  0  0
 24 25  2  0  0  0  0
 25 26  1  0  0  0  0
 26 27  2  0  0  0  0
 29 30  1  6  0  0  0
 28 29  1  0  0  0  0
 31 32  1  0  0  0  0
 32 33  2  0  0  0  0
 33 34  1  0  0  0  0
 34 35  2  0  0  0  0
 35 36  1  0  0  0  0
 31 36  2  0  0  0  0
 34 37  1  0  0  0  0
 33 38  1  0  0  0  0
 30 31  1  0  0  0  0
 39 40  2  0  0  0  0
 39 41  1  0  0  0  0
 29 39  1  0  0  0  0
 26 28  1  0  0  0  0
  6 24  1  0  0  0  0
M  END
>  <cdx:groupId>
53206

>  <cdx:fragmentId>
53084

$$$$
