531118.cdx
  Mrv1902 05222410202D          

 22 21  0  0  0  0            999 V2000
    4.1283   -5.8503    0.0000 C   0  0  0  0  0  0  0  0  0  0  0  0
    3.4139   -6.2628    0.0000 C   0  0  0  0  0  0  0  0  0  0  0  0
    2.6994   -5.8503    0.0000 C   0  0  0  0  0  0  0  0  0  0  0  0
    1.9849   -6.2628    0.0000 C   0  0  0  0  0  0  0  0  0  0  0  0
    1.2705   -5.8503    0.0000 C   0  0  0  0  0  0  0  0  0  0  0  0
    4.1283   -5.0253    0.0000 O   0  0  0  0  0  0  0  0  0  0  0  0
    4.8428   -6.2628    0.0000 O   0  0  0  0  0  0  0  0  0  0  0  0
    0.5560   -6.2628    0.0000 Cl  0  0  0  0  0  0  0  0  0  0  0  0
    5.5573   -5.0253    0.0000 C   0  0  0  0  0  0  0  0  0  0  0  0
    5.5573   -5.8503    0.0000 C   0  0  0  0  0  0  0  0  0  0  0  0
    6.2718   -6.2628    0.0000 C   0  0  0  0  0  0  0  0  0  0  0  0
    6.9862   -5.8503    0.0000 C   0  0  0  0  0  0  0  0  0  0  0  0
    7.7007   -6.2628    0.0000 C   0  0  0  0  0  0  0  0  0  0  0  0
    8.4152   -5.8503    0.0000 C   0  0  0  0  0  0  0  0  0  0  0  0
    9.1296   -6.2628    0.0000 C   0  0  0  0  0  0  0  0  0  0  0  0
    9.8441   -5.8503    0.0000 C   0  0  0  0  0  0  0  0  0  0  0  0
   10.5586   -6.2628    0.0000 C   0  0  0  0  0  0  0  0  0  0  0  0
   11.2731   -5.8503    0.0000 C   0  0  0  0  0  0  0  0  0  0  0  0
   11.9875   -6.2628    0.0000 C   0  0  0  0  0  0  0  0  0  0  0  0
   12.7020   -5.8503    0.0000 C   0  0  0  0  0  0  0  0  0  0  0  0
   13.4165   -6.2628    0.0000 C   0  0  0  0  0  0  0  0  0  0  0  0
   14.1309   -5.8503    0.0000 C   0  0  0  0  0  0  0  0  0  0  0  0
  1  2  1  0  0  0  0
  2  3  1  0  0  0  0
  3  4  1  0  0  0  0
  4  5  1  0  0  0  0
  1  6  2  0  0  0  0
  1  7  1  0  0  0  0
  5  8  1  0  0  0  0
  9 10  1  0  0  0  0
 10 11  1  0  0  0  0
 11 12  1  0  0  0  0
 12 13  1  0  0  0  0
 13 14  1  0  0  0  0
 14 15  1  0  0  0  0
 15 16  1  0  0  0  0
 16 17  1  0  0  0  0
 17 18  1  0  0  0  0
 18 19  1  0  0  0  0
 19 20  1  0  0  0  0
 20 21  1  0  0  0  0
 21 22  1  0  0  0  0
  7 10  1  0  0  0  0
M  END
>  <cdx:fragmentId>
29589

$$$$
