5312.cdx
  Mrv1902 05222410242D          

 17 17  0  0  0  0            999 V2000
    5.2420   -8.0850    0.0000 C   0  0  0  0  0  0  0  0  0  0  0  0
    5.2420   -8.9100    0.0000 C   0  0  0  0  0  0  0  0  0  0  0  0
    5.9565   -9.3225    0.0000 C   0  0  0  0  0  0  0  0  0  0  0  0
    6.6710   -8.9100    0.0000 C   0  0  0  0  0  0  0  0  0  0  0  0
    6.6710   -8.0850    0.0000 C   0  0  0  0  0  0  0  0  0  0  0  0
    5.9565   -7.6725    0.0000 C   0  0  0  0  0  0  0  0  0  0  0  0
    4.5276   -7.6725    0.0000 O   0  0  0  0  0  0  0  0  0  0  0  0
    4.5276   -9.3225    0.0000 O   0  0  0  0  0  0  0  0  0  0  0  0
    5.9565  -10.1475    0.0000 O   0  0  0  0  0  0  0  0  0  0  0  0
    7.3854   -7.6725    0.0000 C   0  0  0  0  0  0  0  0  0  0  0  0
    3.8131   -8.0850    0.0000 C   0  0  0  0  0  0  0  0  0  0  0  0
    3.8131   -8.9100    0.0000 C   0  0  0  0  0  0  0  0  0  0  0  0
    5.2420  -10.5600    0.0000 C   0  0  0  0  0  0  0  0  0  0  0  0
    8.0999   -8.0850    0.0000 C   0  0  0  0  0  0  0  0  0  0  0  0
    9.5289   -8.0850    0.0000 C   0  0  0  0  0  0  0  0  0  0  0  0
    8.8144   -7.6725    0.0000 C   0  0  0  0  0  0  0  0  0  0  0  0
    8.8144   -6.8475    0.0000 O   0  0  0  0  0  0  0  0  0  0  0  0
  1  2  2  0  0  0  0
  2  3  1  0  0  0  0
  3  4  2  0  0  0  0
  4  5  1  0  0  0  0
  5  6  2  0  0  0  0
  6  1  1  0  0  0  0
  1  7  1  0  0  0  0
  2  8  1  0  0  0  0
  3  9  1  0  0  0  0
  5 10  1  0  0  0  0
  7 11  1  0  0  0  0
  8 12  1  0  0  0  0
  9 13  1  0  0  0  0
 10 14  1  0  0  0  0
 14 16  1  0  0  0  0
 16 15  1  0  0  0  0
 16 17  2  0  0  0  0
M  END
>  <cdx:fragmentId>
5

$$$$
