5314.cdx
  Mrv1902 05222410262D          

 15 15  0  0  0  0            999 V2000
    3.9592   -8.2129    0.0000 O   0  0  0  0  0  0  0  0  0  0  0  0
    2.5303   -7.3879    0.0000 O   0  0  0  0  0  0  0  0  0  0  0  0
    2.5303   -5.7379    0.0000 O   0  0  0  0  0  0  0  0  0  0  0  0
    3.9592   -5.7379    0.0000 C   0  0  0  0  0  0  0  0  0  0  0  0
    3.2448   -6.1504    0.0000 C   0  0  0  0  0  0  0  0  0  0  0  0
    3.2448   -6.9754    0.0000 C   0  0  0  0  0  0  0  0  0  0  0  0
    3.9592   -7.3879    0.0000 C   0  0  0  0  0  0  0  0  0  0  0  0
    4.6737   -6.9754    0.0000 C   0  0  0  0  0  0  0  0  0  0  0  0
    4.6737   -6.1504    0.0000 C   0  0  0  0  0  0  0  0  0  0  0  0
    5.3882   -5.7379    0.0000 C   0  0  0  0  0  0  0  0  0  0  0  0
    6.1027   -6.1504    0.0000 C   0  0  0  0  0  0  0  0  0  0  0  0
    7.5316   -6.1504    0.0000 C   0  0  0  0  0  0  0  0  0  0  0  0
    6.8171   -5.7379    0.0000 C   0  0  0  0  0  0  0  0  0  0  0  0
    6.8171   -4.9129    0.0000 O   0  0  0  0  0  0  0  0  0  0  0  0
    1.8158   -6.1504    0.0000 C   0  0  0  0  0  0  0  0  0  0  0  0
  7  1  1  0  0  0  0
  6  2  1  0  0  0  0
  5  3  1  0  0  0  0
  4  9  1  0  0  0  0
  5  4  2  0  0  0  0
  6  5  1  0  0  0  0
  7  6  2  0  0  0  0
  8  7  1  0  0  0  0
  9  8  2  0  0  0  0
 10  9  1  0  0  0  0
 11 10  1  0  0  0  0
 13 11  1  0  0  0  0
 13 12  1  0  0  0  0
 13 14  2  0  0  0  0
  3 15  1  0  0  0  0
M  END
>  <cdx:fragmentId>
3

$$$$
