5316.cdx
  Mrv1902 05222410242D          

 16 16  0  0  0  0            999 V2000
    4.5365   -7.4704    0.0000 O   0  0  0  0  0  0  0  0  0  0  0  0
    3.1076   -6.6454    0.0000 O   0  0  0  0  0  0  0  0  0  0  0  0
    3.1076   -4.9954    0.0000 O   0  0  0  0  0  0  0  0  0  0  0  0
    4.5365   -4.9954    0.0000 C   0  0  0  0  0  0  0  0  0  0  0  0
    3.8221   -5.4079    0.0000 C   0  0  0  0  0  0  0  0  0  0  0  0
    3.8221   -6.2329    0.0000 C   0  0  0  0  0  0  0  0  0  0  0  0
    4.5365   -6.6454    0.0000 C   0  0  0  0  0  0  0  0  0  0  0  0
    5.2510   -6.2329    0.0000 C   0  0  0  0  0  0  0  0  0  0  0  0
    5.2510   -5.4079    0.0000 C   0  0  0  0  0  0  0  0  0  0  0  0
    5.9655   -4.9954    0.0000 C   0  0  0  0  0  0  0  0  0  0  0  0
    6.6800   -5.4079    0.0000 C   0  0  0  0  0  0  0  0  0  0  0  0
    2.3931   -6.2329    0.0000 C   0  0  0  0  0  0  0  0  0  0  0  0
    8.1089   -5.4079    0.0000 C   0  0  0  0  0  0  0  0  0  0  0  0
    7.3944   -4.9954    0.0000 C   0  0  0  0  0  0  0  0  0  0  0  0
    7.3944   -4.1704    0.0000 O   0  0  0  0  0  0  0  0  0  0  0  0
    2.3931   -5.4079    0.0000 C   0  0  0  0  0  0  0  0  0  0  0  0
  7  1  1  0  0  0  0
  6  2  1  0  0  0  0
  5  3  1  0  0  0  0
  4  9  1  0  0  0  0
  5  4  2  0  0  0  0
  6  5  1  0  0  0  0
  7  6  2  0  0  0  0
  8  7  1  0  0  0  0
  9  8  2  0  0  0  0
 10  9  1  0  0  0  0
 11 10  1  0  0  0  0
 14 11  1  0  0  0  0
  2 12  1  0  0  0  0
 14 13  1  0  0  0  0
 14 15  2  0  0  0  0
  3 16  1  0  0  0  0
M  END
>  <cdx:fragmentId>
3

$$$$
