5317300.cdx
  Mrv1902 05222410192D          

 25 27  0  0  0  0            999 V2000
    6.5436   -6.9015    0.0000 C   0  0  0  0  0  0  0  0  0  0  0  0
    6.5436   -6.0765    0.0000 C   0  0  0  0  0  0  0  0  0  0  0  0
    5.8291   -5.6640    0.0000 C   0  0  0  0  0  0  0  0  0  0  0  0
    5.1146   -6.0765    0.0000 C   0  0  0  0  0  0  0  0  0  0  0  0
    5.1146   -6.9015    0.0000 C   0  0  0  0  0  0  0  0  0  0  0  0
    5.8291   -7.3140    0.0000 O   0  0  0  0  0  0  0  0  0  0  0  0
    4.4002   -7.3140    0.0000 C   0  0  0  0  0  0  0  0  0  0  0  0
    3.6857   -6.9015    0.0000 C   0  0  0  0  0  0  0  0  0  0  0  0
    3.6857   -6.0765    0.0000 C   0  0  0  0  0  0  0  0  0  0  0  0
    4.4002   -5.6640    0.0000 C   0  0  0  0  0  0  0  0  0  0  0  0
    5.8291   -4.8390    0.0000 O   0  0  0  0  0  0  0  0  0  0  0  0
    2.9712   -7.3140    0.0000 O   0  0  0  0  0  0  0  0  0  0  0  0
    7.2580   -5.6640    0.0000 C   0  0  0  0  0  0  0  0  0  0  0  0
    7.9725   -6.0765    0.0000 C   0  0  0  0  0  0  0  0  0  0  0  0
    8.6870   -5.6640    0.0000 C   0  0  0  0  0  0  0  0  0  0  0  0
    8.6870   -4.8390    0.0000 C   0  0  0  0  0  0  0  0  0  0  0  0
    7.9725   -4.4265    0.0000 C   0  0  0  0  0  0  0  0  0  0  0  0
    7.2580   -4.8390    0.0000 C   0  0  0  0  0  0  0  0  0  0  0  0
    9.4014   -6.0765    0.0000 C   0  0  0  0  0  0  0  0  0  0  0  0
   10.1159   -5.6640    0.0000 C   0  0  0  0  0  0  0  0  0  0  0  0
   10.8304   -6.0765    0.0000 C   0  0  0  0  0  0  0  0  0  0  0  0
   10.8304   -6.9015    0.0000 C   0  0  0  0  0  0  0  0  0  0  0  0
   11.5449   -5.6640    0.0000 C   0  0  0  0  0  0  0  0  0  0  0  0
    9.4014   -4.4265    0.0000 O   0  0  0  0  0  0  0  0  0  0  0  0
    7.9725   -6.9015    0.0000 O   0  0  0  0  0  0  0  0  0  0  0  0
  1  2  2  0  0  0  0
  2  3  1  0  0  0  0
  3  4  1  0  0  0  0
  4  5  1  0  0  0  0
  5  6  1  0  0  0  0
  1  6  1  0  0  0  0
  7  8  1  0  0  0  0
  8  9  2  0  0  0  0
  9 10  1  0  0  0  0
 10  4  2  0  0  0  0
  7  5  2  0  0  0  0
  3 11  2  0  0  0  0
  8 12  1  0  0  0  0
 13 14  1  0  0  0  0
 14 15  2  0  0  0  0
 15 16  1  0  0  0  0
 16 17  2  0  0  0  0
 17 18  1  0  0  0  0
 13 18  2  0  0  0  0
 19 20  1  0  0  0  0
 20 21  2  0  0  0  0
 21 22  1  0  0  0  0
 21 23  1  0  0  0  0
 15 19  1  0  0  0  0
 16 24  1  0  0  0  0
 14 25  1  0  0  0  0
  2 13  1  0  0  0  0
M  END
>  <cdx:fragmentId>
6798

$$$$
