5319.cdx
  Mrv1902 05222410202D          

 16 16  0  0  0  0            999 V2000
    4.3055   -8.5594    0.0000 O   0  0  0  0  0  0  0  0  0  0  0  0
    2.8766   -7.7344    0.0000 O   0  0  0  0  0  0  0  0  0  0  0  0
    2.8766   -6.0844    0.0000 O   0  0  0  0  0  0  0  0  0  0  0  0
    4.3055   -6.0844    0.0000 C   0  0  0  0  0  0  0  0  0  0  0  0
    3.5911   -6.4969    0.0000 C   0  0  0  0  0  0  0  0  0  0  0  0
    3.5911   -7.3219    0.0000 C   0  0  0  0  0  0  0  0  0  0  0  0
    4.3055   -7.7344    0.0000 C   0  0  0  0  0  0  0  0  0  0  0  0
    5.0200   -7.3219    0.0000 C   0  0  0  0  0  0  0  0  0  0  0  0
    5.0200   -6.4969    0.0000 C   0  0  0  0  0  0  0  0  0  0  0  0
    5.7345   -6.0844    0.0000 C   0  0  0  0  0  0  0  0  0  0  0  0
    6.4490   -6.4969    0.0000 C   0  0  0  0  0  0  0  0  0  0  0  0
    2.1621   -6.4969    0.0000 C   0  0  0  0  0  0  0  0  0  0  0  0
    3.5911   -8.9719    0.0000 C   0  0  0  0  0  0  0  0  0  0  0  0
    7.8779   -6.4969    0.0000 C   0  0  0  0  0  0  0  0  0  0  0  0
    7.1634   -6.0844    0.0000 C   0  0  0  0  0  0  0  0  0  0  0  0
    7.1634   -5.2594    0.0000 O   0  0  0  0  0  0  0  0  0  0  0  0
  7  1  1  0  0  0  0
  6  2  1  0  0  0  0
  5  3  1  0  0  0  0
  4  9  1  0  0  0  0
  5  4  2  0  0  0  0
  6  5  1  0  0  0  0
  7  6  2  0  0  0  0
  8  7  1  0  0  0  0
  9  8  2  0  0  0  0
 10  9  1  0  0  0  0
 11 10  1  0  0  0  0
 15 11  1  0  0  0  0
  3 12  1  0  0  0  0
  1 13  1  0  0  0  0
 15 14  1  0  0  0  0
 15 16  2  0  0  0  0
M  END
>  <cdx:fragmentId>
3

$$$$
