5325.cdx
  Mrv1902 05222410202D          

 12 12  0  0  0  0            999 V2000
    5.9433   -5.9056    0.0000 C   0  0  0  0  0  0  0  0  0  0  0  0
    5.9433   -6.7306    0.0000 C   0  0  0  0  0  0  0  0  0  0  0  0
    6.6577   -7.1431    0.0000 C   0  0  0  0  0  0  0  0  0  0  0  0
    7.3722   -6.7306    0.0000 C   0  0  0  0  0  0  0  0  0  0  0  0
    7.3722   -5.9056    0.0000 C   0  0  0  0  0  0  0  0  0  0  0  0
    6.6577   -5.4931    0.0000 C   0  0  0  0  0  0  0  0  0  0  0  0
    8.0867   -5.4931    0.0000 C   0  0  0  0  0  0  0  0  0  0  0  0
    8.8012   -5.9056    0.0000 C   0  0  0  0  0  0  0  0  0  0  0  0
    9.5156   -5.4931    0.0000 C   0  0  0  0  0  0  0  0  0  0  0  0
   10.2301   -5.9056    0.0000 C   0  0  0  0  0  0  0  0  0  0  0  0
    9.5156   -4.6681    0.0000 O   0  0  0  0  0  0  0  0  0  0  0  0
    5.2288   -7.1431    0.0000 O   0  0  0  0  0  0  0  0  0  0  0  0
  1  2  2  0  0  0  0
  2  3  1  0  0  0  0
  3  4  2  0  0  0  0
  4  5  1  0  0  0  0
  5  6  2  0  0  0  0
  6  1  1  0  0  0  0
  5  7  1  0  0  0  0
  7  8  1  0  0  0  0
  8  9  1  0  0  0  0
  9 10  1  0  0  0  0
  9 11  2  0  0  0  0
  2 12  1  0  0  0  0
M  END
>  <cdx:fragmentId>
5

$$$$
