5326.cdx
  Mrv1902 05222410212D          

 23 24  0  0  0  0            999 V2000
    4.5958   -6.3456    0.0000 C   0  0  0  0  0  0  0  0  0  0  0  0
    4.5958   -7.1706    0.0000 C   0  0  0  0  0  0  0  0  0  0  0  0
    5.3102   -7.5831    0.0000 C   0  0  0  0  0  0  0  0  0  0  0  0
    6.0247   -7.1706    0.0000 C   0  0  0  0  0  0  0  0  0  0  0  0
    6.0247   -6.3456    0.0000 C   0  0  0  0  0  0  0  0  0  0  0  0
    5.3102   -5.9331    0.0000 C   0  0  0  0  0  0  0  0  0  0  0  0
    6.7392   -5.9331    0.0000 C   0  0  0  0  0  0  0  0  0  0  0  0
    7.4537   -6.3456    0.0000 C   0  0  0  0  0  0  0  0  0  0  0  0
    8.1681   -5.9331    0.0000 C   0  0  0  0  0  0  0  0  0  0  0  0
    8.8826   -6.3456    0.0000 C   0  0  0  0  0  0  0  0  0  0  0  0
    8.1681   -5.1081    0.0000 O   0  0  0  0  0  0  0  0  0  0  0  0
    3.8813   -7.5831    0.0000 O   0  0  0  0  0  0  0  0  0  0  0  0
    8.8826   -4.6956    0.0000 C   0  0  2  0  0  0  0  0  0  0  0  0
    9.5971   -5.1081    0.0000 O   0  0  0  0  0  0  0  0  0  0  0  0
   10.3115   -4.6956    0.0000 C   0  0  1  0  0  0  0  0  0  0  0  0
   10.3115   -3.8706    0.0000 C   0  0  2  0  0  0  0  0  0  0  0  0
    9.5971   -3.4581    0.0000 C   0  0  1  0  0  0  0  0  0  0  0  0
    8.8826   -3.8706    0.0000 C   0  0  1  0  0  0  0  0  0  0  0  0
   11.0260   -5.1081    0.0000 C   0  0  0  0  0  0  0  0  0  0  0  0
    9.5971   -2.6331    0.0000 O   0  0  0  0  0  0  0  0  0  0  0  0
   11.0260   -3.4581    0.0000 O   0  0  0  0  0  0  0  0  0  0  0  0
    8.1681   -3.4581    0.0000 O   0  0  0  0  0  0  0  0  0  0  0  0
   11.7405   -4.6956    0.0000 O   0  0  0  0  0  0  0  0  0  0  0  0
  1  2  2  0  0  0  0
  2  3  1  0  0  0  0
  3  4  2  0  0  0  0
  4  5  1  0  0  0  0
  5  6  2  0  0  0  0
  6  1  1  0  0  0  0
  5  7  1  0  0  0  0
  7  8  1  0  0  0  0
  8  9  1  0  0  0  0
  9 10  1  0  0  0  0
  9 11  1  0  0  0  0
  2 12  1  0  0  0  0
 13 11  1  1  0  0  0
 13 14  1  0  0  0  0
 14 15  1  0  0  0  0
 15 16  1  0  0  0  0
 16 17  1  0  0  0  0
 17 18  1  0  0  0  0
 18 13  1  0  0  0  0
 15 19  1  1  0  0  0
 17 20  1  1  0  0  0
 16 21  1  6  0  0  0
 18 22  1  6  0  0  0
 19 23  1  0  0  0  0
M  END
>  <cdx:fragmentId>
5

$$$$
