101532796.cdx
  Mrv1902 05222410272D          

 32 37  0  0  0  0            999 V2000
    7.1754  -11.1216    0.0000 C   0  0  2  0  0  0  0  0  0  0  0  0
    6.3504  -11.1216    0.0000 C   0  0  0  0  0  0  0  0  0  0  0  0
    5.7984  -11.7347    0.0000 C   0  0  0  0  0  0  0  0  0  0  0  0
    4.9914  -11.5632    0.0000 C   0  0  0  0  0  0  0  0  0  0  0  0
    4.7365  -10.7786    0.0000 C   0  0  0  0  0  0  0  0  0  0  0  0
    5.2885  -10.1655    0.0000 C   0  0  0  0  0  0  0  0  0  0  0  0
    6.0955  -10.3370    0.0000 C   0  0  0  0  0  0  0  0  0  0  0  0
    6.7629   -9.8521    0.0000 N   0  0  0  0  0  0  0  0  0  0  0  0
    6.8492   -9.0316    0.0000 C   0  0  0  0  0  0  0  0  0  0  0  0
    7.6029   -8.6960    0.0000 C   0  0  0  0  0  0  0  0  0  0  0  0
    8.2703   -9.1810    0.0000 C   0  0  0  0  0  0  0  0  0  0  0  0
    8.1841  -10.0014    0.0000 C   0  0  0  0  0  0  0  0  0  0  0  0
    8.7730  -10.5793    0.0000 C   0  0  2  0  0  0  0  0  0  0  0  0
    8.8746  -11.4647    0.0000 C   0  0  0  0  0  0  0  0  0  0  0  0
    8.3680  -12.1977    0.0000 C   0  0  0  0  0  0  0  0  0  0  0  0
    7.5040  -12.4154    0.0000 N   0  0  0  0  0  0  0  0  0  0  0  0
    6.6808  -12.3615    0.0000 C   0  0  0  0  0  0  0  0  0  0  0  0
    6.4777  -11.5618    0.0000 C   0  0  0  0  0  0  0  0  0  0  0  0
    7.8097  -11.6491    0.0000 C   0  0  1  0  0  0  0  0  0  0  0  0
    8.5910  -11.3840    0.0000 C   0  0  0  0  0  0  0  0  0  0  0  0
    7.4304  -10.3370    0.0000 C   0  0  1  0  0  0  0  0  0  0  0  0
    6.1817   -8.5467    0.0000 O   0  0  0  0  0  0  0  0  0  0  0  0
    3.9295  -10.6070    0.0000 O   0  0  0  0  0  0  0  0  0  0  0  0
    3.3775  -11.2201    0.0000 C   0  0  0  0  0  0  0  0  0  0  0  0
    4.4394  -12.1763    0.0000 O   0  0  0  0  0  0  0  0  0  0  0  0
    3.6324  -12.0047    0.0000 C   0  0  0  0  0  0  0  0  0  0  0  0
    9.6749  -11.6650    0.0000 C   0  0  0  0  0  0  0  0  0  0  0  0
    9.9147  -12.4544    0.0000 C   0  0  0  0  0  0  0  0  0  0  0  0
   10.7182  -12.6415    0.0000 O   0  0  0  0  0  0  0  0  0  0  0  0
    9.4875  -10.1668    0.0000 H   0  0  0  0  0  0  0  0  0  0  0  0
    7.8601  -12.4726    0.0000 H   0  0  0  0  0  0  0  0  0  0  0  0
    7.4304   -9.5120    0.0000 H   0  0  0  0  0  0  0  0  0  0  0  0
  1  2  1  1  0  0  0
  2  3  2  0  0  0  0
  3  4  1  0  0  0  0
  4  5  2  0  0  0  0
  5  6  1  0  0  0  0
  6  7  2  0  0  0  0
  7  8  1  0  0  0  0
  8  9  1  0  0  0  0
  9 10  1  0  0  0  0
 10 11  1  0  0  0  0
 11 12  2  0  0  0  0
 12 13  1  0  0  0  0
 13 14  1  0  0  0  0
 14 15  1  0  0  0  0
 15 16  1  0  0  0  0
 16 17  1  0  0  0  0
 17 18  1  0  0  0  0
 19 20  1  0  0  0  0
  1 18  1  6  0  0  0
  1 19  1  0  0  0  0
 13 20  1  1  0  0  0
 16 19  1  0  0  0  0
  8 21  1  0  0  0  0
 21  1  1  0  0  0  0
  2  7  1  0  0  0  0
 12 21  1  0  0  0  0
  9 22  2  0  0  0  0
 23 24  1  0  0  0  0
  5 23  1  0  0  0  0
 25 26  1  0  0  0  0
  4 25  1  0  0  0  0
 27 28  1  0  0  0  0
 28 29  1  0  0  0  0
 14 27  2  0  0  0  0
 13 30  1  0  0  0  0
 19 31  1  1  0  0  0
 21 32  1  6  0  0  0
M  END
>  <cdx:groupId>
3086

>  <cdx:fragmentId>
2988

$$$$
