533057.cdx
  Mrv1902 05222410192D          

 15 16  0  0  0  0            999 V2000
    7.0936   -6.0252    0.0000 C   0  0  0  0  0  0  0  0  0  0  0  0
    6.3791   -6.4377    0.0000 C   0  0  0  0  0  0  0  0  0  0  0  0
    6.3791   -7.2627    0.0000 C   0  0  0  0  0  0  0  0  0  0  0  0
    5.6646   -7.6752    0.0000 C   0  0  0  0  0  0  0  0  0  0  0  0
    4.9501   -7.2627    0.0000 N   0  0  0  0  0  0  0  0  0  0  0  0
    4.9501   -6.4377    0.0000 C   0  0  0  0  0  0  0  0  0  0  0  0
    5.6646   -6.0252    0.0000 C   0  0  0  0  0  0  0  0  0  0  0  0
    7.0936   -5.2002    0.0000 O   0  0  0  0  0  0  0  0  0  0  0  0
    7.8080   -6.4377    0.0000 O   0  0  0  0  0  0  0  0  0  0  0  0
    8.5225   -6.0252    0.0000 C   0  0  0  0  0  0  0  0  0  0  0  0
    8.5225   -5.2002    0.0000 C   0  0  0  0  0  0  0  0  0  0  0  0
    9.2370   -4.7877    0.0000 C   0  0  0  0  0  0  0  0  0  0  0  0
    9.9514   -5.2002    0.0000 C   0  0  0  0  0  0  0  0  0  0  0  0
    9.9514   -6.0252    0.0000 C   0  0  0  0  0  0  0  0  0  0  0  0
    9.2370   -6.4377    0.0000 C   0  0  0  0  0  0  0  0  0  0  0  0
  1  2  1  0  0  0  0
  2  3  2  0  0  0  0
  3  4  1  0  0  0  0
  4  5  2  0  0  0  0
  5  6  1  0  0  0  0
  6  7  2  0  0  0  0
  2  7  1  0  0  0  0
  1  8  2  0  0  0  0
  1  9  1  0  0  0  0
 10 11  1  0  0  0  0
 11 12  1  0  0  0  0
 12 13  1  0  0  0  0
 13 14  1  0  0  0  0
 14 15  1  0  0  0  0
 10 15  1  0  0  0  0
  9 10  1  0  0  0  0
M  END
>  <cdx:fragmentId>
29644

$$$$
