534045.cdx
  Mrv1902 05222410262D          

 10 10  0  0  0  0            999 V2000
    6.8261   -6.6967    0.0000 N   0  0  0  0  0  0  0  0  0  0  0  0
    6.7399   -7.5172    0.0000 C   0  0  0  0  0  0  0  0  0  0  0  0
    5.9329   -7.6887    0.0000 C   0  0  0  0  0  0  0  0  0  0  0  0
    5.5204   -6.9743    0.0000 N   0  0  0  0  0  0  0  0  0  0  0  0
    6.0724   -6.3612    0.0000 C   0  0  0  0  0  0  0  0  0  0  0  0
    8.9695   -6.2842    0.0000 C   0  0  0  0  0  0  0  0  0  0  0  0
    7.5406   -5.4592    0.0000 O   0  0  0  0  0  0  0  0  0  0  0  0
    8.2551   -7.5217    0.0000 C   0  0  0  0  0  0  0  0  0  0  0  0
    8.2551   -6.6967    0.0000 C   0  0  0  0  0  0  0  0  0  0  0  0
    7.5406   -6.2842    0.0000 C   0  0  0  0  0  0  0  0  0  0  0  0
 10  1  1  0  0  0  0
  5  1  1  0  0  0  0
  2  1  1  0  0  0  0
  3  2  2  0  0  0  0
  4  3  1  0  0  0  0
  5  4  2  0  0  0  0
  9  6  1  0  0  0  0
 10  7  2  0  0  0  0
  9  8  2  0  0  0  0
 10  9  1  0  0  0  0
M  END
>  <cdx:groupId>
29723

>  <cdx:fragmentId>
29706

$$$$
