534251.cdx
  Mrv1902 05222410262D          

  8  7  0  0  0  0            999 V2000
   17.6122   -8.7600    0.0000 C   0  0  0  0  0  0  0  0  0  0  0  0
   16.8977   -9.1725    0.0000 C   0  0  0  0  0  0  0  0  0  0  0  0
   16.1832   -8.7600    0.0000 C   0  0  0  0  0  0  0  0  0  0  0  0
   15.4688   -9.1725    0.0000 C   0  0  0  0  0  0  0  0  0  0  0  0
   14.7543   -8.7600    0.0000 C   0  0  0  0  0  0  0  0  0  0  0  0
   14.0398   -9.1725    0.0000 C   0  0  0  0  0  0  0  0  0  0  0  0
   13.3253   -8.7600    0.0000 C   0  0  0  0  0  0  0  0  0  0  0  0
   16.1832   -7.9350    0.0000 Cl  0  0  0  0  0  0  0  0  0  0  0  0
  1  2  2  0  0  0  0
  2  3  1  0  0  0  0
  3  4  1  0  0  0  0
  4  5  1  0  0  0  0
  5  6  1  0  0  0  0
  6  7  1  0  0  0  0
  3  8  1  0  0  0  0
M  END
>  <cdx:groupId>
29750

>  <cdx:fragmentId>
29730

$$$$
