534398.cdx
  Mrv1902 05222410212D          

 16 19  0  0  0  0            999 V2000
    6.4694   -6.8546    0.0000 C   0  0  0  0  0  0  0  0  0  0  0  0
    5.9983   -7.5318    0.0000 C   0  0  0  0  0  0  0  0  0  0  0  0
    6.4968   -8.1892    0.0000 C   0  0  0  0  0  0  0  0  0  0  0  0
    7.2760   -7.9182    0.0000 C   0  0  0  0  0  0  0  0  0  0  0  0
    7.9314   -8.4193    0.0000 C   0  0  0  0  0  0  0  0  0  0  0  0
    8.7318   -8.2193    0.0000 C   0  0  0  0  0  0  0  0  0  0  0  0
    9.0745   -7.4689    0.0000 C   0  0  0  0  0  0  0  0  0  0  0  0
    8.7014   -6.7330    0.0000 C   0  0  0  0  0  0  0  0  0  0  0  0
    7.8935   -6.5660    0.0000 C   0  0  0  0  0  0  0  0  0  0  0  0
    7.2591   -7.0934    0.0000 C   0  0  0  0  0  0  0  0  0  0  0  0
    8.5048   -9.0125    0.0000 C   0  0  0  0  0  0  0  0  0  0  0  0
    6.2579   -8.9788    0.0000 C   0  0  0  0  0  0  0  0  0  0  0  0
    9.0782   -9.6057    0.0000 C   0  0  0  0  0  0  0  0  0  0  0  0
    8.2778   -9.8056    0.0000 C   0  0  0  0  0  0  0  0  0  0  0  0
    8.4648   -5.9708    0.0000 O   0  0  0  0  0  0  0  0  0  0  0  0
    7.4664   -5.8601    0.0000 C   0  0  0  0  0  0  0  0  0  0  0  0
  1  2  1  0  0  0  0
  2  3  1  0  0  0  0
  3  4  1  0  0  0  0
  4  5  1  0  0  0  0
  5  6  1  0  0  0  0
  6  7  1  0  0  0  0
  7  8  1  0  0  0  0
  8  9  1  0  0  0  0
  9 10  1  0  0  0  0
  1 10  1  0  0  0  0
  4 10  1  0  0  0  0
 11  5  1  0  0  0  0
 11  6  1  0  0  0  0
  3 12  1  0  0  0  0
 11 13  1  0  0  0  0
 11 14  1  0  0  0  0
  9 15  1  0  0  0  0
  9 16  1  0  0  0  0
 15  8  1  0  0  0  0
M  END
>  <cdx:fragmentId>
217897

$$$$
