534485.cdx
  Mrv1902 05222410272D          

 11 11  0  0  0  0            999 V2000
   14.7113   -8.4413    0.0000 C   0  0  2  0  0  0  0  0  0  0  0  0
   14.7113   -7.6163    0.0000 C   0  0  0  0  0  0  0  0  0  0  0  0
   15.4258   -7.2038    0.0000 C   0  0  0  0  0  0  0  0  0  0  0  0
   16.1403   -7.6163    0.0000 C   0  0  0  0  0  0  0  0  0  0  0  0
   16.1403   -8.4413    0.0000 C   0  0  1  0  0  0  0  0  0  0  0  0
   15.4258   -8.8538    0.0000 C   0  0  0  0  0  0  0  0  0  0  0  0
   13.9969   -8.8538    0.0000 O   0  0  0  0  0  0  0  0  0  0  0  0
   16.8548   -8.8538    0.0000 C   0  0  0  0  0  0  0  0  0  0  0  0
   16.8548   -9.6788    0.0000 C   0  0  0  0  0  0  0  0  0  0  0  0
   17.5692   -8.4413    0.0000 C   0  0  0  0  0  0  0  0  0  0  0  0
   13.9969   -7.2038    0.0000 C   0  0  0  0  0  0  0  0  0  0  0  0
  1  2  1  0  0  0  0
  2  3  2  0  0  0  0
  3  4  1  0  0  0  0
  4  5  1  0  0  0  0
  5  6  1  0  0  0  0
  1  6  1  0  0  0  0
  1  7  1  6  0  0  0
  8  9  1  0  0  0  0
  8 10  1  0  0  0  0
  5  8  1  6  0  0  0
  2 11  1  0  0  0  0
M  END
>  <cdx:groupId>
29893

>  <cdx:fragmentId>
29863

$$$$
