534492.cdx
  Mrv1902 05222410282D          

 28 30  0  0  0  0            999 V2000
    6.2976  -10.0228    0.0000 O   0  0  0  0  0  0  0  0  0  0  0  0
    4.9096   -7.5246    0.0000 O   0  0  0  0  0  0  0  0  0  0  0  0
    9.1958   -7.5952    0.0000 C   0  0  0  0  0  0  0  0  0  0  0  0
    7.7263  -10.0463    0.0000 O   0  0  0  0  0  0  0  0  0  0  0  0
    7.7671   -7.5717    0.0000 O   0  0  0  0  0  0  0  0  0  0  0  0
    7.0459   -7.9723    0.0000 C   0  0  0  0  0  0  0  0  0  0  0  0
    6.3383   -7.5481    0.0000 C   0  0  0  0  0  0  0  0  0  0  0  0
    5.6172   -7.9488    0.0000 C   0  0  0  0  0  0  0  0  0  0  0  0
    5.6036   -8.7737    0.0000 C   0  0  0  0  0  0  0  0  0  0  0  0
    6.3112   -9.1979    0.0000 C   0  0  0  0  0  0  0  0  0  0  0  0
    7.0323   -8.7972    0.0000 C   0  0  0  0  0  0  0  0  0  0  0  0
    7.7399   -9.2214    0.0000 C   0  0  0  0  0  0  0  0  0  0  0  0
    8.4611   -8.8208    0.0000 C   0  0  0  0  0  0  0  0  0  0  0  0
    8.4747   -7.9959    0.0000 C   0  0  0  0  0  0  0  0  0  0  0  0
    6.3927   -4.2486    0.0000 O   0  0  0  0  0  0  0  0  0  0  0  0
    4.9504   -5.0499    0.0000 O   0  0  0  0  0  0  0  0  0  0  0  0
    4.9232   -6.6997    0.0000 O   0  0  0  0  0  0  0  0  0  0  0  0
    6.3519   -6.7232    0.0000 C   0  0  1  0  0  0  0  0  0  0  0  0
    5.6443   -6.2990    0.0000 C   0  0  1  0  0  0  0  0  0  0  0  0
    5.6579   -5.4741    0.0000 C   0  0  2  0  0  0  0  0  0  0  0  0
    6.3791   -5.0735    0.0000 C   0  0  1  0  0  0  0  0  0  0  0  0
    7.0867   -5.4977    0.0000 C   0  0  2  0  0  0  0  0  0  0  0  0
    7.0731   -6.3226    0.0000 O   0  0  0  0  0  0  0  0  0  0  0  0
    7.8079   -5.0970    0.0000 C   0  0  0  0  0  0  0  0  0  0  0  0
    8.5154   -5.5212    0.0000 O   0  0  0  0  0  0  0  0  0  0  0  0
    9.2502   -4.2956    0.0000 O   0  0  0  0  0  0  0  0  0  0  0  0
    9.9442   -5.5448    0.0000 C   0  0  0  0  0  0  0  0  0  0  0  0
    9.2366   -5.1205    0.0000 C   0  0  0  0  0  0  0  0  0  0  0  0
 25 24  1  0  0  0  0
 22 24  1  1  0  0  0
 18  7  1  1  0  0  0
 10  1  1  0  0  0  0
  8  2  1  0  0  0  0
 14  3  1  0  0  0  0
 12  4  2  0  0  0  0
 14  5  1  0  0  0  0
  6  5  1  0  0  0  0
 11  6  2  0  0  0  0
  7  6  1  0  0  0  0
  8  7  2  0  0  0  0
  9  8  1  0  0  0  0
 10  9  2  0  0  0  0
 11 10  1  0  0  0  0
 12 11  1  0  0  0  0
 13 12  1  0  0  0  0
 14 13  2  0  0  0  0
 21 15  1  6  0  0  0
 20 16  1  1  0  0  0
 19 17  1  6  0  0  0
 23 18  1  0  0  0  0
 19 18  1  0  0  0  0
 20 19  1  0  0  0  0
 21 20  1  0  0  0  0
 22 21  1  0  0  0  0
 23 22  1  0  0  0  0
 28 25  1  0  0  0  0
 28 26  2  0  0  0  0
 28 27  1  0  0  0  0
M  END
>  <cdx:groupId>
248801

>  <cdx:fragmentId>
248746

$$$$
