534400.cdx
  Mrv1902 05222410212D          

 15 17  0  0  0  0            999 V2000
    7.9501   -7.9923    0.0000 C   0  0  0  0  0  0  0  0  0  0  0  0
    8.4351   -7.3248    0.0000 C   0  0  0  0  0  0  0  0  0  0  0  0
    7.9501   -6.6574    0.0000 C   0  0  0  0  0  0  0  0  0  0  0  0
    7.1655   -6.9123    0.0000 C   0  0  0  0  0  0  0  0  0  0  0  0
    6.4510   -6.4998    0.0000 C   0  0  0  0  0  0  0  0  0  0  0  0
    5.7366   -6.9123    0.0000 C   0  0  0  0  0  0  0  0  0  0  0  0
    5.7366   -7.7373    0.0000 C   0  0  0  0  0  0  0  0  0  0  0  0
    6.4510   -8.1498    0.0000 C   0  0  0  0  0  0  0  0  0  0  0  0
    7.1655   -7.7373    0.0000 C   0  0  0  0  0  0  0  0  0  0  0  0
    8.7706   -8.0785    0.0000 O   0  0  0  0  0  0  0  0  0  0  0  0
    8.2051   -5.8728    0.0000 O   0  0  0  0  0  0  0  0  0  0  0  0
    9.1495   -6.9123    0.0000 C   0  0  0  0  0  0  0  0  0  0  0  0
    6.0385   -5.7853    0.0000 C   0  0  0  0  0  0  0  0  0  0  0  0
    6.8635   -5.7853    0.0000 C   0  0  0  0  0  0  0  0  0  0  0  0
    7.2518   -8.5578    0.0000 C   0  0  0  0  0  0  0  0  0  0  0  0
  1  2  1  0  0  0  0
  2  3  1  0  0  0  0
  3  4  1  0  0  0  0
  4  5  1  0  0  0  0
  5  6  1  0  0  0  0
  6  7  1  0  0  0  0
  7  8  1  0  0  0  0
  8  9  1  0  0  0  0
  1  9  1  0  0  0  0
  4  9  1  0  0  0  0
 10  1  1  0  0  0  0
 10  2  1  0  0  0  0
  3 11  2  0  0  0  0
  2 12  1  0  0  0  0
  5 13  1  0  0  0  0
  5 14  1  0  0  0  0
  9 15  1  0  0  0  0
M  END
>  <cdx:fragmentId>
29813

$$$$
