534579.cdx
  Mrv1902 05222410242D          

 19 21  0  0  0  0            999 V2000
    7.4970   -6.0112    0.0000 O   0  0  0  0  0  0  0  0  0  0  0  0
    7.5710   -6.8328    0.0000 C   0  0  0  0  0  0  0  0  0  0  0  0
    8.3753   -7.0164    0.0000 C   0  0  0  0  0  0  0  0  0  0  0  0
    8.7984   -6.3082    0.0000 C   0  0  0  0  0  0  0  0  0  0  0  0
    8.2556   -5.6869    0.0000 C   0  0  0  0  0  0  0  0  0  0  0  0
    6.1413   -8.4272    0.0000 C   0  0  0  0  0  0  0  0  0  0  0  0
    5.6564   -7.7597    0.0000 C   0  0  0  0  0  0  0  0  0  0  0  0
    6.1413   -7.0923    0.0000 C   0  0  0  0  0  0  0  0  0  0  0  0
    6.9260   -7.3472    0.0000 C   0  0  0  0  0  0  0  0  0  0  0  0
    8.7332   -7.7597    0.0000 C   0  0  0  0  0  0  0  0  0  0  0  0
    8.3753   -8.5030    0.0000 C   0  0  0  0  0  0  0  0  0  0  0  0
    7.5710   -8.6866    0.0000 C   0  0  0  0  0  0  0  0  0  0  0  0
    6.9260   -8.1722    0.0000 C   0  0  0  0  0  0  0  0  0  0  0  0
    8.4392   -4.8826    0.0000 O   0  0  0  0  0  0  0  0  0  0  0  0
    5.8864   -6.3077    0.0000 O   0  0  0  0  0  0  0  0  0  0  0  0
    9.6201   -6.2343    0.0000 C   0  0  0  0  0  0  0  0  0  0  0  0
    6.7786   -6.5355    0.0000 C   0  0  0  0  0  0  0  0  0  0  0  0
    7.3874   -9.4909    0.0000 C   0  0  0  0  0  0  0  0  0  0  0  0
    5.8864   -9.2118    0.0000 O   0  0  0  0  0  0  0  0  0  0  0  0
  1  2  1  0  0  0  0
  2  3  1  0  0  0  0
  3  4  1  0  0  0  0
  4  5  1  0  0  0  0
  1  5  1  0  0  0  0
  6  7  1  0  0  0  0
  7  8  1  0  0  0  0
  8  9  1  0  0  0  0
 10 11  1  0  0  0  0
 11 12  1  0  0  0  0
 12 13  1  0  0  0  0
  6 13  1  0  0  0  0
  9 13  1  0  0  0  0
  9  2  1  0  0  0  0
 10  3  1  0  0  0  0
  5 14  2  0  0  0  0
  8 15  2  0  0  0  0
  4 16  2  0  0  0  0
  9 17  1  0  0  0  0
 12 18  1  0  0  0  0
  6 19  1  0  0  0  0
M  END
>  <cdx:fragmentId>
30074

$$$$
