534549.cdx
  Mrv1902 05222410212D          

 18 18  0  0  0  0            999 V2000
   11.5268   -8.6767    0.0000 C   0  0  0  0  0  0  0  0  0  0  0  0
   11.4405   -9.4972    0.0000 C   0  0  0  0  0  0  0  0  0  0  0  0
   10.6336   -9.6687    0.0000 C   0  0  0  0  0  0  0  0  0  0  0  0
   10.2211   -8.9543    0.0000 C   0  0  0  0  0  0  0  0  0  0  0  0
   10.7731   -8.3412    0.0000 C   0  0  0  0  0  0  0  0  0  0  0  0
   19.3859   -8.2642    0.0000 C   0  0  0  0  0  0  0  0  0  0  0  0
   18.6715   -8.6767    0.0000 C   0  0  0  0  0  0  0  0  0  0  0  0
   17.9570   -8.2642    0.0000 C   0  0  0  0  0  0  0  0  0  0  0  0
   17.2425   -8.6767    0.0000 C   0  0  0  0  0  0  0  0  0  0  0  0
   16.5281   -8.2642    0.0000 C   0  0  0  0  0  0  0  0  0  0  0  0
   15.8136   -8.6767    0.0000 C   0  0  0  0  0  0  0  0  0  0  0  0
   15.0991   -8.2642    0.0000 C   0  0  0  0  0  0  0  0  0  0  0  0
   14.3846   -8.6767    0.0000 C   0  0  0  0  0  0  0  0  0  0  0  0
   13.6702   -8.2642    0.0000 C   0  0  0  0  0  0  0  0  0  0  0  0
   12.9557   -8.6767    0.0000 C   0  0  0  0  0  0  0  0  0  0  0  0
   12.2412   -8.2642    0.0000 C   0  0  0  0  0  0  0  0  0  0  0  0
   19.3859   -7.4392    0.0000 O   0  0  0  0  0  0  0  0  0  0  0  0
   20.1004   -8.6767    0.0000 O   0  0  0  0  0  0  0  0  0  0  0  0
  1  2  1  0  0  0  0
  2  3  1  0  0  0  0
  3  4  1  0  0  0  0
  4  5  1  0  0  0  0
  1  5  1  0  0  0  0
  6  7  1  0  0  0  0
  7  8  1  0  0  0  0
  8  9  1  0  0  0  0
  9 10  1  0  0  0  0
 10 11  1  0  0  0  0
 11 12  1  0  0  0  0
 12 13  1  0  0  0  0
 13 14  1  0  0  0  0
 14 15  1  0  0  0  0
 15 16  1  0  0  0  0
  6 17  2  0  0  0  0
  6 18  1  0  0  0  0
  1 16  1  0  0  0  0
M  END
>  <cdx:groupId>
30010

>  <cdx:fragmentId>
29969

$$$$
