534587.cdx
  Mrv1902 05222410252D          

 21 20  0  0  0  0            999 V2000
    0.3213   -7.2528    0.0000 C   0  0  0  0  0  0  0  0  0  0  0  0
    1.0358   -6.8403    0.0000 O   0  0  0  0  0  0  0  0  0  0  0  0
    1.7502   -8.0778    0.0000 O   0  0  0  0  0  0  0  0  0  0  0  0
   13.8962   -7.6653    0.0000 C   0  0  0  0  0  0  0  0  0  0  0  0
   13.1818   -8.0778    0.0000 C   0  0  0  0  0  0  0  0  0  0  0  0
   12.4673   -7.6653    0.0000 C   0  0  0  0  0  0  0  0  0  0  0  0
   11.7528   -8.0778    0.0000 C   0  0  0  0  0  0  0  0  0  0  0  0
   11.0383   -7.6653    0.0000 C   0  0  0  0  0  0  0  0  0  0  0  0
   10.3239   -8.0778    0.0000 C   0  0  0  0  0  0  0  0  0  0  0  0
    9.6094   -7.6653    0.0000 C   0  0  0  0  0  0  0  0  0  0  0  0
    8.8949   -8.0778    0.0000 C   0  0  0  0  0  0  0  0  0  0  0  0
    8.1805   -7.6653    0.0000 C   0  0  0  0  0  0  0  0  0  0  0  0
    7.4660   -7.2528    0.0000 C   0  0  0  0  0  0  0  0  0  0  0  0
    6.7515   -6.8403    0.0000 C   0  0  0  0  0  0  0  0  0  0  0  0
    6.0370   -7.2528    0.0000 C   0  0  0  0  0  0  0  0  0  0  0  0
    5.3226   -6.8403    0.0000 C   0  0  0  0  0  0  0  0  0  0  0  0
    4.6081   -7.2528    0.0000 C   0  0  0  0  0  0  0  0  0  0  0  0
    3.8936   -6.8403    0.0000 C   0  0  0  0  0  0  0  0  0  0  0  0
    3.1792   -7.2528    0.0000 C   0  0  0  0  0  0  0  0  0  0  0  0
    2.4647   -6.8403    0.0000 C   0  0  0  0  0  0  0  0  0  0  0  0
    1.7502   -7.2528    0.0000 C   0  0  0  0  0  0  0  0  0  0  0  0
  2  1  1  0  0  0  0
 21  2  1  0  0  0  0
 21  3  2  0  0  0  0
  5  4  1  0  0  0  0
  6  5  1  0  0  0  0
  7  6  1  0  0  0  0
  8  7  1  0  0  0  0
  9  8  1  0  0  0  0
 10  9  1  0  0  0  0
 11 10  1  0  0  0  0
 12 11  1  0  0  0  0
 13 12  3  0  0  0  0
 14 13  1  0  0  0  0
 15 14  1  0  0  0  0
 16 15  1  0  0  0  0
 17 16  1  0  0  0  0
 18 17  1  0  0  0  0
 19 18  1  0  0  0  0
 20 19  1  0  0  0  0
 21 20  1  0  0  0  0
M  END
>  <cdx:fragmentId>
30119

$$$$
