534528.cdx
  Mrv1902 05222410182D          

 18 18  0  0  0  0            999 V2000
   14.1472   -9.1636    0.0000 N   0  0  0  0  0  0  0  0  0  0  0  0
   13.7347   -8.4491    0.0000 C   0  0  0  0  0  0  0  0  0  0  0  0
   14.1472   -7.7346    0.0000 N   0  0  0  0  0  0  0  0  0  0  0  0
   14.9722   -7.7346    0.0000 C   0  0  0  0  0  0  0  0  0  0  0  0
   15.3847   -8.4491    0.0000 C   0  0  0  0  0  0  0  0  0  0  0  0
   14.9722   -9.1636    0.0000 C   0  0  0  0  0  0  0  0  0  0  0  0
   12.9097   -8.4491    0.0000 O   0  0  0  0  0  0  0  0  0  0  0  0
   15.3847   -7.0202    0.0000 O   0  0  0  0  0  0  0  0  0  0  0  0
   15.3847   -9.8780    0.0000 O   0  0  0  0  0  0  0  0  0  0  0  0
   16.0992   -8.0366    0.0000 C   0  0  0  0  0  0  0  0  0  0  0  0
   16.0992   -7.2116    0.0000 C   0  0  0  0  0  0  0  0  0  0  0  0
   16.8137   -6.7991    0.0000 C   0  0  0  0  0  0  0  0  0  0  0  0
   16.0992   -9.6866    0.0000 C   0  0  0  0  0  0  0  0  0  0  0  0
   16.0992   -8.8616    0.0000 C   0  0  0  0  0  0  0  0  0  0  0  0
   16.8137   -8.4491    0.0000 C   0  0  0  0  0  0  0  0  0  0  0  0
   17.5281   -8.8616    0.0000 C   0  0  0  0  0  0  0  0  0  0  0  0
   18.2426   -8.4491    0.0000 C   0  0  0  0  0  0  0  0  0  0  0  0
   17.5281   -9.6866    0.0000 O   0  0  0  0  0  0  0  0  0  0  0  0
  1  2  1  0  0  0  0
  2  3  1  0  0  0  0
  3  4  1  0  0  0  0
  4  5  1  0  0  0  0
  5  6  1  0  0  0  0
  1  6  1  0  0  0  0
  2  7  2  0  0  0  0
  4  8  2  0  0  0  0
  6  9  2  0  0  0  0
 10 11  1  0  0  0  0
 11 12  2  0  0  0  0
  5 10  1  0  0  0  0
 13 14  1  0  0  0  0
 14 15  1  0  0  0  0
 15 16  1  0  0  0  0
 16 17  1  0  0  0  0
 16 18  1  0  0  0  0
  5 14  1  0  0  0  0
M  END
>  <cdx:groupId>
29951

>  <cdx:fragmentId>
29900

$$$$
