534564.cdx
  Mrv1902 05222410222D          

 11 12  0  0  0  0            999 V2000
    8.0278   -6.4589    0.0000 C   0  0  0  0  0  0  0  0  0  0  0  0
    7.3133   -6.8714    0.0000 C   0  0  0  0  0  0  0  0  0  0  0  0
    6.5988   -6.4589    0.0000 C   0  0  0  0  0  0  0  0  0  0  0  0
    6.5988   -5.6339    0.0000 C   0  0  0  0  0  0  0  0  0  0  0  0
    7.3133   -5.2214    0.0000 C   0  0  0  0  0  0  0  0  0  0  0  0
    8.0278   -5.6339    0.0000 C   0  0  0  0  0  0  0  0  0  0  0  0
    8.7423   -6.0464    0.0000 C   0  0  0  0  0  0  0  0  0  0  0  0
    5.8844   -6.8714    0.0000 O   0  0  0  0  0  0  0  0  0  0  0  0
    5.8844   -5.2214    0.0000 C   0  0  0  0  0  0  0  0  0  0  0  0
    9.4567   -5.6339    0.0000 C   0  0  0  0  0  0  0  0  0  0  0  0
    9.4567   -6.4589    0.0000 C   0  0  0  0  0  0  0  0  0  0  0  0
  1  2  1  0  0  0  0
  2  3  1  0  0  0  0
  3  4  1  0  0  0  0
  4  5  1  0  0  0  0
  5  6  1  0  0  0  0
  6  7  1  0  0  0  0
  1  7  1  0  0  0  0
  1  6  1  0  0  0  0
  3  8  1  0  0  0  0
  4  9  2  0  0  0  0
  7 10  1  0  0  0  0
  7 11  1  0  0  0  0
M  END
>  <cdx:fragmentId>
30019

$$$$
