534683.cdx
  Mrv1902 05222410272D          

 16 19  0  0  0  0            999 V2000
    6.3088   -9.0403    0.0000 C   0  0  0  0  0  0  0  0  0  0  0  0
    6.9410   -8.5103    0.0000 C   0  0  0  0  0  0  0  0  0  0  0  0
    6.9209   -7.6856    0.0000 C   0  0  0  0  0  0  0  0  0  0  0  0
    6.2635   -7.1871    0.0000 C   0  0  0  0  0  0  0  0  0  0  0  0
    5.4639   -7.3903    0.0000 C   0  0  0  0  0  0  0  0  0  0  0  0
    5.1242   -8.1421    0.0000 C   0  0  0  0  0  0  0  0  0  0  0  0
    5.5002   -8.8765    0.0000 C   0  0  0  0  0  0  0  0  0  0  0  0
    4.3024   -8.0698    0.0000 C   0  0  0  0  0  0  0  0  0  0  0  0
    6.0262   -9.8154    0.0000 C   0  0  0  0  0  0  0  0  0  0  0  0
    6.9844   -9.5139    0.0000 C   0  0  0  0  0  0  0  0  0  0  0  0
    7.7317   -8.7460    0.0000 C   0  0  0  0  0  0  0  0  0  0  0  0
    8.2001   -8.0669    0.0000 C   0  0  0  0  0  0  0  0  0  0  0  0
    7.6990   -7.4115    0.0000 C   0  0  0  0  0  0  0  0  0  0  0  0
    6.0656   -7.9894    0.0000 C   0  0  0  0  0  0  0  0  0  0  0  0
    7.9816   -6.6364    0.0000 C   0  0  0  0  0  0  0  0  0  0  0  0
    5.5362   -6.5685    0.0000 O   0  0  0  0  0  0  0  0  0  0  0  0
  1  2  1  0  0  0  0
  2  3  1  0  0  0  0
  3  4  1  0  0  0  0
  4  5  1  0  0  0  0
  5  6  1  0  0  0  0
  6  7  1  0  0  0  0
  7  1  1  0  0  0  0
  6  8  1  0  0  0  0
  1  9  1  0  0  0  0
  1 10  1  0  0  0  0
  2 11  1  0  0  0  0
 11 12  1  0  0  0  0
 12 13  1  0  0  0  0
 13  3  1  0  0  0  0
  7 14  1  0  0  0  0
  3 14  1  0  0  0  0
 13 15  1  0  0  0  0
  5 16  1  0  0  0  0
 16  4  1  0  0  0  0
M  END
>  <cdx:fragmentId>
54

$$$$
