534613.cdx
  Mrv1902 05222410222D          

 15 14  0  0  0  0            999 V2000
    3.3837   -6.1473    0.0000 C   0  0  0  0  0  0  0  0  0  0  0  0
    4.0982   -6.5598    0.0000 C   0  0  0  0  0  0  0  0  0  0  0  0
    4.8127   -6.1473    0.0000 C   0  0  0  0  0  0  0  0  0  0  0  0
    5.5271   -6.5598    0.0000 C   0  0  0  0  0  0  0  0  0  0  0  0
    6.2416   -6.1473    0.0000 C   0  0  0  0  0  0  0  0  0  0  0  0
    6.9561   -6.5598    0.0000 C   0  0  0  0  0  0  0  0  0  0  0  0
    7.6705   -6.1473    0.0000 C   0  0  0  0  0  0  0  0  0  0  0  0
    8.3850   -6.5598    0.0000 C   0  0  0  0  0  0  0  0  0  0  0  0
    9.0995   -6.1473    0.0000 C   0  0  0  0  0  0  0  0  0  0  0  0
    9.8140   -6.5598    0.0000 C   0  0  0  0  0  0  0  0  0  0  0  0
   10.5284   -6.1473    0.0000 C   0  0  0  0  0  0  0  0  0  0  0  0
   11.2429   -6.5598    0.0000 C   0  0  0  0  0  0  0  0  0  0  0  0
   11.9574   -6.1473    0.0000 C   0  0  0  0  0  0  0  0  0  0  0  0
   12.6718   -6.5598    0.0000 C   0  0  0  0  0  0  0  0  0  0  0  0
    2.6693   -6.5598    0.0000 O   0  0  0  0  0  0  0  0  0  0  0  0
  1  2  1  0  0  0  0
  2  3  1  0  0  0  0
  3  4  1  0  0  0  0
  4  5  1  0  0  0  0
  5  6  1  0  0  0  0
  6  7  1  0  0  0  0
  7  8  2  0  0  0  0
  8  9  1  0  0  0  0
  9 10  1  0  0  0  0
 10 11  1  0  0  0  0
 11 12  1  0  0  0  0
 12 13  1  0  0  0  0
 13 14  1  0  0  0  0
  1 15  1  0  0  0  0
M  END
>  <cdx:fragmentId>
30187

$$$$
