101534897.cdx
  Mrv1902 05222410202D          

 43 50  0  0  0  0            999 V2000
    8.3653  -11.0976    0.0000 C   0  0  2  0  0  0  0  0  0  0  0  0
    9.1499  -10.8426    0.0000 C   0  0  1  0  0  0  0  0  0  0  0  0
    9.6348  -11.5101    0.0000 O   0  0  0  0  0  0  0  0  0  0  0  0
    9.1499  -12.1775    0.0000 C   0  0  0  0  0  0  0  0  0  0  0  0
    8.3653  -11.9226    0.0000 C   0  0  1  0  0  0  0  0  0  0  0  0
    7.7819  -12.5059    0.0000 C   0  0  0  0  0  0  0  0  0  0  0  0
    6.9569  -12.5059    0.0000 C   0  0  0  0  0  0  0  0  0  0  0  0
    6.3735  -11.9226    0.0000 C   0  0  2  0  0  0  0  0  0  0  0  0
    5.6591  -12.3351    0.0000 C   0  0  1  0  0  0  0  0  0  0  0  0
    5.6591  -13.1601    0.0000 C   0  0  0  0  0  0  0  0  0  0  0  0
    4.9446  -13.5726    0.0000 C   0  0  0  0  0  0  0  0  0  0  0  0
    4.2301  -13.1601    0.0000 C   0  0  0  0  0  0  0  0  0  0  0  0
    4.2301  -12.3351    0.0000 C   0  0  0  0  0  0  0  0  0  0  0  0
    4.9446  -11.9226    0.0000 C   0  0  0  0  0  0  0  0  0  0  0  0
    4.9446  -11.0976    0.0000 C   0  0  2  0  0  0  0  0  0  0  0  0
    5.6591  -10.6851    0.0000 C   0  0  0  0  0  0  0  0  0  0  0  0
    6.3735  -11.0976    0.0000 C   0  0  1  0  0  0  0  0  0  0  0  0
    6.9569  -10.5142    0.0000 C   0  0  2  0  0  0  0  0  0  0  0  0
    6.4877   -9.3604    0.0000 O   0  0  0  0  0  0  0  0  0  0  0  0
    7.0639   -8.7698    0.0000 C   0  0  0  0  0  0  0  0  0  0  0  0
    7.8849   -8.8521    0.0000 C   0  0  1  0  0  0  0  0  0  0  0  0
    8.8741   -8.4342    0.0000 C   0  0  0  0  0  0  0  0  0  0  0  0
    9.7287   -9.0821    0.0000 O   0  0  0  0  0  0  0  0  0  0  0  0
    9.5915  -10.1458    0.0000 C   0  0  2  0  0  0  0  0  0  0  0  0
    9.1517   -9.4478    0.0000 C   0  0  0  0  0  0  0  0  0  0  0  0
    8.3325   -9.5453    0.0000 C   0  0  1  0  0  0  0  0  0  0  0  0
    8.0696  -10.3274    0.0000 C   0  0  1  0  0  0  0  0  0  0  0  0
    7.7819  -10.5142    0.0000 O   0  0  0  0  0  0  0  0  0  0  0  0
    7.2942  -10.6095    0.0000 C   0  0  0  0  0  0  0  0  0  0  0  0
    9.4048  -12.9621    0.0000 O   0  0  0  0  0  0  0  0  0  0  0  0
    6.3735  -13.5726    0.0000 O   0  0  0  0  0  0  0  0  0  0  0  0
    8.9765   -7.6156    0.0000 O   0  0  0  0  0  0  0  0  0  0  0  0
    7.2942  -11.4345    0.0000 O   0  0  0  0  0  0  0  0  0  0  0  0
    8.6419   -9.0094    0.0000 C   0  0  0  0  0  0  0  0  0  0  0  0
    5.6591  -11.5101    0.0000 C   0  0  0  0  0  0  0  0  0  0  0  0
    9.9749  -10.8426    0.0000 C   0  0  0  0  0  0  0  0  0  0  0  0
    4.2301  -10.6851    0.0000 O   0  0  0  0  0  0  0  0  0  0  0  0
    8.5579  -12.7248    0.0000 O   0  0  0  0  0  0  0  0  0  0  0  0
    6.3735  -12.7476    0.0000 H   0  0  0  0  0  0  0  0  0  0  0  0
    6.2658  -10.2796    0.0000 H   0  0  0  0  0  0  0  0  0  0  0  0
    7.7617   -8.0364    0.0000 H   0  0  0  0  0  0  0  0  0  0  0  0
   10.3674  -10.4260    0.0000 H   0  0  0  0  0  0  0  0  0  0  0  0
    7.4791   -9.7513    0.0000 H   0  0  0  0  0  0  0  0  0  0  0  0
  1  2  1  0  0  0  0
  2  3  1  0  0  0  0
  3  4  1  0  0  0  0
  4  5  1  0  0  0  0
  5  6  1  0  0  0  0
  6  7  1  0  0  0  0
  7  8  1  0  0  0  0
  8  9  1  0  0  0  0
  9 10  1  0  0  0  0
 10 11  1  0  0  0  0
 11 12  2  0  0  0  0
 12 13  1  0  0  0  0
 13 14  2  0  0  0  0
 14 15  1  0  0  0  0
 15 16  1  0  0  0  0
 16 17  1  0  0  0  0
 17 18  1  0  0  0  0
 18 19  1  0  0  0  0
 19 20  1  0  0  0  0
 20 21  1  0  0  0  0
 21 22  1  0  0  0  0
 22 23  1  0  0  0  0
 23 24  1  0  0  0  0
 24 25  1  6  0  0  0
 25 26  1  0  0  0  0
 26 27  1  0  0  0  0
  1 27  1  0  0  0  0
  1 28  1  1  0  0  0
 18 28  1  6  0  0  0
 27 29  1  0  0  0  0
 29 18  1  0  0  0  0
 21 26  1  0  0  0  0
  2 24  1  0  0  0  0
  8 17  1  0  0  0  0
  9 14  1  0  0  0  0
  1  5  1  0  0  0  0
  4 30  2  0  0  0  0
 10 31  2  0  0  0  0
 22 32  2  0  0  0  0
 29 33  2  0  0  0  0
 26 34  1  6  0  0  0
  9 35  1  6  0  0  0
  2 36  1  1  0  0  0
 15 37  1  1  0  0  0
  5 38  1  6  0  0  0
  8 39  1  1  0  0  0
 17 40  1  6  0  0  0
 21 41  1  6  0  0  0
 24 42  1  0  0  0  0
 27 43  1  1  0  0  0
M  END
>  <cdx:groupId>
3337

>  <cdx:fragmentId>
3204

$$$$
