534882.cdx
  Mrv1902 05222410202D          

 16 17  0  0  0  0            999 V2000
   15.1403   -7.6303    0.0000 C   0  0  0  0  0  0  0  0  0  0  0  0
   15.8548   -7.2178    0.0000 C   0  0  0  0  0  0  0  0  0  0  0  0
   16.5692   -7.6303    0.0000 C   0  0  0  0  0  0  0  0  0  0  0  0
   17.3539   -7.3754    0.0000 C   0  0  0  0  0  0  0  0  0  0  0  0
   17.8388   -8.0428    0.0000 C   0  0  0  0  0  0  0  0  0  0  0  0
   17.3539   -8.7103    0.0000 C   0  0  0  0  0  0  0  0  0  0  0  0
   16.5692   -8.4553    0.0000 C   0  0  0  0  0  0  0  0  0  0  0  0
   15.8548   -8.8678    0.0000 C   0  0  0  0  0  0  0  0  0  0  0  0
   15.1403   -8.4553    0.0000 C   0  0  0  0  0  0  0  0  0  0  0  0
   14.4258   -8.8678    0.0000 C   0  0  0  0  0  0  0  0  0  0  0  0
   14.2543   -9.6748    0.0000 C   0  0  0  0  0  0  0  0  0  0  0  0
   13.4338   -9.7610    0.0000 C   0  0  0  0  0  0  0  0  0  0  0  0
   13.0983   -9.0074    0.0000 C   0  0  0  0  0  0  0  0  0  0  0  0
   13.7114   -8.4553    0.0000 C   0  0  0  0  0  0  0  0  0  0  0  0
   13.7114   -7.6303    0.0000 C   0  0  0  0  0  0  0  0  0  0  0  0
   14.4258   -7.2178    0.0000 C   0  0  0  0  0  0  0  0  0  0  0  0
  1  2  1  0  0  0  0
  2  3  1  0  0  0  0
  3  4  1  0  0  0  0
  4  5  1  0  0  0  0
  5  6  1  0  0  0  0
  6  7  1  0  0  0  0
  7  8  1  0  0  0  0
  8  9  1  0  0  0  0
  9 10  1  0  0  0  0
 10 11  1  0  0  0  0
 11 12  1  0  0  0  0
 12 13  1  0  0  0  0
 13 14  1  0  0  0  0
 14 15  1  0  0  0  0
 15 16  1  0  0  0  0
  1 16  1  0  0  0  0
  1  9  2  0  0  0  0
M  END
>  <cdx:groupId>
30449

>  <cdx:fragmentId>
30403

$$$$
