534856.cdx
  Mrv1902 05222410192D          

 17 19  0  0  0  0            999 V2000
   15.2010   -8.0263    0.0000 C   0  0  0  0  0  0  0  0  0  0  0  0
   15.2754   -8.9733    0.0000 C   0  0  0  0  0  0  0  0  0  0  0  0
   15.8460   -9.3657    0.0000 C   0  0  0  0  0  0  0  0  0  0  0  0
   16.6503   -9.1821    0.0000 C   0  0  0  0  0  0  0  0  0  0  0  0
   17.0083   -8.4388    0.0000 C   0  0  0  0  0  0  0  0  0  0  0  0
   16.6503   -7.6955    0.0000 C   0  0  0  0  0  0  0  0  0  0  0  0
   15.8460   -7.5119    0.0000 C   0  0  0  0  0  0  0  0  0  0  0  0
   15.5547   -8.7289    0.0000 C   0  0  0  0  0  0  0  0  0  0  0  0
   14.7540   -8.7725    0.0000 C   0  0  0  0  0  0  0  0  0  0  0  0
   14.4164   -9.1062    0.0000 C   0  0  0  0  0  0  0  0  0  0  0  0
   13.9314   -8.4388    0.0000 C   0  0  0  0  0  0  0  0  0  0  0  0
   14.4164   -7.7714    0.0000 C   0  0  0  0  0  0  0  0  0  0  0  0
   16.2417   -9.5526    0.0000 O   0  0  0  0  0  0  0  0  0  0  0  0
   15.0881   -9.5269    0.0000 O   0  0  0  0  0  0  0  0  0  0  0  0
   15.6624   -6.7076    0.0000 C   0  0  0  0  0  0  0  0  0  0  0  0
   16.0892  -10.1540    0.0000 C   0  0  0  0  0  0  0  0  0  0  0  0
   15.2848   -9.9704    0.0000 C   0  0  0  0  0  0  0  0  0  0  0  0
  1  2  1  0  0  0  0
  2  3  1  0  0  0  0
  3  4  1  0  0  0  0
  4  5  1  0  0  0  0
  5  6  1  0  0  0  0
  6  7  1  0  0  0  0
  7  8  1  0  0  0  0
  8  9  1  0  0  0  0
  9 10  1  0  0  0  0
 10 11  1  0  0  0  0
 11 12  1  0  0  0  0
  1 12  1  0  0  0  0
  1  7  1  0  0  0  0
  2 10  1  0  0  0  0
  8 13  2  0  0  0  0
  9 14  2  0  0  0  0
  7 15  1  0  0  0  0
  3 16  1  0  0  0  0
  3 17  1  0  0  0  0
M  END
>  <cdx:groupId>
30397

>  <cdx:fragmentId>
30347

$$$$
