534952.cdx
  Mrv1902 05222410212D          

 10  9  0  0  0  0            999 V2000
   16.8977   -7.5084    0.0000 C   0  0  0  0  0  0  0  0  0  0  0  0
   16.8977   -8.3334    0.0000 C   0  0  0  0  0  0  0  0  0  0  0  0
   16.1832   -8.7459    0.0000 C   0  0  0  0  0  0  0  0  0  0  0  0
   15.4688   -8.3334    0.0000 C   0  0  0  0  0  0  0  0  0  0  0  0
   14.7543   -8.7459    0.0000 C   0  0  0  0  0  0  0  0  0  0  0  0
   14.0398   -8.3334    0.0000 C   0  0  0  0  0  0  0  0  0  0  0  0
   13.3253   -8.7459    0.0000 C   0  0  0  0  0  0  0  0  0  0  0  0
   15.1668   -9.4604    0.0000 C   0  0  0  0  0  0  0  0  0  0  0  0
   14.3418   -9.4604    0.0000 C   0  0  0  0  0  0  0  0  0  0  0  0
   17.6122   -8.7459    0.0000 C   0  0  0  0  0  0  0  0  0  0  0  0
  1  2  2  0  0  0  0
  2  3  1  0  0  0  0
  3  4  1  0  0  0  0
  4  5  1  0  0  0  0
  5  6  1  0  0  0  0
  6  7  2  0  0  0  0
  5  8  1  0  0  0  0
  5  9  1  0  0  0  0
  2 10  1  0  0  0  0
M  END
>  <cdx:groupId>
30614

>  <cdx:fragmentId>
30588

$$$$
