534931.cdx
  Mrv1902 05222410182D          

 16 18  0  0  0  0            999 V2000
    6.1796   -3.7889    0.0000 C   0  0  0  0  0  0  0  0  0  0  0  0
    6.1796   -4.6139    0.0000 C   0  0  0  0  0  0  0  0  0  0  0  0
    6.8941   -5.0264    0.0000 C   0  0  0  0  0  0  0  0  0  0  0  0
    7.6086   -4.6139    0.0000 C   0  0  0  0  0  0  0  0  0  0  0  0
    7.6086   -3.7889    0.0000 C   0  0  0  0  0  0  0  0  0  0  0  0
    6.8941   -3.3764    0.0000 C   0  0  0  0  0  0  0  0  0  0  0  0
    6.8941   -5.8514    0.0000 C   0  0  0  0  0  0  0  0  0  0  0  0
    7.6086   -6.2639    0.0000 C   0  0  0  0  0  0  0  0  0  0  0  0
    8.3230   -5.8514    0.0000 C   0  0  0  0  0  0  0  0  0  0  0  0
    8.3230   -5.0264    0.0000 C   0  0  0  0  0  0  0  0  0  0  0  0
    5.3546   -4.6139    0.0000 C   0  0  0  0  0  0  0  0  0  0  0  0
    5.5963   -5.1973    0.0000 C   0  0  0  0  0  0  0  0  0  0  0  0
    6.1796   -5.4389    0.0000 O   0  0  0  0  0  0  0  0  0  0  0  0
    8.7355   -4.3119    0.0000 C   0  0  0  0  0  0  0  0  0  0  0  0
    9.1480   -5.0264    0.0000 C   0  0  0  0  0  0  0  0  0  0  0  0
    6.7630   -4.3723    0.0000 C   0  0  0  0  0  0  0  0  0  0  0  0
  1  2  1  0  0  0  0
  2  3  1  0  0  0  0
  3  4  1  0  0  0  0
  4  5  1  0  0  0  0
  5  6  1  0  0  0  0
  6  1  1  0  0  0  0
  3  7  1  0  0  0  0
  7  8  1  0  0  0  0
  8  9  1  0  0  0  0
  9 10  1  0  0  0  0
 10  4  1  0  0  0  0
  2 11  1  0  0  0  0
  2 12  1  0  0  0  0
  3 13  1  0  0  0  0
 10 14  1  0  0  0  0
 10 15  1  0  0  0  0
  1 16  1  0  0  0  0
 16  4  1  0  0  0  0
M  END
>  <cdx:fragmentId>
30539

$$$$
