5350.cdx
  Mrv1902 05222410192D          

 10  9  0  0  0  0            999 V2000
   10.3252   -5.4988    0.0000 S   0  0  0  0  0  0  0  0  0  0  0  0
    9.6107   -5.0863    0.0000 C   0  0  0  0  0  0  0  0  0  0  0  0
    8.8962   -4.6738    0.0000 N   0  0  0  0  0  0  0  0  0  0  0  0
    4.6094   -4.6738    0.0000 C   0  0  0  0  0  0  0  0  0  0  0  0
    5.3239   -5.9113    0.0000 O   0  0  0  0  0  0  0  0  0  0  0  0
    5.3239   -5.0863    0.0000 S   0  0  0  0  0  0  0  0  0  0  0  0
    6.0384   -4.6738    0.0000 C   0  0  0  0  0  0  0  0  0  0  0  0
    6.7528   -5.0863    0.0000 C   0  0  0  0  0  0  0  0  0  0  0  0
    7.4673   -4.6738    0.0000 C   0  0  0  0  0  0  0  0  0  0  0  0
    8.1818   -5.0863    0.0000 C   0  0  0  0  0  0  0  0  0  0  0  0
 10  3  1  0  0  0  0
  2  1  2  0  0  0  0
  3  2  2  0  0  0  0
  7  6  1  0  0  0  0
  6  4  1  0  0  0  0
  6  5  2  0  0  0  0
  8  7  1  0  0  0  0
  9  8  1  0  0  0  0
 10  9  1  0  0  0  0
M  END
>  <cdx:fragmentId>
5

$$$$
