535221.cdx
  Mrv1902 05222410192D          

 17 18  0  0  0  0            999 V2000
    6.4613   -8.8600    0.0000 C   0  0  0  0  0  0  0  0  0  0  0  0
    5.7469   -8.4475    0.0000 C   0  0  0  0  0  0  0  0  0  0  0  0
    5.7469   -7.6225    0.0000 C   0  0  0  0  0  0  0  0  0  0  0  0
    6.4613   -7.2100    0.0000 C   0  0  0  0  0  0  0  0  0  0  0  0
    7.1758   -7.6225    0.0000 C   0  0  0  0  0  0  0  0  0  0  0  0
    7.8903   -7.2100    0.0000 C   0  0  0  0  0  0  0  0  0  0  0  0
    8.6048   -7.6225    0.0000 C   0  0  0  0  0  0  0  0  0  0  0  0
    8.6048   -8.4475    0.0000 C   0  0  0  0  0  0  0  0  0  0  0  0
    7.8903   -8.8600    0.0000 C   0  0  0  0  0  0  0  0  0  0  0  0
    7.1758   -8.4475    0.0000 C   0  0  0  0  0  0  0  0  0  0  0  0
    5.0324   -8.8600    0.0000 O   0  0  0  0  0  0  0  0  0  0  0  0
    5.0324   -7.2100    0.0000 O   0  0  0  0  0  0  0  0  0  0  0  0
    7.1758   -9.2725    0.0000 C   0  0  0  0  0  0  0  0  0  0  0  0
    6.4613   -6.3850    0.0000 C   0  0  0  0  0  0  0  0  0  0  0  0
    9.3192   -7.2100    0.0000 C   0  0  0  0  0  0  0  0  0  0  0  0
    9.3192   -6.3850    0.0000 C   0  0  0  0  0  0  0  0  0  0  0  0
   10.0337   -7.6225    0.0000 C   0  0  0  0  0  0  0  0  0  0  0  0
  1  2  1  0  0  0  0
  2  3  1  0  0  0  0
  3  4  1  0  0  0  0
  4  5  2  0  0  0  0
  5  6  1  0  0  0  0
  6  7  1  0  0  0  0
  7  8  1  0  0  0  0
  8  9  1  0  0  0  0
  9 10  1  0  0  0  0
  1 10  1  0  0  0  0
  5 10  1  0  0  0  0
  2 11  1  0  0  0  0
  3 12  1  0  0  0  0
 10 13  1  0  0  0  0
  4 14  1  0  0  0  0
 15 16  2  0  0  0  0
 15 17  1  0  0  0  0
  7 15  1  0  0  0  0
M  END
>  <cdx:groupId>
30753

>  <cdx:fragmentId>
30704

$$$$
