535269.cdx
  Mrv1902 05222410222D          

 16 19  0  0  0  0            999 V2000
   15.1158   -7.7960    0.0000 C   0  0  0  0  0  0  0  0  0  0  0  0
   15.1158   -6.9710    0.0000 O   0  0  0  0  0  0  0  0  0  0  0  0
   15.8303   -7.3835    0.0000 C   0  0  0  0  0  0  0  0  0  0  0  0
   16.5448   -7.7960    0.0000 C   0  0  0  0  0  0  0  0  0  0  0  0
   16.5448   -8.6210    0.0000 C   0  0  0  0  0  0  0  0  0  0  0  0
   16.5448   -9.4460    0.0000 C   0  0  0  0  0  0  0  0  0  0  0  0
   15.8303   -9.0335    0.0000 C   0  0  0  0  0  0  0  0  0  0  0  0
   15.1158   -8.6210    0.0000 C   0  0  0  0  0  0  0  0  0  0  0  0
   14.4013   -9.0335    0.0000 C   0  0  0  0  0  0  0  0  0  0  0  0
   13.6869   -8.6210    0.0000 C   0  0  0  0  0  0  0  0  0  0  0  0
   13.6869   -7.7960    0.0000 C   0  0  0  0  0  0  0  0  0  0  0  0
   14.4013   -7.3835    0.0000 C   0  0  0  0  0  0  0  0  0  0  0  0
   14.4013   -9.8585    0.0000 C   0  0  0  0  0  0  0  0  0  0  0  0
   15.1158   -9.4460    0.0000 C   0  0  0  0  0  0  0  0  0  0  0  0
   17.2592   -9.8585    0.0000 C   0  0  0  0  0  0  0  0  0  0  0  0
   16.5448  -10.2710    0.0000 C   0  0  0  0  0  0  0  0  0  0  0  0
  1  2  1  0  0  0  0
  2  3  1  0  0  0  0
  3  4  1  0  0  0  0
  4  5  1  0  0  0  0
  5  6  1  0  0  0  0
  6  7  1  0  0  0  0
  7  8  1  0  0  0  0
  8  9  1  0  0  0  0
  9 10  1  0  0  0  0
 10 11  1  0  0  0  0
 11 12  1  0  0  0  0
  1 12  1  0  0  0  0
  1  8  1  0  0  0  0
  5  7  1  0  0  0  0
  1  3  1  0  0  0  0
  9 13  1  0  0  0  0
  8 14  1  0  0  0  0
  6 15  1  0  0  0  0
  6 16  1  0  0  0  0
M  END
>  <cdx:groupId>
30858

>  <cdx:fragmentId>
30810

$$$$
