535217.cdx
  Mrv1902 05222410282D          

 15 15  0  0  0  0            999 V2000
    7.6863   -4.5053    0.0000 C   0  0  0  0  0  0  0  0  0  0  0  0
    6.9718   -4.9178    0.0000 C   0  0  0  0  0  0  0  0  0  0  0  0
    6.9718   -5.7428    0.0000 C   0  0  0  0  0  0  0  0  0  0  0  0
    7.6863   -6.1553    0.0000 C   0  0  0  0  0  0  0  0  0  0  0  0
    8.4007   -5.7428    0.0000 C   0  0  0  0  0  0  0  0  0  0  0  0
    8.4007   -4.9178    0.0000 C   0  0  0  0  0  0  0  0  0  0  0  0
    9.1152   -6.9803    0.0000 C   0  0  0  0  0  0  0  0  0  0  0  0
    9.1152   -6.1553    0.0000 C   0  0  0  0  0  0  0  0  0  0  0  0
    9.8297   -5.7428    0.0000 C   0  0  0  0  0  0  0  0  0  0  0  0
    6.2573   -6.9803    0.0000 C   0  0  0  0  0  0  0  0  0  0  0  0
    6.2573   -6.1553    0.0000 C   0  0  0  0  0  0  0  0  0  0  0  0
    5.5428   -5.7428    0.0000 C   0  0  0  0  0  0  0  0  0  0  0  0
    6.2573   -4.5053    0.0000 C   0  0  0  0  0  0  0  0  0  0  0  0
    7.2738   -3.7908    0.0000 C   0  0  0  0  0  0  0  0  0  0  0  0
    8.0988   -3.7908    0.0000 C   0  0  0  0  0  0  0  0  0  0  0  0
  1  2  1  0  0  0  0
  2  3  1  0  0  0  0
  3  4  1  0  0  0  0
  4  5  1  0  0  0  0
  5  6  1  0  0  0  0
  1  6  1  0  0  0  0
  7  8  2  0  0  0  0
  8  9  1  0  0  0  0
  5  8  1  0  0  0  0
 10 11  2  0  0  0  0
 11 12  1  0  0  0  0
  3 11  1  0  0  0  0
  2 13  1  0  0  0  0
  1 14  1  0  0  0  0
  1 15  1  0  0  0  0
M  END
>  <cdx:groupId>
30698

>  <cdx:fragmentId>
30656

$$$$
