535296.cdx
  Mrv1902 05222410222D          

 16 18  0  0  0  0            999 V2000
   14.8259   -9.5200    0.0000 C   0  0  0  0  0  0  0  0  0  0  0  0
   15.5404   -9.1075    0.0000 C   0  0  0  0  0  0  0  0  0  0  0  0
   16.1854   -9.6218    0.0000 C   0  0  0  0  0  0  0  0  0  0  0  0
   16.9897   -9.4383    0.0000 C   0  0  0  0  0  0  0  0  0  0  0  0
   17.3477   -8.6950    0.0000 C   0  0  0  0  0  0  0  0  0  0  0  0
   16.9897   -7.9517    0.0000 C   0  0  0  0  0  0  0  0  0  0  0  0
   16.1854   -7.7681    0.0000 C   0  0  0  0  0  0  0  0  0  0  0  0
   15.5404   -8.2825    0.0000 C   0  0  0  0  0  0  0  0  0  0  0  0
   14.8259   -7.8700    0.0000 C   0  0  0  0  0  0  0  0  0  0  0  0
   14.1115   -8.2825    0.0000 C   0  0  0  0  0  0  0  0  0  0  0  0
   14.1115   -9.1075    0.0000 C   0  0  0  0  0  0  0  0  0  0  0  0
   13.3970   -7.8700    0.0000 O   0  0  0  0  0  0  0  0  0  0  0  0
   14.8259   -7.0450    0.0000 C   0  0  0  0  0  0  0  0  0  0  0  0
   17.1127   -7.1359    0.0000 C   0  0  0  0  0  0  0  0  0  0  0  0
   17.7577   -7.6503    0.0000 C   0  0  0  0  0  0  0  0  0  0  0  0
   15.5404   -9.9325    0.0000 C   0  0  0  0  0  0  0  0  0  0  0  0
  1  2  1  0  0  0  0
  2  3  1  0  0  0  0
  3  4  1  0  0  0  0
  4  5  1  0  0  0  0
  5  6  1  0  0  0  0
  6  7  1  0  0  0  0
  7  8  1  0  0  0  0
  8  9  1  0  0  0  0
  9 10  1  0  0  0  0
 10 11  1  0  0  0  0
  1 11  1  0  0  0  0
  1  7  1  0  0  0  0
  2  8  1  0  0  0  0
 10 12  2  0  0  0  0
  9 13  2  0  0  0  0
  6 14  1  0  0  0  0
  6 15  1  0  0  0  0
  2 16  1  0  0  0  0
M  END
>  <cdx:groupId>
30913

>  <cdx:fragmentId>
30866

$$$$
