535349.cdx
  Mrv1902 05222410272D          

 15 16  0  0  0  0            999 V2000
    7.8831   -6.9991    0.0000 C   0  0  0  0  0  0  0  0  0  0  0  0
    7.1686   -7.4116    0.0000 C   0  0  0  0  0  0  0  0  0  0  0  0
    6.4541   -6.9991    0.0000 C   0  0  0  0  0  0  0  0  0  0  0  0
    6.4541   -6.1741    0.0000 C   0  0  0  0  0  0  0  0  0  0  0  0
    7.1686   -5.7616    0.0000 C   0  0  0  0  0  0  0  0  0  0  0  0
    7.8831   -6.1741    0.0000 C   0  0  0  0  0  0  0  0  0  0  0  0
    8.5975   -6.5866    0.0000 C   0  0  0  0  0  0  0  0  0  0  0  0
    9.3120   -6.1741    0.0000 C   0  0  0  0  0  0  0  0  0  0  0  0
    9.3120   -6.9991    0.0000 C   0  0  0  0  0  0  0  0  0  0  0  0
    7.1686   -4.9366    0.0000 C   0  0  0  0  0  0  0  0  0  0  0  0
    7.8831   -4.5241    0.0000 C   0  0  0  0  0  0  0  0  0  0  0  0
    6.4541   -4.5241    0.0000 C   0  0  0  0  0  0  0  0  0  0  0  0
    7.1686   -8.2366    0.0000 C   0  0  0  0  0  0  0  0  0  0  0  0
    7.8831   -8.6491    0.0000 C   0  0  0  0  0  0  0  0  0  0  0  0
    6.4541   -8.6491    0.0000 C   0  0  0  0  0  0  0  0  0  0  0  0
  1  2  1  0  0  0  0
  2  3  1  0  0  0  0
  3  4  2  0  0  0  0
  4  5  1  0  0  0  0
  5  6  1  0  0  0  0
  6  7  1  0  0  0  0
  1  7  1  0  0  0  0
  1  6  1  0  0  0  0
  7  8  1  0  0  0  0
  7  9  1  0  0  0  0
 10 11  1  0  0  0  0
 10 12  1  0  0  0  0
  5 10  1  0  0  0  0
 13 14  2  0  0  0  0
 13 15  1  0  0  0  0
  2 13  1  0  0  0  0
M  END
>  <cdx:fragmentId>
30974

$$$$
