535379.cdx
  Mrv1902 05222410192D          

 16 17  0  0  0  0            999 V2000
    8.3042   -8.0974    0.0000 C   0  0  0  0  0  0  0  0  0  0  0  0
    9.0187   -7.6849    0.0000 C   0  0  0  0  0  0  0  0  0  0  0  0
    9.0187   -6.8599    0.0000 C   0  0  0  0  0  0  0  0  0  0  0  0
    8.3042   -6.4474    0.0000 C   0  0  0  0  0  0  0  0  0  0  0  0
    7.5898   -6.8599    0.0000 C   0  0  0  0  0  0  0  0  0  0  0  0
    6.8753   -6.4474    0.0000 C   0  0  0  0  0  0  0  0  0  0  0  0
    6.1608   -6.8599    0.0000 C   0  0  0  0  0  0  0  0  0  0  0  0
    6.1608   -7.6849    0.0000 C   0  0  0  0  0  0  0  0  0  0  0  0
    6.8753   -8.0974    0.0000 C   0  0  0  0  0  0  0  0  0  0  0  0
    7.5898   -7.6849    0.0000 C   0  0  0  0  0  0  0  0  0  0  0  0
    7.5898   -6.0349    0.0000 O   0  0  0  0  0  0  0  0  0  0  0  0
    7.5898   -5.2099    0.0000 C   0  0  0  0  0  0  0  0  0  0  0  0
    6.8753   -5.6224    0.0000 C   0  0  0  0  0  0  0  0  0  0  0  0
    6.1608   -5.2099    0.0000 C   0  0  0  0  0  0  0  0  0  0  0  0
    9.7332   -6.4474    0.0000 C   0  0  0  0  0  0  0  0  0  0  0  0
    6.8753   -8.9224    0.0000 C   0  0  0  0  0  0  0  0  0  0  0  0
  1  2  1  0  0  0  0
  2  3  1  0  0  0  0
  3  4  1  0  0  0  0
  4  5  1  0  0  0  0
  5  6  1  0  0  0  0
  6  7  2  0  0  0  0
  7  8  1  0  0  0  0
  8  9  1  0  0  0  0
  9 10  1  0  0  0  0
  1 10  1  0  0  0  0
  5 10  1  0  0  0  0
  5 11  1  0  0  0  0
 12 13  1  0  0  0  0
 13 14  1  0  0  0  0
  6 13  1  0  0  0  0
  3 15  2  0  0  0  0
  9 16  1  0  0  0  0
M  END
>  <cdx:fragmentId>
31026

$$$$
