535386.cdx
  Mrv1902 05222410192D          

 17 18  0  0  0  0            999 V2000
   16.1832   -9.1075    0.0000 C   0  0  0  0  0  0  0  0  0  0  0  0
   16.8977   -9.5200    0.0000 C   0  0  0  0  0  0  0  0  0  0  0  0
   17.6122   -9.1075    0.0000 C   0  0  0  0  0  0  0  0  0  0  0  0
   17.6122   -8.2825    0.0000 C   0  0  0  0  0  0  0  0  0  0  0  0
   16.8977   -7.8700    0.0000 C   0  0  0  0  0  0  0  0  0  0  0  0
   16.1832   -8.2825    0.0000 C   0  0  0  0  0  0  0  0  0  0  0  0
   15.4688   -7.8700    0.0000 C   0  0  0  0  0  0  0  0  0  0  0  0
   14.7543   -8.2825    0.0000 C   0  0  0  0  0  0  0  0  0  0  0  0
   14.7543   -9.1075    0.0000 C   0  0  0  0  0  0  0  0  0  0  0  0
   15.4688   -9.5200    0.0000 C   0  0  0  0  0  0  0  0  0  0  0  0
   14.0398   -7.8700    0.0000 C   0  0  0  0  0  0  0  0  0  0  0  0
   13.3253   -8.2825    0.0000 C   0  0  0  0  0  0  0  0  0  0  0  0
   12.6109   -7.8700    0.0000 O   0  0  0  0  0  0  0  0  0  0  0  0
   14.0398   -7.0450    0.0000 C   0  0  0  0  0  0  0  0  0  0  0  0
   18.3266   -9.5200    0.0000 O   0  0  0  0  0  0  0  0  0  0  0  0
   16.8977   -7.0450    0.0000 C   0  0  0  0  0  0  0  0  0  0  0  0
   16.1832   -9.9325    0.0000 C   0  0  0  0  0  0  0  0  0  0  0  0
  1  2  1  0  0  0  0
  2  3  1  0  0  0  0
  3  4  1  0  0  0  0
  4  5  1  0  0  0  0
  5  6  2  0  0  0  0
  6  7  1  0  0  0  0
  7  8  1  0  0  0  0
  8  9  1  0  0  0  0
  9 10  1  0  0  0  0
  1 10  1  0  0  0  0
  1  6  1  0  0  0  0
 11 12  1  0  0  0  0
 12 13  1  0  0  0  0
 11 14  2  0  0  0  0
  8 11  1  0  0  0  0
  3 15  1  0  0  0  0
  5 16  1  0  0  0  0
  1 17  1  0  0  0  0
M  END
>  <cdx:groupId>
31127

>  <cdx:fragmentId>
31078

$$$$
