535585.cdx
  Mrv1902 05222410192D          

 10  9  0  0  0  0            999 V2000
    8.3472   -9.6726    0.0000 C   0  0  0  0  0  0  0  0  0  0  0  0
    7.6327  -10.0851    0.0000 C   0  0  2  0  0  0  0  0  0  0  0  0
    6.9183   -9.6726    0.0000 C   0  0  1  0  0  0  0  0  0  0  0  0
    8.3472   -8.8476    0.0000 O   0  0  0  0  0  0  0  0  0  0  0  0
    9.0617  -10.0851    0.0000 O   0  0  0  0  0  0  0  0  0  0  0  0
    6.9183   -8.8476    0.0000 C   0  0  0  0  0  0  0  0  0  0  0  0
    5.4893   -9.6726    0.0000 O   0  0  0  0  0  0  0  0  0  0  0  0
    7.6327  -10.9101    0.0000 N   0  0  0  0  0  0  0  0  0  0  0  0
    6.2038  -10.9101    0.0000 C   0  0  0  0  0  0  0  0  0  0  0  0
    6.2038  -10.0851    0.0000 C   0  0  0  0  0  0  0  0  0  0  0  0
 10  7  1  0  0  0  0
 10  9  1  0  0  0  0
  1  2  1  0  0  0  0
  2  3  1  0  0  0  0
  3 10  1  0  0  0  0
  1  4  2  0  0  0  0
  1  5  1  0  0  0  0
  3  6  1  6  0  0  0
  2  8  1  1  0  0  0
M  END
>  <cdx:groupId>
3007

>  <cdx:fragmentId>
2981

$$$$
