535560.cdx
  Mrv1902 05222410262D          

 33 32  0  0  0  0            999 V2000
   15.7830   -8.3001    0.0000 C   0  0  0  0  0  0  0  0  0  0  0  0
   16.4975   -8.7126    0.0000 C   0  0  0  0  0  0  0  0  0  0  0  0
   17.2120   -9.1251    0.0000 C   0  0  0  0  0  0  0  0  0  0  0  0
   17.9265   -9.5376    0.0000 C   0  0  0  0  0  0  0  0  0  0  0  0
   18.6409   -9.1251    0.0000 C   0  0  0  0  0  0  0  0  0  0  0  0
   19.3554   -9.5376    0.0000 C   0  0  0  0  0  0  0  0  0  0  0  0
   20.0699   -9.1251    0.0000 C   0  0  0  0  0  0  0  0  0  0  0  0
   20.7843   -9.5376    0.0000 C   0  0  0  0  0  0  0  0  0  0  0  0
   21.4988   -9.1251    0.0000 C   0  0  0  0  0  0  0  0  0  0  0  0
   22.2133   -9.5376    0.0000 C   0  0  0  0  0  0  0  0  0  0  0  0
   22.9278   -9.1251    0.0000 C   0  0  0  0  0  0  0  0  0  0  0  0
   23.6422   -9.5376    0.0000 C   0  0  0  0  0  0  0  0  0  0  0  0
   24.3567   -9.1251    0.0000 C   0  0  0  0  0  0  0  0  0  0  0  0
   25.0712   -9.5376    0.0000 C   0  0  0  0  0  0  0  0  0  0  0  0
   15.7830   -7.4751    0.0000 O   0  0  0  0  0  0  0  0  0  0  0  0
   15.0686   -8.7126    0.0000 S   0  0  0  0  0  0  0  0  0  0  0  0
   14.3541   -8.3001    0.0000 C   0  0  0  0  0  0  0  0  0  0  0  0
   13.6396   -8.7126    0.0000 C   0  0  0  0  0  0  0  0  0  0  0  0
   12.9252   -8.3001    0.0000 N   0  0  0  0  0  0  0  0  0  0  0  0
   12.2107   -8.7126    0.0000 C   0  0  0  0  0  0  0  0  0  0  0  0
   11.4962   -8.3001    0.0000 C   0  0  0  0  0  0  0  0  0  0  0  0
   10.7818   -8.7126    0.0000 C   0  0  0  0  0  0  0  0  0  0  0  0
   12.2107   -9.5376    0.0000 O   0  0  0  0  0  0  0  0  0  0  0  0
   10.0673   -8.3001    0.0000 N   0  0  0  0  0  0  0  0  0  0  0  0
    9.3528   -8.7126    0.0000 C   0  0  0  0  0  0  0  0  0  0  0  0
    8.6383   -8.3001    0.0000 C   0  0  0  0  0  0  0  0  0  0  0  0
    7.9239   -8.7126    0.0000 C   0  0  0  0  0  0  0  0  0  0  0  0
    7.2094   -8.3001    0.0000 C   0  0  0  0  0  0  0  0  0  0  0  0
    9.3528   -9.5376    0.0000 O   0  0  0  0  0  0  0  0  0  0  0  0
    7.5114   -9.4271    0.0000 C   0  0  0  0  0  0  0  0  0  0  0  0
    8.3364   -9.4271    0.0000 C   0  0  0  0  0  0  0  0  0  0  0  0
    6.4949   -8.7126    0.0000 O   0  0  0  0  0  0  0  0  0  0  0  0
    8.6383   -7.4751    0.0000 O   0  0  0  0  0  0  0  0  0  0  0  0
  1  2  1  0  0  0  0
  2  3  3  0  0  0  0
  3  4  1  0  0  0  0
  4  5  1  0  0  0  0
  5  6  1  0  0  0  0
  6  7  1  0  0  0  0
  7  8  1  0  0  0  0
  8  9  1  0  0  0  0
  9 10  1  0  0  0  0
 10 11  1  0  0  0  0
 11 12  1  0  0  0  0
 12 13  1  0  0  0  0
 13 14  1  0  0  0  0
  1 15  2  0  0  0  0
  1 16  1  0  0  0  0
 17 18  1  0  0  0  0
 20 21  1  0  0  0  0
 21 22  1  0  0  0  0
 20 23  2  0  0  0  0
 25 26  1  0  0  0  0
 26 27  1  0  0  0  0
 27 28  1  0  0  0  0
 25 29  2  0  0  0  0
 27 30  1  0  0  0  0
 27 31  1  0  0  0  0
 28 32  1  0  0  0  0
 26 33  1  0  0  0  0
 24 25  1  0  0  0  0
 22 24  1  0  0  0  0
 19 20  1  0  0  0  0
 18 19  1  0  0  0  0
 16 17  1  0  0  0  0
M  END
>  <cdx:groupId>
31230

>  <cdx:fragmentId>
31183

$$$$
