536384.cdx
  Mrv1902 05222410252D          

 17 19  0  0  0  0            999 V2000
    5.9747   -8.5826    0.0000 O   0  0  0  0  0  0  0  0  0  0  0  0
    5.1825   -6.2584    0.0000 O   0  0  0  0  0  0  0  0  0  0  0  0
    7.7039   -6.2986    0.0000 C   0  0  0  0  0  0  0  0  0  0  0  0
    7.0672   -5.7740    0.0000 C   0  0  0  0  0  0  0  0  0  0  0  0
    6.2600   -5.9448    0.0000 C   0  0  0  0  0  0  0  0  0  0  0  0
    5.1693   -7.0833    0.0000 C   0  0  0  0  0  0  0  0  0  0  0  0
    5.8903   -6.6822    0.0000 C   0  0  0  0  0  0  0  0  0  0  0  0
    6.6442   -6.4411    0.0000 C   0  0  0  0  0  0  0  0  0  0  0  0
    6.2363   -7.4312    0.0000 C   0  0  0  0  0  0  0  0  0  0  0  0
    7.5890   -8.2412    0.0000 C   0  0  0  0  0  0  0  0  0  0  0  0
    6.7819   -8.4119    0.0000 C   0  0  0  0  0  0  0  0  0  0  0  0
    7.0376   -7.6275    0.0000 C   0  0  0  0  0  0  0  0  0  0  0  0
    7.6907   -7.1235    0.0000 C   0  0  0  0  0  0  0  0  0  0  0  0
    8.4712   -7.3909    0.0000 C   0  0  0  0  0  0  0  0  0  0  0  0
    8.9667   -6.7313    0.0000 C   0  0  0  0  0  0  0  0  0  0  0  0
    8.7599   -5.2758    0.0000 C   0  0  0  0  0  0  0  0  0  0  0  0
    8.4925   -6.0562    0.0000 C   0  0  0  0  0  0  0  0  0  0  0  0
 11  1  1  0  0  0  0
  7  2  1  0  0  0  0
  3  8  1  0  0  0  0
 13  3  1  0  0  0  0
 17  3  1  0  0  0  0
  4  3  1  0  0  0  0
  5  4  1  0  0  0  0
  7  5  1  0  0  0  0
  7  6  1  0  0  0  0
  9  7  1  0  0  0  0
  9  8  1  0  0  0  0
 12  9  1  0  0  0  0
 12 10  1  0  0  0  0
 12 11  1  0  0  0  0
 13 12  1  0  0  0  0
 14 13  1  0  0  0  0
 15 14  1  0  0  0  0
 17 15  1  0  0  0  0
 17 16  1  0  0  0  0
M  END
>  <cdx:fragmentId>
31333

$$$$
