536461.cdx
  Mrv1902 05222410202D          

 12 11  0  0  0  0            999 V2000
    4.9109   -7.2702    0.0000 C   0  0  0  0  0  0  0  0  0  0  0  0
    5.6253   -6.8577    0.0000 C   0  0  0  0  0  0  0  0  0  0  0  0
    6.3398   -7.2702    0.0000 C   0  0  0  0  0  0  0  0  0  0  0  0
    7.0543   -6.8577    0.0000 C   0  0  0  0  0  0  0  0  0  0  0  0
    7.7688   -7.2702    0.0000 C   0  0  0  0  0  0  0  0  0  0  0  0
    8.4832   -6.8577    0.0000 C   0  0  0  0  0  0  0  0  0  0  0  0
    9.1977   -7.2702    0.0000 C   0  0  0  0  0  0  0  0  0  0  0  0
    9.9122   -6.8577    0.0000 C   0  0  0  0  0  0  0  0  0  0  0  0
    9.9122   -6.0327    0.0000 C   0  0  0  0  0  0  0  0  0  0  0  0
    6.6418   -6.1432    0.0000 O   0  0  0  0  0  0  0  0  0  0  0  0
   10.6266   -7.2702    0.0000 C   0  0  0  0  0  0  0  0  0  0  0  0
    7.4668   -6.1432    0.0000 C   0  0  0  0  0  0  0  0  0  0  0  0
  1  2  2  0  0  0  0
  2  3  1  0  0  0  0
  3  4  1  0  0  0  0
  4  5  1  0  0  0  0
  5  6  1  0  0  0  0
  6  7  1  0  0  0  0
  7  8  2  0  0  0  0
  8  9  1  0  0  0  0
  4 10  1  0  0  0  0
  8 11  1  0  0  0  0
  4 12  1  0  0  0  0
M  END
>  <cdx:fragmentId>
31394

$$$$
