536617.cdx
  Mrv1902 05222410222D          

 16 18  0  0  0  0            999 V2000
   14.6073   -8.0444    0.0000 C   0  0  0  0  0  0  0  0  0  0  0  0
   14.1782   -8.7089    0.0000 C   0  0  0  0  0  0  0  0  0  0  0  0
   14.8897   -9.9414    0.0000 O   0  0  0  0  0  0  0  0  0  0  0  0
   16.7507   -9.2819    0.0000 C   0  0  0  0  0  0  0  0  0  0  0  0
   17.4652   -8.8694    0.0000 C   0  0  0  0  0  0  0  0  0  0  0  0
   17.4652   -8.0444    0.0000 C   0  0  0  0  0  0  0  0  0  0  0  0
   16.7507   -7.6319    0.0000 C   0  0  0  0  0  0  0  0  0  0  0  0
   16.0363   -8.0444    0.0000 C   0  0  0  0  0  0  0  0  0  0  0  0
   16.0363   -8.8694    0.0000 C   0  0  0  0  0  0  0  0  0  0  0  0
   15.3218   -9.2819    0.0000 C   0  0  0  0  0  0  0  0  0  0  0  0
   14.6073   -8.8694    0.0000 C   0  0  0  0  0  0  0  0  0  0  0  0
   15.3218   -7.6319    0.0000 C   0  0  0  0  0  0  0  0  0  0  0  0
   15.3218   -8.4569    0.0000 C   0  0  0  0  0  0  0  0  0  0  0  0
   16.7507   -6.8069    0.0000 C   0  0  0  0  0  0  0  0  0  0  0  0
   13.4637   -9.1214    0.0000 C   0  0  0  0  0  0  0  0  0  0  0  0
   13.4637   -8.2964    0.0000 C   0  0  0  0  0  0  0  0  0  0  0  0
  1  2  1  0  0  0  0
  2  3  1  0  0  0  0
  3  4  1  0  0  0  0
  4  5  1  0  0  0  0
  5  6  1  0  0  0  0
  6  7  1  0  0  0  0
  7  8  1  0  0  0  0
  8  9  1  0  0  0  0
  9 10  1  0  0  0  0
 10 11  1  0  0  0  0
  1 11  1  0  0  0  0
  1 12  1  0  0  0  0
 12  8  1  0  0  0  0
  4  9  1  0  0  0  0
  9 13  1  0  0  0  0
  7 14  1  0  0  0  0
  2 15  1  0  0  0  0
  2 16  1  0  0  0  0
M  END
>  <cdx:groupId>
31538

>  <cdx:fragmentId>
31491

$$$$
