6536796.cdx
  Mrv1902 05222410252D          

 16 16  0  0  0  0            999 V2000
    4.5351  -13.2162    0.0000 C   0  0  0  0  0  0  0  0  0  0  0  0
    5.2496  -13.6287    0.0000 C   0  0  0  0  0  0  0  0  0  0  0  0
    5.9640  -13.2162    0.0000 C   0  0  0  0  0  0  0  0  0  0  0  0
    6.6785  -13.6287    0.0000 C   0  0  0  0  0  0  0  0  0  0  0  0
    7.3930  -13.2162    0.0000 C   0  0  0  0  0  0  0  0  0  0  0  0
    8.1075  -13.6287    0.0000 C   0  0  0  0  0  0  0  0  0  0  0  0
    8.1075  -14.4537    0.0000 C   0  0  0  0  0  0  0  0  0  0  0  0
    3.8206  -13.6287    0.0000 O   0  0  0  0  0  0  0  0  0  0  0  0
    8.8219  -13.2162    0.0000 C   0  0  0  0  0  0  0  0  0  0  0  0
    8.8219  -12.3912    0.0000 C   0  0  0  0  0  0  0  0  0  0  0  0
    9.5364  -11.9787    0.0000 C   0  0  0  0  0  0  0  0  0  0  0  0
   10.2509  -12.3912    0.0000 C   0  0  0  0  0  0  0  0  0  0  0  0
   10.2509  -13.2162    0.0000 C   0  0  0  0  0  0  0  0  0  0  0  0
    9.5364  -13.6287    0.0000 C   0  0  0  0  0  0  0  0  0  0  0  0
   10.9653  -11.9787    0.0000 C   0  0  0  0  0  0  0  0  0  0  0  0
    5.2496  -14.4537    0.0000 C   0  0  0  0  0  0  0  0  0  0  0  0
  1  2  1  0  0  0  0
  2  3  2  0  0  0  0
  3  4  1  0  0  0  0
  4  5  1  0  0  0  0
  5  6  1  0  0  0  0
  6  7  2  0  0  0  0
  1  8  1  0  0  0  0
  9 10  1  0  0  0  0
 10 11  1  0  0  0  0
 11 12  2  0  0  0  0
 12 13  1  0  0  0  0
 13 14  1  0  0  0  0
  9 14  1  0  0  0  0
 12 15  1  0  0  0  0
  6  9  1  0  0  0  0
  2 16  1  0  0  0  0
M  END
>  <cdx:groupId>
25466

>  <cdx:fragmentId>
25421

$$$$
