537071.cdx
  Mrv1902 05222410252D          

 38 37  0  0  0  0            999 V2000
    3.2798   -8.1778    0.0000 C   0  0  0  0  0  0  0  0  0  0  0  0
    3.9943   -8.5903    0.0000 C   0  0  0  0  0  0  0  0  0  0  0  0
    4.7087   -8.1778    0.0000 C   0  0  0  0  0  0  0  0  0  0  0  0
    5.4232   -8.5903    0.0000 C   0  0  0  0  0  0  0  0  0  0  0  0
    6.1377   -8.1778    0.0000 C   0  0  0  0  0  0  0  0  0  0  0  0
    6.8522   -8.5903    0.0000 C   0  0  0  0  0  0  0  0  0  0  0  0
    7.5666   -8.1778    0.0000 C   0  0  0  0  0  0  0  0  0  0  0  0
    8.2811   -8.5903    0.0000 C   0  0  0  0  0  0  0  0  0  0  0  0
    8.9956   -8.1778    0.0000 C   0  0  0  0  0  0  0  0  0  0  0  0
    9.7100   -8.5903    0.0000 C   0  0  0  0  0  0  0  0  0  0  0  0
   10.4245   -8.1778    0.0000 C   0  0  0  0  0  0  0  0  0  0  0  0
   11.1390   -8.5903    0.0000 C   0  0  0  0  0  0  0  0  0  0  0  0
   11.8535   -8.1778    0.0000 C   0  0  0  0  0  0  0  0  0  0  0  0
   12.5679   -8.5903    0.0000 C   0  0  0  0  0  0  0  0  0  0  0  0
   13.2824   -8.1778    0.0000 C   0  0  0  0  0  0  0  0  0  0  0  0
   13.9969   -8.5903    0.0000 C   0  0  0  0  0  0  0  0  0  0  0  0
   14.7113   -8.1778    0.0000 C   0  0  0  0  0  0  0  0  0  0  0  0
   15.4258   -8.5903    0.0000 C   0  0  0  0  0  0  0  0  0  0  0  0
   16.1403   -8.1778    0.0000 C   0  0  0  0  0  0  0  0  0  0  0  0
   16.8548   -8.5903    0.0000 C   0  0  0  0  0  0  0  0  0  0  0  0
   17.5692   -8.1778    0.0000 C   0  0  0  0  0  0  0  0  0  0  0  0
   18.2837   -8.5903    0.0000 C   0  0  0  0  0  0  0  0  0  0  0  0
   18.9982   -8.1778    0.0000 C   0  0  0  0  0  0  0  0  0  0  0  0
   19.7126   -8.5903    0.0000 C   0  0  0  0  0  0  0  0  0  0  0  0
   20.4271   -8.1778    0.0000 C   0  0  0  0  0  0  0  0  0  0  0  0
   21.1416   -8.5903    0.0000 C   0  0  0  0  0  0  0  0  0  0  0  0
   21.8561   -8.1778    0.0000 C   0  0  0  0  0  0  0  0  0  0  0  0
   22.5705   -8.5903    0.0000 C   0  0  0  0  0  0  0  0  0  0  0  0
   23.2850   -8.1778    0.0000 C   0  0  0  0  0  0  0  0  0  0  0  0
   23.9995   -8.5903    0.0000 C   0  0  0  0  0  0  0  0  0  0  0  0
   24.7139   -8.1778    0.0000 C   0  0  0  0  0  0  0  0  0  0  0  0
   25.4284   -8.5903    0.0000 C   0  0  0  0  0  0  0  0  0  0  0  0
   26.1429   -8.1778    0.0000 C   0  0  0  0  0  0  0  0  0  0  0  0
   26.8573   -8.5903    0.0000 C   0  0  0  0  0  0  0  0  0  0  0  0
   27.5718   -8.1778    0.0000 C   0  0  0  0  0  0  0  0  0  0  0  0
   28.2863   -8.5903    0.0000 C   0  0  0  0  0  0  0  0  0  0  0  0
   29.0008   -8.1778    0.0000 C   0  0  0  0  0  0  0  0  0  0  0  0
    2.5653   -8.5903    0.0000 O   0  0  0  0  0  0  0  0  0  0  0  0
  1  2  1  0  0  0  0
  2  3  1  0  0  0  0
  3  4  1  0  0  0  0
  4  5  1  0  0  0  0
  5  6  1  0  0  0  0
  6  7  1  0  0  0  0
  7  8  1  0  0  0  0
  8  9  1  0  0  0  0
  9 10  1  0  0  0  0
 10 11  1  0  0  0  0
 11 12  1  0  0  0  0
 12 13  1  0  0  0  0
 13 14  1  0  0  0  0
 14 15  1  0  0  0  0
 15 16  1  0  0  0  0
 16 17  1  0  0  0  0
 17 18  1  0  0  0  0
 18 19  1  0  0  0  0
 19 20  1  0  0  0  0
 20 21  1  0  0  0  0
 21 22  1  0  0  0  0
 22 23  1  0  0  0  0
 23 24  1  0  0  0  0
 24 25  1  0  0  0  0
 25 26  1  0  0  0  0
 26 27  1  0  0  0  0
 27 28  1  0  0  0  0
 28 29  1  0  0  0  0
 29 30  1  0  0  0  0
 30 31  1  0  0  0  0
 31 32  1  0  0  0  0
 32 33  1  0  0  0  0
 33 34  1  0  0  0  0
 34 35  1  0  0  0  0
 35 36  1  0  0  0  0
 36 37  1  0  0  0  0
  1 38  1  0  0  0  0
M  END
>  <cdx:groupId>
31657

>  <cdx:fragmentId>
31547

$$$$
