537361.cdx
  Mrv1902 05222410272D          

 27 30  0  0  0  0            999 V2000
    7.3766   -9.1153    0.0000 H   0  0  0  0  0  0  0  0  0  0  0  0
    7.0045   -4.4168    0.0000 C   0  0  0  0  0  0  0  0  0  0  0  0
    5.2975   -4.9714    0.0000 O   0  0  0  0  0  0  0  0  0  0  0  0
    5.9649   -5.4564    0.0000 C   0  0  0  0  0  0  0  0  0  0  0  0
    6.7495   -5.2014    0.0000 C   0  0  2  0  0  0  0  0  0  0  0  0
    7.2345   -5.8689    0.0000 C   0  0  0  0  0  0  0  0  0  0  0  0
    6.7495   -6.5363    0.0000 C   0  0  2  0  0  0  0  0  0  0  0  0
    5.9649   -6.2814    0.0000 O   0  0  0  0  0  0  0  0  0  0  0  0
    7.0045   -7.3209    0.0000 C   0  0  2  0  0  0  0  0  0  0  0  0
    6.5196   -7.9884    0.0000 C   0  0  0  0  0  0  0  0  0  0  0  0
    7.0045   -8.6558    0.0000 C   0  0  0  0  0  0  0  0  0  0  0  0
    8.4341   -7.0615    0.0000 C   0  0  0  0  0  0  0  0  0  0  0  0
    9.2384   -7.2451    0.0000 C   0  0  0  0  0  0  0  0  0  0  0  0
    9.5964   -7.9884    0.0000 C   0  0  0  0  0  0  0  0  0  0  0  0
    9.2384   -8.7317    0.0000 C   0  0  0  0  0  0  0  0  0  0  0  0
    8.4341   -8.9152    0.0000 C   0  0  1  0  0  0  0  0  0  0  0  0
    7.7891   -8.4009    0.0000 C   0  0  1  0  0  0  0  0  0  0  0  0
    7.7891   -7.5759    0.0000 N   0  0  0  0  0  0  0  0  0  0  0  0
    6.0351   -6.9488    0.0000 H   0  0  0  0  0  0  0  0  0  0  0  0
    6.1795   -7.3209    0.0000 H   0  0  0  0  0  0  0  0  0  0  0  0
    7.6755   -9.2395    0.0000 O   0  0  0  0  0  0  0  0  0  0  0  0
    7.7495  -10.0612    0.0000 C   0  0  0  0  0  0  0  0  0  0  0  0
    8.5538  -10.2447    0.0000 C   0  0  1  0  0  0  0  0  0  0  0  0
    8.9769   -9.5365    0.0000 C   0  0  1  0  0  0  0  0  0  0  0  0
    9.7986   -9.4626    0.0000 O   0  0  0  0  0  0  0  0  0  0  0  0
    8.8780  -11.0034    0.0000 C   0  0  0  0  0  0  0  0  0  0  0  0
    7.1282  -10.6040    0.0000 O   0  0  0  0  0  0  0  0  0  0  0  0
 17  1  1  1  0  0  0
  9  7  1  0  0  0  0
  5  2  1  1  0  0  0
  4  3  2  0  0  0  0
  8  4  1  0  0  0  0
  5  4  1  0  0  0  0
  6  5  1  0  0  0  0
  7  6  1  0  0  0  0
  7  8  1  0  0  0  0
 11 17  1  0  0  0  0
  9 18  1  0  0  0  0
  9 10  1  0  0  0  0
 11 10  1  0  0  0  0
 18 12  1  0  0  0  0
 13 12  1  0  0  0  0
 14 13  1  0  0  0  0
 15 14  1  0  0  0  0
 16 15  1  0  0  0  0
 17 16  1  0  0  0  0
 18 17  1  0  0  0  0
  7 19  1  6  0  0  0
  9 20  1  6  0  0  0
 16 21  1  6  0  0  0
 21 22  1  0  0  0  0
 22 23  1  0  0  0  0
 23 24  1  0  0  0  0
 24 16  1  0  0  0  0
 24 25  1  6  0  0  0
 23 26  1  1  0  0  0
 22 27  2  0  0  0  0
M  END
>  <cdx:fragmentId>
74328

$$$$
