537408.cdx
  Mrv1902 05222410202D          

 11 10  0  0  0  0            999 V2000
   18.9982   -9.2298    0.0000 C   0  0  0  0  0  0  0  0  0  0  0  0
   18.2837   -8.8173    0.0000 C   0  0  0  0  0  0  0  0  0  0  0  0
   17.5692   -9.2298    0.0000 C   0  0  0  0  0  0  0  0  0  0  0  0
   16.8548   -8.8173    0.0000 C   0  0  0  0  0  0  0  0  0  0  0  0
   16.1403   -9.2298    0.0000 C   0  0  0  0  0  0  0  0  0  0  0  0
   15.4258   -8.8173    0.0000 C   0  0  0  0  0  0  0  0  0  0  0  0
   14.7113   -9.2298    0.0000 C   0  0  0  0  0  0  0  0  0  0  0  0
   13.9969   -8.8173    0.0000 C   0  0  0  0  0  0  0  0  0  0  0  0
   13.2824   -9.2298    0.0000 C   0  0  0  0  0  0  0  0  0  0  0  0
   18.2837   -7.9923    0.0000 O   0  0  0  0  0  0  0  0  0  0  0  0
   12.5679   -8.8173    0.0000 O   0  0  0  0  0  0  0  0  0  0  0  0
  1  2  1  0  0  0  0
  2  3  1  0  0  0  0
  3  4  1  0  0  0  0
  4  5  1  0  0  0  0
  5  6  1  0  0  0  0
  6  7  1  0  0  0  0
  7  8  1  0  0  0  0
  8  9  1  0  0  0  0
  2 10  2  0  0  0  0
  9 11  1  0  0  0  0
M  END
>  <cdx:groupId>
31772

>  <cdx:fragmentId>
31743

$$$$
