537551.cdx
  Mrv1902 05222410182D          

 10 10  0  0  0  0            999 V2000
    8.0096   -6.0412    0.0000 C   0  0  0  0  0  0  0  0  0  0  0  0
    7.2952   -6.4537    0.0000 C   0  0  0  0  0  0  0  0  0  0  0  0
    6.5807   -6.0412    0.0000 C   0  0  0  0  0  0  0  0  0  0  0  0
    6.5807   -5.2162    0.0000 C   0  0  0  0  0  0  0  0  0  0  0  0
    7.2952   -4.8037    0.0000 C   0  0  0  0  0  0  0  0  0  0  0  0
    8.0096   -5.2162    0.0000 C   0  0  0  0  0  0  0  0  0  0  0  0
    8.7241   -6.4537    0.0000 C   0  0  0  0  0  0  0  0  0  0  0  0
    9.4386   -6.0412    0.0000 O   0  0  0  0  0  0  0  0  0  0  0  0
    5.8662   -4.8037    0.0000 C   0  0  0  0  0  0  0  0  0  0  0  0
    5.8662   -6.4537    0.0000 C   0  0  0  0  0  0  0  0  0  0  0  0
  1  2  1  0  0  0  0
  2  3  1  0  0  0  0
  3  4  2  0  0  0  0
  4  5  1  0  0  0  0
  5  6  1  0  0  0  0
  1  6  1  0  0  0  0
  7  8  2  0  0  0  0
  1  7  1  0  0  0  0
  4  9  1  0  0  0  0
  3 10  1  0  0  0  0
M  END
>  <cdx:fragmentId>
31780

$$$$
