538033.cdx
  Mrv1902 05222410232D          

 13 12  0  0  0  0            999 V2000
    3.0791   -6.7905    0.0000 C   0  0  0  0  0  0  0  0  0  0  0  0
    3.7935   -7.2030    0.0000 C   0  0  0  0  0  0  0  0  0  0  0  0
    4.5080   -7.6155    0.0000 C   0  0  0  0  0  0  0  0  0  0  0  0
    5.2225   -7.2030    0.0000 C   0  0  0  0  0  0  0  0  0  0  0  0
    5.9369   -7.6155    0.0000 C   0  0  0  0  0  0  0  0  0  0  0  0
    6.6514   -7.2030    0.0000 C   0  0  0  0  0  0  0  0  0  0  0  0
    7.3659   -7.6155    0.0000 C   0  0  0  0  0  0  0  0  0  0  0  0
    8.0804   -7.2030    0.0000 C   0  0  0  0  0  0  0  0  0  0  0  0
    8.7948   -7.6155    0.0000 C   0  0  0  0  0  0  0  0  0  0  0  0
    9.5093   -7.2030    0.0000 C   0  0  0  0  0  0  0  0  0  0  0  0
   10.2238   -7.6155    0.0000 C   0  0  0  0  0  0  0  0  0  0  0  0
   10.9382   -7.2030    0.0000 C   0  0  0  0  0  0  0  0  0  0  0  0
   11.6527   -7.6155    0.0000 C   0  0  0  0  0  0  0  0  0  0  0  0
  1  2  3  0  0  0  0
  2  3  1  0  0  0  0
  3  4  2  0  0  0  0
  4  5  1  0  0  0  0
  5  6  1  0  0  0  0
  6  7  1  0  0  0  0
  7  8  1  0  0  0  0
  8  9  1  0  0  0  0
  9 10  1  0  0  0  0
 10 11  1  0  0  0  0
 11 12  1  0  0  0  0
 12 13  1  0  0  0  0
M  END
>  <cdx:fragmentId>
31814

$$$$
