538501.cdx
  Mrv1902 05222410182D          

 14 14  0  0  0  0            999 V2000
   17.6122   -8.1839    0.0000 C   0  0  0  0  0  0  0  0  0  0  0  0
   16.8977   -7.7714    0.0000 C   0  0  0  0  0  0  0  0  0  0  0  0
   16.1832   -8.1839    0.0000 C   0  0  0  0  0  0  0  0  0  0  0  0
   15.4688   -7.7714    0.0000 C   0  0  0  0  0  0  0  0  0  0  0  0
   14.7543   -7.3589    0.0000 C   0  0  0  0  0  0  0  0  0  0  0  0
   14.0398   -7.7714    0.0000 C   0  0  0  0  0  0  0  0  0  0  0  0
   13.3253   -7.3589    0.0000 C   0  0  0  0  0  0  0  0  0  0  0  0
   16.8977   -6.9464    0.0000 O   0  0  0  0  0  0  0  0  0  0  0  0
   14.0398   -8.5964    0.0000 C   0  0  0  0  0  0  0  0  0  0  0  0
   16.1832   -9.0089    0.0000 C   0  0  0  0  0  0  0  0  0  0  0  0
   15.5158   -9.4938    0.0000 C   0  0  0  0  0  0  0  0  0  0  0  0
   15.7707  -10.2784    0.0000 C   0  0  0  0  0  0  0  0  0  0  0  0
   16.5957  -10.2784    0.0000 C   0  0  0  0  0  0  0  0  0  0  0  0
   16.8507   -9.4938    0.0000 C   0  0  0  0  0  0  0  0  0  0  0  0
  1  2  1  0  0  0  0
  2  3  1  0  0  0  0
  3  4  2  0  0  0  0
  4  5  2  0  0  0  0
  5  6  1  0  0  0  0
  6  7  1  0  0  0  0
  2  8  2  0  0  0  0
  6  9  1  0  0  0  0
 10 11  1  0  0  0  0
 11 12  1  0  0  0  0
 12 13  1  0  0  0  0
 13 14  1  0  0  0  0
 10 14  1  0  0  0  0
  3 10  1  0  0  0  0
M  END
>  <cdx:groupId>
31953

>  <cdx:fragmentId>
31914

$$$$
