538757.cdx
  Mrv1902 05222410242D          

 10 10  0  0  0  0            999 V2000
   15.3077   -7.6020    0.0000 O   0  0  0  0  0  0  0  0  0  0  0  0
   15.9752   -8.0869    0.0000 C   0  0  0  0  0  0  0  0  0  0  0  0
   15.7202   -8.8715    0.0000 C   0  0  0  0  0  0  0  0  0  0  0  0
   14.8952   -8.8715    0.0000 C   0  0  0  0  0  0  0  0  0  0  0  0
   14.6403   -8.0869    0.0000 C   0  0  0  0  0  0  0  0  0  0  0  0
   16.2052   -9.5390    0.0000 O   0  0  0  0  0  0  0  0  0  0  0  0
   13.8557   -7.8320    0.0000 C   0  0  0  0  0  0  0  0  0  0  0  0
   16.7821   -8.2584    0.0000 C   0  0  0  0  0  0  0  0  0  0  0  0
   14.4103   -9.5390    0.0000 O   0  0  0  0  0  0  0  0  0  0  0  0
   16.5272   -7.4738    0.0000 O   0  0  0  0  0  0  0  0  0  0  0  0
  1  2  1  0  0  0  0
  2  3  1  0  0  0  0
  3  4  1  0  0  0  0
  4  5  2  0  0  0  0
  1  5  1  0  0  0  0
  3  6  2  0  0  0  0
  5  7  1  0  0  0  0
  2  8  1  0  0  0  0
  4  9  1  0  0  0  0
  2 10  1  0  0  0  0
M  END
>  <cdx:groupId>
32032

>  <cdx:fragmentId>
32005

$$$$
