538920.cdx
  Mrv1902 05222410202D          

 15 15  0  0  0  0            999 V2000
   13.5752   -8.1985    0.0000 C   0  0  0  0  0  0  0  0  0  0  0  0
   12.8607   -8.6110    0.0000 C   0  0  0  0  0  0  0  0  0  0  0  0
   13.5752   -7.3735    0.0000 O   0  0  0  0  0  0  0  0  0  0  0  0
   14.2896   -8.6110    0.0000 O   0  0  0  0  0  0  0  0  0  0  0  0
   14.5916   -7.4841    0.0000 C   0  0  0  0  0  0  0  0  0  0  0  0
   15.0041   -8.1985    0.0000 C   0  0  0  0  0  0  0  0  0  0  0  0
   15.4166   -7.4841    0.0000 C   0  0  0  0  0  0  0  0  0  0  0  0
   15.7186   -8.6110    0.0000 C   0  0  0  0  0  0  0  0  0  0  0  0
   15.7186   -9.4360    0.0000 C   0  0  0  0  0  0  0  0  0  0  0  0
   16.4330   -9.8485    0.0000 C   0  0  0  0  0  0  0  0  0  0  0  0
   17.1475   -9.4360    0.0000 C   0  0  0  0  0  0  0  0  0  0  0  0
   17.1475   -8.6110    0.0000 C   0  0  0  0  0  0  0  0  0  0  0  0
   16.4330   -8.1985    0.0000 C   0  0  0  0  0  0  0  0  0  0  0  0
   17.8620   -8.1985    0.0000 O   0  0  0  0  0  0  0  0  0  0  0  0
   17.8620   -9.8485    0.0000 C   0  0  0  0  0  0  0  0  0  0  0  0
  1  2  1  0  0  0  0
  1  3  2  0  0  0  0
  1  4  1  0  0  0  0
  5  6  1  0  0  0  0
  6  7  1  0  0  0  0
  8  9  1  0  0  0  0
  9 10  1  0  0  0  0
 10 11  2  0  0  0  0
 11 12  1  0  0  0  0
 12 13  1  0  0  0  0
  8 13  1  0  0  0  0
 12 14  2  0  0  0  0
 11 15  1  0  0  0  0
  6  8  1  0  0  0  0
  4  6  1  0  0  0  0
M  END
>  <cdx:groupId>
32080

>  <cdx:fragmentId>
32052

$$$$
