539044.cdx
  Mrv1902 05222410212D          

 13 13  0  0  0  0            999 V2000
    6.7945   -6.5591    0.0000 C   0  0  0  0  0  0  0  0  0  0  0  0
    6.7945   -5.7341    0.0000 C   0  0  0  0  0  0  0  0  0  0  0  0
    7.5089   -5.3216    0.0000 C   0  0  0  0  0  0  0  0  0  0  0  0
    8.2234   -5.7341    0.0000 C   0  0  0  0  0  0  0  0  0  0  0  0
    8.2234   -6.5591    0.0000 C   0  0  0  0  0  0  0  0  0  0  0  0
    7.5089   -6.9716    0.0000 C   0  0  0  0  0  0  0  0  0  0  0  0
    8.6359   -7.2736    0.0000 C   0  0  0  0  0  0  0  0  0  0  0  0
    6.0800   -5.3216    0.0000 C   0  0  0  0  0  0  0  0  0  0  0  0
    6.0800   -4.4966    0.0000 C   0  0  0  0  0  0  0  0  0  0  0  0
    5.3655   -5.7341    0.0000 C   0  0  0  0  0  0  0  0  0  0  0  0
    9.0484   -6.5591    0.0000 O   0  0  0  0  0  0  0  0  0  0  0  0
    7.5089   -7.7966    0.0000 O   0  0  0  0  0  0  0  0  0  0  0  0
    6.0800   -6.9716    0.0000 O   0  0  0  0  0  0  0  0  0  0  0  0
  1  2  1  0  0  0  0
  2  3  1  0  0  0  0
  3  4  1  0  0  0  0
  4  5  1  0  0  0  0
  5  6  1  0  0  0  0
  1  6  1  0  0  0  0
  5  7  1  0  0  0  0
  8  9  1  0  0  0  0
  8 10  1  0  0  0  0
  2  8  1  0  0  0  0
  5 11  1  0  0  0  0
  6 12  1  0  0  0  0
  1 13  1  0  0  0  0
M  END
>  <cdx:fragmentId>
32089

$$$$
