539264.cdx
  Mrv1902 05222410232D          

 13 14  0  0  0  0            999 V2000
    7.3467   -6.5595    0.0000 C   0  0  0  0  0  0  0  0  0  0  0  0
    6.5931   -6.2240    0.0000 C   0  0  0  0  0  0  0  0  0  0  0  0
    6.6483   -8.4599    0.0000 C   0  0  0  0  0  0  0  0  0  0  0  0
    6.1634   -7.7925    0.0000 C   0  0  0  0  0  0  0  0  0  0  0  0
    6.6483   -7.1251    0.0000 C   0  0  0  0  0  0  0  0  0  0  0  0
    7.4330   -7.3800    0.0000 C   0  0  0  0  0  0  0  0  0  0  0  0
    8.1474   -6.9675    0.0000 C   0  0  0  0  0  0  0  0  0  0  0  0
    8.8619   -7.3800    0.0000 C   0  0  0  0  0  0  0  0  0  0  0  0
    8.8619   -8.2050    0.0000 C   0  0  0  0  0  0  0  0  0  0  0  0
    8.1474   -8.6175    0.0000 C   0  0  0  0  0  0  0  0  0  0  0  0
    7.4330   -8.2050    0.0000 C   0  0  0  0  0  0  0  0  0  0  0  0
    5.3384   -7.7925    0.0000 C   0  0  0  0  0  0  0  0  0  0  0  0
    8.0142   -6.0746    0.0000 O   0  0  0  0  0  0  0  0  0  0  0  0
  1  2  1  0  0  0  0
  3  4  1  0  0  0  0
  4  5  1  0  0  0  0
  5  6  1  0  0  0  0
  6  7  1  0  0  0  0
  7  8  1  0  0  0  0
  8  9  1  0  0  0  0
  9 10  1  0  0  0  0
 10 11  1  0  0  0  0
  3 11  1  0  0  0  0
  6 11  1  0  0  0  0
  4 12  1  0  0  0  0
  1  6  1  0  0  0  0
  1 13  2  0  0  0  0
M  END
>  <cdx:fragmentId>
32137

$$$$
