5397.cdx
  Mrv1902 05222410192D          

 18 19  0  0  0  0            999 V2000
    4.4377  -10.5806    0.0000 C   0  0  0  0  0  0  0  0  0  0  0  0
    4.4377  -11.4056    0.0000 C   0  0  0  0  0  0  0  0  0  0  0  0
    5.1521  -11.8181    0.0000 C   0  0  0  0  0  0  0  0  0  0  0  0
    5.8666  -11.4056    0.0000 C   0  0  0  0  0  0  0  0  0  0  0  0
    5.8666  -10.5806    0.0000 C   0  0  0  0  0  0  0  0  0  0  0  0
    5.1521  -10.1681    0.0000 C   0  0  0  0  0  0  0  0  0  0  0  0
    5.1521   -9.3431    0.0000 C   0  0  0  0  0  0  0  0  0  0  0  0
    5.8666   -8.9306    0.0000 S   0  0  0  0  0  0  0  0  0  0  0  0
    5.8666   -8.1056    0.0000 C   0  0  0  0  0  0  0  0  0  0  0  0
    6.5811   -7.6931    0.0000 C   0  0  0  0  0  0  0  0  0  0  0  0
    7.2955   -8.1056    0.0000 C   0  0  0  0  0  0  0  0  0  0  0  0
    8.0100   -7.6931    0.0000 C   0  0  0  0  0  0  0  0  0  0  0  0
    8.0100   -6.8681    0.0000 C   0  0  0  0  0  0  0  0  0  0  0  0
    7.2955   -6.4556    0.0000 C   0  0  0  0  0  0  0  0  0  0  0  0
    6.5811   -6.8681    0.0000 C   0  0  0  0  0  0  0  0  0  0  0  0
    5.1521  -12.6431    0.0000 O   0  0  0  0  0  0  0  0  0  0  0  0
    8.7245   -6.4556    0.0000 O   0  0  0  0  0  0  0  0  0  0  0  0
    6.5811   -9.3431    0.0000 O   0  0  0  0  0  0  0  0  0  0  0  0
  1  2  2  0  0  0  0
  2  3  1  0  0  0  0
  3  4  2  0  0  0  0
  4  5  1  0  0  0  0
  5  6  2  0  0  0  0
  6  1  1  0  0  0  0
  6  7  1  0  0  0  0
  7  8  1  0  0  0  0
  8  9  1  0  0  0  0
  9 10  1  0  0  0  0
 10 11  2  0  0  0  0
 11 12  1  0  0  0  0
 12 13  2  0  0  0  0
 13 14  1  0  0  0  0
 14 15  2  0  0  0  0
 15 10  1  0  0  0  0
  3 16  1  0  0  0  0
 13 17  1  0  0  0  0
  8 18  2  0  0  0  0
M  END
>  <cdx:fragmentId>
5

$$$$
