539813.cdx
  Mrv1902 05222410192D          

 12 13  0  0  0  0            999 V2000
   15.8175   -8.2239    0.0000 O   0  0  0  0  0  0  0  0  0  0  0  0
   16.3024   -8.8913    0.0000 C   0  0  0  0  0  0  0  0  0  0  0  0
   15.8175   -9.5587    0.0000 C   0  0  0  0  0  0  0  0  0  0  0  0
   15.0328   -9.3038    0.0000 C   0  0  0  0  0  0  0  0  0  0  0  0
   15.0328   -8.4788    0.0000 C   0  0  0  0  0  0  0  0  0  0  0  0
   14.3184   -9.7163    0.0000 C   0  0  0  0  0  0  0  0  0  0  0  0
   13.6039   -9.3038    0.0000 C   0  0  0  0  0  0  0  0  0  0  0  0
   13.6039   -8.4788    0.0000 C   0  0  0  0  0  0  0  0  0  0  0  0
   14.3184   -8.0663    0.0000 C   0  0  0  0  0  0  0  0  0  0  0  0
   17.1274   -8.8913    0.0000 O   0  0  0  0  0  0  0  0  0  0  0  0
   15.1191   -7.6583    0.0000 C   0  0  0  0  0  0  0  0  0  0  0  0
   14.3184   -7.2413    0.0000 C   0  0  0  0  0  0  0  0  0  0  0  0
  1  2  1  0  0  0  0
  2  3  1  0  0  0  0
  3  4  1  0  0  0  0
  4  5  1  0  0  0  0
  1  5  1  0  0  0  0
  6  7  1  0  0  0  0
  7  8  1  0  0  0  0
  8  9  2  0  0  0  0
  9  5  1  0  0  0  0
  6  4  1  0  0  0  0
  2 10  2  0  0  0  0
  5 11  1  0  0  0  0
  9 12  1  0  0  0  0
M  END
>  <cdx:groupId>
32261

>  <cdx:fragmentId>
32227

$$$$
