539857.cdx
  Mrv1902 05222410252D          

 17 18  0  0  0  0            999 V2000
    8.0893   -7.4492    0.0000 C   0  0  0  0  0  0  0  0  0  0  0  0
    7.3748   -7.8617    0.0000 C   0  0  0  0  0  0  0  0  0  0  0  0
    6.6603   -7.4492    0.0000 C   0  0  0  0  0  0  0  0  0  0  0  0
    6.6603   -6.6242    0.0000 C   0  0  0  0  0  0  0  0  0  0  0  0
    7.3748   -6.2117    0.0000 C   0  0  0  0  0  0  0  0  0  0  0  0
    8.0893   -6.6242    0.0000 C   0  0  0  0  0  0  0  0  0  0  0  0
    8.8739   -6.3693    0.0000 C   0  0  0  0  0  0  0  0  0  0  0  0
    9.3588   -7.0367    0.0000 C   0  0  0  0  0  0  0  0  0  0  0  0
    8.8739   -7.7042    0.0000 C   0  0  0  0  0  0  0  0  0  0  0  0
    7.3748   -5.3867    0.0000 C   0  0  0  0  0  0  0  0  0  0  0  0
    8.0893   -4.9742    0.0000 C   0  0  0  0  0  0  0  0  0  0  0  0
    6.6603   -4.9742    0.0000 C   0  0  0  0  0  0  0  0  0  0  0  0
    6.9623   -8.5762    0.0000 C   0  0  0  0  0  0  0  0  0  0  0  0
    7.7873   -8.5762    0.0000 O   0  0  0  0  0  0  0  0  0  0  0  0
    9.1288   -5.5847    0.0000 C   0  0  0  0  0  0  0  0  0  0  0  0
    8.5768   -4.9716    0.0000 O   0  0  0  0  0  0  0  0  0  0  0  0
    9.9358   -5.4131    0.0000 C   0  0  0  0  0  0  0  0  0  0  0  0
  1  2  1  0  0  0  0
  2  3  1  0  0  0  0
  3  4  1  0  0  0  0
  4  5  1  0  0  0  0
  5  6  1  0  0  0  0
  6  7  1  0  0  0  0
  7  8  1  0  0  0  0
  8  9  1  0  0  0  0
  1  9  1  0  0  0  0
  1  6  1  0  0  0  0
 10 11  1  0  0  0  0
 10 12  1  0  0  0  0
  5 10  1  0  0  0  0
  2 13  1  0  0  0  0
  2 14  1  0  0  0  0
 15 16  2  0  0  0  0
 15 17  1  0  0  0  0
  7 15  1  0  0  0  0
M  END
>  <cdx:fragmentId>
32268

$$$$
