539883.cdx
  Mrv1902 05222410252D          

 24 27  0  0  0  0            999 V2000
   10.8157   -9.8055    0.0000 C   0  0  0  0  0  0  0  0  0  0  0  0
   11.2414  -10.5122    0.0000 C   0  0  0  0  0  0  0  0  0  0  0  0
   10.8422  -11.2342    0.0000 C   0  0  0  0  0  0  0  0  0  0  0  0
   10.0173  -11.2494    0.0000 C   0  0  0  0  0  0  0  0  0  0  0  0
    9.5917  -10.5427    0.0000 C   0  0  0  0  0  0  0  0  0  0  0  0
    9.9909   -9.8207    0.0000 C   0  0  0  0  0  0  0  0  0  0  0  0
   11.2149   -9.0835    0.0000 O   0  0  0  0  0  0  0  0  0  0  0  0
   11.2678  -11.9409    0.0000 O   0  0  0  0  0  0  0  0  0  0  0  0
    8.2943  -11.2342    0.0000 O   0  0  0  0  0  0  0  0  0  0  0  0
    8.7668  -10.5580    0.0000 C   0  0  0  0  0  0  0  0  0  0  0  0
    8.2696   -9.8996    0.0000 C   0  0  0  0  0  0  0  0  0  0  0  0
    7.4898  -10.1690    0.0000 C   0  0  0  0  0  0  0  0  0  0  0  0
    7.5051  -10.9939    0.0000 C   0  0  0  0  0  0  0  0  0  0  0  0
    6.7984  -11.4195    0.0000 C   0  0  0  0  0  0  0  0  0  0  0  0
    6.0764  -11.0203    0.0000 C   0  0  0  0  0  0  0  0  0  0  0  0
    6.0611  -10.1954    0.0000 C   0  0  0  0  0  0  0  0  0  0  0  0
    6.7679   -9.7698    0.0000 C   0  0  0  0  0  0  0  0  0  0  0  0
    5.2966  -11.2897    0.0000 O   0  0  0  0  0  0  0  0  0  0  0  0
    5.2719   -9.9550    0.0000 C   0  0  0  0  0  0  0  0  0  0  0  0
    4.7994  -10.6313    0.0000 C   0  0  0  0  0  0  0  0  0  0  0  0
    3.9746   -9.8216    0.0000 C   0  0  0  0  0  0  0  0  0  0  0  0
    3.9746  -10.6466    0.0000 C   0  0  0  0  0  0  0  0  0  0  0  0
    3.9746  -11.4716    0.0000 C   0  0  0  0  0  0  0  0  0  0  0  0
    3.1497  -10.6618    0.0000 O   0  0  0  0  0  0  0  0  0  0  0  0
  1  2  1  0  0  0  0
  2  3  2  0  0  0  0
  3  4  1  0  0  0  0
  4  5  2  0  0  0  0
  5  6  1  0  0  0  0
  1  6  2  0  0  0  0
  1  7  1  0  0  0  0
  3  8  1  0  0  0  0
  9 10  1  0  0  0  0
 10 11  2  0  0  0  0
 11 12  1  0  0  0  0
 12 13  1  0  0  0  0
  9 13  1  0  0  0  0
 14 15  1  0  0  0  0
 15 16  2  0  0  0  0
 16 17  1  0  0  0  0
 12 17  2  0  0  0  0
 13 14  2  0  0  0  0
 19 20  1  0  0  0  0
 18 20  1  0  0  0  0
 16 19  1  0  0  0  0
 15 18  1  0  0  0  0
 21 22  1  0  0  0  0
 22 23  1  0  0  0  0
 22 24  1  0  0  0  0
 20 22  1  0  0  0  0
  5 10  1  0  0  0  0
M  END
>  <cdx:fragmentId>
1372

$$$$
