539996.cdx
  Mrv1902 05222410282D          

 19 22  0  0  0  0            999 V2000
   14.2479   -9.4004    0.0000 C   0  0  0  0  0  0  0  0  0  0  0  0
   14.6604  -10.1149    0.0000 C   0  0  0  0  0  0  0  0  0  0  0  0
   15.4776  -10.2279    0.0000 C   0  0  0  0  0  0  0  0  0  0  0  0
   16.0685   -9.6522    0.0000 C   0  0  0  0  0  0  0  0  0  0  0  0
   16.7830  -10.0647    0.0000 C   0  0  0  0  0  0  0  0  0  0  0  0
   17.4975   -9.6522    0.0000 C   0  0  0  0  0  0  0  0  0  0  0  0
   17.4975   -8.8272    0.0000 C   0  0  0  0  0  0  0  0  0  0  0  0
   16.7830   -8.4147    0.0000 C   0  0  0  0  0  0  0  0  0  0  0  0
   16.7830   -7.5897    0.0000 C   0  0  0  0  0  0  0  0  0  0  0  0
   16.0685   -7.1772    0.0000 C   0  0  0  0  0  0  0  0  0  0  0  0
   15.3541   -7.5897    0.0000 O   0  0  0  0  0  0  0  0  0  0  0  0
   15.3541   -8.4147    0.0000 C   0  0  0  0  0  0  0  0  0  0  0  0
   16.0685   -8.8272    0.0000 C   0  0  0  0  0  0  0  0  0  0  0  0
   15.3007   -9.5713    0.0000 O   0  0  0  0  0  0  0  0  0  0  0  0
   14.5586   -8.6361    0.0000 O   0  0  0  0  0  0  0  0  0  0  0  0
   16.0685   -6.3522    0.0000 O   0  0  0  0  0  0  0  0  0  0  0  0
   17.4975   -7.1772    0.0000 C   0  0  0  0  0  0  0  0  0  0  0  0
   16.7830  -10.8897    0.0000 C   0  0  0  0  0  0  0  0  0  0  0  0
   13.4229   -9.4004    0.0000 C   0  0  0  0  0  0  0  0  0  0  0  0
  1  2  1  0  0  0  0
  2  3  1  0  0  0  0
  3  4  1  0  0  0  0
  4  5  1  0  0  0  0
  5  6  1  0  0  0  0
  6  7  1  0  0  0  0
  7  8  1  0  0  0  0
  8  9  1  0  0  0  0
  9 10  1  0  0  0  0
 10 11  1  0  0  0  0
 11 12  1  0  0  0  0
 12 13  1  0  0  0  0
 13 14  1  0  0  0  0
  1 14  1  0  0  0  0
  1 15  1  0  0  0  0
 15 12  1  0  0  0  0
  8 13  1  0  0  0  0
  4 13  1  0  0  0  0
 10 16  1  0  0  0  0
  9 17  1  0  0  0  0
  5 18  1  0  0  0  0
  1 19  1  0  0  0  0
M  END
>  <cdx:groupId>
32412

>  <cdx:fragmentId>
32355

$$$$
