539987.cdx
  Mrv1902 05222410262D          

  9  8  0  0  0  0            999 V2000
    7.3563   -5.8801    0.0000 C   0  0  0  0  0  0  0  0  0  0  0  0
    8.0707   -6.2926    0.0000 O   0  0  0  0  0  0  0  0  0  0  0  0
    6.6418   -6.2926    0.0000 S   0  0  0  0  0  0  0  0  0  0  0  0
    7.3563   -5.0551    0.0000 S   0  0  0  0  0  0  0  0  0  0  0  0
    5.9273   -5.8801    0.0000 C   0  0  0  0  0  0  0  0  0  0  0  0
    5.2128   -6.2926    0.0000 C   0  0  0  0  0  0  0  0  0  0  0  0
    8.7852   -5.8801    0.0000 C   0  0  0  0  0  0  0  0  0  0  0  0
    8.7852   -5.0551    0.0000 C   0  0  0  0  0  0  0  0  0  0  0  0
    9.4997   -6.2926    0.0000 C   0  0  0  0  0  0  0  0  0  0  0  0
  1  2  1  0  0  0  0
  1  3  1  0  0  0  0
  1  4  2  0  0  0  0
  5  6  1  0  0  0  0
  3  5  1  0  0  0  0
  7  8  1  0  0  0  0
  7  9  1  0  0  0  0
  2  7  1  0  0  0  0
M  END
>  <cdx:groupId>
32348

>  <cdx:fragmentId>
32325

$$$$
