540090.cdx
  Mrv1902 05222410192D          

 18 20  0  0  0  0            999 V2000
    5.5382   -3.4757    0.0000 C   0  0  0  0  0  0  0  0  0  0  0  0
    4.7413   -3.6892    0.0000 C   0  0  0  0  0  0  0  0  0  0  0  0
    4.5278   -4.4861    0.0000 C   0  0  0  0  0  0  0  0  0  0  0  0
    5.1111   -5.0695    0.0000 C   0  0  0  0  0  0  0  0  0  0  0  0
    5.9080   -4.8559    0.0000 C   0  0  0  0  0  0  0  0  0  0  0  0
    6.1216   -4.0591    0.0000 C   0  0  0  0  0  0  0  0  0  0  0  0
    6.5999   -5.3053    0.0000 C   0  0  0  0  0  0  0  0  0  0  0  0
    7.2411   -4.7861    0.0000 C   0  0  0  0  0  0  0  0  0  0  0  0
    6.9454   -4.0159    0.0000 C   0  0  0  0  0  0  0  0  0  0  0  0
    6.8956   -6.0755    0.0000 C   0  0  0  0  0  0  0  0  0  0  0  0
    7.7195   -6.0323    0.0000 C   0  0  0  0  0  0  0  0  0  0  0  0
    7.9330   -5.2354    0.0000 C   0  0  0  0  0  0  0  0  0  0  0  0
    4.1579   -3.1059    0.0000 C   0  0  0  0  0  0  0  0  0  0  0  0
    3.7309   -4.6996    0.0000 C   0  0  0  0  0  0  0  0  0  0  0  0
    3.5174   -5.4965    0.0000 C   0  0  0  0  0  0  0  0  0  0  0  0
    3.1475   -4.1163    0.0000 O   0  0  0  0  0  0  0  0  0  0  0  0
    7.8244   -4.2027    0.0000 C   0  0  0  0  0  0  0  0  0  0  0  0
    6.0166   -5.8886    0.0000 C   0  0  0  0  0  0  0  0  0  0  0  0
  1  2  2  0  0  0  0
  2  3  1  0  0  0  0
  3  4  2  0  0  0  0
  4  5  1  0  0  0  0
  5  6  2  0  0  0  0
  6  1  1  0  0  0  0
  5  7  1  0  0  0  0
  7  8  1  0  0  0  0
  8  9  1  0  0  0  0
  9  6  1  0  0  0  0
  7 10  1  0  0  0  0
 10 11  1  0  0  0  0
 11 12  1  0  0  0  0
 12  8  1  0  0  0  0
  2 13  1  0  0  0  0
  3 14  1  0  0  0  0
 14 15  1  0  0  0  0
 14 16  2  0  0  0  0
  8 17  1  0  0  0  0
  7 18  1  0  0  0  0
M  END
>  <cdx:fragmentId>
32481

$$$$
