5404.cdx
  Mrv1902 05222410282D          

  8  8  0  0  0  0            999 V2000
    6.3751   -5.5976    0.0000 C   0  0  0  0  0  0  0  0  0  0  0  0
    6.6300   -6.3822    0.0000 C   0  0  0  0  0  0  0  0  0  0  0  0
    7.4550   -6.3822    0.0000 C   0  0  0  0  0  0  0  0  0  0  0  0
    7.7100   -5.5976    0.0000 C   0  0  0  0  0  0  0  0  0  0  0  0
    7.0425   -5.1127    0.0000 C   0  0  0  0  0  0  0  0  0  0  0  0
    5.5905   -5.3427    0.0000 O   0  0  0  0  0  0  0  0  0  0  0  0
    8.2620   -4.9845    0.0000 C   0  0  0  0  0  0  0  0  0  0  0  0
    8.5169   -5.7691    0.0000 C   0  0  0  0  0  0  0  0  0  0  0  0
  1  2  1  0  0  0  0
  2  3  2  0  0  0  0
  3  4  1  0  0  0  0
  4  5  1  0  0  0  0
  1  5  1  0  0  0  0
  1  6  2  0  0  0  0
  4  7  1  0  0  0  0
  4  8  1  0  0  0  0
M  END
>  <cdx:fragmentId>
1301

$$$$
