540542.cdx
  Mrv1902 05222410232D          

 20 21  0  0  0  0            999 V2000
   12.9681   -9.1075    0.0000 C   0  0  0  0  0  0  0  0  0  0  0  0
   12.2536   -9.5200    0.0000 C   0  0  0  0  0  0  0  0  0  0  0  0
   12.9681   -8.2825    0.0000 O   0  0  0  0  0  0  0  0  0  0  0  0
   13.6826   -9.5200    0.0000 O   0  0  0  0  0  0  0  0  0  0  0  0
   15.1115   -9.5200    0.0000 C   0  0  0  0  0  0  0  0  0  0  0  0
   14.3970   -9.1075    0.0000 C   0  0  0  0  0  0  0  0  0  0  0  0
   14.3970   -8.2825    0.0000 C   0  0  0  0  0  0  0  0  0  0  0  0
   15.1115   -7.8700    0.0000 C   0  0  0  0  0  0  0  0  0  0  0  0
   15.8260   -8.2825    0.0000 C   0  0  0  0  0  0  0  0  0  0  0  0
   16.5405   -7.8700    0.0000 C   0  0  0  0  0  0  0  0  0  0  0  0
   17.2549   -8.2825    0.0000 C   0  0  0  0  0  0  0  0  0  0  0  0
   17.2549   -9.1075    0.0000 C   0  0  0  0  0  0  0  0  0  0  0  0
   16.5405   -9.5200    0.0000 C   0  0  0  0  0  0  0  0  0  0  0  0
   15.8260   -9.1075    0.0000 C   0  0  0  0  0  0  0  0  0  0  0  0
   15.8260   -9.9325    0.0000 C   0  0  0  0  0  0  0  0  0  0  0  0
   15.1115   -7.0450    0.0000 C   0  0  0  0  0  0  0  0  0  0  0  0
   17.9694   -7.8700    0.0000 C   0  0  0  0  0  0  0  0  0  0  0  0
   17.9694   -7.0450    0.0000 C   0  0  0  0  0  0  0  0  0  0  0  0
   18.6839   -8.2825    0.0000 C   0  0  0  0  0  0  0  0  0  0  0  0
   13.6826   -7.8700    0.0000 O   0  0  0  0  0  0  0  0  0  0  0  0
  1  2  1  0  0  0  0
  1  3  2  0  0  0  0
  1  4  1  0  0  0  0
  5  6  1  0  0  0  0
  6  7  1  0  0  0  0
  7  8  1  0  0  0  0
  8  9  2  0  0  0  0
  9 10  1  0  0  0  0
 10 11  1  0  0  0  0
 11 12  1  0  0  0  0
 12 13  1  0  0  0  0
 13 14  1  0  0  0  0
  5 14  1  0  0  0  0
  9 14  1  0  0  0  0
 14 15  1  0  0  0  0
  8 16  1  0  0  0  0
 17 18  2  0  0  0  0
 17 19  1  0  0  0  0
 11 17  1  0  0  0  0
  7 20  1  0  0  0  0
  4  6  1  0  0  0  0
M  END
>  <cdx:groupId>
32595

>  <cdx:fragmentId>
32545

$$$$
