540717.cdx
  Mrv1902 05222410282D          

 39 41  0  0  0  0            999 V2000
    8.5318   -7.7055    0.0000 H   0  0  0  0  0  0  0  0  0  0  0  0
    7.0948   -9.3490    0.0000 C   0  0  0  0  0  0  0  0  0  0  0  0
    7.8072   -9.7652    0.0000 O   0  0  0  0  0  0  0  0  0  0  0  0
    7.8029  -10.5901    0.0000 C   0  0  0  0  0  0  0  0  0  0  0  0
    7.0863  -10.9989    0.0000 O   0  0  0  0  0  0  0  0  0  0  0  0
    8.5152  -11.0063    0.0000 C   0  0  0  0  0  0  0  0  0  0  0  0
    8.5109  -11.8313    0.0000 C   0  0  0  0  0  0  0  0  0  0  0  0
    9.2232  -12.2475    0.0000 C   0  0  0  0  0  0  0  0  0  0  0  0
    9.9398  -11.8387    0.0000 O   0  0  0  0  0  0  0  0  0  0  0  0
    9.2617   -4.8226    0.0000 C   0  0  0  0  0  0  0  0  0  0  0  0
    8.5968   -4.3343    0.0000 C   0  0  0  0  0  0  0  0  0  0  0  0
    8.8558   -3.5510    0.0000 C   0  0  0  0  0  0  0  0  0  0  0  0
    9.6808   -3.5552    0.0000 O   0  0  0  0  0  0  0  0  0  0  0  0
    9.9317   -4.3412    0.0000 C   0  0  0  0  0  0  0  0  0  0  0  0
   10.7150   -4.6002    0.0000 O   0  0  0  0  0  0  0  0  0  0  0  0
    2.8081   -9.3267    0.0000 O   0  0  0  0  0  0  0  0  0  0  0  0
    2.1000   -8.0855    0.0000 O   0  0  0  0  0  0  0  0  0  0  0  0
    2.8123   -8.5017    0.0000 C   0  0  0  0  0  0  0  0  0  0  0  0
    3.5289   -8.0930    0.0000 C   0  0  0  0  0  0  0  0  0  0  0  0
    4.2413   -8.5092    0.0000 C   0  0  0  0  0  0  0  0  0  0  0  0
    4.9621   -7.2754    0.0000 O   0  0  0  0  0  0  0  0  0  0  0  0
    4.9579   -8.1004    0.0000 C   0  0  0  0  0  0  0  0  0  0  0  0
    5.6702   -8.5166    0.0000 O   0  0  0  0  0  0  0  0  0  0  0  0
    9.2190  -13.0725    0.0000 O   0  0  0  0  0  0  0  0  0  0  0  0
    7.8114   -8.9402    0.0000 C   0  0  0  0  0  0  0  0  0  0  0  0
    9.2575   -5.6476    0.0000 C   0  0  0  0  0  0  0  0  0  0  0  0
    8.5409   -6.0564    0.0000 C   0  0  0  0  0  0  0  0  0  0  0  0
    8.5366   -6.8814    0.0000 C   0  0  2  0  0  0  0  0  0  0  0  0
    9.9655   -6.8888    0.0000 C   0  0  0  0  0  0  0  0  0  0  0  0
    9.2489   -7.2976    0.0000 C   0  0  0  0  0  0  0  0  0  0  0  0
    9.2446   -8.1226    0.0000 C   0  0  0  0  0  0  0  0  0  0  0  0
    8.5280   -8.5314    0.0000 C   0  0  0  0  0  0  0  0  0  0  0  0
    7.8157   -8.1152    0.0000 C   0  0  2  0  0  0  0  0  0  0  0  0
    7.0991   -8.5240    0.0000 C   0  0  1  0  0  0  0  0  0  0  0  0
    6.3868   -8.1078    0.0000 C   0  0  1  0  0  0  0  0  0  0  0  0
    6.3911   -7.2828    0.0000 C   0  0  0  0  0  0  0  0  0  0  0  0
    7.1077   -6.8740    0.0000 C   0  0  0  0  0  0  0  0  0  0  0  0
    7.8200   -7.2902    0.0000 C   0  0  1  0  0  0  0  0  0  0  0  0
    7.8243   -6.4652    0.0000 C   0  0  0  0  0  0  0  0  0  0  0  0
 33  1  1  1  0  0  0
 18 16  1  0  0  0  0
 18 17  2  0  0  0  0
 19 18  1  0  0  0  0
 20 19  1  0  0  0  0
 22 20  1  0  0  0  0
 22 21  2  0  0  0  0
 23 22  1  0  0  0  0
 35 23  1  6  0  0  0
 34  2  1  0  0  0  0
 34 25  1  1  0  0  0
 26 10  1  0  0  0  0
 27 26  2  0  0  0  0
 28 27  1  6  0  0  0
 38 28  1  0  0  0  0
 30 28  1  0  0  0  0
 30 29  2  0  0  0  0
 31 30  1  0  0  0  0
 32 31  1  0  0  0  0
 33 32  1  0  0  0  0
 38 33  1  0  0  0  0
 34 33  1  0  0  0  0
 35 34  1  0  0  0  0
 36 35  1  0  0  0  0
 37 36  1  0  0  0  0
 38 37  1  0  0  0  0
 38 39  1  6  0  0  0
  2  3  1  0  0  0  0
  3  4  1  0  0  0  0
  4  5  2  0  0  0  0
  4  6  1  0  0  0  0
  6  7  1  0  0  0  0
  7  8  1  0  0  0  0
  8  9  2  0  0  0  0
  8 24  1  0  0  0  0
 10 11  2  0  0  0  0
 11 12  1  0  0  0  0
 12 13  1  0  0  0  0
 13 14  1  0  0  0  0
 10 14  1  0  0  0  0
 14 15  2  0  0  0  0
M  END
>  <cdx:fragmentId>
3

$$$$
