54087.cdx
  Mrv1902 05222410272D          

 12 12  0  0  0  0            999 V2000
    7.6725   -6.9634    0.0000 C   0  0  1  0  0  0  0  0  0  0  0  0
    6.9961   -6.4911    0.0000 C   0  0  0  0  0  0  0  0  0  0  0  0
    6.3379   -6.9884    0.0000 C   0  0  1  0  0  0  0  0  0  0  0  0
    6.6074   -7.7681    0.0000 C   0  0  0  0  0  0  0  0  0  0  0  0
    7.4323   -7.7527    0.0000 C   0  0  0  0  0  0  0  0  0  0  0  0
    8.2130   -6.3401    0.0000 C   0  0  0  0  0  0  0  0  0  0  0  0
    7.9434   -5.5604    0.0000 O   0  0  0  0  0  0  0  0  0  0  0  0
    9.0230   -6.4965    0.0000 O   0  0  0  0  0  0  0  0  0  0  0  0
    5.5486   -6.7482    0.0000 C   0  0  0  0  0  0  0  0  0  0  0  0
    7.3952   -5.7690    0.0000 C   0  0  0  0  0  0  0  0  0  0  0  0
    6.5703   -5.7844    0.0000 C   0  0  0  0  0  0  0  0  0  0  0  0
    8.4826   -7.1198    0.0000 C   0  0  0  0  0  0  0  0  0  0  0  0
  1  2  1  0  0  0  0
  2  3  1  0  0  0  0
  3  4  1  0  0  0  0
  4  5  1  0  0  0  0
  1  5  1  0  0  0  0
  6  7  2  0  0  0  0
  6  8  1  0  0  0  0
  1  6  1  6  0  0  0
  3  9  1  1  0  0  0
  2 10  1  0  0  0  0
  2 11  1  0  0  0  0
  1 12  1  1  0  0  0
M  END
>  <cdx:fragmentId>
5

$$$$
