541568.cdx
  Mrv1902 05222410282D          

 24 23  0  0  0  0            999 V2000
    4.6488   -8.2585    0.0000 C   0  0  0  0  0  0  0  0  0  0  0  0
    3.9343   -8.6710    0.0000 C   0  0  0  0  0  0  0  0  0  0  0  0
    4.6488   -7.4335    0.0000 O   0  0  0  0  0  0  0  0  0  0  0  0
    5.3633   -8.6710    0.0000 O   0  0  0  0  0  0  0  0  0  0  0  0
    6.0777   -8.2585    0.0000 C   0  0  0  0  0  0  0  0  0  0  0  0
    6.7922   -8.6710    0.0000 C   0  0  0  0  0  0  0  0  0  0  0  0
    7.5067   -8.2585    0.0000 C   0  0  0  0  0  0  0  0  0  0  0  0
    8.2211   -8.6710    0.0000 C   0  0  0  0  0  0  0  0  0  0  0  0
    8.9356   -8.2585    0.0000 C   0  0  0  0  0  0  0  0  0  0  0  0
    8.9356   -7.4335    0.0000 O   0  0  0  0  0  0  0  0  0  0  0  0
    9.6501   -8.6710    0.0000 C   0  0  0  0  0  0  0  0  0  0  0  0
   10.3646   -9.0835    0.0000 N   0  0  0  0  0  0  0  0  0  0  0  0
    8.2211   -9.4960    0.0000 O   0  0  0  0  0  0  0  0  0  0  0  0
    8.9356   -9.9085    0.0000 C   0  0  0  0  0  0  0  0  0  0  0  0
    8.9356  -10.7335    0.0000 O   0  0  0  0  0  0  0  0  0  0  0  0
    9.6501   -9.4960    0.0000 C   0  0  0  0  0  0  0  0  0  0  0  0
    7.5067   -7.4335    0.0000 O   0  0  0  0  0  0  0  0  0  0  0  0
    6.7922   -7.0210    0.0000 C   0  0  0  0  0  0  0  0  0  0  0  0
    6.7922   -6.1960    0.0000 O   0  0  0  0  0  0  0  0  0  0  0  0
    6.0777   -7.4335    0.0000 C   0  0  0  0  0  0  0  0  0  0  0  0
    6.7922   -9.4960    0.0000 O   0  0  0  0  0  0  0  0  0  0  0  0
    6.0777   -9.9085    0.0000 C   0  0  0  0  0  0  0  0  0  0  0  0
    6.0777  -10.7335    0.0000 O   0  0  0  0  0  0  0  0  0  0  0  0
    5.3633   -9.4960    0.0000 C   0  0  0  0  0  0  0  0  0  0  0  0
  1  2  1  0  0  0  0
  1  3  2  0  0  0  0
  1  4  1  0  0  0  0
  5  6  1  0  0  0  0
  6  7  1  0  0  0  0
  7  8  1  0  0  0  0
  8  9  1  0  0  0  0
  9 10  2  0  0  0  0
 11 12  3  0  0  0  0
  9 11  1  0  0  0  0
 14 15  2  0  0  0  0
 14 16  1  0  0  0  0
 13 14  1  0  0  0  0
  8 13  1  0  0  0  0
 18 19  2  0  0  0  0
 18 20  1  0  0  0  0
 17 18  1  0  0  0  0
  7 17  1  0  0  0  0
 22 23  2  0  0  0  0
 22 24  1  0  0  0  0
 21 22  1  0  0  0  0
  6 21  1  0  0  0  0
  4  5  1  0  0  0  0
M  END
>  <cdx:fragmentId>
13

$$$$
