5415.cdx
  Mrv1902 05222410262D          

 15 17  0  0  0  0            999 V2000
    7.0489   -7.5175    0.0000 C   0  0  0  0  0  0  0  0  0  0  0  0
    7.7544   -7.9452    0.0000 C   0  0  0  0  0  0  0  0  0  0  0  0
    8.4775   -7.5481    0.0000 C   0  0  0  0  0  0  0  0  0  0  0  0
    8.4952   -6.7233    0.0000 C   0  0  0  0  0  0  0  0  0  0  0  0
    7.7897   -6.2956    0.0000 C   0  0  0  0  0  0  0  0  0  0  0  0
    7.0665   -6.6927    0.0000 C   0  0  0  0  0  0  0  0  0  0  0  0
    6.3611   -6.2650    0.0000 C   0  0  0  0  0  0  0  0  0  0  0  0
    5.6379   -6.6622    0.0000 C   0  0  0  0  0  0  0  0  0  0  0  0
    5.6203   -7.4870    0.0000 C   0  0  0  0  0  0  0  0  0  0  0  0
    6.3258   -7.9147    0.0000 C   0  0  0  0  0  0  0  0  0  0  0  0
    6.4451   -7.5046    0.0000 C   0  0  0  0  0  0  0  0  0  0  0  0
    5.8981   -8.6202    0.0000 C   0  0  0  0  0  0  0  0  0  0  0  0
    6.7229   -8.6378    0.0000 C   0  0  0  0  0  0  0  0  0  0  0  0
    7.3925   -5.5725    0.0000 C   0  0  0  0  0  0  0  0  0  0  0  0
    8.3854   -5.7248    0.0000 C   0  0  0  0  0  0  0  0  0  0  0  0
  1  2  2  0  0  0  0
  2  3  1  0  0  0  0
  3  4  1  0  0  0  0
  4  5  1  0  0  0  0
  5  6  1  0  0  0  0
  6  1  1  0  0  0  0
  6  7  1  0  0  0  0
  7  8  2  0  0  0  0
  8  9  1  0  0  0  0
  9 10  1  0  0  0  0
 10  1  1  0  0  0  0
  9 11  1  0  0  0  0
 11  6  1  0  0  0  0
 10 12  1  0  0  0  0
 10 13  1  0  0  0  0
  5 14  1  0  0  0  0
  5 15  1  0  0  0  0
M  END
>  <cdx:fragmentId>
5

$$$$
