54173.cdx
  Mrv1902 05222410222D          

 42 45  0  0  0  0            999 V2000
    7.9529   -8.7494    0.0000 O   0  0  0  0  0  0  0  0  0  0  0  0
    7.2387   -9.1624    0.0000 C   0  0  1  0  0  0  0  0  0  0  0  0
    7.2393   -9.9874    0.0000 C   0  0  2  0  0  0  0  0  0  0  0  0
    7.9540  -10.3994    0.0000 C   0  0  1  0  0  0  0  0  0  0  0  0
    8.6682   -9.9865    0.0000 C   0  0  2  0  0  0  0  0  0  0  0  0
    8.6677   -9.1615    0.0000 C   0  0  2  0  0  0  0  0  0  0  0  0
    9.3818   -8.7485    0.0000 O   0  0  0  0  0  0  0  0  0  0  0  0
   10.0966   -9.1605    0.0000 C   0  0  0  0  0  0  0  0  0  0  0  0
   10.8108   -8.7475    0.0000 C   0  0  0  0  0  0  0  0  0  0  0  0
   11.5255   -9.1595    0.0000 C   0  0  0  0  0  0  0  0  0  0  0  0
   12.2397   -8.7465    0.0000 C   0  0  0  0  0  0  0  0  0  0  0  0
   12.9545   -9.1585    0.0000 C   0  0  0  0  0  0  0  0  0  0  0  0
   12.9550   -9.9835    0.0000 C   0  0  0  0  0  0  0  0  0  0  0  0
   12.2409  -10.3965    0.0000 C   0  0  0  0  0  0  0  0  0  0  0  0
   11.5261   -9.9845    0.0000 C   0  0  0  0  0  0  0  0  0  0  0  0
   13.6698  -10.3955    0.0000 O   0  0  0  0  0  0  0  0  0  0  0  0
    9.3830  -10.3985    0.0000 O   0  0  0  0  0  0  0  0  0  0  0  0
    6.5251  -10.4004    0.0000 O   0  0  0  0  0  0  0  0  0  0  0  0
    6.5240   -8.7504    0.0000 C   0  0  0  0  0  0  0  0  0  0  0  0
    0.8093  -10.4043    0.0000 O   0  0  0  0  0  0  0  0  0  0  0  0
    2.9525   -9.9904    0.0000 C   0  0  0  0  0  0  0  0  0  0  0  0
    2.2383  -10.4034    0.0000 C   0  0  0  0  0  0  0  0  0  0  0  0
    1.5235   -9.9913    0.0000 C   0  0  0  0  0  0  0  0  0  0  0  0
    1.5229   -9.1663    0.0000 C   0  0  0  0  0  0  0  0  0  0  0  0
    2.2371   -8.7534    0.0000 C   0  0  0  0  0  0  0  0  0  0  0  0
    2.9519   -9.1654    0.0000 C   0  0  0  0  0  0  0  0  0  0  0  0
    5.8098   -9.1634    0.0000 O   0  0  0  0  0  0  0  0  0  0  0  0
    5.0945   -7.9264    0.0000 O   0  0  0  0  0  0  0  0  0  0  0  0
    3.6661   -8.7524    0.0000 C   0  0  0  0  0  0  0  0  0  0  0  0
    4.3808   -9.1644    0.0000 C   0  0  0  0  0  0  0  0  0  0  0  0
    7.9557  -12.8744    0.0000 O   0  0  0  0  0  0  0  0  0  0  0  0
    6.5273  -13.7004    0.0000 O   0  0  0  0  0  0  0  0  0  0  0  0
    5.0978  -12.8764    0.0000 O   0  0  0  0  0  0  0  0  0  0  0  0
    5.0967  -11.2264    0.0000 C   0  0  0  0  0  0  0  0  0  0  0  0
    5.8115  -11.6384    0.0000 C   0  0  1  0  0  0  0  0  0  0  0  0
    5.8120  -12.4634    0.0000 C   0  0  1  0  0  0  0  0  0  0  0  0
    6.5268  -12.8754    0.0000 C   0  0  2  0  0  0  0  0  0  0  0  0
    7.2410  -12.4624    0.0000 C   0  0  2  0  0  0  0  0  0  0  0  0
    7.2404  -11.6374    0.0000 C   0  0  1  0  0  0  0  0  0  0  0  0
    6.5257  -11.2254    0.0000 O   0  0  0  0  0  0  0  0  0  0  0  0
    7.9546  -11.2244    0.0000 O   0  0  0  0  0  0  0  0  0  0  0  0
    5.0950   -8.7514    0.0000 C   0  0  0  0  0  0  0  0  0  0  0  0
 27 19  1  0  0  0  0
 29 26  1  0  0  0  0
 23 20  1  0  0  0  0
 26 21  2  0  0  0  0
 22 21  1  0  0  0  0
 23 22  2  0  0  0  0
 24 23  1  0  0  0  0
 25 24  2  0  0  0  0
 26 25  1  0  0  0  0
 42 27  1  0  0  0  0
 42 28  2  0  0  0  0
 30 29  2  0  0  0  0
 42 30  1  0  0  0  0
 39 41  1  1  0  0  0
 38 31  1  6  0  0  0
 37 32  1  6  0  0  0
 36 33  1  1  0  0  0
 35 34  1  6  0  0  0
 40 35  1  0  0  0  0
 36 35  1  0  0  0  0
 37 36  1  0  0  0  0
 38 37  1  0  0  0  0
 39 38  1  0  0  0  0
 40 39  1  0  0  0  0
  1  2  1  0  0  0  0
  2  3  1  0  0  0  0
  3  4  1  0  0  0  0
  4  5  1  0  0  0  0
  5  6  1  0  0  0  0
  1  6  1  0  0  0  0
  4 41  1  1  0  0  0
  8  9  1  0  0  0  0
  7  8  1  0  0  0  0
 10 11  1  0  0  0  0
 11 12  2  0  0  0  0
 12 13  1  0  0  0  0
 13 14  2  0  0  0  0
 14 15  1  0  0  0  0
 10 15  2  0  0  0  0
 13 16  1  0  0  0  0
  9 10  1  0  0  0  0
  6  7  1  1  0  0  0
  5 17  1  6  0  0  0
  3 18  1  6  0  0  0
  2 19  1  1  0  0  0
M  END
>  <cdx:fragmentId>
37810

$$$$
