5417.cdx
  Mrv1902 05222410272D          

 26 29  0  0  0  0            999 V2000
    8.0086   -5.9813    0.0000 C   0  0  0  0  0  0  0  0  0  0  0  0
    8.7231   -6.3937    0.0000 C   0  0  0  0  0  0  0  0  0  0  0  0
    8.7231   -7.2187    0.0000 C   0  0  0  0  0  0  0  0  0  0  0  0
    8.0086   -7.6313    0.0000 C   0  0  0  0  0  0  0  0  0  0  0  0
    7.2941   -7.2188    0.0000 N   0  0  0  0  0  0  0  0  0  0  0  0
    6.5796   -7.6313    0.0000 C   0  0  0  0  0  0  0  0  0  0  0  0
    5.8652   -7.2188    0.0000 C   0  0  0  0  0  0  0  0  0  0  0  0
    5.8652   -6.3937    0.0000 C   0  0  0  0  0  0  0  0  0  0  0  0
    6.5796   -5.9813    0.0000 C   0  0  0  0  0  0  0  0  0  0  0  0
    7.2941   -6.3937    0.0000 C   0  0  0  0  0  0  0  0  0  0  0  0
    9.4375   -5.9812    0.0000 C   0  0  0  0  0  0  0  0  0  0  0  0
    9.4375   -5.1562    0.0000 C   0  0  0  0  0  0  0  0  0  0  0  0
    8.7231   -4.7437    0.0000 C   0  0  0  0  0  0  0  0  0  0  0  0
    8.0086   -5.1563    0.0000 C   0  0  0  0  0  0  0  0  0  0  0  0
    5.1507   -5.9813    0.0000 C   0  0  0  0  0  0  0  0  0  0  0  0
    4.4362   -6.3937    0.0000 C   0  0  0  0  0  0  0  0  0  0  0  0
    4.4362   -7.2188    0.0000 C   0  0  0  0  0  0  0  0  0  0  0  0
    5.1507   -7.6313    0.0000 C   0  0  0  0  0  0  0  0  0  0  0  0
    3.7218   -7.6313    0.0000 O   0  0  0  0  0  0  0  0  0  0  0  0
    3.0073   -7.2188    0.0000 C   0  0  0  0  0  0  0  0  0  0  0  0
    5.1507   -8.4563    0.0000 O   0  0  0  0  0  0  0  0  0  0  0  0
    4.4362   -8.8688    0.0000 C   0  0  0  0  0  0  0  0  0  0  0  0
   10.1520   -4.7437    0.0000 O   0  0  0  0  0  0  0  0  0  0  0  0
   10.8665   -5.1562    0.0000 C   0  0  0  0  0  0  0  0  0  0  0  0
    8.7231   -3.9187    0.0000 O   0  0  0  0  0  0  0  0  0  0  0  0
    9.4375   -3.5062    0.0000 C   0  0  0  0  0  0  0  0  0  0  0  0
  1  2  1  0  0  0  0
  2  3  1  0  0  0  0
  3  4  1  0  0  0  0
  4  5  1  0  0  0  0
  5  6  1  0  0  0  0
  6  7  1  0  0  0  0
  7  8  1  0  0  0  0
  8  9  1  0  0  0  0
  9 10  1  0  0  0  0
  5 10  1  0  0  0  0
  1 10  1  0  0  0  0
 11 12  1  0  0  0  0
 12 13  2  0  0  0  0
 13 14  1  0  0  0  0
 14  1  2  0  0  0  0
 11  2  2  0  0  0  0
 15 16  1  0  0  0  0
 16 17  2  0  0  0  0
 17 18  1  0  0  0  0
 18  7  2  0  0  0  0
 15  8  2  0  0  0  0
 19 20  1  0  0  0  0
 17 19  1  0  0  0  0
 21 22  1  0  0  0  0
 18 21  1  0  0  0  0
 23 24  1  0  0  0  0
 12 23  1  0  0  0  0
 25 26  1  0  0  0  0
 13 25  1  0  0  0  0
M  END
>  <cdx:fragmentId>
5

$$$$
