5418.cdx
  Mrv1902 05222410202D          

 28 31  0  0  0  0            999 V2000
    9.2186   -6.1463    0.0000 C   0  0  0  0  0  0  0  0  0  0  0  0
    9.9331   -6.5587    0.0000 C   0  0  0  0  0  0  0  0  0  0  0  0
    9.9331   -7.3837    0.0000 C   0  0  0  0  0  0  0  0  0  0  0  0
    9.2186   -7.7963    0.0000 N   0  0  0  0  0  0  0  0  0  0  0  0
    8.5041   -7.3838    0.0000 C   0  0  0  0  0  0  0  0  0  0  0  0
    7.7896   -7.7963    0.0000 C   0  0  0  0  0  0  0  0  0  0  0  0
    7.0752   -7.3838    0.0000 C   0  0  0  0  0  0  0  0  0  0  0  0
    7.0752   -6.5587    0.0000 C   0  0  0  0  0  0  0  0  0  0  0  0
    7.7896   -6.1463    0.0000 C   0  0  0  0  0  0  0  0  0  0  0  0
    8.5041   -6.5587    0.0000 C   0  0  0  0  0  0  0  0  0  0  0  0
    6.3607   -6.1463    0.0000 C   0  0  0  0  0  0  0  0  0  0  0  0
    5.6462   -6.5587    0.0000 C   0  0  0  0  0  0  0  0  0  0  0  0
    5.6462   -7.3838    0.0000 C   0  0  0  0  0  0  0  0  0  0  0  0
    6.3607   -7.7963    0.0000 C   0  0  0  0  0  0  0  0  0  0  0  0
    4.9318   -7.7963    0.0000 O   0  0  0  0  0  0  0  0  0  0  0  0
    4.2173   -7.3838    0.0000 C   0  0  0  0  0  0  0  0  0  0  0  0
    9.2186   -5.3213    0.0000 C   0  0  0  0  0  0  0  0  0  0  0  0
    8.5041   -4.9088    0.0000 C   0  0  0  0  0  0  0  0  0  0  0  0
    7.7896   -5.3213    0.0000 C   0  0  0  0  0  0  0  0  0  0  0  0
    9.2186   -8.6212    0.0000 C   0  0  0  0  0  0  0  0  0  0  0  0
    7.7896   -8.6212    0.0000 C   0  0  0  0  0  0  0  0  0  0  0  0
    7.0752   -9.0337    0.0000 O   0  0  0  0  0  0  0  0  0  0  0  0
    4.9318   -6.1463    0.0000 O   0  0  0  0  0  0  0  0  0  0  0  0
    4.2173   -6.5587    0.0000 C   0  0  0  0  0  0  0  0  0  0  0  0
    7.0752   -4.9088    0.0000 O   0  0  0  0  0  0  0  0  0  0  0  0
    6.3607   -5.3213    0.0000 C   0  0  0  0  0  0  0  0  0  0  0  0
    8.5041   -4.0838    0.0000 O   0  0  0  0  0  0  0  0  0  0  0  0
    9.2186   -3.6713    0.0000 C   0  0  0  0  0  0  0  0  0  0  0  0
  1  2  1  0  0  0  0
  2  3  1  0  0  0  0
  3  4  1  0  0  0  0
  4  5  1  0  0  0  0
  5  6  2  0  0  0  0
  6  7  1  0  0  0  0
  7  8  1  0  0  0  0
  8  9  1  0  0  0  0
  9 10  2  0  0  0  0
  5 10  1  0  0  0  0
  1 10  1  0  0  0  0
 11 12  1  0  0  0  0
 12 13  2  0  0  0  0
 13 14  1  0  0  0  0
 14  7  2  0  0  0  0
 11  8  2  0  0  0  0
 15 16  1  0  0  0  0
 13 15  1  0  0  0  0
  1 17  2  0  0  0  0
 17 18  1  0  0  0  0
 18 19  2  0  0  0  0
 19  9  1  0  0  0  0
  4 20  1  0  0  0  0
  6 21  1  0  0  0  0
 21 22  2  0  0  0  0
 12 23  1  0  0  0  0
 23 24  1  0  0  0  0
 19 25  1  0  0  0  0
 25 26  1  0  0  0  0
 18 27  1  0  0  0  0
 27 28  1  0  0  0  0
M  END
>  <cdx:fragmentId>
5

$$$$
