5419.cdx
  Mrv1902 05222410202D          

 14 15  0  0  0  0            999 V2000
    9.6404   -6.2791    0.0000 C   0  0  0  0  0  0  0  0  0  0  0  0
    8.8334   -6.4506    0.0000 C   0  0  0  0  0  0  0  0  0  0  0  0
    8.5785   -7.2352    0.0000 C   0  0  0  0  0  0  0  0  0  0  0  0
    7.7715   -7.4068    0.0000 C   0  0  0  0  0  0  0  0  0  0  0  0
    7.7715  -10.3109    0.0000 O   0  0  0  0  0  0  0  0  0  0  0  0
    6.0175   -9.6838    0.0000 C   0  0  0  0  0  0  0  0  0  0  0  0
    5.3030   -9.2713    0.0000 C   0  0  0  0  0  0  0  0  0  0  0  0
    5.3030   -8.4463    0.0000 C   0  0  0  0  0  0  0  0  0  0  0  0
    6.0175   -8.0338    0.0000 C   0  0  0  0  0  0  0  0  0  0  0  0
    7.5166   -8.1914    0.0000 C   0  0  1  0  0  0  0  0  0  0  0  0
    6.7319   -8.4463    0.0000 C   0  0  0  0  0  0  0  0  0  0  0  0
    6.7319   -9.2713    0.0000 C   0  0  0  0  0  0  0  0  0  0  0  0
    7.5166   -9.5263    0.0000 C   0  0  0  0  0  0  0  0  0  0  0  0
    8.0015   -8.8588    0.0000 O   0  0  0  0  0  0  0  0  0  0  0  0
 10  4  1  6  0  0  0
  2  1  1  0  0  0  0
  3  2  1  0  0  0  0
  4  3  1  0  0  0  0
 13  5  2  0  0  0  0
  9 11  1  0  0  0  0
  6 12  1  0  0  0  0
  7  6  2  0  0  0  0
  8  7  1  0  0  0  0
  9  8  1  0  0  0  0
 14 10  1  0  0  0  0
 11 10  1  0  0  0  0
 12 11  2  0  0  0  0
 13 12  1  0  0  0  0
 14 13  1  0  0  0  0
M  END
>  <cdx:fragmentId>
47

$$$$
