542066.cdx
  Mrv1902 05222410262D          

 18 19  0  0  0  0            999 V2000
    6.7825   -7.9416    0.0000 C   0  0  0  0  0  0  0  0  0  0  0  0
    6.7825   -7.1166    0.0000 C   0  0  0  0  0  0  0  0  0  0  0  0
    7.4970   -8.3541    0.0000 O   0  0  0  0  0  0  0  0  0  0  0  0
    6.0680   -8.3541    0.0000 O   0  0  0  0  0  0  0  0  0  0  0  0
    6.0680   -6.7041    0.0000 O   0  0  0  0  0  0  0  0  0  0  0  0
    9.7105   -5.6241    0.0000 O   0  0  0  0  0  0  0  0  0  0  0  0
   10.1954   -6.2916    0.0000 C   0  0  0  0  0  0  0  0  0  0  0  0
    9.7105   -6.9590    0.0000 O   0  0  0  0  0  0  0  0  0  0  0  0
    8.9259   -6.7041    0.0000 C   0  0  0  0  0  0  0  0  0  0  0  0
    8.9259   -5.8791    0.0000 C   0  0  0  0  0  0  0  0  0  0  0  0
    8.2114   -7.1166    0.0000 C   0  0  0  0  0  0  0  0  0  0  0  0
    7.4970   -6.7041    0.0000 C   0  0  0  0  0  0  0  0  0  0  0  0
    7.4970   -5.8791    0.0000 C   0  0  0  0  0  0  0  0  0  0  0  0
    8.2114   -5.4666    0.0000 C   0  0  0  0  0  0  0  0  0  0  0  0
    6.7825   -5.4666    0.0000 C   0  0  0  0  0  0  0  0  0  0  0  0
    6.7825   -4.6416    0.0000 N   0  0  0  0  0  0  0  0  0  0  0  0
    6.0680   -5.8791    0.0000 O   0  0  0  0  0  0  0  0  0  0  0  0
    6.0680   -4.2291    0.0000 C   0  0  0  0  0  0  0  0  0  0  0  0
  1  2  1  0  0  0  0
  1  3  2  0  0  0  0
  1  4  1  0  0  0  0
  2  5  2  0  0  0  0
  6  7  1  0  0  0  0
  7  8  1  0  0  0  0
  8  9  1  0  0  0  0
  9 10  1  0  0  0  0
  6 10  1  0  0  0  0
 11 12  1  0  0  0  0
 12 13  2  0  0  0  0
 13 14  1  0  0  0  0
 14 10  2  0  0  0  0
 11  9  2  0  0  0  0
 15 16  1  0  0  0  0
 15 17  2  0  0  0  0
 16 18  1  0  0  0  0
 13 15  1  0  0  0  0
  2 12  1  0  0  0  0
M  END
>  <cdx:fragmentId>
32725

$$$$
