5424.cdx
  Mrv1902 05222410202D          

 10 10  0  0  0  0            999 V2000
    5.6488   -6.5113    0.0000 C   0  0  0  0  0  0  0  0  0  0  0  0
    5.6474   -7.3363    0.0000 C   0  0  0  0  0  0  0  0  0  0  0  0
    6.3611   -7.7500    0.0000 C   0  0  0  0  0  0  0  0  0  0  0  0
    7.0763   -7.3387    0.0000 C   0  0  0  0  0  0  0  0  0  0  0  0
    7.0777   -6.5137    0.0000 C   0  0  0  0  0  0  0  0  0  0  0  0
    6.3640   -6.1000    0.0000 C   0  0  0  0  0  0  0  0  0  0  0  0
    6.3654   -5.2750    0.0000 O   0  0  0  0  0  0  0  0  0  0  0  0
    7.7901   -7.7525    0.0000 C   0  0  0  0  0  0  0  0  0  0  0  0
    4.9322   -7.7475    0.0000 O   0  0  0  0  0  0  0  0  0  0  0  0
    6.3597   -8.5750    0.0000 O   0  0  0  0  0  0  0  0  0  0  0  0
  1  2  1  0  0  0  0
  2  3  1  0  0  0  0
  3  4  1  0  0  0  0
  4  5  2  0  0  0  0
  5  6  1  0  0  0  0
  6  1  1  0  0  0  0
  6  7  2  0  0  0  0
  4  8  1  0  0  0  0
  2  9  1  0  0  0  0
  3 10  1  0  0  0  0
M  END
>  <cdx:fragmentId>
5

$$$$
