542787.cdx
  Mrv1902 05222410222D          

 40 42  0  0  0  0            999 V2000
    7.7552   -6.6891    0.0000 O   0  0  0  0  0  0  0  0  0  0  0  0
    8.4720   -6.2808    0.0000 C   0  0  0  0  0  0  0  0  0  0  0  0
    8.4768   -5.4558    0.0000 C   0  0  0  0  0  0  0  0  0  0  0  0
    9.1937   -5.0475    0.0000 C   0  0  0  0  0  0  0  0  0  0  0  0
    9.9057   -5.4641    0.0000 C   0  0  0  0  0  0  0  0  0  0  0  0
    9.9010   -6.2891    0.0000 C   0  0  0  0  0  0  0  0  0  0  0  0
    9.1841   -6.6974    0.0000 C   0  0  0  0  0  0  0  0  0  0  0  0
   10.6226   -5.0557    0.0000 C   0  0  0  0  0  0  0  0  0  0  0  0
   11.3347   -5.4724    0.0000 C   0  0  0  0  0  0  0  0  0  0  0  0
   12.0515   -5.0640    0.0000 C   0  0  0  0  0  0  0  0  0  0  0  0
    9.1793   -7.5224    0.0000 O   0  0  0  0  0  0  0  0  0  0  0  0
    9.8914   -7.9391    0.0000 C   0  0  0  0  0  0  0  0  0  0  0  0
    7.7648   -5.0392    0.0000 O   0  0  0  0  0  0  0  0  0  0  0  0
    7.7695   -4.2142    0.0000 C   0  0  0  0  0  0  0  0  0  0  0  0
    7.0407   -7.1016    0.0000 C   0  0  2  0  0  0  0  0  0  0  0  0
    6.3263   -6.6891    0.0000 C   0  0  0  0  0  0  0  0  0  0  0  0
    7.0407   -7.9266    0.0000 C   0  0  1  0  0  0  0  0  0  0  0  0
    7.7552   -8.3391    0.0000 O   0  0  0  0  0  0  0  0  0  0  0  0
    6.3263   -8.3391    0.0000 C   0  0  0  0  0  0  0  0  0  0  0  0
    5.6118   -7.9266    0.0000 C   0  0  0  0  0  0  0  0  0  0  0  0
    4.8973   -8.3391    0.0000 C   0  0  0  0  0  0  0  0  0  0  0  0
    4.8973   -9.1641    0.0000 C   0  0  0  0  0  0  0  0  0  0  0  0
    5.6118   -9.5766    0.0000 C   0  0  0  0  0  0  0  0  0  0  0  0
    6.3263   -9.1641    0.0000 C   0  0  0  0  0  0  0  0  0  0  0  0
    4.1828   -7.9266    0.0000 O   0  0  0  0  0  0  0  0  0  0  0  0
    4.1828   -9.5766    0.0000 O   0  0  0  0  0  0  0  0  0  0  0  0
    5.6118  -10.4016    0.0000 O   0  0  0  0  0  0  0  0  0  0  0  0
    4.8973  -10.8141    0.0000 C   0  0  0  0  0  0  0  0  0  0  0  0
    3.4684   -8.3391    0.0000 C   0  0  0  0  0  0  0  0  0  0  0  0
    7.7552   -9.1641    0.0000 C   0  0  2  0  0  0  0  0  0  0  0  0
    7.0407   -9.5766    0.0000 O   0  0  0  0  0  0  0  0  0  0  0  0
    7.0407  -10.4016    0.0000 C   0  0  1  0  0  0  0  0  0  0  0  0
    7.7552  -10.8141    0.0000 C   0  0  2  0  0  0  0  0  0  0  0  0
    8.4697  -10.4016    0.0000 C   0  0  1  0  0  0  0  0  0  0  0  0
    8.4697   -9.5766    0.0000 C   0  0  1  0  0  0  0  0  0  0  0  0
    6.3263  -10.8141    0.0000 C   0  0  0  0  0  0  0  0  0  0  0  0
    9.1841  -10.8141    0.0000 O   0  0  0  0  0  0  0  0  0  0  0  0
    7.7552  -11.6391    0.0000 O   0  0  0  0  0  0  0  0  0  0  0  0
    9.1841   -9.1641    0.0000 O   0  0  0  0  0  0  0  0  0  0  0  0
    6.3263  -11.6391    0.0000 O   0  0  0  0  0  0  0  0  0  0  0  0
  2  3  1  0  0  0  0
  3  4  2  0  0  0  0
  4  5  1  0  0  0  0
  5  6  2  0  0  0  0
  6  7  1  0  0  0  0
  2  7  2  0  0  0  0
  1  2  1  0  0  0  0
  8  9  2  0  0  0  0
  9 10  1  0  0  0  0
  5  8  1  0  0  0  0
 11 12  1  0  0  0  0
  7 11  1  0  0  0  0
 13 14  1  0  0  0  0
  3 13  1  0  0  0  0
 15  1  1  1  0  0  0
 15 16  1  0  0  0  0
 15 17  1  0  0  0  0
 17 18  1  1  0  0  0
 17 19  1  0  0  0  0
 19 20  2  0  0  0  0
 20 21  1  0  0  0  0
 21 22  2  0  0  0  0
 22 23  1  0  0  0  0
 23 24  2  0  0  0  0
 24 19  1  0  0  0  0
 21 25  1  0  0  0  0
 22 26  1  0  0  0  0
 23 27  1  0  0  0  0
 27 28  1  0  0  0  0
 25 29  1  0  0  0  0
 30 18  1  1  0  0  0
 30 31  1  0  0  0  0
 31 32  1  0  0  0  0
 32 33  1  0  0  0  0
 33 34  1  0  0  0  0
 34 35  1  0  0  0  0
 35 30  1  0  0  0  0
 32 36  1  1  0  0  0
 34 37  1  1  0  0  0
 33 38  1  6  0  0  0
 35 39  1  6  0  0  0
 36 40  1  0  0  0  0
M  END
>  <cdx:groupId>
249315

>  <cdx:fragmentId>
249226

$$$$
