543198.cdx
  Mrv1902 05222410192D          

 19 20  0  0  0  0            999 V2000
    8.7742   -9.7270    0.0000 C   0  0  0  0  0  0  0  0  0  0  0  0
    9.2592   -9.0596    0.0000 C   0  0  0  0  0  0  0  0  0  0  0  0
    8.7742   -8.3921    0.0000 C   0  0  2  0  0  0  0  0  0  0  0  0
    7.9896   -8.6471    0.0000 C   0  0  1  0  0  0  0  0  0  0  0  0
    7.3446   -8.1327    0.0000 C   0  0  0  0  0  0  0  0  0  0  0  0
    6.5403   -8.3163    0.0000 C   0  0  0  0  0  0  0  0  0  0  0  0
    6.1823   -9.0596    0.0000 C   0  0  0  0  0  0  0  0  0  0  0  0
    6.5403   -9.8029    0.0000 C   0  0  0  0  0  0  0  0  0  0  0  0
    7.3446   -9.9865    0.0000 C   0  0  0  0  0  0  0  0  0  0  0  0
    7.9896   -9.4721    0.0000 C   0  0  2  0  0  0  0  0  0  0  0  0
    5.3573   -9.0596    0.0000 O   0  0  0  0  0  0  0  0  0  0  0  0
    6.3273   -6.9033    0.0000 C   0  0  0  0  0  0  0  0  0  0  0  0
    6.0259   -7.6713    0.0000 C   0  0  0  0  0  0  0  0  0  0  0  0
    5.2101   -7.7942    0.0000 C   0  0  0  0  0  0  0  0  0  0  0  0
    7.5282  -10.7908    0.0000 C   0  0  0  0  0  0  0  0  0  0  0  0
    9.3873   -7.8401    0.0000 C   0  0  0  0  0  0  0  0  0  0  0  0
    8.6027   -7.5852    0.0000 O   0  0  0  0  0  0  0  0  0  0  0  0
    8.1369   -7.8353    0.0000 H   0  0  0  0  0  0  0  0  0  0  0  0
    8.1369  -10.2838    0.0000 H   0  0  0  0  0  0  0  0  0  0  0  0
  1  2  1  0  0  0  0
  2  3  1  0  0  0  0
  3  4  1  0  0  0  0
  4  5  1  0  0  0  0
  5  6  1  0  0  0  0
  6  7  1  0  0  0  0
  7  8  1  0  0  0  0
  8  9  1  0  0  0  0
  9 10  1  0  0  0  0
  1 10  1  0  0  0  0
  4 10  1  0  0  0  0
  7 11  2  0  0  0  0
 12 13  1  0  0  0  0
 13 14  1  0  0  0  0
  6 13  2  0  0  0  0
  9 15  2  0  0  0  0
  3 16  1  6  0  0  0
  3 17  1  1  0  0  0
  4 18  1  1  0  0  0
 10 19  1  6  0  0  0
M  END
>  <cdx:fragmentId>
47281

$$$$
