543123.cdx
  Mrv1902 05222410252D          

  8  7  0  0  0  0            999 V2000
   16.9406   -8.7555    0.0000 C   0  0  0  0  0  0  0  0  0  0  0  0
   16.2262   -8.3430    0.0000 C   0  0  0  0  0  0  0  0  0  0  0  0
   15.5117   -8.7555    0.0000 C   0  0  0  0  0  0  0  0  0  0  0  0
   14.7972   -8.3430    0.0000 C   0  0  0  0  0  0  0  0  0  0  0  0
   14.0828   -8.7555    0.0000 C   0  0  0  0  0  0  0  0  0  0  0  0
   13.3683   -8.3430    0.0000 C   0  0  0  0  0  0  0  0  0  0  0  0
   12.6538   -8.7555    0.0000 C   0  0  0  0  0  0  0  0  0  0  0  0
   17.6551   -8.3430    0.0000 O   0  0  0  0  0  0  0  0  0  0  0  0
  1  2  1  0  0  0  0
  2  3  1  0  0  0  0
  3  4  1  0  0  0  0
  4  5  1  0  0  0  0
  5  6  1  0  0  0  0
  6  7  2  0  0  0  0
  1  8  1  0  0  0  0
M  END
>  <cdx:groupId>
32794

>  <cdx:fragmentId>
32774

$$$$
