543212.cdx
  Mrv1902 05222410182D          

 17 17  0  0  0  0            999 V2000
    5.9599   -7.1100    0.0000 C   0  0  0  0  0  0  0  0  0  0  0  0
    5.5474   -7.8244    0.0000 C   0  0  0  0  0  0  0  0  0  0  0  0
    5.8488   -8.5924    0.0000 C   0  0  0  0  0  0  0  0  0  0  0  0
    6.6371   -8.8356    0.0000 C   0  0  0  0  0  0  0  0  0  0  0  0
    7.3188   -8.3709    0.0000 C   0  0  0  0  0  0  0  0  0  0  0  0
    7.3804   -7.5482    0.0000 C   0  0  0  0  0  0  0  0  0  0  0  0
    6.7757   -6.9870    0.0000 C   0  0  0  0  0  0  0  0  0  0  0  0
    5.5474   -6.3955    0.0000 O   0  0  0  0  0  0  0  0  0  0  0  0
    4.3099   -7.1100    0.0000 C   0  0  0  0  0  0  0  0  0  0  0  0
    4.7224   -7.8244    0.0000 C   0  0  0  0  0  0  0  0  0  0  0  0
    4.3099   -8.5389    0.0000 C   0  0  0  0  0  0  0  0  0  0  0  0
    8.0332   -8.7834    0.0000 C   0  0  0  0  0  0  0  0  0  0  0  0
    8.7477   -8.3709    0.0000 C   0  0  0  0  0  0  0  0  0  0  0  0
    9.4622   -8.7834    0.0000 C   0  0  0  0  0  0  0  0  0  0  0  0
   10.1767   -8.3709    0.0000 C   0  0  0  0  0  0  0  0  0  0  0  0
    9.4622   -9.6084    0.0000 O   0  0  0  0  0  0  0  0  0  0  0  0
    8.1484   -7.2468    0.0000 C   0  0  0  0  0  0  0  0  0  0  0  0
  1  2  1  0  0  0  0
  2  3  1  0  0  0  0
  3  4  1  0  0  0  0
  4  5  2  0  0  0  0
  5  6  1  0  0  0  0
  6  7  1  0  0  0  0
  1  7  1  0  0  0  0
  1  8  2  0  0  0  0
  9 10  1  0  0  0  0
 10 11  1  0  0  0  0
  2 10  2  0  0  0  0
 12 13  1  0  0  0  0
 13 14  1  0  0  0  0
 14 15  1  0  0  0  0
 14 16  2  0  0  0  0
  5 12  1  0  0  0  0
  6 17  1  0  0  0  0
M  END
>  <cdx:groupId>
106163

>  <cdx:fragmentId>
106115

$$$$
