543326.cdx
  Mrv1902 05222410242D          

 37 44  0  0  0  0            999 V2000
    9.6007   -5.9101    0.0000 C   0  0  0  0  0  0  0  0  0  0  0  0
    9.6820   -6.8348    0.0000 N   0  0  0  0  0  0  0  0  0  0  0  0
    8.8933   -7.3239    0.0000 C   0  0  0  0  0  0  0  0  0  0  0  0
    8.1003   -6.8417    0.0000 C   0  0  0  0  0  0  0  0  0  0  0  0
    8.1718   -5.9163    0.0000 C   0  0  0  0  0  0  0  0  0  0  0  0
    7.4591   -6.3320    0.0000 C   0  0  0  0  0  0  0  0  0  0  0  0
    7.4627   -7.1570    0.0000 C   0  0  0  0  0  0  0  0  0  0  0  0
    8.1790   -7.5663    0.0000 C   0  0  0  0  0  0  0  0  0  0  0  0
    8.8916   -7.1507    0.0000 C   0  0  0  0  0  0  0  0  0  0  0  0
    8.8880   -6.3257    0.0000 C   0  0  0  0  0  0  0  0  0  0  0  0
    6.9109   -5.5111    0.0000 O   0  0  0  0  0  0  0  0  0  0  0  0
    8.1681   -5.0913    0.0000 C   0  0  0  0  0  0  0  0  0  0  0  0
    7.4519   -4.6820    0.0000 C   0  0  0  0  0  0  0  0  0  0  0  0
    8.8808   -4.6757    0.0000 C   0  0  0  0  0  0  0  0  0  0  0  0
    8.8772   -3.8507    0.0000 C   0  0  0  0  0  0  0  0  0  0  0  0
    8.1609   -3.4414    0.0000 C   0  0  0  0  0  0  0  0  0  0  0  0
    7.4483   -3.8570    0.0000 C   0  0  0  0  0  0  0  0  0  0  0  0
    9.5971   -5.0851    0.0000 C   0  0  0  0  0  0  0  0  0  0  0  0
    8.1826   -8.3913    0.0000 O   0  0  0  0  0  0  0  0  0  0  0  0
    6.7320   -3.4476    0.0000 O   0  0  0  0  0  0  0  0  0  0  0  0
    6.7501   -7.5726    0.0000 N   0  0  0  0  0  0  0  0  0  0  0  0
    5.2553   -8.5617    0.0000 N   0  0  0  0  0  0  0  0  0  0  0  0
    4.7733   -9.2313    0.0000 O   0  0  0  0  0  0  0  0  0  0  0  0
    5.2611   -9.8966    0.0000 N   0  0  0  0  0  0  0  0  0  0  0  0
    6.0446   -9.6382    0.0000 C   0  0  0  0  0  0  0  0  0  0  0  0
    6.0410   -8.8132    0.0000 C   0  0  0  0  0  0  0  0  0  0  0  0
    6.7609  -10.0476    0.0000 C   0  0  0  0  0  0  0  0  0  0  0  0
    7.4736   -9.6319    0.0000 C   0  0  0  0  0  0  0  0  0  0  0  0
    7.4699   -8.8069    0.0000 C   0  0  0  0  0  0  0  0  0  0  0  0
    6.7537   -8.3976    0.0000 C   0  0  0  0  0  0  0  0  0  0  0  0
    7.4808  -11.2819    0.0000 O   0  5  0  0  0  0  0  0  0  0  0  0
   10.3983   -7.2441    0.0000 C   0  0  0  0  0  0  0  0  0  0  0  0
   10.4019   -8.0691    0.0000 C   0  0  0  0  0  0  0  0  0  0  0  0
   10.8175   -8.7818    0.0000 C   0  0  0  0  0  0  0  0  0  0  0  0
    9.9925   -8.7854    0.0000 C   0  0  0  0  0  0  0  0  0  0  0  0
    6.0519  -11.2882    0.0000 O   0  0  0  0  0  0  0  0  0  0  0  0
    6.7645  -10.8725    0.0000 N   0  3  0  0  0  0  0  0  0  0  0  0
 37 31  1  0  0  0  0
 37 36  2  0  0  0  0
  1  2  1  0  0  0  0
  2  3  1  0  0  0  0
  3  4  1  0  0  0  0
  4  5  1  0  0  0  0
  5  6  1  0  0  0  0
  6  7  1  0  0  0  0
  7  8  1  0  0  0  0
  8  9  1  0  0  0  0
  9 10  1  0  0  0  0
  1 10  1  0  0  0  0
  5 10  1  0  0  0  0
 12 13  1  0  0  0  0
 11 13  1  0  0  0  0
 14 15  1  0  0  0  0
 15 16  2  0  0  0  0
 16 17  1  0  0  0  0
 17 13  2  0  0  0  0
 14 12  2  0  0  0  0
 12  5  1  0  0  0  0
 11  6  1  0  0  0  0
  1 18  1  0  0  0  0
 14 18  1  0  0  0  0
  8 19  1  0  0  0  0
 17 20  1  0  0  0  0
 22 23  1  0  0  0  0
 23 24  1  0  0  0  0
 24 25  2  0  0  0  0
 25 26  1  0  0  0  0
 22 26  2  0  0  0  0
 27 28  2  0  0  0  0
 28 29  1  0  0  0  0
 29 30  2  0  0  0  0
 30 26  1  0  0  0  0
 27 25  1  0  0  0  0
 27 37  1  0  0  0  0
 21 30  1  0  0  0  0
  7 21  1  0  0  0  0
 33 34  1  0  0  0  0
 34 35  1  0  0  0  0
 33 35  1  0  0  0  0
 32 33  1  0  0  0  0
  2 32  1  0  0  0  0
M  CHG  2  31  -1  37   1
M  END
>  <cdx:fragmentId>
32879

$$$$
