543400.cdx
  Mrv1902 05222410182D          

 17 17  0  0  0  0            999 V2000
   15.0563   -7.1738    0.0000 C   0  0  0  0  0  0  0  0  0  0  0  0
   15.8813   -7.1738    0.0000 C   0  0  0  0  0  0  0  0  0  0  0  0
   16.2938   -7.8882    0.0000 C   0  0  0  0  0  0  0  0  0  0  0  0
   17.1007   -8.0598    0.0000 C   0  0  0  0  0  0  0  0  0  0  0  0
   17.3557   -8.8444    0.0000 C   0  0  0  0  0  0  0  0  0  0  0  0
   16.8036   -9.4575    0.0000 C   0  0  0  0  0  0  0  0  0  0  0  0
   16.8899  -10.2780    0.0000 C   0  0  0  0  0  0  0  0  0  0  0  0
   16.2224  -10.7629    0.0000 C   0  0  0  0  0  0  0  0  0  0  0  0
   15.4688  -10.4273    0.0000 C   0  0  0  0  0  0  0  0  0  0  0  0
   14.7151  -10.7629    0.0000 C   0  0  0  0  0  0  0  0  0  0  0  0
   14.0476  -10.2780    0.0000 C   0  0  0  0  0  0  0  0  0  0  0  0
   14.1339   -9.4575    0.0000 C   0  0  0  0  0  0  0  0  0  0  0  0
   13.5818   -8.8444    0.0000 C   0  0  0  0  0  0  0  0  0  0  0  0
   13.8368   -8.0598    0.0000 C   0  0  0  0  0  0  0  0  0  0  0  0
   14.6438   -7.8882    0.0000 C   0  0  0  0  0  0  0  0  0  0  0  0
   14.6438   -6.4593    0.0000 O   0  0  0  0  0  0  0  0  0  0  0  0
   16.2938   -6.4593    0.0000 O   0  0  0  0  0  0  0  0  0  0  0  0
  1  2  1  0  0  0  0
  2  3  1  0  0  0  0
  3  4  1  0  0  0  0
  4  5  1  0  0  0  0
  5  6  1  0  0  0  0
  6  7  1  0  0  0  0
  7  8  1  0  0  0  0
  8  9  1  0  0  0  0
  9 10  1  0  0  0  0
 10 11  1  0  0  0  0
 11 12  1  0  0  0  0
 12 13  1  0  0  0  0
 13 14  1  0  0  0  0
 14 15  1  0  0  0  0
  1 15  1  0  0  0  0
  1 16  2  0  0  0  0
  2 17  1  0  0  0  0
M  END
>  <cdx:groupId>
33054

>  <cdx:fragmentId>
33006

$$$$
