6543478.cdx
  Mrv1902 05222410242D          

 21 24  0  0  0  0            999 V2000
    7.6062  -13.3012    0.0000 C   0  0  1  0  0  0  0  0  0  0  0  0
    7.1213  -12.6337    0.0000 O   0  0  0  0  0  0  0  0  0  0  0  0
    7.4840  -11.8927    0.0000 C   0  0  0  0  0  0  0  0  0  0  0  0
    8.2910  -12.0642    0.0000 C   0  0  0  0  0  0  0  0  0  0  0  0
    8.3207  -12.8887    0.0000 C   0  0  2  0  0  0  0  0  0  0  0  0
    9.0351  -13.3012    0.0000 C   0  0  0  0  0  0  0  0  0  0  0  0
    9.0351  -14.1262    0.0000 C   0  0  0  0  0  0  0  0  0  0  0  0
    8.3207  -14.5387    0.0000 C   0  0  2  0  0  0  0  0  0  0  0  0
    7.6062  -14.1262    0.0000 C   0  0  2  0  0  0  0  0  0  0  0  0
    6.8917  -14.5387    0.0000 C   0  0  0  0  0  0  0  0  0  0  0  0
    6.1773  -14.1262    0.0000 C   0  0  0  0  0  0  0  0  0  0  0  0
    6.1773  -13.3012    0.0000 C   0  0  1  0  0  0  0  0  0  0  0  0
    6.1773  -12.4762    0.0000 O   0  0  0  0  0  0  0  0  0  0  0  0
    6.8917  -12.8887    0.0000 C   0  0  1  0  0  0  0  0  0  0  0  0
    7.0715  -11.1782    0.0000 O   0  0  0  0  0  0  0  0  0  0  0  0
    8.9227  -11.5335    0.0000 C   0  0  0  0  0  0  0  0  0  0  0  0
    5.3523  -13.3012    0.0000 C   0  0  0  0  0  0  0  0  0  0  0  0
    8.3207  -15.3637    0.0000 C   0  0  0  0  0  0  0  0  0  0  0  0
    9.0351  -12.4762    0.0000 H   0  0  0  0  0  0  0  0  0  0  0  0
    7.6062  -14.9512    0.0000 H   0  0  0  0  0  0  0  0  0  0  0  0
    6.7485  -12.0762    0.0000 H   0  0  0  0  0  0  0  0  0  0  0  0
  1  2  1  1  0  0  0
  2  3  1  0  0  0  0
  3  4  1  0  0  0  0
  4  5  1  0  0  0  0
  5  6  1  0  0  0  0
  6  7  1  0  0  0  0
  7  8  1  0  0  0  0
  8  9  1  0  0  0  0
  9 10  1  0  0  0  0
 10 11  1  0  0  0  0
 11 12  1  0  0  0  0
 12 13  1  0  0  0  0
 13 14  1  0  0  0  0
  1 14  1  0  0  0  0
  1  9  1  0  0  0  0
  1  5  1  0  0  0  0
 12 14  1  0  0  0  0
  3 15  2  0  0  0  0
  4 16  2  0  0  0  0
 12 17  1  6  0  0  0
  8 18  1  1  0  0  0
  5 19  1  1  0  0  0
  9 20  1  1  0  0  0
 14 21  1  6  0  0  0
M  END
>  <cdx:groupId>
25546

>  <cdx:fragmentId>
25483

$$$$
