543438.cdx
  Mrv1902 05222410202D          

 19 18  0  0  0  0            999 V2000
    3.8122   -6.8174    0.0000 C   0  0  0  0  0  0  0  0  0  0  0  0
    4.5267   -7.2299    0.0000 C   0  0  0  0  0  0  0  0  0  0  0  0
    5.2412   -6.8174    0.0000 C   0  0  0  0  0  0  0  0  0  0  0  0
    5.9556   -7.2299    0.0000 C   0  0  0  0  0  0  0  0  0  0  0  0
    6.6701   -6.8174    0.0000 C   0  0  0  0  0  0  0  0  0  0  0  0
    7.3846   -7.2299    0.0000 C   0  0  0  0  0  0  0  0  0  0  0  0
    8.0990   -6.8174    0.0000 C   0  0  0  0  0  0  0  0  0  0  0  0
    8.8135   -7.2299    0.0000 C   0  0  0  0  0  0  0  0  0  0  0  0
    9.5280   -6.8174    0.0000 C   0  0  0  0  0  0  0  0  0  0  0  0
   10.2425   -7.2299    0.0000 C   0  0  0  0  0  0  0  0  0  0  0  0
    3.0978   -7.2299    0.0000 C   0  0  0  0  0  0  0  0  0  0  0  0
    3.0978   -8.0549    0.0000 C   0  0  0  0  0  0  0  0  0  0  0  0
    2.3833   -8.4674    0.0000 C   0  0  0  0  0  0  0  0  0  0  0  0
    2.3833   -9.2924    0.0000 O   0  0  0  0  0  0  0  0  0  0  0  0
   10.9569   -6.8174    0.0000 C   0  0  0  0  0  0  0  0  0  0  0  0
   10.9569   -5.9924    0.0000 C   0  0  0  0  0  0  0  0  0  0  0  0
   11.6714   -5.5799    0.0000 C   0  0  0  0  0  0  0  0  0  0  0  0
   11.6714   -4.7549    0.0000 C   0  0  0  0  0  0  0  0  0  0  0  0
   12.3859   -4.3424    0.0000 C   0  0  0  0  0  0  0  0  0  0  0  0
  1  2  1  0  0  0  0
  2  3  1  0  0  0  0
  3  4  1  0  0  0  0
  4  5  1  0  0  0  0
  5  6  1  0  0  0  0
  6  7  1  0  0  0  0
  7  8  1  0  0  0  0
  8  9  1  0  0  0  0
  9 10  1  0  0  0  0
  1 11  2  0  0  0  0
 11 12  1  0  0  0  0
 12 13  1  0  0  0  0
 13 14  1  0  0  0  0
 10 15  2  0  0  0  0
 15 16  1  0  0  0  0
 16 17  1  0  0  0  0
 17 18  1  0  0  0  0
 18 19  1  0  0  0  0
M  END
>  <cdx:groupId>
33114

>  <cdx:fragmentId>
33061

$$$$
