543579.cdx
  Mrv1902 05222410282D          

 20 19  0  0  0  0            999 V2000
   10.4675   -8.7126    0.0000 C   0  0  0  0  0  0  0  0  0  0  0  0
    9.7530   -9.1251    0.0000 C   0  0  0  0  0  0  0  0  0  0  0  0
    9.0385   -8.7126    0.0000 C   0  0  0  0  0  0  0  0  0  0  0  0
   10.4675   -7.8876    0.0000 O   0  0  0  0  0  0  0  0  0  0  0  0
   11.1819   -9.1251    0.0000 O   0  0  0  0  0  0  0  0  0  0  0  0
   11.8964   -8.7126    0.0000 C   0  0  0  0  0  0  0  0  0  0  0  0
   12.6109   -9.1251    0.0000 C   0  0  0  0  0  0  0  0  0  0  0  0
   13.3253   -8.7126    0.0000 C   0  0  0  0  0  0  0  0  0  0  0  0
   14.0398   -9.1251    0.0000 C   0  0  0  0  0  0  0  0  0  0  0  0
   14.7543   -8.7126    0.0000 C   0  0  0  0  0  0  0  0  0  0  0  0
   15.4688   -9.1251    0.0000 C   0  0  0  0  0  0  0  0  0  0  0  0
   16.1832   -8.7126    0.0000 C   0  0  0  0  0  0  0  0  0  0  0  0
   16.8977   -9.1251    0.0000 C   0  0  0  0  0  0  0  0  0  0  0  0
   17.6122   -8.7126    0.0000 C   0  0  0  0  0  0  0  0  0  0  0  0
   18.3266   -9.1251    0.0000 C   0  0  0  0  0  0  0  0  0  0  0  0
   19.0411   -8.7126    0.0000 C   0  0  0  0  0  0  0  0  0  0  0  0
   19.7556   -9.1251    0.0000 C   0  0  0  0  0  0  0  0  0  0  0  0
   20.4701   -8.7126    0.0000 C   0  0  0  0  0  0  0  0  0  0  0  0
   21.1845   -9.1251    0.0000 C   0  0  0  0  0  0  0  0  0  0  0  0
   21.8990   -8.7126    0.0000 C   0  0  0  0  0  0  0  0  0  0  0  0
  1  2  1  0  0  0  0
  2  3  2  0  0  0  0
  1  4  2  0  0  0  0
  1  5  1  0  0  0  0
  6  7  1  0  0  0  0
  7  8  1  0  0  0  0
  8  9  1  0  0  0  0
  9 10  1  0  0  0  0
 10 11  1  0  0  0  0
 11 12  1  0  0  0  0
 12 13  1  0  0  0  0
 13 14  1  0  0  0  0
 14 15  1  0  0  0  0
 15 16  1  0  0  0  0
 16 17  1  0  0  0  0
 17 18  1  0  0  0  0
 18 19  1  0  0  0  0
 19 20  1  0  0  0  0
  5  6  1  0  0  0  0
M  END
>  <cdx:groupId>
33178

>  <cdx:fragmentId>
33132

$$$$
