543720.cdx
  Mrv1902 05222410232D          

 25 28  0  0  0  0            999 V2000
    7.0327   -6.6734    0.0000 C   0  0  1  0  0  0  0  0  0  0  0  0
    6.5478   -6.0060    0.0000 C   0  0  0  0  0  0  0  0  0  0  0  0
    7.0327   -5.3385    0.0000 O   0  0  0  0  0  0  0  0  0  0  0  0
    7.8173   -5.5935    0.0000 C   0  0  2  0  0  0  0  0  0  0  0  0
    8.6019   -5.3385    0.0000 O   0  0  0  0  0  0  0  0  0  0  0  0
    9.0869   -6.0060    0.0000 C   0  0  0  0  0  0  0  0  0  0  0  0
    8.6019   -6.6734    0.0000 C   0  0  1  0  0  0  0  0  0  0  0  0
    7.8173   -6.4185    0.0000 C   0  0  2  0  0  0  0  0  0  0  0  0
    8.3022   -7.0859    0.0000 C   0  0  2  0  0  0  0  0  0  0  0  0
    7.8173   -7.7533    0.0000 C   0  0  0  0  0  0  0  0  0  0  0  0
    7.0327   -7.4984    0.0000 C   0  0  2  0  0  0  0  0  0  0  0  0
    6.2481   -7.7533    0.0000 O   0  0  0  0  0  0  0  0  0  0  0  0
    5.7631   -7.0859    0.0000 C   0  0  0  0  0  0  0  0  0  0  0  0
    6.2481   -6.4185    0.0000 C   0  0  0  0  0  0  0  0  0  0  0  0
    5.7228   -6.0060    0.0000 O   0  0  0  0  0  0  0  0  0  0  0  0
    9.9119   -6.0060    0.0000 O   0  0  0  0  0  0  0  0  0  0  0  0
    4.9381   -7.0859    0.0000 O   0  0  0  0  0  0  0  0  0  0  0  0
    9.0499   -7.4346    0.0000 O   0  0  0  0  0  0  0  0  0  0  0  0
    9.3669   -6.9825    0.0000 O   0  0  0  0  0  0  0  0  0  0  0  0
    8.6509   -7.8336    0.0000 C   0  0  0  0  0  0  0  0  0  0  0  0
    8.1777   -8.5094    0.0000 C   0  0  0  0  0  0  0  0  0  0  0  0
    8.9996   -8.5813    0.0000 C   0  0  0  0  0  0  0  0  0  0  0  0
    9.4728   -7.9055    0.0000 C   0  0  0  0  0  0  0  0  0  0  0  0
    7.8173   -4.7685    0.0000 H   0  0  0  0  0  0  0  0  0  0  0  0
    7.0327   -8.3234    0.0000 H   0  0  0  0  0  0  0  0  0  0  0  0
  1  2  1  0  0  0  0
  2  3  1  0  0  0  0
  3  4  1  0  0  0  0
  4  5  1  0  0  0  0
  5  6  1  0  0  0  0
  6  7  1  0  0  0  0
  8  7  1  6  0  0  0
  8  9  1  0  0  0  0
  9 10  1  0  0  0  0
 10 11  1  0  0  0  0
 11 12  1  0  0  0  0
 12 13  1  0  0  0  0
 13 14  1  0  0  0  0
  1 14  1  6  0  0  0
  1  8  1  0  0  0  0
  1 11  1  0  0  0  0
  4  8  1  0  0  0  0
  2 15  2  0  0  0  0
  6 16  2  0  0  0  0
 13 17  2  0  0  0  0
  9 18  1  1  0  0  0
  7 19  1  6  0  0  0
 20 21  1  0  0  0  0
 20 23  1  0  0  0  0
 20 22  1  0  0  0  0
  9 20  1  0  0  0  0
  4 24  1  1  0  0  0
 11 25  1  1  0  0  0
M  END
>  <cdx:fragmentId>
5

$$$$
