543721.cdx
  Mrv1902 05222410242D          

 28 30  0  0  0  0            999 V2000
    4.1839   -6.8882    0.0000 C   0  0  1  0  0  0  0  0  0  0  0  0
    4.4440   -7.6711    0.0000 C   0  0  1  0  0  0  0  0  0  0  0  0
    5.2690   -7.6657    0.0000 C   0  0  1  0  0  0  0  0  0  0  0  0
    5.5187   -6.8794    0.0000 C   0  0  2  0  0  0  0  0  0  0  0  0
    4.8481   -6.3989    0.0000 C   0  0  2  0  0  0  0  0  0  0  0  0
    4.1943   -8.4574    0.0000 O   0  0  0  0  0  0  0  0  0  0  0  0
    4.8649   -8.9379    0.0000 C   0  0  0  0  0  0  0  0  0  0  0  0
    5.5291   -8.4486    0.0000 C   0  0  0  0  0  0  0  0  0  0  0  0
    5.9396   -8.1462    0.0000 C   0  0  0  0  0  0  0  0  0  0  0  0
    6.6038   -7.6568    0.0000 O   0  0  0  0  0  0  0  0  0  0  0  0
    6.3437   -6.8739    0.0000 C   0  0  1  0  0  0  0  0  0  0  0  0
    6.8242   -6.2033    0.0000 C   0  0  0  0  0  0  0  0  0  0  0  0
    4.6346   -5.6020    0.0000 O   0  0  0  0  0  0  0  0  0  0  0  0
    3.3976   -6.6385    0.0000 C   0  0  0  0  0  0  0  0  0  0  0  0
    2.7882   -7.1945    0.0000 C   0  0  0  0  0  0  0  0  0  0  0  0
    3.2207   -5.8326    0.0000 O   0  0  0  0  0  0  0  0  0  0  0  0
    5.9451   -8.9711    0.0000 O   0  0  0  0  0  0  0  0  0  0  0  0
    4.8704   -9.7629    0.0000 O   0  0  0  0  0  0  0  0  0  0  0  0
    2.0019   -6.9448    0.0000 C   0  0  0  0  0  0  0  0  0  0  0  0
    2.9650   -8.0004    0.0000 C   0  0  0  0  0  0  0  0  0  0  0  0
    2.1787   -7.7506    0.0000 C   0  0  0  0  0  0  0  0  0  0  0  0
    5.0616   -5.6020    0.0000 H   0  0  0  0  0  0  0  0  0  0  0  0
    4.0494   -6.0742    0.0000 H   0  0  0  0  0  0  0  0  0  0  0  0
    5.5187   -6.0544    0.0000 H   0  0  0  0  0  0  0  0  0  0  0  0
    6.3437   -6.0489    0.0000 H   0  0  0  0  0  0  0  0  0  0  0  0
    3.6190   -7.6766    0.0000 H   0  0  0  0  0  0  0  0  0  0  0  0
    6.4837   -5.4518    0.0000 O   0  0  0  0  0  0  0  0  0  0  0  0
    7.6452   -6.2841    0.0000 O   0  0  0  0  0  0  0  0  0  0  0  0
  1  2  1  0  0  0  0
  2  3  1  0  0  0  0
  3  4  1  0  0  0  0
  4  5  1  0  0  0  0
  5  1  1  0  0  0  0
  2  6  1  0  0  0  0
  6  7  1  0  0  0  0
  7  8  1  0  0  0  0
  8  3  1  0  0  0  0
  3  9  1  6  0  0  0
  9 10  1  0  0  0  0
 10 11  1  0  0  0  0
 11  4  1  0  0  0  0
 11 12  1  0  0  0  0
  5 13  1  0  0  0  0
  1 14  1  0  0  0  0
 14 15  1  0  0  0  0
 14 16  2  0  0  0  0
  9 17  2  0  0  0  0
  7 18  2  0  0  0  0
 15 19  1  0  0  0  0
 15 20  1  0  0  0  0
 15 21  1  0  0  0  0
  5 22  1  6  0  0  0
  1 23  1  1  0  0  0
  4 24  1  1  0  0  0
 11 25  1  1  0  0  0
  2 26  1  6  0  0  0
 12 27  2  0  0  0  0
 12 28  1  0  0  0  0
M  END
>  <cdx:fragmentId>
100

$$$$
