543912.cdx
  Mrv1902 05222410242D          

 18 17  0  0  0  0            999 V2000
   19.7985   -8.3030    0.0000 C   0  0  0  0  0  0  0  0  0  0  0  0
   19.0841   -8.7155    0.0000 C   0  0  0  0  0  0  0  0  0  0  0  0
   18.3696   -8.3030    0.0000 C   0  0  0  0  0  0  0  0  0  0  0  0
   17.6551   -8.7155    0.0000 C   0  0  0  0  0  0  0  0  0  0  0  0
   16.9406   -8.3030    0.0000 C   0  0  0  0  0  0  0  0  0  0  0  0
   16.2262   -8.7155    0.0000 C   0  0  0  0  0  0  0  0  0  0  0  0
   15.5117   -8.3030    0.0000 C   0  0  0  0  0  0  0  0  0  0  0  0
   14.7972   -8.7155    0.0000 C   0  0  0  0  0  0  0  0  0  0  0  0
   14.0828   -8.3030    0.0000 C   0  0  0  0  0  0  0  0  0  0  0  0
   13.3683   -8.7155    0.0000 C   0  0  0  0  0  0  0  0  0  0  0  0
   12.6538   -8.3030    0.0000 C   0  0  0  0  0  0  0  0  0  0  0  0
   11.9393   -8.7155    0.0000 C   0  0  0  0  0  0  0  0  0  0  0  0
   11.2249   -8.3030    0.0000 C   0  0  0  0  0  0  0  0  0  0  0  0
   10.5104   -8.7155    0.0000 C   0  0  0  0  0  0  0  0  0  0  0  0
    9.7959   -8.3030    0.0000 C   0  0  0  0  0  0  0  0  0  0  0  0
   19.7985   -7.4780    0.0000 O   0  0  0  0  0  0  0  0  0  0  0  0
   20.5130   -8.7155    0.0000 O   0  0  0  0  0  0  0  0  0  0  0  0
   10.5104   -9.5405    0.0000 Br  0  0  0  0  0  0  0  0  0  0  0  0
  1  2  1  0  0  0  0
  2  3  1  0  0  0  0
  3  4  1  0  0  0  0
  4  5  1  0  0  0  0
  5  6  1  0  0  0  0
  6  7  1  0  0  0  0
  7  8  1  0  0  0  0
  8  9  1  0  0  0  0
  9 10  1  0  0  0  0
 10 11  1  0  0  0  0
 11 12  1  0  0  0  0
 12 13  1  0  0  0  0
 13 14  1  0  0  0  0
 14 15  1  0  0  0  0
  1 16  2  0  0  0  0
  1 17  1  0  0  0  0
 14 18  1  0  0  0  0
M  END
>  <cdx:groupId>
33237

>  <cdx:fragmentId>
33187

$$$$
