5440.cdx
  Mrv1902 05222410212D          

 17 17  0  0  0  0            999 V2000
    6.5231   -7.3425    0.0000 C   0  0  0  0  0  0  0  0  0  0  0  0
    6.5231   -8.1675    0.0000 C   0  0  0  0  0  0  0  0  0  0  0  0
    7.1681   -8.6819    0.0000 C   0  0  0  0  0  0  0  0  0  0  0  0
    7.9724   -8.4983    0.0000 C   0  0  2  0  0  0  0  0  0  0  0  0
    8.3303   -7.7550    0.0000 C   0  0  0  0  0  0  0  0  0  0  0  0
    7.9724   -7.0117    0.0000 C   0  0  0  0  0  0  0  0  0  0  0  0
    7.1681   -6.8281    0.0000 C   0  0  0  0  0  0  0  0  0  0  0  0
    6.9545   -6.0312    0.0000 C   0  0  0  0  0  0  0  0  0  0  0  0
    5.8086   -8.5800    0.0000 O   0  0  0  0  0  0  0  0  0  0  0  0
    5.8086   -6.9300    0.0000 C   0  0  0  0  0  0  0  0  0  0  0  0
    5.0941   -7.3425    0.0000 C   0  0  0  0  0  0  0  0  0  0  0  0
    4.3796   -6.9300    0.0000 C   0  0  0  0  0  0  0  0  0  0  0  0
    3.6652   -7.3425    0.0000 C   0  0  0  0  0  0  0  0  0  0  0  0
    4.3796   -6.1050    0.0000 O   0  0  0  0  0  0  0  0  0  0  0  0
    8.5557   -9.0817    0.0000 C   0  0  0  0  0  0  0  0  0  0  0  0
    8.3422   -9.8786    0.0000 C   0  0  0  0  0  0  0  0  0  0  0  0
    9.3526   -8.8681    0.0000 C   0  0  0  0  0  0  0  0  0  0  0  0
  1  2  1  0  0  0  0
  2  3  1  0  0  0  0
  3  4  1  0  0  0  0
  4  5  1  0  0  0  0
  5  6  1  0  0  0  0
  6  7  1  0  0  0  0
  7  1  2  0  0  0  0
  7  8  1  0  0  0  0
  2  9  2  0  0  0  0
  1 10  1  0  0  0  0
 10 11  1  0  0  0  0
 11 12  1  0  0  0  0
 12 13  1  0  0  0  0
 12 14  2  0  0  0  0
  4 15  1  6  0  0  0
 15 16  1  0  0  0  0
 15 17  2  0  0  0  0
M  END
>  <cdx:fragmentId>
5

$$$$
