544209.cdx
  Mrv1902 05222410192D          

 29 32  0  0  0  0            999 V2000
    9.1537   -7.2314    0.0000 C   0  0  0  0  0  0  0  0  0  0  0  0
    9.7585   -6.6702    0.0000 C   0  0  0  0  0  0  0  0  0  0  0  0
   10.5743   -6.7932    0.0000 C   0  0  0  0  0  0  0  0  0  0  0  0
   10.9868   -7.5077    0.0000 C   0  0  0  0  0  0  0  0  0  0  0  0
   10.6854   -8.2756    0.0000 C   0  0  0  0  0  0  0  0  0  0  0  0
    9.8970   -8.5188    0.0000 C   0  0  0  0  0  0  0  0  0  0  0  0
    9.2154   -8.0541    0.0000 N   0  0  0  0  0  0  0  0  0  0  0  0
    8.5009   -9.2916    0.0000 O   0  0  0  0  0  0  0  0  0  0  0  0
    8.5009   -8.4666    0.0000 C   0  0  0  0  0  0  0  0  0  0  0  0
    7.7864   -8.0541    0.0000 C   0  0  0  0  0  0  0  0  0  0  0  0
    5.6430   -7.6416    0.0000 O   0  0  0  0  0  0  0  0  0  0  0  0
    5.6430   -6.8166    0.0000 C   0  0  0  0  0  0  0  0  0  0  0  0
    5.6430   -5.9916    0.0000 C   0  0  0  0  0  0  0  0  0  0  0  0
    6.3575   -5.5791    0.0000 C   0  0  0  0  0  0  0  0  0  0  0  0
    7.0720   -5.9916    0.0000 C   0  0  0  0  0  0  0  0  0  0  0  0
    7.0720   -6.8166    0.0000 C   0  0  0  0  0  0  0  0  0  0  0  0
    6.3575   -7.2291    0.0000 C   0  0  0  0  0  0  0  0  0  0  0  0
    6.3575  -10.5291    0.0000 O   0  0  0  0  0  0  0  0  0  0  0  0
    6.3575   -9.7041    0.0000 C   0  0  0  0  0  0  0  0  0  0  0  0
    7.0720   -9.2916    0.0000 C   0  0  0  0  0  0  0  0  0  0  0  0
    7.0720   -8.4666    0.0000 C   0  0  0  0  0  0  0  0  0  0  0  0
    6.3575   -8.0541    0.0000 C   0  0  0  0  0  0  0  0  0  0  0  0
    4.9980   -9.8059    0.0000 C   0  0  0  0  0  0  0  0  0  0  0  0
    4.1937   -9.6224    0.0000 C   0  0  0  0  0  0  0  0  0  0  0  0
    3.8358   -8.8791    0.0000 C   0  0  0  0  0  0  0  0  0  0  0  0
    4.1937   -8.1358    0.0000 C   0  0  0  0  0  0  0  0  0  0  0  0
    4.9980   -7.9522    0.0000 C   0  0  0  0  0  0  0  0  0  0  0  0
    5.6430   -8.4666    0.0000 C   0  0  0  0  0  0  0  0  0  0  0  0
    5.6430   -9.2916    0.0000 N   0  0  0  0  0  0  0  0  0  0  0  0
 21 10  1  0  0  0  0
  9  7  1  0  0  0  0
  7  1  1  0  0  0  0
  2  1  1  0  0  0  0
  3  2  1  0  0  0  0
  4  3  1  0  0  0  0
  5  4  1  0  0  0  0
  6  5  1  0  0  0  0
  7  6  1  0  0  0  0
  9  8  2  0  0  0  0
 10  9  1  0  0  0  0
 22 11  1  0  0  0  0
 22 17  1  0  0  0  0
 17 12  2  0  0  0  0
 13 12  1  0  0  0  0
 14 13  2  0  0  0  0
 15 14  1  0  0  0  0
 16 15  2  0  0  0  0
 17 16  1  0  0  0  0
 19 18  2  0  0  0  0
 22 28  1  0  0  0  0
 19 29  1  0  0  0  0
 20 19  1  0  0  0  0
 21 20  1  0  0  0  0
 22 21  1  0  0  0  0
 29 23  1  0  0  0  0
 24 23  1  0  0  0  0
 25 24  1  0  0  0  0
 26 25  1  0  0  0  0
 27 26  1  0  0  0  0
 28 27  1  0  0  0  0
 29 28  1  0  0  0  0
M  END
>  <cdx:fragmentId>
33246

$$$$
