5442.cdx
  Mrv1902 05222410212D          

 17 16  0  0  0  0            999 V2000
    1.2952   -7.1156    0.0000 O   0  0  0  0  0  0  0  0  0  0  0  0
    2.0097   -6.7031    0.0000 C   0  0  0  0  0  0  0  0  0  0  0  0
    2.7242   -7.1156    0.0000 C   0  0  0  0  0  0  0  0  0  0  0  0
    3.4387   -6.7031    0.0000 C   0  0  0  0  0  0  0  0  0  0  0  0
    4.1531   -7.1156    0.0000 C   0  0  0  0  0  0  0  0  0  0  0  0
    4.8676   -7.5281    0.0000 C   0  0  0  0  0  0  0  0  0  0  0  0
    5.5821   -7.9406    0.0000 C   0  0  0  0  0  0  0  0  0  0  0  0
    6.2965   -8.3531    0.0000 C   0  0  0  0  0  0  0  0  0  0  0  0
    7.0110   -8.7656    0.0000 C   0  0  0  0  0  0  0  0  0  0  0  0
    7.7255   -8.3531    0.0000 C   0  0  0  0  0  0  0  0  0  0  0  0
    8.4400   -8.7656    0.0000 C   0  0  0  0  0  0  0  0  0  0  0  0
    9.1544   -8.3531    0.0000 C   0  0  0  0  0  0  0  0  0  0  0  0
    9.8689   -8.7656    0.0000 C   0  0  0  0  0  0  0  0  0  0  0  0
   10.5834   -8.3531    0.0000 C   0  0  0  0  0  0  0  0  0  0  0  0
   11.2978   -8.7656    0.0000 C   0  0  0  0  0  0  0  0  0  0  0  0
   12.0123   -8.3531    0.0000 O   0  0  0  0  0  0  0  0  0  0  0  0
    9.8689   -9.5906    0.0000 O   0  0  0  0  0  0  0  0  0  0  0  0
  1  2  1  0  0  0  0
  2  3  1  0  0  0  0
  3  4  2  0  0  0  0
  4  5  1  0  0  0  0
  5  6  3  0  0  0  0
  6  7  1  0  0  0  0
  7  8  3  0  0  0  0
  8  9  1  0  0  0  0
  9 10  2  0  0  0  0
 10 11  1  0  0  0  0
 11 12  2  0  0  0  0
 12 13  1  0  0  0  0
 13 14  1  0  0  0  0
 14 15  1  0  0  0  0
 15 16  1  0  0  0  0
 13 17  1  0  0  0  0
M  END
>  <cdx:fragmentId>
3

$$$$
