544423.cdx
  Mrv1902 05222410192D          

 12 13  0  0  0  0            999 V2000
    4.5260   -3.1319    0.0000 C   0  0  0  0  0  0  0  0  0  0  0  0
    3.7292   -2.9184    0.0000 C   0  0  0  0  0  0  0  0  0  0  0  0
    3.2798   -3.6103    0.0000 C   0  0  0  0  0  0  0  0  0  0  0  0
    3.7990   -4.2515    0.0000 C   0  0  0  0  0  0  0  0  0  0  0  0
    4.5692   -3.9558    0.0000 N   0  0  0  0  0  0  0  0  0  0  0  0
    5.3661   -4.1693    0.0000 C   0  0  0  0  0  0  0  0  0  0  0  0
    5.8154   -3.4774    0.0000 C   0  0  0  0  0  0  0  0  0  0  0  0
    5.2962   -2.8363    0.0000 C   0  0  0  0  0  0  0  0  0  0  0  0
    3.5855   -5.0484    0.0000 O   0  0  0  0  0  0  0  0  0  0  0  0
    5.6618   -4.9395    0.0000 O   0  0  0  0  0  0  0  0  0  0  0  0
    2.7886   -5.2619    0.0000 C   0  0  0  0  0  0  0  0  0  0  0  0
    2.5751   -6.0588    0.0000 C   0  0  0  0  0  0  0  0  0  0  0  0
  1  2  1  0  0  0  0
  2  3  1  0  0  0  0
  3  4  1  0  0  0  0
  4  5  1  0  0  0  0
  5  1  1  0  0  0  0
  5  6  1  0  0  0  0
  6  7  1  0  0  0  0
  7  8  1  0  0  0  0
  8  1  1  0  0  0  0
  4  9  1  0  0  0  0
  6 10  2  0  0  0  0
  9 11  1  0  0  0  0
 11 12  1  0  0  0  0
M  END
>  <cdx:fragmentId>
33405

$$$$
