10054463.cdx
  Mrv1902 05222410202D          

 44 46  0  0  0  0            999 V2000
   10.8430  -14.7463    0.0000 N   0  0  0  0  0  0  0  0  0  0  0  0
   10.8430  -13.9213    0.0000 C   0  0  0  0  0  0  0  0  0  0  0  0
   11.5575  -13.5088    0.0000 N   0  0  0  0  0  0  0  0  0  0  0  0
   10.1285  -13.5088    0.0000 N   0  0  0  0  0  0  0  0  0  0  0  0
    9.4141  -13.9213    0.0000 C   0  0  0  0  0  0  0  0  0  0  0  0
    8.6996  -13.5088    0.0000 C   0  0  0  0  0  0  0  0  0  0  0  0
    7.9851  -13.9213    0.0000 C   0  0  0  0  0  0  0  0  0  0  0  0
    7.2707  -12.6838    0.0000 N   0  0  0  0  0  0  0  0  0  0  0  0
    7.2707  -13.5088    0.0000 C   0  0  2  0  0  0  0  0  0  0  0  0
    6.5562  -13.9213    0.0000 C   0  0  0  0  0  0  0  0  0  0  0  0
    5.8417  -13.5088    0.0000 N   0  0  0  0  0  0  0  0  0  0  0  0
    5.0571  -13.7637    0.0000 C   0  0  2  0  0  0  0  0  0  0  0  0
    4.4440  -13.2117    0.0000 C   0  0  0  0  0  0  0  0  0  0  0  0
    4.6155  -12.4047    0.0000 N   0  0  0  0  0  0  0  0  0  0  0  0
    4.1306  -11.7373    0.0000 C   0  0  2  0  0  0  0  0  0  0  0  0
    4.4662  -10.9836    0.0000 C   0  0  0  0  0  0  0  0  0  0  0  0
    5.2867  -10.8974    0.0000 N   0  0  0  0  0  0  0  0  0  0  0  0
    5.7716  -10.2300    0.0000 C   0  0  0  0  0  0  0  0  0  0  0  0
    6.5921  -10.3162    0.0000 C   0  0  0  0  0  0  0  0  0  0  0  0
    6.9276  -11.0699    0.0000 N   0  0  0  0  0  0  0  0  0  0  0  0
    7.7122  -11.3248    0.0000 C   0  0  2  0  0  0  0  0  0  0  0  0
    7.8838  -12.1318    0.0000 C   0  0  0  0  0  0  0  0  0  0  0  0
    8.6684  -12.3867    0.0000 O   0  0  0  0  0  0  0  0  0  0  0  0
    7.0770   -9.6488    0.0000 O   0  0  0  0  0  0  0  0  0  0  0  0
    3.9812  -10.3162    0.0000 O   0  0  0  0  0  0  0  0  0  0  0  0
    3.6594  -13.4667    0.0000 O   0  0  0  0  0  0  0  0  0  0  0  0
    6.5562  -14.7463    0.0000 O   0  0  0  0  0  0  0  0  0  0  0  0
    8.3253  -10.7728    0.0000 C   0  0  0  0  0  0  0  0  0  0  0  0
    9.1099  -11.0277    0.0000 C   0  0  0  0  0  0  0  0  0  0  0  0
    9.7230  -10.4757    0.0000 C   0  0  0  0  0  0  0  0  0  0  0  0
   10.5077  -10.7306    0.0000 C   0  0  0  0  0  0  0  0  0  0  0  0
   10.6792  -11.5376    0.0000 C   0  0  0  0  0  0  0  0  0  0  0  0
   10.0661  -12.0896    0.0000 C   0  0  0  0  0  0  0  0  0  0  0  0
    9.2815  -11.8347    0.0000 C   0  0  0  0  0  0  0  0  0  0  0  0
   11.4638  -11.7925    0.0000 O   0  0  0  0  0  0  0  0  0  0  0  0
    3.3101  -11.8235    0.0000 C   0  0  0  0  0  0  0  0  0  0  0  0
    2.8252  -11.1561    0.0000 O   0  0  0  0  0  0  0  0  0  0  0  0
    4.8856  -14.5707    0.0000 C   0  0  0  0  0  0  0  0  0  0  0  0
    4.1010  -14.8257    0.0000 C   0  0  0  0  0  0  0  0  0  0  0  0
    3.9294  -15.6326    0.0000 C   0  0  0  0  0  0  0  0  0  0  0  0
    3.1448  -15.8876    0.0000 C   0  0  0  0  0  0  0  0  0  0  0  0
    2.5317  -15.3355    0.0000 C   0  0  0  0  0  0  0  0  0  0  0  0
    2.7032  -14.5286    0.0000 C   0  0  0  0  0  0  0  0  0  0  0  0
    3.4879  -14.2736    0.0000 C   0  0  0  0  0  0  0  0  0  0  0  0
  1  2  1  0  0  0  0
  2  3  1  0  0  0  0
  2  4  2  0  0  0  0
  5  6  1  0  0  0  0
  6  7  1  0  0  0  0
  8  9  1  0  0  0  0
  9 10  1  0  0  0  0
 10 11  1  0  0  0  0
 11 12  1  0  0  0  0
 12 13  1  0  0  0  0
 13 14  1  0  0  0  0
 14 15  1  0  0  0  0
 15 16  1  0  0  0  0
 16 17  1  0  0  0  0
 17 18  1  0  0  0  0
 18 19  1  0  0  0  0
 19 20  1  0  0  0  0
 20 21  1  0  0  0  0
 21 22  1  0  0  0  0
  8 22  1  0  0  0  0
 22 23  2  0  0  0  0
 19 24  2  0  0  0  0
 16 25  2  0  0  0  0
 13 26  2  0  0  0  0
 10 27  2  0  0  0  0
 29 30  1  0  0  0  0
 30 31  2  0  0  0  0
 31 32  1  0  0  0  0
 32 33  2  0  0  0  0
 33 34  1  0  0  0  0
 29 34  2  0  0  0  0
 32 35  1  0  0  0  0
 28 29  1  0  0  0  0
 21 28  1  1  0  0  0
 36 37  1  0  0  0  0
 15 36  1  1  0  0  0
 38 39  1  0  0  0  0
 39 40  1  0  0  0  0
 40 41  2  0  0  0  0
 41 42  1  0  0  0  0
 42 43  2  0  0  0  0
 43 44  1  0  0  0  0
 39 44  2  0  0  0  0
 12 38  1  1  0  0  0
  9  7  1  1  0  0  0
  4  5  1  0  0  0  0
M  END
>  <cdx:groupId>
38039

>  <cdx:fragmentId>
37922

$$$$
