5447.cdx
  Mrv1902 05222410232D          

 21 22  0  0  0  0            999 V2000
    7.0774   -9.0434    0.0000 C   0  0  0  0  0  0  0  0  0  0  0  0
    8.5305   -5.7540    0.0000 O   0  0  0  0  0  0  0  0  0  0  0  0
    9.9413   -8.2394    0.0000 O   0  0  0  0  0  0  0  0  0  0  0  0
    8.5063   -9.0539    0.0000 C   0  0  0  0  0  0  0  0  0  0  0  0
    5.6727   -5.7330    0.0000 O   0  0  0  0  0  0  0  0  0  0  0  0
    8.5124   -8.2290    0.0000 C   0  0  0  0  0  0  0  0  0  0  0  0
    9.2298   -7.8217    0.0000 C   0  0  0  0  0  0  0  0  0  0  0  0
    9.2359   -6.9967    0.0000 C   0  0  0  0  0  0  0  0  0  0  0  0
    8.5245   -6.5790    0.0000 C   0  0  0  0  0  0  0  0  0  0  0  0
    7.0835   -8.2185    0.0000 O   0  0  0  0  0  0  0  0  0  0  0  0
    7.8009   -7.8112    0.0000 C   0  0  0  0  0  0  0  0  0  0  0  0
    7.8070   -6.9862    0.0000 C   0  0  0  0  0  0  0  0  0  0  0  0
    7.0956   -6.5685    0.0000 C   0  0  0  0  0  0  0  0  0  0  0  0
    6.3781   -6.9758    0.0000 C   0  0  0  0  0  0  0  0  0  0  0  0
    5.6667   -6.5580    0.0000 C   0  0  0  0  0  0  0  0  0  0  0  0
    4.2257   -8.1975    0.0000 C   0  0  0  0  0  0  0  0  0  0  0  0
    4.9431   -7.7902    0.0000 C   0  0  0  0  0  0  0  0  0  0  0  0
    4.9492   -6.9653    0.0000 C   0  0  0  0  0  0  0  0  0  0  0  0
    4.2378   -6.5475    0.0000 C   0  0  0  0  0  0  0  0  0  0  0  0
    3.5203   -6.9548    0.0000 C   0  0  0  0  0  0  0  0  0  0  0  0
    3.5142   -7.7798    0.0000 C   0  0  0  0  0  0  0  0  0  0  0  0
 10  1  1  0  0  0  0
  9  2  1  0  0  0  0
  7  3  1  0  0  0  0
  6  4  1  0  0  0  0
 15  5  2  0  0  0  0
  6 11  1  0  0  0  0
  7  6  2  0  0  0  0
  8  7  1  0  0  0  0
  9  8  2  0  0  0  0
 12  9  1  0  0  0  0
 11 10  1  0  0  0  0
 12 11  2  0  0  0  0
 13 12  1  0  0  0  0
 14 13  2  0  0  0  0
 15 14  1  0  0  0  0
 18 15  1  0  0  0  0
 16 21  1  0  0  0  0
 17 16  2  0  0  0  0
 18 17  1  0  0  0  0
 19 18  2  0  0  0  0
 20 19  1  0  0  0  0
 21 20  2  0  0  0  0
M  END
>  <cdx:fragmentId>
5

$$$$
