5449.cdx
  Mrv1902 05222410242D          

 21 22  0  0  0  0            999 V2000
    3.5508   -7.6093    0.0000 C   0  0  0  0  0  0  0  0  0  0  0  0
    3.5508   -6.7843    0.0000 C   0  0  0  0  0  0  0  0  0  0  0  0
    4.2652   -6.3718    0.0000 C   0  0  0  0  0  0  0  0  0  0  0  0
    4.9797   -6.7843    0.0000 C   0  0  0  0  0  0  0  0  0  0  0  0
    4.9797   -7.6093    0.0000 C   0  0  0  0  0  0  0  0  0  0  0  0
    4.2652   -8.0218    0.0000 C   0  0  0  0  0  0  0  0  0  0  0  0
    5.6942   -6.3718    0.0000 C   0  0  0  0  0  0  0  0  0  0  0  0
    6.4087   -6.7843    0.0000 C   0  0  0  0  0  0  0  0  0  0  0  0
    7.1231   -6.3718    0.0000 C   0  0  0  0  0  0  0  0  0  0  0  0
    7.8376   -6.7843    0.0000 C   0  0  0  0  0  0  0  0  0  0  0  0
    7.8376   -7.6093    0.0000 C   0  0  0  0  0  0  0  0  0  0  0  0
    7.1231   -8.0218    0.0000 O   0  0  0  0  0  0  0  0  0  0  0  0
    8.5521   -6.3718    0.0000 C   0  0  0  0  0  0  0  0  0  0  0  0
    9.2665   -6.7843    0.0000 C   0  0  0  0  0  0  0  0  0  0  0  0
    9.2665   -7.6093    0.0000 C   0  0  0  0  0  0  0  0  0  0  0  0
    8.5521   -8.0218    0.0000 C   0  0  0  0  0  0  0  0  0  0  0  0
    5.6942   -5.5468    0.0000 O   0  0  0  0  0  0  0  0  0  0  0  0
    8.5521   -8.8468    0.0000 C   0  0  0  0  0  0  0  0  0  0  0  0
    9.9810   -8.0218    0.0000 O   0  0  0  0  0  0  0  0  0  0  0  0
    8.5521   -5.5468    0.0000 O   0  0  0  0  0  0  0  0  0  0  0  0
    7.1231   -8.8468    0.0000 C   0  0  0  0  0  0  0  0  0  0  0  0
  1  2  2  0  0  0  0
  2  3  1  0  0  0  0
  3  4  2  0  0  0  0
  4  5  1  0  0  0  0
  5  6  2  0  0  0  0
  6  1  1  0  0  0  0
  4  7  1  0  0  0  0
  7  8  1  0  0  0  0
  8  9  1  0  0  0  0
  9 10  1  0  0  0  0
 10 11  2  0  0  0  0
 11 12  1  0  0  0  0
 10 13  1  0  0  0  0
 13 14  2  0  0  0  0
 14 15  1  0  0  0  0
 15 16  2  0  0  0  0
 16 11  1  0  0  0  0
  7 17  2  0  0  0  0
 16 18  1  0  0  0  0
 15 19  1  0  0  0  0
 13 20  1  0  0  0  0
 12 21  1  0  0  0  0
M  END
>  <cdx:fragmentId>
5

$$$$
