545235.cdx
  Mrv1902 05222410252D          

 17 17  0  0  0  0            999 V2000
   14.0398  -13.2586    0.0000 C   0  0  0  0  0  0  0  0  0  0  0  0
   13.3253  -13.6711    0.0000 C   0  0  0  0  0  0  0  0  0  0  0  0
   13.3253  -14.4961    0.0000 C   0  0  0  0  0  0  0  0  0  0  0  0
   14.0398  -12.4336    0.0000 O   0  0  0  0  0  0  0  0  0  0  0  0
   14.7543  -13.6711    0.0000 O   0  0  0  0  0  0  0  0  0  0  0  0
   12.6109  -14.0836    0.0000 C   0  0  0  0  0  0  0  0  0  0  0  0
   12.6109  -13.2586    0.0000 C   0  0  0  0  0  0  0  0  0  0  0  0
   15.4688  -13.2586    0.0000 C   0  0  0  0  0  0  0  0  0  0  0  0
   15.4688  -12.4336    0.0000 C   0  0  0  0  0  0  0  0  0  0  0  0
   16.1832  -12.0211    0.0000 C   0  0  0  0  0  0  0  0  0  0  0  0
   16.8977  -12.4336    0.0000 C   0  0  0  0  0  0  0  0  0  0  0  0
   16.8977  -13.2586    0.0000 C   0  0  0  0  0  0  0  0  0  0  0  0
   16.1832  -13.6711    0.0000 C   0  0  0  0  0  0  0  0  0  0  0  0
   17.6122  -14.4961    0.0000 C   0  0  0  0  0  0  0  0  0  0  0  0
   17.6122  -13.6711    0.0000 C   0  0  0  0  0  0  0  0  0  0  0  0
   18.3266  -13.2586    0.0000 C   0  0  0  0  0  0  0  0  0  0  0  0
   14.7543  -12.0211    0.0000 C   0  0  0  0  0  0  0  0  0  0  0  0
  1  2  1  0  0  0  0
  2  3  1  0  0  0  0
  1  4  2  0  0  0  0
  1  5  1  0  0  0  0
  2  6  1  0  0  0  0
  2  7  1  0  0  0  0
  8  9  1  0  0  0  0
  9 10  2  0  0  0  0
 10 11  1  0  0  0  0
 11 12  1  0  0  0  0
 12 13  1  0  0  0  0
  8 13  1  0  0  0  0
 14 15  2  0  0  0  0
 15 16  1  0  0  0  0
 12 15  1  0  0  0  0
  9 17  1  0  0  0  0
  5  8  1  0  0  0  0
M  END
>  <cdx:groupId>
58

>  <cdx:fragmentId>
24

$$$$
