545558.cdx
  Mrv1902 05222410222D          

 24 23  0  0  0  0            999 V2000
    9.7530  -13.4869    0.0000 C   0  0  0  0  0  0  0  0  0  0  0  0
    9.0385  -13.8994    0.0000 C   0  0  0  0  0  0  0  0  0  0  0  0
    9.7530  -12.6619    0.0000 O   0  0  0  0  0  0  0  0  0  0  0  0
   10.4675  -13.8994    0.0000 O   0  0  0  0  0  0  0  0  0  0  0  0
   11.1819  -13.4869    0.0000 C   0  0  0  0  0  0  0  0  0  0  0  0
   11.8964  -13.8994    0.0000 C   0  0  0  0  0  0  0  0  0  0  0  0
   12.6109  -13.4869    0.0000 C   0  0  0  0  0  0  0  0  0  0  0  0
   13.3253  -13.8994    0.0000 C   0  0  0  0  0  0  0  0  0  0  0  0
   14.0398  -13.4869    0.0000 C   0  0  0  0  0  0  0  0  0  0  0  0
   14.7543  -13.8994    0.0000 C   0  0  0  0  0  0  0  0  0  0  0  0
   15.4688  -13.4869    0.0000 C   0  0  0  0  0  0  0  0  0  0  0  0
   16.1832  -13.8994    0.0000 C   0  0  0  0  0  0  0  0  0  0  0  0
   16.8977  -13.4869    0.0000 C   0  0  0  0  0  0  0  0  0  0  0  0
   17.6122  -13.8994    0.0000 C   0  0  0  0  0  0  0  0  0  0  0  0
   18.3266  -13.4869    0.0000 C   0  0  0  0  0  0  0  0  0  0  0  0
   19.0411  -13.8994    0.0000 C   0  0  0  0  0  0  0  0  0  0  0  0
   19.7556  -13.4869    0.0000 C   0  0  0  0  0  0  0  0  0  0  0  0
   20.4701  -13.8994    0.0000 C   0  0  0  0  0  0  0  0  0  0  0  0
   21.1845  -13.4869    0.0000 C   0  0  0  0  0  0  0  0  0  0  0  0
   21.1845  -12.6619    0.0000 C   0  0  0  0  0  0  0  0  0  0  0  0
   21.8990  -13.8994    0.0000 C   0  0  0  0  0  0  0  0  0  0  0  0
   18.3266  -12.6619    0.0000 C   0  0  0  0  0  0  0  0  0  0  0  0
   15.4688  -12.6619    0.0000 C   0  0  0  0  0  0  0  0  0  0  0  0
   12.6109  -12.6619    0.0000 C   0  0  0  0  0  0  0  0  0  0  0  0
  1  2  1  0  0  0  0
  1  3  2  0  0  0  0
  1  4  1  0  0  0  0
  5  6  1  0  0  0  0
  6  7  1  0  0  0  0
  7  8  1  0  0  0  0
  8  9  1  0  0  0  0
  9 10  1  0  0  0  0
 10 11  1  0  0  0  0
 11 12  1  0  0  0  0
 12 13  1  0  0  0  0
 13 14  1  0  0  0  0
 14 15  1  0  0  0  0
 15 16  1  0  0  0  0
 16 17  1  0  0  0  0
 17 18  1  0  0  0  0
 18 19  1  0  0  0  0
 19 20  1  0  0  0  0
 19 21  1  0  0  0  0
 15 22  1  0  0  0  0
 11 23  1  0  0  0  0
  7 24  1  0  0  0  0
  4  5  1  0  0  0  0
M  END
>  <cdx:groupId>
176

>  <cdx:fragmentId>
116

$$$$
