545611.cdx
  Mrv1902 05222410222D          

 14 13  0  0  0  0            999 V2000
    4.1136   -8.3543    0.0000 C   0  0  0  0  0  0  0  0  0  0  0  0
    5.5426   -9.1793    0.0000 C   0  0  0  0  0  0  0  0  0  0  0  0
    6.9715   -9.1793    0.0000 C   0  0  0  0  0  0  0  0  0  0  0  0
    9.1149   -7.1168    0.0000 C   0  0  0  0  0  0  0  0  0  0  0  0
   10.5439   -7.9418    0.0000 C   0  0  0  0  0  0  0  0  0  0  0  0
    9.8294   -8.3543    0.0000 C   0  0  0  0  0  0  0  0  0  0  0  0
    9.1149   -7.9418    0.0000 C   0  0  0  0  0  0  0  0  0  0  0  0
    8.4005   -8.3543    0.0000 C   0  0  0  0  0  0  0  0  0  0  0  0
    7.6860   -7.9418    0.0000 C   0  0  0  0  0  0  0  0  0  0  0  0
    6.9715   -8.3543    0.0000 C   0  0  0  0  0  0  0  0  0  0  0  0
    6.2570   -7.9418    0.0000 C   0  0  0  0  0  0  0  0  0  0  0  0
    5.5426   -8.3543    0.0000 C   0  0  0  0  0  0  0  0  0  0  0  0
    4.8281   -7.9418    0.0000 C   0  0  0  0  0  0  0  0  0  0  0  0
    4.8281   -7.1168    0.0000 C   0  0  0  0  0  0  0  0  0  0  0  0
 13  1  1  0  0  0  0
 12  2  1  0  0  0  0
 10  3  1  0  0  0  0
  7  4  1  0  0  0  0
  6  5  1  0  0  0  0
  7  6  1  0  0  0  0
  8  7  1  0  0  0  0
  9  8  1  0  0  0  0
 10  9  1  0  0  0  0
 11 10  1  0  0  0  0
 12 11  1  0  0  0  0
 13 12  1  0  0  0  0
 14 13  1  0  0  0  0
M  END
>  <cdx:fragmentId>
260

$$$$
