545613.cdx
  Mrv1902 05222410222D          

 39 38  0  0  0  0            999 V2000
   12.9681  -13.4869    0.0000 C   0  0  0  0  0  0  0  0  0  0  0  0
   12.2536  -13.8994    0.0000 C   0  0  0  0  0  0  0  0  0  0  0  0
   11.5392  -13.4869    0.0000 C   0  0  0  0  0  0  0  0  0  0  0  0
   10.8247  -13.8994    0.0000 C   0  0  0  0  0  0  0  0  0  0  0  0
   10.1102  -13.4869    0.0000 C   0  0  0  0  0  0  0  0  0  0  0  0
    9.3958  -13.8994    0.0000 C   0  0  0  0  0  0  0  0  0  0  0  0
    8.6813  -13.4869    0.0000 C   0  0  0  0  0  0  0  0  0  0  0  0
    7.9668  -13.8994    0.0000 C   0  0  0  0  0  0  0  0  0  0  0  0
    7.2523  -13.4869    0.0000 C   0  0  0  0  0  0  0  0  0  0  0  0
    6.5379  -13.8994    0.0000 C   0  0  0  0  0  0  0  0  0  0  0  0
    5.8234  -13.4869    0.0000 C   0  0  0  0  0  0  0  0  0  0  0  0
    5.1089  -13.8994    0.0000 C   0  0  0  0  0  0  0  0  0  0  0  0
    4.3945  -13.4869    0.0000 C   0  0  0  0  0  0  0  0  0  0  0  0
    3.6800  -13.8994    0.0000 C   0  0  0  0  0  0  0  0  0  0  0  0
    2.9655  -13.4869    0.0000 C   0  0  0  0  0  0  0  0  0  0  0  0
    2.2510  -13.8994    0.0000 C   0  0  0  0  0  0  0  0  0  0  0  0
   12.9681  -12.6619    0.0000 O   0  0  0  0  0  0  0  0  0  0  0  0
   13.6826  -13.8994    0.0000 O   0  0  0  0  0  0  0  0  0  0  0  0
   14.3970  -13.4869    0.0000 C   0  0  0  0  0  0  0  0  0  0  0  0
   15.1115  -13.8994    0.0000 C   0  0  0  0  0  0  0  0  0  0  0  0
   15.8260  -13.4869    0.0000 O   0  0  0  0  0  0  0  0  0  0  0  0
   16.5405  -13.8994    0.0000 C   0  0  0  0  0  0  0  0  0  0  0  0
   17.2549  -13.4869    0.0000 C   0  0  0  0  0  0  0  0  0  0  0  0
   17.9694  -13.8994    0.0000 C   0  0  0  0  0  0  0  0  0  0  0  0
   18.6839  -13.4869    0.0000 C   0  0  0  0  0  0  0  0  0  0  0  0
   19.3983  -13.8994    0.0000 C   0  0  0  0  0  0  0  0  0  0  0  0
   20.1128  -13.4869    0.0000 C   0  0  0  0  0  0  0  0  0  0  0  0
   20.8273  -13.8994    0.0000 C   0  0  0  0  0  0  0  0  0  0  0  0
   21.5418  -13.4869    0.0000 C   0  0  0  0  0  0  0  0  0  0  0  0
   22.2562  -13.8994    0.0000 C   0  0  0  0  0  0  0  0  0  0  0  0
   22.9707  -13.4869    0.0000 C   0  0  0  0  0  0  0  0  0  0  0  0
   23.6852  -13.8994    0.0000 C   0  0  0  0  0  0  0  0  0  0  0  0
   24.3996  -13.4869    0.0000 C   0  0  0  0  0  0  0  0  0  0  0  0
   25.1141  -13.8994    0.0000 C   0  0  0  0  0  0  0  0  0  0  0  0
   25.8286  -13.4869    0.0000 C   0  0  0  0  0  0  0  0  0  0  0  0
   26.5431  -13.8994    0.0000 C   0  0  0  0  0  0  0  0  0  0  0  0
   27.2575  -13.4869    0.0000 C   0  0  0  0  0  0  0  0  0  0  0  0
   27.9720  -13.8994    0.0000 C   0  0  0  0  0  0  0  0  0  0  0  0
   28.6865  -13.4869    0.0000 C   0  0  0  0  0  0  0  0  0  0  0  0
  1  2  1  0  0  0  0
  2  3  1  0  0  0  0
  3  4  1  0  0  0  0
  4  5  1  0  0  0  0
  5  6  1  0  0  0  0
  6  7  1  0  0  0  0
  7  8  1  0  0  0  0
  8  9  1  0  0  0  0
  9 10  1  0  0  0  0
 10 11  1  0  0  0  0
 11 12  1  0  0  0  0
 12 13  1  0  0  0  0
 13 14  1  0  0  0  0
 14 15  1  0  0  0  0
 15 16  1  0  0  0  0
  1 17  2  0  0  0  0
  1 18  1  0  0  0  0
 19 20  1  0  0  0  0
 22 23  1  0  0  0  0
 23 24  1  0  0  0  0
 24 25  1  0  0  0  0
 25 26  1  0  0  0  0
 26 27  1  0  0  0  0
 27 28  1  0  0  0  0
 28 29  1  0  0  0  0
 29 30  1  0  0  0  0
 30 31  1  0  0  0  0
 31 32  1  0  0  0  0
 32 33  1  0  0  0  0
 33 34  1  0  0  0  0
 34 35  1  0  0  0  0
 35 36  1  0  0  0  0
 36 37  1  0  0  0  0
 37 38  1  0  0  0  0
 38 39  1  0  0  0  0
 21 22  1  0  0  0  0
 20 21  1  0  0  0  0
 18 19  1  0  0  0  0
M  END
>  <cdx:groupId>
419

>  <cdx:fragmentId>
348

$$$$
