545602.cdx
  Mrv1902 05222410212D          

 23 22  0  0  0  0            999 V2000
    8.5588  -12.9521    0.0000 C   0  0  0  0  0  0  0  0  0  0  0  0
    9.2732  -13.3646    0.0000 C   0  0  0  0  0  0  0  0  0  0  0  0
    9.9877  -12.9521    0.0000 C   0  0  0  0  0  0  0  0  0  0  0  0
   10.7022  -13.3646    0.0000 C   0  0  0  0  0  0  0  0  0  0  0  0
   11.4166  -12.9521    0.0000 C   0  0  0  0  0  0  0  0  0  0  0  0
   12.1311  -13.3646    0.0000 C   0  0  0  0  0  0  0  0  0  0  0  0
   12.8456  -12.9521    0.0000 C   0  0  0  0  0  0  0  0  0  0  0  0
   13.5600  -13.3646    0.0000 C   0  0  0  0  0  0  0  0  0  0  0  0
   14.2745  -12.9521    0.0000 C   0  0  0  0  0  0  0  0  0  0  0  0
   14.9890  -13.3646    0.0000 C   0  0  0  0  0  0  0  0  0  0  0  0
   15.7035  -12.9521    0.0000 C   0  0  0  0  0  0  0  0  0  0  0  0
   16.4179  -13.3646    0.0000 C   0  0  0  0  0  0  0  0  0  0  0  0
   17.1324  -12.9521    0.0000 C   0  0  0  0  0  0  0  0  0  0  0  0
   17.8469  -13.3646    0.0000 C   0  0  0  0  0  0  0  0  0  0  0  0
   18.5613  -12.9521    0.0000 C   0  0  0  0  0  0  0  0  0  0  0  0
   19.2758  -13.3646    0.0000 C   0  0  0  0  0  0  0  0  0  0  0  0
   19.9903  -12.9521    0.0000 C   0  0  0  0  0  0  0  0  0  0  0  0
   20.7048  -13.3646    0.0000 C   0  0  0  0  0  0  0  0  0  0  0  0
   21.4192  -12.9521    0.0000 C   0  0  0  0  0  0  0  0  0  0  0  0
   22.1337  -13.3646    0.0000 C   0  0  0  0  0  0  0  0  0  0  0  0
   22.8482  -12.9521    0.0000 C   0  0  0  0  0  0  0  0  0  0  0  0
   23.5626  -13.3646    0.0000 C   0  0  0  0  0  0  0  0  0  0  0  0
    7.8443  -13.3646    0.0000 Cl  0  0  0  0  0  0  0  0  0  0  0  0
  1  2  1  0  0  0  0
  2  3  1  0  0  0  0
  3  4  1  0  0  0  0
  4  5  1  0  0  0  0
  5  6  1  0  0  0  0
  6  7  1  0  0  0  0
  7  8  1  0  0  0  0
  8  9  1  0  0  0  0
  9 10  1  0  0  0  0
 10 11  1  0  0  0  0
 11 12  1  0  0  0  0
 12 13  1  0  0  0  0
 13 14  1  0  0  0  0
 14 15  1  0  0  0  0
 15 16  1  0  0  0  0
 16 17  1  0  0  0  0
 17 18  1  0  0  0  0
 18 19  1  0  0  0  0
 19 20  1  0  0  0  0
 20 21  1  0  0  0  0
 21 22  1  0  0  0  0
  1 23  1  0  0  0  0
M  END
>  <cdx:groupId>
249

>  <cdx:fragmentId>
184

$$$$
