545734.cdx
  Mrv1902 05222410272D          

 19 18  0  0  0  0            999 V2000
   19.7985  -13.7672    0.0000 C   0  0  0  0  0  0  0  0  0  0  0  0
   19.0841  -13.3547    0.0000 C   0  0  0  0  0  0  0  0  0  0  0  0
   18.3696  -13.7672    0.0000 O   0  0  0  0  0  0  0  0  0  0  0  0
   17.6551  -13.3547    0.0000 C   0  0  0  0  0  0  0  0  0  0  0  0
   16.9406  -13.7672    0.0000 C   0  0  0  0  0  0  0  0  0  0  0  0
   16.2262  -13.3547    0.0000 O   0  0  0  0  0  0  0  0  0  0  0  0
   15.5117  -13.7672    0.0000 C   0  0  0  0  0  0  0  0  0  0  0  0
   14.7972  -13.3547    0.0000 C   0  0  0  0  0  0  0  0  0  0  0  0
   14.0828  -13.7672    0.0000 O   0  0  0  0  0  0  0  0  0  0  0  0
   13.3683  -13.3547    0.0000 C   0  0  0  0  0  0  0  0  0  0  0  0
   12.6538  -13.7672    0.0000 C   0  0  0  0  0  0  0  0  0  0  0  0
   11.9393  -13.3547    0.0000 C   0  0  0  0  0  0  0  0  0  0  0  0
   11.2249  -13.7672    0.0000 C   0  0  0  0  0  0  0  0  0  0  0  0
   10.5104  -13.3547    0.0000 C   0  0  0  0  0  0  0  0  0  0  0  0
    9.7959  -13.7672    0.0000 C   0  0  0  0  0  0  0  0  0  0  0  0
   20.5130  -13.3547    0.0000 O   0  0  0  0  0  0  0  0  0  0  0  0
    9.7959  -12.9422    0.0000 C   0  0  0  0  0  0  0  0  0  0  0  0
   10.5104  -12.5297    0.0000 C   0  0  0  0  0  0  0  0  0  0  0  0
   11.9393  -12.5297    0.0000 C   0  0  0  0  0  0  0  0  0  0  0  0
  1  2  1  0  0  0  0
  2  3  1  0  0  0  0
  3  4  1  0  0  0  0
  4  5  1  0  0  0  0
  5  6  1  0  0  0  0
  6  7  1  0  0  0  0
  7  8  1  0  0  0  0
  8  9  1  0  0  0  0
  9 10  1  0  0  0  0
 10 11  1  0  0  0  0
 11 12  1  0  0  0  0
 12 13  1  0  0  0  0
 13 14  1  0  0  0  0
 14 15  1  0  0  0  0
  1 16  1  0  0  0  0
 14 17  1  0  0  0  0
 14 18  1  0  0  0  0
 12 19  1  0  0  0  0
M  END
>  <cdx:groupId>
563

>  <cdx:fragmentId>
510

$$$$
