5457.cdx
  Mrv1902 05222410202D          

 37 44  0  0  0  0            999 V2000
    3.4270   -7.4044    0.0000 C   0  0  0  0  0  0  0  0  0  0  0  0
    3.4270   -8.2294    0.0000 C   0  0  0  0  0  0  0  0  0  0  0  0
    4.1415   -8.6419    0.0000 C   0  0  0  0  0  0  0  0  0  0  0  0
    4.8560   -8.2294    0.0000 C   0  0  0  0  0  0  0  0  0  0  0  0
    4.8560   -7.4044    0.0000 C   0  0  2  0  0  0  0  0  0  0  0  0
    4.1415   -6.9919    0.0000 C   0  0  0  0  0  0  0  0  0  0  0  0
    5.5704   -8.6419    0.0000 C   0  0  0  0  0  0  0  0  0  0  0  0
    6.2849   -8.2294    0.0000 C   0  0  0  0  0  0  0  0  0  0  0  0
    6.2849   -7.4044    0.0000 C   0  0  2  0  0  0  0  0  0  0  0  0
    5.5704   -6.9919    0.0000 C   0  0  0  0  0  0  0  0  0  0  0  0
    6.9994   -6.9919    0.0000 C   0  0  2  0  0  0  0  0  0  0  0  0
    6.9994   -6.1669    0.0000 C   0  0  2  0  0  0  0  0  0  0  0  0
    6.2849   -5.7544    0.0000 C   0  0  0  0  0  0  0  0  0  0  0  0
    5.5704   -6.1669    0.0000 C   0  0  0  0  0  0  0  0  0  0  0  0
    7.7139   -5.7544    0.0000 C   0  0  1  0  0  0  0  0  0  0  0  0
    7.5423   -4.9474    0.0000 C   0  0  1  0  0  0  0  0  0  0  0  0
    6.7218   -4.8612    0.0000 O   0  0  0  0  0  0  0  0  0  0  0  0
    6.3863   -5.6148    0.0000 C   0  0  0  0  0  0  0  0  0  0  0  0
    8.4985   -6.0093    0.0000 C   0  0  2  0  0  0  0  0  0  0  0  0
    9.1116   -5.4573    0.0000 C   0  0  2  0  0  0  0  0  0  0  0  0
    8.9400   -4.6503    0.0000 C   0  0  0  0  0  0  0  0  0  0  0  0
    8.1554   -4.3954    0.0000 C   0  0  1  0  0  0  0  0  0  0  0  0
    8.7388   -3.8120    0.0000 O   0  0  0  0  0  0  0  0  0  0  0  0
    9.5357   -4.0255    0.0000 C   0  0  0  0  0  0  0  0  0  0  0  0
    9.7492   -4.8224    0.0000 C   0  0  2  0  0  0  0  0  0  0  0  0
   10.1190   -3.4422    0.0000 O   0  0  0  0  0  0  0  0  0  0  0  0
    7.7139   -7.4044    0.0000 C   0  0  0  0  0  0  0  0  0  0  0  0
    8.4283   -6.9919    0.0000 O   0  0  0  0  0  0  0  0  0  0  0  0
    7.7139   -8.2294    0.0000 O   0  0  0  0  0  0  0  0  0  0  0  0
    6.9994   -8.9925    0.0000 O   0  0  0  0  0  0  0  0  0  0  0  0
    9.3713   -8.9925    0.0000 C   0  0  0  0  0  0  0  0  0  0  0  0
    4.1415   -6.1669    0.0000 O   0  0  0  0  0  0  0  0  0  0  0  0
    5.5613   -5.6148    0.0000 O   0  0  0  0  0  0  0  0  0  0  0  0
    6.7931   -6.6957    0.0000 O   0  0  0  0  0  0  0  0  0  0  0  0
    7.3288   -4.1505    0.0000 C   0  0  0  0  0  0  0  0  0  0  0  0
    4.8560   -6.5794    0.0000 C   0  0  0  0  0  0  0  0  0  0  0  0
    9.1116   -6.2823    0.0000 C   0  0  0  0  0  0  0  0  0  0  0  0
  1  2  2  0  0  0  0
  2  3  1  0  0  0  0
  3  4  2  0  0  0  0
  4  5  1  0  0  0  0
  5  6  1  0  0  0  0
  6  1  1  0  0  0  0
  4  7  1  0  0  0  0
  7  8  2  0  0  0  0
  9  8  1  6  0  0  0
  9 10  1  0  0  0  0
 10  5  1  0  0  0  0
  9 11  1  0  0  0  0
 12 13  1  0  0  0  0
 13 14  1  0  0  0  0
 14 10  1  0  0  0  0
 12 15  1  0  0  0  0
 15 16  1  0  0  0  0
 16 17  1  0  0  0  0
 17 18  1  0  0  0  0
 12 18  1  1  0  0  0
 19 15  1  1  0  0  0
 19 20  1  0  0  0  0
 20 21  1  1  0  0  0
 22 21  1  6  0  0  0
 22 16  1  0  0  0  0
 22 23  1  0  0  0  0
 23 24  1  0  0  0  0
 24 25  1  0  0  0  0
 25 20  1  0  0  0  0
 24 26  2  0  0  0  0
 19 11  1  0  0  0  0
 11 27  1  6  0  0  0
 27 28  1  0  0  0  0
 27 29  2  0  0  0  0
 11 30  1  0  0  0  0
 30 31  1  0  0  0  0
 25 31  1  6  0  0  0
  6 32  2  0  0  0  0
 18 33  2  0  0  0  0
 12 34  1  6  0  0  0
 16 35  1  6  0  0  0
 15 28  1  6  0  0  0
  5 36  1  1  0  0  0
 20 37  1  1  0  0  0
M  END
>  <cdx:fragmentId>
5

$$$$
