545706.cdx
  Mrv1902 05222410202D          

 23 24  0  0  0  0            999 V2000
    3.6912   -7.7226    0.0000 C   0  0  0  0  0  0  0  0  0  0  0  0
    2.9767   -8.1351    0.0000 N   0  0  0  0  0  0  0  0  0  0  0  0
    3.6912   -6.8976    0.0000 O   0  0  0  0  0  0  0  0  0  0  0  0
    4.4057   -8.1351    0.0000 O   0  0  0  0  0  0  0  0  0  0  0  0
    2.2622   -7.7226    0.0000 C   0  0  0  0  0  0  0  0  0  0  0  0
    5.1201   -7.7226    0.0000 C   0  0  0  0  0  0  0  0  0  0  0  0
    6.5883   -7.7995    0.0000 O   0  0  0  0  0  0  0  0  0  0  0  0
    5.8346   -8.1351    0.0000 C   0  0  0  0  0  0  0  0  0  0  0  0
    5.9208   -8.9556    0.0000 C   0  0  0  0  0  0  0  0  0  0  0  0
    6.7278   -9.1271    0.0000 C   0  0  0  0  0  0  0  0  0  0  0  0
    7.1403   -8.4126    0.0000 C   0  0  0  0  0  0  0  0  0  0  0  0
    8.2963   -7.5727    0.0000 C   0  0  0  0  0  0  0  0  0  0  0  0
    9.1168   -7.4865    0.0000 N   0  0  0  0  0  0  0  0  0  0  0  0
    9.6017   -8.1539    0.0000 C   0  0  0  0  0  0  0  0  0  0  0  0
    9.2662   -8.9076    0.0000 C   0  0  0  0  0  0  0  0  0  0  0  0
    8.4457   -8.9938    0.0000 C   0  0  0  0  0  0  0  0  0  0  0  0
    7.9608   -8.3264    0.0000 N   0  0  0  0  0  0  0  0  0  0  0  0
    7.8114   -6.9053    0.0000 O   0  0  0  0  0  0  0  0  0  0  0  0
   10.4222   -8.0677    0.0000 N   0  0  0  0  0  0  0  0  0  0  0  0
   10.9071   -8.7351    0.0000 C   0  0  0  0  0  0  0  0  0  0  0  0
   11.7276   -8.6489    0.0000 N   0  0  0  0  0  0  0  0  0  0  0  0
   10.5716   -9.4888    0.0000 O   0  0  0  0  0  0  0  0  0  0  0  0
   12.2126   -9.3163    0.0000 C   0  0  0  0  0  0  0  0  0  0  0  0
  1  2  1  0  0  0  0
  1  3  2  0  0  0  0
  1  4  1  0  0  0  0
  2  5  1  0  0  0  0
  7  8  1  0  0  0  0
  8  9  1  0  0  0  0
  9 10  1  0  0  0  0
 10 11  1  0  0  0  0
  7 11  1  0  0  0  0
 12 13  1  0  0  0  0
 13 14  2  0  0  0  0
 14 15  1  0  0  0  0
 15 16  2  0  0  0  0
 16 17  1  0  0  0  0
 12 17  1  0  0  0  0
 12 18  2  0  0  0  0
 20 21  1  0  0  0  0
 20 22  2  0  0  0  0
 21 23  1  0  0  0  0
 19 20  1  0  0  0  0
 14 19  1  0  0  0  0
 11 17  1  0  0  0  0
  6  8  1  0  0  0  0
  4  6  1  0  0  0  0
M  END
>  <cdx:fragmentId>
456

$$$$
