545772.cdx
  Mrv1902 05222410222D          

 10 10  0  0  0  0            999 V2000
   14.3025   -9.1773    0.0000 O   0  0  0  0  0  0  0  0  0  0  0  0
   15.0562   -8.8417    0.0000 C   0  0  0  0  0  0  0  0  0  0  0  0
   14.9699   -8.0212    0.0000 C   0  0  0  0  0  0  0  0  0  0  0  0
   14.1630   -7.8497    0.0000 C   0  0  0  0  0  0  0  0  0  0  0  0
   13.7505   -8.5642    0.0000 C   0  0  0  0  0  0  0  0  0  0  0  0
   15.7706   -9.2542    0.0000 C   0  0  0  0  0  0  0  0  0  0  0  0
   16.4851   -8.8417    0.0000 C   0  0  0  0  0  0  0  0  0  0  0  0
   17.1996   -9.2542    0.0000 C   0  0  0  0  0  0  0  0  0  0  0  0
   16.4851   -8.0167    0.0000 O   0  0  0  0  0  0  0  0  0  0  0  0
   15.5830   -7.4692    0.0000 C   0  0  0  0  0  0  0  0  0  0  0  0
  1  2  1  0  0  0  0
  2  3  2  0  0  0  0
  3  4  1  0  0  0  0
  4  5  2  0  0  0  0
  1  5  1  0  0  0  0
  6  7  1  0  0  0  0
  7  8  1  0  0  0  0
  7  9  2  0  0  0  0
  2  6  1  0  0  0  0
  3 10  1  0  0  0  0
M  END
>  <cdx:groupId>
600

>  <cdx:fragmentId>
573

$$$$
