545959.cdx
  Mrv1902 05222410242D          

 22 21  0  0  0  0            999 V2000
   11.5392   -9.1418    0.0000 C   0  0  0  0  0  0  0  0  0  0  0  0
   10.8247   -9.5543    0.0000 C   0  0  0  0  0  0  0  0  0  0  0  0
   11.5392   -8.3168    0.0000 O   0  0  0  0  0  0  0  0  0  0  0  0
   12.2536   -9.5543    0.0000 O   0  0  0  0  0  0  0  0  0  0  0  0
   10.1102   -9.1418    0.0000 O   0  0  0  0  0  0  0  0  0  0  0  0
    9.3958   -9.5543    0.0000 C   0  0  0  0  0  0  0  0  0  0  0  0
   12.2536   -7.0793    0.0000 C   0  0  0  0  0  0  0  0  0  0  0  0
   12.2536   -7.9043    0.0000 C   0  0  0  0  0  0  0  0  0  0  0  0
   12.9681   -8.3168    0.0000 C   0  0  0  0  0  0  0  0  0  0  0  0
   12.9681   -9.1418    0.0000 C   0  0  0  0  0  0  0  0  0  0  0  0
   13.6826   -9.5543    0.0000 C   0  0  0  0  0  0  0  0  0  0  0  0
   14.3970   -9.1418    0.0000 C   0  0  0  0  0  0  0  0  0  0  0  0
   15.1115   -9.5543    0.0000 C   0  0  0  0  0  0  0  0  0  0  0  0
   15.8260   -9.1418    0.0000 C   0  0  0  0  0  0  0  0  0  0  0  0
   16.5405   -9.5543    0.0000 C   0  0  0  0  0  0  0  0  0  0  0  0
   17.2549   -9.1418    0.0000 C   0  0  0  0  0  0  0  0  0  0  0  0
   17.9694   -9.5543    0.0000 C   0  0  0  0  0  0  0  0  0  0  0  0
   18.6839   -9.1418    0.0000 C   0  0  0  0  0  0  0  0  0  0  0  0
   19.3983   -9.5543    0.0000 C   0  0  0  0  0  0  0  0  0  0  0  0
   20.1128   -9.1418    0.0000 C   0  0  0  0  0  0  0  0  0  0  0  0
   20.8273   -9.5543    0.0000 C   0  0  0  0  0  0  0  0  0  0  0  0
   21.5418   -9.1418    0.0000 C   0  0  0  0  0  0  0  0  0  0  0  0
  1  2  1  0  0  0  0
  1  3  2  0  0  0  0
  1  4  1  0  0  0  0
  5  6  1  0  0  0  0
  2  5  1  0  0  0  0
  7  8  1  0  0  0  0
  8  9  1  0  0  0  0
  9 10  1  0  0  0  0
 10 11  1  0  0  0  0
 11 12  1  0  0  0  0
 12 13  1  0  0  0  0
 13 14  1  0  0  0  0
 14 15  1  0  0  0  0
 15 16  1  0  0  0  0
 16 17  1  0  0  0  0
 17 18  1  0  0  0  0
 18 19  1  0  0  0  0
 19 20  1  0  0  0  0
 20 21  1  0  0  0  0
 21 22  1  0  0  0  0
  4 10  1  0  0  0  0
M  END
>  <cdx:groupId>
798

>  <cdx:fragmentId>
748

$$$$
