546038.cdx
  Mrv1902 05222410282D          

  9  9  0  0  0  0            999 V2000
    7.0995   -6.8565    0.0000 C   0  0  0  0  0  0  0  0  0  0  0  0
    7.0995   -7.6815    0.0000 C   0  0  0  0  0  0  0  0  0  0  0  0
    7.8140   -8.0940    0.0000 C   0  0  0  0  0  0  0  0  0  0  0  0
    8.5285   -7.6815    0.0000 C   0  0  0  0  0  0  0  0  0  0  0  0
    8.5285   -6.8565    0.0000 C   0  0  0  0  0  0  0  0  0  0  0  0
    7.8140   -6.4440    0.0000 C   0  0  0  0  0  0  0  0  0  0  0  0
    6.3851   -6.4440    0.0000 O   0  0  0  0  0  0  0  0  0  0  0  0
    8.9410   -6.1420    0.0000 C   0  0  0  0  0  0  0  0  0  0  0  0
    9.3535   -6.8565    0.0000 C   0  0  0  0  0  0  0  0  0  0  0  0
  1  2  1  0  0  0  0
  2  3  1  0  0  0  0
  3  4  2  0  0  0  0
  4  5  1  0  0  0  0
  5  6  1  0  0  0  0
  1  6  1  0  0  0  0
  1  7  1  0  0  0  0
  5  8  1  0  0  0  0
  5  9  1  0  0  0  0
M  END
>  <cdx:groupId>
830

>  <cdx:fragmentId>
806

$$$$
