11546034.cdx
  Mrv1902 05222410182D          

 31 34  0  0  0  0            999 V2000
    8.3630  -15.4662    0.0000 O   0  0  0  0  0  0  0  0  0  0  0  0
    8.8480  -16.1337    0.0000 C   0  0  0  0  0  0  0  0  0  0  0  0
    8.3630  -16.8011    0.0000 C   0  0  0  0  0  0  0  0  0  0  0  0
    7.5784  -16.5462    0.0000 C   0  0  0  0  0  0  0  0  0  0  0  0
    6.8639  -16.9587    0.0000 C   0  0  0  0  0  0  0  0  0  0  0  0
    6.1495  -16.5462    0.0000 C   0  0  2  0  0  0  0  0  0  0  0  0
    6.1495  -15.7212    0.0000 C   0  0  1  0  0  0  0  0  0  0  0  0
    6.8639  -15.3087    0.0000 C   0  0  0  0  0  0  0  0  0  0  0  0
    7.5784  -15.7212    0.0000 C   0  0  2  0  0  0  0  0  0  0  0  0
    5.4350  -15.3087    0.0000 C   0  0  2  0  0  0  0  0  0  0  0  0
    4.7205  -15.7212    0.0000 C   0  0  0  0  0  0  0  0  0  0  0  0
    4.7205  -16.5462    0.0000 C   0  0  0  0  0  0  0  0  0  0  0  0
    5.4350  -16.9587    0.0000 C   0  0  0  0  0  0  0  0  0  0  0  0
    9.6730  -16.1337    0.0000 O   0  0  0  0  0  0  0  0  0  0  0  0
    5.4350  -14.4837    0.0000 O   0  0  0  0  0  0  0  0  0  0  0  0
    6.8639  -14.4837    0.0000 O   0  0  0  0  0  0  0  0  0  0  0  0
    6.1495  -14.0712    0.0000 C   0  0  2  0  0  0  0  0  0  0  0  0
    6.1495  -13.2462    0.0000 C   0  0  1  0  0  0  0  0  0  0  0  0
    6.8639  -12.8337    0.0000 C   0  0  2  0  0  0  0  0  0  0  0  0
    7.5784  -13.2462    0.0000 C   0  0  1  0  0  0  0  0  0  0  0  0
    7.5784  -14.0712    0.0000 C   0  0  1  0  0  0  0  0  0  0  0  0
    8.2929  -14.4837    0.0000 C   0  0  0  0  0  0  0  0  0  0  0  0
    9.0074  -14.0712    0.0000 O   0  0  0  0  0  0  0  0  0  0  0  0
    8.2929  -12.8337    0.0000 O   0  0  0  0  0  0  0  0  0  0  0  0
    6.8639  -12.0087    0.0000 O   0  0  0  0  0  0  0  0  0  0  0  0
    5.4350  -12.8337    0.0000 O   0  0  0  0  0  0  0  0  0  0  0  0
    5.4350  -17.7837    0.0000 C   0  0  0  0  0  0  0  0  0  0  0  0
    6.1495  -14.8962    0.0000 C   0  0  0  0  0  0  0  0  0  0  0  0
    8.6180  -17.5857    0.0000 C   0  0  0  0  0  0  0  0  0  0  0  0
    6.1495  -17.3712    0.0000 H   0  0  0  0  0  0  0  0  0  0  0  0
    7.6647  -14.9007    0.0000 H   0  0  0  0  0  0  0  0  0  0  0  0
  1  2  1  0  0  0  0
  2  3  1  0  0  0  0
  3  4  2  0  0  0  0
  4  5  1  0  0  0  0
  5  6  1  0  0  0  0
  6  7  1  0  0  0  0
  7  8  1  0  0  0  0
  8  9  1  0  0  0  0
  4  9  1  0  0  0  0
  1  9  1  0  0  0  0
 10 11  1  0  0  0  0
 11 12  1  0  0  0  0
 12 13  1  0  0  0  0
 13  6  1  0  0  0  0
 10  7  1  0  0  0  0
  2 14  2  0  0  0  0
 16 17  1  0  0  0  0
 17 18  1  0  0  0  0
 18 19  1  0  0  0  0
 19 20  1  0  0  0  0
 20 21  1  0  0  0  0
 16 21  1  0  0  0  0
 22 23  1  0  0  0  0
 21 22  1  1  0  0  0
 20 24  1  6  0  0  0
 19 25  1  1  0  0  0
 18 26  1  6  0  0  0
 17 15  1  1  0  0  0
 10 15  1  6  0  0  0
 13 27  2  0  0  0  0
  7 28  1  1  0  0  0
  3 29  1  0  0  0  0
  6 30  1  6  0  0  0
  9 31  1  1  0  0  0
M  END
>  <cdx:groupId>
74617

>  <cdx:fragmentId>
74524

$$$$
