546235.cdx
  Mrv1902 05222410182D          

 14 13  0  0  0  0            999 V2000
   13.6826   -8.3574    0.0000 C   0  0  0  0  0  0  0  0  0  0  0  0
   12.9681   -8.7699    0.0000 C   0  0  0  0  0  0  0  0  0  0  0  0
   12.2536   -8.3574    0.0000 C   0  0  0  0  0  0  0  0  0  0  0  0
   11.5392   -8.7699    0.0000 C   0  0  0  0  0  0  0  0  0  0  0  0
   13.6826   -7.5324    0.0000 O   0  0  0  0  0  0  0  0  0  0  0  0
   14.3970   -8.7699    0.0000 O   0  0  0  0  0  0  0  0  0  0  0  0
   12.9681   -9.5949    0.0000 C   0  0  0  0  0  0  0  0  0  0  0  0
   15.1115   -8.3574    0.0000 C   0  0  0  0  0  0  0  0  0  0  0  0
   15.8260   -8.7699    0.0000 C   0  0  0  0  0  0  0  0  0  0  0  0
   16.5405   -8.3574    0.0000 C   0  0  0  0  0  0  0  0  0  0  0  0
   17.2549   -8.7699    0.0000 C   0  0  0  0  0  0  0  0  0  0  0  0
   17.9694   -8.3574    0.0000 C   0  0  0  0  0  0  0  0  0  0  0  0
   18.6839   -8.7699    0.0000 C   0  0  0  0  0  0  0  0  0  0  0  0
   19.3983   -8.3574    0.0000 C   0  0  0  0  0  0  0  0  0  0  0  0
  1  2  1  0  0  0  0
  2  3  1  0  0  0  0
  3  4  1  0  0  0  0
  1  5  2  0  0  0  0
  1  6  1  0  0  0  0
  2  7  1  0  0  0  0
  8  9  1  0  0  0  0
  9 10  1  0  0  0  0
 10 11  1  0  0  0  0
 11 12  1  0  0  0  0
 12 13  1  0  0  0  0
 13 14  1  0  0  0  0
  6  8  1  0  0  0  0
M  END
>  <cdx:groupId>
873

>  <cdx:fragmentId>
849

$$$$
