546952.cdx
  Mrv1902 05222410272D          

 12 12  0  0  0  0            999 V2000
    9.5867   -8.4918    0.0000 N   0  0  0  0  0  0  0  0  0  0  0  0
    8.8723   -8.9043    0.0000 C   0  0  0  0  0  0  0  0  0  0  0  0
    8.1578   -8.4918    0.0000 C   0  0  0  0  0  0  0  0  0  0  0  0
    7.4433   -8.9043    0.0000 O   0  0  0  0  0  0  0  0  0  0  0  0
    6.7288   -8.4918    0.0000 C   0  0  0  0  0  0  0  0  0  0  0  0
    6.0144   -8.9043    0.0000 C   0  0  0  0  0  0  0  0  0  0  0  0
    5.2999   -8.4918    0.0000 C   0  0  0  0  0  0  0  0  0  0  0  0
    5.2999   -7.6668    0.0000 C   0  0  0  0  0  0  0  0  0  0  0  0
    6.0144   -7.2543    0.0000 C   0  0  0  0  0  0  0  0  0  0  0  0
    6.7288   -7.6668    0.0000 C   0  0  0  0  0  0  0  0  0  0  0  0
    9.5867   -7.6668    0.0000 C   0  0  0  0  0  0  0  0  0  0  0  0
   10.3012   -8.9043    0.0000 C   0  0  0  0  0  0  0  0  0  0  0  0
  2  3  1  0  0  0  0
  1  2  1  0  0  0  0
  5  6  1  0  0  0  0
  6  7  1  0  0  0  0
  7  8  1  0  0  0  0
  8  9  1  0  0  0  0
  9 10  1  0  0  0  0
  5 10  1  0  0  0  0
  4  5  1  0  0  0  0
  3  4  1  0  0  0  0
  1 11  1  0  0  0  0
  1 12  1  0  0  0  0
M  END
>  <cdx:fragmentId>
888

$$$$
