5469.cdx
  Mrv1902 05222410222D          

 18 19  0  0  0  0            999 V2000
    8.5055   -9.3387    0.0000 C   0  0  0  0  0  0  0  0  0  0  0  0
    7.7911   -8.9262    0.0000 O   0  0  0  0  0  0  0  0  0  0  0  0
    4.2187   -6.8637    0.0000 C   0  0  0  0  0  0  0  0  0  0  0  0
    4.9332   -6.4512    0.0000 O   0  0  0  0  0  0  0  0  0  0  0  0
    5.6477   -9.3387    0.0000 O   0  0  0  0  0  0  0  0  0  0  0  0
    6.3621   -8.9262    0.0000 C   0  0  0  0  0  0  0  0  0  0  0  0
    4.9332   -8.1012    0.0000 O   0  0  0  0  0  0  0  0  0  0  0  0
    7.0766   -6.8637    0.0000 C   0  0  0  0  0  0  0  0  0  0  0  0
    6.3621   -6.4512    0.0000 C   0  0  0  0  0  0  0  0  0  0  0  0
    5.6477   -6.8637    0.0000 C   0  0  0  0  0  0  0  0  0  0  0  0
    5.6477   -7.6887    0.0000 C   0  0  0  0  0  0  0  0  0  0  0  0
    6.3621   -8.1012    0.0000 C   0  0  0  0  0  0  0  0  0  0  0  0
    7.0766   -7.6887    0.0000 C   0  0  0  0  0  0  0  0  0  0  0  0
    7.7911   -8.1012    0.0000 C   0  0  0  0  0  0  0  0  0  0  0  0
    8.5055   -7.6887    0.0000 C   0  0  0  0  0  0  0  0  0  0  0  0
    9.2200   -6.4512    0.0000 O   0  0  0  0  0  0  0  0  0  0  0  0
    8.5055   -6.8637    0.0000 C   0  0  0  0  0  0  0  0  0  0  0  0
    7.7911   -6.4512    0.0000 O   0  0  0  0  0  0  0  0  0  0  0  0
 14  2  1  0  0  0  0
  2  1  1  0  0  0  0
 10  4  1  0  0  0  0
  4  3  1  0  0  0  0
 12  6  1  0  0  0  0
  6  5  2  0  0  0  0
 11  7  1  0  0  0  0
 13  8  2  0  0  0  0
 18  8  1  0  0  0  0
  9  8  1  0  0  0  0
 10  9  2  0  0  0  0
 11 10  1  0  0  0  0
 12 11  2  0  0  0  0
 13 12  1  0  0  0  0
 14 13  1  0  0  0  0
 15 14  2  0  0  0  0
 17 15  1  0  0  0  0
 17 16  2  0  0  0  0
 18 17  1  0  0  0  0
M  END
>  <cdx:fragmentId>
5

$$$$
