547.cdx
  Mrv1902 05222410252D          

 12 12  0  0  0  0            999 V2000
    5.5911   -3.7408    0.0000 C   0  0  0  0  0  0  0  0  0  0  0  0
    4.8766   -4.1533    0.0000 C   0  0  0  0  0  0  0  0  0  0  0  0
    5.5911   -2.9158    0.0000 O   0  0  0  0  0  0  0  0  0  0  0  0
    6.3055   -4.1533    0.0000 O   0  0  0  0  0  0  0  0  0  0  0  0
    4.1621   -3.7408    0.0000 C   0  0  0  0  0  0  0  0  0  0  0  0
    3.4477   -4.1533    0.0000 C   0  0  0  0  0  0  0  0  0  0  0  0
    2.7332   -3.7408    0.0000 C   0  0  0  0  0  0  0  0  0  0  0  0
    2.7332   -2.9158    0.0000 C   0  0  0  0  0  0  0  0  0  0  0  0
    3.4477   -2.5033    0.0000 C   0  0  0  0  0  0  0  0  0  0  0  0
    4.1621   -2.9158    0.0000 C   0  0  0  0  0  0  0  0  0  0  0  0
    2.0187   -2.5033    0.0000 O   0  0  0  0  0  0  0  0  0  0  0  0
    2.0187   -4.1533    0.0000 O   0  0  0  0  0  0  0  0  0  0  0  0
  1  2  1  0  0  0  0
  1  3  2  0  0  0  0
  1  4  1  0  0  0  0
  5  6  1  0  0  0  0
  6  7  2  0  0  0  0
  7  8  1  0  0  0  0
  8  9  2  0  0  0  0
  9 10  1  0  0  0  0
  5 10  2  0  0  0  0
  8 11  1  0  0  0  0
  7 12  1  0  0  0  0
  2  5  1  0  0  0  0
M  END
>  <cdx:groupId>
38

>  <cdx:fragmentId>
13

$$$$
