5470.cdx
  Mrv1902 05222410242D          

 17 18  0  0  0  0            999 V2000
    8.9318  -10.4495    0.0000 C   0  0  0  0  0  0  0  0  0  0  0  0
    8.2173  -10.0370    0.0000 O   0  0  0  0  0  0  0  0  0  0  0  0
    4.6450   -7.9745    0.0000 C   0  0  0  0  0  0  0  0  0  0  0  0
    5.3594   -7.5620    0.0000 O   0  0  0  0  0  0  0  0  0  0  0  0
    6.7884  -10.0370    0.0000 C   0  0  0  0  0  0  0  0  0  0  0  0
    5.3594   -9.2120    0.0000 O   0  0  0  0  0  0  0  0  0  0  0  0
    7.5028   -7.9745    0.0000 C   0  0  0  0  0  0  0  0  0  0  0  0
    6.7884   -7.5620    0.0000 C   0  0  0  0  0  0  0  0  0  0  0  0
    6.0739   -7.9745    0.0000 C   0  0  0  0  0  0  0  0  0  0  0  0
    6.0739   -8.7995    0.0000 C   0  0  0  0  0  0  0  0  0  0  0  0
    6.7884   -9.2120    0.0000 C   0  0  0  0  0  0  0  0  0  0  0  0
    7.5028   -8.7995    0.0000 C   0  0  0  0  0  0  0  0  0  0  0  0
    8.2173   -9.2120    0.0000 C   0  0  0  0  0  0  0  0  0  0  0  0
    8.9318   -8.7995    0.0000 C   0  0  0  0  0  0  0  0  0  0  0  0
    9.6463   -7.5620    0.0000 O   0  0  0  0  0  0  0  0  0  0  0  0
    8.9318   -7.9745    0.0000 C   0  0  0  0  0  0  0  0  0  0  0  0
    8.2173   -7.5620    0.0000 O   0  0  0  0  0  0  0  0  0  0  0  0
 13  2  1  0  0  0  0
  2  1  1  0  0  0  0
  9  4  1  0  0  0  0
  4  3  1  0  0  0  0
 11  5  1  0  0  0  0
 10  6  1  0  0  0  0
 12  7  2  0  0  0  0
 17  7  1  0  0  0  0
  8  7  1  0  0  0  0
  9  8  2  0  0  0  0
 10  9  1  0  0  0  0
 11 10  2  0  0  0  0
 12 11  1  0  0  0  0
 13 12  1  0  0  0  0
 14 13  2  0  0  0  0
 16 14  1  0  0  0  0
 16 15  2  0  0  0  0
 17 16  1  0  0  0  0
M  END
>  <cdx:fragmentId>
5

$$$$
