10547113.cdx
  Mrv1902 05222410192D          

 27 30  0  0  0  0            999 V2000
    6.8863  -16.1612    0.0000 C   0  0  0  0  0  0  0  0  0  0  0  0
    6.8863  -15.3362    0.0000 C   0  0  0  0  0  0  0  0  0  0  0  0
    6.1718  -14.9237    0.0000 C   0  0  0  0  0  0  0  0  0  0  0  0
    5.4573  -15.3362    0.0000 C   0  0  0  0  0  0  0  0  0  0  0  0
    4.7429  -14.9237    0.0000 C   0  0  0  0  0  0  0  0  0  0  0  0
    4.0284  -15.3362    0.0000 C   0  0  0  0  0  0  0  0  0  0  0  0
    4.0284  -16.1612    0.0000 C   0  0  0  0  0  0  0  0  0  0  0  0
    4.7429  -16.5737    0.0000 C   0  0  0  0  0  0  0  0  0  0  0  0
    5.4573  -16.1612    0.0000 C   0  0  0  0  0  0  0  0  0  0  0  0
    6.1718  -16.5737    0.0000 O   0  0  0  0  0  0  0  0  0  0  0  0
    6.1718  -14.0987    0.0000 O   0  0  0  0  0  0  0  0  0  0  0  0
    3.3139  -16.5737    0.0000 O   0  0  0  0  0  0  0  0  0  0  0  0
    4.7429  -14.0987    0.0000 O   0  0  0  0  0  0  0  0  0  0  0  0
   10.4586  -14.0987    0.0000 C   0  0  0  0  0  0  0  0  0  0  0  0
   10.4586  -14.9237    0.0000 C   0  0  0  0  0  0  0  0  0  0  0  0
    9.7441  -15.3362    0.0000 C   0  0  0  0  0  0  0  0  0  0  0  0
    9.0297  -14.9237    0.0000 C   0  0  0  0  0  0  0  0  0  0  0  0
    8.3152  -15.3362    0.0000 C   0  0  0  0  0  0  0  0  0  0  0  0
    7.6007  -14.9237    0.0000 C   0  0  0  0  0  0  0  0  0  0  0  0
    7.6007  -14.0987    0.0000 C   0  0  0  0  0  0  0  0  0  0  0  0
    8.3152  -13.6862    0.0000 C   0  0  0  0  0  0  0  0  0  0  0  0
    9.0297  -14.0987    0.0000 C   0  0  0  0  0  0  0  0  0  0  0  0
    9.7441  -13.6862    0.0000 O   0  0  0  0  0  0  0  0  0  0  0  0
   10.8711  -13.3842    0.0000 C   0  0  0  0  0  0  0  0  0  0  0  0
   11.2836  -14.0987    0.0000 C   0  0  0  0  0  0  0  0  0  0  0  0
    8.3152  -12.8612    0.0000 O   0  0  0  0  0  0  0  0  0  0  0  0
   11.1731  -15.3362    0.0000 O   0  0  0  0  0  0  0  0  0  0  0  0
  1  2  2  0  0  0  0
  2  3  1  0  0  0  0
  3  4  1  0  0  0  0
  4  5  1  0  0  0  0
  5  6  2  0  0  0  0
  6  7  1  0  0  0  0
  7  8  2  0  0  0  0
  8  9  1  0  0  0  0
  4  9  2  0  0  0  0
  9 10  1  0  0  0  0
  1 10  1  0  0  0  0
  3 11  2  0  0  0  0
  7 12  1  0  0  0  0
  5 13  1  0  0  0  0
 14 15  1  0  0  0  0
 15 16  1  0  0  0  0
 16 17  1  0  0  0  0
 17 18  1  0  0  0  0
 18 19  2  0  0  0  0
 19 20  1  0  0  0  0
 20 21  2  0  0  0  0
 21 22  1  0  0  0  0
 17 22  2  0  0  0  0
 22 23  1  0  0  0  0
 14 23  1  0  0  0  0
 14 24  1  0  0  0  0
 14 25  1  0  0  0  0
 21 26  1  0  0  0  0
 15 27  1  0  0  0  0
  2 19  1  0  0  0  0
M  END
>  <cdx:fragmentId>
53555

$$$$
