547857.cdx
  Mrv1902 05222410192D          

 28 27  0  0  0  0            999 V2000
    4.7670   -8.1285    0.0000 O   0  0  0  0  0  0  0  0  0  0  0  0
   22.6288   -9.3660    0.0000 C   0  0  0  0  0  0  0  0  0  0  0  0
   21.9143   -8.9535    0.0000 C   0  0  0  0  0  0  0  0  0  0  0  0
   21.1998   -9.3660    0.0000 C   0  0  0  0  0  0  0  0  0  0  0  0
   20.4854   -8.9535    0.0000 C   0  0  0  0  0  0  0  0  0  0  0  0
   19.7709   -9.3660    0.0000 C   0  0  0  0  0  0  0  0  0  0  0  0
   19.0564   -8.9535    0.0000 C   0  0  0  0  0  0  0  0  0  0  0  0
   18.3420   -9.3660    0.0000 C   0  0  0  0  0  0  0  0  0  0  0  0
   17.6275   -8.9535    0.0000 C   0  0  0  0  0  0  0  0  0  0  0  0
   16.9130   -9.3660    0.0000 C   0  0  0  0  0  0  0  0  0  0  0  0
   16.1986   -8.9535    0.0000 C   0  0  0  0  0  0  0  0  0  0  0  0
   15.4841   -9.3660    0.0000 C   0  0  0  0  0  0  0  0  0  0  0  0
   14.7696   -8.9535    0.0000 C   0  0  0  0  0  0  0  0  0  0  0  0
   14.0551   -9.3660    0.0000 C   0  0  0  0  0  0  0  0  0  0  0  0
   13.3407   -8.9535    0.0000 C   0  0  0  0  0  0  0  0  0  0  0  0
   12.6262   -9.3660    0.0000 C   0  0  0  0  0  0  0  0  0  0  0  0
   11.9117   -8.9535    0.0000 C   0  0  0  0  0  0  0  0  0  0  0  0
   11.1973   -9.3660    0.0000 C   0  0  0  0  0  0  0  0  0  0  0  0
   10.4828   -8.9535    0.0000 C   0  0  0  0  0  0  0  0  0  0  0  0
    9.7683   -9.3660    0.0000 C   0  0  0  0  0  0  0  0  0  0  0  0
    9.0538   -8.9535    0.0000 C   0  0  0  0  0  0  0  0  0  0  0  0
    8.3394   -9.3660    0.0000 C   0  0  0  0  0  0  0  0  0  0  0  0
    7.6249   -8.9535    0.0000 C   0  0  0  0  0  0  0  0  0  0  0  0
    6.9104   -9.3660    0.0000 C   0  0  0  0  0  0  0  0  0  0  0  0
    6.1960   -8.9535    0.0000 C   0  0  0  0  0  0  0  0  0  0  0  0
    5.4815   -9.3660    0.0000 C   0  0  0  0  0  0  0  0  0  0  0  0
    4.7670   -8.9535    0.0000 C   0  0  0  0  0  0  0  0  0  0  0  0
    4.0525   -9.3660    0.0000 C   0  0  0  0  0  0  0  0  0  0  0  0
 27  1  2  0  0  0  0
  3  2  1  0  0  0  0
  4  3  1  0  0  0  0
  5  4  1  0  0  0  0
  6  5  1  0  0  0  0
  7  6  1  0  0  0  0
  8  7  1  0  0  0  0
  9  8  1  0  0  0  0
 10  9  1  0  0  0  0
 11 10  1  0  0  0  0
 12 11  1  0  0  0  0
 13 12  1  0  0  0  0
 14 13  1  0  0  0  0
 15 14  1  0  0  0  0
 16 15  1  0  0  0  0
 17 16  1  0  0  0  0
 18 17  1  0  0  0  0
 19 18  1  0  0  0  0
 20 19  1  0  0  0  0
 21 20  1  0  0  0  0
 22 21  1  0  0  0  0
 23 22  1  0  0  0  0
 24 23  1  0  0  0  0
 25 24  1  0  0  0  0
 26 25  1  0  0  0  0
 27 26  1  0  0  0  0
 28 27  1  0  0  0  0
M  END
>  <cdx:groupId>
1085

>  <cdx:fragmentId>
1005

$$$$
