547856.cdx
  Mrv1902 05222410192D          

 26 25  0  0  0  0            999 V2000
    6.1448   -8.2114    0.0000 O   0  0  0  0  0  0  0  0  0  0  0  0
   22.5776   -9.4489    0.0000 C   0  0  0  0  0  0  0  0  0  0  0  0
   21.8631   -9.0364    0.0000 C   0  0  0  0  0  0  0  0  0  0  0  0
   21.1487   -9.4489    0.0000 C   0  0  0  0  0  0  0  0  0  0  0  0
   20.4342   -9.0364    0.0000 C   0  0  0  0  0  0  0  0  0  0  0  0
   19.7197   -9.4489    0.0000 C   0  0  0  0  0  0  0  0  0  0  0  0
   19.0053   -9.0364    0.0000 C   0  0  0  0  0  0  0  0  0  0  0  0
   18.2908   -9.4489    0.0000 C   0  0  0  0  0  0  0  0  0  0  0  0
   17.5763   -9.0364    0.0000 C   0  0  0  0  0  0  0  0  0  0  0  0
   16.8619   -9.4489    0.0000 C   0  0  0  0  0  0  0  0  0  0  0  0
   16.1474   -9.0364    0.0000 C   0  0  0  0  0  0  0  0  0  0  0  0
   15.4329   -9.4489    0.0000 C   0  0  0  0  0  0  0  0  0  0  0  0
   14.7184   -9.0364    0.0000 C   0  0  0  0  0  0  0  0  0  0  0  0
   14.0040   -9.4489    0.0000 C   0  0  0  0  0  0  0  0  0  0  0  0
   13.2895   -9.0364    0.0000 C   0  0  0  0  0  0  0  0  0  0  0  0
   12.5750   -9.4489    0.0000 C   0  0  0  0  0  0  0  0  0  0  0  0
   11.8606   -9.0364    0.0000 C   0  0  0  0  0  0  0  0  0  0  0  0
   11.1461   -9.4489    0.0000 C   0  0  0  0  0  0  0  0  0  0  0  0
   10.4316   -9.0364    0.0000 C   0  0  0  0  0  0  0  0  0  0  0  0
    9.7171   -9.4489    0.0000 C   0  0  0  0  0  0  0  0  0  0  0  0
    9.0027   -9.0364    0.0000 C   0  0  0  0  0  0  0  0  0  0  0  0
    8.2882   -9.4489    0.0000 C   0  0  0  0  0  0  0  0  0  0  0  0
    7.5737   -9.0364    0.0000 C   0  0  0  0  0  0  0  0  0  0  0  0
    6.8593   -9.4489    0.0000 C   0  0  0  0  0  0  0  0  0  0  0  0
    6.1448   -9.0364    0.0000 C   0  0  0  0  0  0  0  0  0  0  0  0
    5.4303   -9.4489    0.0000 C   0  0  0  0  0  0  0  0  0  0  0  0
 25  1  2  0  0  0  0
  3  2  1  0  0  0  0
  4  3  1  0  0  0  0
  5  4  1  0  0  0  0
  6  5  1  0  0  0  0
  7  6  1  0  0  0  0
  8  7  1  0  0  0  0
  9  8  1  0  0  0  0
 10  9  1  0  0  0  0
 11 10  1  0  0  0  0
 12 11  1  0  0  0  0
 13 12  1  0  0  0  0
 14 13  1  0  0  0  0
 15 14  1  0  0  0  0
 16 15  1  0  0  0  0
 17 16  1  0  0  0  0
 18 17  1  0  0  0  0
 19 18  1  0  0  0  0
 20 19  1  0  0  0  0
 21 20  1  0  0  0  0
 22 21  1  0  0  0  0
 23 22  1  0  0  0  0
 24 23  1  0  0  0  0
 25 24  1  0  0  0  0
 26 25  1  0  0  0  0
M  END
>  <cdx:groupId>
994

>  <cdx:fragmentId>
920

$$$$
