547924.cdx
  Mrv1902 05222410202D          

 16 16  0  0  0  0            999 V2000
    9.1397   -6.7809    0.0000 P   0  0  0  0  0  0  0  0  0  0  0  0
    8.7272   -6.0665    0.0000 O   0  0  0  0  0  0  0  0  0  0  0  0
    9.5522   -7.4954    0.0000 O   0  0  0  0  0  0  0  0  0  0  0  0
    9.8541   -6.3684    0.0000 O   0  0  0  0  0  0  0  0  0  0  0  0
    8.4252   -7.1934    0.0000 O   0  0  0  0  0  0  0  0  0  0  0  0
    7.7107   -6.7809    0.0000 C   0  0  0  0  0  0  0  0  0  0  0  0
    6.2818   -6.7809    0.0000 O   0  0  0  0  0  0  0  0  0  0  0  0
    6.9963   -7.1934    0.0000 C   0  0  1  0  0  0  0  0  0  0  0  0
    6.9963   -8.0184    0.0000 C   0  0  2  0  0  0  0  0  0  0  0  0
    6.2818   -8.4309    0.0000 C   0  0  1  0  0  0  0  0  0  0  0  0
    5.5673   -8.0184    0.0000 C   0  0  1  0  0  0  0  0  0  0  0  0
    5.5673   -7.1934    0.0000 C   0  0  0  0  0  0  0  0  0  0  0  0
    4.8529   -8.4309    0.0000 O   0  0  0  0  0  0  0  0  0  0  0  0
    6.2818   -9.2559    0.0000 O   0  0  0  0  0  0  0  0  0  0  0  0
    7.7107   -8.4309    0.0000 O   0  0  0  0  0  0  0  0  0  0  0  0
    6.9963   -6.3684    0.0000 O   0  0  0  0  0  0  0  0  0  0  0  0
  1  2  2  0  0  0  0
  1  3  1  0  0  0  0
  1  4  1  0  0  0  0
  1  5  1  0  0  0  0
  7  8  1  0  0  0  0
  8  9  1  0  0  0  0
  9 10  1  0  0  0  0
 10 11  1  0  0  0  0
 11 12  1  0  0  0  0
  7 12  1  0  0  0  0
 11 13  1  6  0  0  0
 10 14  1  6  0  0  0
  9 15  1  1  0  0  0
  8 16  1  1  0  0  0
  6  8  1  0  0  0  0
  5  6  1  0  0  0  0
M  END
>  <cdx:groupId>
27633

>  <cdx:fragmentId>
27600

$$$$
