548420.cdx
  Mrv1902 05222410182D          

 29 31  0  0  0  0            999 V2000
    7.9002   -8.9760    0.0000 C   0  0  1  0  0  0  0  0  0  0  0  0
    8.6146   -8.5635    0.0000 C   0  0  1  0  0  0  0  0  0  0  0  0
    8.6146   -7.7385    0.0000 C   0  0  1  0  0  0  0  0  0  0  0  0
    7.9002   -7.3260    0.0000 C   0  0  0  0  0  0  0  0  0  0  0  0
    7.1857   -7.7385    0.0000 C   0  0  0  0  0  0  0  0  0  0  0  0
    7.1857   -8.5635    0.0000 O   0  0  0  0  0  0  0  0  0  0  0  0
    9.3993   -7.4836    0.0000 C   0  0  0  0  0  0  0  0  0  0  0  0
    9.8842   -8.1510    0.0000 C   0  0  1  0  0  0  0  0  0  0  0  0
    9.3993   -8.8184    0.0000 C   0  0  1  0  0  0  0  0  0  0  0  0
    7.9002   -6.5010    0.0000 C   0  0  0  0  0  0  0  0  0  0  0  0
    8.6146   -6.0885    0.0000 O   0  0  0  0  0  0  0  0  0  0  0  0
    7.1857   -6.0885    0.0000 O   0  0  0  0  0  0  0  0  0  0  0  0
    7.9002   -9.8010    0.0000 O   0  0  0  0  0  0  0  0  0  0  0  0
    6.4712   -9.8010    0.0000 O   0  0  0  0  0  0  0  0  0  0  0  0
    7.1857  -10.2135    0.0000 C   0  0  2  0  0  0  0  0  0  0  0  0
    7.1857  -11.0385    0.0000 C   0  0  1  0  0  0  0  0  0  0  0  0
    6.4712  -11.4510    0.0000 C   0  0  2  0  0  0  0  0  0  0  0  0
    5.7568  -11.0385    0.0000 C   0  0  1  0  0  0  0  0  0  0  0  0
    5.7568  -10.2135    0.0000 C   0  0  1  0  0  0  0  0  0  0  0  0
    5.0423   -9.8010    0.0000 C   0  0  0  0  0  0  0  0  0  0  0  0
    4.3278  -10.2135    0.0000 O   0  0  0  0  0  0  0  0  0  0  0  0
    5.0423  -11.4510    0.0000 O   0  0  0  0  0  0  0  0  0  0  0  0
    6.4712  -12.2760    0.0000 O   0  0  0  0  0  0  0  0  0  0  0  0
    7.9002  -11.4510    0.0000 O   0  0  0  0  0  0  0  0  0  0  0  0
    9.6542   -9.6031    0.0000 C   0  0  0  0  0  0  0  0  0  0  0  0
   10.7092   -8.1510    0.0000 O   0  0  0  0  0  0  0  0  0  0  0  0
    8.7009   -6.9180    0.0000 H   0  0  0  0  0  0  0  0  0  0  0  0
    8.7009   -9.3840    0.0000 H   0  0  0  0  0  0  0  0  0  0  0  0
    7.1857   -5.2635    0.0000 C   0  0  0  0  0  0  0  0  0  0  0  0
  1  2  1  0  0  0  0
  2  3  1  0  0  0  0
  3  4  1  0  0  0  0
  4  5  2  0  0  0  0
  5  6  1  0  0  0  0
  1  6  1  0  0  0  0
  7  8  1  0  0  0  0
  8  9  1  0  0  0  0
  9  2  1  0  0  0  0
  7  3  1  0  0  0  0
 10 11  2  0  0  0  0
 10 12  1  0  0  0  0
  4 10  1  0  0  0  0
 14 15  1  0  0  0  0
 15 16  1  0  0  0  0
 16 17  1  0  0  0  0
 17 18  1  0  0  0  0
 18 19  1  0  0  0  0
 14 19  1  0  0  0  0
 20 21  1  0  0  0  0
 19 20  1  1  0  0  0
 18 22  1  6  0  0  0
 17 23  1  1  0  0  0
 16 24  1  6  0  0  0
 15 13  1  1  0  0  0
  1 13  1  6  0  0  0
  9 25  1  1  0  0  0
  8 26  1  6  0  0  0
  3 27  1  6  0  0  0
  2 28  1  6  0  0  0
 12 29  1  0  0  0  0
M  END
>  <cdx:groupId>
53709

>  <cdx:fragmentId>
53623

$$$$
