5486.cdx
  Mrv1902 05222410222D          

 22 25  0  0  0  0            999 V2000
    7.7576   -9.4783    0.0000 C   0  0  0  0  0  0  0  0  0  0  0  0
    7.2055   -8.8652    0.0000 C   0  0  0  0  0  0  0  0  0  0  0  0
    7.4605   -8.0806    0.0000 C   0  0  0  0  0  0  0  0  0  0  0  0
    8.2675   -7.9091    0.0000 C   0  0  0  0  0  0  0  0  0  0  0  0
    8.5224   -7.1245    0.0000 C   0  0  0  0  0  0  0  0  0  0  0  0
    9.3294   -6.9529    0.0000 C   0  0  0  0  0  0  0  0  0  0  0  0
    9.8814   -7.5660    0.0000 C   0  0  0  0  0  0  0  0  0  0  0  0
    9.6265   -8.3506    0.0000 C   0  0  0  0  0  0  0  0  0  0  0  0
    8.8195   -8.5222    0.0000 C   0  0  0  0  0  0  0  0  0  0  0  0
    8.5646   -9.3068    0.0000 O   0  0  0  0  0  0  0  0  0  0  0  0
    6.7930   -7.5957    0.0000 O   0  0  0  0  0  0  0  0  0  0  0  0
    6.3805   -8.8652    0.0000 C   0  0  0  0  0  0  0  0  0  0  0  0
    5.8285   -9.4783    0.0000 C   0  0  0  0  0  0  0  0  0  0  0  0
    5.0215   -9.3068    0.0000 C   0  0  0  0  0  0  0  0  0  0  0  0
    4.7666   -8.5222    0.0000 C   0  0  0  0  0  0  0  0  0  0  0  0
    5.3186   -7.9091    0.0000 C   0  0  0  0  0  0  0  0  0  0  0  0
    6.1256   -8.0806    0.0000 C   0  0  0  0  0  0  0  0  0  0  0  0
   10.6884   -7.3945    0.0000 O   0  0  0  0  0  0  0  0  0  0  0  0
    3.9596   -8.3506    0.0000 O   0  0  0  0  0  0  0  0  0  0  0  0
    3.4076   -8.9637    0.0000 C   0  0  0  0  0  0  0  0  0  0  0  0
   10.1785   -8.9637    0.0000 O   0  0  0  0  0  0  0  0  0  0  0  0
   10.9855   -8.7922    0.0000 C   0  0  0  0  0  0  0  0  0  0  0  0
  1  2  1  0  0  0  0
  2  3  1  0  0  0  0
  3  4  1  0  0  0  0
  4  5  1  0  0  0  0
  5  6  2  0  0  0  0
  6  7  1  0  0  0  0
  7  8  2  0  0  0  0
  8  9  1  0  0  0  0
  4  9  2  0  0  0  0
  9 10  1  0  0  0  0
  1 10  1  0  0  0  0
 12 13  1  0  0  0  0
 13 14  2  0  0  0  0
 14 15  1  0  0  0  0
 15 16  2  0  0  0  0
 16 17  1  0  0  0  0
 12 17  2  0  0  0  0
 11 17  1  0  0  0  0
 12  2  1  0  0  0  0
 11  3  1  0  0  0  0
  7 18  1  0  0  0  0
 19 20  1  0  0  0  0
 15 19  1  0  0  0  0
 21 22  1  0  0  0  0
  8 21  1  0  0  0  0
M  END
>  <cdx:fragmentId>
5

$$$$
