9548717.cdx
  Mrv1902 05222410242D          

 34 38  0  0  0  0            999 V2000
    5.0863  -13.1257    0.0000 C   0  0  0  0  0  0  0  0  0  0  0  0
    4.3719  -13.5382    0.0000 C   0  0  0  0  0  0  0  0  0  0  0  0
    4.3719  -14.3632    0.0000 C   0  0  0  0  0  0  0  0  0  0  0  0
    5.0863  -14.7757    0.0000 C   0  0  0  0  0  0  0  0  0  0  0  0
    5.8008  -14.3632    0.0000 C   0  0  2  0  0  0  0  0  0  0  0  0
    6.5153  -14.7757    0.0000 C   0  0  0  0  0  0  0  0  0  0  0  0
    7.2297  -14.3632    0.0000 C   0  0  0  0  0  0  0  0  0  0  0  0
    7.2297  -13.5382    0.0000 C   0  0  1  0  0  0  0  0  0  0  0  0
    7.9442  -13.1257    0.0000 C   0  0  2  0  0  0  0  0  0  0  0  0
    8.6587  -13.5382    0.0000 C   0  0  0  0  0  0  0  0  0  0  0  0
    9.3732  -13.1257    0.0000 C   0  0  0  0  0  0  0  0  0  0  0  0
    9.3732  -12.3007    0.0000 C   0  0  1  0  0  0  0  0  0  0  0  0
   10.0876  -11.8882    0.0000 C   0  0  0  0  0  0  0  0  0  0  0  0
   10.0876  -11.0632    0.0000 C   0  0  0  0  0  0  0  0  0  0  0  0
    9.3732  -10.6507    0.0000 C   0  0  0  0  0  0  0  0  0  0  0  0
    8.6587  -11.0632    0.0000 C   0  0  0  0  0  0  0  0  0  0  0  0
    8.6587  -11.8882    0.0000 C   0  0  1  0  0  0  0  0  0  0  0  0
    7.9442  -12.3007    0.0000 C   0  0  1  0  0  0  0  0  0  0  0  0
    7.2297  -11.8882    0.0000 C   0  0  0  0  0  0  0  0  0  0  0  0
    6.5153  -12.3007    0.0000 C   0  0  0  0  0  0  0  0  0  0  0  0
    6.5153  -13.1257    0.0000 C   0  0  2  0  0  0  0  0  0  0  0  0
    5.8008  -13.5382    0.0000 C   0  0  1  0  0  0  0  0  0  0  0  0
    5.8008  -12.7132    0.0000 C   0  0  0  0  0  0  0  0  0  0  0  0
    8.9607   -9.9363    0.0000 C   0  0  0  0  0  0  0  0  0  0  0  0
    9.7857   -9.9363    0.0000 C   0  0  0  0  0  0  0  0  0  0  0  0
   10.0876  -12.7132    0.0000 C   0  0  0  0  0  0  0  0  0  0  0  0
    7.2297  -12.7132    0.0000 C   0  0  0  0  0  0  0  0  0  0  0  0
    5.4988  -15.4902    0.0000 C   0  0  0  0  0  0  0  0  0  0  0  0
    4.6738  -15.4902    0.0000 C   0  0  0  0  0  0  0  0  0  0  0  0
    5.8008  -15.1882    0.0000 H   0  0  0  0  0  0  0  0  0  0  0  0
    6.5153  -13.9507    0.0000 H   0  0  0  0  0  0  0  0  0  0  0  0
    9.3732  -11.4757    0.0000 H   0  0  0  0  0  0  0  0  0  0  0  0
    7.7307  -11.5039    0.0000 H   0  0  0  0  0  0  0  0  0  0  0  0
    7.9442  -13.9507    0.0000 C   0  0  0  0  0  0  0  0  0  0  0  0
  1  2  1  0  0  0  0
  2  3  1  0  0  0  0
  3  4  1  0  0  0  0
  4  5  1  0  0  0  0
  5  6  1  0  0  0  0
  6  7  1  0  0  0  0
  7  8  1  0  0  0  0
  8  9  1  0  0  0  0
  9 10  1  0  0  0  0
 10 11  1  0  0  0  0
 11 12  1  0  0  0  0
 12 13  1  0  0  0  0
 13 14  1  0  0  0  0
 14 15  1  0  0  0  0
 15 16  1  0  0  0  0
 16 17  1  0  0  0  0
 12 17  1  0  0  0  0
 17 18  1  0  0  0  0
  9 18  1  0  0  0  0
 18 19  1  0  0  0  0
 19 20  1  0  0  0  0
 20 21  1  0  0  0  0
  8 21  1  0  0  0  0
 21 22  1  0  0  0  0
  5 22  1  0  0  0  0
  1 22  1  0  0  0  0
 22 23  1  1  0  0  0
 15 24  1  0  0  0  0
 15 25  1  0  0  0  0
 12 26  1  1  0  0  0
  8 27  1  1  0  0  0
  4 28  1  0  0  0  0
  4 29  1  0  0  0  0
  5 30  1  6  0  0  0
 21 31  1  6  0  0  0
 17 32  1  1  0  0  0
 18 33  1  1  0  0  0
  9 34  1  6  0  0  0
M  END
>  <cdx:groupId>
28010

>  <cdx:fragmentId>
27910

$$$$
