5487.cdx
  Mrv1902 05222410222D          

 20 21  0  0  0  0            999 V2000
    3.1563   -8.3871    0.0000 O   0  0  0  0  0  0  0  0  0  0  0  0
    4.5852   -7.5621    0.0000 O   0  0  0  0  0  0  0  0  0  0  0  0
    5.2997   -8.7996    0.0000 C   0  0  0  0  0  0  0  0  0  0  0  0
    4.5852   -8.3871    0.0000 C   0  0  0  0  0  0  0  0  0  0  0  0
    3.8708   -8.7996    0.0000 C   0  0  0  0  0  0  0  0  0  0  0  0
    3.8708   -9.6246    0.0000 C   0  0  0  0  0  0  0  0  0  0  0  0
    4.5852  -10.0371    0.0000 C   0  0  0  0  0  0  0  0  0  0  0  0
    5.2997   -9.6246    0.0000 C   0  0  0  0  0  0  0  0  0  0  0  0
    6.0142  -10.0371    0.0000 C   0  0  0  0  0  0  0  0  0  0  0  0
    6.7286   -9.6246    0.0000 C   0  0  0  0  0  0  0  0  0  0  0  0
    9.4925   -9.6246    0.0000 C   0  0  0  0  0  0  0  0  0  0  0  0
    7.4431  -10.0371    0.0000 C   0  0  0  0  0  0  0  0  0  0  0  0
    7.6980  -10.8217    0.0000 C   0  0  0  0  0  0  0  0  0  0  0  0
    8.5230  -10.8217    0.0000 C   0  0  0  0  0  0  0  0  0  0  0  0
    8.7780  -10.0371    0.0000 C   0  0  0  0  0  0  0  0  0  0  0  0
    8.1105   -9.5522    0.0000 O   0  0  0  0  0  0  0  0  0  0  0  0
    3.8708   -7.1496    0.0000 C   0  0  0  0  0  0  0  0  0  0  0  0
   10.2069  -10.0371    0.0000 C   0  0  0  0  0  0  0  0  0  0  0  0
   10.9214   -9.6246    0.0000 C   0  0  0  0  0  0  0  0  0  0  0  0
   11.6359  -10.0371    0.0000 C   0  0  0  0  0  0  0  0  0  0  0  0
  5  1  1  0  0  0  0
  4  2  1  0  0  0  0
  3  8  1  0  0  0  0
  4  3  2  0  0  0  0
  5  4  1  0  0  0  0
  6  5  2  0  0  0  0
  7  6  1  0  0  0  0
  8  7  2  0  0  0  0
  9  8  1  0  0  0  0
 10  9  1  0  0  0  0
 12 10  1  0  0  0  0
 15 11  1  0  0  0  0
 12 16  1  0  0  0  0
 13 12  2  0  0  0  0
 14 13  1  0  0  0  0
 15 14  2  0  0  0  0
 16 15  1  0  0  0  0
  2 17  1  0  0  0  0
 11 18  1  0  0  0  0
 18 19  1  0  0  0  0
 19 20  1  0  0  0  0
M  END
>  <cdx:fragmentId>
5

$$$$
