548894.cdx
  Mrv1902 05222410252D          

 19 18  0  0  0  0            999 V2000
    0.7610   -6.7952    0.0000 C   0  0  0  0  0  0  0  0  0  0  0  0
    1.4755   -6.3827    0.0000 C   0  0  0  0  0  0  0  0  0  0  0  0
    2.1900   -6.7952    0.0000 C   0  0  0  0  0  0  0  0  0  0  0  0
    2.9044   -6.3827    0.0000 C   0  0  0  0  0  0  0  0  0  0  0  0
    3.6189   -6.7952    0.0000 C   0  0  0  0  0  0  0  0  0  0  0  0
    4.3334   -6.3827    0.0000 C   0  0  0  0  0  0  0  0  0  0  0  0
    5.0478   -6.7952    0.0000 C   0  0  0  0  0  0  0  0  0  0  0  0
    5.7623   -6.3827    0.0000 C   0  0  0  0  0  0  0  0  0  0  0  0
    6.4768   -6.7952    0.0000 C   0  0  0  0  0  0  0  0  0  0  0  0
    7.1913   -6.3827    0.0000 C   0  0  0  0  0  0  0  0  0  0  0  0
    7.9057   -6.7952    0.0000 C   0  0  0  0  0  0  0  0  0  0  0  0
    8.6202   -6.3827    0.0000 C   0  0  0  0  0  0  0  0  0  0  0  0
    9.3347   -6.7952    0.0000 C   0  0  0  0  0  0  0  0  0  0  0  0
   10.0491   -6.3827    0.0000 C   0  0  0  0  0  0  0  0  0  0  0  0
   10.7636   -6.7952    0.0000 C   0  0  0  0  0  0  0  0  0  0  0  0
   11.4781   -6.3827    0.0000 C   0  0  0  0  0  0  0  0  0  0  0  0
   12.1926   -6.7952    0.0000 C   0  0  0  0  0  0  0  0  0  0  0  0
   12.9070   -6.3827    0.0000 C   0  0  0  0  0  0  0  0  0  0  0  0
   13.6215   -6.7952    0.0000 C   0  0  0  0  0  0  0  0  0  0  0  0
  1  2  2  0  0  0  0
  2  3  1  0  0  0  0
  3  4  2  0  0  0  0
  4  5  1  0  0  0  0
  5  6  1  0  0  0  0
  6  7  1  0  0  0  0
  7  8  1  0  0  0  0
  8  9  1  0  0  0  0
  9 10  1  0  0  0  0
 10 11  1  0  0  0  0
 11 12  1  0  0  0  0
 12 13  2  0  0  0  0
 13 14  1  0  0  0  0
 14 15  1  0  0  0  0
 15 16  1  0  0  0  0
 16 17  1  0  0  0  0
 17 18  1  0  0  0  0
 18 19  1  0  0  0  0
M  END
>  <cdx:fragmentId>
1149

$$$$
