548912.cdx
  Mrv1902 05222410212D          

 21 23  0  0  0  0            999 V2000
    9.2482   -5.4730    0.0000 C   0  0  0  0  0  0  0  0  0  0  0  0
    9.9627   -5.8855    0.0000 C   0  0  0  0  0  0  0  0  0  0  0  0
   10.7473   -5.6306    0.0000 O   0  0  0  0  0  0  0  0  0  0  0  0
   11.2322   -6.2980    0.0000 C   0  0  0  0  0  0  0  0  0  0  0  0
   10.7473   -6.9655    0.0000 O   0  0  0  0  0  0  0  0  0  0  0  0
    9.9627   -6.7105    0.0000 C   0  0  0  0  0  0  0  0  0  0  0  0
    9.2482   -7.1230    0.0000 C   0  0  0  0  0  0  0  0  0  0  0  0
    8.5337   -6.7105    0.0000 C   0  0  0  0  0  0  0  0  0  0  0  0
    8.5337   -5.8855    0.0000 C   0  0  0  0  0  0  0  0  0  0  0  0
    7.8192   -5.4730    0.0000 C   0  0  0  0  0  0  0  0  0  0  0  0
    7.1048   -5.8855    0.0000 C   0  0  0  0  0  0  0  0  0  0  0  0
    7.1048   -6.7105    0.0000 C   0  0  0  0  0  0  0  0  0  0  0  0
    6.3903   -7.1230    0.0000 C   0  0  0  0  0  0  0  0  0  0  0  0
    4.2468   -6.7105    0.0000 C   0  0  0  0  0  0  0  0  0  0  0  0
    3.5324   -7.1230    0.0000 C   0  0  0  0  0  0  0  0  0  0  0  0
    3.5324   -7.9480    0.0000 C   0  0  0  0  0  0  0  0  0  0  0  0
    4.2468   -8.3605    0.0000 C   0  0  0  0  0  0  0  0  0  0  0  0
    4.9613   -7.9480    0.0000 C   0  0  0  0  0  0  0  0  0  0  0  0
    4.9613   -7.1230    0.0000 N   0  0  0  0  0  0  0  0  0  0  0  0
    5.6758   -6.7105    0.0000 C   0  0  0  0  0  0  0  0  0  0  0  0
    5.6758   -5.8855    0.0000 O   0  0  0  0  0  0  0  0  0  0  0  0
  9  1  2  0  0  0  0
  2  1  1  0  0  0  0
  6  2  2  0  0  0  0
  3  2  1  0  0  0  0
  4  3  1  0  0  0  0
  5  4  1  0  0  0  0
  6  5  1  0  0  0  0
  7  6  1  0  0  0  0
  8  7  2  0  0  0  0
  9  8  1  0  0  0  0
 10  9  1  0  0  0  0
 11 10  2  0  0  0  0
 12 11  1  0  0  0  0
 13 12  2  0  0  0  0
 20 13  1  0  0  0  0
 19 14  1  0  0  0  0
 15 14  1  0  0  0  0
 16 15  1  0  0  0  0
 17 16  1  0  0  0  0
 18 17  1  0  0  0  0
 19 18  1  0  0  0  0
 20 19  1  0  0  0  0
 21 20  2  0  0  0  0
M  END
>  <cdx:fragmentId>
15916

$$$$
