548914.cdx
  Mrv1902 05222410222D          

 21 23  0  0  0  0            999 V2000
   10.2145   -7.9947    0.0000 O   0  0  0  0  0  0  0  0  0  0  0  0
   10.6916   -7.3216    0.0000 C   0  0  0  0  0  0  0  0  0  0  0  0
   10.1989   -6.6599    0.0000 O   0  0  0  0  0  0  0  0  0  0  0  0
    9.4173   -6.9240    0.0000 C   0  0  0  0  0  0  0  0  0  0  0  0
    9.4269   -7.7489    0.0000 C   0  0  0  0  0  0  0  0  0  0  0  0
    8.6980   -6.5198    0.0000 C   0  0  0  0  0  0  0  0  0  0  0  0
    7.9884   -6.9407    0.0000 C   0  0  0  0  0  0  0  0  0  0  0  0
    7.9981   -7.7656    0.0000 C   0  0  0  0  0  0  0  0  0  0  0  0
    8.7173   -8.1697    0.0000 C   0  0  0  0  0  0  0  0  0  0  0  0
    5.1693  -10.2738    0.0000 C   0  0  0  0  0  0  0  0  0  0  0  0
    4.4597  -10.6946    0.0000 C   0  0  0  0  0  0  0  0  0  0  0  0
    3.7405  -10.2905    0.0000 C   0  0  0  0  0  0  0  0  0  0  0  0
    3.7308   -9.4656    0.0000 C   0  0  0  0  0  0  0  0  0  0  0  0
    4.4404   -9.0448    0.0000 C   0  0  0  0  0  0  0  0  0  0  0  0
    5.1597   -9.4489    0.0000 N   0  0  0  0  0  0  0  0  0  0  0  0
    6.5885   -9.4322    0.0000 O   0  0  0  0  0  0  0  0  0  0  0  0
    7.2692   -6.5365    0.0000 C   0  0  0  0  0  0  0  0  0  0  0  0
    6.5596   -6.9574    0.0000 C   0  0  0  0  0  0  0  0  0  0  0  0
    6.5692   -7.7823    0.0000 C   0  0  0  0  0  0  0  0  0  0  0  0
    5.8596   -8.2031    0.0000 C   0  0  0  0  0  0  0  0  0  0  0  0
    5.8693   -9.0281    0.0000 C   0  0  0  0  0  0  0  0  0  0  0  0
 21 15  1  0  0  0  0
 15 10  1  0  0  0  0
 11 10  1  0  0  0  0
 12 11  1  0  0  0  0
 13 12  1  0  0  0  0
 14 13  1  0  0  0  0
 15 14  1  0  0  0  0
 21 16  2  0  0  0  0
 18 17  2  0  0  0  0
 19 18  1  0  0  0  0
 20 19  2  0  0  0  0
 21 20  1  0  0  0  0
  1  2  1  0  0  0  0
  2  3  1  0  0  0  0
  3  4  1  0  0  0  0
  4  5  1  0  0  0  0
  1  5  1  0  0  0  0
  6  7  1  0  0  0  0
  7  8  2  0  0  0  0
  8  9  1  0  0  0  0
  9  5  2  0  0  0  0
  6  4  2  0  0  0  0
 17  7  1  0  0  0  0
M  END
>  <cdx:groupId>
16107

>  <cdx:fragmentId>
16057

$$$$
