548927.cdx
  Mrv1902 05222410232D          

 12 11  0  0  0  0            999 V2000
    5.7351   -6.8681    0.0000 C   0  0  0  0  0  0  0  0  0  0  0  0
    5.7351   -6.0431    0.0000 C   0  0  0  0  0  0  0  0  0  0  0  0
    6.4495   -5.6306    0.0000 C   0  0  0  0  0  0  0  0  0  0  0  0
    7.1640   -6.0431    0.0000 C   0  0  0  0  0  0  0  0  0  0  0  0
    7.8785   -5.6306    0.0000 C   0  0  0  0  0  0  0  0  0  0  0  0
    8.5930   -6.0431    0.0000 C   0  0  0  0  0  0  0  0  0  0  0  0
    9.3074   -5.6306    0.0000 C   0  0  0  0  0  0  0  0  0  0  0  0
   10.0219   -6.0431    0.0000 C   0  0  0  0  0  0  0  0  0  0  0  0
    6.4495   -4.8056    0.0000 O   0  0  0  0  0  0  0  0  0  0  0  0
    9.0055   -6.7576    0.0000 O   0  0  0  0  0  0  0  0  0  0  0  0
    8.1805   -6.7576    0.0000 C   0  0  0  0  0  0  0  0  0  0  0  0
    5.0206   -5.6306    0.0000 C   0  0  0  0  0  0  0  0  0  0  0  0
  1  2  2  0  0  0  0
  2  3  1  0  0  0  0
  3  4  1  0  0  0  0
  4  5  1  0  0  0  0
  5  6  1  0  0  0  0
  6  7  1  0  0  0  0
  7  8  2  0  0  0  0
  3  9  1  0  0  0  0
  6 10  1  0  0  0  0
  6 11  1  0  0  0  0
  2 12  1  0  0  0  0
M  END
>  <cdx:groupId>
1245

>  <cdx:fragmentId>
1213

$$$$
