548913.cdx
  Mrv1902 05222410212D          

 21 23  0  0  0  0            999 V2000
   10.8867   -9.0482    0.0000 O   0  0  0  0  0  0  0  0  0  0  0  0
   11.3655   -8.3764    0.0000 C   0  0  0  0  0  0  0  0  0  0  0  0
   10.8745   -7.7134    0.0000 O   0  0  0  0  0  0  0  0  0  0  0  0
   10.0922   -7.9755    0.0000 C   0  0  0  0  0  0  0  0  0  0  0  0
   10.0997   -8.8004    0.0000 C   0  0  0  0  0  0  0  0  0  0  0  0
    9.3740   -7.5695    0.0000 C   0  0  0  0  0  0  0  0  0  0  0  0
    8.6633   -7.9885    0.0000 C   0  0  0  0  0  0  0  0  0  0  0  0
    8.6709   -8.8135    0.0000 C   0  0  0  0  0  0  0  0  0  0  0  0
    9.3891   -9.2195    0.0000 C   0  0  0  0  0  0  0  0  0  0  0  0
    5.1100  -10.0836    0.0000 C   0  0  0  0  0  0  0  0  0  0  0  0
    4.3993  -10.5026    0.0000 C   0  0  0  0  0  0  0  0  0  0  0  0
    3.6811  -10.0966    0.0000 C   0  0  0  0  0  0  0  0  0  0  0  0
    3.6735   -9.2717    0.0000 C   0  0  0  0  0  0  0  0  0  0  0  0
    4.3842   -8.8527    0.0000 C   0  0  0  0  0  0  0  0  0  0  0  0
    5.1024   -9.2586    0.0000 N   0  0  0  0  0  0  0  0  0  0  0  0
    6.5313   -9.2456    0.0000 O   0  0  0  0  0  0  0  0  0  0  0  0
    7.9451   -7.5826    0.0000 C   0  0  0  0  0  0  0  0  0  0  0  0
    7.2344   -8.0016    0.0000 C   0  0  0  0  0  0  0  0  0  0  0  0
    6.5162   -7.5956    0.0000 C   0  0  0  0  0  0  0  0  0  0  0  0
    5.8056   -8.0146    0.0000 C   0  0  0  0  0  0  0  0  0  0  0  0
    5.8131   -8.8396    0.0000 C   0  0  0  0  0  0  0  0  0  0  0  0
 21 15  1  0  0  0  0
 15 10  1  0  0  0  0
 11 10  1  0  0  0  0
 12 11  1  0  0  0  0
 13 12  1  0  0  0  0
 14 13  1  0  0  0  0
 15 14  1  0  0  0  0
 21 16  2  0  0  0  0
 18 17  2  0  0  0  0
 19 18  1  0  0  0  0
 20 19  2  0  0  0  0
 21 20  1  0  0  0  0
  1  2  1  0  0  0  0
  2  3  1  0  0  0  0
  3  4  1  0  0  0  0
  4  5  1  0  0  0  0
  1  5  1  0  0  0  0
  6  7  1  0  0  0  0
  7  8  2  0  0  0  0
  8  9  1  0  0  0  0
  9  5  2  0  0  0  0
  6  4  2  0  0  0  0
 17  7  1  0  0  0  0
M  END
>  <cdx:groupId>
16034

>  <cdx:fragmentId>
15984

$$$$
