549025.cdx
  Mrv1902 05222410242D          

 14 13  0  0  0  0            999 V2000
    5.4053   -6.1574    0.0000 C   0  0  0  0  0  0  0  0  0  0  0  0
    4.6909   -5.7449    0.0000 C   0  0  0  0  0  0  0  0  0  0  0  0
    6.1198   -5.7449    0.0000 O   0  0  0  0  0  0  0  0  0  0  0  0
    5.4053   -6.9824    0.0000 O   0  0  0  0  0  0  0  0  0  0  0  0
    6.1198   -7.3949    0.0000 C   0  0  0  0  0  0  0  0  0  0  0  0
    6.1198   -8.2199    0.0000 C   0  0  0  0  0  0  0  0  0  0  0  0
    6.8343   -8.6324    0.0000 C   0  0  0  0  0  0  0  0  0  0  0  0
    6.8343   -9.4574    0.0000 C   0  0  0  0  0  0  0  0  0  0  0  0
    7.5488   -8.2199    0.0000 C   0  0  0  0  0  0  0  0  0  0  0  0
    8.2632   -8.6324    0.0000 C   0  0  0  0  0  0  0  0  0  0  0  0
    8.9777   -8.2199    0.0000 C   0  0  0  0  0  0  0  0  0  0  0  0
    9.6922   -8.6324    0.0000 C   0  0  0  0  0  0  0  0  0  0  0  0
   10.4066   -8.2199    0.0000 C   0  0  0  0  0  0  0  0  0  0  0  0
    9.6922   -9.4574    0.0000 C   0  0  0  0  0  0  0  0  0  0  0  0
  1  2  1  0  0  0  0
  1  3  2  0  0  0  0
  1  4  1  0  0  0  0
  5  6  1  0  0  0  0
  6  7  2  0  0  0  0
  7  8  1  0  0  0  0
  7  9  1  0  0  0  0
  9 10  1  0  0  0  0
 10 11  1  0  0  0  0
 11 12  2  0  0  0  0
 12 13  1  0  0  0  0
 12 14  1  0  0  0  0
  4  5  1  0  0  0  0
M  END
>  <cdx:fragmentId>
16396

$$$$
