549060.cdx
  Mrv1902 05222410202D          

  9 10  0  0  0  0            999 V2000
   15.1158   -7.6064    0.0000 C   0  0  0  0  0  0  0  0  0  0  0  0
   15.8303   -8.0189    0.0000 C   0  0  0  0  0  0  0  0  0  0  0  0
   15.8303   -8.8439    0.0000 C   0  0  0  0  0  0  0  0  0  0  0  0
   15.1158   -9.2564    0.0000 C   0  0  0  0  0  0  0  0  0  0  0  0
   14.7746   -8.7413    0.0000 C   0  0  0  0  0  0  0  0  0  0  0  0
   14.7746   -8.1226    0.0000 C   0  0  0  0  0  0  0  0  0  0  0  0
   14.4013   -8.0189    0.0000 C   0  0  0  0  0  0  0  0  0  0  0  0
   14.4013   -8.8439    0.0000 C   0  0  0  0  0  0  0  0  0  0  0  0
   16.5448   -7.6064    0.0000 C   0  0  0  0  0  0  0  0  0  0  0  0
  1  2  1  0  0  0  0
  2  3  1  0  0  0  0
  3  4  1  0  0  0  0
  4  5  1  0  0  0  0
  5  6  1  0  0  0  0
  7  8  1  0  0  0  0
  1  6  1  0  0  0  0
  1  7  1  0  0  0  0
  8  4  1  0  0  0  0
  2  9  1  0  0  0  0
M  END
>  <cdx:groupId>
1277

>  <cdx:fragmentId>
1252

$$$$
