549041.cdx
  Mrv1902 05222410282D          

 12 12  0  0  0  0            999 V2000
    6.2052   -9.6255    0.0000 C   0  0  0  0  0  0  0  0  0  0  0  0
    6.2058   -8.8005    0.0000 O   0  0  0  0  0  0  0  0  0  0  0  0
    9.0656   -6.3278    0.0000 C   0  0  0  0  0  0  0  0  0  0  0  0
    8.3515   -5.9147    0.0000 C   0  0  0  0  0  0  0  0  0  0  0  0
    7.6367   -6.3266    0.0000 C   0  0  0  0  0  0  0  0  0  0  0  0
    7.6341   -9.6266    0.0000 O   0  0  0  0  0  0  0  0  0  0  0  0
    8.3495   -8.3897    0.0000 C   0  0  0  0  0  0  0  0  0  0  0  0
    8.3502   -7.5647    0.0000 C   0  0  0  0  0  0  0  0  0  0  0  0
    7.6360   -7.1516    0.0000 C   0  0  0  0  0  0  0  0  0  0  0  0
    6.9212   -7.5636    0.0000 C   0  0  0  0  0  0  0  0  0  0  0  0
    6.9206   -8.3886    0.0000 C   0  0  0  0  0  0  0  0  0  0  0  0
    7.6347   -8.8016    0.0000 C   0  0  0  0  0  0  0  0  0  0  0  0
 11  2  1  0  0  0  0
  2  1  1  0  0  0  0
  9  5  1  0  0  0  0
  4  3  1  0  0  0  0
  5  4  2  0  0  0  0
 12  6  1  0  0  0  0
 12  7  2  0  0  0  0
  8  7  1  0  0  0  0
  9  8  2  0  0  0  0
 10  9  1  0  0  0  0
 11 10  2  0  0  0  0
 12 11  1  0  0  0  0
M  END
>  <cdx:fragmentId>
3126

$$$$
