549171.cdx
  Mrv1902 05222410212D          

 67 75  0  0  0  0            999 V2000
   10.1026   -7.4327    0.0000 C   0  0  1  0  0  0  0  0  0  0  0  0
    9.3881   -7.8452    0.0000 C   0  0  2  0  0  0  0  0  0  0  0  0
    9.3881   -8.6702    0.0000 C   0  0  0  0  0  0  0  0  0  0  0  0
    8.6736   -9.0827    0.0000 C   0  0  0  0  0  0  0  0  0  0  0  0
    7.9592   -8.6702    0.0000 C   0  0  0  0  0  0  0  0  0  0  0  0
    7.2447   -9.0827    0.0000 C   0  0  0  0  0  0  0  0  0  0  0  0
    6.5302   -8.6702    0.0000 C   0  0  2  0  0  0  0  0  0  0  0  0
    6.5302   -7.8452    0.0000 C   0  0  0  0  0  0  0  0  0  0  0  0
    7.2447   -7.4327    0.0000 C   0  0  0  0  0  0  0  0  0  0  0  0
    7.9592   -7.8452    0.0000 C   0  0  2  0  0  0  0  0  0  0  0  0
    8.6736   -7.4327    0.0000 C   0  0  1  0  0  0  0  0  0  0  0  0
    8.6736   -6.6077    0.0000 C   0  0  0  0  0  0  0  0  0  0  0  0
    9.3881   -6.1952    0.0000 C   0  0  0  0  0  0  0  0  0  0  0  0
   10.1026   -6.6077    0.0000 C   0  0  2  0  0  0  0  0  0  0  0  0
   10.8872   -6.3527    0.0000 C   0  0  1  0  0  0  0  0  0  0  0  0
   11.3721   -5.6853    0.0000 C   0  0  1  0  0  0  0  0  0  0  0  0
   12.1567   -5.9402    0.0000 C   0  0  1  0  0  0  0  0  0  0  0  0
   12.8712   -5.5277    0.0000 C   0  0  0  0  0  0  0  0  0  0  0  0
   13.5857   -5.9402    0.0000 C   0  0  0  0  0  0  0  0  0  0  0  0
   13.5857   -6.7652    0.0000 C   0  0  1  0  0  0  0  0  0  0  0  0
   12.8712   -7.1777    0.0000 C   0  0  0  0  0  0  0  0  0  0  0  0
   12.1567   -6.7652    0.0000 N   0  0  0  0  0  0  0  0  0  0  0  0
   11.3721   -7.0202    0.0000 C   0  0  1  0  0  0  0  0  0  0  0  0
   10.8872   -7.6876    0.0000 C   0  0  0  0  0  0  0  0  0  0  0  0
   14.3001   -7.1777    0.0000 C   0  0  0  0  0  0  0  0  0  0  0  0
   11.1172   -4.9007    0.0000 C   0  0  0  0  0  0  0  0  0  0  0  0
    9.9593   -5.7952    0.0000 C   0  0  0  0  0  0  0  0  0  0  0  0
    7.9592   -7.0202    0.0000 C   0  0  0  0  0  0  0  0  0  0  0  0
   10.1026   -8.2577    0.0000 H   0  0  0  0  0  0  0  0  0  0  0  0
    9.3881   -7.0202    0.0000 H   0  0  0  0  0  0  0  0  0  0  0  0
    8.6736   -8.2577    0.0000 H   0  0  0  0  0  0  0  0  0  0  0  0
   10.5255   -5.6112    0.0000 H   0  0  0  0  0  0  0  0  0  0  0  0
   12.0705   -5.1198    0.0000 H   0  0  0  0  0  0  0  0  0  0  0  0
   11.8570   -7.6876    0.0000 H   0  0  0  0  0  0  0  0  0  0  0  0
    4.1684  -11.9421    0.0000 O   0  0  0  0  0  0  0  0  0  0  0  0
    2.9302  -11.2288    0.0000 O   0  0  0  0  0  0  0  0  0  0  0  0
    3.3421  -10.5139    0.0000 C   0  0  0  0  0  0  0  0  0  0  0  0
    5.8157   -9.0827    0.0000 O   0  0  0  0  0  0  0  0  0  0  0  0
    6.6447  -13.3687    0.0000 O   0  0  0  0  0  0  0  0  0  0  0  0
    5.8210  -14.7984    0.0000 O   0  0  0  0  0  0  0  0  0  0  0  0
    4.1710  -14.8000    0.0000 O   0  0  0  0  0  0  0  0  0  0  0  0
    2.9329  -14.0866    0.0000 O   0  0  0  0  0  0  0  0  0  0  0  0
    3.3447  -13.3718    0.0000 C   0  0  0  0  0  0  0  0  0  0  0  0
    4.1697  -13.3710    0.0000 C   0  0  2  0  0  0  0  0  0  0  0  0
    4.5829  -14.0851    0.0000 C   0  0  2  0  0  0  0  0  0  0  0  0
    5.4079  -14.0844    0.0000 C   0  0  1  0  0  0  0  0  0  0  0  0
    5.8197  -13.3695    0.0000 C   0  0  2  0  0  0  0  0  0  0  0  0
    5.4065  -12.6554    0.0000 C   0  0  1  0  0  0  0  0  0  0  0  0
    4.5815  -12.6562    0.0000 O   0  0  0  0  0  0  0  0  0  0  0  0
    5.8184  -11.9406    0.0000 O   0  0  0  0  0  0  0  0  0  0  0  0
    4.1671  -10.5131    0.0000 C   0  0  2  0  0  0  0  0  0  0  0  0
    4.5802  -11.2272    0.0000 C   0  0  1  0  0  0  0  0  0  0  0  0
    5.4052  -11.2265    0.0000 C   0  0  1  0  0  0  0  0  0  0  0  0
    5.8171  -10.5116    0.0000 C   0  0  2  0  0  0  0  0  0  0  0  0
    5.4039   -9.7975    0.0000 C   0  0  1  0  0  0  0  0  0  0  0  0
    4.5789   -9.7983    0.0000 O   0  0  0  0  0  0  0  0  0  0  0  0
    6.6421  -10.5109    0.0000 O   0  0  0  0  0  0  0  0  0  0  0  0
    7.3569  -10.9227    0.0000 C   0  0  2  0  0  0  0  0  0  0  0  0
    7.3584  -11.7477    0.0000 O   0  0  0  0  0  0  0  0  0  0  0  0
    8.0714  -12.1602    0.0000 C   0  0  2  0  0  0  0  0  0  0  0  0
    8.7859  -11.7477    0.0000 C   0  0  1  0  0  0  0  0  0  0  0  0
    8.7851  -10.9240    0.0000 C   0  0  2  0  0  0  0  0  0  0  0  0
    8.0714  -10.5102    0.0000 C   0  0  1  0  0  0  0  0  0  0  0  0
    9.5005  -12.1599    0.0000 O   0  0  0  0  0  0  0  0  0  0  0  0
    9.4998  -10.5118    0.0000 O   0  0  0  0  0  0  0  0  0  0  0  0
    8.0721   -9.6852    0.0000 O   0  0  0  0  0  0  0  0  0  0  0  0
    8.0710  -12.9852    0.0000 C   0  0  0  0  0  0  0  0  0  0  0  0
 52 35  1  1  0  0  0
 51 37  1  1  0  0  0
 37 36  1  0  0  0  0
 55 38  1  1  0  0  0
 53 50  1  1  0  0  0
 48 50  1  1  0  0  0
 47 39  1  6  0  0  0
 46 40  1  1  0  0  0
 45 41  1  6  0  0  0
 44 43  1  1  0  0  0
 43 42  1  0  0  0  0
 49 44  1  0  0  0  0
 45 44  1  0  0  0  0
 46 45  1  0  0  0  0
 47 46  1  0  0  0  0
 48 47  1  0  0  0  0
 49 48  1  0  0  0  0
 56 51  1  0  0  0  0
 52 51  1  0  0  0  0
 53 52  1  0  0  0  0
 54 53  1  0  0  0  0
 55 54  1  0  0  0  0
 56 55  1  0  0  0  0
  1  2  1  0  0  0  0
  2  3  1  0  0  0  0
  3  4  1  0  0  0  0
  4  5  2  0  0  0  0
  5  6  1  0  0  0  0
  6  7  1  0  0  0  0
  7  8  1  0  0  0  0
  8  9  1  0  0  0  0
  9 10  1  0  0  0  0
 10 11  1  0  0  0  0
 11 12  1  0  0  0  0
 12 13  1  0  0  0  0
 13 14  1  0  0  0  0
 14 15  1  0  0  0  0
 15 16  1  0  0  0  0
 16 17  1  0  0  0  0
 17 18  1  0  0  0  0
 18 19  1  0  0  0  0
 19 20  1  0  0  0  0
 20 21  1  0  0  0  0
 21 22  1  0  0  0  0
 22 23  1  0  0  0  0
 23 24  1  0  0  0  0
  1 24  1  0  0  0  0
  1 14  1  0  0  0  0
 15 23  1  0  0  0  0
 17 22  1  0  0  0  0
  2 11  1  0  0  0  0
  5 10  1  0  0  0  0
 20 25  1  6  0  0  0
 16 26  1  6  0  0  0
 14 27  1  1  0  0  0
 10 28  1  1  0  0  0
  7 38  1  1  0  0  0
  1 29  1  6  0  0  0
  2 30  1  1  0  0  0
 11 31  1  6  0  0  0
 15 32  1  6  0  0  0
 17 33  1  6  0  0  0
 23 34  1  6  0  0  0
 54 57  1  6  0  0  0
 58 57  1  1  0  0  0
 58 59  1  0  0  0  0
 59 60  1  0  0  0  0
 60 61  1  0  0  0  0
 61 62  1  0  0  0  0
 62 63  1  0  0  0  0
 63 58  1  0  0  0  0
 61 64  1  1  0  0  0
 62 65  1  6  0  0  0
 63 66  1  6  0  0  0
 60 67  1  6  0  0  0
M  END
>  <cdx:groupId>
211

>  <cdx:fragmentId>
65

$$$$
