549109.cdx
  Mrv1902 05222410282D          

 16 15  0  0  0  0            999 V2000
   10.3542   -6.3967    0.0000 C   0  0  0  0  0  0  0  0  0  0  0  0
    9.6429   -5.9787    0.0000 C   0  0  0  0  0  0  0  0  0  0  0  0
    8.9253   -6.3856    0.0000 C   0  0  0  0  0  0  0  0  0  0  0  0
    8.9189   -7.2106    0.0000 C   0  0  0  0  0  0  0  0  0  0  0  0
    8.2140   -5.9676    0.0000 C   0  0  0  0  0  0  0  0  0  0  0  0
    7.4964   -6.3745    0.0000 C   0  0  0  0  0  0  0  0  0  0  0  0
    6.7852   -5.9565    0.0000 C   0  0  0  0  0  0  0  0  0  0  0  0
    6.0675   -6.3634    0.0000 C   0  0  0  0  0  0  0  0  0  0  0  0
    5.3563   -5.9453    0.0000 C   0  0  0  0  0  0  0  0  0  0  0  0
    6.0611   -7.1884    0.0000 C   0  0  0  0  0  0  0  0  0  0  0  0
    5.3434   -7.5953    0.0000 C   0  0  0  0  0  0  0  0  0  0  0  0
    5.3370   -8.4203    0.0000 C   0  0  0  0  0  0  0  0  0  0  0  0
    4.6193   -8.8272    0.0000 C   0  0  0  0  0  0  0  0  0  0  0  0
    4.6129   -9.6522    0.0000 C   0  0  0  0  0  0  0  0  0  0  0  0
    3.9081   -8.4092    0.0000 C   0  0  0  0  0  0  0  0  0  0  0  0
   11.0718   -5.9898    0.0000 O   0  0  0  0  0  0  0  0  0  0  0  0
  1  2  1  0  0  0  0
  2  3  2  0  0  0  0
  3  4  1  0  0  0  0
  3  5  1  0  0  0  0
  5  6  1  0  0  0  0
  6  7  1  0  0  0  0
  7  8  2  0  0  0  0
  8  9  1  0  0  0  0
  8 10  1  0  0  0  0
 10 11  1  0  0  0  0
 11 12  1  0  0  0  0
 12 13  2  0  0  0  0
 13 14  1  0  0  0  0
 13 15  1  0  0  0  0
  1 16  1  0  0  0  0
M  END
>  <cdx:fragmentId>
16703

$$$$
