5496.cdx
  Mrv1902 05222410222D          

 17 17  0  0  0  0            999 V2000
    8.0484   -4.7700    0.0000 O   0  0  0  0  0  0  0  0  0  0  0  0
    6.6195   -4.7868    0.0000 O   0  0  0  0  0  0  0  0  0  0  0  0
    7.3388   -5.1909    0.0000 C   0  0  0  0  0  0  0  0  0  0  0  0
    7.3485   -6.0158    0.0000 C   0  0  0  0  0  0  0  0  0  0  0  0
    6.6389   -6.4367    0.0000 C   0  0  0  0  0  0  0  0  0  0  0  0
    5.9778  -10.9823    0.0000 O   0  0  0  0  0  0  0  0  0  0  0  0
    5.2489   -9.7532    0.0000 C   0  0  0  0  0  0  0  0  0  0  0  0
    5.9681  -10.1573    0.0000 C   0  0  0  0  0  0  0  0  0  0  0  0
    6.6777   -9.7364    0.0000 O   0  0  0  0  0  0  0  0  0  0  0  0
    8.1066   -9.7196    0.0000 C   0  0  0  0  0  0  0  0  0  0  0  0
    8.0969   -8.8947    0.0000 O   0  0  0  0  0  0  0  0  0  0  0  0
    5.9487   -8.5074    0.0000 C   0  0  0  0  0  0  0  0  0  0  0  0
    6.6680   -8.9115    0.0000 C   0  0  0  0  0  0  0  0  0  0  0  0
    7.3776   -8.4906    0.0000 C   0  0  0  0  0  0  0  0  0  0  0  0
    7.3679   -7.6657    0.0000 C   0  0  0  0  0  0  0  0  0  0  0  0
    6.6486   -7.2616    0.0000 C   0  0  0  0  0  0  0  0  0  0  0  0
    5.9391   -7.6825    0.0000 C   0  0  0  0  0  0  0  0  0  0  0  0
  3  1  2  0  0  0  0
  3  2  1  0  0  0  0
  4  3  1  0  0  0  0
  5  4  2  0  0  0  0
 16  5  1  0  0  0  0
  8  6  2  0  0  0  0
  8  7  1  0  0  0  0
  9  8  1  0  0  0  0
 13  9  1  0  0  0  0
 11 10  1  0  0  0  0
 14 11  1  0  0  0  0
 12 17  1  0  0  0  0
 13 12  2  0  0  0  0
 14 13  1  0  0  0  0
 15 14  2  0  0  0  0
 16 15  1  0  0  0  0
 17 16  2  0  0  0  0
M  END
>  <cdx:fragmentId>
5

$$$$
