549899.cdx
  Mrv1902 05222410262D          

 11 11  0  0  0  0            999 V2000
    6.5566   -4.4288    0.0000 C   0  0  0  0  0  0  0  0  0  0  0  0
    5.1114   -5.4931    0.0000 C   0  0  0  0  0  0  0  0  0  0  0  0
    6.9826   -6.5206    0.0000 C   0  0  0  0  0  0  0  0  0  0  0  0
    6.1576   -6.5259    0.0000 C   0  0  0  0  0  0  0  0  0  0  0  0
    5.8977   -5.7430    0.0000 C   0  0  0  0  0  0  0  0  0  0  0  0
    6.5620   -5.2538    0.0000 C   0  0  0  0  0  0  0  0  0  0  0  0
    7.2325   -5.7344    0.0000 C   0  0  0  0  0  0  0  0  0  0  0  0
    9.4151   -5.7625    0.0000 O   0  0  0  0  0  0  0  0  0  0  0  0
    8.1818   -4.6663    0.0000 C   0  0  0  0  0  0  0  0  0  0  0  0
    8.0155   -5.4744    0.0000 C   0  0  0  0  0  0  0  0  0  0  0  0
    8.6321   -6.0225    0.0000 C   0  0  0  0  0  0  0  0  0  0  0  0
 10  7  1  0  0  0  0
  6  1  1  0  0  0  0
  5  2  1  0  0  0  0
  7  3  1  0  0  0  0
  4  3  1  0  0  0  0
  5  4  1  0  0  0  0
  6  5  1  0  0  0  0
  7  6  1  0  0  0  0
 11  8  1  0  0  0  0
 10  9  1  0  0  0  0
 11 10  1  0  0  0  0
M  END
>  <cdx:fragmentId>
1464

$$$$
