549992.cdx
  Mrv1902 05222410212D          

 12 11  0  0  0  0            999 V2000
    9.2107   -6.6956    0.0000 C   0  0  0  0  0  0  0  0  0  0  0  0
    8.4962   -6.2831    0.0000 C   0  0  0  0  0  0  0  0  0  0  0  0
    7.7818   -6.6956    0.0000 C   0  0  0  0  0  0  0  0  0  0  0  0
    7.0673   -6.2831    0.0000 C   0  0  0  0  0  0  0  0  0  0  0  0
    6.3528   -6.6956    0.0000 C   0  0  0  0  0  0  0  0  0  0  0  0
    5.6383   -6.2831    0.0000 C   0  0  0  0  0  0  0  0  0  0  0  0
    4.9239   -6.6956    0.0000 C   0  0  0  0  0  0  0  0  0  0  0  0
    9.9252   -6.2831    0.0000 O   0  0  0  0  0  0  0  0  0  0  0  0
    7.0673   -5.4581    0.0000 C   0  0  0  0  0  0  0  0  0  0  0  0
    6.3528   -5.0456    0.0000 C   0  0  0  0  0  0  0  0  0  0  0  0
    8.4962   -5.4581    0.0000 C   0  0  0  0  0  0  0  0  0  0  0  0
    9.2107   -5.0456    0.0000 C   0  0  0  0  0  0  0  0  0  0  0  0
  1  2  1  0  0  0  0
  2  3  1  0  0  0  0
  3  4  1  0  0  0  0
  4  5  1  0  0  0  0
  5  6  1  0  0  0  0
  6  7  1  0  0  0  0
  1  8  1  0  0  0  0
  9 10  1  0  0  0  0
  4  9  1  0  0  0  0
 11 12  1  0  0  0  0
  2 11  1  0  0  0  0
M  END
>  <cdx:groupId>
1525

>  <cdx:fragmentId>
1493

$$$$
