549996.cdx
  Mrv1902 05222410222D          

 12 11  0  0  0  0            999 V2000
   17.6551   -9.0403    0.0000 C   0  0  0  0  0  0  0  0  0  0  0  0
   16.9406   -8.6278    0.0000 C   0  0  0  0  0  0  0  0  0  0  0  0
   16.2262   -9.0403    0.0000 C   0  0  0  0  0  0  0  0  0  0  0  0
   15.5117   -8.6278    0.0000 C   0  0  0  0  0  0  0  0  0  0  0  0
   14.7972   -9.0403    0.0000 C   0  0  0  0  0  0  0  0  0  0  0  0
   14.0828   -8.6278    0.0000 C   0  0  0  0  0  0  0  0  0  0  0  0
   13.3683   -9.0403    0.0000 C   0  0  0  0  0  0  0  0  0  0  0  0
   12.6538   -8.6278    0.0000 C   0  0  0  0  0  0  0  0  0  0  0  0
   11.9393   -9.0403    0.0000 C   0  0  0  0  0  0  0  0  0  0  0  0
   18.3696   -8.6278    0.0000 O   0  0  0  0  0  0  0  0  0  0  0  0
   12.6538   -7.8028    0.0000 C   0  0  0  0  0  0  0  0  0  0  0  0
   15.5117   -7.8028    0.0000 C   0  0  0  0  0  0  0  0  0  0  0  0
  1  2  1  0  0  0  0
  2  3  1  0  0  0  0
  3  4  1  0  0  0  0
  4  5  1  0  0  0  0
  5  6  1  0  0  0  0
  6  7  1  0  0  0  0
  7  8  1  0  0  0  0
  8  9  1  0  0  0  0
  1 10  1  0  0  0  0
  8 11  1  0  0  0  0
  4 12  1  0  0  0  0
M  END
>  <cdx:groupId>
1564

>  <cdx:fragmentId>
1532

$$$$
