55.cdx
  Mrv1902 05222410252D          

 35 39  0  0  0  0            999 V2000
    4.1104   -8.9149    0.0000 C   0  0  0  0  0  0  0  0  0  0  0  0
    4.1104   -9.7399    0.0000 C   0  0  1  0  0  0  0  0  0  0  0  0
    4.8249  -10.1524    0.0000 C   0  0  0  0  0  0  0  0  0  0  0  0
    5.5393   -9.7399    0.0000 C   0  0  2  0  0  0  0  0  0  0  0  0
    5.5393   -8.9149    0.0000 C   0  0  2  0  0  0  0  0  0  0  0  0
    4.8249   -8.5024    0.0000 C   0  0  1  0  0  0  0  0  0  0  0  0
    6.2538  -10.1524    0.0000 C   0  0  0  0  0  0  0  0  0  0  0  0
    6.9683   -9.7399    0.0000 C   0  0  0  0  0  0  0  0  0  0  0  0
    6.9683   -8.9149    0.0000 C   0  0  2  0  0  0  0  0  0  0  0  0
    6.2538   -8.5024    0.0000 C   0  0  2  0  0  0  0  0  0  0  0  0
    7.6827   -8.5024    0.0000 C   0  0  2  0  0  0  0  0  0  0  0  0
    7.6827   -7.6774    0.0000 C   0  0  2  0  0  0  0  0  0  0  0  0
    6.9683   -7.2649    0.0000 C   0  0  1  0  0  0  0  0  0  0  0  0
    6.2538   -7.6774    0.0000 C   0  0  0  0  0  0  0  0  0  0  0  0
    8.4674   -8.7573    0.0000 C   0  0  0  0  0  0  0  0  0  0  0  0
    8.9523   -8.0899    0.0000 C   0  0  2  0  0  0  0  0  0  0  0  0
    8.4674   -7.4225    0.0000 C   0  0  2  0  0  0  0  0  0  0  0  0
    8.7223   -6.6378    0.0000 C   0  0  0  0  0  0  0  0  0  0  0  0
    9.5293   -6.4663    0.0000 C   0  0  0  0  0  0  0  0  0  0  0  0
    8.1703   -6.0247    0.0000 C   0  0  0  0  0  0  0  0  0  0  0  0
    9.7842   -5.6817    0.0000 C   0  0  0  0  0  0  0  0  0  0  0  0
    8.4252   -5.2401    0.0000 O   0  0  0  0  0  0  0  0  0  0  0  0
    9.2322   -5.0686    0.0000 C   0  0  0  0  0  0  0  0  0  0  0  0
    9.4871   -4.2840    0.0000 O   0  0  0  0  0  0  0  0  0  0  0  0
    3.3959  -10.1524    0.0000 O   0  0  0  0  0  0  0  0  0  0  0  0
    5.5393   -8.0899    0.0000 C   0  0  0  0  0  0  0  0  0  0  0  0
    5.5393  -10.5649    0.0000 H   0  0  0  0  0  0  0  0  0  0  0  0
    6.9683   -6.4399    0.0000 O   0  0  0  0  0  0  0  0  0  0  0  0
    7.7690   -6.8569    0.0000 C   0  0  0  0  0  0  0  0  0  0  0  0
    9.7773   -8.0899    0.0000 H   0  0  0  0  0  0  0  0  0  0  0  0
    7.7690   -9.3229    0.0000 O   0  0  0  0  0  0  0  0  0  0  0  0
    5.5393   -7.2649    0.0000 O   0  0  0  0  0  0  0  0  0  0  0  0
    4.8249   -7.6774    0.0000 H   0  0  0  0  0  0  0  0  0  0  0  0
    6.2538   -9.3274    0.0000 H   0  0  0  0  0  0  0  0  0  0  0  0
    6.9683   -8.0899    0.0000 H   0  0  0  0  0  0  0  0  0  0  0  0
  1  2  1  0  0  0  0
  2  3  1  0  0  0  0
  3  4  1  0  0  0  0
  4  5  1  0  0  0  0
  5  6  1  0  0  0  0
  6  1  1  0  0  0  0
  4  7  1  0  0  0  0
  7  8  1  0  0  0  0
  8  9  1  0  0  0  0
  9 10  1  0  0  0  0
 10  5  1  0  0  0  0
  9 11  1  0  0  0  0
 11 12  1  0  0  0  0
 12 13  1  0  0  0  0
 13 14  1  0  0  0  0
 14 10  1  0  0  0  0
 11 15  1  0  0  0  0
 15 16  1  0  0  0  0
 16 17  1  0  0  0  0
 17 12  1  0  0  0  0
 17 18  1  1  0  0  0
 18 19  1  0  0  0  0
 18 20  2  0  0  0  0
 19 21  2  0  0  0  0
 20 22  1  0  0  0  0
 21 23  1  0  0  0  0
 22 23  1  0  0  0  0
 23 24  2  0  0  0  0
  2 25  1  1  0  0  0
  5 26  1  1  0  0  0
  4 27  1  1  0  0  0
 12 29  1  1  0  0  0
 16 30  1  1  0  0  0
 11 31  1  1  0  0  0
 14 32  2  0  0  0  0
 13 28  1  1  0  0  0
  6 33  1  1  0  0  0
 10 34  1  6  0  0  0
  9 35  1  1  0  0  0
M  END
>  <cdx:fragmentId>
5

$$$$
