550119.cdx
  Mrv1902 05222410182D          

 16 16  0  0  0  0            999 V2000
    6.1579   -7.9939    0.0000 O   0  0  0  0  0  0  0  0  0  0  0  0
    6.7412   -7.4106    0.0000 C   0  0  0  0  0  0  0  0  0  0  0  0
    6.1579   -6.8272    0.0000 C   0  0  0  0  0  0  0  0  0  0  0  0
    5.5745   -7.4106    0.0000 C   0  0  0  0  0  0  0  0  0  0  0  0
    7.4557   -6.9981    0.0000 C   0  0  0  0  0  0  0  0  0  0  0  0
    8.1702   -7.4106    0.0000 C   0  0  0  0  0  0  0  0  0  0  0  0
    8.8846   -6.9981    0.0000 C   0  0  0  0  0  0  0  0  0  0  0  0
    9.5991   -7.4106    0.0000 C   0  0  0  0  0  0  0  0  0  0  0  0
   10.3136   -6.9981    0.0000 C   0  0  0  0  0  0  0  0  0  0  0  0
    9.5991   -8.2356    0.0000 C   0  0  0  0  0  0  0  0  0  0  0  0
    6.1579   -6.0022    0.0000 C   0  0  0  0  0  0  0  0  0  0  0  0
    5.4434   -5.5897    0.0000 C   0  0  0  0  0  0  0  0  0  0  0  0
    5.4434   -4.7647    0.0000 C   0  0  0  0  0  0  0  0  0  0  0  0
    6.1579   -4.3522    0.0000 C   0  0  0  0  0  0  0  0  0  0  0  0
    4.7289   -4.3522    0.0000 C   0  0  0  0  0  0  0  0  0  0  0  0
    7.4557   -7.8231    0.0000 C   0  0  0  0  0  0  0  0  0  0  0  0
  1  2  1  0  0  0  0
  2  3  1  0  0  0  0
  3  4  1  0  0  0  0
  1  4  1  0  0  0  0
  5  6  1  0  0  0  0
  6  7  1  0  0  0  0
  7  8  2  0  0  0  0
  8  9  1  0  0  0  0
  8 10  1  0  0  0  0
  2  5  1  0  0  0  0
 11 12  1  0  0  0  0
 12 13  2  0  0  0  0
 13 14  1  0  0  0  0
 13 15  1  0  0  0  0
  3 11  1  0  0  0  0
  2 16  1  0  0  0  0
M  END
>  <cdx:fragmentId>
1614

$$$$
