550234.cdx
  Mrv1902 05222410222D          

 27 29  0  0  0  0            999 V2000
    7.4938   -5.8878    0.0000 O   0  0  0  0  0  0  0  0  0  0  0  0
    6.7793   -7.9503    0.0000 C   0  0  0  0  0  0  0  0  0  0  0  0
    6.7793   -7.1253    0.0000 C   0  0  0  0  0  0  0  0  0  0  0  0
    7.4938   -6.7128    0.0000 C   0  0  0  0  0  0  0  0  0  0  0  0
    8.2082   -7.1253    0.0000 C   0  0  0  0  0  0  0  0  0  0  0  0
    8.2082   -7.9503    0.0000 C   0  0  0  0  0  0  0  0  0  0  0  0
    7.4938   -8.3628    0.0000 C   0  0  0  0  0  0  0  0  0  0  0  0
    9.6372   -7.1253    0.0000 C   0  0  0  0  0  0  0  0  0  0  0  0
   10.3516   -6.7128    0.0000 C   0  0  0  0  0  0  0  0  0  0  0  0
   11.0661   -7.1253    0.0000 C   0  0  0  0  0  0  0  0  0  0  0  0
   11.0661   -7.9503    0.0000 C   0  0  0  0  0  0  0  0  0  0  0  0
   10.3516   -8.3628    0.0000 C   0  0  0  0  0  0  0  0  0  0  0  0
    9.6372   -7.9503    0.0000 C   0  0  0  0  0  0  0  0  0  0  0  0
    5.3503   -7.1253    0.0000 C   0  0  0  0  0  0  0  0  0  0  0  0
    4.6359   -6.7128    0.0000 C   0  0  0  0  0  0  0  0  0  0  0  0
    3.9214   -7.1253    0.0000 C   0  0  0  0  0  0  0  0  0  0  0  0
    3.9214   -7.9503    0.0000 C   0  0  0  0  0  0  0  0  0  0  0  0
    4.6359   -8.3628    0.0000 C   0  0  0  0  0  0  0  0  0  0  0  0
    5.3503   -7.9503    0.0000 C   0  0  0  0  0  0  0  0  0  0  0  0
    3.2069   -8.3628    0.0000 O   0  0  0  0  0  0  0  0  0  0  0  0
    3.2069   -6.7128    0.0000 O   0  0  0  0  0  0  0  0  0  0  0  0
    2.4925   -7.1253    0.0000 C   0  0  0  0  0  0  0  0  0  0  0  0
    6.0648   -6.7128    0.0000 C   0  0  0  0  0  0  0  0  0  0  0  0
    8.9227   -6.7128    0.0000 C   0  0  0  0  0  0  0  0  0  0  0  0
   11.7806   -6.7128    0.0000 O   0  0  0  0  0  0  0  0  0  0  0  0
   12.4950   -7.1253    0.0000 C   0  0  0  0  0  0  0  0  0  0  0  0
   11.7806   -8.3628    0.0000 O   0  0  0  0  0  0  0  0  0  0  0  0
  1  4  2  0  0  0  0
  2  3  1  0  0  0  0
  2  7  1  0  0  0  0
  3  4  1  0  0  0  0
  3 23  2  0  0  0  0
  4  5  1  0  0  0  0
  5  6  1  0  0  0  0
  5 24  2  0  0  0  0
  6  7  1  0  0  0  0
  8  9  2  0  0  0  0
  8 13  1  0  0  0  0
  8 24  1  0  0  0  0
  9 10  1  0  0  0  0
 10 11  2  0  0  0  0
 10 25  1  0  0  0  0
 11 12  1  0  0  0  0
 11 27  1  0  0  0  0
 12 13  2  0  0  0  0
 14 15  2  0  0  0  0
 14 19  1  0  0  0  0
 14 23  1  0  0  0  0
 15 16  1  0  0  0  0
 16 17  2  0  0  0  0
 16 21  1  0  0  0  0
 17 18  1  0  0  0  0
 17 20  1  0  0  0  0
 18 19  2  0  0  0  0
 21 22  1  0  0  0  0
 25 26  1  0  0  0  0
M  END
>  <cdx:fragmentId>
16838

$$$$
