14550385.cdx
  Mrv1902 05222410212D          

 26 29  0  0  0  0            999 V2000
    3.9779  -15.1054    0.0000 C   0  0  0  0  0  0  0  0  0  0  0  0
    3.9779  -14.2804    0.0000 C   0  0  0  0  0  0  0  0  0  0  0  0
    4.6923  -13.8679    0.0000 C   0  0  0  0  0  0  0  0  0  0  0  0
    5.4068  -14.2804    0.0000 C   0  0  0  0  0  0  0  0  0  0  0  0
    6.1213  -13.8679    0.0000 C   0  0  0  0  0  0  0  0  0  0  0  0
    6.8357  -14.2804    0.0000 C   0  0  0  0  0  0  0  0  0  0  0  0
    6.8357  -15.1054    0.0000 C   0  0  0  0  0  0  0  0  0  0  0  0
    6.1213  -15.5179    0.0000 C   0  0  0  0  0  0  0  0  0  0  0  0
    5.4068  -15.1054    0.0000 C   0  0  0  0  0  0  0  0  0  0  0  0
    4.6923  -15.5179    0.0000 O   0  0  0  0  0  0  0  0  0  0  0  0
    7.5502  -13.8679    0.0000 C   0  0  0  0  0  0  0  0  0  0  0  0
    8.2647  -14.2804    0.0000 C   0  0  0  0  0  0  0  0  0  0  0  0
    8.2647  -15.1054    0.0000 C   0  0  0  0  0  0  0  0  0  0  0  0
    7.5502  -15.5179    0.0000 O   0  0  0  0  0  0  0  0  0  0  0  0
    7.5502  -13.0429    0.0000 O   0  0  0  0  0  0  0  0  0  0  0  0
    3.5654  -15.8199    0.0000 C   0  0  0  0  0  0  0  0  0  0  0  0
    3.1529  -15.1054    0.0000 C   0  0  0  0  0  0  0  0  0  0  0  0
    6.1213  -13.0429    0.0000 O   0  0  0  0  0  0  0  0  0  0  0  0
    8.9792  -13.8679    0.0000 C   0  0  0  0  0  0  0  0  0  0  0  0
    8.9792  -13.0429    0.0000 C   0  0  0  0  0  0  0  0  0  0  0  0
    9.6936  -12.6304    0.0000 C   0  0  0  0  0  0  0  0  0  0  0  0
   10.4081  -13.0429    0.0000 C   0  0  0  0  0  0  0  0  0  0  0  0
   10.4081  -13.8679    0.0000 C   0  0  0  0  0  0  0  0  0  0  0  0
    9.6936  -14.2804    0.0000 C   0  0  0  0  0  0  0  0  0  0  0  0
   11.1226  -12.6304    0.0000 O   0  0  0  0  0  0  0  0  0  0  0  0
    9.6936  -15.1054    0.0000 O   0  0  0  0  0  0  0  0  0  0  0  0
  1  2  1  0  0  0  0
  2  3  2  0  0  0  0
  3  4  1  0  0  0  0
  4  5  1  0  0  0  0
  5  6  2  0  0  0  0
  6  7  1  0  0  0  0
  7  8  2  0  0  0  0
  8  9  1  0  0  0  0
  4  9  2  0  0  0  0
  9 10  1  0  0  0  0
  1 10  1  0  0  0  0
 11 12  1  0  0  0  0
 12 13  2  0  0  0  0
 13 14  1  0  0  0  0
 11  6  1  0  0  0  0
 14  7  1  0  0  0  0
 11 15  2  0  0  0  0
  1 16  1  0  0  0  0
  1 17  1  0  0  0  0
  5 18  1  0  0  0  0
 19 20  1  0  0  0  0
 20 21  2  0  0  0  0
 21 22  1  0  0  0  0
 22 23  2  0  0  0  0
 23 24  1  0  0  0  0
 19 24  2  0  0  0  0
 22 25  1  0  0  0  0
 12 19  1  0  0  0  0
 24 26  1  0  0  0  0
M  END
>  <cdx:fragmentId>
106286

$$$$
