551084.cdx
  Mrv1902 05222410232D          

 11 11  0  0  0  0            999 V2000
    6.9950   -4.2144    0.0000 C   0  0  0  0  0  0  0  0  0  0  0  0
    7.7107   -4.6248    0.0000 C   0  0  0  0  0  0  0  0  0  0  0  0
    7.7131   -5.4498    0.0000 C   0  0  0  0  0  0  0  0  0  0  0  0
    6.9998   -5.8644    0.0000 C   0  0  0  0  0  0  0  0  0  0  0  0
    6.2842   -5.4540    0.0000 C   0  0  0  0  0  0  0  0  0  0  0  0
    6.2818   -4.6290    0.0000 C   0  0  0  0  0  0  0  0  0  0  0  0
    5.8737   -6.1696    0.0000 C   0  0  0  0  0  0  0  0  0  0  0  0
    5.4592   -5.4564    0.0000 C   0  0  0  0  0  0  0  0  0  0  0  0
    8.4288   -5.8602    0.0000 C   0  0  0  0  0  0  0  0  0  0  0  0
    8.4240   -4.2102    0.0000 O   0  0  0  0  0  0  0  0  0  0  0  0
    6.9926   -3.3894    0.0000 O   0  0  0  0  0  0  0  0  0  0  0  0
  1  2  1  0  0  0  0
  2  3  2  0  0  0  0
  3  4  1  0  0  0  0
  4  5  1  0  0  0  0
  5  6  1  0  0  0  0
  1  6  1  0  0  0  0
  5  7  1  0  0  0  0
  5  8  1  0  0  0  0
  3  9  1  0  0  0  0
  2 10  1  0  0  0  0
  1 11  2  0  0  0  0
M  END
>  <cdx:groupId>
1727

>  <cdx:fragmentId>
1697

$$$$
