551282.cdx
  Mrv1902 05222410252D          

 21 20  0  0  0  0            999 V2000
    2.7392   -7.2351    0.0000 C   0  0  0  0  0  0  0  0  0  0  0  0
    4.5806   -7.3456    0.0000 C   0  0  0  0  0  0  0  0  0  0  0  0
    8.8674   -7.3456    0.0000 C   0  0  0  0  0  0  0  0  0  0  0  0
   11.7253   -7.3456    0.0000 C   0  0  0  0  0  0  0  0  0  0  0  0
    3.5642   -7.2351    0.0000 O   0  0  0  0  0  0  0  0  0  0  0  0
   12.4398   -6.1081    0.0000 C   0  0  0  0  0  0  0  0  0  0  0  0
   11.7253   -6.5206    0.0000 C   0  0  0  0  0  0  0  0  0  0  0  0
   11.0108   -6.1081    0.0000 C   0  0  0  0  0  0  0  0  0  0  0  0
   10.2964   -6.5206    0.0000 C   0  0  0  0  0  0  0  0  0  0  0  0
    9.5819   -6.1081    0.0000 C   0  0  0  0  0  0  0  0  0  0  0  0
    8.8674   -6.5206    0.0000 C   0  0  0  0  0  0  0  0  0  0  0  0
    8.1530   -6.1081    0.0000 C   0  0  0  0  0  0  0  0  0  0  0  0
    7.4385   -6.5206    0.0000 C   0  0  0  0  0  0  0  0  0  0  0  0
    6.7240   -6.1081    0.0000 C   0  0  0  0  0  0  0  0  0  0  0  0
    6.0095   -6.5206    0.0000 C   0  0  0  0  0  0  0  0  0  0  0  0
    5.2951   -6.1081    0.0000 C   0  0  0  0  0  0  0  0  0  0  0  0
    4.5806   -6.5206    0.0000 C   0  0  0  0  0  0  0  0  0  0  0  0
    3.8661   -6.1081    0.0000 C   0  0  0  0  0  0  0  0  0  0  0  0
    3.1517   -6.5206    0.0000 C   0  0  0  0  0  0  0  0  0  0  0  0
    2.4372   -6.1081    0.0000 C   0  0  0  0  0  0  0  0  0  0  0  0
    1.7227   -6.5206    0.0000 C   0  0  0  0  0  0  0  0  0  0  0  0
 19  1  1  0  0  0  0
 17  2  1  0  0  0  0
 11  3  1  0  0  0  0
  7  4  1  0  0  0  0
 19  5  1  0  0  0  0
  7  6  1  0  0  0  0
  8  7  1  0  0  0  0
  9  8  1  0  0  0  0
 10  9  1  0  0  0  0
 11 10  1  0  0  0  0
 12 11  1  0  0  0  0
 13 12  1  0  0  0  0
 14 13  1  0  0  0  0
 15 14  1  0  0  0  0
 16 15  1  0  0  0  0
 17 16  1  0  0  0  0
 18 17  1  0  0  0  0
 19 18  1  0  0  0  0
 20 19  1  0  0  0  0
 21 20  2  0  0  0  0
M  END
>  <cdx:fragmentId>
1733

$$$$
