1551479.cdx
  Mrv1902 05222410252D          

 19 18  0  0  0  0            999 V2000
   18.3266  -10.9981    0.0000 C   0  0  0  0  0  0  0  0  0  0  0  0
   19.0411  -11.4106    0.0000 C   0  0  0  0  0  0  0  0  0  0  0  0
   17.6122  -11.4106    0.0000 O   0  0  0  0  0  0  0  0  0  0  0  0
   18.3266  -10.1731    0.0000 O   0  0  0  0  0  0  0  0  0  0  0  0
   17.6122   -9.7606    0.0000 C   0  0  0  0  0  0  0  0  0  0  0  0
   17.6122   -8.9356    0.0000 C   0  0  0  0  0  0  0  0  0  0  0  0
   16.8977   -8.5231    0.0000 C   0  0  0  0  0  0  0  0  0  0  0  0
   16.1832   -8.9356    0.0000 C   0  0  0  0  0  0  0  0  0  0  0  0
   15.4688   -8.5231    0.0000 C   0  0  0  0  0  0  0  0  0  0  0  0
   14.7543   -8.9356    0.0000 C   0  0  0  0  0  0  0  0  0  0  0  0
   14.0398   -8.5231    0.0000 C   0  0  0  0  0  0  0  0  0  0  0  0
   14.0398   -7.6981    0.0000 C   0  0  0  0  0  0  0  0  0  0  0  0
   13.3253   -7.2856    0.0000 C   0  0  0  0  0  0  0  0  0  0  0  0
   13.3253   -6.4606    0.0000 C   0  0  0  0  0  0  0  0  0  0  0  0
   12.6109   -6.0481    0.0000 C   0  0  0  0  0  0  0  0  0  0  0  0
   11.8964   -6.4606    0.0000 C   0  0  0  0  0  0  0  0  0  0  0  0
   12.6109   -5.2231    0.0000 C   0  0  0  0  0  0  0  0  0  0  0  0
   13.3253   -8.9356    0.0000 C   0  0  0  0  0  0  0  0  0  0  0  0
   16.8977   -7.6981    0.0000 C   0  0  0  0  0  0  0  0  0  0  0  0
  1  2  1  0  0  0  0
  1  3  2  0  0  0  0
  1  4  1  0  0  0  0
  5  6  1  0  0  0  0
  6  7  2  0  0  0  0
  7  8  1  0  0  0  0
  8  9  1  0  0  0  0
  9 10  1  0  0  0  0
 10 11  2  0  0  0  0
 11 12  1  0  0  0  0
 12 13  1  0  0  0  0
 13 14  1  0  0  0  0
 14 15  2  0  0  0  0
 15 16  1  0  0  0  0
 15 17  1  0  0  0  0
 11 18  1  0  0  0  0
  7 19  1  0  0  0  0
  4  5  1  0  0  0  0
M  END
>  <cdx:groupId>
17006

>  <cdx:fragmentId>
16961

$$$$
