5514.cdx
  Mrv1902 05222410242D          

 31 34  0  0  0  0            999 V2000
    7.7589   -7.3743    0.0000 C   0  0  1  0  0  0  0  0  0  0  0  0
    8.4695   -7.7935    0.0000 C   0  0  2  0  0  0  0  0  0  0  0  0
    9.1878   -7.3876    0.0000 O   0  0  0  0  0  0  0  0  0  0  0  0
    8.4618   -8.6184    0.0000 C   0  0  1  0  0  0  0  0  0  0  0  0
    9.1724   -9.0376    0.0000 O   0  0  0  0  0  0  0  0  0  0  0  0
    7.7436   -9.0243    0.0000 C   0  0  2  0  0  0  0  0  0  0  0  0
    7.7359   -9.8492    0.0000 O   0  0  0  0  0  0  0  0  0  0  0  0
    7.0330   -8.6051    0.0000 C   0  0  2  0  0  0  0  0  0  0  0  0
    7.0406   -7.7802    0.0000 O   0  0  0  0  0  0  0  0  0  0  0  0
    6.3147   -9.0110    0.0000 C   0  0  0  0  0  0  0  0  0  0  0  0
    6.3070   -9.8359    0.0000 O   0  0  0  0  0  0  0  0  0  0  0  0
    7.7896   -4.0745    0.0000 O   0  0  0  0  0  0  0  0  0  0  0  0
    9.1955   -6.5627    0.0000 O   0  0  0  0  0  0  0  0  0  0  0  0
    3.4800   -6.5095    0.0000 O   0  0  0  0  0  0  0  0  0  0  0  0
    3.5030   -4.0346    0.0000 C   0  0  0  0  0  0  0  0  0  0  0  0
    3.4953   -4.8595    0.0000 O   0  0  0  0  0  0  0  0  0  0  0  0
    6.3608   -4.0612    0.0000 O   0  0  0  0  0  0  0  0  0  0  0  0
    5.6348   -5.2920    0.0000 C   0  0  0  0  0  0  0  0  0  0  0  0
    4.9242   -4.8728    0.0000 C   0  0  0  0  0  0  0  0  0  0  0  0
    4.2059   -5.2787    0.0000 C   0  0  0  0  0  0  0  0  0  0  0  0
    4.1982   -6.1036    0.0000 C   0  0  0  0  0  0  0  0  0  0  0  0
    4.9088   -6.5228    0.0000 C   0  0  0  0  0  0  0  0  0  0  0  0
    5.6271   -6.1169    0.0000 C   0  0  0  0  0  0  0  0  0  0  0  0
    6.3377   -6.5361    0.0000 O   0  0  0  0  0  0  0  0  0  0  0  0
    7.0560   -6.1302    0.0000 C   0  0  0  0  0  0  0  0  0  0  0  0
    7.7666   -6.5494    0.0000 C   0  0  0  0  0  0  0  0  0  0  0  0
    8.4849   -6.1435    0.0000 C   0  0  0  0  0  0  0  0  0  0  0  0
    8.4926   -5.3186    0.0000 C   0  0  0  0  0  0  0  0  0  0  0  0
    7.7820   -4.8994    0.0000 C   0  0  0  0  0  0  0  0  0  0  0  0
    7.0637   -5.3053    0.0000 C   0  0  0  0  0  0  0  0  0  0  0  0
    6.3531   -4.8861    0.0000 C   0  0  0  0  0  0  0  0  0  0  0  0
  1 26  1  1  0  0  0
  1  2  1  0  0  0  0
 29 12  1  0  0  0  0
 27 13  1  0  0  0  0
 21 14  1  0  0  0  0
 20 16  1  0  0  0  0
 16 15  1  0  0  0  0
 31 17  2  0  0  0  0
 31 18  1  0  0  0  0
 23 18  2  0  0  0  0
 19 18  1  0  0  0  0
 20 19  2  0  0  0  0
 21 20  1  0  0  0  0
 22 21  2  0  0  0  0
 23 22  1  0  0  0  0
 24 23  1  0  0  0  0
 25 24  1  0  0  0  0
 30 25  2  0  0  0  0
 26 25  1  0  0  0  0
 27 26  2  0  0  0  0
 28 27  1  0  0  0  0
 29 28  2  0  0  0  0
 30 29  1  0  0  0  0
 31 30  1  0  0  0  0
  2  3  1  6  0  0  0
  2  4  1  0  0  0  0
  4  5  1  1  0  0  0
  4  6  1  0  0  0  0
  6  7  1  6  0  0  0
  6  8  1  0  0  0  0
  8  9  1  0  0  0  0
  8 10  1  1  0  0  0
 10 11  1  0  0  0  0
  1  9  1  0  0  0  0
M  END
>  <cdx:fragmentId>
5

$$$$
