551521.cdx
  Mrv1902 05222410242D          

 22 22  0  0  0  0            999 V2000
    6.9244  -10.0075    0.0000 C   0  0  0  0  0  0  0  0  0  0  0  0
    8.3533  -10.0075    0.0000 O   0  0  0  0  0  0  0  0  0  0  0  0
    9.0678   -8.7700    0.0000 O   0  0  0  0  0  0  0  0  0  0  0  0
    6.9244   -9.1825    0.0000 C   0  0  1  0  0  0  0  0  0  0  0  0
    5.4954  -10.0075    0.0000 O   0  0  0  0  0  0  0  0  0  0  0  0
    6.2099   -8.7700    0.0000 O   0  0  0  0  0  0  0  0  0  0  0  0
    5.4954   -9.1825    0.0000 C   0  0  0  0  0  0  0  0  0  0  0  0
    4.7809   -8.7700    0.0000 C   0  0  0  0  0  0  0  0  0  0  0  0
    4.0665   -9.1825    0.0000 C   0  0  0  0  0  0  0  0  0  0  0  0
    4.0579  -12.4825    0.0000 O   0  0  0  0  0  0  0  0  0  0  0  0
    5.4890  -11.6612    0.0000 O   0  0  0  0  0  0  0  0  0  0  0  0
    4.7777  -10.4219    0.0000 C   0  0  0  0  0  0  0  0  0  0  0  0
    4.0643  -10.0075    0.0000 C   0  0  0  0  0  0  0  0  0  0  0  0
    3.3488  -10.4182    0.0000 C   0  0  0  0  0  0  0  0  0  0  0  0
    3.3467  -11.2432    0.0000 C   0  0  0  0  0  0  0  0  0  0  0  0
    4.0601  -11.6575    0.0000 C   0  0  0  0  0  0  0  0  0  0  0  0
    4.7756  -11.2469    0.0000 C   0  0  0  0  0  0  0  0  0  0  0  0
    8.3533   -9.1825    0.0000 C   0  0  0  0  0  0  0  0  0  0  0  0
    7.6388   -7.9450    0.0000 O   0  0  0  0  0  0  0  0  0  0  0  0
    7.6388   -8.7700    0.0000 C   0  0  2  0  0  0  0  0  0  0  0  0
    7.6388  -10.4200    0.0000 O   0  0  0  0  0  0  0  0  0  0  0  0
    6.2099  -10.4200    0.0000 O   0  0  0  0  0  0  0  0  0  0  0  0
 18  2  2  0  0  0  0
  4  1  1  0  0  0  0
 18  3  1  0  0  0  0
  4 20  1  0  0  0  0
 20 18  1  0  0  0  0
  4  6  1  1  0  0  0
  7  5  2  0  0  0  0
  7  6  1  0  0  0  0
  8  7  1  0  0  0  0
  9  8  2  0  0  0  0
 13  9  1  0  0  0  0
 16 10  1  0  0  0  0
 17 11  1  0  0  0  0
 12 17  1  0  0  0  0
 13 12  2  0  0  0  0
 14 13  1  0  0  0  0
 15 14  2  0  0  0  0
 16 15  1  0  0  0  0
 17 16  2  0  0  0  0
 20 19  1  1  0  0  0
  1 21  2  0  0  0  0
  1 22  1  0  0  0  0
M  END
>  <cdx:fragmentId>
5

$$$$
