551906.cdx
  Mrv1902 05222410232D          

 19 21  0  0  0  0            999 V2000
    4.8919   -8.0793    0.0000 C   0  0  0  0  0  0  0  0  0  0  0  0
    4.1786   -7.6649    0.0000 C   0  0  0  0  0  0  0  0  0  0  0  0
    4.8896   -8.9043    0.0000 O   0  0  0  0  0  0  0  0  0  0  0  0
    5.6075   -7.6688    0.0000 O   0  0  0  0  0  0  0  0  0  0  0  0
    6.3208   -8.0833    0.0000 C   0  0  0  0  0  0  0  0  0  0  0  0
    7.0364   -7.6727    0.0000 C   0  0  0  0  0  0  0  0  0  0  0  0
    7.7498   -8.0872    0.0000 C   0  0  0  0  0  0  0  0  0  0  0  0
    7.7464   -8.9122    0.0000 C   0  0  0  0  0  0  0  0  0  0  0  0
    8.4591   -9.3276    0.0000 N   0  0  0  0  0  0  0  0  0  0  0  0
    9.1753   -8.9122    0.0000 C   0  0  0  0  0  0  0  0  0  0  0  0
    9.1753   -8.0872    0.0000 C   0  0  0  0  0  0  0  0  0  0  0  0
    8.4591   -7.6718    0.0000 C   0  0  0  0  0  0  0  0  0  0  0  0
    8.4574   -6.8468    0.0000 N   0  0  0  0  0  0  0  0  0  0  0  0
    9.1710   -6.4328    0.0000 O   0  0  0  0  0  0  0  0  0  0  0  0
    9.1575   -9.8450    0.0000 C   0  0  0  0  0  0  0  0  0  0  0  0
    9.8725   -9.6525    0.0000 C   0  0  0  0  0  0  0  0  0  0  0  0
   10.2300   -8.9375    0.0000 N   0  0  0  0  0  0  0  0  0  0  0  0
   10.0375   -8.2500    0.0000 C   0  0  0  0  0  0  0  0  0  0  0  0
    9.2950   -7.7000    0.0000 C   0  0  0  0  0  0  0  0  0  0  0  0
  1  2  1  0  0  0  0
  1  3  2  0  0  0  0
  1  4  1  0  0  0  0
  5  6  1  0  0  0  0
  6  7  1  0  0  0  0
  4  5  1  0  0  0  0
  7  8  1  0  0  0  0
  8  9  1  0  0  0  0
  9 10  1  0  0  0  0
 10 11  1  0  0  0  0
 11 12  1  0  0  0  0
 12  7  1  0  0  0  0
 12 13  2  3  0  0  0
 13 14  1  0  0  0  0
  9 15  1  0  0  0  0
 15 16  1  0  0  0  0
 16 17  1  0  0  0  0
 17 18  1  0  0  0  0
 11 18  1  0  0  0  0
  7 19  1  0  0  0  0
 19 17  1  0  0  0  0
M  END
>  <cdx:fragmentId>
1854

$$$$
