552024.cdx
  Mrv1902 05222410222D          

 17 19  0  0  0  0            999 V2000
    5.4448   -7.2446    0.0000 C   0  0  0  0  0  0  0  0  0  0  0  0
    5.4922   -8.0682    0.0000 C   0  0  1  0  0  0  0  0  0  0  0  0
    6.1657   -8.5447    0.0000 C   0  0  1  0  0  0  0  0  0  0  0  0
    6.9582   -8.3151    0.0000 C   0  0  0  0  0  0  0  0  0  0  0  0
    7.2728   -7.5525    0.0000 C   0  0  0  0  0  0  0  0  0  0  0  0
    6.8727   -6.8310    0.0000 C   0  0  0  0  0  0  0  0  0  0  0  0
    6.0591   -6.6940    0.0000 C   0  0  1  0  0  0  0  0  0  0  0  0
    7.4215   -6.2151    0.0000 C   0  0  0  0  0  0  0  0  0  0  0  0
    4.9919   -6.5550    0.0000 C   0  0  0  0  0  0  0  0  0  0  0  0
    4.6615   -7.5036    0.0000 C   0  0  0  0  0  0  0  0  0  0  0  0
    4.8310   -8.5615    0.0000 C   0  0  0  0  0  0  0  0  0  0  0  0
    5.0958   -9.3429    0.0000 C   0  0  0  0  0  0  0  0  0  0  0  0
    5.9207   -9.3324    0.0000 C   0  0  1  0  0  0  0  0  0  0  0  0
    6.4329   -7.6772    0.0000 C   0  0  0  0  0  0  0  0  0  0  0  0
    6.0117   -5.8703    0.0000 H   0  0  0  0  0  0  0  0  0  0  0  0
    4.7552   -7.6975    0.0000 H   0  0  0  0  0  0  0  0  0  0  0  0
    6.3736  -10.0220    0.0000 C   0  0  0  0  0  0  0  0  0  0  0  0
  1  2  1  0  0  0  0
  2  3  1  0  0  0  0
  3  4  1  0  0  0  0
  4  5  1  0  0  0  0
  5  6  2  0  0  0  0
  6  7  1  0  0  0  0
  7  1  1  0  0  0  0
  6  8  1  0  0  0  0
  1  9  1  0  0  0  0
  1 10  1  0  0  0  0
  2 11  1  0  0  0  0
 11 12  1  0  0  0  0
 12 13  1  0  0  0  0
 13  3  1  0  0  0  0
  7 14  1  0  0  0  0
  3 14  1  6  0  0  0
  7 15  1  6  0  0  0
  2 16  1  6  0  0  0
 13 17  1  6  0  0  0
M  END
>  <cdx:fragmentId>
5

$$$$
