552061.cdx
  Mrv1902 05222410262D          

 17 16  0  0  0  0            999 V2000
   17.8579   -8.2428    0.0000 C   0  0  0  0  0  0  0  0  0  0  0  0
   17.1434   -8.6553    0.0000 C   0  0  0  0  0  0  0  0  0  0  0  0
   16.4289   -8.2428    0.0000 C   0  0  0  0  0  0  0  0  0  0  0  0
   15.7145   -8.6553    0.0000 C   0  0  0  0  0  0  0  0  0  0  0  0
   15.0000   -8.2428    0.0000 C   0  0  0  0  0  0  0  0  0  0  0  0
   14.2855   -8.6553    0.0000 C   0  0  0  0  0  0  0  0  0  0  0  0
   13.5711   -8.2428    0.0000 C   0  0  0  0  0  0  0  0  0  0  0  0
   12.8566   -8.6553    0.0000 C   0  0  0  0  0  0  0  0  0  0  0  0
   17.8579   -7.4178    0.0000 O   0  0  0  0  0  0  0  0  0  0  0  0
   18.5724   -8.6553    0.0000 N   0  0  0  0  0  0  0  0  0  0  0  0
   12.1421   -8.2428    0.0000 O   0  0  0  0  0  0  0  0  0  0  0  0
   13.5711   -7.4178    0.0000 O   0  0  0  0  0  0  0  0  0  0  0  0
   14.2855   -9.4803    0.0000 O   0  0  0  0  0  0  0  0  0  0  0  0
   15.0000   -7.4178    0.0000 O   0  0  0  0  0  0  0  0  0  0  0  0
   15.7145   -9.4803    0.0000 O   0  0  0  0  0  0  0  0  0  0  0  0
   16.4289   -7.4178    0.0000 O   0  0  0  0  0  0  0  0  0  0  0  0
   17.1434   -9.4803    0.0000 O   0  0  0  0  0  0  0  0  0  0  0  0
  1  2  1  0  0  0  0
  2  3  1  0  0  0  0
  3  4  1  0  0  0  0
  4  5  1  0  0  0  0
  5  6  1  0  0  0  0
  6  7  1  0  0  0  0
  7  8  1  0  0  0  0
  1  9  2  0  0  0  0
  1 10  1  0  0  0  0
  8 11  1  0  0  0  0
  7 12  1  0  0  0  0
  6 13  1  0  0  0  0
  5 14  1  0  0  0  0
  4 15  1  0  0  0  0
  3 16  1  0  0  0  0
  2 17  1  0  0  0  0
M  END
>  <cdx:groupId>
2053

>  <cdx:fragmentId>
2006

$$$$
