552033.cdx
  Mrv1902 05222410222D          

 31 30  0  0  0  0            999 V2000
    5.0780   -6.9974    0.0000 C   0  0  0  0  0  0  0  0  0  0  0  0
    4.2530   -8.4263    0.0000 C   0  0  0  0  0  0  0  0  0  0  0  0
    3.9510   -7.2993    0.0000 C   0  0  0  0  0  0  0  0  0  0  0  0
    4.6655   -7.7118    0.0000 Si  0  0  0  0  0  0  0  0  0  0  0  0
    5.3800   -8.1243    0.0000 O   0  0  0  0  0  0  0  0  0  0  0  0
    2.8240   -8.6474    0.0000 C   0  0  0  0  0  0  0  0  0  0  0  0
    3.6490  -10.0763    0.0000 C   0  0  0  0  0  0  0  0  0  0  0  0
    2.5221   -9.7743    0.0000 C   0  0  0  0  0  0  0  0  0  0  0  0
    3.2365   -9.3618    0.0000 Si  0  0  0  0  0  0  0  0  0  0  0  0
    3.9510   -8.9493    0.0000 O   0  0  0  0  0  0  0  0  0  0  0  0
    4.6655   -9.3618    0.0000 C   0  0  0  0  0  0  0  0  0  0  0  0
    5.3800   -8.9493    0.0000 C   0  0  0  0  0  0  0  0  0  0  0  0
    6.0944   -9.3618    0.0000 C   0  0  0  0  0  0  0  0  0  0  0  0
    6.8089   -8.9493    0.0000 O   0  0  0  0  0  0  0  0  0  0  0  0
    7.5234  -10.1868    0.0000 O   0  0  0  0  0  0  0  0  0  0  0  0
   18.2404   -8.9493    0.0000 C   0  0  0  0  0  0  0  0  0  0  0  0
   17.5260   -9.3618    0.0000 C   0  0  0  0  0  0  0  0  0  0  0  0
   16.8115   -8.9493    0.0000 C   0  0  0  0  0  0  0  0  0  0  0  0
   16.0970   -9.3618    0.0000 C   0  0  0  0  0  0  0  0  0  0  0  0
   15.3826   -8.9493    0.0000 C   0  0  0  0  0  0  0  0  0  0  0  0
   14.6681   -9.3618    0.0000 C   0  0  0  0  0  0  0  0  0  0  0  0
   13.9536   -8.9493    0.0000 C   0  0  0  0  0  0  0  0  0  0  0  0
   13.2391   -9.3618    0.0000 C   0  0  0  0  0  0  0  0  0  0  0  0
   12.5247   -8.9493    0.0000 C   0  0  0  0  0  0  0  0  0  0  0  0
   11.8102   -9.3618    0.0000 C   0  0  0  0  0  0  0  0  0  0  0  0
   11.0957   -8.9493    0.0000 C   0  0  0  0  0  0  0  0  0  0  0  0
   10.3813   -9.3618    0.0000 C   0  0  0  0  0  0  0  0  0  0  0  0
    9.6668   -8.9493    0.0000 C   0  0  0  0  0  0  0  0  0  0  0  0
    8.9523   -9.3618    0.0000 C   0  0  0  0  0  0  0  0  0  0  0  0
    8.2378   -8.9493    0.0000 C   0  0  0  0  0  0  0  0  0  0  0  0
    7.5234   -9.3618    0.0000 C   0  0  0  0  0  0  0  0  0  0  0  0
 14 13  1  0  0  0  0
 12  5  1  0  0  0  0
  5  4  1  0  0  0  0
  4  1  1  0  0  0  0
  4  2  1  0  0  0  0
  4  3  1  0  0  0  0
 11 10  1  0  0  0  0
 10  9  1  0  0  0  0
  9  6  1  0  0  0  0
  9  7  1  0  0  0  0
  9  8  1  0  0  0  0
 12 11  1  0  0  0  0
 13 12  1  0  0  0  0
 31 14  1  0  0  0  0
 31 15  2  0  0  0  0
 17 16  1  0  0  0  0
 18 17  1  0  0  0  0
 19 18  1  0  0  0  0
 20 19  1  0  0  0  0
 21 20  1  0  0  0  0
 22 21  1  0  0  0  0
 23 22  1  0  0  0  0
 24 23  1  0  0  0  0
 25 24  1  0  0  0  0
 26 25  1  0  0  0  0
 27 26  1  0  0  0  0
 28 27  1  0  0  0  0
 29 28  1  0  0  0  0
 30 29  1  0  0  0  0
 31 30  1  0  0  0  0
M  END
>  <cdx:fragmentId>
1906

$$$$
