55215.cdx
  Mrv1902 05222410262D          

 47 50  0  0  0  0            999 V2000
    6.3307   -8.9423    0.0000 O   0  0  0  0  0  0  0  0  0  0  0  0
    5.6225   -9.3655    0.0000 C   0  0  1  0  0  0  0  0  0  0  0  0
    5.6349  -10.1904    0.0000 C   0  0  2  0  0  0  0  0  0  0  0  0
    6.3555  -10.5921    0.0000 C   0  0  1  0  0  0  0  0  0  0  0  0
    7.0637  -10.1689    0.0000 C   0  0  2  0  0  0  0  0  0  0  0  0
    7.0513   -9.3440    0.0000 C   0  0  1  0  0  0  0  0  0  0  0  0
    7.7595   -8.9208    0.0000 O   0  0  0  0  0  0  0  0  0  0  0  0
    6.7047   -7.9814    0.0000 O   0  0  0  0  0  0  0  0  0  0  0  0
    7.5294   -8.0054    0.0000 C   0  0  2  0  0  0  0  0  0  0  0  0
    7.8070   -7.2285    0.0000 C   0  0  2  0  0  0  0  0  0  0  0  0
    7.1539   -6.7244    0.0000 C   0  0  1  0  0  0  0  0  0  0  0  0
    6.4727   -7.1897    0.0000 C   0  0  1  0  0  0  0  0  0  0  0  0
    5.6958   -6.9121    0.0000 C   0  0  0  0  0  0  0  0  0  0  0  0
    5.0669   -7.4461    0.0000 O   0  0  0  0  0  0  0  0  0  0  0  0
    7.1779   -5.8998    0.0000 O   0  0  0  0  0  0  0  0  0  0  0  0
    7.7843  -10.5706    0.0000 O   0  0  0  0  0  0  0  0  0  0  0  0
    6.3680  -11.4170    0.0000 O   0  0  0  0  0  0  0  0  0  0  0  0
    4.9267  -10.6137    0.0000 O   0  0  0  0  0  0  0  0  0  0  0  0
    4.9019   -8.9638    0.0000 C   0  0  0  0  0  0  0  0  0  0  0  0
    0.6120  -10.5973    0.0000 O   0  0  0  0  0  0  0  0  0  0  0  0
    4.1937   -9.3871    0.0000 O   0  0  0  0  0  0  0  0  0  0  0  0
    3.4887   -8.1441    0.0000 O   0  0  0  0  0  0  0  0  0  0  0  0
    2.7585  -10.2011    0.0000 C   0  0  0  0  0  0  0  0  0  0  0  0
    2.0409  -10.6082    0.0000 C   0  0  0  0  0  0  0  0  0  0  0  0
    1.3296  -10.1902    0.0000 C   0  0  0  0  0  0  0  0  0  0  0  0
    1.3359   -9.3653    0.0000 C   0  0  0  0  0  0  0  0  0  0  0  0
    2.0535   -8.9582    0.0000 C   0  0  0  0  0  0  0  0  0  0  0  0
    2.7648   -9.3762    0.0000 C   0  0  0  0  0  0  0  0  0  0  0  0
    3.4824   -8.9691    0.0000 C   0  0  0  0  0  0  0  0  0  0  0  0
    8.5987   -6.9965    0.0000 O   0  0  0  0  0  0  0  0  0  0  0  0
    8.7936   -6.1949    0.0000 C   0  0  0  0  0  0  0  0  0  0  0  0
    9.5853   -5.9628    0.0000 C   0  0  0  0  0  0  0  0  0  0  0  0
    8.1968   -5.6252    0.0000 O   0  0  0  0  0  0  0  0  0  0  0  0
    9.7802   -5.1612    0.0000 C   0  0  0  0  0  0  0  0  0  0  0  0
   10.5719   -4.9291    0.0000 C   0  0  0  0  0  0  0  0  0  0  0  0
   11.1687   -5.4988    0.0000 C   0  0  0  0  0  0  0  0  0  0  0  0
   11.9604   -5.2667    0.0000 C   0  0  0  0  0  0  0  0  0  0  0  0
   12.1553   -4.4651    0.0000 C   0  0  0  0  0  0  0  0  0  0  0  0
   11.5585   -3.8955    0.0000 C   0  0  0  0  0  0  0  0  0  0  0  0
   10.7668   -4.1275    0.0000 C   0  0  0  0  0  0  0  0  0  0  0  0
   11.7534   -3.0938    0.0000 O   0  0  0  0  0  0  0  0  0  0  0  0
   12.9470   -4.2331    0.0000 O   0  0  0  0  0  0  0  0  0  0  0  0
   12.5572   -5.8363    0.0000 O   0  0  0  0  0  0  0  0  0  0  0  0
   11.1072   -2.5810    0.0000 C   0  0  0  0  0  0  0  0  0  0  0  0
   13.3489   -5.6043    0.0000 C   0  0  0  0  0  0  0  0  0  0  0  0
    8.3263   -8.2189    0.0000 C   0  0  0  0  0  0  0  0  0  0  0  0
    8.9096   -7.6356    0.0000 O   0  0  0  0  0  0  0  0  0  0  0  0
 21 19  1  0  0  0  0
 25 20  1  0  0  0  0
 29 21  1  0  0  0  0
 29 22  2  0  0  0  0
 28 23  2  0  0  0  0
 24 23  1  0  0  0  0
 25 24  2  0  0  0  0
 26 25  1  0  0  0  0
 27 26  2  0  0  0  0
 28 27  1  0  0  0  0
 29 28  1  0  0  0  0
  1  2  1  0  0  0  0
  2  3  1  0  0  0  0
  3  4  1  0  0  0  0
  4  5  1  0  0  0  0
  5  6  1  0  0  0  0
  1  6  1  0  0  0  0
  8  9  1  0  0  0  0
  9 10  1  0  0  0  0
 10 11  1  0  0  0  0
 11 12  1  0  0  0  0
  8 12  1  0  0  0  0
 13 14  1  0  0  0  0
 12 13  1  6  0  0  0
 11 15  1  1  0  0  0
  6  7  1  6  0  0  0
  5 16  1  6  0  0  0
  4 17  1  1  0  0  0
  3 18  1  6  0  0  0
  2 19  1  1  0  0  0
 10 30  1  6  0  0  0
 30 31  1  0  0  0  0
 31 32  1  0  0  0  0
 31 33  2  0  0  0  0
 32 34  2  0  0  0  0
 34 35  1  0  0  0  0
 35 36  2  0  0  0  0
 36 37  1  0  0  0  0
 37 38  2  0  0  0  0
 38 39  1  0  0  0  0
 39 40  2  0  0  0  0
 40 35  1  0  0  0  0
 39 41  1  0  0  0  0
 38 42  1  0  0  0  0
 37 43  1  0  0  0  0
 41 44  1  0  0  0  0
 43 45  1  0  0  0  0
  9  7  1  6  0  0  0
  9 46  1  0  0  0  0
 46 47  1  0  0  0  0
M  END
>  <cdx:fragmentId>
178882

$$$$
