552546.cdx
  Mrv1902 05222410202D          

 34 36  0  0  0  0            999 V2000
    8.9334  -11.5796    0.0000 C   0  0  0  0  0  0  0  0  0  0  0  0
    9.6479  -11.1671    0.0000 C   0  0  0  0  0  0  0  0  0  0  0  0
    9.6479  -10.3421    0.0000 C   0  0  0  0  0  0  0  0  0  0  0  0
    8.9334   -9.9296    0.0000 C   0  0  0  0  0  0  0  0  0  0  0  0
    8.2190  -10.3421    0.0000 C   0  0  0  0  0  0  0  0  0  0  0  0
    8.2190  -11.1671    0.0000 C   0  0  0  0  0  0  0  0  0  0  0  0
    8.9334  -12.4046    0.0000 C   0  0  0  0  0  0  0  0  0  0  0  0
    9.6479  -12.8171    0.0000 O   0  0  0  0  0  0  0  0  0  0  0  0
    8.2190  -12.8171    0.0000 O   0  0  0  0  0  0  0  0  0  0  0  0
    7.8065  -11.8815    0.0000 C   0  0  0  0  0  0  0  0  0  0  0  0
    7.3940  -11.1671    0.0000 C   0  0  0  0  0  0  0  0  0  0  0  0
   10.3624  -11.5796    0.0000 C   0  0  0  0  0  0  0  0  0  0  0  0
    7.5045  -14.0546    0.0000 O   0  0  0  0  0  0  0  0  0  0  0  0
    8.2190  -13.6421    0.0000 C   0  0  2  0  0  0  0  0  0  0  0  0
    8.9334  -14.0546    0.0000 C   0  0  1  0  0  0  0  0  0  0  0  0
    8.9334  -14.8796    0.0000 C   0  0  2  0  0  0  0  0  0  0  0  0
    8.2190  -15.2921    0.0000 C   0  0  1  0  0  0  0  0  0  0  0  0
    7.5045  -14.8796    0.0000 C   0  0  1  0  0  0  0  0  0  0  0  0
    6.7900  -15.2921    0.0000 C   0  0  0  0  0  0  0  0  0  0  0  0
    6.7900  -16.1171    0.0000 O   0  0  0  0  0  0  0  0  0  0  0  0
    5.3611  -16.1171    0.0000 O   0  0  0  0  0  0  0  0  0  0  0  0
    6.0756  -16.5296    0.0000 C   0  0  2  0  0  0  0  0  0  0  0  0
    6.0756  -17.3546    0.0000 C   0  0  1  0  0  0  0  0  0  0  0  0
    5.3611  -17.7671    0.0000 C   0  0  2  0  0  0  0  0  0  0  0  0
    4.6466  -17.3546    0.0000 C   0  0  1  0  0  0  0  0  0  0  0  0
    4.6466  -16.5296    0.0000 C   0  0  1  0  0  0  0  0  0  0  0  0
    3.9322  -16.1171    0.0000 C   0  0  0  0  0  0  0  0  0  0  0  0
    3.2177  -16.5296    0.0000 O   0  0  0  0  0  0  0  0  0  0  0  0
    3.9321  -17.7671    0.0000 O   0  0  0  0  0  0  0  0  0  0  0  0
    5.3611  -18.5921    0.0000 O   0  0  0  0  0  0  0  0  0  0  0  0
    6.7900  -17.7671    0.0000 O   0  0  0  0  0  0  0  0  0  0  0  0
    8.2190  -16.1171    0.0000 O   0  0  0  0  0  0  0  0  0  0  0  0
    9.6479  -15.2921    0.0000 O   0  0  0  0  0  0  0  0  0  0  0  0
    9.6479  -13.6421    0.0000 O   0  0  0  0  0  0  0  0  0  0  0  0
  1  2  2  0  0  0  0
  2  3  1  0  0  0  0
  3  4  2  0  0  0  0
  4  5  1  0  0  0  0
  5  6  1  0  0  0  0
  1  6  1  0  0  0  0
  7  8  2  0  0  0  0
  7  9  1  0  0  0  0
  1  7  1  0  0  0  0
  6 10  1  0  0  0  0
  6 11  1  0  0  0  0
  2 12  1  0  0  0  0
 13 14  1  0  0  0  0
 14 15  1  0  0  0  0
 15 16  1  0  0  0  0
 16 17  1  0  0  0  0
 17 18  1  0  0  0  0
 13 18  1  0  0  0  0
 21 22  1  0  0  0  0
 22 23  1  0  0  0  0
 23 24  1  0  0  0  0
 24 25  1  0  0  0  0
 25 26  1  0  0  0  0
 21 26  1  0  0  0  0
 27 28  1  0  0  0  0
 26 27  1  1  0  0  0
 25 29  1  6  0  0  0
 24 30  1  1  0  0  0
 23 31  1  6  0  0  0
 22 20  1  1  0  0  0
 19 20  1  0  0  0  0
 18 19  1  1  0  0  0
 17 32  1  6  0  0  0
 16 33  1  1  0  0  0
 15 34  1  6  0  0  0
 14  9  1  1  0  0  0
M  END
>  <cdx:fragmentId>
202650

$$$$
