552548.cdx
  Mrv1902 05222410252D          

 32 34  0  0  0  0            999 V2000
    4.0988  -10.6143    0.0000 O   0  0  0  0  0  0  0  0  0  0  0  0
    3.0509   -9.6792    0.0000 O   0  0  0  0  0  0  0  0  0  0  0  0
    2.2972   -9.3436    0.0000 O   0  0  0  0  0  0  0  0  0  0  0  0
    2.9646   -8.8587    0.0000 C   0  0  0  0  0  0  0  0  0  0  0  0
    4.1308   -8.4798    0.0000 C   0  0  0  0  0  0  0  0  0  0  0  0
    3.7183   -9.1942    0.0000 C   0  0  2  0  0  0  0  0  0  0  0  0
    4.2704   -9.8073    0.0000 C   0  0  2  0  0  0  0  0  0  0  0  0
    5.0240   -9.4718    0.0000 C   0  0  1  0  0  0  0  0  0  0  0  0
    4.9378   -8.6513    0.0000 O   0  0  0  0  0  0  0  0  0  0  0  0
    5.7385   -9.8843    0.0000 O   0  0  0  0  0  0  0  0  0  0  0  0
    6.4530   -9.4718    0.0000 C   0  0  0  0  0  0  0  0  0  0  0  0
    9.3109  -11.1218    0.0000 O   0  0  0  0  0  0  0  0  0  0  0  0
    7.8819  -11.9468    0.0000 O   0  0  0  0  0  0  0  0  0  0  0  0
    6.4530  -11.1218    0.0000 O   0  0  0  0  0  0  0  0  0  0  0  0
    7.1674   -9.8843    0.0000 C   0  0  2  0  0  0  0  0  0  0  0  0
    7.1674  -10.7093    0.0000 C   0  0  2  0  0  0  0  0  0  0  0  0
    7.8819  -11.1218    0.0000 C   0  0  1  0  0  0  0  0  0  0  0  0
    8.5964  -10.7093    0.0000 C   0  0  2  0  0  0  0  0  0  0  0  0
    8.5964   -9.8843    0.0000 C   0  0  1  0  0  0  0  0  0  0  0  0
    7.8819   -9.4718    0.0000 O   0  0  0  0  0  0  0  0  0  0  0  0
    9.3109   -9.4718    0.0000 O   0  0  0  0  0  0  0  0  0  0  0  0
   10.0253   -9.8843    0.0000 C   0  0  0  0  0  0  0  0  0  0  0  0
   11.4543  -10.7093    0.0000 C   0  0  0  0  0  0  0  0  0  0  0  0
    9.9148   -8.6468    0.0000 C   0  0  0  0  0  0  0  0  0  0  0  0
   10.3273   -7.9323    0.0000 C   0  0  0  0  0  0  0  0  0  0  0  0
   12.8832   -8.2343    0.0000 O   0  0  0  0  0  0  0  0  0  0  0  0
   11.4543   -8.2343    0.0000 C   0  0  0  0  0  0  0  0  0  0  0  0
   10.7398   -8.6468    0.0000 C   0  0  0  0  0  0  0  0  0  0  0  0
   10.7398   -9.4718    0.0000 C   0  0  2  0  0  0  0  0  0  0  0  0
   11.4543   -9.8843    0.0000 C   0  0  0  0  0  0  0  0  0  0  0  0
   12.1687   -9.4718    0.0000 C   0  0  0  0  0  0  0  0  0  0  0  0
   12.1687   -8.6468    0.0000 C   0  0  0  0  0  0  0  0  0  0  0  0
 29 22  1  6  0  0  0
 22 21  1  0  0  0  0
 19 21  1  1  0  0  0
 15 11  1  1  0  0  0
 11 10  1  0  0  0  0
  8 10  1  1  0  0  0
  7  1  1  6  0  0  0
  6  2  1  6  0  0  0
  6  4  1  1  0  0  0
  4  3  1  0  0  0  0
  9  5  1  0  0  0  0
  6  5  1  0  0  0  0
  7  6  1  0  0  0  0
  8  7  1  0  0  0  0
  9  8  1  0  0  0  0
 18 12  1  6  0  0  0
 17 13  1  1  0  0  0
 16 14  1  6  0  0  0
 20 15  1  0  0  0  0
 16 15  1  0  0  0  0
 17 16  1  0  0  0  0
 18 17  1  0  0  0  0
 19 18  1  0  0  0  0
 20 19  1  0  0  0  0
 30 23  1  0  0  0  0
 28 24  1  0  0  0  0
 28 25  1  0  0  0  0
 32 26  2  0  0  0  0
 32 27  1  0  0  0  0
 28 27  1  0  0  0  0
 29 28  1  0  0  0  0
 30 29  1  0  0  0  0
 31 30  2  0  0  0  0
 32 31  1  0  0  0  0
M  END
>  <cdx:fragmentId>
202879

$$$$
