55255.cdx
  Mrv1902 05222410212D          

 34 37  0  0  0  0            999 V2000
    6.2733   -7.6397    0.0000 O   0  0  0  0  0  0  0  0  0  0  0  0
    5.5588   -8.0522    0.0000 C   0  0  2  0  0  0  0  0  0  0  0  0
    4.8443   -7.6397    0.0000 C   0  0  1  0  0  0  0  0  0  0  0  0
    4.8443   -6.8147    0.0000 C   0  0  2  0  0  0  0  0  0  0  0  0
    5.5588   -6.4022    0.0000 C   0  0  1  0  0  0  0  0  0  0  0  0
    6.2733   -6.8147    0.0000 C   0  0  1  0  0  0  0  0  0  0  0  0
    6.9878   -6.4022    0.0000 C   0  0  0  0  0  0  0  0  0  0  0  0
    6.9878   -5.5772    0.0000 O   0  0  0  0  0  0  0  0  0  0  0  0
    5.5588   -5.5772    0.0000 O   0  0  0  0  0  0  0  0  0  0  0  0
    4.1299   -6.4022    0.0000 O   0  0  0  0  0  0  0  0  0  0  0  0
    4.1299   -8.0522    0.0000 O   0  0  0  0  0  0  0  0  0  0  0  0
    5.5588  -11.3522    0.0000 O   0  0  0  0  0  0  0  0  0  0  0  0
    4.1299   -8.8772    0.0000 O   0  0  0  0  0  0  0  0  0  0  0  0
   10.5601   -7.6397    0.0000 O   0  0  0  0  0  0  0  0  0  0  0  0
   11.2746   -8.8772    0.0000 C   0  0  0  0  0  0  0  0  0  0  0  0
   10.5601   -9.2897    0.0000 O   0  0  0  0  0  0  0  0  0  0  0  0
    8.4167   -8.0522    0.0000 C   0  0  0  0  0  0  0  0  0  0  0  0
    9.1312   -7.6397    0.0000 C   0  0  0  0  0  0  0  0  0  0  0  0
    9.8456   -8.0522    0.0000 C   0  0  0  0  0  0  0  0  0  0  0  0
    9.8456   -8.8772    0.0000 C   0  0  0  0  0  0  0  0  0  0  0  0
    9.1312   -9.2897    0.0000 C   0  0  0  0  0  0  0  0  0  0  0  0
    8.4167   -8.8772    0.0000 C   0  0  0  0  0  0  0  0  0  0  0  0
    6.2733   -8.4647    0.0000 H   0  0  0  0  0  0  0  0  0  0  0  0
    6.9878  -11.3522    0.0000 O   0  0  0  0  0  0  0  0  0  0  0  0
    6.9878   -8.8772    0.0000 O   0  0  0  0  0  0  0  0  0  0  0  0
    6.2733   -9.2897    0.0000 C   0  0  0  0  0  0  0  0  0  0  0  0
    5.5588   -8.8772    0.0000 C   0  0  0  0  0  0  0  0  0  0  0  0
    4.8443   -9.2897    0.0000 C   0  0  0  0  0  0  0  0  0  0  0  0
    4.8443  -10.1147    0.0000 C   0  0  0  0  0  0  0  0  0  0  0  0
    5.5588  -10.5272    0.0000 C   0  0  0  0  0  0  0  0  0  0  0  0
    6.2733  -10.1147    0.0000 C   0  0  0  0  0  0  0  0  0  0  0  0
    6.9878  -10.5272    0.0000 C   0  0  0  0  0  0  0  0  0  0  0  0
    7.7022  -10.1147    0.0000 C   0  0  0  0  0  0  0  0  0  0  0  0
    7.7022   -9.2897    0.0000 C   0  0  0  0  0  0  0  0  0  0  0  0
 30 12  1  0  0  0  0
 28 13  1  0  0  0  0
 34 22  1  0  0  0  0
 19 14  1  0  0  0  0
 20 16  1  0  0  0  0
 16 15  1  0  0  0  0
 22 17  2  0  0  0  0
 18 17  1  0  0  0  0
 19 18  2  0  0  0  0
 20 19  1  0  0  0  0
 21 20  2  0  0  0  0
 22 21  1  0  0  0  0
  2 27  1  0  0  0  0
  1  2  1  0  0  0  0
  2  3  1  0  0  0  0
 32 24  2  0  0  0  0
 34 25  1  0  0  0  0
 26 25  1  0  0  0  0
 31 26  2  0  0  0  0
 27 26  1  0  0  0  0
 28 27  2  0  0  0  0
 29 28  1  0  0  0  0
 30 29  2  0  0  0  0
 31 30  1  0  0  0  0
 32 31  1  0  0  0  0
 33 32  1  0  0  0  0
 34 33  2  0  0  0  0
  3  4  1  0  0  0  0
  4  5  1  0  0  0  0
  5  6  1  0  0  0  0
  1  6  1  0  0  0  0
  7  8  1  0  0  0  0
  6  7  1  1  0  0  0
  5  9  1  6  0  0  0
  4 10  1  1  0  0  0
  3 11  1  6  0  0  0
  2 23  1  6  0  0  0
M  END
>  <cdx:fragmentId>
5

$$$$
