553295.cdx
  Mrv1902 05222410242D          

 27 29  0  0  0  0            999 V2000
    5.7571   -7.9566    0.0000 C   0  0  0  0  0  0  0  0  0  0  0  0
    5.2051   -7.3435    0.0000 C   0  0  0  0  0  0  0  0  0  0  0  0
    5.4600   -6.5588    0.0000 C   0  0  0  0  0  0  0  0  0  0  0  0
    5.5021   -8.7412    0.0000 O   0  0  0  0  0  0  0  0  0  0  0  0
    6.5641   -7.7850    0.0000 O   0  0  0  0  0  0  0  0  0  0  0  0
    4.3981   -7.5150    0.0000 C   0  0  0  0  0  0  0  0  0  0  0  0
    4.8012   -9.6176    0.0000 C   0  0  0  0  0  0  0  0  0  0  0  0
    4.8012  -10.4426    0.0000 C   0  0  0  0  0  0  0  0  0  0  0  0
    5.5156  -10.8551    0.0000 C   0  0  0  0  0  0  0  0  0  0  0  0
    6.2301  -10.4426    0.0000 C   0  0  0  0  0  0  0  0  0  0  0  0
    6.9446  -10.8551    0.0000 C   0  0  0  0  0  0  0  0  0  0  0  0
    7.6590  -10.4426    0.0000 C   0  0  0  0  0  0  0  0  0  0  0  0
    7.6590   -9.6176    0.0000 C   0  0  0  0  0  0  0  0  0  0  0  0
    6.9446   -9.2051    0.0000 C   0  0  0  0  0  0  0  0  0  0  0  0
    6.2301   -9.6176    0.0000 C   0  0  0  0  0  0  0  0  0  0  0  0
    5.5156   -9.2051    0.0000 O   0  0  0  0  0  0  0  0  0  0  0  0
    8.2721   -9.0656    0.0000 O   0  0  0  0  0  0  0  0  0  0  0  0
    7.1161   -8.3981    0.0000 C   0  0  2  0  0  0  0  0  0  0  0  0
    7.9366   -8.3119    0.0000 C   0  0  1  0  0  0  0  0  0  0  0  0
    4.0867   -9.2051    0.0000 O   0  0  0  0  0  0  0  0  0  0  0  0
    7.6346   -7.1849    0.0000 C   0  0  0  0  0  0  0  0  0  0  0  0
    8.3491   -7.5974    0.0000 C   0  0  0  0  0  0  0  0  0  0  0  0
    8.7616   -6.8830    0.0000 C   0  0  0  0  0  0  0  0  0  0  0  0
    9.0635   -8.0099    0.0000 O   0  0  0  0  0  0  0  0  0  0  0  0
    9.7780   -7.5974    0.0000 C   0  0  0  0  0  0  0  0  0  0  0  0
   10.4925   -8.0099    0.0000 C   0  0  0  0  0  0  0  0  0  0  0  0
    9.7780   -6.7724    0.0000 O   0  0  0  0  0  0  0  0  0  0  0  0
  1  2  1  0  0  0  0
  2  3  1  0  0  0  0
  1  4  2  0  0  0  0
  1  5  1  0  0  0  0
  2  6  1  0  0  0  0
  7  8  1  0  0  0  0
  8  9  2  0  0  0  0
  9 10  1  0  0  0  0
 10 11  1  0  0  0  0
 11 12  2  0  0  0  0
 12 13  1  0  0  0  0
 13 14  2  0  0  0  0
 14 15  1  0  0  0  0
 10 15  2  0  0  0  0
 15 16  1  0  0  0  0
  7 16  1  0  0  0  0
 18 19  1  0  0  0  0
 17 19  1  0  0  0  0
 17 13  1  0  0  0  0
 18 14  1  0  0  0  0
  7 20  2  0  0  0  0
 21 22  1  0  0  0  0
 22 23  1  0  0  0  0
 22 24  1  0  0  0  0
 19 22  1  1  0  0  0
 18  5  1  1  0  0  0
 24 25  1  0  0  0  0
 25 26  1  0  0  0  0
 25 27  2  0  0  0  0
M  END
>  <cdx:fragmentId>
17

$$$$
