553904.cdx
  Mrv1902 05222410242D          

 51 52  0  0  0  0            999 V2000
   17.7551   -8.0189    0.0000 C   0  0  0  0  0  0  0  0  0  0  0  0
   18.4695   -7.6064    0.0000 O   0  0  0  0  0  0  0  0  0  0  0  0
   16.3261   -8.0189    0.0000 O   0  0  0  0  0  0  0  0  0  0  0  0
   17.0406   -7.6064    0.0000 C   0  0  0  0  0  0  0  0  0  0  0  0
   17.0406   -6.7814    0.0000 C   0  0  0  0  0  0  0  0  0  0  0  0
   16.3261   -6.3689    0.0000 C   0  0  0  0  0  0  0  0  0  0  0  0
   15.6117   -6.7814    0.0000 C   0  0  0  0  0  0  0  0  0  0  0  0
   15.6117   -7.6064    0.0000 C   0  0  0  0  0  0  0  0  0  0  0  0
   14.8972   -8.0189    0.0000 O   0  0  0  0  0  0  0  0  0  0  0  0
   14.1827   -9.2564    0.0000 O   0  0  0  0  0  0  0  0  0  0  0  0
   14.8972   -8.8439    0.0000 C   0  0  0  0  0  0  0  0  0  0  0  0
   15.6117   -9.2564    0.0000 C   0  0  0  0  0  0  0  0  0  0  0  0
   15.6117  -10.0814    0.0000 C   0  0  0  0  0  0  0  0  0  0  0  0
   14.8972  -10.4939    0.0000 C   0  0  0  0  0  0  0  0  0  0  0  0
   14.1827  -10.0814    0.0000 C   0  0  0  0  0  0  0  0  0  0  0  0
   13.4682  -10.4939    0.0000 C   0  0  0  0  0  0  0  0  0  0  0  0
   12.7538  -10.0814    0.0000 O   0  0  0  0  0  0  0  0  0  0  0  0
   12.0393  -10.4939    0.0000 Si  0  0  0  0  0  0  0  0  0  0  0  0
   11.3248  -10.9064    0.0000 C   0  0  0  0  0  0  0  0  0  0  0  0
   12.0393  -11.3189    0.0000 C   0  0  0  0  0  0  0  0  0  0  0  0
   11.3248  -10.0814    0.0000 C   0  0  0  0  0  0  0  0  0  0  0  0
   14.8972  -11.3189    0.0000 O   0  0  0  0  0  0  0  0  0  0  0  0
   14.1827  -11.7314    0.0000 Si  0  0  0  0  0  0  0  0  0  0  0  0
   13.4682  -12.1439    0.0000 C   0  0  0  0  0  0  0  0  0  0  0  0
   13.4682  -11.3189    0.0000 C   0  0  0  0  0  0  0  0  0  0  0  0
   14.1827  -12.5564    0.0000 C   0  0  0  0  0  0  0  0  0  0  0  0
   16.3261  -10.4939    0.0000 O   0  0  0  0  0  0  0  0  0  0  0  0
   16.3261  -11.3189    0.0000 Si  0  0  0  0  0  0  0  0  0  0  0  0
   15.6117  -11.7314    0.0000 C   0  0  0  0  0  0  0  0  0  0  0  0
   16.3261  -12.1439    0.0000 C   0  0  0  0  0  0  0  0  0  0  0  0
   17.0406  -11.7314    0.0000 C   0  0  0  0  0  0  0  0  0  0  0  0
   16.3261   -8.8439    0.0000 O   0  0  0  0  0  0  0  0  0  0  0  0
   17.0406   -9.2564    0.0000 Si  0  0  0  0  0  0  0  0  0  0  0  0
   17.7551   -9.6689    0.0000 C   0  0  0  0  0  0  0  0  0  0  0  0
   17.0406  -10.0814    0.0000 C   0  0  0  0  0  0  0  0  0  0  0  0
   17.7551   -8.8439    0.0000 C   0  0  0  0  0  0  0  0  0  0  0  0
   14.8972   -6.3689    0.0000 O   0  0  0  0  0  0  0  0  0  0  0  0
   14.1827   -6.7814    0.0000 Si  0  0  0  0  0  0  0  0  0  0  0  0
   13.4682   -7.1939    0.0000 C   0  0  0  0  0  0  0  0  0  0  0  0
   14.1827   -7.6064    0.0000 C   0  0  0  0  0  0  0  0  0  0  0  0
   13.4682   -6.3689    0.0000 C   0  0  0  0  0  0  0  0  0  0  0  0
   16.3261   -5.5439    0.0000 O   0  0  0  0  0  0  0  0  0  0  0  0
   17.0406   -5.1314    0.0000 Si  0  0  0  0  0  0  0  0  0  0  0  0
   17.7551   -5.5439    0.0000 C   0  0  0  0  0  0  0  0  0  0  0  0
   17.7551   -4.7189    0.0000 C   0  0  0  0  0  0  0  0  0  0  0  0
   17.0406   -4.3064    0.0000 C   0  0  0  0  0  0  0  0  0  0  0  0
   18.1837   -6.1214    0.0000 O   0  0  0  0  0  0  0  0  0  0  0  0
   18.8982   -6.5339    0.0000 Si  0  0  0  0  0  0  0  0  0  0  0  0
   18.8982   -7.3589    0.0000 C   0  0  0  0  0  0  0  0  0  0  0  0
   19.6127   -6.9464    0.0000 C   0  0  0  0  0  0  0  0  0  0  0  0
   19.6127   -6.1214    0.0000 C   0  0  0  0  0  0  0  0  0  0  0  0
  1  2  1  0  0  0  0
  3  4  1  0  0  0  0
  4  5  1  0  0  0  0
  5  6  1  0  0  0  0
  6  7  1  0  0  0  0
  7  8  1  0  0  0  0
  3  8  1  0  0  0  0
 10 11  1  0  0  0  0
 11 12  1  0  0  0  0
 12 13  1  0  0  0  0
 13 14  1  0  0  0  0
 14 15  1  0  0  0  0
 10 15  1  0  0  0  0
 18 19  1  0  0  0  0
 18 20  1  0  0  0  0
 18 21  1  0  0  0  0
 17 18  1  0  0  0  0
 16 17  1  0  0  0  0
 15 16  1  0  0  0  0
 23 24  1  0  0  0  0
 23 25  1  0  0  0  0
 23 26  1  0  0  0  0
 22 23  1  0  0  0  0
 14 22  1  0  0  0  0
 28 29  1  0  0  0  0
 28 30  1  0  0  0  0
 28 31  1  0  0  0  0
 27 28  1  0  0  0  0
 13 27  1  0  0  0  0
 33 34  1  0  0  0  0
 33 35  1  0  0  0  0
 33 36  1  0  0  0  0
 32 33  1  0  0  0  0
 12 32  1  0  0  0  0
  9 11  1  0  0  0  0
  8  9  1  0  0  0  0
 38 39  1  0  0  0  0
 38 40  1  0  0  0  0
 38 41  1  0  0  0  0
 37 38  1  0  0  0  0
  7 37  1  0  0  0  0
 43 44  1  0  0  0  0
 43 45  1  0  0  0  0
 43 46  1  0  0  0  0
 42 43  1  0  0  0  0
  6 42  1  0  0  0  0
 48 49  1  0  0  0  0
 48 50  1  0  0  0  0
 48 51  1  0  0  0  0
 47 48  1  0  0  0  0
  5 47  1  0  0  0  0
  1  4  1  0  0  0  0
M  END
>  <cdx:groupId>
2211

>  <cdx:fragmentId>
2078

$$$$
