5540.cdx
  Mrv1902 05222410182D          

 32 35  0  0  0  0            999 V2000
    2.4042   -5.8321    0.0000 O   0  0  0  0  0  0  0  0  0  0  0  0
    2.3623   -7.2593    0.0000 O   0  0  0  0  0  0  0  0  0  0  0  0
    4.7943   -8.7603    0.0000 O   0  0  0  0  0  0  0  0  0  0  0  0
    3.1450   -8.7119    0.0000 O   0  0  0  0  0  0  0  0  0  0  0  0
    3.2289   -5.8552    0.0000 C   0  0  0  0  0  0  0  0  0  0  0  0
    5.6609   -7.3563    0.0000 O   0  0  0  0  0  0  0  0  0  0  0  0
    7.0898   -8.1813    0.0000 O   0  0  0  0  0  0  0  0  0  0  0  0
    7.0898   -7.3563    0.0000 C   0  0  0  0  0  0  0  0  0  0  0  0
    6.3753   -6.9438    0.0000 C   0  0  0  0  0  0  0  0  0  0  0  0
    7.8043   -6.9438    0.0000 C   0  0  0  0  0  0  0  0  0  0  0  0
    7.8043   -6.1188    0.0000 C   0  0  0  0  0  0  0  0  0  0  0  0
    7.0898   -5.7062    0.0000 C   0  0  0  0  0  0  0  0  0  0  0  0
    6.3753   -6.1188    0.0000 C   0  0  0  0  0  0  0  0  0  0  0  0
    8.5188   -7.3563    0.0000 C   0  0  0  0  0  0  0  0  0  0  0  0
    9.2332   -6.9438    0.0000 C   0  0  0  0  0  0  0  0  0  0  0  0
    9.2332   -6.1188    0.0000 C   0  0  0  0  0  0  0  0  0  0  0  0
    8.5188   -5.7062    0.0000 O   0  0  0  0  0  0  0  0  0  0  0  0
    9.9477   -5.7062    0.0000 C   0  0  0  0  0  0  0  0  0  0  0  0
    9.9477   -4.8812    0.0000 C   0  0  0  0  0  0  0  0  0  0  0  0
   10.6622   -6.1188    0.0000 C   0  0  0  0  0  0  0  0  0  0  0  0
   11.3766   -5.7062    0.0000 C   0  0  0  0  0  0  0  0  0  0  0  0
   11.3766   -4.8812    0.0000 C   0  0  0  0  0  0  0  0  0  0  0  0
   10.6622   -4.4688    0.0000 C   0  0  0  0  0  0  0  0  0  0  0  0
    8.5188   -8.1813    0.0000 O   0  0  0  0  0  0  0  0  0  0  0  0
    5.6609   -5.7062    0.0000 O   0  0  0  0  0  0  0  0  0  0  0  0
    4.9464   -6.1188    0.0000 C   0  0  0  0  0  0  0  0  0  0  0  0
    4.8362   -7.3320    0.0000 C   0  0  2  0  0  0  0  0  0  0  0  0
    4.4449   -6.6057    0.0000 O   0  0  0  0  0  0  0  0  0  0  0  0
    3.6203   -6.5815    0.0000 C   0  0  1  0  0  0  0  0  0  0  0  0
    3.1869   -7.2835    0.0000 C   0  0  2  0  0  0  0  0  0  0  0  0
    3.5783   -8.0098    0.0000 C   0  0  1  0  0  0  0  0  0  0  0  0
    4.4029   -8.0341    0.0000 C   0  0  1  0  0  0  0  0  0  0  0  0
  5  1  1  0  0  0  0
 30  2  1  6  0  0  0
 32  3  1  6  0  0  0
 31  4  1  1  0  0  0
 29  5  1  1  0  0  0
 27  6  1  1  0  0  0
 27 32  1  0  0  0  0
  7  8  1  0  0  0  0
  8  9  2  0  0  0  0
  9  6  1  0  0  0  0
 28 27  1  0  0  0  0
  8 10  1  0  0  0  0
 10 11  2  0  0  0  0
 11 12  1  0  0  0  0
 12 13  2  0  0  0  0
 13  9  1  0  0  0  0
 10 14  1  0  0  0  0
 14 15  1  0  0  0  0
 15 16  2  0  0  0  0
 16 17  1  0  0  0  0
 17 11  1  0  0  0  0
 16 18  1  0  0  0  0
 18 19  1  0  0  0  0
 18 20  2  0  0  0  0
 20 21  1  0  0  0  0
 21 22  2  0  0  0  0
 22 23  1  0  0  0  0
 23 19  2  0  0  0  0
 14 24  2  0  0  0  0
 13 25  1  0  0  0  0
 25 26  1  0  0  0  0
 29 28  1  0  0  0  0
 30 29  1  0  0  0  0
 31 30  1  0  0  0  0
 32 31  1  0  0  0  0
M  END
>  <cdx:fragmentId>
5

$$$$
