5541.cdx
  Mrv1902 05222410182D          

 15 14  0  0  0  0            999 V2000
    8.0009   -3.6583    0.0000 C   0  0  0  0  0  0  0  0  0  0  0  0
    8.7154   -3.2458    0.0000 C   0  0  0  0  0  0  0  0  0  0  0  0
    8.0009   -4.4833    0.0000 O   0  0  0  0  0  0  0  0  0  0  0  0
    7.2864   -3.2458    0.0000 O   0  0  0  0  0  0  0  0  0  0  0  0
    6.5720   -3.6583    0.0000 C   0  0  0  0  0  0  0  0  0  0  0  0
    5.8575   -3.2458    0.0000 C   0  0  0  0  0  0  0  0  0  0  0  0
    5.1430   -3.6583    0.0000 C   0  0  0  0  0  0  0  0  0  0  0  0
    4.4286   -3.2458    0.0000 O   0  0  0  0  0  0  0  0  0  0  0  0
    3.7141   -3.6583    0.0000 C   0  0  0  0  0  0  0  0  0  0  0  0
    3.7141   -4.4833    0.0000 O   0  0  0  0  0  0  0  0  0  0  0  0
    2.9996   -3.2458    0.0000 C   0  0  0  0  0  0  0  0  0  0  0  0
    5.8575   -2.4208    0.0000 O   0  0  0  0  0  0  0  0  0  0  0  0
    5.1430   -2.0083    0.0000 C   0  0  0  0  0  0  0  0  0  0  0  0
    5.1430   -1.1833    0.0000 O   0  0  0  0  0  0  0  0  0  0  0  0
    4.4286   -2.4208    0.0000 C   0  0  0  0  0  0  0  0  0  0  0  0
  1  2  1  0  0  0  0
  1  3  2  0  0  0  0
  1  4  1  0  0  0  0
  5  6  1  0  0  0  0
  6  7  1  0  0  0  0
  9 10  2  0  0  0  0
  9 11  1  0  0  0  0
  8  9  1  0  0  0  0
  7  8  1  0  0  0  0
 13 14  2  0  0  0  0
 13 15  1  0  0  0  0
 12 13  1  0  0  0  0
  6 12  1  0  0  0  0
  4  5  1  0  0  0  0
M  END
>  <cdx:groupId>
46

>  <cdx:fragmentId>
21

$$$$
