5551.cdx
  Mrv1902 05222410202D          

 24 25  0  0  0  0            999 V2000
    7.4627   -5.4656    0.0000 C   0  0  0  0  0  0  0  0  0  0  0  0
    7.4627   -6.2906    0.0000 C   0  0  0  0  0  0  0  0  0  0  0  0
    8.1771   -6.7031    0.0000 C   0  0  0  0  0  0  0  0  0  0  0  0
    8.8916   -6.2906    0.0000 C   0  0  0  0  0  0  0  0  0  0  0  0
    8.8916   -5.4656    0.0000 C   0  0  0  0  0  0  0  0  0  0  0  0
    6.8793   -4.8823    0.0000 C   0  0  0  0  0  0  0  0  0  0  0  0
    6.6658   -5.6792    0.0000 C   0  0  0  0  0  0  0  0  0  0  0  0
    8.1771   -7.5281    0.0000 O   0  0  0  0  0  0  0  0  0  0  0  0
    6.0189   -7.9406    0.0000 C   0  0  2  0  0  0  0  0  0  0  0  0
    6.0189   -8.7656    0.0000 C   0  0  2  0  0  0  0  0  0  0  0  0
    6.7334   -9.1781    0.0000 C   0  0  1  0  0  0  0  0  0  0  0  0
    7.4478   -8.7656    0.0000 C   0  0  2  0  0  0  0  0  0  0  0  0
    7.4478   -7.9406    0.0000 C   0  0  1  0  0  0  0  0  0  0  0  0
    6.7334   -7.5281    0.0000 O   0  0  0  0  0  0  0  0  0  0  0  0
    5.3044   -7.5281    0.0000 C   0  0  0  0  0  0  0  0  0  0  0  0
    6.7334  -10.0031    0.0000 O   0  0  0  0  0  0  0  0  0  0  0  0
    5.3044   -9.1781    0.0000 O   0  0  0  0  0  0  0  0  0  0  0  0
    8.1623   -9.1781    0.0000 O   0  0  0  0  0  0  0  0  0  0  0  0
    4.5900   -7.9406    0.0000 O   0  0  0  0  0  0  0  0  0  0  0  0
    9.6061   -5.0531    0.0000 C   0  0  0  0  0  0  0  0  0  0  0  0
    8.1771   -5.0531    0.0000 C   0  0  0  0  0  0  0  0  0  0  0  0
    8.1771   -4.2281    0.0000 C   0  0  0  0  0  0  0  0  0  0  0  0
    8.8903   -3.8133    0.0000 O   0  0  0  0  0  0  0  0  0  0  0  0
    7.4615   -3.8165    0.0000 O   0  0  0  0  0  0  0  0  0  0  0  0
  1  2  1  0  0  0  0
  2  3  1  0  0  0  0
  3  4  1  0  0  0  0
  4  5  1  0  0  0  0
  5 21  2  0  0  0  0
 21  1  1  0  0  0  0
  1  6  1  0  0  0  0
  1  7  1  0  0  0  0
  9 10  1  0  0  0  0
 10 11  1  0  0  0  0
 11 12  1  0  0  0  0
 12 13  1  0  0  0  0
 13 14  1  0  0  0  0
 14  9  1  0  0  0  0
  9 15  1  1  0  0  0
 11 16  1  1  0  0  0
 10 17  1  6  0  0  0
 12 18  1  6  0  0  0
 15 19  1  0  0  0  0
  3  8  1  0  0  0  0
 13  8  1  1  0  0  0
  5 20  1  0  0  0  0
 21 22  1  0  0  0  0
 22 23  1  0  0  0  0
 22 24  2  0  0  0  0
M  END
>  <cdx:fragmentId>
34

$$$$
