5554.cdx
  Mrv1902 05222410182D          

 34 36  0  0  0  0            999 V2000
    8.5627   -5.0531    0.0000 C   0  0  0  0  0  0  0  0  0  0  0  0
    8.5627   -5.8781    0.0000 C   0  0  0  0  0  0  0  0  0  0  0  0
    9.2771   -6.2906    0.0000 C   0  0  0  0  0  0  0  0  0  0  0  0
    9.9916   -5.8781    0.0000 C   0  0  0  0  0  0  0  0  0  0  0  0
    9.9916   -5.0531    0.0000 C   0  0  0  0  0  0  0  0  0  0  0  0
    9.2771   -4.6406    0.0000 C   0  0  0  0  0  0  0  0  0  0  0  0
    7.9793   -4.4698    0.0000 C   0  0  0  0  0  0  0  0  0  0  0  0
    7.7658   -5.2667    0.0000 C   0  0  0  0  0  0  0  0  0  0  0  0
    9.2771   -7.1156    0.0000 O   0  0  0  0  0  0  0  0  0  0  0  0
    7.1189   -7.5281    0.0000 C   0  0  2  0  0  0  0  0  0  0  0  0
    7.1189   -8.3531    0.0000 C   0  0  2  0  0  0  0  0  0  0  0  0
    7.8334   -8.7656    0.0000 C   0  0  1  0  0  0  0  0  0  0  0  0
    8.5478   -8.3531    0.0000 C   0  0  2  0  0  0  0  0  0  0  0  0
    8.5478   -7.5281    0.0000 C   0  0  1  0  0  0  0  0  0  0  0  0
    7.8334   -7.1156    0.0000 O   0  0  0  0  0  0  0  0  0  0  0  0
    6.4044   -7.1156    0.0000 C   0  0  0  0  0  0  0  0  0  0  0  0
    7.8334   -9.5906    0.0000 O   0  0  0  0  0  0  0  0  0  0  0  0
    6.4044   -8.7656    0.0000 O   0  0  0  0  0  0  0  0  0  0  0  0
    9.2623   -8.7656    0.0000 O   0  0  0  0  0  0  0  0  0  0  0  0
    5.6900   -7.5281    0.0000 O   0  0  0  0  0  0  0  0  0  0  0  0
    4.9755   -7.1156    0.0000 C   0  0  1  0  0  0  0  0  0  0  0  0
    4.9755   -6.2906    0.0000 C   0  0  1  0  0  0  0  0  0  0  0  0
    4.2610   -5.8781    0.0000 C   0  0  2  0  0  0  0  0  0  0  0  0
    3.5465   -6.2906    0.0000 C   0  0  1  0  0  0  0  0  0  0  0  0
    3.5465   -7.1156    0.0000 C   0  0  2  0  0  0  0  0  0  0  0  0
    4.2610   -7.5281    0.0000 O   0  0  0  0  0  0  0  0  0  0  0  0
    2.8321   -7.5281    0.0000 C   0  0  0  0  0  0  0  0  0  0  0  0
    4.2610   -5.0531    0.0000 O   0  0  0  0  0  0  0  0  0  0  0  0
    2.8321   -5.8781    0.0000 O   0  0  0  0  0  0  0  0  0  0  0  0
    5.6900   -5.8781    0.0000 O   0  0  0  0  0  0  0  0  0  0  0  0
    2.8321   -8.3531    0.0000 O   0  0  0  0  0  0  0  0  0  0  0  0
   10.6047   -4.5011    0.0000 C   0  0  0  0  0  0  0  0  0  0  0  0
    9.2771   -3.8156    0.0000 C   0  0  0  0  0  0  0  0  0  0  0  0
    8.5627   -3.4031    0.0000 O   0  0  0  0  0  0  0  0  0  0  0  0
  1  2  1  0  0  0  0
  2  3  1  0  0  0  0
  3  4  1  0  0  0  0
  4  5  1  0  0  0  0
  5  6  2  0  0  0  0
  6  1  1  0  0  0  0
  1  7  1  0  0  0  0
  1  8  1  0  0  0  0
 10 11  1  0  0  0  0
 11 12  1  0  0  0  0
 12 13  1  0  0  0  0
 13 14  1  0  0  0  0
 14 15  1  0  0  0  0
 15 10  1  0  0  0  0
 10 16  1  1  0  0  0
 12 17  1  1  0  0  0
 11 18  1  6  0  0  0
 13 19  1  6  0  0  0
 16 20  1  0  0  0  0
 21 20  1  6  0  0  0
 21 22  1  0  0  0  0
 22 23  1  0  0  0  0
 23 24  1  0  0  0  0
 24 25  1  0  0  0  0
 25 26  1  0  0  0  0
 26 21  1  0  0  0  0
 25 27  1  6  0  0  0
 23 28  1  6  0  0  0
 24 29  1  1  0  0  0
 22 30  1  1  0  0  0
 27 31  1  0  0  0  0
  3  9  1  0  0  0  0
 14  9  1  1  0  0  0
  5 32  1  0  0  0  0
  6 33  1  0  0  0  0
 33 34  2  0  0  0  0
M  END
>  <cdx:fragmentId>
34

$$$$
