5555.cdx
  Mrv1902 05222410182D          

 23 24  0  0  0  0            999 V2000
    6.2326   -9.0951    0.0000 C   0  0  1  0  0  0  0  0  0  0  0  0
    6.9514   -9.5000    0.0000 C   0  0  1  0  0  0  0  0  0  0  0  0
    7.6615   -9.0799    0.0000 C   0  0  2  0  0  0  0  0  0  0  0  0
    7.6527   -8.2549    0.0000 C   0  0  1  0  0  0  0  0  0  0  0  0
    6.9338   -7.8501    0.0000 O   0  0  0  0  0  0  0  0  0  0  0  0
    6.2238   -8.2702    0.0000 C   0  0  2  0  0  0  0  0  0  0  0  0
    8.3627   -7.8348    0.0000 O   0  0  0  0  0  0  0  0  0  0  0  0
    8.3539   -7.0099    0.0000 C   0  0  0  0  0  0  0  0  0  0  0  0
    7.6351   -6.6050    0.0000 C   0  0  0  0  0  0  0  0  0  0  0  0
    6.9250   -7.0251    0.0000 O   0  0  0  0  0  0  0  0  0  0  0  0
    9.0639   -6.5898    0.0000 C   0  0  0  0  0  0  0  0  0  0  0  0
    9.0551   -5.7648    0.0000 C   0  0  0  0  0  0  0  0  0  0  0  0
    8.3363   -5.3600    0.0000 C   0  0  0  0  0  0  0  0  0  0  0  0
    7.6262   -5.7801    0.0000 C   0  0  0  0  0  0  0  0  0  0  0  0
    6.2062   -6.6203    0.0000 C   0  0  0  0  0  0  0  0  0  0  0  0
    8.3275   -4.5350    0.0000 O   0  0  0  0  0  0  0  0  0  0  0  0
    9.7827   -6.9946    0.0000 O   0  0  0  0  0  0  0  0  0  0  0  0
   10.4972   -6.5821    0.0000 C   0  0  0  0  0  0  0  0  0  0  0  0
    5.5050   -7.8653    0.0000 C   0  0  0  0  0  0  0  0  0  0  0  0
    4.7949   -8.2854    0.0000 O   0  0  0  0  0  0  0  0  0  0  0  0
    6.9603  -10.3249    0.0000 O   0  0  0  0  0  0  0  0  0  0  0  0
    5.5226   -9.5152    0.0000 O   0  0  0  0  0  0  0  0  0  0  0  0
    8.3803   -9.4847    0.0000 O   0  0  0  0  0  0  0  0  0  0  0  0
  1  2  1  0  0  0  0
  2  3  1  0  0  0  0
  3  4  1  0  0  0  0
  4  5  1  0  0  0  0
  5  6  1  0  0  0  0
  6  1  1  0  0  0  0
  4  7  1  1  0  0  0
  7  8  1  0  0  0  0
  8  9  1  0  0  0  0
  9 10  1  0  0  0  0
  8 11  2  0  0  0  0
 11 12  1  0  0  0  0
 12 13  2  0  0  0  0
 13 14  1  0  0  0  0
 14  9  2  0  0  0  0
 10 15  1  0  0  0  0
 13 16  1  0  0  0  0
 11 17  1  0  0  0  0
 17 18  1  0  0  0  0
  6 19  1  1  0  0  0
 19 20  1  0  0  0  0
  2 21  1  1  0  0  0
  1 22  1  6  0  0  0
  3 23  1  6  0  0  0
M  END
>  <cdx:fragmentId>
5

$$$$
