556235.cdx
  Mrv1902 05222410192D          

 28 30  0  0  0  0            999 V2000
    7.4841   -8.2439    0.0000 C   0  0  1  0  0  0  0  0  0  0  0  0
    8.1986   -7.8314    0.0000 C   0  0  1  0  0  0  0  0  0  0  0  0
    8.1986   -7.0064    0.0000 C   0  0  1  0  0  0  0  0  0  0  0  0
    7.4841   -6.5939    0.0000 C   0  0  0  0  0  0  0  0  0  0  0  0
    6.7696   -7.0064    0.0000 C   0  0  0  0  0  0  0  0  0  0  0  0
    6.7696   -7.8314    0.0000 O   0  0  0  0  0  0  0  0  0  0  0  0
    8.9832   -6.7515    0.0000 C   0  0  0  0  0  0  0  0  0  0  0  0
    9.4681   -7.4189    0.0000 C   0  0  0  0  0  0  0  0  0  0  0  0
    8.9832   -8.0864    0.0000 C   0  0  1  0  0  0  0  0  0  0  0  0
    7.4841   -5.7689    0.0000 C   0  0  0  0  0  0  0  0  0  0  0  0
    8.1986   -5.3564    0.0000 O   0  0  0  0  0  0  0  0  0  0  0  0
    6.7696   -5.3564    0.0000 O   0  0  0  0  0  0  0  0  0  0  0  0
    7.4841   -9.0689    0.0000 O   0  0  0  0  0  0  0  0  0  0  0  0
    6.0551   -9.0689    0.0000 O   0  0  0  0  0  0  0  0  0  0  0  0
    6.7696   -9.4814    0.0000 C   0  0  2  0  0  0  0  0  0  0  0  0
    6.7696  -10.3064    0.0000 C   0  0  1  0  0  0  0  0  0  0  0  0
    6.0551  -10.7189    0.0000 C   0  0  2  0  0  0  0  0  0  0  0  0
    5.3407  -10.3064    0.0000 C   0  0  1  0  0  0  0  0  0  0  0  0
    5.3407   -9.4814    0.0000 C   0  0  1  0  0  0  0  0  0  0  0  0
    4.6262   -9.0689    0.0000 C   0  0  0  0  0  0  0  0  0  0  0  0
    3.9117   -9.4814    0.0000 O   0  0  0  0  0  0  0  0  0  0  0  0
    4.6262  -10.7189    0.0000 O   0  0  0  0  0  0  0  0  0  0  0  0
    6.0551  -11.5439    0.0000 O   0  0  0  0  0  0  0  0  0  0  0  0
    7.4841  -10.7189    0.0000 O   0  0  0  0  0  0  0  0  0  0  0  0
    8.8116   -8.8933    0.0000 C   0  0  0  0  0  0  0  0  0  0  0  0
    9.5963   -8.6384    0.0000 O   0  0  0  0  0  0  0  0  0  0  0  0
    8.2848   -6.1859    0.0000 H   0  0  0  0  0  0  0  0  0  0  0  0
    8.2848   -8.6519    0.0000 H   0  0  0  0  0  0  0  0  0  0  0  0
  1  2  1  0  0  0  0
  2  3  1  0  0  0  0
  3  4  1  0  0  0  0
  4  5  2  0  0  0  0
  5  6  1  0  0  0  0
  1  6  1  0  0  0  0
  7  8  1  0  0  0  0
  8  9  1  0  0  0  0
  9  2  1  0  0  0  0
  7  3  1  0  0  0  0
 10 11  2  0  0  0  0
 10 12  1  0  0  0  0
  4 10  1  0  0  0  0
 14 15  1  0  0  0  0
 15 16  1  0  0  0  0
 16 17  1  0  0  0  0
 17 18  1  0  0  0  0
 18 19  1  0  0  0  0
 14 19  1  0  0  0  0
 20 21  1  0  0  0  0
 19 20  1  1  0  0  0
 18 22  1  6  0  0  0
 17 23  1  1  0  0  0
 16 24  1  6  0  0  0
 15 13  1  1  0  0  0
  1 13  1  6  0  0  0
  9 25  1  0  0  0  0
  9 26  1  6  0  0  0
  3 27  1  6  0  0  0
  2 28  1  6  0  0  0
M  END
>  <cdx:fragmentId>
67560

$$$$
