556274.cdx
  Mrv1902 05222410252D          

 38 42  0  0  0  0            999 V2000
    9.0669   -8.6027    0.0000 C   0  0  1  0  0  0  0  0  0  0  0  0
    9.7813   -9.0152    0.0000 C   0  0  1  0  0  0  0  0  0  0  0  0
    9.7813   -9.8402    0.0000 C   0  0  0  0  0  0  0  0  0  0  0  0
    9.0669  -10.2527    0.0000 C   0  0  0  0  0  0  0  0  0  0  0  0
    8.3524   -9.8402    0.0000 C   0  0  1  0  0  0  0  0  0  0  0  0
    7.6379  -10.2527    0.0000 C   0  0  2  0  0  0  0  0  0  0  0  0
    7.6379  -11.0777    0.0000 C   0  0  0  0  0  0  0  0  0  0  0  0
    6.9234  -11.4902    0.0000 C   0  0  0  0  0  0  0  0  0  0  0  0
    6.2090  -11.0777    0.0000 C   0  0  1  0  0  0  0  0  0  0  0  0
    5.4945  -11.4902    0.0000 C   0  0  0  0  0  0  0  0  0  0  0  0
    4.7800  -11.0777    0.0000 C   0  0  2  0  0  0  0  0  0  0  0  0
    4.7800  -10.2527    0.0000 C   0  0  1  0  0  0  0  0  0  0  0  0
    5.4945   -9.8402    0.0000 C   0  0  0  0  0  0  0  0  0  0  0  0
    6.2090  -10.2527    0.0000 C   0  0  2  0  0  0  0  0  0  0  0  0
    6.9234   -9.8402    0.0000 C   0  0  1  0  0  0  0  0  0  0  0  0
    6.9234   -9.0152    0.0000 C   0  0  0  0  0  0  0  0  0  0  0  0
    7.6379   -8.6027    0.0000 C   0  0  0  0  0  0  0  0  0  0  0  0
    8.3524   -9.0152    0.0000 C   0  0  2  0  0  0  0  0  0  0  0  0
   10.3944   -8.4632    0.0000 C   0  0  0  0  0  0  0  0  0  0  0  0
   10.0589   -7.7095    0.0000 C   0  0  0  0  0  0  0  0  0  0  0  0
    9.2384   -7.7957    0.0000 C   0  0  1  0  0  0  0  0  0  0  0  0
   10.5350   -9.3508    0.0000 C   0  0  0  0  0  0  0  0  0  0  0  0
   10.5350  -10.1758    0.0000 O   0  0  0  0  0  0  0  0  0  0  0  0
   11.2024   -8.8658    0.0000 O   0  0  0  0  0  0  0  0  0  0  0  0
    8.9413   -6.3980    0.0000 C   0  0  0  0  0  0  0  0  0  0  0  0
    8.6864   -7.1826    0.0000 C   0  0  0  0  0  0  0  0  0  0  0  0
    7.8794   -7.3542    0.0000 C   0  0  0  0  0  0  0  0  0  0  0  0
    6.2090   -9.4277    0.0000 C   0  0  0  0  0  0  0  0  0  0  0  0
    5.9070  -12.2047    0.0000 C   0  0  0  0  0  0  0  0  0  0  0  0
    5.0820  -12.2047    0.0000 C   0  0  0  0  0  0  0  0  0  0  0  0
    7.6379   -9.4277    0.0000 C   0  0  0  0  0  0  0  0  0  0  0  0
    8.3524  -10.6652    0.0000 C   0  0  0  0  0  0  0  0  0  0  0  0
    4.0656   -9.8402    0.0000 O   0  0  0  0  0  0  0  0  0  0  0  0
    4.0656  -11.4902    0.0000 O   0  0  0  0  0  0  0  0  0  0  0  0
    6.2090  -11.9027    0.0000 H   0  0  0  0  0  0  0  0  0  0  0  0
    6.9234  -10.6652    0.0000 H   0  0  0  0  0  0  0  0  0  0  0  0
    8.3524   -8.1902    0.0000 H   0  0  0  0  0  0  0  0  0  0  0  0
    9.0669   -9.4277    0.0000 H   0  0  0  0  0  0  0  0  0  0  0  0
  1  2  1  0  0  0  0
  2  3  1  0  0  0  0
  3  4  1  0  0  0  0
  4  5  1  0  0  0  0
  5  6  1  0  0  0  0
  6  7  1  0  0  0  0
  7  8  1  0  0  0  0
  8  9  1  0  0  0  0
  9 10  1  0  0  0  0
 10 11  1  0  0  0  0
 11 12  1  0  0  0  0
 12 13  1  0  0  0  0
 13 14  1  0  0  0  0
  9 14  1  0  0  0  0
 14 15  1  0  0  0  0
  6 15  1  0  0  0  0
 15 16  1  0  0  0  0
 16 17  1  0  0  0  0
 17 18  1  0  0  0  0
  5 18  1  0  0  0  0
  1 18  1  0  0  0  0
 19 20  1  0  0  0  0
 20 21  1  0  0  0  0
 21  1  1  0  0  0  0
 19  2  1  0  0  0  0
 22 23  2  0  0  0  0
 22 24  1  0  0  0  0
  2 22  1  1  0  0  0
 25 26  2  0  0  0  0
 26 27  1  0  0  0  0
 21 26  1  6  0  0  0
 14 28  1  1  0  0  0
 10 29  1  0  0  0  0
 10 30  1  0  0  0  0
  6 31  1  1  0  0  0
  5 32  1  6  0  0  0
 12 33  1  6  0  0  0
 11 34  1  1  0  0  0
  9 35  1  6  0  0  0
 15 36  1  6  0  0  0
 18 37  1  1  0  0  0
  1 38  1  6  0  0  0
M  END
>  <cdx:fragmentId>
67744

$$$$
