556304.cdx
  Mrv1902 05222410242D          

  7  8  0  0  0  0            999 V2000
    7.4244   -6.3689    0.0000 C   0  0  0  0  0  0  0  0  0  0  0  0
    6.6398   -6.1140    0.0000 C   0  0  0  0  0  0  0  0  0  0  0  0
    6.1549   -6.7814    0.0000 C   0  0  0  0  0  0  0  0  0  0  0  0
    6.6398   -7.4489    0.0000 C   0  0  0  0  0  0  0  0  0  0  0  0
    7.4244   -7.1939    0.0000 C   0  0  0  0  0  0  0  0  0  0  0  0
    8.1389   -6.7814    0.0000 C   0  0  0  0  0  0  0  0  0  0  0  0
    8.9639   -6.7814    0.0000 C   0  0  0  0  0  0  0  0  0  0  0  0
  1  2  1  0  0  0  0
  2  3  1  0  0  0  0
  3  4  1  0  0  0  0
  4  5  1  0  0  0  0
  5  6  1  0  0  0  0
  1  6  1  0  0  0  0
  1  5  1  0  0  0  0
  6  7  2  0  0  0  0
M  END
>  <cdx:fragmentId>
2258

$$$$
