556472.cdx
  Mrv1902 05222410252D          

 10 11  0  0  0  0            999 V2000
    8.4559   -5.2691    0.0000 C   0  0  0  0  0  0  0  0  0  0  0  0
    8.7108   -6.0537    0.0000 C   0  0  0  0  0  0  0  0  0  0  0  0
    7.9039   -5.8822    0.0000 C   0  0  0  0  0  0  0  0  0  0  0  0
    7.6489   -6.6668    0.0000 C   0  0  0  0  0  0  0  0  0  0  0  0
    6.8239   -6.6668    0.0000 C   0  0  0  0  0  0  0  0  0  0  0  0
    6.5690   -5.8822    0.0000 C   0  0  0  0  0  0  0  0  0  0  0  0
    7.2364   -5.3972    0.0000 C   0  0  0  0  0  0  0  0  0  0  0  0
    5.7844   -5.6272    0.0000 C   0  0  0  0  0  0  0  0  0  0  0  0
    6.3390   -7.3342    0.0000 C   0  0  0  0  0  0  0  0  0  0  0  0
    8.6274   -4.4621    0.0000 C   0  0  0  0  0  0  0  0  0  0  0  0
  1  2  1  0  0  0  0
  2  3  1  0  0  0  0
  3  4  1  0  0  0  0
  4  5  1  0  0  0  0
  5  6  1  0  0  0  0
  6  7  1  0  0  0  0
  1  3  1  0  0  0  0
  7  3  1  0  0  0  0
  6  8  2  0  0  0  0
  5  9  1  0  0  0  0
  1 10  1  0  0  0  0
M  END
>  <cdx:fragmentId>
2353

$$$$
