556456.cdx
  Mrv1902 05222410202D          

 10 11  0  0  0  0            999 V2000
    7.2937   -9.4388    0.0000 C   0  0  0  0  0  0  0  0  0  0  0  0
    7.7073  -10.1526    0.0000 C   0  0  0  0  0  0  0  0  0  0  0  0
    7.2960  -10.8677    0.0000 C   0  0  0  0  0  0  0  0  0  0  0  0
    6.4710  -10.8691    0.0000 C   0  0  0  0  0  0  0  0  0  0  0  0
    6.0573  -10.1553    0.0000 C   0  0  0  0  0  0  0  0  0  0  0  0
    6.4687   -9.4401    0.0000 C   0  0  0  0  0  0  0  0  0  0  0  0
    6.8800   -8.7250    0.0000 C   0  0  0  0  0  0  0  0  0  0  0  0
    6.8787   -7.9000    0.0000 C   0  0  0  0  0  0  0  0  0  0  0  0
    6.1636   -7.4886    0.0000 C   0  0  0  0  0  0  0  0  0  0  0  0
    6.1622   -6.6636    0.0000 C   0  0  0  0  0  0  0  0  0  0  0  0
  1  2  1  0  0  0  0
  2  3  1  0  0  0  0
  3  4  1  0  0  0  0
  4  5  1  0  0  0  0
  5  6  1  0  0  0  0
  6  7  1  0  0  0  0
  1  7  1  0  0  0  0
  1  6  1  0  0  0  0
  8  9  1  0  0  0  0
  9 10  1  0  0  0  0
  7  8  2  0  0  0  0
M  END
>  <cdx:fragmentId>
5

$$$$
