556470.cdx
  Mrv1902 05222410252D          

 11 11  0  0  0  0            999 V2000
   16.5499   -7.5068    0.0000 C   0  0  0  0  0  0  0  0  0  0  0  0
   17.3657   -7.6298    0.0000 C   0  0  0  0  0  0  0  0  0  0  0  0
   17.7782   -8.3443    0.0000 C   0  0  0  0  0  0  0  0  0  0  0  0
   17.4768   -9.1122    0.0000 C   0  0  0  0  0  0  0  0  0  0  0  0
   16.6884   -9.3554    0.0000 C   0  0  0  0  0  0  0  0  0  0  0  0
   16.0068   -8.8907    0.0000 C   0  0  0  0  0  0  0  0  0  0  0  0
   15.9451   -8.0680    0.0000 C   0  0  0  0  0  0  0  0  0  0  0  0
   15.2923   -9.3032    0.0000 C   0  0  0  0  0  0  0  0  0  0  0  0
   14.5778   -8.8907    0.0000 C   0  0  0  0  0  0  0  0  0  0  0  0
   13.8634   -9.3032    0.0000 C   0  0  0  0  0  0  0  0  0  0  0  0
   13.1489   -8.8907    0.0000 C   0  0  0  0  0  0  0  0  0  0  0  0
  1  2  2  0  0  0  0
  2  3  1  0  0  0  0
  3  4  1  0  0  0  0
  4  5  2  0  0  0  0
  5  6  1  0  0  0  0
  6  7  1  0  0  0  0
  1  7  1  0  0  0  0
  8  9  1  0  0  0  0
  9 10  1  0  0  0  0
 10 11  1  0  0  0  0
  6  8  1  0  0  0  0
M  END
>  <cdx:groupId>
2346

>  <cdx:fragmentId>
2316

$$$$
