556558.cdx
  Mrv1902 05222410282D          

 51 57  0  0  0  0            999 V2000
    6.3515  -11.7898    0.0000 H   0  0  0  0  0  0  0  0  0  0  0  0
    6.3407  -10.9648    0.0000 C   0  0  2  0  0  0  0  0  0  0  0  0
    7.0606  -11.3680    0.0000 C   0  0  0  0  0  0  0  0  0  0  0  0
    7.7696  -10.9462    0.0000 C   0  0  2  0  0  0  0  0  0  0  0  0
    8.4894  -11.3493    0.0000 O   0  0  0  0  0  0  0  0  0  0  0  0
    7.7588  -10.1212    0.0000 C   0  0  0  0  0  0  0  0  0  0  0  0
    7.0390   -9.7181    0.0000 C   0  0  0  0  0  0  0  0  0  0  0  0
    7.0282   -8.8932    0.0000 C   0  0  0  0  0  0  0  0  0  0  0  0
    7.7372   -8.4714    0.0000 C   0  0  0  0  0  0  0  0  0  0  0  0
    8.4571   -8.8745    0.0000 C   0  0  1  0  0  0  0  0  0  0  0  0
    8.4463   -8.0496    0.0000 C   0  0  0  0  0  0  0  0  0  0  0  0
    9.1661   -8.4527    0.0000 C   0  0  2  0  0  0  0  0  0  0  0  0
    9.1769   -9.2776    0.0000 H   0  0  0  0  0  0  0  0  0  0  0  0
    9.1553   -7.6278    0.0000 C   0  0  0  0  0  0  0  0  0  0  0  0
    9.8643   -7.2060    0.0000 C   0  0  2  0  0  0  0  0  0  0  0  0
   10.5788   -6.7935    0.0000 C   0  0  0  0  0  0  0  0  0  0  0  0
    9.8535   -6.3811    0.0000 C   0  0  0  0  0  0  0  0  0  0  0  0
   10.5626   -5.9593    0.0000 O   0  0  0  0  0  0  0  0  0  0  0  0
   10.5518   -5.1343    0.0000 C   0  0  0  0  0  0  0  0  0  0  0  0
    9.8320   -4.7312    0.0000 O   0  0  0  0  0  0  0  0  0  0  0  0
   11.2608   -4.7125    0.0000 C   0  0  0  0  0  0  0  0  0  0  0  0
   11.2500   -3.8876    0.0000 C   0  0  0  0  0  0  0  0  0  0  0  0
   11.9590   -3.4658    0.0000 C   0  0  0  0  0  0  0  0  0  0  0  0
   12.6789   -3.8689    0.0000 C   0  0  0  0  0  0  0  0  0  0  0  0
   12.6896   -4.6939    0.0000 C   0  0  0  0  0  0  0  0  0  0  0  0
   11.9806   -5.1157    0.0000 C   0  0  0  0  0  0  0  0  0  0  0  0
   10.5841   -7.6091    0.0000 C   0  0  0  0  0  0  0  0  0  0  0  0
   10.5949   -8.4340    0.0000 C   0  0  0  0  0  0  0  0  0  0  0  0
    9.8859   -8.8558    0.0000 C   0  0  1  0  0  0  0  0  0  0  0  0
   10.6057   -9.2590    0.0000 C   0  0  0  0  0  0  0  0  0  0  0  0
    9.8966   -9.6808    0.0000 C   0  0  0  0  0  0  0  0  0  0  0  0
    9.1876  -10.1026    0.0000 C   0  0  0  0  0  0  0  0  0  0  0  0
    8.4679   -9.6994    0.0000 C   0  0  2  0  0  0  0  0  0  0  0  0
    8.4786  -10.5244    0.0000 C   0  0  0  0  0  0  0  0  0  0  0  0
    6.3300  -10.1399    0.0000 C   0  0  2  0  0  0  0  0  0  0  0  0
    6.3192   -9.3150    0.0000 C   0  0  0  0  0  0  0  0  0  0  0  0
    5.6102   -9.7368    0.0000 C   0  0  0  0  0  0  0  0  0  0  0  0
    4.9012  -10.1586    0.0000 C   0  0  0  0  0  0  0  0  0  0  0  0
    4.9120  -10.9835    0.0000 C   0  0  1  0  0  0  0  0  0  0  0  0
    4.2029  -11.4053    0.0000 O   0  0  0  0  0  0  0  0  0  0  0  0
    3.4831  -11.0022    0.0000 C   0  0  0  0  0  0  0  0  0  0  0  0
    3.4723  -10.1773    0.0000 O   0  0  0  0  0  0  0  0  0  0  0  0
    2.7741  -11.4240    0.0000 C   0  0  0  0  0  0  0  0  0  0  0  0
    2.7849  -12.2489    0.0000 C   0  0  0  0  0  0  0  0  0  0  0  0
    2.0758  -12.6707    0.0000 C   0  0  0  0  0  0  0  0  0  0  0  0
    1.3561  -12.2676    0.0000 C   0  0  0  0  0  0  0  0  0  0  0  0
    1.3453  -11.4427    0.0000 C   0  0  0  0  0  0  0  0  0  0  0  0
    2.0543  -11.0209    0.0000 C   0  0  0  0  0  0  0  0  0  0  0  0
    5.6317  -11.3866    0.0000 C   0  0  0  0  0  0  0  0  0  0  0  0
    6.0535  -12.0956    0.0000 C   0  0  0  0  0  0  0  0  0  0  0  0
    5.2286  -12.1064    0.0000 C   0  0  0  0  0  0  0  0  0  0  0  0
  2  1  1  6  0  0  0
  2  3  1  0  0  0  0
  3  4  1  0  0  0  0
  4  5  1  1  0  0  0
  4  6  1  0  0  0  0
  6  7  2  0  0  0  0
  7  8  1  0  0  0  0
  8  9  1  0  0  0  0
  9 10  1  0  0  0  0
 10 11  1  6  0  0  0
 10 12  1  0  0  0  0
 12 13  1  1  0  0  0
 12 14  1  0  0  0  0
 14 15  1  0  0  0  0
 15 16  1  1  0  0  0
 15 17  1  0  0  0  0
 17 18  1  0  0  0  0
 18 19  1  0  0  0  0
 19 20  2  0  0  0  0
 19 21  1  0  0  0  0
 21 22  2  0  0  0  0
 22 23  1  0  0  0  0
 23 24  2  0  0  0  0
 24 25  1  0  0  0  0
 25 26  2  0  0  0  0
 21 26  1  0  0  0  0
 15 27  1  0  0  0  0
 27 28  1  0  0  0  0
 28 29  1  0  0  0  0
 12 29  1  0  0  0  0
 29 30  1  1  0  0  0
 29 31  1  0  0  0  0
 31 32  1  0  0  0  0
 32 33  1  0  0  0  0
  6 33  1  0  0  0  0
 10 33  1  0  0  0  0
 33 34  1  1  0  0  0
  7 35  1  0  0  0  0
  2 35  1  0  0  0  0
 35 36  1  1  0  0  0
 35 37  1  0  0  0  0
 37 38  1  0  0  0  0
 38 39  1  0  0  0  0
 39 40  1  6  0  0  0
 40 41  1  0  0  0  0
 41 42  2  0  0  0  0
 41 43  1  0  0  0  0
 43 44  2  0  0  0  0
 44 45  1  0  0  0  0
 45 46  2  0  0  0  0
 46 47  1  0  0  0  0
 47 48  2  0  0  0  0
 43 48  1  0  0  0  0
 39 49  1  0  0  0  0
  2 49  1  0  0  0  0
 49 50  1  0  0  0  0
 49 51  1  0  0  0  0
M  END
>  <cdx:fragmentId>
46883

$$$$
