556544.cdx
  Mrv1902 05222410202D          

 13 16  0  0  0  0            999 V2000
    8.4042   -7.3996    0.0000 C   0  0  0  0  0  0  0  0  0  0  0  0
    7.5848   -7.4952    0.0000 C   0  0  0  0  0  0  0  0  0  0  0  0
    7.1075   -8.1681    0.0000 C   0  0  0  0  0  0  0  0  0  0  0  0
    6.2861   -8.0912    0.0000 C   0  0  0  0  0  0  0  0  0  0  0  0
    5.9420   -7.3414    0.0000 C   0  0  0  0  0  0  0  0  0  0  0  0
    6.4192   -6.6685    0.0000 C   0  0  0  0  0  0  0  0  0  0  0  0
    7.2406   -6.7454    0.0000 C   0  0  0  0  0  0  0  0  0  0  0  0
    8.0620   -6.8222    0.0000 C   0  0  0  0  0  0  0  0  0  0  0  0
    8.7303   -6.3390    0.0000 C   0  0  0  0  0  0  0  0  0  0  0  0
    9.1509   -7.0487    0.0000 C   0  0  0  0  0  0  0  0  0  0  0  0
    8.5665   -6.5907    0.0000 O   0  0  0  0  0  0  0  0  0  0  0  0
    7.8474   -6.1864    0.0000 C   0  0  0  0  0  0  0  0  0  0  0  0
    8.8980   -5.5312    0.0000 O   0  0  0  0  0  0  0  0  0  0  0  0
  1  2  1  0  0  0  0
  2  3  1  0  0  0  0
  3  4  1  0  0  0  0
  4  5  1  0  0  0  0
  5  6  1  0  0  0  0
  6  7  1  0  0  0  0
  7  8  1  0  0  0  0
  8  9  1  0  0  0  0
  9 10  1  0  0  0  0
 11 12  1  0  0  0  0
  1 10  1  0  0  0  0
  1 11  1  0  0  0  0
 12  7  1  0  0  0  0
  2  8  1  0  0  0  0
  2  7  1  0  0  0  0
  9 13  2  0  0  0  0
M  END
>  <cdx:fragmentId>
2387

$$$$
