556685.cdx
  Mrv1902 05222410222D          

  7  7  0  0  0  0            999 V2000
    7.8961   -5.3629    0.0000 C   0  0  0  0  0  0  0  0  0  0  0  0
    7.8961   -6.1879    0.0000 C   0  0  0  0  0  0  0  0  0  0  0  0
    7.1816   -6.6004    0.0000 C   0  0  0  0  0  0  0  0  0  0  0  0
    6.4672   -6.1879    0.0000 C   0  0  0  0  0  0  0  0  0  0  0  0
    6.4672   -5.3629    0.0000 C   0  0  0  0  0  0  0  0  0  0  0  0
    7.1816   -4.9504    0.0000 C   0  0  0  0  0  0  0  0  0  0  0  0
    8.6106   -4.9504    0.0000 O   0  0  0  0  0  0  0  0  0  0  0  0
  1  2  1  0  0  0  0
  2  3  1  0  0  0  0
  3  4  2  0  0  0  0
  4  5  1  0  0  0  0
  5  6  1  0  0  0  0
  1  6  1  0  0  0  0
  1  7  1  0  0  0  0
M  END
>  <cdx:groupId>
2452

>  <cdx:fragmentId>
2434

$$$$
