556697.cdx
  Mrv1902 05222410202D          

 11 12  0  0  0  0            999 V2000
   14.7586   -7.2038    0.0000 C   0  0  0  0  0  0  0  0  0  0  0  0
   15.4731   -7.6163    0.0000 C   0  0  0  0  0  0  0  0  0  0  0  0
   15.4731   -8.4413    0.0000 C   0  0  0  0  0  0  0  0  0  0  0  0
   14.7586   -8.8538    0.0000 C   0  0  0  0  0  0  0  0  0  0  0  0
   14.0441   -8.4413    0.0000 C   0  0  0  0  0  0  0  0  0  0  0  0
   14.0441   -7.6163    0.0000 C   0  0  0  0  0  0  0  0  0  0  0  0
   14.4230   -8.0292    0.0000 C   0  0  0  0  0  0  0  0  0  0  0  0
   16.1875   -8.8538    0.0000 C   0  0  0  0  0  0  0  0  0  0  0  0
   16.1875   -9.6788    0.0000 C   0  0  0  0  0  0  0  0  0  0  0  0
   16.9020   -8.4413    0.0000 C   0  0  0  0  0  0  0  0  0  0  0  0
   16.1875   -7.2038    0.0000 C   0  0  0  0  0  0  0  0  0  0  0  0
  1  2  1  0  0  0  0
  2  3  1  0  0  0  0
  3  4  1  0  0  0  0
  4  5  1  0  0  0  0
  5  6  1  0  0  0  0
  1  6  1  0  0  0  0
  1  7  1  0  0  0  0
  7  4  1  0  0  0  0
  8  9  2  0  0  0  0
  8 10  1  0  0  0  0
  3  8  1  0  0  0  0
  2 11  1  0  0  0  0
M  END
>  <cdx:groupId>
2488

>  <cdx:fragmentId>
2457

$$$$
