556734.cdx
  Mrv1902 05222410202D          

  9 10  0  0  0  0            999 V2000
   16.3310   -7.8213    0.0000 C   0  0  0  0  0  0  0  0  0  0  0  0
   16.8160   -8.4887    0.0000 C   0  0  0  0  0  0  0  0  0  0  0  0
   16.3310   -9.1562    0.0000 C   0  0  0  0  0  0  0  0  0  0  0  0
   15.5464   -8.9012    0.0000 C   0  0  0  0  0  0  0  0  0  0  0  0
   14.8320   -9.3137    0.0000 C   0  0  0  0  0  0  0  0  0  0  0  0
   14.1175   -8.9012    0.0000 C   0  0  0  0  0  0  0  0  0  0  0  0
   14.1175   -8.0762    0.0000 C   0  0  0  0  0  0  0  0  0  0  0  0
   14.8320   -7.6637    0.0000 C   0  0  0  0  0  0  0  0  0  0  0  0
   15.5464   -8.0762    0.0000 C   0  0  0  0  0  0  0  0  0  0  0  0
  1  2  1  0  0  0  0
  2  3  2  0  0  0  0
  3  4  1  0  0  0  0
  4  5  1  0  0  0  0
  5  6  1  0  0  0  0
  6  7  1  0  0  0  0
  7  8  1  0  0  0  0
  8  9  1  0  0  0  0
  1  9  1  0  0  0  0
  4  9  1  0  0  0  0
M  END
>  <cdx:groupId>
2565

>  <cdx:fragmentId>
2540

$$$$
