556729.cdx
  Mrv1902 05222410232D          

 13 15  0  0  0  0            999 V2000
   15.4912   -9.2389    0.0000 C   0  0  0  0  0  0  0  0  0  0  0  0
   16.1979   -8.8132    0.0000 C   0  0  0  0  0  0  0  0  0  0  0  0
   16.8752   -8.4189    0.0000 C   0  0  0  0  0  0  0  0  0  0  0  0
   16.8742   -7.6145    0.0000 C   0  0  0  0  0  0  0  0  0  0  0  0
   16.1781   -7.2114    0.0000 C   0  0  0  0  0  0  0  0  0  0  0  0
   15.4811   -7.6129    0.0000 C   0  0  0  0  0  0  0  0  0  0  0  0
   14.7767   -8.0014    0.0000 C   0  0  0  0  0  0  0  0  0  0  0  0
   14.0623   -8.4139    0.0000 C   0  0  0  0  0  0  0  0  0  0  0  0
   14.0623   -9.2389    0.0000 C   0  0  0  0  0  0  0  0  0  0  0  0
   14.7767   -9.6514    0.0000 C   0  0  0  0  0  0  0  0  0  0  0  0
   15.4912   -8.4139    0.0000 C   0  0  0  0  0  0  0  0  0  0  0  0
   16.4391   -7.8132    0.0000 C   0  0  0  0  0  0  0  0  0  0  0  0
   16.2057   -8.0014    0.0000 C   0  0  0  0  0  0  0  0  0  0  0  0
  1  2  1  0  0  0  0
  2  3  1  0  0  0  0
  3  4  1  0  0  0  0
  4  5  1  0  0  0  0
  5  6  1  0  0  0  0
  6  7  1  0  0  0  0
  7  8  1  0  0  0  0
  8  9  1  0  0  0  0
  9 10  1  0  0  0  0
  1 10  1  0  0  0  0
  1 11  1  0  0  0  0
 11  7  1  0  0  0  0
  6 12  1  0  0  0  0
 12  2  1  0  0  0  0
 11 13  2  0  0  0  0
M  END
>  <cdx:groupId>
2532

>  <cdx:fragmentId>
2494

$$$$
