20055680.cdx
  Mrv1902 05222410232D          

 37 42  0  0  0  0            999 V2000
    9.9439  -15.0787    0.0000 C   0  0  0  0  0  0  0  0  0  0  0  0
    9.1370  -14.9072    0.0000 C   0  0  0  0  0  0  0  0  0  0  0  0
   10.1989  -15.8633    0.0000 O   0  0  0  0  0  0  0  0  0  0  0  0
   10.5273  -14.4953    0.0000 O   0  0  0  0  0  0  0  0  0  0  0  0
    6.6685  -13.8676    0.0000 C   0  0  1  0  0  0  0  0  0  0  0  0
    5.9540  -14.2801    0.0000 C   0  0  1  0  0  0  0  0  0  0  0  0
    5.9540  -13.4551    0.0000 O   0  0  0  0  0  0  0  0  0  0  0  0
    5.2395  -13.8676    0.0000 C   0  0  2  0  0  0  0  0  0  0  0  0
    4.5251  -14.2801    0.0000 C   0  0  0  0  0  0  0  0  0  0  0  0
    4.5251  -15.1051    0.0000 O   0  0  0  0  0  0  0  0  0  0  0  0
    5.2395  -15.5176    0.0000 C   0  0  2  0  0  0  0  0  0  0  0  0
    5.9540  -15.1051    0.0000 C   0  0  2  0  0  0  0  0  0  0  0  0
    6.6685  -15.5176    0.0000 C   0  0  0  0  0  0  0  0  0  0  0  0
    7.3829  -15.1051    0.0000 C   0  0  0  0  0  0  0  0  0  0  0  0
    7.3829  -14.2801    0.0000 C   0  0  2  0  0  0  0  0  0  0  0  0
    8.0974  -13.8676    0.0000 C   0  0  1  0  0  0  0  0  0  0  0  0
    8.8820  -14.1226    0.0000 C   0  0  1  0  0  0  0  0  0  0  0  0
    9.3670  -13.4551    0.0000 O   0  0  0  0  0  0  0  0  0  0  0  0
    8.8820  -12.7877    0.0000 C   0  0  0  0  0  0  0  0  0  0  0  0
    8.0974  -13.0426    0.0000 C   0  0  2  0  0  0  0  0  0  0  0  0
    7.3829  -12.6301    0.0000 C   0  0  0  0  0  0  0  0  0  0  0  0
    6.6685  -13.0426    0.0000 C   0  0  0  0  0  0  0  0  0  0  0  0
    5.9540  -12.6301    0.0000 O   0  0  0  0  0  0  0  0  0  0  0  0
    3.8106  -13.8676    0.0000 O   0  0  0  0  0  0  0  0  0  0  0  0
    8.7105  -11.9807    0.0000 C   0  0  0  0  0  0  0  0  0  0  0  0
    9.4951  -12.2356    0.0000 C   0  0  0  0  0  0  0  0  0  0  0  0
    8.0974  -14.6926    0.0000 C   0  0  0  0  0  0  0  0  0  0  0  0
    5.9540  -15.9301    0.0000 C   0  0  0  0  0  0  0  0  0  0  0  0
    6.6685  -14.6926    0.0000 C   0  0  0  0  0  0  0  0  0  0  0  0
    4.8270  -17.6122    0.0000 O   0  0  0  0  0  0  0  0  0  0  0  0
    4.5721  -16.8275    0.0000 C   0  0  0  0  0  0  0  0  0  0  0  0
    5.2395  -16.3426    0.0000 C   0  0  0  0  0  0  0  0  0  0  0  0
    5.9070  -16.8275    0.0000 C   0  0  0  0  0  0  0  0  0  0  0  0
    5.6520  -17.6122    0.0000 C   0  0  0  0  0  0  0  0  0  0  0  0
    4.8270  -13.1531    0.0000 H   0  0  0  0  0  0  0  0  0  0  0  0
    7.3829  -13.4551    0.0000 H   0  0  0  0  0  0  0  0  0  0  0  0
    8.1837  -12.2221    0.0000 H   0  0  0  0  0  0  0  0  0  0  0  0
  1  2  1  0  0  0  0
  1  3  2  0  0  0  0
  1  4  1  0  0  0  0
  5  6  1  0  0  0  0
  6  7  1  1  0  0  0
  7  8  1  0  0  0  0
  8  9  1  0  0  0  0
  9 10  1  0  0  0  0
 10 11  1  0  0  0  0
 11 12  1  0  0  0  0
 12 13  1  0  0  0  0
 13 14  1  0  0  0  0
 14 15  1  0  0  0  0
 15 16  1  0  0  0  0
 16 17  1  0  0  0  0
 17 18  1  0  0  0  0
 18 19  1  0  0  0  0
 19 20  1  0  0  0  0
 20 21  1  0  0  0  0
 21 22  1  0  0  0  0
  5 22  1  0  0  0  0
  5 15  1  0  0  0  0
 16 20  1  0  0  0  0
  6 12  1  0  0  0  0
  6  8  1  0  0  0  0
 22 23  2  0  0  0  0
  9 24  2  0  0  0  0
 19 25  1  0  0  0  0
 19 26  1  0  0  0  0
 16 27  1  1  0  0  0
 12 28  1  6  0  0  0
  5 29  1  1  0  0  0
 30 31  1  0  0  0  0
 31 32  2  0  0  0  0
 32 33  1  0  0  0  0
 33 34  2  0  0  0  0
 30 34  1  0  0  0  0
 11 32  1  6  0  0  0
 17  2  1  1  0  0  0
  8 35  1  6  0  0  0
 15 36  1  6  0  0  0
 20 37  1  6  0  0  0
M  END
>  <cdx:groupId>
124954

>  <cdx:fragmentId>
124849

$$$$
