556920.cdx
  Mrv1902 05222410252D          

 17 18  0  0  0  0            999 V2000
   16.4351   -8.8255    0.0000 O   0  0  0  0  0  0  0  0  0  0  0  0
   16.9200   -8.1580    0.0000 C   0  0  0  0  0  0  0  0  0  0  0  0
   16.4351   -7.4906    0.0000 C   0  0  0  0  0  0  0  0  0  0  0  0
   15.6504   -7.7455    0.0000 C   0  0  0  0  0  0  0  0  0  0  0  0
   14.9360   -7.3330    0.0000 C   0  0  0  0  0  0  0  0  0  0  0  0
   14.2215   -7.7455    0.0000 C   0  0  0  0  0  0  0  0  0  0  0  0
   14.2215   -8.5705    0.0000 C   0  0  0  0  0  0  0  0  0  0  0  0
   14.9360   -8.9830    0.0000 C   0  0  0  0  0  0  0  0  0  0  0  0
   15.6504   -8.5705    0.0000 C   0  0  0  0  0  0  0  0  0  0  0  0
   17.7450   -8.1580    0.0000 O   0  0  0  0  0  0  0  0  0  0  0  0
   15.6504  -10.2205    0.0000 C   0  0  0  0  0  0  0  0  0  0  0  0
   14.9360   -9.8080    0.0000 C   0  0  0  0  0  0  0  0  0  0  0  0
   14.2215  -10.2205    0.0000 C   0  0  0  0  0  0  0  0  0  0  0  0
   16.6900   -6.7060    0.0000 C   0  0  0  0  0  0  0  0  0  0  0  0
   13.8090   -9.2850    0.0000 C   0  0  0  0  0  0  0  0  0  0  0  0
   13.3965   -8.5705    0.0000 C   0  0  0  0  0  0  0  0  0  0  0  0
   12.9840   -9.2850    0.0000 C   0  0  0  0  0  0  0  0  0  0  0  0
  1  2  1  0  0  0  0
  2  3  1  0  0  0  0
  3  4  1  0  0  0  0
  4  5  1  0  0  0  0
  5  6  1  0  0  0  0
  6  7  1  0  0  0  0
  7  8  1  0  0  0  0
  8  9  1  0  0  0  0
  4  9  1  0  0  0  0
  1  9  1  0  0  0  0
  2 10  2  0  0  0  0
 11 12  2  0  0  0  0
 12 13  1  0  0  0  0
  8 12  1  0  0  0  0
  3 14  2  0  0  0  0
  7 15  1  0  0  0  0
 16 17  2  0  0  0  0
  7 16  1  0  0  0  0
M  END
>  <cdx:groupId>
2623

>  <cdx:fragmentId>
2574

$$$$
