5570.cdx
  Mrv1902 05222410282D          

 10 10  0  0  0  0            999 V2000
    7.6951   -6.6494    0.0000 C   0  0  0  0  0  0  0  0  0  0  0  0
    6.2782   -3.3442    0.0000 O   0  5  0  0  0  0  0  0  0  0  0  0
    5.5592   -4.5791    0.0000 O   0  0  0  0  0  0  0  0  0  0  0  0
    6.2752   -4.1692    0.0000 C   0  0  0  0  0  0  0  0  0  0  0  0
    7.6981   -5.8244    0.0000 N   0  3  0  0  0  0  0  0  0  0  0  0
    8.4141   -5.4145    0.0000 C   0  0  0  0  0  0  0  0  0  0  0  0
    8.4171   -4.5895    0.0000 C   0  0  0  0  0  0  0  0  0  0  0  0
    7.7041   -4.1744    0.0000 C   0  0  0  0  0  0  0  0  0  0  0  0
    6.9881   -4.5843    0.0000 C   0  0  0  0  0  0  0  0  0  0  0  0
    6.9851   -5.4093    0.0000 C   0  0  0  0  0  0  0  0  0  0  0  0
  5  1  1  0  0  0  0
  9  4  1  0  0  0  0
  4  2  1  0  0  0  0
  4  3  2  0  0  0  0
 10  5  1  0  0  0  0
  6  5  2  0  0  0  0
  7  6  1  0  0  0  0
  8  7  2  0  0  0  0
  9  8  1  0  0  0  0
 10  9  2  0  0  0  0
M  CHG  2   2  -1   5   1
M  END
>  <cdx:fragmentId>
5

$$$$
