557086.cdx
  Mrv1902 05222410262D          

  7  8  0  0  0  0            999 V2000
    7.9254   -6.7012    0.0000 C   0  0  0  0  0  0  0  0  0  0  0  0
    7.1004   -6.7012    0.0000 C   0  0  0  0  0  0  0  0  0  0  0  0
    7.1004   -5.8762    0.0000 C   0  0  0  0  0  0  0  0  0  0  0  0
    7.9254   -5.8762    0.0000 C   0  0  0  0  0  0  0  0  0  0  0  0
    8.6399   -6.2887    0.0000 C   0  0  0  0  0  0  0  0  0  0  0  0
    8.1390   -5.0793    0.0000 C   0  0  0  0  0  0  0  0  0  0  0  0
    8.1390   -7.4981    0.0000 C   0  0  0  0  0  0  0  0  0  0  0  0
  1  2  1  0  0  0  0
  2  3  1  0  0  0  0
  3  4  1  0  0  0  0
  4  5  1  0  0  0  0
  1  5  1  0  0  0  0
  1  4  1  0  0  0  0
  4  6  1  0  0  0  0
  1  7  1  0  0  0  0
M  END
>  <cdx:fragmentId>
2697

$$$$
