557153.cdx
  Mrv1902 05222410232D          

 11 12  0  0  0  0            999 V2000
    7.7609   -5.5064    0.0000 C   0  0  0  0  0  0  0  0  0  0  0  0
    8.5455   -5.7613    0.0000 C   0  0  0  0  0  0  0  0  0  0  0  0
    8.5455   -6.5863    0.0000 C   0  0  0  0  0  0  0  0  0  0  0  0
    7.7609   -6.8413    0.0000 C   0  0  0  0  0  0  0  0  0  0  0  0
    7.2760   -6.1738    0.0000 C   0  0  0  0  0  0  0  0  0  0  0  0
    6.8635   -6.8883    0.0000 C   0  0  0  0  0  0  0  0  0  0  0  0
    6.0385   -6.8883    0.0000 C   0  0  0  0  0  0  0  0  0  0  0  0
    5.6260   -6.1738    0.0000 C   0  0  0  0  0  0  0  0  0  0  0  0
    6.0385   -5.4594    0.0000 C   0  0  0  0  0  0  0  0  0  0  0  0
    6.8635   -5.4594    0.0000 C   0  0  0  0  0  0  0  0  0  0  0  0
    9.2130   -5.2764    0.0000 O   0  0  0  0  0  0  0  0  0  0  0  0
  1  2  1  0  0  0  0
  2  3  1  0  0  0  0
  3  4  1  0  0  0  0
  4  5  1  0  0  0  0
  5  6  1  0  0  0  0
  6  7  1  0  0  0  0
  7  8  1  0  0  0  0
  8  9  1  0  0  0  0
  9 10  1  0  0  0  0
  1  5  1  0  0  0  0
 10  5  1  0  0  0  0
  2 11  2  0  0  0  0
M  END
>  <cdx:fragmentId>
2722

$$$$
