5573.cdx
  Mrv1902 05222410272D          

  9  9  0  0  0  0            999 V2000
    6.1289   -7.9200    0.0000 C   0  0  0  0  0  0  0  0  0  0  0  0
    6.1289   -8.7450    0.0000 C   0  0  0  0  0  0  0  0  0  0  0  0
    6.8434   -9.1575    0.0000 C   0  0  0  0  0  0  0  0  0  0  0  0
    7.5578   -8.7450    0.0000 C   0  0  0  0  0  0  0  0  0  0  0  0
    7.5578   -7.9200    0.0000 C   0  0  0  0  0  0  0  0  0  0  0  0
    6.8434   -7.5075    0.0000 C   0  0  0  0  0  0  0  0  0  0  0  0
    6.8434   -9.9825    0.0000 O   0  0  0  0  0  0  0  0  0  0  0  0
    6.8434   -6.6825    0.0000 C   0  0  0  0  0  0  0  0  0  0  0  0
    7.5578   -6.2700    0.0000 O   0  0  0  0  0  0  0  0  0  0  0  0
  1  2  2  0  0  0  0
  2  3  1  0  0  0  0
  3  4  2  0  0  0  0
  4  5  1  0  0  0  0
  5  6  2  0  0  0  0
  6  1  1  0  0  0  0
  3  7  1  0  0  0  0
  6  8  1  0  0  0  0
  8  9  2  0  0  0  0
M  END
>  <cdx:fragmentId>
5

$$$$
