557439.cdx
  Mrv1902 05222410222D          

 18 17  0  0  0  0            999 V2000
   10.4245   -8.5903    0.0000 C   0  0  0  0  0  0  0  0  0  0  0  0
   11.1390   -9.0028    0.0000 C   0  0  0  0  0  0  0  0  0  0  0  0
   11.8535   -8.5903    0.0000 C   0  0  0  0  0  0  0  0  0  0  0  0
   12.5679   -9.0028    0.0000 C   0  0  0  0  0  0  0  0  0  0  0  0
   13.2824   -8.5903    0.0000 C   0  0  0  0  0  0  0  0  0  0  0  0
   13.9969   -9.0028    0.0000 C   0  0  0  0  0  0  0  0  0  0  0  0
   14.7113   -8.5903    0.0000 C   0  0  0  0  0  0  0  0  0  0  0  0
   15.4258   -9.0028    0.0000 C   0  0  0  0  0  0  0  0  0  0  0  0
   16.1403   -8.5903    0.0000 C   0  0  0  0  0  0  0  0  0  0  0  0
   16.8548   -9.0028    0.0000 C   0  0  0  0  0  0  0  0  0  0  0  0
   17.5692   -8.5903    0.0000 C   0  0  0  0  0  0  0  0  0  0  0  0
   18.2837   -9.0028    0.0000 C   0  0  0  0  0  0  0  0  0  0  0  0
   18.9982   -8.5903    0.0000 C   0  0  0  0  0  0  0  0  0  0  0  0
   19.7126   -8.1778    0.0000 C   0  0  0  0  0  0  0  0  0  0  0  0
   20.4271   -7.7653    0.0000 C   0  0  0  0  0  0  0  0  0  0  0  0
   21.1416   -8.1778    0.0000 C   0  0  0  0  0  0  0  0  0  0  0  0
   21.8561   -7.7653    0.0000 C   0  0  0  0  0  0  0  0  0  0  0  0
    9.7100   -9.0028    0.0000 O   0  0  0  0  0  0  0  0  0  0  0  0
  1  2  1  0  0  0  0
  2  3  1  0  0  0  0
  3  4  1  0  0  0  0
  4  5  1  0  0  0  0
  5  6  1  0  0  0  0
  6  7  1  0  0  0  0
  7  8  1  0  0  0  0
  8  9  1  0  0  0  0
  9 10  1  0  0  0  0
 10 11  1  0  0  0  0
 11 12  1  0  0  0  0
 12 13  1  0  0  0  0
 13 14  3  0  0  0  0
 14 15  1  0  0  0  0
 15 16  1  0  0  0  0
 16 17  1  0  0  0  0
  1 18  1  0  0  0  0
M  END
>  <cdx:groupId>
2922

>  <cdx:fragmentId>
2872

$$$$
