557612.cdx
  Mrv1902 05222410222D          

 11 11  0  0  0  0            999 V2000
   15.2189   -8.8835    0.0000 C   0  0  0  0  0  0  0  0  0  0  0  0
   15.9334   -8.4710    0.0000 C   0  0  0  0  0  0  0  0  0  0  0  0
   15.9334   -7.6460    0.0000 C   0  0  0  0  0  0  0  0  0  0  0  0
   15.2189   -7.2335    0.0000 C   0  0  0  0  0  0  0  0  0  0  0  0
   14.5045   -7.6460    0.0000 C   0  0  0  0  0  0  0  0  0  0  0  0
   14.5045   -8.4710    0.0000 C   0  0  0  0  0  0  0  0  0  0  0  0
   13.7900   -7.2335    0.0000 C   0  0  0  0  0  0  0  0  0  0  0  0
   16.6479   -8.8835    0.0000 C   0  0  0  0  0  0  0  0  0  0  0  0
   16.6479   -9.7085    0.0000 C   0  0  0  0  0  0  0  0  0  0  0  0
   17.3624   -8.4710    0.0000 C   0  0  0  0  0  0  0  0  0  0  0  0
   13.7900   -8.8835    0.0000 O   0  0  0  0  0  0  0  0  0  0  0  0
  1  2  1  0  0  0  0
  2  3  1  0  0  0  0
  3  4  1  0  0  0  0
  4  5  1  0  0  0  0
  5  6  1  0  0  0  0
  1  6  1  0  0  0  0
  5  7  2  0  0  0  0
  8  9  1  0  0  0  0
  8 10  1  0  0  0  0
  2  8  1  0  0  0  0
  6 11  2  0  0  0  0
M  END
>  <cdx:groupId>
2961

>  <cdx:fragmentId>
2931

$$$$
