557663.cdx
  Mrv1902 05222410182D          

 15 15  0  0  0  0            999 V2000
    8.5380   -7.0702    0.0000 C   0  0  0  0  0  0  0  0  0  0  0  0
    8.5380   -6.2452    0.0000 C   0  0  0  0  0  0  0  0  0  0  0  0
    7.8235   -5.8327    0.0000 C   0  0  0  0  0  0  0  0  0  0  0  0
    7.1090   -6.2452    0.0000 C   0  0  0  0  0  0  0  0  0  0  0  0
    7.1090   -7.0702    0.0000 C   0  0  0  0  0  0  0  0  0  0  0  0
    7.8235   -7.4827    0.0000 C   0  0  0  0  0  0  0  0  0  0  0  0
    7.1090   -7.8952    0.0000 C   0  0  0  0  0  0  0  0  0  0  0  0
    9.2524   -5.8327    0.0000 C   0  0  0  0  0  0  0  0  0  0  0  0
    9.2524   -5.0077    0.0000 C   0  0  0  0  0  0  0  0  0  0  0  0
    9.9669   -6.2452    0.0000 C   0  0  0  0  0  0  0  0  0  0  0  0
    9.2524   -7.4827    0.0000 O   0  0  0  0  0  0  0  0  0  0  0  0
    6.3945   -7.4827    0.0000 O   0  0  0  0  0  0  0  0  0  0  0  0
    5.6801   -7.0702    0.0000 C   0  0  0  0  0  0  0  0  0  0  0  0
    5.6801   -6.2452    0.0000 O   0  0  0  0  0  0  0  0  0  0  0  0
    4.9656   -7.4827    0.0000 C   0  0  0  0  0  0  0  0  0  0  0  0
  1  2  1  0  0  0  0
  2  3  1  0  0  0  0
  3  4  1  0  0  0  0
  4  5  1  0  0  0  0
  5  6  1  0  0  0  0
  1  6  1  0  0  0  0
  5  7  1  0  0  0  0
  8  9  1  0  0  0  0
  8 10  1  0  0  0  0
  2  8  1  0  0  0  0
  1 11  2  0  0  0  0
 13 14  2  0  0  0  0
 13 15  1  0  0  0  0
 12 13  1  0  0  0  0
  5 12  1  0  0  0  0
M  END
>  <cdx:fragmentId>
3001

$$$$
