557869.cdx
  Mrv1902 05222410202D          

  9  9  0  0  0  0            999 V2000
    7.4734   -5.6151    0.0000 P   0  0  0  0  0  0  0  0  0  0  0  0
    8.1870   -5.2011    0.0000 Cl  0  0  0  0  0  0  0  0  0  0  0  0
    6.7581   -5.2041    0.0000 Cl  0  0  0  0  0  0  0  0  0  0  0  0
    7.4752   -6.4401    0.0000 C   0  0  0  0  0  0  0  0  0  0  0  0
    8.1905   -6.8511    0.0000 C   0  0  0  0  0  0  0  0  0  0  0  0
    8.1923   -7.6761    0.0000 C   0  0  0  0  0  0  0  0  0  0  0  0
    7.4787   -8.0901    0.0000 C   0  0  0  0  0  0  0  0  0  0  0  0
    6.7634   -7.6791    0.0000 C   0  0  0  0  0  0  0  0  0  0  0  0
    6.7616   -6.8541    0.0000 C   0  0  0  0  0  0  0  0  0  0  0  0
  1  2  1  0  0  0  0
  1  3  1  0  0  0  0
  4  5  1  0  0  0  0
  5  6  1  0  0  0  0
  6  7  1  0  0  0  0
  7  8  1  0  0  0  0
  8  9  1  0  0  0  0
  4  9  1  0  0  0  0
  1  4  1  0  0  0  0
M  END
>  <cdx:fragmentId>
3345

$$$$
