557854.cdx
  Mrv1902 05222410202D          

 12 12  0  0  0  0            999 V2000
   16.5362   -8.4413    0.0000 C   0  0  0  0  0  0  0  0  0  0  0  0
   16.5362   -7.6163    0.0000 C   0  0  0  0  0  0  0  0  0  0  0  0
   17.2506   -7.2038    0.0000 C   0  0  0  0  0  0  0  0  0  0  0  0
   17.9651   -7.6163    0.0000 C   0  0  0  0  0  0  0  0  0  0  0  0
   17.9651   -8.4413    0.0000 C   0  0  0  0  0  0  0  0  0  0  0  0
   17.2506   -8.8538    0.0000 C   0  0  0  0  0  0  0  0  0  0  0  0
   15.8217   -8.8538    0.0000 C   0  0  0  0  0  0  0  0  0  0  0  0
   15.1072   -8.4413    0.0000 C   0  0  0  0  0  0  0  0  0  0  0  0
   14.3928   -8.8538    0.0000 C   0  0  0  0  0  0  0  0  0  0  0  0
   13.6783   -8.4413    0.0000 C   0  0  0  0  0  0  0  0  0  0  0  0
   12.9638   -8.8538    0.0000 C   0  0  0  0  0  0  0  0  0  0  0  0
   14.3928   -9.6788    0.0000 C   0  0  0  0  0  0  0  0  0  0  0  0
  1  2  1  0  0  0  0
  2  3  1  0  0  0  0
  3  4  1  0  0  0  0
  4  5  1  0  0  0  0
  5  6  1  0  0  0  0
  1  6  1  0  0  0  0
  7  8  1  0  0  0  0
  8  9  1  0  0  0  0
  9 10  1  0  0  0  0
 10 11  1  0  0  0  0
  9 12  1  0  0  0  0
  1  7  1  0  0  0  0
M  END
>  <cdx:groupId>
3253

>  <cdx:fragmentId>
3220

$$$$
