557859.cdx
  Mrv1902 05222410262D          

 11 10  0  0  0  0            999 V2000
    5.0606   -4.0689    0.0000 O   0  0  0  0  0  0  0  0  0  0  0  0
    5.7750   -3.6564    0.0000 C   0  0  0  0  0  0  0  0  0  0  0  0
    6.4856   -3.2373    0.0000 C   0  0  0  0  0  0  0  0  0  0  0  0
    7.2039   -3.6430    0.0000 C   0  0  0  0  0  0  0  0  0  0  0  0
    7.9145   -3.2238    0.0000 C   0  0  0  0  0  0  0  0  0  0  0  0
    8.6328   -3.6296    0.0000 C   0  0  0  0  0  0  0  0  0  0  0  0
    8.6405   -4.4546    0.0000 C   0  0  0  0  0  0  0  0  0  0  0  0
    9.3433   -3.2104    0.0000 C   0  0  0  0  0  0  0  0  0  0  0  0
    6.1875   -4.3709    0.0000 C   0  0  0  0  0  0  0  0  0  0  0  0
    5.3592   -2.9439    0.0000 C   0  0  0  0  0  0  0  0  0  0  0  0
    5.7683   -2.2275    0.0000 C   0  0  0  0  0  0  0  0  0  0  0  0
  1  2  1  0  0  0  0
  2  3  1  0  0  0  0
  3  4  1  0  0  0  0
  4  5  1  0  0  0  0
  5  6  1  0  0  0  0
  6  7  2  0  0  0  0
  6  8  1  0  0  0  0
  2  9  1  0  0  0  0
  2 10  1  0  0  0  0
 10 11  1  0  0  0  0
M  END
>  <cdx:fragmentId>
5

$$$$
