557892.cdx
  Mrv1902 05222410182D          

 22 23  0  0  0  0            999 V2000
   17.4650   -7.7714    0.0000 C   0  0  0  0  0  0  0  0  0  0  0  0
   18.1794   -8.1839    0.0000 C   0  0  0  0  0  0  0  0  0  0  0  0
   18.1794   -7.3589    0.0000 C   0  0  0  0  0  0  0  0  0  0  0  0
   16.7505   -8.1839    0.0000 C   0  0  0  0  0  0  0  0  0  0  0  0
   16.7505   -9.0089    0.0000 O   0  0  0  0  0  0  0  0  0  0  0  0
   16.0360   -7.7714    0.0000 O   0  0  0  0  0  0  0  0  0  0  0  0
   16.7505   -7.3589    0.0000 C   0  0  0  0  0  0  0  0  0  0  0  0
   14.8929   -8.4314    0.0000 C   0  0  0  0  0  0  0  0  0  0  0  0
   14.8929   -9.2564    0.0000 C   0  0  0  0  0  0  0  0  0  0  0  0
   14.1784   -9.6689    0.0000 C   0  0  0  0  0  0  0  0  0  0  0  0
   13.4639   -9.2564    0.0000 C   0  0  0  0  0  0  0  0  0  0  0  0
   13.4639   -8.4314    0.0000 C   0  0  0  0  0  0  0  0  0  0  0  0
   14.1784   -8.0189    0.0000 C   0  0  0  0  0  0  0  0  0  0  0  0
   12.7495   -9.6689    0.0000 C   0  0  0  0  0  0  0  0  0  0  0  0
   14.1784   -7.1939    0.0000 C   0  0  0  0  0  0  0  0  0  0  0  0
   14.1784   -6.3689    0.0000 C   0  0  0  0  0  0  0  0  0  0  0  0
   14.8929   -6.7814    0.0000 C   0  0  0  0  0  0  0  0  0  0  0  0
   13.4639   -6.7814    0.0000 C   0  0  0  0  0  0  0  0  0  0  0  0
   15.6074   -9.6689    0.0000 C   0  0  0  0  0  0  0  0  0  0  0  0
   16.3218  -10.0814    0.0000 C   0  0  0  0  0  0  0  0  0  0  0  0
   15.6074  -10.4939    0.0000 C   0  0  0  0  0  0  0  0  0  0  0  0
   16.3218   -9.2564    0.0000 C   0  0  0  0  0  0  0  0  0  0  0  0
  1  2  1  0  0  0  0
  2  3  1  0  0  0  0
  1  3  1  0  0  0  0
  4  5  2  0  0  0  0
  4  6  1  0  0  0  0
  1  4  1  0  0  0  0
  1  7  1  0  0  0  0
  8  9  1  0  0  0  0
  9 10  2  0  0  0  0
 10 11  1  0  0  0  0
 11 12  2  0  0  0  0
 12 13  1  0  0  0  0
  8 13  2  0  0  0  0
 11 14  1  0  0  0  0
 15 16  1  0  0  0  0
 15 17  1  0  0  0  0
 15 18  1  0  0  0  0
 13 15  1  0  0  0  0
 19 20  1  0  0  0  0
 19 21  1  0  0  0  0
 19 22  1  0  0  0  0
  9 19  1  0  0  0  0
  6  8  1  0  0  0  0
M  END
>  <cdx:groupId>
3434

>  <cdx:fragmentId>
3384

$$$$
