557841.cdx
  Mrv1902 05222410202D          

 16 17  0  0  0  0            999 V2000
    7.3563   -6.5943    0.0000 S   0  0  0  0  0  0  0  0  0  0  0  0
    7.3563   -5.7693    0.0000 O   0  0  0  0  0  0  0  0  0  0  0  0
    8.0707   -7.0068    0.0000 O   0  0  0  0  0  0  0  0  0  0  0  0
    6.6418   -7.0068    0.0000 O   0  0  0  0  0  0  0  0  0  0  0  0
    8.7852   -6.5943    0.0000 C   0  0  0  0  0  0  0  0  0  0  0  0
    8.7852   -5.7693    0.0000 C   0  0  0  0  0  0  0  0  0  0  0  0
    9.4997   -5.3568    0.0000 C   0  0  0  0  0  0  0  0  0  0  0  0
   10.2141   -5.7693    0.0000 C   0  0  0  0  0  0  0  0  0  0  0  0
   10.2141   -6.5943    0.0000 C   0  0  0  0  0  0  0  0  0  0  0  0
    9.4997   -7.0068    0.0000 C   0  0  0  0  0  0  0  0  0  0  0  0
    5.9273   -6.5943    0.0000 C   0  0  0  0  0  0  0  0  0  0  0  0
    5.2128   -7.0068    0.0000 C   0  0  0  0  0  0  0  0  0  0  0  0
    4.4984   -6.5943    0.0000 C   0  0  0  0  0  0  0  0  0  0  0  0
    4.4984   -5.7693    0.0000 C   0  0  0  0  0  0  0  0  0  0  0  0
    5.2128   -5.3568    0.0000 C   0  0  0  0  0  0  0  0  0  0  0  0
    5.9273   -5.7693    0.0000 C   0  0  0  0  0  0  0  0  0  0  0  0
  1  2  2  0  0  0  0
  1  3  1  0  0  0  0
  1  4  1  0  0  0  0
  5  6  1  0  0  0  0
  6  7  1  0  0  0  0
  7  8  1  0  0  0  0
  8  9  1  0  0  0  0
  9 10  1  0  0  0  0
  5 10  1  0  0  0  0
  3  5  1  0  0  0  0
 11 12  1  0  0  0  0
 12 13  1  0  0  0  0
 13 14  1  0  0  0  0
 14 15  1  0  0  0  0
 15 16  1  0  0  0  0
 11 16  1  0  0  0  0
  4 11  1  0  0  0  0
M  END
>  <cdx:fragmentId>
3116

$$$$
