557839.cdx
  Mrv1902 05222410242D          

 17 18  0  0  0  0            999 V2000
    8.4931   -6.3400    0.0000 C   0  0  0  0  0  0  0  0  0  0  0  0
    9.2076   -6.7525    0.0000 C   0  0  0  0  0  0  0  0  0  0  0  0
    9.9220   -6.3400    0.0000 C   0  0  0  0  0  0  0  0  0  0  0  0
    9.9220   -5.5150    0.0000 C   0  0  0  0  0  0  0  0  0  0  0  0
    9.2076   -5.1025    0.0000 C   0  0  0  0  0  0  0  0  0  0  0  0
    8.4931   -5.5150    0.0000 C   0  0  0  0  0  0  0  0  0  0  0  0
    9.2076   -4.2775    0.0000 Cl  0  0  0  0  0  0  0  0  0  0  0  0
    9.2076   -7.5775    0.0000 Cl  0  0  0  0  0  0  0  0  0  0  0  0
    7.7786   -6.7525    0.0000 N   0  0  0  0  0  0  0  0  0  0  0  0
    7.0642   -5.5150    0.0000 O   0  0  0  0  0  0  0  0  0  0  0  0
    7.0642   -6.3400    0.0000 C   0  0  0  0  0  0  0  0  0  0  0  0
    6.3497   -7.5775    0.0000 C   0  0  0  0  0  0  0  0  0  0  0  0
    5.6352   -7.9900    0.0000 C   0  0  0  0  0  0  0  0  0  0  0  0
    4.9208   -7.5775    0.0000 C   0  0  0  0  0  0  0  0  0  0  0  0
    4.9208   -6.7525    0.0000 C   0  0  0  0  0  0  0  0  0  0  0  0
    5.6352   -6.3400    0.0000 C   0  0  0  0  0  0  0  0  0  0  0  0
    6.3497   -6.7525    0.0000 C   0  0  0  0  0  0  0  0  0  0  0  0
  9  1  1  0  0  0  0
 17 11  1  0  0  0  0
 11  9  1  0  0  0  0
 11 10  2  0  0  0  0
 17 12  1  0  0  0  0
 13 12  1  0  0  0  0
 14 13  1  0  0  0  0
 15 14  1  0  0  0  0
 16 15  1  0  0  0  0
 17 16  1  0  0  0  0
  1  2  1  0  0  0  0
  2  3  2  0  0  0  0
  3  4  1  0  0  0  0
  4  5  2  0  0  0  0
  5  6  1  0  0  0  0
  1  6  2  0  0  0  0
  5  7  1  0  0  0  0
  2  8  1  0  0  0  0
M  END
>  <cdx:fragmentId>
3051

$$$$
