15558051.cdx
  Mrv1902 05222410222D          

 18 19  0  0  0  0            999 V2000
    6.4812  -10.9989    0.0000 C   0  0  0  0  0  0  0  0  0  0  0  0
    5.7667  -11.4114    0.0000 C   0  0  0  0  0  0  0  0  0  0  0  0
    5.0522  -10.9989    0.0000 C   0  0  0  0  0  0  0  0  0  0  0  0
    6.4812  -10.1739    0.0000 O   0  0  0  0  0  0  0  0  0  0  0  0
    7.1956  -11.4114    0.0000 O   0  0  0  0  0  0  0  0  0  0  0  0
    5.0522  -10.1739    0.0000 C   0  0  0  0  0  0  0  0  0  0  0  0
    4.3378   -9.7614    0.0000 C   0  0  0  0  0  0  0  0  0  0  0  0
    4.3378   -8.9364    0.0000 C   0  0  0  0  0  0  0  0  0  0  0  0
    5.0522   -8.5239    0.0000 C   0  0  0  0  0  0  0  0  0  0  0  0
    5.7667   -8.9364    0.0000 C   0  0  0  0  0  0  0  0  0  0  0  0
    5.7667   -9.7614    0.0000 C   0  0  0  0  0  0  0  0  0  0  0  0
    7.9101  -10.9989    0.0000 C   0  0  0  0  0  0  0  0  0  0  0  0
    8.6246  -11.4114    0.0000 C   0  0  0  0  0  0  0  0  0  0  0  0
    9.3391  -10.9989    0.0000 C   0  0  0  0  0  0  0  0  0  0  0  0
   10.0535  -11.4114    0.0000 C   0  0  0  0  0  0  0  0  0  0  0  0
   10.0535  -12.2364    0.0000 C   0  0  0  0  0  0  0  0  0  0  0  0
    9.3391  -12.6489    0.0000 C   0  0  0  0  0  0  0  0  0  0  0  0
    8.6246  -12.2364    0.0000 C   0  0  0  0  0  0  0  0  0  0  0  0
  1  2  1  0  0  0  0
  2  3  2  0  0  0  0
  1  4  2  0  0  0  0
  1  5  1  0  0  0  0
  6  7  1  0  0  0  0
  7  8  2  0  0  0  0
  8  9  1  0  0  0  0
  9 10  2  0  0  0  0
 10 11  1  0  0  0  0
  6 11  2  0  0  0  0
  3  6  1  0  0  0  0
 12 13  1  0  0  0  0
 13 14  1  0  0  0  0
 14 15  2  0  0  0  0
 15 16  1  0  0  0  0
 16 17  2  0  0  0  0
 17 18  1  0  0  0  0
 13 18  2  0  0  0  0
  5 12  1  0  0  0  0
M  END
>  <cdx:fragmentId>
4370

$$$$
