55804.cdx
  Mrv1902 05222410192D          

 54 58  0  0  0  0            999 V2000
    5.3829  -11.1373    0.0000 S   0  0  0  0  0  0  0  0  0  0  0  0
    4.9458  -10.4376    0.0000 O   0  0  0  0  0  0  0  0  0  0  0  0
    5.8199  -11.8370    0.0000 O   0  0  0  0  0  0  0  0  0  0  0  0
    6.0825  -10.7002    0.0000 O   0  0  0  0  0  0  0  0  0  0  0  0
    4.6832  -11.5744    0.0000 O   0  0  0  0  0  0  0  0  0  0  0  0
    5.9965   -8.2267    0.0000 O   0  0  0  0  0  0  0  0  0  0  0  0
    6.7249   -8.6141    0.0000 C   0  0  2  0  0  0  0  0  0  0  0  0
    6.7536   -9.4386    0.0000 C   0  0  1  0  0  0  0  0  0  0  0  0
    6.0539   -9.8757    0.0000 C   0  0  2  0  0  0  0  0  0  0  0  0
    5.3255   -9.4883    0.0000 C   0  0  1  0  0  0  0  0  0  0  0  0
    5.2968   -8.6638    0.0000 C   0  0  1  0  0  0  0  0  0  0  0  0
    4.6258   -9.9254    0.0000 O   0  0  0  0  0  0  0  0  0  0  0  0
    3.8974   -9.5379    0.0000 S   0  0  0  0  0  0  0  0  0  0  0  0
    4.2848   -8.8096    0.0000 O   0  0  0  0  0  0  0  0  0  0  0  0
    3.5100  -10.2663    0.0000 O   0  0  0  0  0  0  0  0  0  0  0  0
    3.1690   -9.1505    0.0000 O   0  0  0  0  0  0  0  0  0  0  0  0
    7.4819   -9.8260    0.0000 O   0  0  0  0  0  0  0  0  0  0  0  0
    8.1993   -9.4185    0.0000 C   0  0  0  0  0  0  0  0  0  0  0  0
    8.9108   -9.8360    0.0000 C   0  0  0  0  0  0  0  0  0  0  0  0
    9.6282   -9.4286    0.0000 C   0  0  0  0  0  0  0  0  0  0  0  0
   10.3398   -9.8461    0.0000 C   0  0  0  0  0  0  0  0  0  0  0  0
    8.2051   -8.5935    0.0000 O   0  0  0  0  0  0  0  0  0  0  0  0
    9.6340   -8.6036    0.0000 C   0  0  0  0  0  0  0  0  0  0  0  0
    4.5684   -8.2764    0.0000 C   0  0  0  0  0  0  0  0  0  0  0  0
    4.5397   -7.4519    0.0000 O   0  0  0  0  0  0  0  0  0  0  0  0
    7.4246   -8.1770    0.0000 O   0  0  0  0  0  0  0  0  0  0  0  0
   11.3834   -5.1787    0.0000 H   0  0  0  0  0  0  0  0  0  0  0  0
    6.5906   -4.7126    0.0000 O   0  0  0  0  0  0  0  0  0  0  0  0
    5.3771   -5.4669    0.0000 O   0  0  0  0  0  0  0  0  0  0  0  0
    6.2017   -5.4409    0.0000 C   0  0  0  0  0  0  0  0  0  0  0  0
    6.6388   -6.1406    0.0000 C   0  0  0  0  0  0  0  0  0  0  0  0
    5.2470   -5.8176    0.0000 O   0  0  0  0  0  0  0  0  0  0  0  0
    5.6616   -7.1849    0.0000 O   0  0  0  0  0  0  0  0  0  0  0  0
    5.8498   -6.3817    0.0000 C   0  0  0  0  0  0  0  0  0  0  0  0
    9.0077   -6.4428    0.0000 H   0  0  0  0  0  0  0  0  0  0  0  0
    8.7379   -4.8293    0.0000 C   0  0  1  0  0  0  0  0  0  0  0  0
    8.0095   -4.4419    0.0000 C   0  0  0  0  0  0  0  0  0  0  0  0
    7.3098   -4.8790    0.0000 C   0  0  0  0  0  0  0  0  0  0  0  0
    7.3385   -5.7035    0.0000 C   0  0  1  0  0  0  0  0  0  0  0  0
    6.6675   -6.9651    0.0000 C   0  0  0  0  0  0  0  0  0  0  0  0
    7.3959   -7.3525    0.0000 C   0  0  2  0  0  0  0  0  0  0  0  0
    8.0956   -6.9154    0.0000 C   0  0  0  0  0  0  0  0  0  0  0  0
    8.0669   -6.0909    0.0000 C   0  0  1  0  0  0  0  0  0  0  0  0
    8.7666   -5.6538    0.0000 C   0  0  2  0  0  0  0  0  0  0  0  0
    9.4291   -6.1454    0.0000 C   0  0  0  0  0  0  0  0  0  0  0  0
   10.2265   -5.9340    0.0000 C   0  0  0  0  0  0  0  0  0  0  0  0
   10.5584   -5.1787    0.0000 C   0  0  1  0  0  0  0  0  0  0  0  0
   10.1749   -4.4483    0.0000 C   0  0  0  0  0  0  0  0  0  0  0  0
    9.3646   -4.2928    0.0000 C   0  0  2  0  0  0  0  0  0  0  0  0
    9.5425   -5.3900    0.0000 C   0  0  0  0  0  0  0  0  0  0  0  0
   10.6665   -3.7858    0.0000 C   0  0  0  0  0  0  0  0  0  0  0  0
    8.6702   -6.6536    0.0000 C   0  0  0  0  0  0  0  0  0  0  0  0
    9.1532   -3.4954    0.0000 O   0  0  0  0  0  0  0  0  0  0  0  0
    6.6240   -5.2910    0.0000 H   0  0  0  0  0  0  0  0  0  0  0  0
 47 27  1  1  0  0  0
 30 28  2  0  0  0  0
 30 29  1  0  0  0  0
 31 30  1  0  0  0  0
 34 32  2  0  0  0  0
 34 33  1  0  0  0  0
 31 34  1  0  0  0  0
 44 35  1  6  0  0  0
  1  2  2  0  0  0  0
  1  3  2  0  0  0  0
  1  4  1  0  0  0  0
  1  5  1  0  0  0  0
  6  7  1  0  0  0  0
  7  8  1  0  0  0  0
  8  9  1  0  0  0  0
  9 10  1  0  0  0  0
 10 11  1  0  0  0  0
  6 11  1  0  0  0  0
 13 14  2  0  0  0  0
 13 15  2  0  0  0  0
 13 16  1  0  0  0  0
 12 13  1  0  0  0  0
 10 12  1  6  0  0  0
 18 19  1  0  0  0  0
 19 20  1  0  0  0  0
 20 21  1  0  0  0  0
 18 22  2  0  0  0  0
 17 18  1  0  0  0  0
 20 23  1  0  0  0  0
  8 17  1  6  0  0  0
 24 25  1  0  0  0  0
 11 24  1  1  0  0  0
 36 37  1  1  0  0  0
 37 38  1  0  0  0  0
 38 39  1  0  0  0  0
 39 31  1  0  0  0  0
 31 40  1  0  0  0  0
 41 26  1  6  0  0  0
  7 26  1  1  0  0  0
  9  4  1  1  0  0  0
 40 41  1  0  0  0  0
 41 42  1  0  0  0  0
 42 43  1  0  0  0  0
 43 44  1  0  0  0  0
 44 45  1  0  0  0  0
 45 46  1  0  0  0  0
 46 47  1  0  0  0  0
 47 48  1  0  0  0  0
 48 49  1  0  0  0  0
 36 49  1  0  0  0  0
 36 50  1  0  0  0  0
 47 50  1  0  0  0  0
 36 44  1  0  0  0  0
 39 43  1  0  0  0  0
 48 51  2  0  0  0  0
 43 52  1  1  0  0  0
 49 53  1  1  0  0  0
 39 54  1  6  0  0  0
M  END
>  <cdx:groupId>
6338

>  <cdx:fragmentId>
6242

$$$$
