5583.cdx
  Mrv1902 05222410182D          

 16 17  0  0  0  0            999 V2000
    3.7570   -7.5075    0.0000 C   0  0  0  0  0  0  0  0  0  0  0  0
    3.7570   -8.3325    0.0000 C   0  0  0  0  0  0  0  0  0  0  0  0
    4.4715   -8.7450    0.0000 C   0  0  0  0  0  0  0  0  0  0  0  0
    5.1860   -8.3325    0.0000 C   0  0  0  0  0  0  0  0  0  0  0  0
    5.1860   -7.5075    0.0000 C   0  0  0  0  0  0  0  0  0  0  0  0
    4.4715   -7.0950    0.0000 C   0  0  0  0  0  0  0  0  0  0  0  0
    5.9706   -8.5874    0.0000 C   0  0  0  0  0  0  0  0  0  0  0  0
    6.4555   -7.9200    0.0000 O   0  0  0  0  0  0  0  0  0  0  0  0
    5.9706   -7.2526    0.0000 C   0  0  1  0  0  0  0  0  0  0  0  0
    6.1841   -9.3843    0.0000 O   0  0  0  0  0  0  0  0  0  0  0  0
    6.1841   -6.4557    0.0000 C   0  0  0  0  0  0  0  0  0  0  0  0
    6.9810   -6.2421    0.0000 C   0  0  0  0  0  0  0  0  0  0  0  0
    7.1945   -5.4453    0.0000 C   0  0  0  0  0  0  0  0  0  0  0  0
    7.9914   -5.2317    0.0000 C   0  0  0  0  0  0  0  0  0  0  0  0
    4.4715   -6.2700    0.0000 O   0  0  0  0  0  0  0  0  0  0  0  0
    5.5581   -6.5381    0.0000 H   0  0  0  0  0  0  0  0  0  0  0  0
  1  2  2  0  0  0  0
  2  3  1  0  0  0  0
  3  4  2  0  0  0  0
  4  5  1  0  0  0  0
  5  6  2  0  0  0  0
  6  1  1  0  0  0  0
  4  7  1  0  0  0  0
  7  8  1  0  0  0  0
  8  9  1  0  0  0  0
  9  5  1  0  0  0  0
  7 10  2  0  0  0  0
  9 11  1  0  0  0  0
 11 12  1  0  0  0  0
 12 13  1  0  0  0  0
 13 14  1  0  0  0  0
  6 15  1  0  0  0  0
  9 16  1  1  0  0  0
M  END
>  <cdx:fragmentId>
5

$$$$
