558468.cdx
  Mrv1902 05222410222D          

 13 13  0  0  0  0            999 V2000
   13.8982   -7.6961    0.0000 C   0  0  0  0  0  0  0  0  0  0  0  0
   13.9845   -8.5166    0.0000 C   0  0  0  0  0  0  0  0  0  0  0  0
   13.2308   -8.8522    0.0000 C   0  0  0  0  0  0  0  0  0  0  0  0
   12.6788   -8.2391    0.0000 C   0  0  0  0  0  0  0  0  0  0  0  0
   13.0913   -7.5246    0.0000 C   0  0  0  0  0  0  0  0  0  0  0  0
   14.5113   -7.1441    0.0000 O   0  0  0  0  0  0  0  0  0  0  0  0
   14.6989   -8.9291    0.0000 C   0  0  0  0  0  0  0  0  0  0  0  0
   15.4134   -8.5166    0.0000 C   0  0  0  0  0  0  0  0  0  0  0  0
   16.1279   -8.9291    0.0000 C   0  0  0  0  0  0  0  0  0  0  0  0
   16.8423   -8.5166    0.0000 C   0  0  0  0  0  0  0  0  0  0  0  0
   17.5568   -8.9291    0.0000 C   0  0  0  0  0  0  0  0  0  0  0  0
   18.2713   -8.5166    0.0000 C   0  0  0  0  0  0  0  0  0  0  0  0
   17.5568   -9.7541    0.0000 O   0  0  0  0  0  0  0  0  0  0  0  0
  1  2  1  0  0  0  0
  2  3  1  0  0  0  0
  3  4  1  0  0  0  0
  4  5  1  0  0  0  0
  1  5  1  0  0  0  0
  1  6  2  0  0  0  0
  7  8  1  0  0  0  0
  8  9  1  0  0  0  0
  9 10  1  0  0  0  0
 10 11  1  0  0  0  0
 11 12  1  0  0  0  0
 11 13  2  0  0  0  0
  2  7  1  0  0  0  0
M  END
>  <cdx:groupId>
3586

>  <cdx:fragmentId>
3562

$$$$
