558461.cdx
  Mrv1902 05222410252D          

114126  0  0  0  0            999 V2000
   10.8480  -10.3979    0.0000 C   0  0  0  0  0  0  0  0  0  0  0  0
   10.8499  -11.2229    0.0000 C   0  0  1  0  0  0  0  0  0  0  0  0
   11.5652  -11.6339    0.0000 C   0  0  0  0  0  0  0  0  0  0  0  0
   12.2788  -11.2198    0.0000 C   0  0  1  0  0  0  0  0  0  0  0  0
   12.2770  -10.3948    0.0000 C   0  0  2  0  0  0  0  0  0  0  0  0
   11.5616   -9.9839    0.0000 C   0  0  0  0  0  0  0  0  0  0  0  0
   12.9942  -11.6307    0.0000 C   0  0  0  0  0  0  0  0  0  0  0  0
   13.7077  -11.2167    0.0000 C   0  0  0  0  0  0  0  0  0  0  0  0
   13.7059  -10.3917    0.0000 C   0  0  2  0  0  0  0  0  0  0  0  0
   12.9906   -9.9807    0.0000 C   0  0  2  0  0  0  0  0  0  0  0  0
   14.4195   -9.9776    0.0000 C   0  0  1  0  0  0  0  0  0  0  0  0
   14.4177   -9.1526    0.0000 C   0  0  0  0  0  0  0  0  0  0  0  0
   13.7023   -8.7417    0.0000 C   0  0  0  0  0  0  0  0  0  0  0  0
   12.9887   -9.1557    0.0000 C   0  0  0  0  0  0  0  0  0  0  0  0
   15.1349  -10.3885    0.0000 C   0  0  0  0  0  0  0  0  0  0  0  0
   15.8484   -9.9745    0.0000 C   0  0  2  0  0  0  0  0  0  0  0  0
   15.8466   -9.1495    0.0000 C   0  0  2  0  0  0  0  0  0  0  0  0
   15.1313   -8.7385    0.0000 C   0  0  1  0  0  0  0  0  0  0  0  0
   16.5602   -8.7354    0.0000 C   0  0  0  0  0  0  0  0  0  0  0  0
   16.5584   -7.9104    0.0000 C   0  0  0  0  0  0  0  0  0  0  0  0
   15.8430   -7.4995    0.0000 C   0  0  0  0  0  0  0  0  0  0  0  0
   15.1294   -7.9136    0.0000 C   0  0  0  0  0  0  0  0  0  0  0  0
   10.1363  -11.6370    0.0000 O   0  0  0  0  0  0  0  0  0  0  0  0
    9.4209  -11.2260    0.0000 C   0  0  2  0  0  0  0  0  0  0  0  0
    9.4191  -10.4011    0.0000 O   0  0  0  0  0  0  0  0  0  0  0  0
    8.7037   -9.9901    0.0000 C   0  0  1  0  0  0  0  0  0  0  0  0
    7.9902  -10.4042    0.0000 C   0  0  2  0  0  0  0  0  0  0  0  0
    7.9920  -11.2292    0.0000 C   0  0  1  0  0  0  0  0  0  0  0  0
    8.7073  -11.6401    0.0000 C   0  0  1  0  0  0  0  0  0  0  0  0
    8.7019   -9.1651    0.0000 C   0  0  0  0  0  0  0  0  0  0  0  0
    7.2784  -11.6432    0.0000 O   0  0  0  0  0  0  0  0  0  0  0  0
    8.7092  -12.4651    0.0000 O   0  0  0  0  0  0  0  0  0  0  0  0
    7.2748   -9.9932    0.0000 O   0  0  0  0  0  0  0  0  0  0  0  0
   11.1543  -12.3492    0.0000 C   0  0  0  0  0  0  0  0  0  0  0  0
   11.9793  -12.3474    0.0000 C   0  0  0  0  0  0  0  0  0  0  0  0
   12.2752   -9.5698    0.0000 C   0  0  0  0  0  0  0  0  0  0  0  0
   12.2806  -12.0448    0.0000 H   0  0  0  0  0  0  0  0  0  0  0  0
   12.9924  -10.8057    0.0000 H   0  0  0  0  0  0  0  0  0  0  0  0
   13.7041   -9.5667    0.0000 C   0  0  0  0  0  0  0  0  0  0  0  0
   14.4213  -10.8026    0.0000 C   0  0  0  0  0  0  0  0  0  0  0  0
   15.1331   -9.5635    0.0000 H   0  0  0  0  0  0  0  0  0  0  0  0
   16.5620   -9.5604    0.0000 C   0  0  0  0  0  0  0  0  0  0  0  0
   17.2756   -9.1464    0.0000 O   0  0  0  0  0  0  0  0  0  0  0  0
   16.5638  -10.3854    0.0000 O   0  0  0  0  0  0  0  0  0  0  0  0
   15.4290   -6.7859    0.0000 C   0  0  0  0  0  0  0  0  0  0  0  0
   16.2540   -6.7841    0.0000 C   0  0  0  0  0  0  0  0  0  0  0  0
   17.9909   -9.5573    0.0000 C   0  0  2  0  0  0  0  0  0  0  0  0
   17.9927  -10.3823    0.0000 O   0  0  0  0  0  0  0  0  0  0  0  0
   18.7081  -10.7932    0.0000 C   0  0  1  0  0  0  0  0  0  0  0  0
   19.4217  -10.3792    0.0000 C   0  0  2  0  0  0  0  0  0  0  0  0
   19.4199   -9.5542    0.0000 C   0  0  1  0  0  0  0  0  0  0  0  0
   18.7045   -9.1432    0.0000 C   0  0  1  0  0  0  0  0  0  0  0  0
   18.7027   -8.3182    0.0000 O   0  0  0  0  0  0  0  0  0  0  0  0
   20.1334   -9.1401    0.0000 O   0  0  0  0  0  0  0  0  0  0  0  0
   20.1371  -10.7901    0.0000 O   0  0  0  0  0  0  0  0  0  0  0  0
   19.4163   -7.9042    0.0000 C   0  0  2  0  0  0  0  0  0  0  0  0
   20.1316   -8.3151    0.0000 O   0  0  0  0  0  0  0  0  0  0  0  0
   20.8452   -7.9010    0.0000 C   0  0  2  0  0  0  0  0  0  0  0  0
   20.8434   -7.0760    0.0000 C   0  0  1  0  0  0  0  0  0  0  0  0
   20.1280   -6.6651    0.0000 C   0  0  2  0  0  0  0  0  0  0  0  0
   19.4145   -7.0792    0.0000 C   0  0  1  0  0  0  0  0  0  0  0  0
   18.6991   -6.6682    0.0000 O   0  0  0  0  0  0  0  0  0  0  0  0
   20.1262   -5.8401    0.0000 O   0  0  0  0  0  0  0  0  0  0  0  0
   21.5570   -6.6620    0.0000 O   0  0  0  0  0  0  0  0  0  0  0  0
   21.5606   -8.3120    0.0000 C   0  0  0  0  0  0  0  0  0  0  0  0
   22.2723   -7.0729    0.0000 C   0  0  2  0  0  0  0  0  0  0  0  0
   22.2741   -7.8979    0.0000 O   0  0  0  0  0  0  0  0  0  0  0  0
   22.9895   -8.3089    0.0000 C   0  0  0  0  0  0  0  0  0  0  0  0
   23.7031   -7.8948    0.0000 C   0  0  2  0  0  0  0  0  0  0  0  0
   23.7013   -7.0698    0.0000 C   0  0  1  0  0  0  0  0  0  0  0  0
   22.9859   -6.6589    0.0000 C   0  0  1  0  0  0  0  0  0  0  0  0
   22.9841   -5.8339    0.0000 O   0  0  0  0  0  0  0  0  0  0  0  0
   24.4185   -8.3057    0.0000 O   0  0  0  0  0  0  0  0  0  0  0  0
   24.4148   -6.6557    0.0000 O   0  0  0  0  0  0  0  0  0  0  0  0
    7.9866   -8.7542    0.0000 O   0  0  0  0  0  0  0  0  0  0  0  0
    7.9848   -7.9292    0.0000 C   0  0  2  0  0  0  0  0  0  0  0  0
    8.6983   -7.5151    0.0000 O   0  0  0  0  0  0  0  0  0  0  0  0
    8.6965   -6.6901    0.0000 C   0  0  0  0  0  0  0  0  0  0  0  0
    7.9811   -6.2792    0.0000 C   0  0  1  0  0  0  0  0  0  0  0  0
    7.2676   -6.6932    0.0000 C   0  0  1  0  0  0  0  0  0  0  0  0
    7.2694   -7.5182    0.0000 C   0  0  1  0  0  0  0  0  0  0  0  0
    6.5522   -6.2823    0.0000 O   0  0  0  0  0  0  0  0  0  0  0  0
    7.9793   -5.4542    0.0000 O   0  0  0  0  0  0  0  0  0  0  0  0
    6.5558   -7.9323    0.0000 O   0  0  0  0  0  0  0  0  0  0  0  0
   25.1302   -7.0667    0.0000 C   0  0  2  0  0  0  0  0  0  0  0  0
    5.8404   -7.5214    0.0000 C   0  0  2  0  0  0  0  0  0  0  0  0
    5.8386   -6.6964    0.0000 O   0  0  0  0  0  0  0  0  0  0  0  0
    5.1233   -6.2854    0.0000 C   0  0  0  0  0  0  0  0  0  0  0  0
    4.4097   -6.6995    0.0000 C   0  0  2  0  0  0  0  0  0  0  0  0
    4.4115   -7.5245    0.0000 C   0  0  1  0  0  0  0  0  0  0  0  0
    5.1269   -7.9354    0.0000 C   0  0  1  0  0  0  0  0  0  0  0  0
    5.1287   -8.7604    0.0000 O   0  0  0  0  0  0  0  0  0  0  0  0
    3.6979   -7.9386    0.0000 O   0  0  0  0  0  0  0  0  0  0  0  0
    3.6943   -6.2886    0.0000 O   0  0  0  0  0  0  0  0  0  0  0  0
   18.7099  -11.6182    0.0000 C   0  0  0  0  0  0  0  0  0  0  0  0
   19.4253  -12.0292    0.0000 O   0  0  0  0  0  0  0  0  0  0  0  0
   25.1320   -7.8917    0.0000 O   0  0  0  0  0  0  0  0  0  0  0  0
   25.8474   -8.3026    0.0000 C   0  0  0  0  0  0  0  0  0  0  0  0
   26.5610   -7.8885    0.0000 C   0  0  2  0  0  0  0  0  0  0  0  0
   26.5592   -7.0635    0.0000 C   0  0  1  0  0  0  0  0  0  0  0  0
   25.8438   -6.6526    0.0000 C   0  0  1  0  0  0  0  0  0  0  0  0
   25.8420   -5.8276    0.0000 O   0  0  0  0  0  0  0  0  0  0  0  0
   27.2727   -6.6495    0.0000 O   0  0  0  0  0  0  0  0  0  0  0  0
   27.2763   -8.2995    0.0000 O   0  0  0  0  0  0  0  0  0  0  0  0
   15.8484  -10.7995    0.0000 O   0  0  0  0  0  0  0  0  0  0  0  0
   18.6973   -5.8432    0.0000 C   0  0  2  0  0  0  0  0  0  0  0  0
   19.4122   -5.4315    0.0000 O   0  0  0  0  0  0  0  0  0  0  0  0
   19.4122   -4.6065    0.0000 C   0  0  0  0  0  0  0  0  0  0  0  0
   18.6973   -4.1932    0.0000 C   0  0  2  0  0  0  0  0  0  0  0  0
   17.9824   -4.6065    0.0000 C   0  0  1  0  0  0  0  0  0  0  0  0
   17.9824   -5.4315    0.0000 C   0  0  1  0  0  0  0  0  0  0  0  0
   17.2681   -5.8444    0.0000 O   0  0  0  0  0  0  0  0  0  0  0  0
   17.2678   -4.1942    0.0000 O   0  0  0  0  0  0  0  0  0  0  0  0
   18.6973   -3.3682    0.0000 O   0  0  0  0  0  0  0  0  0  0  0  0
  1  2  1  0  0  0  0
  2  3  1  0  0  0  0
  3  4  1  0  0  0  0
  4  5  1  0  0  0  0
  5  6  1  0  0  0  0
  6  1  1  0  0  0  0
  4  7  1  0  0  0  0
  7  8  1  0  0  0  0
  8  9  1  0  0  0  0
  9 10  1  0  0  0  0
 10  5  1  0  0  0  0
  9 11  1  0  0  0  0
 11 12  1  0  0  0  0
 12 13  2  0  0  0  0
 13 14  1  0  0  0  0
 14 10  1  0  0  0  0
 11 15  1  0  0  0  0
 15 16  1  0  0  0  0
 16 17  1  0  0  0  0
 17 18  1  0  0  0  0
 18 12  1  0  0  0  0
 17 19  1  0  0  0  0
 19 20  1  0  0  0  0
 20 21  1  0  0  0  0
 21 22  1  0  0  0  0
 22 18  1  0  0  0  0
  2 23  1  1  0  0  0
 24 23  1  1  0  0  0
 24 25  1  0  0  0  0
 25 26  1  0  0  0  0
 26 27  1  0  0  0  0
 27 28  1  0  0  0  0
 28 29  1  0  0  0  0
 29 24  1  0  0  0  0
 26 30  1  1  0  0  0
 28 31  1  1  0  0  0
 29 32  1  6  0  0  0
 27 33  1  6  0  0  0
  3 34  1  0  0  0  0
  3 35  1  0  0  0  0
  5 36  1  1  0  0  0
  4 37  1  6  0  0  0
 10 38  1  6  0  0  0
  9 39  1  1  0  0  0
 11 40  1  6  0  0  0
 18 41  1  1  0  0  0
 17 42  1  1  0  0  0
 42 43  1  0  0  0  0
 42 44  2  0  0  0  0
 21 45  1  0  0  0  0
 21 46  1  0  0  0  0
 47 43  1  1  0  0  0
 47 48  1  0  0  0  0
 48 49  1  0  0  0  0
 49 50  1  0  0  0  0
 50 51  1  0  0  0  0
 51 52  1  0  0  0  0
 52 47  1  0  0  0  0
 52 53  1  6  0  0  0
 51 54  1  1  0  0  0
 50 55  1  6  0  0  0
 56 53  1  1  0  0  0
 56 57  1  0  0  0  0
 57 58  1  0  0  0  0
 58 59  1  0  0  0  0
 59 60  1  0  0  0  0
 60 61  1  0  0  0  0
 61 56  1  0  0  0  0
 61 62  1  6  0  0  0
 60 63  1  6  0  0  0
 59 64  1  1  0  0  0
 58 65  1  6  0  0  0
 66 64  1  1  0  0  0
 66 67  1  0  0  0  0
 67 68  1  0  0  0  0
 68 69  1  0  0  0  0
 69 70  1  0  0  0  0
 70 71  1  0  0  0  0
 71 66  1  0  0  0  0
 71 72  1  6  0  0  0
 70 74  1  1  0  0  0
 69 73  1  6  0  0  0
 30 75  1  0  0  0  0
 76 75  1  1  0  0  0
 76 77  1  0  0  0  0
 77 78  1  0  0  0  0
 78 79  1  0  0  0  0
 79 80  1  0  0  0  0
 80 81  1  0  0  0  0
 81 76  1  0  0  0  0
 80 82  1  1  0  0  0
 79 83  1  1  0  0  0
 81 84  1  6  0  0  0
 85 74  1  1  0  0  0
 86 84  1  1  0  0  0
 86 87  1  0  0  0  0
 87 88  1  0  0  0  0
 88 89  1  0  0  0  0
 89 90  1  0  0  0  0
 90 91  1  0  0  0  0
 91 86  1  0  0  0  0
 91 92  1  6  0  0  0
 90 93  1  1  0  0  0
 89 94  1  6  0  0  0
 49 95  1  1  0  0  0
 95 96  1  0  0  0  0
 85 97  1  0  0  0  0
 97 98  1  0  0  0  0
 98 99  1  0  0  0  0
 99100  1  0  0  0  0
100101  1  0  0  0  0
101 85  1  0  0  0  0
101102  1  6  0  0  0
100103  1  1  0  0  0
 99104  1  6  0  0  0
 16105  1  6  0  0  0
106 62  1  1  0  0  0
106107  1  0  0  0  0
107108  1  0  0  0  0
108109  1  0  0  0  0
109110  1  0  0  0  0
110111  1  0  0  0  0
111106  1  0  0  0  0
111112  1  6  0  0  0
110113  1  1  0  0  0
109114  1  6  0  0  0
M  END
>  <cdx:fragmentId>
189

$$$$
