15558573.cdx
  Mrv1902 05222410272D          

 29 33  0  0  0  0            999 V2000
    7.4073   -9.4437    0.0000 C   0  0  1  0  0  0  0  0  0  0  0  0
    8.1218   -9.8562    0.0000 C   0  0  0  0  0  0  0  0  0  0  0  0
    8.9064   -9.6013    0.0000 N   0  0  0  0  0  0  0  0  0  0  0  0
    9.3914  -10.2687    0.0000 C   0  0  0  0  0  0  0  0  0  0  0  0
   10.2118  -10.3549    0.0000 C   0  0  0  0  0  0  0  0  0  0  0  0
   10.5474  -11.1086    0.0000 C   0  0  0  0  0  0  0  0  0  0  0  0
   10.0625  -11.7760    0.0000 C   0  0  0  0  0  0  0  0  0  0  0  0
    9.2420  -11.6898    0.0000 C   0  0  0  0  0  0  0  0  0  0  0  0
    8.9064  -10.9361    0.0000 C   0  0  0  0  0  0  0  0  0  0  0  0
    8.1218  -10.6812    0.0000 C   0  0  0  0  0  0  0  0  0  0  0  0
    7.4073  -11.0937    0.0000 C   0  0  0  0  0  0  0  0  0  0  0  0
    6.6929  -10.6812    0.0000 C   0  0  1  0  0  0  0  0  0  0  0  0
    5.9784  -11.0937    0.0000 C   0  0  1  0  0  0  0  0  0  0  0  0
    5.2639  -10.6812    0.0000 C   0  0  2  0  0  0  0  0  0  0  0  0
    5.2639   -9.8562    0.0000 C   0  0  0  0  0  0  0  0  0  0  0  0
    5.9784   -9.4437    0.0000 C   0  0  0  0  0  0  0  0  0  0  0  0
    6.6929   -9.8562    0.0000 N   0  0  0  0  0  0  0  0  0  0  0  0
    6.4952   -9.4623    0.0000 C   0  0  0  0  0  0  0  0  0  0  0  0
    6.3909  -11.8082    0.0000 C   0  0  0  0  0  0  0  0  0  0  0  0
    5.9784  -12.5226    0.0000 O   0  0  0  0  0  0  0  0  0  0  0  0
    7.2159  -11.8082    0.0000 O   0  0  0  0  0  0  0  0  0  0  0  0
    5.5659  -11.8082    0.0000 C   0  0  0  0  0  0  0  0  0  0  0  0
    4.7409  -11.8082    0.0000 O   0  0  0  0  0  0  0  0  0  0  0  0
    4.5495   -9.4437    0.0000 C   0  0  0  0  0  0  0  0  0  0  0  0
    3.8350   -9.8562    0.0000 C   0  0  0  0  0  0  0  0  0  0  0  0
    7.6127   -8.6447    0.0000 H   0  0  0  0  0  0  0  0  0  0  0  0
    6.6929  -11.2999    0.0000 H   0  0  0  0  0  0  0  0  0  0  0  0
    4.5495  -11.0937    0.0000 H   0  0  0  0  0  0  0  0  0  0  0  0
    7.6284  -12.5226    0.0000 C   0  0  0  0  0  0  0  0  0  0  0  0
  1  2  1  0  0  0  0
  2  3  1  0  0  0  0
  3  4  1  0  0  0  0
  4  5  2  0  0  0  0
  5  6  1  0  0  0  0
  6  7  2  0  0  0  0
  7  8  1  0  0  0  0
  8  9  2  0  0  0  0
  9 10  1  0  0  0  0
 10 11  1  0  0  0  0
 11 12  1  0  0  0  0
 12 13  1  0  0  0  0
 13 14  1  0  0  0  0
 14 15  1  0  0  0  0
 15 16  1  0  0  0  0
 16 17  1  0  0  0  0
  1 17  1  0  0  0  0
  1 18  1  1  0  0  0
 14 18  1  1  0  0  0
  2 10  2  0  0  0  0
  4  9  1  0  0  0  0
 12 17  1  0  0  0  0
 19 20  2  0  0  0  0
 19 21  1  0  0  0  0
 13 19  1  6  0  0  0
 22 23  1  0  0  0  0
 13 22  1  1  0  0  0
 24 25  1  0  0  0  0
 15 24  2  0  0  0  0
  1 26  1  0  0  0  0
 12 27  1  6  0  0  0
 14 28  1  0  0  0  0
 21 29  1  0  0  0  0
M  END
>  <cdx:fragmentId>
4527

$$$$
