15558543.cdx
  Mrv1902 05222410192D          

 23 25  0  0  0  0            999 V2000
    7.8332  -14.2307    0.0000 O   0  0  0  0  0  0  0  0  0  0  0  0
    7.8332  -15.0557    0.0000 C   0  0  0  0  0  0  0  0  0  0  0  0
    8.5477  -15.4682    0.0000 C   0  0  0  0  0  0  0  0  0  0  0  0
    9.2622  -15.0557    0.0000 C   0  0  0  0  0  0  0  0  0  0  0  0
    9.9766  -15.4682    0.0000 C   0  0  0  0  0  0  0  0  0  0  0  0
   10.6911  -15.0557    0.0000 C   0  0  0  0  0  0  0  0  0  0  0  0
   10.6911  -14.2307    0.0000 C   0  0  0  0  0  0  0  0  0  0  0  0
    9.9766  -13.8182    0.0000 C   0  0  0  0  0  0  0  0  0  0  0  0
    9.2622  -14.2307    0.0000 C   0  0  0  0  0  0  0  0  0  0  0  0
    8.5477  -13.8182    0.0000 C   0  0  0  0  0  0  0  0  0  0  0  0
    8.5477  -12.9932    0.0000 O   0  0  0  0  0  0  0  0  0  0  0  0
    7.1188  -15.4682    0.0000 C   0  0  0  0  0  0  0  0  0  0  0  0
    6.4043  -15.0557    0.0000 C   0  0  0  0  0  0  0  0  0  0  0  0
    5.6898  -15.4682    0.0000 C   0  0  0  0  0  0  0  0  0  0  0  0
    5.6898  -16.2932    0.0000 C   0  0  0  0  0  0  0  0  0  0  0  0
    4.9754  -16.7057    0.0000 C   0  0  0  0  0  0  0  0  0  0  0  0
    4.2609  -16.2932    0.0000 C   0  0  0  0  0  0  0  0  0  0  0  0
    4.2609  -15.4682    0.0000 C   0  0  0  0  0  0  0  0  0  0  0  0
    4.9754  -15.0557    0.0000 C   0  0  0  0  0  0  0  0  0  0  0  0
    3.5464  -16.7057    0.0000 O   0  0  0  0  0  0  0  0  0  0  0  0
    2.8319  -16.2932    0.0000 C   0  0  0  0  0  0  0  0  0  0  0  0
    9.9766  -12.9932    0.0000 O   0  0  0  0  0  0  0  0  0  0  0  0
   11.4056  -15.4682    0.0000 O   0  0  0  0  0  0  0  0  0  0  0  0
  1  2  1  0  0  0  0
  2  3  1  0  0  0  0
  3  4  1  0  0  0  0
  4  5  1  0  0  0  0
  5  6  2  0  0  0  0
  6  7  1  0  0  0  0
  7  8  2  0  0  0  0
  8  9  1  0  0  0  0
  4  9  2  0  0  0  0
  9 10  1  0  0  0  0
  1 10  1  0  0  0  0
 10 11  2  0  0  0  0
 12 13  1  0  0  0  0
 14 15  1  0  0  0  0
 15 16  2  0  0  0  0
 16 17  1  0  0  0  0
 17 18  2  0  0  0  0
 18 19  1  0  0  0  0
 14 19  2  0  0  0  0
 20 21  1  0  0  0  0
 17 20  1  0  0  0  0
 13 14  1  0  0  0  0
  2 12  1  0  0  0  0
  8 22  1  0  0  0  0
  6 23  1  0  0  0  0
M  END
>  <cdx:groupId>
114254

>  <cdx:fragmentId>
114186

$$$$
