558511.cdx
  Mrv1902 05222410242D          

 10 10  0  0  0  0            999 V2000
    7.0456   -7.5116    0.0000 C   0  0  0  0  0  0  0  0  0  0  0  0
    7.7181   -7.0337    0.0000 C   0  0  0  0  0  0  0  0  0  0  0  0
    8.3804   -7.5256    0.0000 C   0  0  0  0  0  0  0  0  0  0  0  0
    8.1173   -8.3075    0.0000 C   0  0  0  0  0  0  0  0  0  0  0  0
    7.2924   -8.2988    0.0000 C   0  0  0  0  0  0  0  0  0  0  0  0
    6.2637   -7.2485    0.0000 O   0  0  0  0  0  0  0  0  0  0  0  0
    7.7267   -6.2087    0.0000 C   0  0  0  0  0  0  0  0  0  0  0  0
    7.0166   -5.7888    0.0000 C   0  0  0  0  0  0  0  0  0  0  0  0
    7.0253   -4.9638    0.0000 C   0  0  0  0  0  0  0  0  0  0  0  0
    8.4455   -5.8037    0.0000 C   0  0  0  0  0  0  0  0  0  0  0  0
  1  2  1  0  0  0  0
  2  3  1  0  0  0  0
  3  4  1  0  0  0  0
  4  5  1  0  0  0  0
  1  5  1  0  0  0  0
  1  6  2  0  0  0  0
  7  8  1  0  0  0  0
  8  9  1  0  0  0  0
  7 10  1  0  0  0  0
  2  7  1  0  0  0  0
M  END
>  <cdx:fragmentId>
9

$$$$
