558591.cdx
  Mrv1902 05222410192D          

 35 39  0  0  0  0            999 V2000
    8.0030   -6.9025    0.0000 C   0  0  2  0  0  0  0  0  0  0  0  0
    8.0030   -7.7275    0.0000 C   0  0  0  0  0  0  0  0  0  0  0  0
    8.7175   -8.1400    0.0000 C   0  0  1  0  0  0  0  0  0  0  0  0
    9.4320   -7.7275    0.0000 C   0  0  1  0  0  0  0  0  0  0  0  0
    9.4320   -6.9025    0.0000 C   0  0  0  0  0  0  0  0  0  0  0  0
    8.7175   -6.4900    0.0000 C   0  0  1  0  0  0  0  0  0  0  0  0
    8.7175   -5.6650    0.0000 C   0  0  0  0  0  0  0  0  0  0  0  0
    9.9825   -6.5175    0.0000 O   0  0  0  0  0  0  0  0  0  0  0  0
    8.7175   -7.3150    0.0000 C   0  0  2  0  0  0  0  0  0  0  0  0
    7.2886   -6.4900    0.0000 O   0  0  0  0  0  0  0  0  0  0  0  0
    9.4320   -8.5525    0.0000 O   0  0  0  0  0  0  0  0  0  0  0  0
    8.1125   -8.0850    0.0000 C   0  0  0  0  0  0  0  0  0  0  0  0
    8.1125   -8.9100    0.0000 O   0  0  0  0  0  0  0  0  0  0  0  0
    9.9825   -7.3150    0.0000 C   0  0  0  0  0  0  0  0  0  0  0  0
    7.3940   -9.3155    0.0000 C   0  0  0  0  0  0  0  0  0  0  0  0
    6.6836   -8.8960    0.0000 O   0  0  0  0  0  0  0  0  0  0  0  0
    7.3859  -10.1404    0.0000 C   0  0  0  0  0  0  0  0  0  0  0  0
    8.0963  -10.5599    0.0000 C   0  0  0  0  0  0  0  0  0  0  0  0
    8.0882  -11.3849    0.0000 C   0  0  0  0  0  0  0  0  0  0  0  0
    7.3698  -11.7904    0.0000 C   0  0  0  0  0  0  0  0  0  0  0  0
    6.6594  -11.3709    0.0000 C   0  0  0  0  0  0  0  0  0  0  0  0
    6.6675  -10.5459    0.0000 C   0  0  0  0  0  0  0  0  0  0  0  0
    6.5741   -6.9025    0.0000 C   0  0  2  0  0  0  0  0  0  0  0  0
    5.8596   -6.4900    0.0000 O   0  0  0  0  0  0  0  0  0  0  0  0
    5.1451   -6.9025    0.0000 C   0  0  1  0  0  0  0  0  0  0  0  0
    5.1451   -7.7275    0.0000 C   0  0  2  0  0  0  0  0  0  0  0  0
    5.8596   -8.1400    0.0000 C   0  0  1  0  0  0  0  0  0  0  0  0
    6.5741   -7.7275    0.0000 C   0  0  1  0  0  0  0  0  0  0  0  0
    4.4307   -6.4900    0.0000 C   0  0  0  0  0  0  0  0  0  0  0  0
    5.8596   -8.9650    0.0000 O   0  0  0  0  0  0  0  0  0  0  0  0
    7.2886   -8.1400    0.0000 O   0  0  0  0  0  0  0  0  0  0  0  0
    4.4307   -8.1400    0.0000 O   0  0  0  0  0  0  0  0  0  0  0  0
    3.7162   -6.9025    0.0000 O   0  0  0  0  0  0  0  0  0  0  0  0
    8.7175   -8.9650    0.0000 H   0  0  0  0  0  0  0  0  0  0  0  0
   10.5659   -7.8984    0.0000 O   0  0  0  0  0  0  0  0  0  0  0  0
  1  2  1  0  0  0  0
  2  3  1  0  0  0  0
  3  4  1  0  0  0  0
  4  5  1  0  0  0  0
  5  6  1  0  0  0  0
  6  1  1  0  0  0  0
  6  7  1  6  0  0  0
  6  8  1  0  0  0  0
  3  9  1  0  0  0  0
  1 10  1  1  0  0  0
  4 11  1  1  0  0  0
  9  1  1  0  0  0  0
  9 12  1  1  0  0  0
 12 13  1  0  0  0  0
  8 14  1  0  0  0  0
  9 14  1  0  0  0  0
 13 15  1  0  0  0  0
 15 16  2  0  0  0  0
 15 17  1  0  0  0  0
 17 18  2  0  0  0  0
 18 19  1  0  0  0  0
 19 20  2  0  0  0  0
 20 21  1  0  0  0  0
 21 22  2  0  0  0  0
 22 17  1  0  0  0  0
 23 10  1  1  0  0  0
 23 24  1  0  0  0  0
 24 25  1  0  0  0  0
 25 26  1  0  0  0  0
 26 27  1  0  0  0  0
 27 28  1  0  0  0  0
 28 23  1  0  0  0  0
 25 29  1  1  0  0  0
 27 30  1  1  0  0  0
 28 31  1  6  0  0  0
 26 32  1  6  0  0  0
 29 33  1  0  0  0  0
  3 34  1  1  0  0  0
 14 35  2  0  0  0  0
M  END
>  <cdx:fragmentId>
157

$$$$
