5585.cdx
  Mrv1902 05222410192D          

 34 36  0  0  0  0            999 V2000
    9.4482   -4.5539    0.0000 C   0  0  0  0  0  0  0  0  0  0  0  0
    9.4515   -5.3789    0.0000 C   0  0  0  0  0  0  0  0  0  0  0  0
   10.1677   -5.7885    0.0000 C   0  0  0  0  0  0  0  0  0  0  0  0
   10.8805   -5.3731    0.0000 C   0  0  0  0  0  0  0  0  0  0  0  0
   10.8771   -4.5481    0.0000 C   0  0  0  0  0  0  0  0  0  0  0  0
   10.1609   -4.1385    0.0000 C   0  0  0  0  0  0  0  0  0  0  0  0
   10.1711   -6.6135    0.0000 C   0  0  0  0  0  0  0  0  0  0  0  0
    7.1296   -7.5128    0.0000 C   0  0  2  0  0  0  0  0  0  0  0  0
    7.1330   -8.3378    0.0000 C   0  0  2  0  0  0  0  0  0  0  0  0
    7.8491   -8.7474    0.0000 C   0  0  1  0  0  0  0  0  0  0  0  0
    8.5619   -8.3320    0.0000 C   0  0  2  0  0  0  0  0  0  0  0  0
    8.5585   -7.5070    0.0000 C   0  0  1  0  0  0  0  0  0  0  0  0
    7.8424   -7.0974    0.0000 O   0  0  0  0  0  0  0  0  0  0  0  0
    6.4135   -7.1032    0.0000 C   0  0  0  0  0  0  0  0  0  0  0  0
    7.8525   -9.5724    0.0000 O   0  0  0  0  0  0  0  0  0  0  0  0
    6.4202   -8.7532    0.0000 O   0  0  0  0  0  0  0  0  0  0  0  0
    9.2781   -8.7415    0.0000 O   0  0  0  0  0  0  0  0  0  0  0  0
    5.7007   -7.5187    0.0000 O   0  0  0  0  0  0  0  0  0  0  0  0
    4.9845   -7.1091    0.0000 C   0  0  1  0  0  0  0  0  0  0  0  0
    4.9812   -6.2841    0.0000 C   0  0  1  0  0  0  0  0  0  0  0  0
    4.2650   -5.8745    0.0000 C   0  0  2  0  0  0  0  0  0  0  0  0
    3.5522   -6.2899    0.0000 C   0  0  1  0  0  0  0  0  0  0  0  0
    3.5556   -7.1149    0.0000 C   0  0  2  0  0  0  0  0  0  0  0  0
    4.2718   -7.5245    0.0000 O   0  0  0  0  0  0  0  0  0  0  0  0
    2.8428   -7.5303    0.0000 C   0  0  0  0  0  0  0  0  0  0  0  0
    4.2616   -5.0495    0.0000 O   0  0  0  0  0  0  0  0  0  0  0  0
    2.8361   -5.8804    0.0000 O   0  0  0  0  0  0  0  0  0  0  0  0
    5.6939   -5.8687    0.0000 O   0  0  0  0  0  0  0  0  0  0  0  0
    2.1284   -7.1178    0.0000 O   0  0  0  0  0  0  0  0  0  0  0  0
    9.4583   -7.0289    0.0000 O   0  0  0  0  0  0  0  0  0  0  0  0
   10.1576   -3.3135    0.0000 O   0  0  0  0  0  0  0  0  0  0  0  0
    8.7388   -5.7943    0.0000 C   0  0  0  0  0  0  0  0  0  0  0  0
   11.7055   -5.3697    0.0000 C   0  0  0  0  0  0  0  0  0  0  0  0
   11.2959   -6.0858    0.0000 C   0  0  0  0  0  0  0  0  0  0  0  0
  1  2  2  0  0  0  0
  2  3  1  0  0  0  0
  3  4  1  0  0  0  0
  4  5  1  0  0  0  0
  5  6  1  0  0  0  0
  6  1  1  0  0  0  0
  8  9  1  0  0  0  0
  9 10  1  0  0  0  0
 10 11  1  0  0  0  0
 11 12  1  0  0  0  0
 12 13  1  0  0  0  0
 13  8  1  0  0  0  0
  8 14  1  1  0  0  0
 10 15  1  1  0  0  0
  9 16  1  6  0  0  0
 11 17  1  6  0  0  0
 14 18  1  0  0  0  0
 19 18  1  6  0  0  0
 19 20  1  0  0  0  0
 20 21  1  0  0  0  0
 21 22  1  0  0  0  0
 22 23  1  0  0  0  0
 23 24  1  0  0  0  0
 24 19  1  0  0  0  0
 23 25  1  6  0  0  0
 21 26  1  6  0  0  0
 22 27  1  1  0  0  0
 20 28  1  1  0  0  0
 25 29  1  0  0  0  0
  3  7  1  0  0  0  0
  7 30  1  0  0  0  0
 12 30  1  1  0  0  0
  6 31  2  0  0  0  0
  2 32  1  0  0  0  0
  4 33  1  0  0  0  0
  4 34  1  0  0  0  0
M  END
>  <cdx:fragmentId>
34

$$$$
