558638.cdx
  Mrv1902 05222410262D          

 18 19  0  0  0  0            999 V2000
   16.1665  -12.6517    0.0000 O   0  0  0  0  0  0  0  0  0  0  0  0
   16.0803  -13.4721    0.0000 C   0  0  0  0  0  0  0  0  0  0  0  0
   16.8339  -13.8077    0.0000 O   0  0  0  0  0  0  0  0  0  0  0  0
   17.3860  -13.1946    0.0000 C   0  0  0  0  0  0  0  0  0  0  0  0
   16.9735  -12.4801    0.0000 C   0  0  0  0  0  0  0  0  0  0  0  0
   18.2064  -13.2808    0.0000 C   0  0  0  0  0  0  0  0  0  0  0  0
   18.6914  -12.6134    0.0000 C   0  0  0  0  0  0  0  0  0  0  0  0
   19.5118  -12.6996    0.0000 C   0  0  0  0  0  0  0  0  0  0  0  0
   19.8474  -13.4533    0.0000 C   0  0  0  0  0  0  0  0  0  0  0  0
   19.3625  -14.1208    0.0000 C   0  0  0  0  0  0  0  0  0  0  0  0
   18.5420  -14.0345    0.0000 C   0  0  0  0  0  0  0  0  0  0  0  0
   15.3658  -13.8846    0.0000 C   0  0  0  0  0  0  0  0  0  0  0  0
   14.6513  -13.4721    0.0000 C   0  0  0  0  0  0  0  0  0  0  0  0
   13.9368  -13.8846    0.0000 C   0  0  0  0  0  0  0  0  0  0  0  0
   13.2224  -13.4721    0.0000 C   0  0  0  0  0  0  0  0  0  0  0  0
   12.5079  -13.8846    0.0000 C   0  0  0  0  0  0  0  0  0  0  0  0
   11.7934  -13.4721    0.0000 C   0  0  0  0  0  0  0  0  0  0  0  0
   11.0790  -13.8846    0.0000 C   0  0  0  0  0  0  0  0  0  0  0  0
  1  2  1  0  0  0  0
  2  3  1  0  0  0  0
  3  4  1  0  0  0  0
  4  5  1  0  0  0  0
  1  5  1  0  0  0  0
  6  7  1  0  0  0  0
  7  8  2  0  0  0  0
  8  9  1  0  0  0  0
  9 10  2  0  0  0  0
 10 11  1  0  0  0  0
  6 11  2  0  0  0  0
  4  6  1  0  0  0  0
 12 13  1  0  0  0  0
 13 14  1  0  0  0  0
 14 15  1  0  0  0  0
 15 16  1  0  0  0  0
 16 17  1  0  0  0  0
 17 18  1  0  0  0  0
  2 12  1  0  0  0  0
M  END
>  <cdx:groupId>
94

>  <cdx:fragmentId>
52

$$$$
