44558957.cdx
  Mrv1902 05222410272D          

 49 55  0  0  0  0            999 V2000
    7.6271  -13.4753    0.0000 C   0  0  1  0  0  0  0  0  0  0  0  0
    8.3416  -13.8878    0.0000 C   0  0  2  0  0  0  0  0  0  0  0  0
    7.8567  -13.2204    0.0000 C   0  0  0  0  0  0  0  0  0  0  0  0
    7.9427  -12.3999    0.0000 C   0  0  0  0  0  0  0  0  0  0  0  0
    8.7179  -12.1176    0.0000 C   0  0  1  0  0  0  0  0  0  0  0  0
    8.9175  -11.3171    0.0000 C   0  0  0  0  0  0  0  0  0  0  0  0
    9.7106  -11.0898    0.0000 C   0  0  0  0  0  0  0  0  0  0  0  0
   10.3040  -11.6630    0.0000 C   0  0  0  0  0  0  0  0  0  0  0  0
   10.1043  -12.4635    0.0000 C   0  0  0  0  0  0  0  0  0  0  0  0
    9.3113  -12.6908    0.0000 C   0  0  2  0  0  0  0  0  0  0  0  0
    9.0561  -13.4753    0.0000 C   0  0  0  0  0  0  0  0  0  0  0  0
    9.7705  -13.8878    0.0000 C   0  0  0  0  0  0  0  0  0  0  0  0
    9.7705  -14.7128    0.0000 C   0  0  0  0  0  0  0  0  0  0  0  0
    9.0561  -15.1253    0.0000 C   0  0  2  0  0  0  0  0  0  0  0  0
    8.3416  -14.7128    0.0000 C   0  0  2  0  0  0  0  0  0  0  0  0
    7.6271  -15.1253    0.0000 C   0  0  2  0  0  0  0  0  0  0  0  0
    6.9127  -14.7128    0.0000 C   0  0  0  0  0  0  0  0  0  0  0  0
    6.1982  -15.1253    0.0000 C   0  0  0  0  0  0  0  0  0  0  0  0
    5.4837  -14.7128    0.0000 C   0  0  0  0  0  0  0  0  0  0  0  0
    5.4837  -13.8878    0.0000 C   0  0  1  0  0  0  0  0  0  0  0  0
    4.7692  -13.4753    0.0000 C   0  0  0  0  0  0  0  0  0  0  0  0
    4.7692  -12.6503    0.0000 C   0  0  0  0  0  0  0  0  0  0  0  0
    5.4837  -12.2378    0.0000 C   0  0  0  0  0  0  0  0  0  0  0  0
    6.1982  -12.6503    0.0000 C   0  0  0  0  0  0  0  0  0  0  0  0
    6.1982  -13.4753    0.0000 C   0  0  2  0  0  0  0  0  0  0  0  0
    6.9127  -13.8878    0.0000 C   0  0  0  0  0  0  0  0  0  0  0  0
    7.2859  -13.9914    0.0000 C   0  0  0  0  0  0  0  0  0  0  0  0
    7.2859  -14.6102    0.0000 C   0  0  1  0  0  0  0  0  0  0  0  0
   10.4850  -15.1253    0.0000 O   0  0  0  0  0  0  0  0  0  0  0  0
    6.8334  -13.3016    0.0000 O   0  0  0  0  0  0  0  0  0  0  0  0
    7.3359  -16.2715    0.0000 C   0  0  0  0  0  0  0  0  0  0  0  0
    6.8627  -15.5957    0.0000 C   0  0  0  0  0  0  0  0  0  0  0  0
    6.0409  -15.6676    0.0000 C   0  0  0  0  0  0  0  0  0  0  0  0
    8.3416  -16.3628    0.0000 C   0  0  0  0  0  0  0  0  0  0  0  0
    9.0561  -15.9503    0.0000 C   0  0  0  0  0  0  0  0  0  0  0  0
    9.7705  -16.3628    0.0000 C   0  0  0  0  0  0  0  0  0  0  0  0
    6.1982  -14.3003    0.0000 C   0  0  0  0  0  0  0  0  0  0  0  0
    4.3567  -14.1898    0.0000 C   0  0  0  0  0  0  0  0  0  0  0  0
    3.9442  -13.4753    0.0000 C   0  0  0  0  0  0  0  0  0  0  0  0
    9.8842  -13.2843    0.0000 C   0  0  0  0  0  0  0  0  0  0  0  0
    8.1171  -11.1175    0.0000 C   0  0  0  0  0  0  0  0  0  0  0  0
    8.6902  -10.5241    0.0000 C   0  0  0  0  0  0  0  0  0  0  0  0
    7.8510  -14.0092    0.0000 O   0  0  0  0  0  0  0  0  0  0  0  0
    9.7705  -15.5378    0.0000 O   0  0  0  0  0  0  0  0  0  0  0  0
    7.0968  -12.8433    0.0000 H   0  0  0  0  0  0  0  0  0  0  0  0
    8.1048  -11.5656    0.0000 H   0  0  0  0  0  0  0  0  0  0  0  0
    8.3416  -15.5378    0.0000 H   0  0  0  0  0  0  0  0  0  0  0  0
    7.6271  -15.9503    0.0000 H   0  0  0  0  0  0  0  0  0  0  0  0
    4.7692  -14.3003    0.0000 H   0  0  0  0  0  0  0  0  0  0  0  0
  1  2  1  0  0  0  0
  2  3  1  1  0  0  0
  3  4  1  0  0  0  0
  4  5  1  0  0  0  0
  5  6  1  0  0  0  0
  6  7  1  0  0  0  0
  7  8  1  0  0  0  0
  8  9  1  0  0  0  0
  9 10  1  0  0  0  0
 10 11  1  0  0  0  0
 11 12  2  0  0  0  0
 12 13  1  0  0  0  0
 13 14  1  0  0  0  0
 14 15  1  0  0  0  0
 15 16  1  0  0  0  0
 16 17  1  6  0  0  0
 17 18  1  0  0  0  0
 18 19  1  0  0  0  0
 19 20  1  0  0  0  0
 20 21  1  0  0  0  0
 21 22  1  0  0  0  0
 22 23  1  0  0  0  0
 23 24  1  0  0  0  0
 24 25  1  0  0  0  0
 25 26  1  0  0  0  0
 27 28  1  0  0  0  0
  1 26  1  0  0  0  0
  1 27  1  1  0  0  0
 28 16  1  0  0  0  0
 17 26  2  0  0  0  0
 20 25  1  0  0  0  0
  2 15  1  0  0  0  0
  2 11  1  0  0  0  0
  5 10  1  0  0  0  0
 13 29  2  0  0  0  0
 27 30  2  0  0  0  0
 31 32  1  0  0  0  0
 32 33  1  0  0  0  0
 28 32  1  1  0  0  0
 34 35  1  0  0  0  0
 35 36  1  0  0  0  0
 14 35  1  0  0  0  0
 25 37  1  1  0  0  0
 21 38  1  0  0  0  0
 21 39  1  0  0  0  0
 10 40  1  1  0  0  0
  6 41  1  0  0  0  0
  6 42  1  0  0  0  0
 28 43  1  1  0  0  0
 14 44  1  6  0  0  0
  1 45  1  0  0  0  0
  5 46  1  6  0  0  0
 15 47  1  1  0  0  0
 16 48  1  0  0  0  0
 20 49  1  6  0  0  0
M  END
>  <cdx:groupId>
164315

>  <cdx:fragmentId>
164165

$$$$
