559084.cdx
  Mrv1902 05222410272D          

 34 34  0  0  0  0            999 V2000
    5.2466   -9.8580    0.0000 C   0  0  0  0  0  0  0  0  0  0  0  0
    5.1721   -8.8864    0.0000 C   0  0  0  0  0  0  0  0  0  0  0  0
    5.9552   -9.1460    0.0000 C   0  0  0  0  0  0  0  0  0  0  0  0
    6.5715   -8.5975    0.0000 C   0  0  0  0  0  0  0  0  0  0  0  0
    7.3546   -8.8571    0.0000 C   0  0  0  0  0  0  0  0  0  0  0  0
    7.9709   -8.3087    0.0000 C   0  0  1  0  0  0  0  0  0  0  0  0
    8.7541   -8.5682    0.0000 C   0  0  0  0  0  0  0  0  0  0  0  0
    9.3704   -8.0198    0.0000 C   0  0  0  0  0  0  0  0  0  0  0  0
   10.1535   -8.2793    0.0000 C   0  0  0  0  0  0  0  0  0  0  0  0
   10.7698   -7.7309    0.0000 C   0  0  0  0  0  0  0  0  0  0  0  0
   11.5529   -7.9904    0.0000 C   0  0  0  0  0  0  0  0  0  0  0  0
   12.1693   -7.4420    0.0000 C   0  0  0  0  0  0  0  0  0  0  0  0
   12.9524   -7.7016    0.0000 C   0  0  0  0  0  0  0  0  0  0  0  0
   13.5687   -7.1531    0.0000 C   0  0  0  0  0  0  0  0  0  0  0  0
   13.1192   -8.5095    0.0000 C   0  0  0  0  0  0  0  0  0  0  0  0
   10.3203   -9.0873    0.0000 C   0  0  0  0  0  0  0  0  0  0  0  0
    7.5214   -9.6650    0.0000 C   0  0  0  0  0  0  0  0  0  0  0  0
    7.8042   -7.5007    0.0000 O   0  0  0  0  0  0  0  0  0  0  0  0
    1.6766   -7.2583    0.0000 O   0  0  0  0  0  0  0  0  0  0  0  0
    3.3075   -8.7090    0.0000 C   0  0  0  0  0  0  0  0  0  0  0  0
    4.1325   -8.7199    0.0000 C   0  0  2  0  0  0  0  0  0  0  0  0
    4.5354   -9.4398    0.0000 C   0  0  2  0  0  0  0  0  0  0  0  0
    4.1135  -10.1487    0.0000 C   0  0  2  0  0  0  0  0  0  0  0  0
    3.2886  -10.1378    0.0000 C   0  0  0  0  0  0  0  0  0  0  0  0
    2.8856   -9.4179    0.0000 C   0  0  0  0  0  0  0  0  0  0  0  0
    4.1026  -10.9736    0.0000 O   0  0  0  0  0  0  0  0  0  0  0  0
    4.5544   -8.0110    0.0000 C   0  0  0  0  0  0  0  0  0  0  0  0
    4.1514   -7.2911    0.0000 C   0  0  0  0  0  0  0  0  0  0  0  0
    4.5734   -6.5821    0.0000 C   0  0  0  0  0  0  0  0  0  0  0  0
    4.1704   -5.8623    0.0000 O   0  0  0  0  0  0  0  0  0  0  0  0
    4.8224  -10.5707    0.0000 C   0  0  0  0  0  0  0  0  0  0  0  0
    3.3265   -7.2801    0.0000 C   0  0  0  0  0  0  0  0  0  0  0  0
    2.9045   -7.9891    0.0000 C   0  0  0  0  0  0  0  0  0  0  0  0
    2.0796   -7.9781    0.0000 C   0  0  0  0  0  0  0  0  0  0  0  0
  2 22  1  0  0  0  0
 22  1  1  1  0  0  0
  2  3  1  0  0  0  0
  3  4  1  0  0  0  0
  4  5  2  0  0  0  0
  5  6  1  0  0  0  0
  6  7  1  0  0  0  0
  7  8  1  0  0  0  0
  8  9  2  0  0  0  0
  9 10  1  0  0  0  0
 10 11  1  0  0  0  0
 11 12  1  0  0  0  0
 12 13  2  0  0  0  0
 13 14  1  0  0  0  0
 13 15  1  0  0  0  0
  9 16  1  0  0  0  0
  5 17  1  0  0  0  0
  6 18  1  6  0  0  0
 34 19  2  0  0  0  0
 33 32  1  0  0  0  0
 34 33  1  0  0  0  0
 20 21  1  0  0  0  0
 21 22  1  0  0  0  0
 22 23  1  0  0  0  0
 23 24  1  0  0  0  0
 24 25  1  0  0  0  0
 20 25  1  0  0  0  0
 23 26  1  1  0  0  0
 27 28  1  0  0  0  0
 28 29  1  0  0  0  0
 29 30  1  0  0  0  0
 21 27  1  1  0  0  0
 23 31  1  0  0  0  0
 33 20  2  0  0  0  0
M  END
>  <cdx:fragmentId>
29

$$$$
