559197.cdx
  Mrv1902 05222410242D          

 38 44  0  0  0  0            999 V2000
    6.6558  -10.0340    0.0000 C   0  0  2  0  0  0  0  0  0  0  0  0
    5.9401  -10.4444    0.0000 C   0  0  1  0  0  0  0  0  0  0  0  0
    6.4270   -9.7784    0.0000 C   0  0  0  0  0  0  0  0  0  0  0  0
    6.2127   -8.9818    0.0000 O   0  0  0  0  0  0  0  0  0  0  0  0
    5.4092   -8.7947    0.0000 C   0  0  0  0  0  0  0  0  0  0  0  0
    4.8654   -9.4151    0.0000 C   0  0  0  0  0  0  0  0  0  0  0  0
    5.1562  -10.1871    0.0000 C   0  0  2  0  0  0  0  0  0  0  0  0
    4.6693  -10.8531    0.0000 O   0  0  0  0  0  0  0  0  0  0  0  0
    5.1522  -11.5220    0.0000 C   0  0  0  0  0  0  0  0  0  0  0  0
    5.9376  -11.2694    0.0000 C   0  0  0  0  0  0  0  0  0  0  0  0
    6.6509  -11.6840    0.0000 C   0  0  0  0  0  0  0  0  0  0  0  0
    7.3666  -11.2737    0.0000 C   0  0  0  0  0  0  0  0  0  0  0  0
    7.3690  -10.4487    0.0000 C   0  0  1  0  0  0  0  0  0  0  0  0
    8.0847  -10.0383    0.0000 C   0  0  1  0  0  0  0  0  0  0  0  0
    8.0823  -10.8633    0.0000 O   0  0  0  0  0  0  0  0  0  0  0  0
    8.7980  -10.4529    0.0000 C   0  0  2  0  0  0  0  0  0  0  0  0
    9.5136  -10.0426    0.0000 C   0  0  0  0  0  0  0  0  0  0  0  0
    9.5161   -9.2176    0.0000 O   0  0  0  0  0  0  0  0  0  0  0  0
    8.8029   -8.8029    0.0000 C   0  0  2  0  0  0  0  0  0  0  0  0
    8.0872   -9.2133    0.0000 C   0  0  2  0  0  0  0  0  0  0  0  0
    7.3739   -8.7987    0.0000 C   0  0  0  0  0  0  0  0  0  0  0  0
    6.6582   -9.2090    0.0000 C   0  0  0  0  0  0  0  0  0  0  0  0
    5.1566   -8.0093    0.0000 O   0  0  0  0  0  0  0  0  0  0  0  0
    8.0798  -11.6883    0.0000 O   0  0  0  0  0  0  0  0  0  0  0  0
   10.2269  -10.4572    0.0000 O   0  0  0  0  0  0  0  0  0  0  0  0
    8.0896   -8.3883    0.0000 C   0  0  0  0  0  0  0  0  0  0  0  0
    7.3715   -9.6237    0.0000 C   0  0  0  0  0  0  0  0  0  0  0  0
    5.3214  -12.3295    0.0000 C   0  0  0  0  0  0  0  0  0  0  0  0
    4.5375  -12.0722    0.0000 C   0  0  0  0  0  0  0  0  0  0  0  0
    6.6484  -12.5090    0.0000 O   0  0  0  0  0  0  0  0  0  0  0  0
    9.2216   -6.7096    0.0000 O   0  0  0  0  0  0  0  0  0  0  0  0
    9.4742   -7.4950    0.0000 C   0  0  0  0  0  0  0  0  0  0  0  0
    8.8053   -7.9779    0.0000 C   0  0  0  0  0  0  0  0  0  0  0  0
    8.1393   -7.4910    0.0000 C   0  0  0  0  0  0  0  0  0  0  0  0
    8.3966   -6.7072    0.0000 C   0  0  0  0  0  0  0  0  0  0  0  0
    6.6533  -10.8590    0.0000 H   0  0  0  0  0  0  0  0  0  0  0  0
    4.3388  -10.0757    0.0000 H   0  0  0  0  0  0  0  0  0  0  0  0
    9.2083  -11.1686    0.0000 H   0  0  0  0  0  0  0  0  0  0  0  0
  1  2  1  0  0  0  0
  2  3  1  1  0  0  0
  3  4  1  0  0  0  0
  4  5  1  0  0  0  0
  5  6  1  0  0  0  0
  6  7  1  0  0  0  0
  7  8  1  0  0  0  0
  8  9  1  0  0  0  0
  9 10  1  0  0  0  0
 10 11  2  0  0  0  0
 11 12  1  0  0  0  0
 12 13  1  0  0  0  0
 13 14  1  0  0  0  0
 14 15  1  1  0  0  0
 15 16  1  0  0  0  0
 16 17  1  0  0  0  0
 17 18  1  0  0  0  0
 18 19  1  0  0  0  0
 19 20  1  0  0  0  0
 20 21  1  0  0  0  0
 21 22  1  0  0  0  0
  1 22  1  0  0  0  0
  1 13  1  0  0  0  0
  2  7  1  0  0  0  0
  2 10  1  0  0  0  0
 14 16  1  0  0  0  0
 14 20  1  0  0  0  0
  5 23  2  0  0  0  0
 12 24  2  0  0  0  0
 17 25  2  0  0  0  0
 20 26  1  6  0  0  0
 13 27  1  1  0  0  0
  9 28  1  0  0  0  0
  9 29  1  0  0  0  0
 11 30  1  0  0  0  0
 31 32  1  0  0  0  0
 32 33  2  0  0  0  0
 33 34  1  0  0  0  0
 34 35  2  0  0  0  0
 31 35  1  0  0  0  0
 19 33  1  6  0  0  0
  1 36  1  6  0  0  0
  7 37  1  6  0  0  0
 16 38  1  6  0  0  0
M  END
>  <cdx:fragmentId>
5705

$$$$
