559173.cdx
  Mrv1902 05222410232D          

 23 22  0  0  0  0            999 V2000
   12.5549   -8.6179    0.0000 C   0  0  0  0  0  0  0  0  0  0  0  0
    7.5547   -7.3785    0.0000 O   0  0  0  0  0  0  0  0  0  0  0  0
    9.6982   -9.4410    0.0000 O   0  0  0  0  0  0  0  0  0  0  0  0
   10.4126   -7.3785    0.0000 O   0  0  0  0  0  0  0  0  0  0  0  0
    1.1245   -8.6160    0.0000 O   0  0  0  0  0  0  0  0  0  0  0  0
    1.8390   -7.3785    0.0000 O   0  0  0  0  0  0  0  0  0  0  0  0
   13.2670   -9.8568    0.0000 C   0  0  0  0  0  0  0  0  0  0  0  0
   12.5533   -9.4429    0.0000 C   0  0  0  0  0  0  0  0  0  0  0  0
   11.8416   -8.2035    0.0000 C   0  0  0  0  0  0  0  0  0  0  0  0
   11.1271   -8.6160    0.0000 C   0  0  0  0  0  0  0  0  0  0  0  0
   10.4126   -8.2035    0.0000 C   0  0  0  0  0  0  0  0  0  0  0  0
    9.6982   -8.6160    0.0000 C   0  0  0  0  0  0  0  0  0  0  0  0
    8.9837   -8.2035    0.0000 C   0  0  0  0  0  0  0  0  0  0  0  0
    8.2692   -8.6160    0.0000 C   0  0  0  0  0  0  0  0  0  0  0  0
    7.5547   -8.2035    0.0000 C   0  0  0  0  0  0  0  0  0  0  0  0
    6.8403   -8.6160    0.0000 C   0  0  0  0  0  0  0  0  0  0  0  0
    6.1258   -8.2035    0.0000 C   0  0  0  0  0  0  0  0  0  0  0  0
    5.4113   -8.6160    0.0000 C   0  0  0  0  0  0  0  0  0  0  0  0
    4.6969   -8.2035    0.0000 C   0  0  0  0  0  0  0  0  0  0  0  0
    3.9824   -8.6160    0.0000 C   0  0  0  0  0  0  0  0  0  0  0  0
    3.2679   -8.2035    0.0000 C   0  0  0  0  0  0  0  0  0  0  0  0
    2.5534   -8.6160    0.0000 C   0  0  0  0  0  0  0  0  0  0  0  0
    1.8390   -8.2035    0.0000 C   0  0  0  0  0  0  0  0  0  0  0  0
 15  2  1  0  0  0  0
 12  3  1  0  0  0  0
 11  4  1  0  0  0  0
 23  5  1  0  0  0  0
 23  6  2  0  0  0  0
  8  7  1  0  0  0  0
  9  1  2  0  0  0  0
 10  9  1  0  0  0  0
 11 10  1  0  0  0  0
 12 11  1  0  0  0  0
 13 12  1  0  0  0  0
 14 13  2  0  0  0  0
 15 14  1  0  0  0  0
 16 15  1  0  0  0  0
 17 16  1  0  0  0  0
 18 17  1  0  0  0  0
 19 18  1  0  0  0  0
 20 19  1  0  0  0  0
 21 20  1  0  0  0  0
 22 21  1  0  0  0  0
 23 22  1  0  0  0  0
  1  8  1  0  0  0  0
M  END
>  <cdx:fragmentId>
5

$$$$
