559141.cdx
  Mrv1902 05222410242D          

 13 12  0  0  0  0            999 V2000
   14.7543  -13.1890    0.0000 C   0  0  0  0  0  0  0  0  0  0  0  0
   14.0398  -13.6015    0.0000 C   0  0  0  0  0  0  0  0  0  0  0  0
   13.3253  -13.1890    0.0000 C   0  0  0  0  0  0  0  0  0  0  0  0
   12.6109  -13.6015    0.0000 C   0  0  0  0  0  0  0  0  0  0  0  0
   11.8964  -13.1890    0.0000 C   0  0  0  0  0  0  0  0  0  0  0  0
   14.7543  -12.3640    0.0000 O   0  0  0  0  0  0  0  0  0  0  0  0
   15.4688  -13.6015    0.0000 O   0  0  0  0  0  0  0  0  0  0  0  0
   16.1832  -13.1890    0.0000 C   0  0  0  0  0  0  0  0  0  0  0  0
   16.8977  -13.6015    0.0000 C   0  0  0  0  0  0  0  0  0  0  0  0
   17.6122  -13.1890    0.0000 C   0  0  0  0  0  0  0  0  0  0  0  0
   18.3266  -13.6015    0.0000 C   0  0  0  0  0  0  0  0  0  0  0  0
   18.3266  -14.4265    0.0000 C   0  0  0  0  0  0  0  0  0  0  0  0
   19.0411  -13.1890    0.0000 C   0  0  0  0  0  0  0  0  0  0  0  0
  1  2  1  0  0  0  0
  2  3  1  0  0  0  0
  3  4  1  0  0  0  0
  4  5  1  0  0  0  0
  1  6  2  0  0  0  0
  1  7  1  0  0  0  0
  8  9  1  0  0  0  0
  9 10  1  0  0  0  0
 10 11  1  0  0  0  0
 11 12  1  0  0  0  0
 11 13  1  0  0  0  0
  7  8  1  0  0  0  0
M  END
>  <cdx:groupId>
137

>  <cdx:fragmentId>
102

$$$$
