44559252.cdx
  Mrv1902 05222410282D          

 27 28  0  0  0  0            999 V2000
   53.8636   -9.8664    0.0000 C   0  0  0  0  0  0  0  0  0  0  0  0
   53.8636  -10.6914    0.0000 C   0  0  0  0  0  0  0  0  0  0  0  0
   53.1492  -11.1039    0.0000 C   0  0  2  0  0  0  0  0  0  0  0  0
   52.4347  -10.6914    0.0000 C   0  0  0  0  0  0  0  0  0  0  0  0
   52.4347   -9.8664    0.0000 C   0  0  1  0  0  0  0  0  0  0  0  0
   53.1492   -9.4539    0.0000 C   0  0  0  0  0  0  0  0  0  0  0  0
   54.5781   -9.4539    0.0000 C   0  0  0  0  0  0  0  0  0  0  0  0
   54.5781   -8.6289    0.0000 O   0  0  0  0  0  0  0  0  0  0  0  0
   55.2926   -9.8664    0.0000 O   0  0  0  0  0  0  0  0  0  0  0  0
   51.7202   -9.4539    0.0000 O   0  0  0  0  0  0  0  0  0  0  0  0
   53.1492  -11.9289    0.0000 O   0  0  0  0  0  0  0  0  0  0  0  0
   53.8636   -9.0414    0.0000 O   0  0  0  0  0  0  0  0  0  0  0  0
   51.7202  -11.1039    0.0000 O   0  0  0  0  0  0  0  0  0  0  0  0
   51.0058  -10.6914    0.0000 C   0  0  0  0  0  0  0  0  0  0  0  0
   50.2913  -11.1039    0.0000 C   0  0  0  0  0  0  0  0  0  0  0  0
   49.5768  -10.6914    0.0000 C   0  0  0  0  0  0  0  0  0  0  0  0
   51.0058   -9.8664    0.0000 O   0  0  0  0  0  0  0  0  0  0  0  0
   48.8624  -11.1039    0.0000 C   0  0  0  0  0  0  0  0  0  0  0  0
   48.1479  -10.6914    0.0000 C   0  0  0  0  0  0  0  0  0  0  0  0
   47.4334  -11.1039    0.0000 C   0  0  0  0  0  0  0  0  0  0  0  0
   47.4334  -11.9289    0.0000 C   0  0  0  0  0  0  0  0  0  0  0  0
   48.1479  -12.3414    0.0000 C   0  0  0  0  0  0  0  0  0  0  0  0
   48.8624  -11.9289    0.0000 C   0  0  0  0  0  0  0  0  0  0  0  0
   46.7189  -12.3414    0.0000 O   0  0  0  0  0  0  0  0  0  0  0  0
   46.7189  -10.6914    0.0000 O   0  0  0  0  0  0  0  0  0  0  0  0
   56.0071   -9.4539    0.0000 C   0  0  0  0  0  0  0  0  0  0  0  0
   56.7215   -9.8664    0.0000 C   0  0  0  0  0  0  0  0  0  0  0  0
  1  2  1  0  0  0  0
  2  3  1  0  0  0  0
  3  4  1  0  0  0  0
  4  5  1  0  0  0  0
  5  6  1  0  0  0  0
  1  6  1  0  0  0  0
  7  8  2  0  0  0  0
  7  9  1  0  0  0  0
  1  7  1  0  0  0  0
  5 10  1  6  0  0  0
  3 11  1  1  0  0  0
  1 12  1  0  0  0  0
 14 15  1  0  0  0  0
 15 16  2  0  0  0  0
 14 17  2  0  0  0  0
 18 19  1  0  0  0  0
 19 20  2  0  0  0  0
 20 21  1  0  0  0  0
 21 22  2  0  0  0  0
 22 23  1  0  0  0  0
 18 23  2  0  0  0  0
 21 24  1  0  0  0  0
 20 25  1  0  0  0  0
 16 18  1  0  0  0  0
 13 14  1  0  0  0  0
  4 13  1  0  0  0  0
 26 27  1  0  0  0  0
  9 26  1  0  0  0  0
M  END
>  <cdx:groupId>
165665

>  <cdx:fragmentId>
165620

$$$$
