5593.cdx
  Mrv1902 05222410202D          

 33 36  0  0  0  0            999 V2000
    6.6652   -6.4969    0.0000 C   0  0  0  0  0  0  0  0  0  0  0  0
    6.6652   -7.3219    0.0000 C   0  0  0  0  0  0  0  0  0  0  0  0
    7.3796   -7.7344    0.0000 C   0  0  0  0  0  0  0  0  0  0  0  0
    8.0941   -7.3219    0.0000 C   0  0  0  0  0  0  0  0  0  0  0  0
    8.0941   -6.4969    0.0000 C   0  0  0  0  0  0  0  0  0  0  0  0
    7.3796   -6.0844    0.0000 C   0  0  0  0  0  0  0  0  0  0  0  0
    8.8086   -7.7344    0.0000 C   0  0  0  0  0  0  0  0  0  0  0  0
    9.5230   -7.3219    0.0000 C   0  0  0  0  0  0  0  0  0  0  0  0
    9.5230   -6.4969    0.0000 C   0  0  0  0  0  0  0  0  0  0  0  0
    8.8086   -6.0844    0.0000 O   0  0  0  0  0  0  0  0  0  0  0  0
   10.2375   -6.0844    0.0000 C   0  0  0  0  0  0  0  0  0  0  0  0
   10.2375   -5.2594    0.0000 C   0  0  0  0  0  0  0  0  0  0  0  0
   10.9520   -6.4969    0.0000 C   0  0  0  0  0  0  0  0  0  0  0  0
   11.6665   -6.0844    0.0000 C   0  0  0  0  0  0  0  0  0  0  0  0
   11.6665   -5.2594    0.0000 C   0  0  0  0  0  0  0  0  0  0  0  0
   10.9520   -4.8469    0.0000 C   0  0  0  0  0  0  0  0  0  0  0  0
    8.8086   -8.5594    0.0000 O   0  0  0  0  0  0  0  0  0  0  0  0
    5.9507   -6.0844    0.0000 O   0  0  0  0  0  0  0  0  0  0  0  0
    7.3796   -5.2594    0.0000 O   0  0  0  0  0  0  0  0  0  0  0  0
    7.3796   -4.4344    0.0000 C   0  0  0  0  0  0  0  0  0  0  0  0
    7.3796   -8.5594    0.0000 O   0  0  0  0  0  0  0  0  0  0  0  0
   12.3809   -4.8469    0.0000 O   0  0  0  0  0  0  0  0  0  0  0  0
    3.7983   -6.4969    0.0000 C   0  0  2  0  0  0  0  0  0  0  0  0
    3.7983   -7.3219    0.0000 C   0  0  2  0  0  0  0  0  0  0  0  0
    4.5127   -7.7344    0.0000 C   0  0  1  0  0  0  0  0  0  0  0  0
    5.2272   -7.3219    0.0000 C   0  0  2  0  0  0  0  0  0  0  0  0
    5.2272   -6.4969    0.0000 C   0  0  1  0  0  0  0  0  0  0  0  0
    4.5127   -6.0844    0.0000 O   0  0  0  0  0  0  0  0  0  0  0  0
    3.0838   -6.0844    0.0000 C   0  0  0  0  0  0  0  0  0  0  0  0
    4.5127   -8.5594    0.0000 O   0  0  0  0  0  0  0  0  0  0  0  0
    5.9417   -7.7344    0.0000 O   0  0  0  0  0  0  0  0  0  0  0  0
    3.0838   -7.7344    0.0000 O   0  0  0  0  0  0  0  0  0  0  0  0
    2.3693   -6.4969    0.0000 O   0  0  0  0  0  0  0  0  0  0  0  0
  1  2  2  0  0  0  0
  2  3  1  0  0  0  0
  3  4  2  0  0  0  0
  4  5  1  0  0  0  0
  5  6  2  0  0  0  0
  6  1  1  0  0  0  0
  4  7  1  0  0  0  0
  7  8  1  0  0  0  0
  8  9  2  0  0  0  0
  9 10  1  0  0  0  0
 10  5  1  0  0  0  0
  9 11  1  0  0  0  0
 11 12  1  0  0  0  0
 11 13  2  0  0  0  0
 13 14  1  0  0  0  0
 14 15  2  0  0  0  0
 15 16  1  0  0  0  0
 16 12  2  0  0  0  0
  7 17  2  0  0  0  0
  1 18  1  0  0  0  0
  6 19  1  0  0  0  0
  3 21  1  0  0  0  0
 15 22  1  0  0  0  0
 23 24  1  0  0  0  0
 24 25  1  0  0  0  0
 25 26  1  0  0  0  0
 26 27  1  0  0  0  0
 27 28  1  0  0  0  0
 28 23  1  0  0  0  0
 23 29  1  1  0  0  0
 25 30  1  1  0  0  0
 26 31  1  6  0  0  0
 24 32  1  6  0  0  0
 29 33  1  0  0  0  0
 27 18  1  1  0  0  0
 19 20  1  0  0  0  0
M  STY  1   1 SUP
M  SAL   1  2  19  20
M  SBL   1  1  21
M  SMT   1 OCH3
M  SAP   1  1  19   6  1
M  END
>  <cdx:fragmentId>
112

$$$$
