559435.cdx
  Mrv1902 05222410252D          

 48 50  0  0  0  0            999 V2000
    6.4670   -6.6233    0.0000 C   0  0  0  0  0  0  0  0  0  0  0  0
    6.0581   -7.3395    0.0000 C   0  0  1  0  0  0  0  0  0  0  0  0
    6.4738   -8.0518    0.0000 C   0  0  0  0  0  0  0  0  0  0  0  0
    7.2985   -8.0479    0.0000 C   0  0  2  0  0  0  0  0  0  0  0  0
    7.7075   -7.3317    0.0000 C   0  0  2  0  0  0  0  0  0  0  0  0
    7.2917   -6.6194    0.0000 C   0  0  0  0  0  0  0  0  0  0  0  0
    5.2333   -7.3435    0.0000 O   0  0  0  0  0  0  0  0  0  0  0  0
    8.1233   -8.0440    0.0000 O   0  0  0  0  0  0  0  0  0  0  0  0
    7.3025   -8.8726    0.0000 C   0  0  0  0  0  0  0  0  0  0  0  0
    8.4198   -6.9159    0.0000 C   0  0  0  0  0  0  0  0  0  0  0  0
    9.1360   -7.3249    0.0000 C   0  0  0  0  0  0  0  0  0  0  0  0
    9.8483   -6.9091    0.0000 C   0  0  0  0  0  0  0  0  0  0  0  0
   10.5645   -7.3181    0.0000 C   0  0  0  0  0  0  0  0  0  0  0  0
   11.2767   -6.9023    0.0000 C   0  0  0  0  0  0  0  0  0  0  0  0
   11.9929   -7.3113    0.0000 C   0  0  0  0  0  0  0  0  0  0  0  0
   12.7052   -6.8955    0.0000 C   0  0  0  0  0  0  0  0  0  0  0  0
   18.8861  -12.7659    0.0000 O   0  0  0  0  0  0  0  0  0  0  0  0
   17.8868  -12.8641    0.0000 C   0  0  0  0  0  0  0  0  0  0  0  0
   17.5027  -15.4959    0.0000 C   0  0  0  0  0  0  0  0  0  0  0  0
   16.9179  -14.6796    0.0000 C   0  0  0  0  0  0  0  0  0  0  0  0
   19.1323  -16.3218    0.0000 O   0  0  0  0  0  0  0  0  0  0  0  0
   20.5601  -16.3687    0.0000 C   0  0  0  0  0  0  0  0  0  0  0  0
   19.8598  -15.9331    0.0000 C   0  0  0  0  0  0  0  0  0  0  0  0
   19.8869  -15.1088    0.0000 O   0  0  0  0  0  0  0  0  0  0  0  0
    9.1399   -8.1496    0.0000 O   0  0  0  0  0  0  0  0  0  0  0  0
    7.2878   -5.7947    0.0000 C   0  0  0  0  0  0  0  0  0  0  0  0
    8.0040   -6.2036    0.0000 C   0  0  0  0  0  0  0  0  0  0  0  0
    9.8443   -6.0844    0.0000 C   0  0  0  0  0  0  0  0  0  0  0  0
   12.7013   -6.0708    0.0000 C   0  0  0  0  0  0  0  0  0  0  0  0
   17.7422  -14.7067    0.0000 C   0  0  0  0  0  0  0  0  0  0  0  0
   18.4584  -15.1156    0.0000 C   0  0  0  0  0  0  0  0  0  0  0  0
   19.1707  -14.6999    0.0000 C   0  0  1  0  0  0  0  0  0  0  0  0
   19.1667  -13.8751    0.0000 C   0  0  0  0  0  0  0  0  0  0  0  0
   18.4505  -13.4662    0.0000 C   0  0  2  0  0  0  0  0  0  0  0  0
   17.7383  -13.8819    0.0000 C   0  0  0  0  0  0  0  0  0  0  0  0
   17.0142  -11.8235    0.0000 C   0  0  0  0  0  0  0  0  0  0  0  0
   15.5739   -9.3561    0.0000 C   0  0  0  0  0  0  0  0  0  0  0  0
   17.0221  -13.4730    0.0000 C   0  0  0  0  0  0  0  0  0  0  0  0
   16.3059  -13.0640    0.0000 C   0  0  0  0  0  0  0  0  0  0  0  0
   16.3019  -12.2393    0.0000 C   0  0  0  0  0  0  0  0  0  0  0  0
   15.5857  -11.8303    0.0000 C   0  0  0  0  0  0  0  0  0  0  0  0
   15.5818  -11.0056    0.0000 C   0  0  0  0  0  0  0  0  0  0  0  0
   14.8656  -10.5966    0.0000 C   0  0  0  0  0  0  0  0  0  0  0  0
   14.8617   -9.7719    0.0000 C   0  0  0  0  0  0  0  0  0  0  0  0
   14.1455   -9.3629    0.0000 C   0  0  0  0  0  0  0  0  0  0  0  0
   14.1415   -8.5382    0.0000 C   0  0  0  0  0  0  0  0  0  0  0  0
   13.4253   -8.1292    0.0000 C   0  0  0  0  0  0  0  0  0  0  0  0
   13.4214   -7.3045    0.0000 C   0  0  0  0  0  0  0  0  0  0  0  0
  1  2  1  0  0  0  0
  2  3  1  0  0  0  0
  3  4  1  0  0  0  0
  4  5  1  0  0  0  0
  5  6  1  0  0  0  0
  6  1  1  0  0  0  0
  2  7  1  1  0  0  0
  4  8  1  0  0  0  0
  8  5  1  0  0  0  0
  4  9  1  1  0  0  0
  5 10  1  1  0  0  0
 10 11  1  0  0  0  0
 11 12  1  0  0  0  0
 12 13  2  0  0  0  0
 13 14  1  0  0  0  0
 14 15  2  0  0  0  0
 15 16  1  0  0  0  0
 34 17  1  6  0  0  0
 16 48  2  0  0  0  0
 34 18  1  0  0  0  0
 30 19  1  0  0  0  0
 30 20  1  0  0  0  0
 23 21  2  0  0  0  0
 23 22  1  0  0  0  0
 24 23  1  0  0  0  0
 32 24  1  1  0  0  0
 30 35  1  0  0  0  0
 31 30  1  0  0  0  0
 32 31  1  0  0  0  0
 33 32  1  0  0  0  0
 34 33  1  0  0  0  0
 11 25  2  0  0  0  0
  6 26  1  0  0  0  0
  6 27  1  0  0  0  0
 12 28  1  0  0  0  0
 16 29  1  0  0  0  0
 35 34  1  0  0  0  0
 38 35  2  0  0  0  0
 40 36  1  0  0  0  0
 44 37  1  0  0  0  0
 39 38  2  0  0  0  0
 40 39  1  0  0  0  0
 41 40  2  0  0  0  0
 42 41  1  0  0  0  0
 43 42  2  0  0  0  0
 44 43  1  0  0  0  0
 45 44  2  0  0  0  0
 46 45  1  0  0  0  0
 47 46  2  0  0  0  0
 48 47  1  0  0  0  0
M  END
>  <cdx:fragmentId>
5

$$$$
