15559486.cdx
  Mrv1902 05222410262D          

 39 43  0  0  0  0            999 V2000
    4.3750  -11.9195    0.0000 C   0  0  0  0  0  0  0  0  0  0  0  0
    5.0894  -12.3320    0.0000 C   0  0  0  0  0  0  0  0  0  0  0  0
    5.8039  -11.9195    0.0000 C   0  0  0  0  0  0  0  0  0  0  0  0
    6.5184  -12.3320    0.0000 C   0  0  0  0  0  0  0  0  0  0  0  0
    6.5184  -13.1570    0.0000 C   0  0  0  0  0  0  0  0  0  0  0  0
    5.8039  -13.5695    0.0000 C   0  0  0  0  0  0  0  0  0  0  0  0
    5.0894  -13.1570    0.0000 C   0  0  0  0  0  0  0  0  0  0  0  0
    4.3750  -13.5695    0.0000 O   0  0  0  0  0  0  0  0  0  0  0  0
    3.6605  -13.1570    0.0000 C   0  0  0  0  0  0  0  0  0  0  0  0
    2.9460  -13.5695    0.0000 C   0  0  0  0  0  0  0  0  0  0  0  0
    2.2316  -13.1570    0.0000 C   0  0  0  0  0  0  0  0  0  0  0  0
    2.2316  -12.3320    0.0000 C   0  0  0  0  0  0  0  0  0  0  0  0
    2.9460  -11.9195    0.0000 C   0  0  0  0  0  0  0  0  0  0  0  0
    3.6605  -12.3320    0.0000 C   0  0  0  0  0  0  0  0  0  0  0  0
    4.3750  -11.0945    0.0000 O   0  0  0  0  0  0  0  0  0  0  0  0
    7.2329  -13.5695    0.0000 O   0  0  0  0  0  0  0  0  0  0  0  0
    8.6618  -13.5695    0.0000 O   0  0  0  0  0  0  0  0  0  0  0  0
    7.9473  -13.1570    0.0000 C   0  0  0  0  0  0  0  0  0  0  0  0
    7.9473  -12.3320    0.0000 C   0  0  1  0  0  0  0  0  0  0  0  0
    8.6618  -11.9195    0.0000 C   0  0  2  0  0  0  0  0  0  0  0  0
    9.3763  -12.3320    0.0000 C   0  0  1  0  0  0  0  0  0  0  0  0
    9.3763  -13.1570    0.0000 C   0  0  2  0  0  0  0  0  0  0  0  0
   10.0907  -13.5695    0.0000 C   0  0  0  0  0  0  0  0  0  0  0  0
   10.8052  -13.1570    0.0000 O   0  0  0  0  0  0  0  0  0  0  0  0
   11.5197  -14.3945    0.0000 O   0  0  0  0  0  0  0  0  0  0  0  0
   11.5197  -13.5695    0.0000 C   0  0  2  0  0  0  0  0  0  0  0  0
   12.2342  -13.1570    0.0000 C   0  0  1  0  0  0  0  0  0  0  0  0
   12.9486  -13.5695    0.0000 C   0  0  2  0  0  0  0  0  0  0  0  0
   12.9486  -14.3945    0.0000 C   0  0  2  0  0  0  0  0  0  0  0  0
   12.2342  -14.8070    0.0000 C   0  0  0  0  0  0  0  0  0  0  0  0
   13.6631  -14.8070    0.0000 O   0  0  0  0  0  0  0  0  0  0  0  0
   13.6631  -13.1570    0.0000 O   0  0  0  0  0  0  0  0  0  0  0  0
   12.2342  -12.3320    0.0000 O   0  0  0  0  0  0  0  0  0  0  0  0
   10.0907  -11.9195    0.0000 O   0  0  0  0  0  0  0  0  0  0  0  0
    8.6618  -11.0945    0.0000 O   0  0  0  0  0  0  0  0  0  0  0  0
    7.2329  -11.9195    0.0000 O   0  0  0  0  0  0  0  0  0  0  0  0
    1.5171  -11.9195    0.0000 O   0  0  0  0  0  0  0  0  0  0  0  0
    0.8026  -12.3320    0.0000 C   0  0  0  0  0  0  0  0  0  0  0  0
    5.8039  -11.0945    0.0000 O   0  0  0  0  0  0  0  0  0  0  0  0
  1  2  1  0  0  0  0
  2  3  1  0  0  0  0
  3  4  2  0  0  0  0
  4  5  1  0  0  0  0
  5  6  2  0  0  0  0
  6  7  1  0  0  0  0
  2  7  2  0  0  0  0
  7  8  1  0  0  0  0
  8  9  1  0  0  0  0
  9 10  1  0  0  0  0
 10 11  2  0  0  0  0
 11 12  1  0  0  0  0
 12 13  2  0  0  0  0
 13 14  1  0  0  0  0
  9 14  2  0  0  0  0
  1 14  1  0  0  0  0
  1 15  2  0  0  0  0
 17 18  1  0  0  0  0
 18 19  1  0  0  0  0
 19 20  1  0  0  0  0
 20 21  1  0  0  0  0
 21 22  1  0  0  0  0
 17 22  1  0  0  0  0
 25 26  1  0  0  0  0
 26 27  1  0  0  0  0
 27 28  1  0  0  0  0
 28 29  1  0  0  0  0
 29 30  1  0  0  0  0
 25 30  1  0  0  0  0
 29 31  1  1  0  0  0
 28 32  1  1  0  0  0
 27 33  1  6  0  0  0
 26 24  1  1  0  0  0
 23 24  1  0  0  0  0
 22 23  1  6  0  0  0
 21 34  1  6  0  0  0
 20 35  1  1  0  0  0
 19 36  1  6  0  0  0
 16 18  1  0  0  0  0
  5 16  1  0  0  0  0
 37 38  1  0  0  0  0
 12 37  1  0  0  0  0
  3 39  1  0  0  0  0
M  END
>  <cdx:fragmentId>
6461

$$$$
