559418.cdx
  Mrv1902 05222410242D          

 19 20  0  0  0  0            999 V2000
    9.1172   -8.1435    0.0000 O   0  0  0  0  0  0  0  0  0  0  0  0
    8.3334   -8.4009    0.0000 C   0  0  0  0  0  0  0  0  0  0  0  0
    8.3360   -9.2259    0.0000 C   0  0  0  0  0  0  0  0  0  0  0  0
    9.1214   -9.4783    0.0000 C   0  0  0  0  0  0  0  0  0  0  0  0
    9.6042   -8.8094    0.0000 C   0  0  0  0  0  0  0  0  0  0  0  0
    5.6375   -9.2125    0.0000 C   0  0  0  0  0  0  0  0  0  0  0  0
    5.6375   -8.4975    0.0000 C   0  0  0  0  0  0  0  0  0  0  0  0
    6.2150   -7.9750    0.0000 C   0  0  0  0  0  0  0  0  0  0  0  0
    6.9300   -7.9750    0.0000 C   0  0  0  0  0  0  0  0  0  0  0  0
    7.4800   -8.3875    0.0000 C   0  0  0  0  0  0  0  0  0  0  0  0
    7.3425   -7.2605    0.0000 C   0  0  0  0  0  0  0  0  0  0  0  0
    9.3788  -10.2621    0.0000 C   0  0  0  0  0  0  0  0  0  0  0  0
    5.8025   -7.2605    0.0000 H   0  0  0  0  0  0  0  0  0  0  0  0
    6.2150   -9.6800    0.0000 C   0  0  0  0  0  0  0  0  0  0  0  0
    6.9025   -9.6800    0.0000 C   0  0  0  0  0  0  0  0  0  0  0  0
    7.5075   -9.2125    0.0000 C   0  0  0  0  0  0  0  0  0  0  0  0
    5.8025  -10.3945    0.0000 C   0  0  0  0  0  0  0  0  0  0  0  0
    7.3150  -10.3945    0.0000 H   0  0  0  0  0  0  0  0  0  0  0  0
    7.9200   -9.9270    0.0000 O   0  0  0  0  0  0  0  0  0  0  0  0
  1  2  1  0  0  0  0
  2  3  2  0  0  0  0
  3  4  1  0  0  0  0
  4  5  2  0  0  0  0
  1  5  1  0  0  0  0
  6  7  1  0  0  0  0
  7  8  1  0  0  0  0
  8  9  2  0  0  0  0
  9 10  1  0  0  0  0
 10  2  1  0  0  0  0
  9 11  1  0  0  0  0
  4 12  1  0  0  0  0
  8 13  1  0  0  0  0
  6 14  1  0  0  0  0
 14 15  2  0  0  0  0
 15 16  1  0  0  0  0
 14 17  1  0  0  0  0
 15 18  1  0  0  0  0
 16 19  2  0  0  0  0
  3 16  1  0  0  0  0
M  END
>  <cdx:groupId>
82366

>  <cdx:fragmentId>
82327

$$$$
