559433.cdx
  Mrv1902 05222410232D          

 48 50  0  0  0  0            999 V2000
    3.1395   -8.5758    0.0000 C   0  0  0  0  0  0  0  0  0  0  0  0
    2.7306   -9.2920    0.0000 C   0  0  1  0  0  0  0  0  0  0  0  0
    3.1463  -10.0043    0.0000 C   0  0  0  0  0  0  0  0  0  0  0  0
    3.9710  -10.0004    0.0000 C   0  0  2  0  0  0  0  0  0  0  0  0
    4.3800   -9.2842    0.0000 C   0  0  2  0  0  0  0  0  0  0  0  0
    3.9642   -8.5719    0.0000 C   0  0  0  0  0  0  0  0  0  0  0  0
    1.9058   -9.2960    0.0000 O   0  0  0  0  0  0  0  0  0  0  0  0
    4.7958   -9.9965    0.0000 O   0  0  0  0  0  0  0  0  0  0  0  0
    3.9750  -10.8251    0.0000 C   0  0  0  0  0  0  0  0  0  0  0  0
    5.0923   -8.8684    0.0000 C   0  0  0  0  0  0  0  0  0  0  0  0
    5.8085   -9.2774    0.0000 C   0  0  0  0  0  0  0  0  0  0  0  0
    6.5208   -8.8616    0.0000 C   0  0  0  0  0  0  0  0  0  0  0  0
    7.2370   -9.2706    0.0000 C   0  0  0  0  0  0  0  0  0  0  0  0
    7.9492   -8.8548    0.0000 C   0  0  0  0  0  0  0  0  0  0  0  0
    8.6654   -9.2638    0.0000 C   0  0  0  0  0  0  0  0  0  0  0  0
    9.3777   -8.8480    0.0000 C   0  0  0  0  0  0  0  0  0  0  0  0
   10.0939   -9.2570    0.0000 C   0  0  0  0  0  0  0  0  0  0  0  0
   10.8062   -8.8412    0.0000 C   0  0  0  0  0  0  0  0  0  0  0  0
   11.5224   -9.2502    0.0000 C   0  0  0  0  0  0  0  0  0  0  0  0
   12.2347   -8.8344    0.0000 C   0  0  0  0  0  0  0  0  0  0  0  0
   16.9753  -12.2374    0.0000 O   0  0  0  0  0  0  0  0  0  0  0  0
   15.9760  -12.3357    0.0000 C   0  0  0  0  0  0  0  0  0  0  0  0
   15.5919  -14.9674    0.0000 C   0  0  0  0  0  0  0  0  0  0  0  0
   15.0071  -14.1511    0.0000 C   0  0  0  0  0  0  0  0  0  0  0  0
   17.2215  -15.7933    0.0000 O   0  0  0  0  0  0  0  0  0  0  0  0
   18.6493  -15.8403    0.0000 C   0  0  0  0  0  0  0  0  0  0  0  0
    5.8124  -10.1021    0.0000 O   0  0  0  0  0  0  0  0  0  0  0  0
    3.9603   -7.7472    0.0000 C   0  0  0  0  0  0  0  0  0  0  0  0
    4.6765   -8.1561    0.0000 C   0  0  0  0  0  0  0  0  0  0  0  0
    6.5168   -8.0369    0.0000 C   0  0  0  0  0  0  0  0  0  0  0  0
    9.3738   -8.0233    0.0000 C   0  0  0  0  0  0  0  0  0  0  0  0
   17.9489  -15.4046    0.0000 C   0  0  0  0  0  0  0  0  0  0  0  0
   17.9760  -14.5803    0.0000 O   0  0  0  0  0  0  0  0  0  0  0  0
   15.8314  -14.1782    0.0000 C   0  0  0  0  0  0  0  0  0  0  0  0
   16.5476  -14.5871    0.0000 C   0  0  0  0  0  0  0  0  0  0  0  0
   17.2598  -14.1714    0.0000 C   0  0  1  0  0  0  0  0  0  0  0  0
   17.2559  -13.3466    0.0000 C   0  0  0  0  0  0  0  0  0  0  0  0
   16.5397  -12.9377    0.0000 C   0  0  2  0  0  0  0  0  0  0  0  0
   15.8274  -13.3534    0.0000 C   0  0  0  0  0  0  0  0  0  0  0  0
   15.1034  -11.2950    0.0000 C   0  0  0  0  0  0  0  0  0  0  0  0
   13.6631   -8.8276    0.0000 C   0  0  0  0  0  0  0  0  0  0  0  0
   15.1112  -12.9445    0.0000 C   0  0  0  0  0  0  0  0  0  0  0  0
   14.3950  -12.5355    0.0000 C   0  0  0  0  0  0  0  0  0  0  0  0
   14.3911  -11.7108    0.0000 C   0  0  0  0  0  0  0  0  0  0  0  0
   13.6749  -11.3018    0.0000 C   0  0  0  0  0  0  0  0  0  0  0  0
   13.6710  -10.4771    0.0000 C   0  0  0  0  0  0  0  0  0  0  0  0
   12.9548  -10.0681    0.0000 C   0  0  0  0  0  0  0  0  0  0  0  0
   12.9509   -9.2434    0.0000 C   0  0  0  0  0  0  0  0  0  0  0  0
  1  2  1  0  0  0  0
  2  3  1  0  0  0  0
  3  4  1  0  0  0  0
  4  5  1  0  0  0  0
  5  6  1  0  0  0  0
  6  1  1  0  0  0  0
  2  7  1  1  0  0  0
  4  8  1  0  0  0  0
  8  5  1  0  0  0  0
  4  9  1  1  0  0  0
  5 10  1  1  0  0  0
 10 11  1  0  0  0  0
 11 12  1  0  0  0  0
 12 13  2  0  0  0  0
 13 14  1  0  0  0  0
 14 15  2  0  0  0  0
 15 16  1  0  0  0  0
 16 17  2  0  0  0  0
 17 18  1  0  0  0  0
 18 19  2  0  0  0  0
 19 20  1  0  0  0  0
 38 21  1  6  0  0  0
 20 48  2  0  0  0  0
 38 22  1  0  0  0  0
 34 23  1  0  0  0  0
 34 24  1  0  0  0  0
 32 25  2  0  0  0  0
 32 26  1  0  0  0  0
 33 32  1  0  0  0  0
 11 27  2  0  0  0  0
  6 28  1  0  0  0  0
  6 29  1  0  0  0  0
 12 30  1  0  0  0  0
 16 31  1  0  0  0  0
 36 33  1  1  0  0  0
 34 39  1  0  0  0  0
 35 34  1  0  0  0  0
 36 35  1  0  0  0  0
 37 36  1  0  0  0  0
 38 37  1  0  0  0  0
 39 38  1  0  0  0  0
 42 39  2  0  0  0  0
 44 40  1  0  0  0  0
 48 41  1  0  0  0  0
 43 42  2  0  0  0  0
 44 43  1  0  0  0  0
 45 44  2  0  0  0  0
 46 45  1  0  0  0  0
 47 46  2  0  0  0  0
 48 47  1  0  0  0  0
M  END
>  <cdx:fragmentId>
5

$$$$
