559434.cdx
  Mrv1902 05222410242D          

 48 50  0  0  0  0            999 V2000
    3.1395   -8.5758    0.0000 C   0  0  0  0  0  0  0  0  0  0  0  0
    2.7306   -9.2920    0.0000 C   0  0  1  0  0  0  0  0  0  0  0  0
    3.1463  -10.0043    0.0000 C   0  0  0  0  0  0  0  0  0  0  0  0
    3.9710  -10.0004    0.0000 C   0  0  2  0  0  0  0  0  0  0  0  0
    4.3800   -9.2842    0.0000 C   0  0  2  0  0  0  0  0  0  0  0  0
    3.9642   -8.5719    0.0000 C   0  0  0  0  0  0  0  0  0  0  0  0
    1.9058   -9.2960    0.0000 O   0  0  0  0  0  0  0  0  0  0  0  0
    4.7958   -9.9965    0.0000 O   0  0  0  0  0  0  0  0  0  0  0  0
    3.9750  -10.8251    0.0000 C   0  0  0  0  0  0  0  0  0  0  0  0
    5.0923   -8.8684    0.0000 C   0  0  0  0  0  0  0  0  0  0  0  0
    5.8085   -9.2774    0.0000 C   0  0  0  0  0  0  0  0  0  0  0  0
    6.5208   -8.8616    0.0000 C   0  0  0  0  0  0  0  0  0  0  0  0
    7.2370   -9.2706    0.0000 C   0  0  0  0  0  0  0  0  0  0  0  0
    7.9492   -8.8548    0.0000 C   0  0  0  0  0  0  0  0  0  0  0  0
    8.6654   -9.2638    0.0000 C   0  0  0  0  0  0  0  0  0  0  0  0
    9.3777   -8.8480    0.0000 C   0  0  0  0  0  0  0  0  0  0  0  0
   10.0939   -9.2570    0.0000 C   0  0  0  0  0  0  0  0  0  0  0  0
   10.8062   -8.8412    0.0000 C   0  0  0  0  0  0  0  0  0  0  0  0
   11.5224   -9.2502    0.0000 C   0  0  0  0  0  0  0  0  0  0  0  0
   12.2347   -8.8344    0.0000 C   0  0  0  0  0  0  0  0  0  0  0  0
   12.9509   -9.2434    0.0000 C   0  0  0  0  0  0  0  0  0  0  0  0
   13.6631   -8.8276    0.0000 C   0  0  0  0  0  0  0  0  0  0  0  0
   14.3793   -9.2366    0.0000 C   0  0  0  0  0  0  0  0  0  0  0  0
   15.0916   -8.8208    0.0000 C   0  0  0  0  0  0  0  0  0  0  0  0
   18.3920   -9.7564    0.0000 O   0  0  0  0  0  0  0  0  0  0  0  0
   17.3927   -9.8547    0.0000 C   0  0  0  0  0  0  0  0  0  0  0  0
    5.8124  -10.1021    0.0000 O   0  0  0  0  0  0  0  0  0  0  0  0
    3.9603   -7.7472    0.0000 C   0  0  0  0  0  0  0  0  0  0  0  0
    4.6765   -8.1561    0.0000 C   0  0  0  0  0  0  0  0  0  0  0  0
    6.5168   -8.0369    0.0000 C   0  0  0  0  0  0  0  0  0  0  0  0
    9.3738   -8.0233    0.0000 C   0  0  0  0  0  0  0  0  0  0  0  0
   12.9548  -10.0681    0.0000 C   0  0  0  0  0  0  0  0  0  0  0  0
   17.0085  -12.4864    0.0000 C   0  0  0  0  0  0  0  0  0  0  0  0
   16.4238  -11.6701    0.0000 C   0  0  0  0  0  0  0  0  0  0  0  0
   18.6382  -13.3123    0.0000 O   0  0  0  0  0  0  0  0  0  0  0  0
   20.0660  -13.3593    0.0000 C   0  0  0  0  0  0  0  0  0  0  0  0
   19.3656  -12.9236    0.0000 C   0  0  0  0  0  0  0  0  0  0  0  0
   19.3927  -12.0993    0.0000 O   0  0  0  0  0  0  0  0  0  0  0  0
   17.2481  -11.6972    0.0000 C   0  0  0  0  0  0  0  0  0  0  0  0
   17.9643  -12.1061    0.0000 C   0  0  0  0  0  0  0  0  0  0  0  0
   18.6765  -11.6904    0.0000 C   0  0  1  0  0  0  0  0  0  0  0  0
   18.6726  -10.8657    0.0000 C   0  0  0  0  0  0  0  0  0  0  0  0
   17.9564  -10.4567    0.0000 C   0  0  2  0  0  0  0  0  0  0  0  0
   17.2441  -10.8725    0.0000 C   0  0  0  0  0  0  0  0  0  0  0  0
   16.5201   -8.8140    0.0000 C   0  0  0  0  0  0  0  0  0  0  0  0
   16.5279  -10.4635    0.0000 C   0  0  0  0  0  0  0  0  0  0  0  0
   15.8117  -10.0545    0.0000 C   0  0  0  0  0  0  0  0  0  0  0  0
   15.8078   -9.2298    0.0000 C   0  0  0  0  0  0  0  0  0  0  0  0
  1  2  1  0  0  0  0
  2  3  1  0  0  0  0
  3  4  1  0  0  0  0
  4  5  1  0  0  0  0
  5  6  1  0  0  0  0
  6  1  1  0  0  0  0
  2  7  1  1  0  0  0
  4  8  1  0  0  0  0
  8  5  1  0  0  0  0
  4  9  1  1  0  0  0
  5 10  1  1  0  0  0
 10 11  1  0  0  0  0
 11 12  1  0  0  0  0
 12 13  2  0  0  0  0
 13 14  1  0  0  0  0
 14 15  2  0  0  0  0
 15 16  1  0  0  0  0
 16 17  2  0  0  0  0
 17 18  1  0  0  0  0
 18 19  2  0  0  0  0
 19 20  1  0  0  0  0
 20 21  2  0  0  0  0
 21 22  1  0  0  0  0
 22 23  2  0  0  0  0
 23 24  1  0  0  0  0
 43 25  1  6  0  0  0
 24 48  2  0  0  0  0
 43 26  1  0  0  0  0
 39 33  1  0  0  0  0
 11 27  2  0  0  0  0
  6 28  1  0  0  0  0
  6 29  1  0  0  0  0
 12 30  1  0  0  0  0
 16 31  1  0  0  0  0
 21 32  1  0  0  0  0
 39 34  1  0  0  0  0
 37 35  2  0  0  0  0
 37 36  1  0  0  0  0
 38 37  1  0  0  0  0
 41 38  1  1  0  0  0
 39 44  1  0  0  0  0
 40 39  1  0  0  0  0
 41 40  1  0  0  0  0
 42 41  1  0  0  0  0
 43 42  1  0  0  0  0
 44 43  1  0  0  0  0
 46 44  2  0  0  0  0
 48 45  1  0  0  0  0
 47 46  2  0  0  0  0
 48 47  1  0  0  0  0
M  END
>  <cdx:fragmentId>
5

$$$$
