559528.cdx
  Mrv1902 05222410202D          

 21 21  0  0  0  0            999 V2000
    5.9961   -6.2282    0.0000 C   0  0  0  0  0  0  0  0  0  0  0  0
    6.7105   -6.6407    0.0000 C   0  0  0  0  0  0  0  0  0  0  0  0
    7.4250   -6.2282    0.0000 C   0  0  0  0  0  0  0  0  0  0  0  0
    8.1395   -6.6407    0.0000 C   0  0  0  0  0  0  0  0  0  0  0  0
    8.8539   -6.2282    0.0000 C   0  0  2  0  0  0  0  0  0  0  0  0
    9.5684   -6.6407    0.0000 C   0  0  0  0  0  0  0  0  0  0  0  0
   10.2829   -6.2282    0.0000 C   0  0  0  0  0  0  0  0  0  0  0  0
   10.9974   -6.6407    0.0000 C   0  0  0  0  0  0  0  0  0  0  0  0
   11.7118   -6.2282    0.0000 C   0  0  0  0  0  0  0  0  0  0  0  0
   12.4263   -6.6407    0.0000 C   0  0  0  0  0  0  0  0  0  0  0  0
    7.4250   -5.4032    0.0000 O   0  0  0  0  0  0  0  0  0  0  0  0
    5.2816   -6.6407    0.0000 C   0  0  0  0  0  0  0  0  0  0  0  0
    4.5671   -6.2282    0.0000 C   0  0  0  0  0  0  0  0  0  0  0  0
    3.8526   -6.6407    0.0000 C   0  0  0  0  0  0  0  0  0  0  0  0
    3.8526   -7.4657    0.0000 C   0  0  0  0  0  0  0  0  0  0  0  0
    4.5671   -7.8782    0.0000 C   0  0  0  0  0  0  0  0  0  0  0  0
    5.2816   -7.4657    0.0000 C   0  0  0  0  0  0  0  0  0  0  0  0
    3.1382   -7.8782    0.0000 O   0  0  0  0  0  0  0  0  0  0  0  0
    3.1382   -6.2282    0.0000 O   0  0  0  0  0  0  0  0  0  0  0  0
    8.8539   -5.4032    0.0000 O   0  0  0  0  0  0  0  0  0  0  0  0
    2.4237   -6.6407    0.0000 C   0  0  0  0  0  0  0  0  0  0  0  0
  1  2  1  0  0  0  0
  2  3  1  0  0  0  0
  3  4  1  0  0  0  0
  4  5  1  0  0  0  0
  5  6  1  0  0  0  0
  6  7  1  0  0  0  0
  7  8  1  0  0  0  0
  8  9  1  0  0  0  0
  9 10  1  0  0  0  0
  3 11  2  0  0  0  0
 12 13  1  0  0  0  0
 13 14  2  0  0  0  0
 14 15  1  0  0  0  0
 15 16  2  0  0  0  0
 16 17  1  0  0  0  0
 12 17  2  0  0  0  0
 15 18  1  0  0  0  0
 14 19  1  0  0  0  0
  1 12  1  0  0  0  0
  5 20  1  1  0  0  0
 19 21  1  0  0  0  0
M  END
>  <cdx:groupId>
65

>  <cdx:fragmentId>
5

$$$$
