44559534.cdx
  Mrv1902 05222410282D          

 46 50  0  0  0  0            999 V2000
   49.7846  -12.5477    0.0000 C   0  0  0  0  0  0  0  0  0  0  0  0
   49.0701  -12.1352    0.0000 C   0  0  0  0  0  0  0  0  0  0  0  0
   48.3556  -12.5477    0.0000 C   0  0  0  0  0  0  0  0  0  0  0  0
   49.7846  -13.3727    0.0000 O   0  0  0  0  0  0  0  0  0  0  0  0
   50.4990  -12.1352    0.0000 O   0  0  0  0  0  0  0  0  0  0  0  0
   47.6412  -12.1352    0.0000 C   0  0  0  0  0  0  0  0  0  0  0  0
   46.9267  -12.5477    0.0000 C   0  0  0  0  0  0  0  0  0  0  0  0
   46.2122  -12.1352    0.0000 C   0  0  0  0  0  0  0  0  0  0  0  0
   46.2122  -11.3102    0.0000 C   0  0  0  0  0  0  0  0  0  0  0  0
   46.9267  -10.8977    0.0000 C   0  0  0  0  0  0  0  0  0  0  0  0
   47.6412  -11.3102    0.0000 C   0  0  0  0  0  0  0  0  0  0  0  0
   45.4977  -10.8977    0.0000 O   0  0  0  0  0  0  0  0  0  0  0  0
   45.4977  -12.5477    0.0000 O   0  0  0  0  0  0  0  0  0  0  0  0
   51.2135  -12.5477    0.0000 C   0  0  0  0  0  0  0  0  0  0  0  0
   54.0714  -12.5477    0.0000 O   0  0  0  0  0  0  0  0  0  0  0  0
   53.3569  -12.1352    0.0000 C   0  0  1  0  0  0  0  0  0  0  0  0
   53.3569  -11.3102    0.0000 C   0  0  2  0  0  0  0  0  0  0  0  0
   54.0714  -10.8977    0.0000 O   0  0  0  0  0  0  0  0  0  0  0  0
   54.7859  -11.3102    0.0000 C   0  0  2  0  0  0  0  0  0  0  0  0
   54.7859  -12.1352    0.0000 C   0  0  0  0  0  0  0  0  0  0  0  0
   52.6425  -10.8977    0.0000 C   0  0  2  0  0  0  0  0  0  0  0  0
   51.9280  -11.3102    0.0000 C   0  0  1  0  0  0  0  0  0  0  0  0
   51.9280  -12.1352    0.0000 C   0  0  2  0  0  0  0  0  0  0  0  0
   52.6425  -12.5477    0.0000 O   0  0  0  0  0  0  0  0  0  0  0  0
   52.6425  -10.0727    0.0000 O   0  0  0  0  0  0  0  0  0  0  0  0
   51.2135  -10.0727    0.0000 O   0  0  0  0  0  0  0  0  0  0  0  0
   51.9280   -9.6602    0.0000 C   0  0  2  0  0  0  0  0  0  0  0  0
   51.9280   -8.8352    0.0000 C   0  0  1  0  0  0  0  0  0  0  0  0
   51.2135   -8.4227    0.0000 C   0  0  1  0  0  0  0  0  0  0  0  0
   50.4990   -8.8352    0.0000 C   0  0  2  0  0  0  0  0  0  0  0  0
   50.4990   -9.6602    0.0000 C   0  0  2  0  0  0  0  0  0  0  0  0
   49.7846  -10.0727    0.0000 C   0  0  0  0  0  0  0  0  0  0  0  0
   49.7846   -8.4227    0.0000 O   0  0  0  0  0  0  0  0  0  0  0  0
   51.2135   -7.5977    0.0000 O   0  0  0  0  0  0  0  0  0  0  0  0
   52.6425   -8.4227    0.0000 O   0  0  0  0  0  0  0  0  0  0  0  0
   51.2135  -10.8977    0.0000 O   0  0  0  0  0  0  0  0  0  0  0  0
   55.5003  -10.8977    0.0000 C   0  0  0  0  0  0  0  0  0  0  0  0
   56.2148  -11.3102    0.0000 C   0  0  0  0  0  0  0  0  0  0  0  0
   56.9293  -10.8977    0.0000 C   0  0  0  0  0  0  0  0  0  0  0  0
   56.9293  -10.0727    0.0000 C   0  0  0  0  0  0  0  0  0  0  0  0
   56.2148   -9.6602    0.0000 C   0  0  0  0  0  0  0  0  0  0  0  0
   55.5003  -10.0727    0.0000 C   0  0  0  0  0  0  0  0  0  0  0  0
   57.6438   -9.6602    0.0000 O   0  0  0  0  0  0  0  0  0  0  0  0
   57.6438  -11.3102    0.0000 O   0  0  0  0  0  0  0  0  0  0  0  0
   53.3569  -12.9602    0.0000 H   0  0  0  0  0  0  0  0  0  0  0  0
   53.3569  -10.4852    0.0000 H   0  0  0  0  0  0  0  0  0  0  0  0
  1  2  1  0  0  0  0
  2  3  2  0  0  0  0
  1  4  2  0  0  0  0
  1  5  1  0  0  0  0
  6  7  1  0  0  0  0
  7  8  2  0  0  0  0
  8  9  1  0  0  0  0
  9 10  2  0  0  0  0
 10 11  1  0  0  0  0
  6 11  2  0  0  0  0
  9 12  1  0  0  0  0
  8 13  1  0  0  0  0
  3  6  1  0  0  0  0
 15 16  1  0  0  0  0
 16 17  1  0  0  0  0
 17 18  1  0  0  0  0
 18 19  1  0  0  0  0
 19 20  1  0  0  0  0
 15 20  1  0  0  0  0
 21 22  1  0  0  0  0
 22 23  1  0  0  0  0
 23 24  1  0  0  0  0
 24 16  1  0  0  0  0
 21 17  1  0  0  0  0
 26 27  1  0  0  0  0
 27 28  1  0  0  0  0
 28 29  1  0  0  0  0
 29 30  1  0  0  0  0
 30 31  1  0  0  0  0
 26 31  1  0  0  0  0
 31 32  1  1  0  0  0
 30 33  1  6  0  0  0
 29 34  1  1  0  0  0
 28 35  1  1  0  0  0
 27 25  1  6  0  0  0
 21 25  1  6  0  0  0
 22 36  1  1  0  0  0
 37 38  1  0  0  0  0
 38 39  2  0  0  0  0
 39 40  1  0  0  0  0
 40 41  2  0  0  0  0
 41 42  1  0  0  0  0
 37 42  2  0  0  0  0
 40 43  1  0  0  0  0
 39 44  1  0  0  0  0
 19 37  1  1  0  0  0
 23 14  1  6  0  0  0
  5 14  1  0  0  0  0
 16 45  1  1  0  0  0
 17 46  1  6  0  0  0
M  END
>  <cdx:groupId>
165817

>  <cdx:fragmentId>
165728

$$$$
