44559657.cdx
  Mrv1902 05222410282D          

 18 19  0  0  0  0            999 V2000
   53.5030   -9.8662    0.0000 C   0  0  2  0  0  0  0  0  0  0  0  0
   54.2174  -10.2787    0.0000 C   0  0  0  0  0  0  0  0  0  0  0  0
   54.2174  -11.1037    0.0000 C   0  0  0  0  0  0  0  0  0  0  0  0
   53.5030  -11.5162    0.0000 C   0  0  0  0  0  0  0  0  0  0  0  0
   52.7885  -11.1037    0.0000 C   0  0  2  0  0  0  0  0  0  0  0  0
   52.0740  -11.5162    0.0000 C   0  0  0  0  0  0  0  0  0  0  0  0
   51.3596  -11.1037    0.0000 C   0  0  0  0  0  0  0  0  0  0  0  0
   51.3596  -10.2787    0.0000 C   0  0  2  0  0  0  0  0  0  0  0  0
   52.0740   -9.8662    0.0000 C   0  0  0  0  0  0  0  0  0  0  0  0
   52.7885  -10.2787    0.0000 C   0  0  1  0  0  0  0  0  0  0  0  0
   53.0905   -9.1517    0.0000 O   0  0  0  0  0  0  0  0  0  0  0  0
   52.7885  -11.9287    0.0000 C   0  0  0  0  0  0  0  0  0  0  0  0
   53.9155   -9.1517    0.0000 C   0  0  0  0  0  0  0  0  0  0  0  0
   50.6451   -9.0412    0.0000 C   0  0  0  0  0  0  0  0  0  0  0  0
   50.6451   -9.8662    0.0000 C   0  0  0  0  0  0  0  0  0  0  0  0
   49.9306  -10.2787    0.0000 C   0  0  0  0  0  0  0  0  0  0  0  0
   49.2161   -9.8662    0.0000 O   0  0  0  0  0  0  0  0  0  0  0  0
   52.7885   -9.4537    0.0000 H   0  0  0  0  0  0  0  0  0  0  0  0
  1  2  1  0  0  0  0
  2  3  1  0  0  0  0
  3  4  1  0  0  0  0
  4  5  1  0  0  0  0
  5  6  1  0  0  0  0
  6  7  1  0  0  0  0
  7  8  1  0  0  0  0
  8  9  1  0  0  0  0
  9 10  1  0  0  0  0
  1 10  1  0  0  0  0
  5 10  1  0  0  0  0
  1 11  1  6  0  0  0
  5 12  1  1  0  0  0
  1 13  1  1  0  0  0
 14 15  2  0  0  0  0
 15 16  1  0  0  0  0
 16 17  1  0  0  0  0
  8 15  1  1  0  0  0
 10 18  1  6  0  0  0
M  END
>  <cdx:groupId>
165887

>  <cdx:fragmentId>
165835

$$$$
