55988.cdx
  Mrv1902 05222410182D          

 40 43  0  0  0  0            999 V2000
   12.3858   -7.5801    0.0000 C   0  0  0  0  0  0  0  0  0  0  0  0
   11.5789   -7.7516    0.0000 C   0  0  0  0  0  0  0  0  0  0  0  0
   11.3239   -8.5363    0.0000 C   0  0  0  0  0  0  0  0  0  0  0  0
   10.5169   -8.7078    0.0000 C   0  0  0  0  0  0  0  0  0  0  0  0
   10.2620   -9.4924    0.0000 C   0  0  0  0  0  0  0  0  0  0  0  0
    9.4550   -9.6639    0.0000 C   0  0  1  0  0  0  0  0  0  0  0  0
    8.9030   -9.0509    0.0000 C   0  0  0  0  0  0  0  0  0  0  0  0
   12.6408   -6.7955    0.0000 O   0  0  0  0  0  0  0  0  0  0  0  0
   12.9379   -8.1932    0.0000 O   0  0  0  0  0  0  0  0  0  0  0  0
    5.5576  -11.5285    0.0000 C   0  0  0  0  0  0  0  0  0  0  0  0
    4.8431  -11.9410    0.0000 C   0  0  0  0  0  0  0  0  0  0  0  0
    4.8431  -12.7660    0.0000 C   0  0  1  0  0  0  0  0  0  0  0  0
    5.5576  -13.1785    0.0000 C   0  0  0  0  0  0  0  0  0  0  0  0
    6.2721  -12.7660    0.0000 C   0  0  2  0  0  0  0  0  0  0  0  0
    6.9865  -13.1785    0.0000 C   0  0  0  0  0  0  0  0  0  0  0  0
    7.7010  -12.7660    0.0000 C   0  0  1  0  0  0  0  0  0  0  0  0
    7.7010  -11.9410    0.0000 C   0  0  0  0  0  0  0  0  0  0  0  0
    8.4155  -11.5285    0.0000 C   0  0  2  0  0  0  0  0  0  0  0  0
    9.2001  -11.7834    0.0000 C   0  0  0  0  0  0  0  0  0  0  0  0
    9.6850  -11.1160    0.0000 C   0  0  0  0  0  0  0  0  0  0  0  0
    9.2001  -10.4486    0.0000 C   0  0  1  0  0  0  0  0  0  0  0  0
    8.4155  -10.7035    0.0000 C   0  0  1  0  0  0  0  0  0  0  0  0
    7.7010  -10.2910    0.0000 C   0  0  1  0  0  0  0  0  0  0  0  0
    6.9865  -10.7035    0.0000 C   0  0  0  0  0  0  0  0  0  0  0  0
    6.9865  -11.5285    0.0000 C   0  0  0  0  0  0  0  0  0  0  0  0
    6.2721  -11.9410    0.0000 C   0  0  1  0  0  0  0  0  0  0  0  0
    9.4550  -12.5681    0.0000 O   0  0  0  0  0  0  0  0  0  0  0  0
    6.2721  -10.2910    0.0000 O   0  0  0  0  0  0  0  0  0  0  0  0
    8.4155  -12.3535    0.0000 C   0  0  0  0  0  0  0  0  0  0  0  0
    8.4155   -9.8785    0.0000 C   0  0  0  0  0  0  0  0  0  0  0  0
    6.2721  -11.1160    0.0000 C   0  0  0  0  0  0  0  0  0  0  0  0
    5.9701  -13.8930    0.0000 C   0  0  0  0  0  0  0  0  0  0  0  0
    5.1451  -13.8930    0.0000 C   0  0  0  0  0  0  0  0  0  0  0  0
    7.7010   -9.4660    0.0000 O   0  0  0  0  0  0  0  0  0  0  0  0
    8.4155  -13.1785    0.0000 O   0  0  0  0  0  0  0  0  0  0  0  0
    4.1286  -13.1785    0.0000 O   0  0  0  0  0  0  0  0  0  0  0  0
    9.9649   -8.0947    0.0000 O   0  0  0  0  0  0  0  0  0  0  0  0
   11.0268   -7.1386    0.0000 C   0  0  0  0  0  0  0  0  0  0  0  0
    6.2721  -13.5910    0.0000 H   0  0  0  0  0  0  0  0  0  0  0  0
    9.9847  -10.1936    0.0000 H   0  0  0  0  0  0  0  0  0  0  0  0
  1  2  1  0  0  0  0
  2  3  1  0  0  0  0
  3  4  1  0  0  0  0
  4  5  1  0  0  0  0
  5  6  1  0  0  0  0
  6  7  1  6  0  0  0
  1  8  1  0  0  0  0
  1  9  2  0  0  0  0
 10 11  1  0  0  0  0
 11 12  1  0  0  0  0
 12 13  1  0  0  0  0
 13 14  1  0  0  0  0
 14 15  1  0  0  0  0
 15 16  1  0  0  0  0
 16 17  1  0  0  0  0
 17 18  1  0  0  0  0
 18 19  1  0  0  0  0
 19 20  1  0  0  0  0
 21 20  1  0  0  0  0
 21 22  1  0  0  0  0
 18 22  1  0  0  0  0
 22 23  1  0  0  0  0
 23 24  1  0  0  0  0
 24 25  1  0  0  0  0
 17 25  2  0  0  0  0
 25 26  1  0  0  0  0
 14 26  1  0  0  0  0
 10 26  1  0  0  0  0
 19 27  2  0  0  0  0
 24 28  2  0  0  0  0
 18 29  1  6  0  0  0
 22 30  1  1  0  0  0
 26 31  1  1  0  0  0
 13 32  1  0  0  0  0
 13 33  1  0  0  0  0
 23 34  1  1  0  0  0
 16 35  1  1  0  0  0
 12 36  1  1  0  0  0
  6 21  1  0  0  0  0
  4 37  2  0  0  0  0
  2 38  1  0  0  0  0
 14 39  1  6  0  0  0
 21 40  1  6  0  0  0
M  END
>  <cdx:fragmentId>
125157

$$$$
