55993.cdx
  Mrv1902 05222410272D          

 38 41  0  0  0  0            999 V2000
    7.4661   -9.4909    0.0000 C   0  0  0  0  0  0  0  0  0  0  0  0
    8.0181  -10.1041    0.0000 C   0  0  2  0  0  0  0  0  0  0  0  0
    8.8250   -9.9325    0.0000 C   0  0  0  0  0  0  0  0  0  0  0  0
    9.0801   -9.1477    0.0000 C   0  0  0  0  0  0  0  0  0  0  0  0
    8.5280   -8.5346    0.0000 O   0  0  0  0  0  0  0  0  0  0  0  0
    9.8870   -8.9762    0.0000 C   0  0  0  0  0  0  0  0  0  0  0  0
   10.1418   -8.1916    0.0000 C   0  0  0  0  0  0  0  0  0  0  0  0
    9.5900   -7.5785    0.0000 C   0  0  0  0  0  0  0  0  0  0  0  0
   11.2040   -7.2355    0.0000 O   0  0  0  0  0  0  0  0  0  0  0  0
    7.7633  -10.8885    0.0000 C   0  0  1  0  0  0  0  0  0  0  0  0
    8.2481  -11.5560    0.0000 C   0  0  0  0  0  0  0  0  0  0  0  0
    7.7633  -12.2235    0.0000 C   0  0  1  0  0  0  0  0  0  0  0  0
    6.9785  -11.9685    0.0000 C   0  0  2  0  0  0  0  0  0  0  0  0
    6.9785  -11.1435    0.0000 C   0  0  2  0  0  0  0  0  0  0  0  0
    6.2641  -10.7310    0.0000 C   0  0  0  0  0  0  0  0  0  0  0  0
    5.5496  -11.1435    0.0000 C   0  0  0  0  0  0  0  0  0  0  0  0
    4.8351  -10.7310    0.0000 O   0  0  0  0  0  0  0  0  0  0  0  0
    5.5496  -11.9685    0.0000 C   0  0  0  0  0  0  0  0  0  0  0  0
    6.2641  -12.3810    0.0000 C   0  0  0  0  0  0  0  0  0  0  0  0
    6.2641  -13.2060    0.0000 C   0  0  0  0  0  0  0  0  0  0  0  0
    5.5496  -13.6185    0.0000 C   0  0  0  0  0  0  0  0  0  0  0  0
    4.8351  -13.2060    0.0000 C   0  0  2  0  0  0  0  0  0  0  0  0
    4.8351  -12.3810    0.0000 C   0  0  2  0  0  0  0  0  0  0  0  0
    4.1207  -11.9685    0.0000 C   0  0  0  0  0  0  0  0  0  0  0  0
    3.4062  -12.3810    0.0000 C   0  0  0  0  0  0  0  0  0  0  0  0
    3.4062  -13.2060    0.0000 C   0  0  0  0  0  0  0  0  0  0  0  0
    2.6917  -13.6185    0.0000 O   0  0  0  0  0  0  0  0  0  0  0  0
    4.1207  -13.6185    0.0000 C   0  0  0  0  0  0  0  0  0  0  0  0
    4.5332  -14.3330    0.0000 C   0  0  0  0  0  0  0  0  0  0  0  0
    3.7083  -14.3330    0.0000 C   0  0  0  0  0  0  0  0  0  0  0  0
    4.8351  -11.5560    0.0000 C   0  0  0  0  0  0  0  0  0  0  0  0
    6.9785  -10.3185    0.0000 C   0  0  0  0  0  0  0  0  0  0  0  0
    6.9785  -12.7935    0.0000 C   0  0  0  0  0  0  0  0  0  0  0  0
    8.0181  -13.0080    0.0000 O   0  0  0  0  0  0  0  0  0  0  0  0
   11.5008   -8.6333    0.0000 O   0  0  0  0  0  0  0  0  0  0  0  0
   10.9489   -8.0201    0.0000 C   0  0  0  0  0  0  0  0  0  0  0  0
    8.5602  -10.6749    0.0000 H   0  0  0  0  0  0  0  0  0  0  0  0
    4.8351  -14.0310    0.0000 H   0  0  0  0  0  0  0  0  0  0  0  0
 36  9  1  0  0  0  0
 36 35  2  0  0  0  0
  2  1  1  6  0  0  0
  2  3  1  0  0  0  0
  3  4  1  0  0  0  0
  4  5  2  0  0  0  0
  4  6  1  0  0  0  0
  6  7  1  0  0  0  0
  7  8  1  0  0  0  0
  7 36  1  0  0  0  0
  2 10  1  0  0  0  0
 10 11  1  0  0  0  0
 11 12  1  0  0  0  0
 12 13  1  0  0  0  0
 13 14  1  0  0  0  0
 10 14  1  0  0  0  0
 14 15  1  0  0  0  0
 15 16  1  0  0  0  0
 16 17  2  0  0  0  0
 16 18  1  0  0  0  0
 18 19  2  0  0  0  0
 13 19  1  0  0  0  0
 19 20  1  0  0  0  0
 20 21  1  0  0  0  0
 22 21  1  0  0  0  0
 22 23  1  0  0  0  0
 18 23  1  0  0  0  0
 23 24  1  0  0  0  0
 24 25  1  0  0  0  0
 25 26  1  0  0  0  0
 26 27  2  0  0  0  0
 26 28  1  0  0  0  0
 22 28  1  0  0  0  0
 28 29  1  0  0  0  0
 28 30  1  0  0  0  0
 23 31  1  1  0  0  0
 14 32  1  1  0  0  0
 13 33  1  6  0  0  0
 12 34  1  6  0  0  0
 10 37  1  6  0  0  0
 22 38  1  6  0  0  0
M  END
>  <cdx:fragmentId>
1

$$$$
