559993.cdx
  Mrv1902 05222410222D          

 30 31  0  0  0  0            999 V2000
    5.6545  -10.2300    0.0000 C   0  0  0  0  0  0  0  0  0  0  0  0
    5.6545  -11.0550    0.0000 C   0  0  0  0  0  0  0  0  0  0  0  0
    6.3690  -11.4675    0.0000 C   0  0  0  0  0  0  0  0  0  0  0  0
    6.3690   -9.8175    0.0000 C   0  0  0  0  0  0  0  0  0  0  0  0
    6.3690   -8.9925    0.0000 C   0  0  0  0  0  0  0  0  0  0  0  0
    5.6545   -8.5800    0.0000 C   0  0  0  0  0  0  0  0  0  0  0  0
    4.9401   -8.9925    0.0000 C   0  0  0  0  0  0  0  0  0  0  0  0
    4.9401   -9.8175    0.0000 C   0  0  0  0  0  0  0  0  0  0  0  0
    7.0835   -7.7550    0.0000 C   0  0  0  0  0  0  0  0  0  0  0  0
    6.3690   -7.3425    0.0000 C   0  0  1  0  0  0  0  0  0  0  0  0
    5.6545   -7.7550    0.0000 O   0  0  0  0  0  0  0  0  0  0  0  0
    7.7979   -6.5175    0.0000 C   0  0  0  0  0  0  0  0  0  0  0  0
    7.0835   -6.1050    0.0000 C   0  0  0  0  0  0  0  0  0  0  0  0
    6.3690   -6.5175    0.0000 C   0  0  1  0  0  0  0  0  0  0  0  0
    8.5124   -6.1050    0.0000 C   0  0  0  0  0  0  0  0  0  0  0  0
    8.5124   -5.2800    0.0000 C   0  0  0  0  0  0  0  0  0  0  0  0
    7.7979   -4.8675    0.0000 C   0  0  0  0  0  0  0  0  0  0  0  0
    7.0835   -5.2800    0.0000 C   0  0  0  0  0  0  0  0  0  0  0  0
    9.2269   -6.5175    0.0000 O   0  0  0  0  0  0  0  0  0  0  0  0
    9.9414   -6.1050    0.0000 C   0  0  0  0  0  0  0  0  0  0  0  0
    9.2269   -4.8675    0.0000 O   0  0  0  0  0  0  0  0  0  0  0  0
    9.2269   -4.0425    0.0000 C   0  0  0  0  0  0  0  0  0  0  0  0
    4.2256   -8.5800    0.0000 O   0  0  0  0  0  0  0  0  0  0  0  0
    3.5111   -8.9925    0.0000 C   0  0  0  0  0  0  0  0  0  0  0  0
    6.3690  -12.2925    0.0000 C   0  0  0  0  0  0  0  0  0  0  0  0
    5.6545   -6.1050    0.0000 O   0  0  0  0  0  0  0  0  0  0  0  0
    7.0835   -8.5800    0.0000 O   0  0  0  0  0  0  0  0  0  0  0  0
    7.7979   -8.9925    0.0000 C   0  0  0  0  0  0  0  0  0  0  0  0
    7.7979   -4.0425    0.0000 O   0  0  0  0  0  0  0  0  0  0  0  0
    7.0835   -3.6300    0.0000 C   0  0  0  0  0  0  0  0  0  0  0  0
  1  2  1  0  0  0  0
  2  3  2  0  0  0  0
  4  1  1  0  0  0  0
  4  5  2  0  0  0  0
  5  6  1  0  0  0  0
  6  7  2  0  0  0  0
  7  8  1  0  0  0  0
  8  1  2  0  0  0  0
 10  9  1  1  0  0  0
 10 11  1  0  0  0  0
 11  6  1  0  0  0  0
 12 13  2  0  0  0  0
 13 14  1  0  0  0  0
 14 10  1  0  0  0  0
 12 15  1  0  0  0  0
 15 16  2  0  0  0  0
 16 17  1  0  0  0  0
 17 18  2  0  0  0  0
 18 13  1  0  0  0  0
 15 19  1  0  0  0  0
 19 20  1  0  0  0  0
 21 16  1  0  0  0  0
 21 22  1  0  0  0  0
  7 23  1  0  0  0  0
 23 24  1  0  0  0  0
  3 25  1  0  0  0  0
 14 26  1  6  0  0  0
  5 27  1  0  0  0  0
 27 28  1  0  0  0  0
 17 29  1  0  0  0  0
 29 30  1  0  0  0  0
M  END
>  <cdx:fragmentId>
5

$$$$
