55991.cdx
  Mrv1902 05222410282D          

 39 42  0  0  0  0            999 V2000
   10.9940   -7.4151    0.0000 C   0  0  0  0  0  0  0  0  0  0  0  0
   10.1871   -7.5866    0.0000 C   0  0  0  0  0  0  0  0  0  0  0  0
    9.9321   -8.3713    0.0000 C   0  0  0  0  0  0  0  0  0  0  0  0
    9.1251   -8.5428    0.0000 C   0  0  0  0  0  0  0  0  0  0  0  0
    8.8702   -9.3274    0.0000 C   0  0  0  0  0  0  0  0  0  0  0  0
    8.0632   -9.4989    0.0000 C   0  0  1  0  0  0  0  0  0  0  0  0
    7.5112   -8.8859    0.0000 C   0  0  0  0  0  0  0  0  0  0  0  0
   11.2490   -6.6305    0.0000 O   0  0  0  0  0  0  0  0  0  0  0  0
   11.5461   -8.0282    0.0000 O   0  0  0  0  0  0  0  0  0  0  0  0
    8.5731   -7.9297    0.0000 O   0  0  0  0  0  0  0  0  0  0  0  0
    9.6350   -6.9736    0.0000 C   0  0  0  0  0  0  0  0  0  0  0  0
    4.1658  -11.3635    0.0000 C   0  0  0  0  0  0  0  0  0  0  0  0
    3.4513  -11.7760    0.0000 C   0  0  0  0  0  0  0  0  0  0  0  0
    3.4513  -12.6010    0.0000 C   0  0  0  0  0  0  0  0  0  0  0  0
    4.1658  -13.0135    0.0000 C   0  0  0  0  0  0  0  0  0  0  0  0
    4.8803  -12.6010    0.0000 C   0  0  2  0  0  0  0  0  0  0  0  0
    5.5947  -13.0135    0.0000 C   0  0  0  0  0  0  0  0  0  0  0  0
    6.3092  -12.6010    0.0000 C   0  0  0  0  0  0  0  0  0  0  0  0
    6.3092  -11.7760    0.0000 C   0  0  0  0  0  0  0  0  0  0  0  0
    7.0237  -11.3635    0.0000 C   0  0  2  0  0  0  0  0  0  0  0  0
    7.8083  -11.6184    0.0000 C   0  0  2  0  0  0  0  0  0  0  0  0
    8.2932  -10.9510    0.0000 C   0  0  0  0  0  0  0  0  0  0  0  0
    7.8083  -10.2836    0.0000 C   0  0  1  0  0  0  0  0  0  0  0  0
    7.0237  -10.5385    0.0000 C   0  0  1  0  0  0  0  0  0  0  0  0
    6.3092  -10.1260    0.0000 C   0  0  0  0  0  0  0  0  0  0  0  0
    5.5947  -10.5385    0.0000 C   0  0  0  0  0  0  0  0  0  0  0  0
    5.5947  -11.3635    0.0000 C   0  0  0  0  0  0  0  0  0  0  0  0
    4.8803  -11.7760    0.0000 C   0  0  1  0  0  0  0  0  0  0  0  0
    4.8803  -10.1260    0.0000 O   0  0  0  0  0  0  0  0  0  0  0  0
    7.0237  -13.0135    0.0000 O   0  0  0  0  0  0  0  0  0  0  0  0
    2.7368  -13.0135    0.0000 O   0  0  0  0  0  0  0  0  0  0  0  0
    7.0237  -12.1885    0.0000 C   0  0  0  0  0  0  0  0  0  0  0  0
    7.0237   -9.7135    0.0000 C   0  0  0  0  0  0  0  0  0  0  0  0
    4.8803  -10.9510    0.0000 C   0  0  0  0  0  0  0  0  0  0  0  0
    4.5783  -13.7280    0.0000 C   0  0  0  0  0  0  0  0  0  0  0  0
    3.7533  -13.7280    0.0000 C   0  0  0  0  0  0  0  0  0  0  0  0
    8.0632  -12.4031    0.0000 O   0  0  0  0  0  0  0  0  0  0  0  0
    4.8803  -13.4260    0.0000 H   0  0  0  0  0  0  0  0  0  0  0  0
    8.5929  -10.0286    0.0000 H   0  0  0  0  0  0  0  0  0  0  0  0
  1  2  1  0  0  0  0
  2  3  1  0  0  0  0
  3  4  1  0  0  0  0
  4  5  1  0  0  0  0
  5  6  1  0  0  0  0
  6  7  1  6  0  0  0
  1  8  1  0  0  0  0
  1  9  2  0  0  0  0
  4 10  2  0  0  0  0
  2 11  1  0  0  0  0
 12 13  1  0  0  0  0
 13 14  1  0  0  0  0
 14 15  1  0  0  0  0
 15 16  1  0  0  0  0
 16 17  1  0  0  0  0
 17 18  1  0  0  0  0
 18 19  1  0  0  0  0
 19 20  1  0  0  0  0
 20 21  1  0  0  0  0
 21 22  1  0  0  0  0
 23 22  1  0  0  0  0
 23 24  1  0  0  0  0
 20 24  1  0  0  0  0
 24 25  1  0  0  0  0
 25 26  1  0  0  0  0
 26 27  1  0  0  0  0
 19 27  2  0  0  0  0
 27 28  1  0  0  0  0
 16 28  1  0  0  0  0
 12 28  1  0  0  0  0
 26 29  2  0  0  0  0
 18 30  2  0  0  0  0
 14 31  2  0  0  0  0
 20 32  1  6  0  0  0
 24 33  1  1  0  0  0
 28 34  1  1  0  0  0
 15 35  1  0  0  0  0
 15 36  1  0  0  0  0
 21 37  1  6  0  0  0
  6 23  1  0  0  0  0
 16 38  1  6  0  0  0
 23 39  1  6  0  0  0
M  END
>  <cdx:fragmentId>
125294

$$$$
