55994.cdx
  Mrv1902 05222410262D          

 38 41  0  0  0  0            999 V2000
   10.2413   -5.9237    0.0000 C   0  0  0  0  0  0  0  0  0  0  0  0
    9.9863   -6.7083    0.0000 C   0  0  0  0  0  0  0  0  0  0  0  0
    9.1793   -6.8798    0.0000 C   0  0  0  0  0  0  0  0  0  0  0  0
    8.9244   -7.6645    0.0000 C   0  0  0  0  0  0  0  0  0  0  0  0
    8.1174   -7.8360    0.0000 C   0  0  1  0  0  0  0  0  0  0  0  0
    7.5654   -7.2229    0.0000 C   0  0  0  0  0  0  0  0  0  0  0  0
   11.3032   -4.9676    0.0000 O   0  0  0  0  0  0  0  0  0  0  0  0
    8.6273   -6.2668    0.0000 O   0  0  0  0  0  0  0  0  0  0  0  0
    9.6892   -5.3106    0.0000 C   0  0  0  0  0  0  0  0  0  0  0  0
    4.2200   -9.7006    0.0000 C   0  0  0  0  0  0  0  0  0  0  0  0
    3.5055  -10.1131    0.0000 C   0  0  0  0  0  0  0  0  0  0  0  0
    3.5055  -10.9381    0.0000 C   0  0  1  0  0  0  0  0  0  0  0  0
    4.2200  -11.3506    0.0000 C   0  0  0  0  0  0  0  0  0  0  0  0
    4.9345  -10.9381    0.0000 C   0  0  2  0  0  0  0  0  0  0  0  0
    5.6489  -11.3506    0.0000 C   0  0  0  0  0  0  0  0  0  0  0  0
    6.3634  -10.9381    0.0000 C   0  0  0  0  0  0  0  0  0  0  0  0
    6.3634  -10.1131    0.0000 C   0  0  0  0  0  0  0  0  0  0  0  0
    7.0779   -9.7006    0.0000 C   0  0  2  0  0  0  0  0  0  0  0  0
    7.8625   -9.9555    0.0000 C   0  0  2  0  0  0  0  0  0  0  0  0
    8.3474   -9.2881    0.0000 C   0  0  0  0  0  0  0  0  0  0  0  0
    7.8625   -8.6206    0.0000 C   0  0  1  0  0  0  0  0  0  0  0  0
    7.0779   -8.8756    0.0000 C   0  0  1  0  0  0  0  0  0  0  0  0
    6.3634   -8.4631    0.0000 C   0  0  0  0  0  0  0  0  0  0  0  0
    5.6489   -8.8756    0.0000 C   0  0  0  0  0  0  0  0  0  0  0  0
    5.6489   -9.7006    0.0000 C   0  0  0  0  0  0  0  0  0  0  0  0
    4.9345  -10.1131    0.0000 C   0  0  1  0  0  0  0  0  0  0  0  0
    4.9345   -8.4631    0.0000 O   0  0  0  0  0  0  0  0  0  0  0  0
    7.0779  -10.5256    0.0000 C   0  0  0  0  0  0  0  0  0  0  0  0
    7.0779   -8.0506    0.0000 C   0  0  0  0  0  0  0  0  0  0  0  0
    4.9345   -9.2881    0.0000 C   0  0  0  0  0  0  0  0  0  0  0  0
    4.6325  -12.0650    0.0000 C   0  0  0  0  0  0  0  0  0  0  0  0
    3.8075  -12.0650    0.0000 C   0  0  0  0  0  0  0  0  0  0  0  0
    8.1174  -10.7401    0.0000 O   0  0  0  0  0  0  0  0  0  0  0  0
    2.7910  -11.3506    0.0000 O   0  0  0  0  0  0  0  0  0  0  0  0
    4.9345  -11.7631    0.0000 H   0  0  0  0  0  0  0  0  0  0  0  0
   11.6003   -6.3653    0.0000 O   0  0  0  0  0  0  0  0  0  0  0  0
   11.0482   -5.7522    0.0000 C   0  0  0  0  0  0  0  0  0  0  0  0
    8.6594   -8.4071    0.0000 H   0  0  0  0  0  0  0  0  0  0  0  0
 37  7  1  0  0  0  0
 37 36  2  0  0  0  0
 37  1  1  0  0  0  0
  1  2  1  0  0  0  0
  2  3  1  0  0  0  0
  3  4  1  0  0  0  0
  4  5  1  0  0  0  0
  5  6  1  6  0  0  0
  3  8  2  0  0  0  0
  1  9  1  0  0  0  0
 10 11  1  0  0  0  0
 11 12  1  0  0  0  0
 12 13  1  0  0  0  0
 13 14  1  0  0  0  0
 14 15  1  0  0  0  0
 15 16  1  0  0  0  0
 16 17  1  0  0  0  0
 17 18  1  0  0  0  0
 18 19  1  0  0  0  0
 19 20  1  0  0  0  0
 21 20  1  0  0  0  0
 21 22  1  0  0  0  0
 18 22  1  0  0  0  0
 22 23  1  0  0  0  0
 23 24  1  0  0  0  0
 24 25  1  0  0  0  0
 17 25  2  0  0  0  0
 25 26  1  0  0  0  0
 14 26  1  0  0  0  0
 10 26  1  0  0  0  0
 24 27  2  0  0  0  0
 18 28  1  6  0  0  0
 22 29  1  1  0  0  0
 26 30  1  1  0  0  0
 13 31  1  0  0  0  0
 13 32  1  0  0  0  0
 19 33  1  6  0  0  0
 12 34  1  1  0  0  0
  5 21  1  0  0  0  0
 14 35  1  6  0  0  0
 21 38  1  6  0  0  0
M  END
>  <cdx:fragmentId>
27

$$$$
