560134.cdx
  Mrv1902 05222410222D          

 17 17  0  0  0  0            999 V2000
   11.2478  -13.6396    0.0000 C   0  0  0  0  0  0  0  0  0  0  0  0
   10.8353  -14.3541    0.0000 C   0  0  0  0  0  0  0  0  0  0  0  0
   10.4228  -13.6396    0.0000 C   0  0  0  0  0  0  0  0  0  0  0  0
   11.9623  -13.2271    0.0000 C   0  0  0  0  0  0  0  0  0  0  0  0
   11.9623  -12.4021    0.0000 O   0  0  0  0  0  0  0  0  0  0  0  0
   12.6767  -13.6396    0.0000 O   0  0  0  0  0  0  0  0  0  0  0  0
   13.3912  -13.2271    0.0000 C   0  0  0  0  0  0  0  0  0  0  0  0
   14.1057  -13.6396    0.0000 C   0  0  0  0  0  0  0  0  0  0  0  0
   14.8201  -13.2271    0.0000 C   0  0  0  0  0  0  0  0  0  0  0  0
   15.5346  -13.6396    0.0000 C   0  0  0  0  0  0  0  0  0  0  0  0
   16.2491  -13.2271    0.0000 C   0  0  0  0  0  0  0  0  0  0  0  0
   16.9636  -13.6396    0.0000 C   0  0  0  0  0  0  0  0  0  0  0  0
   17.6780  -13.2271    0.0000 C   0  0  0  0  0  0  0  0  0  0  0  0
   18.3925  -13.6396    0.0000 C   0  0  0  0  0  0  0  0  0  0  0  0
   19.1070  -13.2271    0.0000 C   0  0  0  0  0  0  0  0  0  0  0  0
   19.8214  -13.6396    0.0000 C   0  0  0  0  0  0  0  0  0  0  0  0
   20.5359  -13.2271    0.0000 C   0  0  0  0  0  0  0  0  0  0  0  0
  1  2  1  0  0  0  0
  2  3  1  0  0  0  0
  1  3  1  0  0  0  0
  4  5  2  0  0  0  0
  4  6  1  0  0  0  0
  1  4  1  0  0  0  0
  7  8  1  0  0  0  0
  8  9  1  0  0  0  0
  9 10  1  0  0  0  0
 10 11  1  0  0  0  0
 11 12  1  0  0  0  0
 12 13  1  0  0  0  0
 13 14  1  0  0  0  0
 14 15  1  0  0  0  0
 15 16  1  0  0  0  0
 16 17  1  0  0  0  0
  6  7  1  0  0  0  0
M  END
>  <cdx:groupId>
193

>  <cdx:fragmentId>
157

$$$$
