560128.cdx
  Mrv1902 05222410242D          

 37 41  0  0  0  0            999 V2000
    9.0272   -5.7942    0.0000 C   0  0  0  0  0  0  0  0  0  0  0  0
    9.7417   -5.3817    0.0000 C   0  0  0  0  0  0  0  0  0  0  0  0
   10.4561   -5.7942    0.0000 C   0  0  0  0  0  0  0  0  0  0  0  0
   10.4561   -6.6192    0.0000 C   0  0  0  0  0  0  0  0  0  0  0  0
    9.7417   -7.0317    0.0000 C   0  0  2  0  0  0  0  0  0  0  0  0
    9.7417   -7.8567    0.0000 C   0  0  0  0  0  0  0  0  0  0  0  0
    9.0272   -8.2692    0.0000 C   0  0  0  0  0  0  0  0  0  0  0  0
    8.3127   -7.8567    0.0000 C   0  0  1  0  0  0  0  0  0  0  0  0
    7.5982   -8.2692    0.0000 C   0  0  2  0  0  0  0  0  0  0  0  0
    7.5982   -9.0942    0.0000 C   0  0  0  0  0  0  0  0  0  0  0  0
    6.8838   -9.5067    0.0000 C   0  0  0  0  0  0  0  0  0  0  0  0
    6.1693   -9.0942    0.0000 C   0  0  1  0  0  0  0  0  0  0  0  0
    5.4548   -9.5067    0.0000 C   0  0  0  0  0  0  0  0  0  0  0  0
    4.7404   -9.0942    0.0000 C   0  0  2  0  0  0  0  0  0  0  0  0
    4.7404   -8.2692    0.0000 C   0  0  2  0  0  0  0  0  0  0  0  0
    5.4548   -7.8567    0.0000 C   0  0  0  0  0  0  0  0  0  0  0  0
    6.1693   -8.2692    0.0000 C   0  0  2  0  0  0  0  0  0  0  0  0
    6.8838   -7.8567    0.0000 C   0  0  1  0  0  0  0  0  0  0  0  0
    6.8838   -7.0317    0.0000 C   0  0  0  0  0  0  0  0  0  0  0  0
    7.5982   -6.6192    0.0000 C   0  0  0  0  0  0  0  0  0  0  0  0
    8.3127   -7.0317    0.0000 C   0  0  0  0  0  0  0  0  0  0  0  0
    9.0272   -6.6192    0.0000 C   0  0  2  0  0  0  0  0  0  0  0  0
   10.4561   -7.4442    0.0000 C   0  0  0  0  0  0  0  0  0  0  0  0
   10.4561   -8.2692    0.0000 O   0  0  0  0  0  0  0  0  0  0  0  0
   11.1706   -7.0317    0.0000 O   0  0  0  0  0  0  0  0  0  0  0  0
    5.8673  -10.2212    0.0000 C   0  0  0  0  0  0  0  0  0  0  0  0
    5.0423  -10.2212    0.0000 C   0  0  0  0  0  0  0  0  0  0  0  0
    9.3292   -4.6673    0.0000 C   0  0  0  0  0  0  0  0  0  0  0  0
   10.1542   -4.6673    0.0000 C   0  0  0  0  0  0  0  0  0  0  0  0
    4.0259   -7.8567    0.0000 O   0  0  0  0  0  0  0  0  0  0  0  0
    4.0259   -9.5067    0.0000 O   0  0  0  0  0  0  0  0  0  0  0  0
    6.1693   -9.9192    0.0000 H   0  0  0  0  0  0  0  0  0  0  0  0
    9.0272   -7.4442    0.0000 H   0  0  0  0  0  0  0  0  0  0  0  0
    6.1693   -7.4442    0.0000 C   0  0  0  0  0  0  0  0  0  0  0  0
    7.5982   -7.4442    0.0000 C   0  0  0  0  0  0  0  0  0  0  0  0
    8.3127   -8.6817    0.0000 C   0  0  0  0  0  0  0  0  0  0  0  0
    6.8838   -8.6817    0.0000 H   0  0  0  0  0  0  0  0  0  0  0  0
  1  2  1  0  0  0  0
  2  3  1  0  0  0  0
  3  4  1  0  0  0  0
  4  5  1  0  0  0  0
  5  6  1  0  0  0  0
  6  7  1  0  0  0  0
  7  8  1  0  0  0  0
  8  9  1  0  0  0  0
  9 10  1  0  0  0  0
 10 11  1  0  0  0  0
 11 12  1  0  0  0  0
 12 13  1  0  0  0  0
 13 14  1  0  0  0  0
 14 15  1  0  0  0  0
 15 16  1  0  0  0  0
 16 17  1  0  0  0  0
 12 17  1  0  0  0  0
 17 18  1  0  0  0  0
  9 18  1  0  0  0  0
 18 19  1  0  0  0  0
 19 20  1  0  0  0  0
 20 21  2  0  0  0  0
  8 21  1  0  0  0  0
 21 22  1  0  0  0  0
  5 22  1  0  0  0  0
  1 22  1  0  0  0  0
 23 24  2  0  0  0  0
 23 25  1  0  0  0  0
  5 23  1  1  0  0  0
 13 26  1  0  0  0  0
 13 27  1  0  0  0  0
  2 28  1  0  0  0  0
  2 29  1  0  0  0  0
 15 30  1  1  0  0  0
 14 31  1  1  0  0  0
 12 32  1  6  0  0  0
 22 33  1  1  0  0  0
 17 34  1  1  0  0  0
  9 35  1  1  0  0  0
  8 36  1  6  0  0  0
 18 37  1  6  0  0  0
M  END
>  <cdx:fragmentId>
114491

$$$$
