560239.cdx
  Mrv1902 05222410272D          

 25 25  0  0  0  0            999 V2000
    6.6308   -8.0319    0.0000 C   0  0  0  0  0  0  0  0  0  0  0  0
    6.6313   -7.2069    0.0000 C   0  0  0  0  0  0  0  0  0  0  0  0
    5.9171   -6.7940    0.0000 C   0  0  0  0  0  0  0  0  0  0  0  0
    7.3445   -9.2698    0.0000 S   0  0  0  0  0  0  0  0  0  0  0  0
    5.9176   -5.9690    0.0000 S   0  0  0  0  0  0  0  0  0  0  0  0
    6.6323   -5.5569    0.0000 O   0  0  0  0  0  0  0  0  0  0  0  0
    5.2034   -5.5560    0.0000 C   0  0  0  0  0  0  0  0  0  0  0  0
    5.9156   -9.2690    0.0000 O   0  0  0  0  0  0  0  0  0  0  0  0
    6.6298   -9.6819    0.0000 C   0  0  2  0  0  0  0  0  0  0  0  0
    6.6293  -10.5069    0.0000 C   0  0  1  0  0  0  0  0  0  0  0  0
    5.9146  -10.9190    0.0000 C   0  0  2  0  0  0  0  0  0  0  0  0
    5.2003  -10.5060    0.0000 C   0  0  1  0  0  0  0  0  0  0  0  0
    5.2008   -9.6810    0.0000 C   0  0  1  0  0  0  0  0  0  0  0  0
    4.4866   -9.2681    0.0000 C   0  0  0  0  0  0  0  0  0  0  0  0
    3.7719   -9.6802    0.0000 O   0  0  0  0  0  0  0  0  0  0  0  0
    4.4856  -10.9181    0.0000 O   0  0  0  0  0  0  0  0  0  0  0  0
    5.9141  -11.7440    0.0000 O   0  0  0  0  0  0  0  0  0  0  0  0
    7.3435  -10.9198    0.0000 O   0  0  0  0  0  0  0  0  0  0  0  0
    9.4897   -6.3837    0.0000 O   0  0  0  0  0  0  0  0  0  0  0  0
    8.3629   -6.0810    0.0000 O   0  0  0  0  0  0  0  0  0  0  0  0
    9.1870   -7.5104    0.0000 O   0  0  0  0  0  0  0  0  0  0  0  0
    8.7750   -6.7957    0.0000 S   0  0  0  0  0  0  0  0  0  0  0  0
    8.0602   -7.2078    0.0000 O   0  0  0  0  0  0  0  0  0  0  0  0
    8.0597   -8.0328    0.0000 N   0  0  0  0  0  0  0  0  0  0  0  0
    7.3450   -8.4448    0.0000 C   0  0  0  0  0  0  0  0  0  0  0  0
 24 23  1  0  0  0  0
 23 22  1  0  0  0  0
 22 19  1  0  0  0  0
 22 20  2  0  0  0  0
 22 21  2  0  0  0  0
 25 24  2  0  0  0  0
 25  1  1  0  0  0  0
  1  2  1  0  0  0  0
  2  3  1  0  0  0  0
 25  4  1  0  0  0  0
  5  6  2  0  0  0  0
  5  7  1  0  0  0  0
  3  5  1  0  0  0  0
  8  9  1  0  0  0  0
  9 10  1  0  0  0  0
 10 11  1  0  0  0  0
 11 12  1  0  0  0  0
 12 13  1  0  0  0  0
  8 13  1  0  0  0  0
 14 15  1  0  0  0  0
 13 14  1  1  0  0  0
 12 16  1  6  0  0  0
 11 17  1  1  0  0  0
 10 18  1  6  0  0  0
  9  4  1  1  0  0  0
M  END
>  <cdx:fragmentId>
5

$$$$
