5602.cdx
  Mrv1902 05222410262D          

 15 15  0  0  0  0            999 V2000
    5.5514   -7.5900    0.0000 C   0  0  0  0  0  0  0  0  0  0  0  0
    5.5514   -8.4150    0.0000 C   0  0  0  0  0  0  0  0  0  0  0  0
    6.2659   -8.8275    0.0000 C   0  0  0  0  0  0  0  0  0  0  0  0
    6.9803   -8.4150    0.0000 C   0  0  0  0  0  0  0  0  0  0  0  0
    6.9803   -7.5900    0.0000 C   0  0  0  0  0  0  0  0  0  0  0  0
    6.2659   -7.1775    0.0000 C   0  0  0  0  0  0  0  0  0  0  0  0
    4.8369   -7.1775    0.0000 C   0  0  0  0  0  0  0  0  0  0  0  0
    4.8369   -6.3525    0.0000 C   0  0  0  0  0  0  0  0  0  0  0  0
    4.1225   -7.5900    0.0000 C   0  0  0  0  0  0  0  0  0  0  0  0
    5.8534   -6.4630    0.0000 C   0  0  0  0  0  0  0  0  0  0  0  0
    6.6784   -6.4630    0.0000 C   0  0  0  0  0  0  0  0  0  0  0  0
    7.5034   -6.4630    0.0000 C   0  0  0  0  0  0  0  0  0  0  0  0
    6.2659   -9.6525    0.0000 C   0  0  0  0  0  0  0  0  0  0  0  0
    5.5514  -10.0650    0.0000 C   0  0  0  0  0  0  0  0  0  0  0  0
    6.9803  -10.0650    0.0000 C   0  0  0  0  0  0  0  0  0  0  0  0
  1  2  1  0  0  0  0
  2  3  1  0  0  0  0
  3  4  1  0  0  0  0
  4  5  1  0  0  0  0
  5  6  1  0  0  0  0
  6  1  1  0  0  0  0
  1  7  1  0  0  0  0
  7  8  2  0  0  0  0
  7  9  1  0  0  0  0
  6 10  1  0  0  0  0
  6 11  1  0  0  0  0
 11 12  2  0  0  0  0
  3 13  2  0  0  0  0
 13 14  1  0  0  0  0
 13 15  1  0  0  0  0
M  END
>  <cdx:fragmentId>
5

$$$$
