5604.cdx
  Mrv1902 05222410272D          

 55 58  0  0  0  0            999 V2000
    6.3902   -7.3219    0.0000 C   0  0  0  0  0  0  0  0  0  0  0  0
    6.3902   -8.1469    0.0000 C   0  0  2  0  0  0  0  0  0  0  0  0
    7.1046   -8.5594    0.0000 C   0  0  0  0  0  0  0  0  0  0  0  0
    7.8191   -8.1469    0.0000 C   0  0  1  0  0  0  0  0  0  0  0  0
    7.8191   -7.3219    0.0000 C   0  0  0  0  0  0  0  0  0  0  0  0
    7.1046   -6.9094    0.0000 C   0  0  0  0  0  0  0  0  0  0  0  0
    7.5171   -6.1949    0.0000 O   0  0  0  0  0  0  0  0  0  0  0  0
    8.5336   -8.5594    0.0000 O   0  0  0  0  0  0  0  0  0  0  0  0
    7.1046   -9.3844    0.0000 O   0  0  0  0  0  0  0  0  0  0  0  0
    5.6757   -8.5594    0.0000 O   0  0  0  0  0  0  0  0  0  0  0  0
    5.8671   -6.1949    0.0000 O   0  0  0  0  0  0  0  0  0  0  0  0
    7.1046   -5.4804    0.0000 O   0  0  0  0  0  0  0  0  0  0  0  0
    6.6921   -6.1949    0.0000 C   0  0  0  0  0  0  0  0  0  0  0  0
    8.3421   -6.1949    0.0000 C   0  0  0  0  0  0  0  0  0  0  0  0
    8.7546   -5.4804    0.0000 C   0  0  0  0  0  0  0  0  0  0  0  0
    9.5796   -5.4804    0.0000 C   0  0  0  0  0  0  0  0  0  0  0  0
    8.7546   -6.9094    0.0000 O   0  0  0  0  0  0  0  0  0  0  0  0
    9.9921   -4.7660    0.0000 C   0  0  0  0  0  0  0  0  0  0  0  0
   10.8171   -4.7660    0.0000 C   0  0  0  0  0  0  0  0  0  0  0  0
   11.2296   -4.0515    0.0000 C   0  0  0  0  0  0  0  0  0  0  0  0
   10.8171   -3.3370    0.0000 C   0  0  0  0  0  0  0  0  0  0  0  0
    9.9921   -3.3370    0.0000 C   0  0  0  0  0  0  0  0  0  0  0  0
    9.5796   -4.0515    0.0000 C   0  0  0  0  0  0  0  0  0  0  0  0
   11.2296   -2.6225    0.0000 O   0  0  0  0  0  0  0  0  0  0  0  0
    9.5796   -2.6225    0.0000 O   0  0  0  0  0  0  0  0  0  0  0  0
    9.2417   -8.1361    0.0000 C   0  0  0  0  0  0  0  0  0  0  0  0
    9.9623   -8.5377    0.0000 C   0  0  0  0  0  0  0  0  0  0  0  0
   10.6705   -8.1144    0.0000 C   0  0  0  0  0  0  0  0  0  0  0  0
    9.2292   -7.3112    0.0000 O   0  0  0  0  0  0  0  0  0  0  0  0
   13.5531   -9.7208    0.0000 O   0  0  0  0  0  0  0  0  0  0  0  0
   13.5280   -8.0710    0.0000 O   0  0  0  0  0  0  0  0  0  0  0  0
   11.4037   -9.3409    0.0000 C   0  0  0  0  0  0  0  0  0  0  0  0
   12.1243   -9.7425    0.0000 C   0  0  0  0  0  0  0  0  0  0  0  0
   12.8324   -9.3192    0.0000 C   0  0  0  0  0  0  0  0  0  0  0  0
   12.8199   -8.4943    0.0000 C   0  0  0  0  0  0  0  0  0  0  0  0
   12.0992   -8.0927    0.0000 C   0  0  0  0  0  0  0  0  0  0  0  0
   11.3911   -8.5160    0.0000 C   0  0  0  0  0  0  0  0  0  0  0  0
    4.9612   -8.1469    0.0000 C   0  0  0  0  0  0  0  0  0  0  0  0
    4.2467   -8.5594    0.0000 C   0  0  0  0  0  0  0  0  0  0  0  0
    4.9612   -7.3219    0.0000 O   0  0  0  0  0  0  0  0  0  0  0  0
    3.5323   -8.1469    0.0000 C   0  0  0  0  0  0  0  0  0  0  0  0
    2.8178   -8.5594    0.0000 C   0  0  0  0  0  0  0  0  0  0  0  0
    2.1033   -8.1469    0.0000 C   0  0  0  0  0  0  0  0  0  0  0  0
    1.3889   -8.5594    0.0000 C   0  0  0  0  0  0  0  0  0  0  0  0
    1.3889   -9.3844    0.0000 C   0  0  0  0  0  0  0  0  0  0  0  0
    2.1033   -9.7969    0.0000 C   0  0  0  0  0  0  0  0  0  0  0  0
    2.8178   -9.3844    0.0000 C   0  0  0  0  0  0  0  0  0  0  0  0
    0.6744   -8.1469    0.0000 O   0  0  0  0  0  0  0  0  0  0  0  0
    0.6744   -9.7969    0.0000 O   0  0  0  0  0  0  0  0  0  0  0  0
    6.3902   -9.7969    0.0000 C   0  0  0  0  0  0  0  0  0  0  0  0
    5.6757   -9.3844    0.0000 C   0  0  0  0  0  0  0  0  0  0  0  0
    4.9612   -9.7969    0.0000 C   0  0  0  0  0  0  0  0  0  0  0  0
    4.2467   -9.3844    0.0000 O   0  0  0  0  0  0  0  0  0  0  0  0
    6.3902  -10.6219    0.0000 O   0  0  0  0  0  0  0  0  0  0  0  0
    4.9612  -10.6219    0.0000 O   0  0  0  0  0  0  0  0  0  0  0  0
  1  2  1  0  0  0  0
  2  3  1  0  0  0  0
  3  4  1  0  0  0  0
  4  5  1  0  0  0  0
  5  6  1  0  0  0  0
  6  1  1  0  0  0  0
  6  7  1  0  0  0  0
  4  8  1  1  0  0  0
  3  9  1  0  0  0  0
  2 10  1  6  0  0  0
 13 11  1  0  0  0  0
  6 13  1  0  0  0  0
 13 12  2  0  0  0  0
  7 14  1  0  0  0  0
 14 15  1  0  0  0  0
 15 16  2  0  0  0  0
 14 17  2  0  0  0  0
 16 18  1  0  0  0  0
 18 19  2  0  0  0  0
 19 20  1  0  0  0  0
 20 21  2  0  0  0  0
 21 22  1  0  0  0  0
 22 23  2  0  0  0  0
 23 18  1  0  0  0  0
 21 24  1  0  0  0  0
 22 25  1  0  0  0  0
  8 26  1  0  0  0  0
 26 27  1  0  0  0  0
 27 28  2  0  0  0  0
 34 30  1  0  0  0  0
 28 37  1  0  0  0  0
 26 29  2  0  0  0  0
 35 31  1  0  0  0  0
 32 37  1  0  0  0  0
 33 32  2  0  0  0  0
 34 33  1  0  0  0  0
 35 34  2  0  0  0  0
 36 35  1  0  0  0  0
 37 36  2  0  0  0  0
 10 38  1  0  0  0  0
 38 39  1  0  0  0  0
 38 40  2  0  0  0  0
 39 41  2  0  0  0  0
 41 42  1  0  0  0  0
 42 43  2  0  0  0  0
 43 44  1  0  0  0  0
 44 45  2  0  0  0  0
 45 46  1  0  0  0  0
 46 47  2  0  0  0  0
 47 42  1  0  0  0  0
 44 48  1  0  0  0  0
 45 49  1  0  0  0  0
  9 50  1  0  0  0  0
 50 51  1  0  0  0  0
 51 52  1  0  0  0  0
 52 53  1  0  0  0  0
 50 54  2  0  0  0  0
 52 55  2  0  0  0  0
M  END
>  <cdx:fragmentId>
5

$$$$
