5606.cdx
  Mrv1902 05222410282D          

 43 45  0  0  0  0            999 V2000
    6.3902   -7.3219    0.0000 C   0  0  0  0  0  0  0  0  0  0  0  0
    6.3902   -8.1469    0.0000 C   0  0  2  0  0  0  0  0  0  0  0  0
    7.1046   -8.5594    0.0000 C   0  0  0  0  0  0  0  0  0  0  0  0
    7.8191   -8.1469    0.0000 C   0  0  1  0  0  0  0  0  0  0  0  0
    7.8191   -7.3219    0.0000 C   0  0  0  0  0  0  0  0  0  0  0  0
    7.5171   -6.1949    0.0000 C   0  0  0  0  0  0  0  0  0  0  0  0
    7.1046   -5.4804    0.0000 O   0  0  0  0  0  0  0  0  0  0  0  0
    8.5336   -8.5594    0.0000 O   0  0  0  0  0  0  0  0  0  0  0  0
    7.1046   -9.3844    0.0000 O   0  0  0  0  0  0  0  0  0  0  0  0
    5.6757   -8.5594    0.0000 O   0  0  0  0  0  0  0  0  0  0  0  0
    8.3421   -6.1949    0.0000 O   0  0  0  0  0  0  0  0  0  0  0  0
    6.6921   -6.1949    0.0000 O   0  0  0  0  0  0  0  0  0  0  0  0
    7.1046   -6.9094    0.0000 C   0  0  0  0  0  0  0  0  0  0  0  0
    9.2417   -8.1361    0.0000 C   0  0  0  0  0  0  0  0  0  0  0  0
    9.9623   -8.5377    0.0000 C   0  0  0  0  0  0  0  0  0  0  0  0
   10.6705   -8.1144    0.0000 C   0  0  0  0  0  0  0  0  0  0  0  0
    9.2292   -7.3112    0.0000 O   0  0  0  0  0  0  0  0  0  0  0  0
   13.5531   -9.7208    0.0000 O   0  0  0  0  0  0  0  0  0  0  0  0
   13.5280   -8.0710    0.0000 O   0  0  0  0  0  0  0  0  0  0  0  0
   11.4037   -9.3409    0.0000 C   0  0  0  0  0  0  0  0  0  0  0  0
   12.1243   -9.7425    0.0000 C   0  0  0  0  0  0  0  0  0  0  0  0
   12.8324   -9.3192    0.0000 C   0  0  0  0  0  0  0  0  0  0  0  0
   12.8199   -8.4943    0.0000 C   0  0  0  0  0  0  0  0  0  0  0  0
   12.0992   -8.0927    0.0000 C   0  0  0  0  0  0  0  0  0  0  0  0
   11.3911   -8.5160    0.0000 C   0  0  0  0  0  0  0  0  0  0  0  0
    4.9612   -8.1469    0.0000 C   0  0  0  0  0  0  0  0  0  0  0  0
    4.2467   -8.5594    0.0000 C   0  0  0  0  0  0  0  0  0  0  0  0
    4.9612   -7.3219    0.0000 O   0  0  0  0  0  0  0  0  0  0  0  0
    3.5323   -8.1469    0.0000 C   0  0  0  0  0  0  0  0  0  0  0  0
    2.8178   -8.5594    0.0000 C   0  0  0  0  0  0  0  0  0  0  0  0
    2.1033   -8.1469    0.0000 C   0  0  0  0  0  0  0  0  0  0  0  0
    1.3889   -8.5594    0.0000 C   0  0  0  0  0  0  0  0  0  0  0  0
    1.3889   -9.3844    0.0000 C   0  0  0  0  0  0  0  0  0  0  0  0
    2.1033   -9.7969    0.0000 C   0  0  0  0  0  0  0  0  0  0  0  0
    2.8178   -9.3844    0.0000 C   0  0  0  0  0  0  0  0  0  0  0  0
    0.6744   -8.1469    0.0000 O   0  0  0  0  0  0  0  0  0  0  0  0
    0.6744   -9.7969    0.0000 O   0  0  0  0  0  0  0  0  0  0  0  0
    6.3902   -9.7969    0.0000 C   0  0  0  0  0  0  0  0  0  0  0  0
    5.6757   -9.3844    0.0000 C   0  0  0  0  0  0  0  0  0  0  0  0
    4.9612   -9.7969    0.0000 C   0  0  0  0  0  0  0  0  0  0  0  0
    4.2467   -9.3844    0.0000 O   0  0  0  0  0  0  0  0  0  0  0  0
    6.3902  -10.6219    0.0000 O   0  0  0  0  0  0  0  0  0  0  0  0
    4.9612  -10.6219    0.0000 O   0  0  0  0  0  0  0  0  0  0  0  0
  1  2  1  0  0  0  0
  2  3  1  0  0  0  0
  3  4  1  0  0  0  0
  4  5  1  0  0  0  0
  5 13  1  0  0  0  0
 13  1  1  0  0  0  0
  6  7  2  0  0  0  0
  4  8  1  1  0  0  0
  3  9  1  0  0  0  0
  2 10  1  6  0  0  0
 13  6  1  0  0  0  0
  6 11  1  0  0  0  0
 13 12  1  0  0  0  0
  8 14  1  0  0  0  0
 14 15  1  0  0  0  0
 15 16  2  0  0  0  0
 22 18  1  0  0  0  0
 16 25  1  0  0  0  0
 14 17  2  0  0  0  0
 23 19  1  0  0  0  0
 20 25  1  0  0  0  0
 21 20  2  0  0  0  0
 22 21  1  0  0  0  0
 23 22  2  0  0  0  0
 24 23  1  0  0  0  0
 25 24  2  0  0  0  0
 10 26  1  0  0  0  0
 26 27  1  0  0  0  0
 26 28  2  0  0  0  0
 27 29  2  0  0  0  0
 29 30  1  0  0  0  0
 30 31  2  0  0  0  0
 31 32  1  0  0  0  0
 32 33  2  0  0  0  0
 33 34  1  0  0  0  0
 34 35  2  0  0  0  0
 35 30  1  0  0  0  0
 32 36  1  0  0  0  0
 33 37  1  0  0  0  0
  9 38  1  0  0  0  0
 38 39  1  0  0  0  0
 39 40  1  0  0  0  0
 40 41  1  0  0  0  0
 38 42  2  0  0  0  0
 40 43  2  0  0  0  0
M  END
>  <cdx:fragmentId>
5

$$$$
