560878.cdx
  Mrv1902 05222410242D          

 14 13  0  0  0  0            999 V2000
   11.5392  -13.8994    0.0000 C   0  0  0  0  0  0  0  0  0  0  0  0
   12.2536  -14.3119    0.0000 C   0  0  0  0  0  0  0  0  0  0  0  0
   12.9681  -13.8994    0.0000 C   0  0  0  0  0  0  0  0  0  0  0  0
   13.6826  -14.3119    0.0000 C   0  0  0  0  0  0  0  0  0  0  0  0
   14.3970  -13.8994    0.0000 C   0  0  0  0  0  0  0  0  0  0  0  0
   15.1115  -13.4869    0.0000 C   0  0  0  0  0  0  0  0  0  0  0  0
   15.8260  -13.0744    0.0000 C   0  0  0  0  0  0  0  0  0  0  0  0
   16.5405  -12.6619    0.0000 C   0  0  0  0  0  0  0  0  0  0  0  0
   17.2549  -12.2494    0.0000 C   0  0  0  0  0  0  0  0  0  0  0  0
   17.9694  -12.6619    0.0000 C   0  0  0  0  0  0  0  0  0  0  0  0
   18.6839  -12.2494    0.0000 C   0  0  0  0  0  0  0  0  0  0  0  0
   19.3983  -12.6619    0.0000 C   0  0  0  0  0  0  0  0  0  0  0  0
   10.8247  -14.3119    0.0000 O   0  0  0  0  0  0  0  0  0  0  0  0
   20.1128  -12.2494    0.0000 O   0  0  0  0  0  0  0  0  0  0  0  0
  1  2  1  0  0  0  0
  2  3  1  0  0  0  0
  3  4  1  0  0  0  0
  4  5  1  0  0  0  0
  5  6  3  0  0  0  0
  6  7  1  0  0  0  0
  7  8  3  0  0  0  0
  8  9  1  0  0  0  0
  9 10  1  0  0  0  0
 10 11  1  0  0  0  0
 11 12  1  0  0  0  0
  1 13  1  0  0  0  0
 12 14  1  0  0  0  0
M  END
>  <cdx:groupId>
296

>  <cdx:fragmentId>
258

$$$$
