560917.cdx
  Mrv1902 05222410232D          

 14 14  0  0  0  0            999 V2000
   16.5405  -12.6443    0.0000 O   0  0  0  0  0  0  0  0  0  0  0  0
   17.2549  -13.0568    0.0000 C   0  0  0  0  0  0  0  0  0  0  0  0
   17.2549  -13.8818    0.0000 C   0  0  0  0  0  0  0  0  0  0  0  0
   16.5405  -14.2943    0.0000 C   0  0  0  0  0  0  0  0  0  0  0  0
   15.8260  -14.7068    0.0000 C   0  0  0  0  0  0  0  0  0  0  0  0
   15.1115  -15.1193    0.0000 C   0  0  0  0  0  0  0  0  0  0  0  0
   14.3970  -14.7068    0.0000 C   0  0  0  0  0  0  0  0  0  0  0  0
   14.3970  -13.8818    0.0000 C   0  0  0  0  0  0  0  0  0  0  0  0
   13.6826  -13.4693    0.0000 C   0  0  0  0  0  0  0  0  0  0  0  0
   13.6826  -12.6443    0.0000 C   0  0  0  0  0  0  0  0  0  0  0  0
   14.3970  -12.2318    0.0000 C   0  0  0  0  0  0  0  0  0  0  0  0
   15.1115  -11.8193    0.0000 C   0  0  0  0  0  0  0  0  0  0  0  0
   15.8260  -11.4068    0.0000 C   0  0  0  0  0  0  0  0  0  0  0  0
   16.5405  -11.8193    0.0000 C   0  0  0  0  0  0  0  0  0  0  0  0
  1  2  1  0  0  0  0
  2  3  1  0  0  0  0
  3  4  1  0  0  0  0
  4  5  3  0  0  0  0
  5  6  1  0  0  0  0
  6  7  1  0  0  0  0
  7  8  1  0  0  0  0
  8  9  1  0  0  0  0
  9 10  1  0  0  0  0
 10 11  1  0  0  0  0
 11 12  3  0  0  0  0
 12 13  1  0  0  0  0
 13 14  1  0  0  0  0
  1 14  1  0  0  0  0
M  END
>  <cdx:groupId>
343

>  <cdx:fragmentId>
304

$$$$
