560973.cdx
  Mrv1902 05222410192D          

 39 43  0  0  0  0            999 V2000
    9.7803   -7.6827    0.0000 C   0  0  0  0  0  0  0  0  0  0  0  0
    9.0620   -7.2769    0.0000 C   0  0  0  0  0  0  0  0  0  0  0  0
    8.3514   -7.6960    0.0000 C   0  0  0  0  0  0  0  0  0  0  0  0
    8.3591   -8.5210    0.0000 C   0  0  0  0  0  0  0  0  0  0  0  0
    9.0774   -8.9268    0.0000 C   0  0  0  0  0  0  0  0  0  0  0  0
    9.7880   -8.5076    0.0000 C   0  0  0  0  0  0  0  0  0  0  0  0
    7.6485   -8.9402    0.0000 C   0  0  0  0  0  0  0  0  0  0  0  0
   10.4909   -7.2635    0.0000 N   0  0  0  0  0  0  0  0  0  0  0  0
   11.2092   -7.6693    0.0000 C   0  0  0  0  0  0  0  0  0  0  0  0
   11.2169   -8.4943    0.0000 O   0  0  0  0  0  0  0  0  0  0  0  0
   11.9198   -7.2502    0.0000 N   0  0  0  0  0  0  0  0  0  0  0  0
   13.3886   -7.3134    0.0000 S   0  0  0  0  0  0  0  0  0  0  0  0
   12.6381   -7.6560    0.0000 C   0  0  0  0  0  0  0  0  0  0  0  0
   12.7320   -8.4756    0.0000 N   0  0  0  0  0  0  0  0  0  0  0  0
   13.5405   -8.6396    0.0000 N   0  0  0  0  0  0  0  0  0  0  0  0
   13.9463   -7.9213    0.0000 C   0  0  0  0  0  0  0  0  0  0  0  0
   14.7659   -7.8274    0.0000 C   0  0  0  0  0  0  0  0  0  0  0  0
   15.2571   -8.4903    0.0000 C   0  0  0  0  0  0  0  0  0  0  0  0
   16.0767   -8.3963    0.0000 C   0  0  0  0  0  0  0  0  0  0  0  0
   16.5679   -9.0592    0.0000 C   0  0  0  0  0  0  0  0  0  0  0  0
   16.2394   -9.8160    0.0000 C   0  0  0  0  0  0  0  0  0  0  0  0
   15.4197   -9.9099    0.0000 C   0  0  0  0  0  0  0  0  0  0  0  0
   14.9286   -9.2470    0.0000 C   0  0  0  0  0  0  0  0  0  0  0  0
    7.6331   -7.2902    0.0000 N   0  0  0  0  0  0  0  0  0  0  0  0
    6.9225   -7.7094    0.0000 C   0  0  0  0  0  0  0  0  0  0  0  0
    6.9303   -8.5343    0.0000 O   0  0  0  0  0  0  0  0  0  0  0  0
    6.2042   -7.3036    0.0000 N   0  0  0  0  0  0  0  0  0  0  0  0
    4.7369   -7.3942    0.0000 S   0  0  0  0  0  0  0  0  0  0  0  0
    5.4937   -7.7227    0.0000 C   0  0  0  0  0  0  0  0  0  0  0  0
    5.4151   -8.5440    0.0000 N   0  0  0  0  0  0  0  0  0  0  0  0
    4.6098   -8.7231    0.0000 N   0  0  0  0  0  0  0  0  0  0  0  0
    4.1906   -8.0125    0.0000 C   0  0  0  0  0  0  0  0  0  0  0  0
    3.2333   -9.3564    0.0000 C   0  0  0  0  0  0  0  0  0  0  0  0
    2.7546  -10.0283    0.0000 C   0  0  0  0  0  0  0  0  0  0  0  0
    1.9334   -9.9497    0.0000 C   0  0  0  0  0  0  0  0  0  0  0  0
    1.5908   -9.1992    0.0000 C   0  0  0  0  0  0  0  0  0  0  0  0
    2.0694   -8.5273    0.0000 C   0  0  0  0  0  0  0  0  0  0  0  0
    2.8907   -8.6059    0.0000 C   0  0  0  0  0  0  0  0  0  0  0  0
    3.3694   -7.9339    0.0000 C   0  0  0  0  0  0  0  0  0  0  0  0
 38 33  2  0  0  0  0
 34 33  1  0  0  0  0
 35 34  2  0  0  0  0
 36 35  1  0  0  0  0
 37 36  2  0  0  0  0
 38 37  1  0  0  0  0
 39 38  1  0  0  0  0
  1  2  1  0  0  0  0
  2  3  2  0  0  0  0
  3  4  1  0  0  0  0
  4  5  2  0  0  0  0
  5  6  1  0  0  0  0
  1  6  2  0  0  0  0
  4  7  1  0  0  0  0
  8  9  1  0  0  0  0
  9 10  2  0  0  0  0
  9 11  1  0  0  0  0
 12 13  1  0  0  0  0
 13 14  2  0  0  0  0
 14 15  1  0  0  0  0
 15 16  2  0  0  0  0
 12 16  1  0  0  0  0
 17 18  1  0  0  0  0
 18 19  1  0  0  0  0
 19 20  2  0  0  0  0
 20 21  1  0  0  0  0
 21 22  2  0  0  0  0
 22 23  1  0  0  0  0
 18 23  2  0  0  0  0
 16 17  1  0  0  0  0
 11 13  1  0  0  0  0
  1  8  1  0  0  0  0
 24 25  1  0  0  0  0
 25 26  2  0  0  0  0
 25 27  1  0  0  0  0
 28 29  1  0  0  0  0
 29 30  2  0  0  0  0
 30 31  1  0  0  0  0
 31 32  2  0  0  0  0
 28 32  1  0  0  0  0
 32 39  1  0  0  0  0
 27 29  1  0  0  0  0
  3 24  1  0  0  0  0
M  END
>  <cdx:fragmentId>
384

$$$$
