561019.cdx
  Mrv1902 05222410242D          

 14 15  0  0  0  0            999 V2000
    4.0309   -4.3893    0.0000 C   0  0  0  0  0  0  0  0  0  0  0  0
    4.7453   -3.9768    0.0000 C   0  0  0  0  0  0  0  0  0  0  0  0
    5.4598   -4.3893    0.0000 C   0  0  0  0  0  0  0  0  0  0  0  0
    6.1743   -3.9768    0.0000 C   0  0  0  0  0  0  0  0  0  0  0  0
    4.7453   -3.1518    0.0000 O   0  0  0  0  0  0  0  0  0  0  0  0
    8.3177   -4.3893    0.0000 C   0  0  0  0  0  0  0  0  0  0  0  0
    7.6032   -3.9768    0.0000 C   0  0  0  0  0  0  0  0  0  0  0  0
    6.8888   -4.3893    0.0000 C   0  0  0  0  0  0  0  0  0  0  0  0
    6.8888   -5.2143    0.0000 C   0  0  0  0  0  0  0  0  0  0  0  0
    7.6032   -5.6268    0.0000 C   0  0  0  0  0  0  0  0  0  0  0  0
    8.3177   -5.2143    0.0000 C   0  0  0  0  0  0  0  0  0  0  0  0
    9.0322   -4.8018    0.0000 C   0  0  0  0  0  0  0  0  0  0  0  0
    9.7466   -5.2143    0.0000 C   0  0  0  0  0  0  0  0  0  0  0  0
    9.7466   -4.3893    0.0000 C   0  0  0  0  0  0  0  0  0  0  0  0
  1  2  1  0  0  0  0
  2  3  1  0  0  0  0
  3  4  1  0  0  0  0
  2  5  2  0  0  0  0
  6  7  1  0  0  0  0
  7  8  1  0  0  0  0
  8  9  2  0  0  0  0
  9 10  1  0  0  0  0
 10 11  1  0  0  0  0
 11 12  1  0  0  0  0
  6 12  1  0  0  0  0
  6 11  1  0  0  0  0
 12 13  1  0  0  0  0
 12 14  1  0  0  0  0
  4  8  1  0  0  0  0
M  END
>  <cdx:fragmentId>
491

$$$$
