5610.cdx
  Mrv1902 05222410272D          

 10 10  0  0  0  0            999 V2000
    2.5147   -2.1651    0.0000 C   0  0  0  0  0  0  0  0  0  0  0  0
    3.2291   -1.7526    0.0000 C   0  0  0  0  0  0  0  0  0  0  0  0
    3.9436   -2.1651    0.0000 C   0  0  0  0  0  0  0  0  0  0  0  0
    3.9436   -2.9901    0.0000 C   0  0  0  0  0  0  0  0  0  0  0  0
    3.2291   -3.4026    0.0000 C   0  0  0  0  0  0  0  0  0  0  0  0
    2.5147   -2.9901    0.0000 C   0  0  0  0  0  0  0  0  0  0  0  0
    1.8002   -1.7526    0.0000 O   0  0  0  0  0  0  0  0  0  0  0  0
    4.6581   -3.4026    0.0000 C   0  0  0  0  0  0  0  0  0  0  0  0
    5.3725   -2.9901    0.0000 C   0  0  0  0  0  0  0  0  0  0  0  0
    6.0870   -3.4026    0.0000 N   0  0  0  0  0  0  0  0  0  0  0  0
  1  2  1  0  0  0  0
  2  3  2  0  0  0  0
  3  4  1  0  0  0  0
  4  5  2  0  0  0  0
  5  6  1  0  0  0  0
  1  6  2  0  0  0  0
  1  7  1  0  0  0  0
  8  9  1  0  0  0  0
  9 10  1  0  0  0  0
  4  8  1  0  0  0  0
M  END
>  <cdx:groupId>
32

>  <cdx:fragmentId>
5

$$$$
