56103.cdx
  Mrv1902 05222410202D          

 36 39  0  0  0  0            999 V2000
   10.1679   -6.7447    0.0000 C   0  0  0  0  0  0  0  0  0  0  0  0
    9.9130   -7.5293    0.0000 C   0  0  0  0  0  0  0  0  0  0  0  0
    9.1060   -7.7009    0.0000 C   0  0  1  0  0  0  0  0  0  0  0  0
    8.5540   -7.0878    0.0000 C   0  0  0  0  0  0  0  0  0  0  0  0
   11.2298   -5.7886    0.0000 O   0  0  0  0  0  0  0  0  0  0  0  0
    5.2085   -9.5654    0.0000 C   0  0  0  0  0  0  0  0  0  0  0  0
    4.4941   -9.9779    0.0000 C   0  0  0  0  0  0  0  0  0  0  0  0
    4.4941  -10.8029    0.0000 C   0  0  1  0  0  0  0  0  0  0  0  0
    5.2085  -11.2154    0.0000 C   0  0  0  0  0  0  0  0  0  0  0  0
    5.9230  -10.8029    0.0000 C   0  0  2  0  0  0  0  0  0  0  0  0
    6.6375  -11.2154    0.0000 C   0  0  0  0  0  0  0  0  0  0  0  0
    7.3520  -10.8029    0.0000 C   0  0  1  0  0  0  0  0  0  0  0  0
    7.3520   -9.9779    0.0000 C   0  0  0  0  0  0  0  0  0  0  0  0
    8.0664   -9.5654    0.0000 C   0  0  2  0  0  0  0  0  0  0  0  0
    8.8510   -9.8204    0.0000 C   0  0  0  0  0  0  0  0  0  0  0  0
    9.3360   -9.1529    0.0000 C   0  0  0  0  0  0  0  0  0  0  0  0
    8.8510   -8.4855    0.0000 C   0  0  1  0  0  0  0  0  0  0  0  0
    8.0664   -8.7404    0.0000 C   0  0  1  0  0  0  0  0  0  0  0  0
    7.3520   -8.3279    0.0000 C   0  0  1  0  0  0  0  0  0  0  0  0
    6.6375   -8.7404    0.0000 C   0  0  0  0  0  0  0  0  0  0  0  0
    6.6375   -9.5654    0.0000 C   0  0  0  0  0  0  0  0  0  0  0  0
    5.9230   -9.9779    0.0000 C   0  0  1  0  0  0  0  0  0  0  0  0
    9.1060  -10.6050    0.0000 O   0  0  0  0  0  0  0  0  0  0  0  0
    5.9230   -8.3279    0.0000 O   0  0  0  0  0  0  0  0  0  0  0  0
    8.0664  -10.4558    0.0000 C   0  0  0  0  0  0  0  0  0  0  0  0
    8.0664   -7.9715    0.0000 C   0  0  0  0  0  0  0  0  0  0  0  0
    5.9230   -9.1529    0.0000 C   0  0  0  0  0  0  0  0  0  0  0  0
    5.6210  -11.9299    0.0000 C   0  0  0  0  0  0  0  0  0  0  0  0
    4.7960  -11.9299    0.0000 C   0  0  0  0  0  0  0  0  0  0  0  0
    7.3520   -7.5029    0.0000 O   0  0  0  0  0  0  0  0  0  0  0  0
    8.0664  -11.2154    0.0000 O   0  0  0  0  0  0  0  0  0  0  0  0
    3.7796  -11.2154    0.0000 O   0  0  0  0  0  0  0  0  0  0  0  0
    5.9230  -11.6279    0.0000 H   0  0  0  0  0  0  0  0  0  0  0  0
   11.5269   -7.1863    0.0000 O   0  0  0  0  0  0  0  0  0  0  0  0
   10.9749   -6.5732    0.0000 C   0  0  0  0  0  0  0  0  0  0  0  0
    9.6357   -8.2306    0.0000 H   0  0  0  0  0  0  0  0  0  0  0  0
 35  5  1  0  0  0  0
 35 34  2  0  0  0  0
 35  1  1  0  0  0  0
  1  2  1  0  0  0  0
  2  3  1  0  0  0  0
  3  4  1  6  0  0  0
  6  7  1  0  0  0  0
  7  8  1  0  0  0  0
  8  9  1  0  0  0  0
  9 10  1  0  0  0  0
 10 11  1  0  0  0  0
 11 12  1  0  0  0  0
 12 13  1  0  0  0  0
 13 14  1  0  0  0  0
 14 15  1  0  0  0  0
 15 16  1  0  0  0  0
 17 16  1  0  0  0  0
 17 18  1  0  0  0  0
 14 18  1  0  0  0  0
 18 19  1  0  0  0  0
 19 20  1  0  0  0  0
 20 21  1  0  0  0  0
 13 21  2  0  0  0  0
 21 22  1  0  0  0  0
 10 22  1  0  0  0  0
  6 22  1  0  0  0  0
 15 23  2  0  0  0  0
 20 24  2  0  0  0  0
 14 25  1  6  0  0  0
 18 26  1  1  0  0  0
 22 27  1  1  0  0  0
  9 28  1  0  0  0  0
  9 29  1  0  0  0  0
 19 30  1  1  0  0  0
 12 31  1  1  0  0  0
  8 32  1  1  0  0  0
  3 17  1  0  0  0  0
 10 33  1  6  0  0  0
 17 36  1  6  0  0  0
M  END
>  <cdx:groupId>
126172

>  <cdx:fragmentId>
126081

$$$$
