5611.cdx
  Mrv1902 05222410272D          

 14 14  0  0  0  0            999 V2000
    4.8708   -6.6688    0.0000 C   0  0  0  0  0  0  0  0  0  0  0  0
    4.8708   -7.4937    0.0000 C   0  0  0  0  0  0  0  0  0  0  0  0
    5.5852   -7.9063    0.0000 C   0  0  0  0  0  0  0  0  0  0  0  0
    6.2997   -7.4937    0.0000 C   0  0  0  0  0  0  0  0  0  0  0  0
    6.2997   -6.6688    0.0000 C   0  0  0  0  0  0  0  0  0  0  0  0
    5.5852   -6.2563    0.0000 C   0  0  0  0  0  0  0  0  0  0  0  0
    5.5852   -8.7313    0.0000 C   0  0  0  0  0  0  0  0  0  0  0  0
    4.1563   -6.2563    0.0000 O   0  0  0  0  0  0  0  0  0  0  0  0
    3.4418   -6.6688    0.0000 C   0  0  0  0  0  0  0  0  0  0  0  0
    7.0142   -7.9063    0.0000 C   0  0  0  0  0  0  0  0  0  0  0  0
    7.7287   -7.4937    0.0000 C   0  0  0  0  0  0  0  0  0  0  0  0
    8.4431   -7.9062    0.0000 C   0  0  0  0  0  0  0  0  0  0  0  0
    9.1576   -7.4937    0.0000 O   0  0  0  0  0  0  0  0  0  0  0  0
    8.4431   -8.7312    0.0000 O   0  0  0  0  0  0  0  0  0  0  0  0
  1  2  2  0  0  0  0
  2  3  1  0  0  0  0
  3  4  2  0  0  0  0
  4  5  1  0  0  0  0
  5  6  2  0  0  0  0
  6  1  1  0  0  0  0
  3  7  1  0  0  0  0
  1  8  1  0  0  0  0
  8  9  1  0  0  0  0
  4 10  1  0  0  0  0
 10 11  2  0  0  0  0
 11 12  1  0  0  0  0
 12 13  1  0  0  0  0
 12 14  2  0  0  0  0
M  END
>  <cdx:fragmentId>
5

$$$$
