44561398.cdx
  Mrv1902 05222410212D          

 58 64  0  0  0  0            999 V2000
   52.7215   -9.8802    0.0000 C   0  0  0  0  0  0  0  0  0  0  0  0
   52.0070   -9.4677    0.0000 C   0  0  0  0  0  0  0  0  0  0  0  0
   51.2925   -9.8802    0.0000 C   0  0  0  0  0  0  0  0  0  0  0  0
   50.5780   -9.4677    0.0000 C   0  0  0  0  0  0  0  0  0  0  0  0
   52.7215  -10.7052    0.0000 O   0  0  0  0  0  0  0  0  0  0  0  0
   53.4359   -9.4677    0.0000 O   0  0  0  0  0  0  0  0  0  0  0  0
   52.0070   -8.6427    0.0000 C   0  0  0  0  0  0  0  0  0  0  0  0
   55.2936  -11.3652    0.0000 C   0  0  2  0  0  0  0  0  0  0  0  0
   56.0080  -11.7777    0.0000 O   0  0  0  0  0  0  0  0  0  0  0  0
   56.0080  -10.9527    0.0000 C   0  0  1  0  0  0  0  0  0  0  0  0
   56.7926  -11.2076    0.0000 C   0  0  0  0  0  0  0  0  0  0  0  0
   57.2776  -10.5402    0.0000 C   0  0  0  0  0  0  0  0  0  0  0  0
   56.7926   -9.8727    0.0000 C   0  0  2  0  0  0  0  0  0  0  0  0
   56.0080  -10.1277    0.0000 C   0  0  1  0  0  0  0  0  0  0  0  0
   55.2936   -9.7152    0.0000 C   0  0  1  0  0  0  0  0  0  0  0  0
   54.5791  -10.1277    0.0000 C   0  0  2  0  0  0  0  0  0  0  0  0
   54.5791  -10.9527    0.0000 C   0  0  2  0  0  0  0  0  0  0  0  0
   53.8646  -11.3652    0.0000 C   0  0  1  0  0  0  0  0  0  0  0  0
   53.1501  -10.9527    0.0000 C   0  0  0  0  0  0  0  0  0  0  0  0
   52.4357  -11.3652    0.0000 C   0  0  0  0  0  0  0  0  0  0  0  0
   52.4357  -12.1902    0.0000 C   0  0  1  0  0  0  0  0  0  0  0  0
   53.1501  -12.6027    0.0000 C   0  0  0  0  0  0  0  0  0  0  0  0
   53.8646  -12.1902    0.0000 C   0  0  2  0  0  0  0  0  0  0  0  0
   54.5791  -12.6027    0.0000 C   0  0  0  0  0  0  0  0  0  0  0  0
   55.2936  -12.1902    0.0000 C   0  0  0  0  0  0  0  0  0  0  0  0
   53.8646  -10.5402    0.0000 C   0  0  0  0  0  0  0  0  0  0  0  0
   56.0943   -9.3072    0.0000 C   0  0  0  0  0  0  0  0  0  0  0  0
   51.7212  -12.6027    0.0000 O   0  0  0  0  0  0  0  0  0  0  0  0
   51.0067  -11.3652    0.0000 O   0  0  0  0  0  0  0  0  0  0  0  0
   51.0067  -12.1902    0.0000 C   0  0  2  0  0  0  0  0  0  0  0  0
   50.2923  -12.6027    0.0000 C   0  0  0  0  0  0  0  0  0  0  0  0
   49.5778  -12.1902    0.0000 C   0  0  2  0  0  0  0  0  0  0  0  0
   49.5778  -11.3652    0.0000 C   0  0  1  0  0  0  0  0  0  0  0  0
   50.2923  -10.9527    0.0000 C   0  0  1  0  0  0  0  0  0  0  0  0
   50.2923  -10.1277    0.0000 C   0  0  0  0  0  0  0  0  0  0  0  0
   48.8633  -12.6027    0.0000 O   0  0  0  0  0  0  0  0  0  0  0  0
   48.8633  -13.4277    0.0000 C   0  0  0  0  0  0  0  0  0  0  0  0
   48.8633  -10.9527    0.0000 O   0  0  0  0  0  0  0  0  0  0  0  0
   48.1488  -12.1902    0.0000 O   0  0  0  0  0  0  0  0  0  0  0  0
   48.1488  -11.3652    0.0000 C   0  0  2  0  0  0  0  0  0  0  0  0
   47.4344  -10.9527    0.0000 C   0  0  1  0  0  0  0  0  0  0  0  0
   46.7199  -11.3652    0.0000 C   0  0  1  0  0  0  0  0  0  0  0  0
   46.7199  -12.1902    0.0000 C   0  0  1  0  0  0  0  0  0  0  0  0
   47.4344  -12.6027    0.0000 C   0  0  1  0  0  0  0  0  0  0  0  0
   47.4344  -13.4277    0.0000 C   0  0  0  0  0  0  0  0  0  0  0  0
   46.0054  -10.9527    0.0000 O   0  0  0  0  0  0  0  0  0  0  0  0
   45.2910  -11.3652    0.0000 C   0  0  0  0  0  0  0  0  0  0  0  0
   46.0054  -12.6027    0.0000 O   0  0  0  0  0  0  0  0  0  0  0  0
   47.4344  -10.1277    0.0000 O   0  0  0  0  0  0  0  0  0  0  0  0
   55.2936   -8.8902    0.0000 O   0  0  0  0  0  0  0  0  0  0  0  0
   54.5791   -8.4777    0.0000 C   0  0  0  0  0  0  0  0  0  0  0  0
   54.5791   -7.6527    0.0000 O   0  0  0  0  0  0  0  0  0  0  0  0
   53.8646   -8.8902    0.0000 C   0  0  0  0  0  0  0  0  0  0  0  0
   57.0476   -9.0881    0.0000 C   0  0  0  0  0  0  0  0  0  0  0  0
   56.4956   -8.4750    0.0000 O   0  0  0  0  0  0  0  0  0  0  0  0
   57.8546   -8.9166    0.0000 C   0  0  0  0  0  0  0  0  0  0  0  0
   54.5791  -11.7777    0.0000 H   0  0  0  0  0  0  0  0  0  0  0  0
   53.8646  -13.0152    0.0000 H   0  0  0  0  0  0  0  0  0  0  0  0
  1  2  1  0  0  0  0
  2  3  2  0  0  0  0
  3  4  1  0  0  0  0
  1  5  2  0  0  0  0
  1  6  1  0  0  0  0
  2  7  1  0  0  0  0
  8  9  1  1  0  0  0
 10  9  1  1  0  0  0
 10 11  1  0  0  0  0
 11 12  1  0  0  0  0
 12 13  1  0  0  0  0
 13 14  1  0  0  0  0
 14 15  1  0  0  0  0
 15 16  1  0  0  0  0
 16 17  1  0  0  0  0
 17 18  1  0  0  0  0
 18 19  1  0  0  0  0
 19 20  1  0  0  0  0
 20 21  1  0  0  0  0
 21 22  1  0  0  0  0
 22 23  1  0  0  0  0
 23 24  1  0  0  0  0
 24 25  1  0  0  0  0
  8 25  1  0  0  0  0
  8 17  1  0  0  0  0
 18 23  1  0  0  0  0
 10 14  1  0  0  0  0
  8 10  1  0  0  0  0
 18 26  1  1  0  0  0
 14 27  1  1  0  0  0
 29 30  1  0  0  0  0
 30 31  1  0  0  0  0
 31 32  1  0  0  0  0
 32 33  1  0  0  0  0
 33 34  1  0  0  0  0
 29 34  1  0  0  0  0
 34 35  1  1  0  0  0
 36 37  1  0  0  0  0
 32 36  1  1  0  0  0
 39 40  1  0  0  0  0
 40 41  1  0  0  0  0
 41 42  1  0  0  0  0
 42 43  1  0  0  0  0
 43 44  1  0  0  0  0
 39 44  1  0  0  0  0
 44 45  1  6  0  0  0
 46 47  1  0  0  0  0
 42 46  1  1  0  0  0
 43 48  1  1  0  0  0
 41 49  1  1  0  0  0
 40 38  1  6  0  0  0
 33 38  1  6  0  0  0
 30 28  1  1  0  0  0
 21 28  1  1  0  0  0
 51 52  2  0  0  0  0
 51 53  1  0  0  0  0
 50 51  1  0  0  0  0
 15 50  1  1  0  0  0
 54 55  2  0  0  0  0
 54 56  1  0  0  0  0
 13 54  1  6  0  0  0
 16  6  1  6  0  0  0
 17 57  1  6  0  0  0
 23 58  1  6  0  0  0
M  END
>  <cdx:groupId>
166171

>  <cdx:fragmentId>
166070

$$$$
