561376.cdx
  Mrv1902 05222410222D          

 43 46  0  0  0  0            999 V2000
    8.9567   -8.7027    0.0000 C   0  0  0  0  0  0  0  0  0  0  0  0
    8.7018   -9.4873    0.0000 C   0  0  0  0  0  0  0  0  0  0  0  0
    7.8948   -9.6589    0.0000 C   0  0  1  0  0  0  0  0  0  0  0  0
    7.3428   -9.0458    0.0000 C   0  0  0  0  0  0  0  0  0  0  0  0
    3.9974  -11.5234    0.0000 C   0  0  0  0  0  0  0  0  0  0  0  0
    3.2829  -11.9359    0.0000 C   0  0  0  0  0  0  0  0  0  0  0  0
    3.2829  -12.7609    0.0000 C   0  0  1  0  0  0  0  0  0  0  0  0
    3.9974  -13.1734    0.0000 C   0  0  0  0  0  0  0  0  0  0  0  0
    4.7118  -12.7609    0.0000 C   0  0  2  0  0  0  0  0  0  0  0  0
    5.4263  -13.1734    0.0000 C   0  0  0  0  0  0  0  0  0  0  0  0
    6.1408  -12.7609    0.0000 C   0  0  1  0  0  0  0  0  0  0  0  0
    6.1408  -11.9359    0.0000 C   0  0  0  0  0  0  0  0  0  0  0  0
    6.8552  -11.5234    0.0000 C   0  0  2  0  0  0  0  0  0  0  0  0
    7.6399  -11.7784    0.0000 C   0  0  0  0  0  0  0  0  0  0  0  0
    8.1248  -11.1109    0.0000 C   0  0  0  0  0  0  0  0  0  0  0  0
    7.6399  -10.4435    0.0000 C   0  0  1  0  0  0  0  0  0  0  0  0
    6.8552  -10.6984    0.0000 C   0  0  1  0  0  0  0  0  0  0  0  0
    6.1408  -10.2859    0.0000 C   0  0  1  0  0  0  0  0  0  0  0  0
    5.4263  -10.6984    0.0000 C   0  0  0  0  0  0  0  0  0  0  0  0
    5.4263  -11.5234    0.0000 C   0  0  0  0  0  0  0  0  0  0  0  0
    4.7118  -11.9359    0.0000 C   0  0  1  0  0  0  0  0  0  0  0  0
    7.8948  -12.5630    0.0000 O   0  0  0  0  0  0  0  0  0  0  0  0
    4.7118  -10.2859    0.0000 O   0  0  0  0  0  0  0  0  0  0  0  0
    6.8552  -12.3489    0.0000 C   0  0  0  0  0  0  0  0  0  0  0  0
    6.8552   -9.9261    0.0000 C   0  0  0  0  0  0  0  0  0  0  0  0
    4.7118  -11.1109    0.0000 C   0  0  0  0  0  0  0  0  0  0  0  0
    4.4099  -13.8879    0.0000 C   0  0  0  0  0  0  0  0  0  0  0  0
    3.5849  -13.8879    0.0000 C   0  0  0  0  0  0  0  0  0  0  0  0
    6.8552  -13.1734    0.0000 O   0  0  0  0  0  0  0  0  0  0  0  0
    2.5684  -13.1734    0.0000 O   0  0  0  0  0  0  0  0  0  0  0  0
    6.1408   -9.4609    0.0000 O   0  0  0  0  0  0  0  0  0  0  0  0
    5.4263   -9.0484    0.0000 C   0  0  0  0  0  0  0  0  0  0  0  0
    5.4263   -8.2234    0.0000 O   0  0  0  0  0  0  0  0  0  0  0  0
    4.7118   -9.4609    0.0000 C   0  0  0  0  0  0  0  0  0  0  0  0
   12.1424   -5.8343    0.0000 C   0  0  0  0  0  0  0  0  0  0  0  0
    4.7118  -13.5859    0.0000 H   0  0  0  0  0  0  0  0  0  0  0  0
   11.8875   -6.6189    0.0000 C   0  0  0  0  0  0  0  0  0  0  0  0
   11.0805   -6.7904    0.0000 C   0  0  0  0  0  0  0  0  0  0  0  0
   10.8256   -7.5750    0.0000 C   0  0  0  0  0  0  0  0  0  0  0  0
   10.0186   -7.7466    0.0000 O   0  0  0  0  0  0  0  0  0  0  0  0
   10.3157   -9.1443    0.0000 O   0  0  0  0  0  0  0  0  0  0  0  0
    9.7637   -8.5312    0.0000 C   0  0  0  0  0  0  0  0  0  0  0  0
    8.4245  -10.1886    0.0000 H   0  0  0  0  0  0  0  0  0  0  0  0
 40 39  1  0  0  0  0
 37 35  1  0  0  0  0
 38 37  1  0  0  0  0
 39 38  1  0  0  0  0
 42 40  1  0  0  0  0
 42 41  2  0  0  0  0
 42  1  1  0  0  0  0
  1  2  1  0  0  0  0
  2  3  1  0  0  0  0
  3  4  1  6  0  0  0
  5  6  1  0  0  0  0
  6  7  1  0  0  0  0
  7  8  1  0  0  0  0
  8  9  1  0  0  0  0
  9 10  1  0  0  0  0
 10 11  1  0  0  0  0
 11 12  1  0  0  0  0
 12 13  1  0  0  0  0
 13 14  1  0  0  0  0
 14 15  1  0  0  0  0
 16 15  1  0  0  0  0
 16 17  1  0  0  0  0
 13 17  1  0  0  0  0
 17 18  1  0  0  0  0
 18 19  1  0  0  0  0
 19 20  1  0  0  0  0
 12 20  2  0  0  0  0
 20 21  1  0  0  0  0
  9 21  1  0  0  0  0
  5 21  1  0  0  0  0
 14 22  2  0  0  0  0
 19 23  2  0  0  0  0
 13 24  1  6  0  0  0
 17 25  1  1  0  0  0
 21 26  1  1  0  0  0
  8 27  1  0  0  0  0
  8 28  1  0  0  0  0
 11 29  1  1  0  0  0
  7 30  1  1  0  0  0
 32 33  2  0  0  0  0
 32 34  1  0  0  0  0
 31 32  1  0  0  0  0
 18 31  1  1  0  0  0
  3 16  1  0  0  0  0
  9 36  1  6  0  0  0
 16 43  1  6  0  0  0
M  END
>  <cdx:groupId>
203064

>  <cdx:fragmentId>
202952

$$$$
