5613.cdx
  Mrv1902 05222410282D          

 12 13  0  0  0  0            999 V2000
    6.0230   -7.6450    0.0000 C   0  0  0  0  0  0  0  0  0  0  0  0
    6.0230   -8.4700    0.0000 C   0  0  0  0  0  0  0  0  0  0  0  0
    6.7375   -8.8825    0.0000 C   0  0  0  0  0  0  0  0  0  0  0  0
    7.4520   -8.4700    0.0000 C   0  0  0  0  0  0  0  0  0  0  0  0
    7.4520   -7.6450    0.0000 C   0  0  0  0  0  0  0  0  0  0  0  0
    6.7375   -7.2325    0.0000 C   0  0  0  0  0  0  0  0  0  0  0  0
    8.2366   -8.7249    0.0000 C   0  0  0  0  0  0  0  0  0  0  0  0
    8.7215   -8.0575    0.0000 C   0  0  0  0  0  0  0  0  0  0  0  0
    8.2366   -7.3901    0.0000 O   0  0  0  0  0  0  0  0  0  0  0  0
    7.5382   -6.8245    0.0000 O   0  0  0  0  0  0  0  0  0  0  0  0
    7.5382   -9.2905    0.0000 C   0  0  0  0  0  0  0  0  0  0  0  0
    9.5465   -8.0575    0.0000 C   0  0  0  0  0  0  0  0  0  0  0  0
  1  2  1  0  0  0  0
  2  3  1  0  0  0  0
  3  4  1  0  0  0  0
  4  5  1  0  0  0  0
  5  6  1  0  0  0  0
  6  1  1  0  0  0  0
  4  7  1  0  0  0  0
  7  8  1  0  0  0  0
  8  9  1  0  0  0  0
  9  5  1  0  0  0  0
  5 10  1  0  0  0  0
  4 11  1  0  0  0  0
  8 12  1  0  0  0  0
M  END
>  <cdx:fragmentId>
198

$$$$
