561377.cdx
  Mrv1902 05222410222D          

 43 46  0  0  0  0            999 V2000
    9.2867   -8.1802    0.0000 C   0  0  0  0  0  0  0  0  0  0  0  0
    9.0318   -8.9648    0.0000 C   0  0  0  0  0  0  0  0  0  0  0  0
    8.2248   -9.1364    0.0000 C   0  0  1  0  0  0  0  0  0  0  0  0
    7.6728   -8.5233    0.0000 C   0  0  0  0  0  0  0  0  0  0  0  0
    4.3274  -11.0009    0.0000 C   0  0  0  0  0  0  0  0  0  0  0  0
    3.6129  -11.4134    0.0000 C   0  0  0  0  0  0  0  0  0  0  0  0
    3.6129  -12.2384    0.0000 C   0  0  1  0  0  0  0  0  0  0  0  0
    4.3274  -12.6509    0.0000 C   0  0  0  0  0  0  0  0  0  0  0  0
    5.0418  -12.2384    0.0000 C   0  0  2  0  0  0  0  0  0  0  0  0
    5.7563  -12.6509    0.0000 C   0  0  0  0  0  0  0  0  0  0  0  0
    6.4708  -12.2384    0.0000 C   0  0  0  0  0  0  0  0  0  0  0  0
    6.4708  -11.4134    0.0000 C   0  0  0  0  0  0  0  0  0  0  0  0
    7.1852  -11.0009    0.0000 C   0  0  2  0  0  0  0  0  0  0  0  0
    7.9699  -11.2559    0.0000 C   0  0  0  0  0  0  0  0  0  0  0  0
    8.4548  -10.5884    0.0000 C   0  0  0  0  0  0  0  0  0  0  0  0
    7.9699   -9.9210    0.0000 C   0  0  1  0  0  0  0  0  0  0  0  0
    7.1852  -10.1759    0.0000 C   0  0  1  0  0  0  0  0  0  0  0  0
    6.4708   -9.7634    0.0000 C   0  0  1  0  0  0  0  0  0  0  0  0
    5.7563  -10.1759    0.0000 C   0  0  0  0  0  0  0  0  0  0  0  0
    5.7563  -11.0009    0.0000 C   0  0  0  0  0  0  0  0  0  0  0  0
    5.0418  -11.4134    0.0000 C   0  0  1  0  0  0  0  0  0  0  0  0
    8.2248  -12.0405    0.0000 O   0  0  0  0  0  0  0  0  0  0  0  0
    5.0418   -9.7634    0.0000 O   0  0  0  0  0  0  0  0  0  0  0  0
    7.1852  -12.6509    0.0000 O   0  0  0  0  0  0  0  0  0  0  0  0
    7.2715  -11.8214    0.0000 C   0  0  0  0  0  0  0  0  0  0  0  0
    7.1852   -9.3761    0.0000 C   0  0  0  0  0  0  0  0  0  0  0  0
    5.0418  -10.5884    0.0000 C   0  0  0  0  0  0  0  0  0  0  0  0
    4.7399  -13.3654    0.0000 C   0  0  0  0  0  0  0  0  0  0  0  0
    3.9149  -13.3654    0.0000 C   0  0  0  0  0  0  0  0  0  0  0  0
    2.8984  -12.6509    0.0000 O   0  0  0  0  0  0  0  0  0  0  0  0
    6.4708   -8.9384    0.0000 O   0  0  0  0  0  0  0  0  0  0  0  0
    5.7563   -8.5259    0.0000 C   0  0  0  0  0  0  0  0  0  0  0  0
    5.7563   -7.7009    0.0000 O   0  0  0  0  0  0  0  0  0  0  0  0
    5.0418   -8.9384    0.0000 C   0  0  0  0  0  0  0  0  0  0  0  0
   12.4724   -5.3118    0.0000 C   0  0  0  0  0  0  0  0  0  0  0  0
    5.0418  -13.0634    0.0000 H   0  0  0  0  0  0  0  0  0  0  0  0
   12.2175   -6.0964    0.0000 C   0  0  0  0  0  0  0  0  0  0  0  0
   11.4105   -6.2679    0.0000 C   0  0  0  0  0  0  0  0  0  0  0  0
   11.1556   -7.0525    0.0000 C   0  0  0  0  0  0  0  0  0  0  0  0
   10.3486   -7.2241    0.0000 O   0  0  0  0  0  0  0  0  0  0  0  0
   10.6457   -8.6218    0.0000 O   0  0  0  0  0  0  0  0  0  0  0  0
   10.0937   -8.0087    0.0000 C   0  0  0  0  0  0  0  0  0  0  0  0
    8.7545   -9.6661    0.0000 H   0  0  0  0  0  0  0  0  0  0  0  0
 40 39  1  0  0  0  0
 37 35  1  0  0  0  0
 38 37  1  0  0  0  0
 39 38  1  0  0  0  0
 42 40  1  0  0  0  0
 42 41  2  0  0  0  0
 42  1  1  0  0  0  0
  1  2  1  0  0  0  0
  2  3  1  0  0  0  0
  3  4  1  6  0  0  0
  5  6  1  0  0  0  0
  6  7  1  0  0  0  0
  7  8  1  0  0  0  0
  8  9  1  0  0  0  0
  9 10  1  0  0  0  0
 10 11  1  0  0  0  0
 11 12  1  0  0  0  0
 12 13  1  0  0  0  0
 13 14  1  0  0  0  0
 14 15  1  0  0  0  0
 16 15  1  0  0  0  0
 16 17  1  0  0  0  0
 13 17  1  0  0  0  0
 17 18  1  0  0  0  0
 18 19  1  0  0  0  0
 19 20  1  0  0  0  0
 12 20  2  0  0  0  0
 20 21  1  0  0  0  0
  9 21  1  0  0  0  0
  5 21  1  0  0  0  0
 14 22  2  0  0  0  0
 19 23  2  0  0  0  0
 11 24  2  0  0  0  0
 13 25  1  6  0  0  0
 17 26  1  1  0  0  0
 21 27  1  1  0  0  0
  8 28  1  0  0  0  0
  8 29  1  0  0  0  0
  7 30  1  1  0  0  0
 32 33  2  0  0  0  0
 32 34  1  0  0  0  0
 31 32  1  0  0  0  0
 18 31  1  1  0  0  0
  3 16  1  0  0  0  0
  9 36  1  6  0  0  0
 16 43  1  6  0  0  0
M  END
>  <cdx:groupId>
203202

>  <cdx:fragmentId>
203090

$$$$
