5614.cdx
  Mrv1902 05222410262D          

  8  8  0  0  0  0            999 V2000
    8.0406   -8.0335    0.0000 C   0  0  0  0  0  0  0  0  0  0  0  0
    7.7570   -7.2588    0.0000 C   0  0  0  0  0  0  0  0  0  0  0  0
    6.9325   -7.2892    0.0000 C   0  0  0  0  0  0  0  0  0  0  0  0
    6.7067   -8.0827    0.0000 C   0  0  0  0  0  0  0  0  0  0  0  0
    7.3915   -8.5427    0.0000 O   0  0  0  0  0  0  0  0  0  0  0  0
    5.9320   -8.3664    0.0000 C   0  0  0  0  0  0  0  0  0  0  0  0
    8.8341   -8.2594    0.0000 C   0  0  0  0  0  0  0  0  0  0  0  0
    9.4265   -7.6851    0.0000 O   0  0  0  0  0  0  0  0  0  0  0  0
  1  2  2  0  0  0  0
  2  3  1  0  0  0  0
  3  4  2  0  0  0  0
  4  5  1  0  0  0  0
  5  1  1  0  0  0  0
  4  6  1  0  0  0  0
  1  7  1  0  0  0  0
  7  8  2  0  0  0  0
M  END
>  <cdx:fragmentId>
253

$$$$
