5615.cdx
  Mrv1902 05222410272D          

 34 37  0  0  0  0            999 V2000
    3.7405   -9.1025    0.0000 C   0  0  0  0  0  0  0  0  0  0  0  0
    3.7405   -9.9275    0.0000 C   0  0  1  0  0  0  0  0  0  0  0  0
    4.4550  -10.3400    0.0000 C   0  0  0  0  0  0  0  0  0  0  0  0
    5.1695   -9.9275    0.0000 C   0  0  1  0  0  0  0  0  0  0  0  0
    5.1695   -9.1025    0.0000 C   0  0  2  0  0  0  0  0  0  0  0  0
    4.4550   -8.6900    0.0000 C   0  0  0  0  0  0  0  0  0  0  0  0
    5.8839  -10.3400    0.0000 C   0  0  0  0  0  0  0  0  0  0  0  0
    6.5984   -9.9275    0.0000 C   0  0  0  0  0  0  0  0  0  0  0  0
    6.5984   -9.1025    0.0000 C   0  0  2  0  0  0  0  0  0  0  0  0
    5.8839   -8.6900    0.0000 C   0  0  2  0  0  0  0  0  0  0  0  0
    7.3129   -8.6900    0.0000 C   0  0  1  0  0  0  0  0  0  0  0  0
    7.3129   -7.8650    0.0000 C   0  0  2  0  0  0  0  0  0  0  0  0
    6.5984   -7.4525    0.0000 C   0  0  0  0  0  0  0  0  0  0  0  0
    5.8839   -7.8650    0.0000 C   0  0  0  0  0  0  0  0  0  0  0  0
    8.0975   -8.9449    0.0000 C   0  0  0  0  0  0  0  0  0  0  0  0
    8.5824   -8.2775    0.0000 C   0  0  0  0  0  0  0  0  0  0  0  0
    8.0975   -7.6101    0.0000 C   0  0  2  0  0  0  0  0  0  0  0  0
    8.3524   -6.8254    0.0000 C   0  0  2  0  0  0  0  0  0  0  0  0
    7.8004   -6.2123    0.0000 C   0  0  0  0  0  0  0  0  0  0  0  0
    9.1594   -6.6539    0.0000 C   0  0  0  0  0  0  0  0  0  0  0  0
    9.4144   -5.8693    0.0000 C   0  0  0  0  0  0  0  0  0  0  0  0
   10.2213   -5.6978    0.0000 C   0  0  0  0  0  0  0  0  0  0  0  0
   10.4763   -4.9131    0.0000 C   0  0  0  0  0  0  0  0  0  0  0  0
    9.9242   -4.3000    0.0000 C   0  0  0  0  0  0  0  0  0  0  0  0
   11.2832   -4.7416    0.0000 C   0  0  0  0  0  0  0  0  0  0  0  0
    7.3129   -7.0400    0.0000 C   0  0  0  0  0  0  0  0  0  0  0  0
    7.3129   -9.5150    0.0000 H   0  0  0  0  0  0  0  0  0  0  0  0
    8.8821   -7.3551    0.0000 H   0  0  0  0  0  0  0  0  0  0  0  0
    6.5984   -8.2775    0.0000 H   0  0  0  0  0  0  0  0  0  0  0  0
    3.0261  -10.3400    0.0000 O   0  0  0  0  0  0  0  0  0  0  0  0
    3.0261   -8.6900    0.0000 C   0  0  0  0  0  0  0  0  0  0  0  0
    5.1695   -8.2775    0.0000 C   0  0  0  0  0  0  0  0  0  0  0  0
    5.1695  -10.7525    0.0000 H   0  0  0  0  0  0  0  0  0  0  0  0
    5.8839   -9.5150    0.0000 H   0  0  0  0  0  0  0  0  0  0  0  0
  1  2  1  0  0  0  0
  2  3  1  0  0  0  0
  3  4  1  0  0  0  0
  4  5  1  0  0  0  0
  5  6  1  0  0  0  0
  6  1  1  0  0  0  0
  4  7  1  0  0  0  0
  7  8  1  0  0  0  0
  8  9  1  0  0  0  0
  9 10  1  0  0  0  0
 10  5  1  0  0  0  0
  9 11  1  0  0  0  0
 11 12  1  0  0  0  0
 12 13  1  0  0  0  0
 13 14  1  0  0  0  0
 14 10  1  0  0  0  0
 11 15  1  0  0  0  0
 15 16  1  0  0  0  0
 16 17  1  0  0  0  0
 17 12  1  0  0  0  0
 17 18  1  0  0  0  0
 18 19  1  6  0  0  0
 18 20  1  0  0  0  0
 20 21  1  0  0  0  0
 21 22  1  0  0  0  0
 22 23  1  0  0  0  0
 23 24  1  0  0  0  0
 23 25  1  0  0  0  0
 12 26  1  1  0  0  0
 11 27  1  6  0  0  0
 17 28  1  6  0  0  0
  9 29  1  1  0  0  0
  2 30  1  1  0  0  0
  1 31  2  0  0  0  0
  5 32  1  1  0  0  0
  4 33  1  6  0  0  0
 10 34  1  6  0  0  0
M  END
>  <cdx:fragmentId>
287

$$$$
