561505.cdx
  Mrv1902 05222410202D          

 43 46  0  0  0  0            999 V2000
    8.5824   -7.9877    0.0000 C   0  0  0  0  0  0  0  0  0  0  0  0
    8.3275   -8.7723    0.0000 C   0  0  0  0  0  0  0  0  0  0  0  0
    7.5205   -8.9439    0.0000 C   0  0  1  0  0  0  0  0  0  0  0  0
    6.9685   -8.3308    0.0000 C   0  0  0  0  0  0  0  0  0  0  0  0
    3.6231  -10.8084    0.0000 C   0  0  0  0  0  0  0  0  0  0  0  0
    2.9086  -11.2209    0.0000 C   0  0  0  0  0  0  0  0  0  0  0  0
    2.9086  -12.0459    0.0000 C   0  0  0  0  0  0  0  0  0  0  0  0
    3.6231  -12.4584    0.0000 C   0  0  0  0  0  0  0  0  0  0  0  0
    4.3375  -12.0459    0.0000 C   0  0  2  0  0  0  0  0  0  0  0  0
    5.0520  -12.4584    0.0000 C   0  0  0  0  0  0  0  0  0  0  0  0
    5.7665  -12.0459    0.0000 C   0  0  0  0  0  0  0  0  0  0  0  0
    5.7665  -11.2209    0.0000 C   0  0  0  0  0  0  0  0  0  0  0  0
    6.4809  -10.8084    0.0000 C   0  0  2  0  0  0  0  0  0  0  0  0
    7.2656  -11.0634    0.0000 C   0  0  0  0  0  0  0  0  0  0  0  0
    7.7505  -10.3959    0.0000 C   0  0  0  0  0  0  0  0  0  0  0  0
    7.2656   -9.7285    0.0000 C   0  0  1  0  0  0  0  0  0  0  0  0
    6.4809   -9.9834    0.0000 C   0  0  1  0  0  0  0  0  0  0  0  0
    5.7665   -9.5709    0.0000 C   0  0  1  0  0  0  0  0  0  0  0  0
    5.0520   -9.9834    0.0000 C   0  0  0  0  0  0  0  0  0  0  0  0
    5.0520  -10.8084    0.0000 C   0  0  0  0  0  0  0  0  0  0  0  0
    4.3375  -11.2209    0.0000 C   0  0  1  0  0  0  0  0  0  0  0  0
    7.5205  -11.8480    0.0000 O   0  0  0  0  0  0  0  0  0  0  0  0
    4.3375   -9.5709    0.0000 O   0  0  0  0  0  0  0  0  0  0  0  0
    6.4809  -12.4584    0.0000 O   0  0  0  0  0  0  0  0  0  0  0  0
    2.1941  -12.4584    0.0000 O   0  0  0  0  0  0  0  0  0  0  0  0
    6.4809  -11.6325    0.0000 C   0  0  0  0  0  0  0  0  0  0  0  0
    6.4809   -9.1562    0.0000 C   0  0  0  0  0  0  0  0  0  0  0  0
    4.3375  -10.3959    0.0000 C   0  0  0  0  0  0  0  0  0  0  0  0
    4.0356  -13.1729    0.0000 C   0  0  0  0  0  0  0  0  0  0  0  0
    3.2106  -13.1729    0.0000 C   0  0  0  0  0  0  0  0  0  0  0  0
    5.7665   -8.7459    0.0000 O   0  0  0  0  0  0  0  0  0  0  0  0
    5.0520   -8.3334    0.0000 C   0  0  0  0  0  0  0  0  0  0  0  0
    5.0520   -7.5084    0.0000 O   0  0  0  0  0  0  0  0  0  0  0  0
    4.3375   -8.7459    0.0000 C   0  0  0  0  0  0  0  0  0  0  0  0
   11.7681   -5.1193    0.0000 C   0  0  0  0  0  0  0  0  0  0  0  0
    4.3375  -12.8709    0.0000 H   0  0  0  0  0  0  0  0  0  0  0  0
   11.5132   -5.9039    0.0000 C   0  0  0  0  0  0  0  0  0  0  0  0
   10.7062   -6.0754    0.0000 C   0  0  0  0  0  0  0  0  0  0  0  0
   10.4513   -6.8600    0.0000 C   0  0  0  0  0  0  0  0  0  0  0  0
    9.6443   -7.0316    0.0000 O   0  0  0  0  0  0  0  0  0  0  0  0
    9.9414   -8.4293    0.0000 O   0  0  0  0  0  0  0  0  0  0  0  0
    9.3894   -7.8162    0.0000 C   0  0  0  0  0  0  0  0  0  0  0  0
    8.0502   -9.4736    0.0000 H   0  0  0  0  0  0  0  0  0  0  0  0
 40 39  1  0  0  0  0
 37 35  1  0  0  0  0
 38 37  1  0  0  0  0
 39 38  1  0  0  0  0
 42 40  1  0  0  0  0
 42 41  2  0  0  0  0
 42  1  1  0  0  0  0
  1  2  1  0  0  0  0
  2  3  1  0  0  0  0
  3  4  1  6  0  0  0
  5  6  1  0  0  0  0
  6  7  1  0  0  0  0
  7  8  1  0  0  0  0
  8  9  1  0  0  0  0
  9 10  1  0  0  0  0
 10 11  1  0  0  0  0
 11 12  1  0  0  0  0
 12 13  1  0  0  0  0
 13 14  1  0  0  0  0
 14 15  1  0  0  0  0
 16 15  1  0  0  0  0
 16 17  1  0  0  0  0
 13 17  1  0  0  0  0
 17 18  1  0  0  0  0
 18 19  1  0  0  0  0
 19 20  1  0  0  0  0
 12 20  2  0  0  0  0
 20 21  1  0  0  0  0
  9 21  1  0  0  0  0
  5 21  1  0  0  0  0
 14 22  2  0  0  0  0
 19 23  2  0  0  0  0
 11 24  2  0  0  0  0
  7 25  2  0  0  0  0
 13 26  1  6  0  0  0
 17 27  1  1  0  0  0
 21 28  1  1  0  0  0
  8 29  1  0  0  0  0
  8 30  1  0  0  0  0
 32 33  2  0  0  0  0
 32 34  1  0  0  0  0
 31 32  1  0  0  0  0
 18 31  1  1  0  0  0
  3 16  1  0  0  0  0
  9 36  1  6  0  0  0
 16 43  1  6  0  0  0
M  END
>  <cdx:groupId>
203340

>  <cdx:fragmentId>
203228

$$$$
