561666.cdx
  Mrv1902 05222410202D          

 12 11  0  0  0  0            999 V2000
    9.6097   -5.6593    0.0000 C   0  0  0  0  0  0  0  0  0  0  0  0
    9.6097   -6.4843    0.0000 C   0  0  0  0  0  0  0  0  0  0  0  0
    8.8952   -6.8968    0.0000 C   0  0  0  0  0  0  0  0  0  0  0  0
    8.1807   -6.4843    0.0000 C   0  0  0  0  0  0  0  0  0  0  0  0
    7.4663   -6.8968    0.0000 C   0  0  0  0  0  0  0  0  0  0  0  0
    6.7518   -6.4843    0.0000 C   0  0  0  0  0  0  0  0  0  0  0  0
    6.0373   -6.8968    0.0000 C   0  0  0  0  0  0  0  0  0  0  0  0
    5.3228   -6.4843    0.0000 C   0  0  0  0  0  0  0  0  0  0  0  0
    4.6084   -6.8968    0.0000 C   0  0  0  0  0  0  0  0  0  0  0  0
    6.0373   -7.7218    0.0000 C   0  0  0  0  0  0  0  0  0  0  0  0
    7.4663   -7.7218    0.0000 C   0  0  0  0  0  0  0  0  0  0  0  0
   10.3241   -6.8968    0.0000 C   0  0  0  0  0  0  0  0  0  0  0  0
  1  2  2  0  0  0  0
  2  3  1  0  0  0  0
  3  4  1  0  0  0  0
  4  5  1  0  0  0  0
  5  6  1  0  0  0  0
  6  7  1  0  0  0  0
  7  8  1  0  0  0  0
  8  9  2  0  0  0  0
  7 10  2  0  0  0  0
  5 11  2  0  0  0  0
  2 12  1  0  0  0  0
M  END
>  <cdx:fragmentId>
529

$$$$
