56162.cdx
  Mrv1902 05222410222D          

 34 39  0  0  0  0            999 V2000
    4.5100   -8.0025    0.0000 H   0  0  0  0  0  0  0  0  0  0  0  0
   12.4918   -6.0668    0.0000 O   0  0  0  0  0  0  0  0  0  0  0  0
   10.3506   -6.4906    0.0000 C   0  0  0  0  0  0  0  0  0  0  0  0
   11.0629   -6.0743    0.0000 C   0  0  0  0  0  0  0  0  0  0  0  0
   11.7795   -6.4831    0.0000 C   0  0  0  0  0  0  0  0  0  0  0  0
   11.7839   -7.3081    0.0000 C   0  0  0  0  0  0  0  0  0  0  0  0
   11.0716   -7.7243    0.0000 C   0  0  0  0  0  0  0  0  0  0  0  0
   10.3550   -7.3156    0.0000 C   0  0  0  0  0  0  0  0  0  0  0  0
    9.5717   -7.5746    0.0000 C   0  0  0  0  0  0  0  0  0  0  0  0
    9.0833   -6.9098    0.0000 C   0  0  0  0  0  0  0  0  0  0  0  0
    9.5647   -6.2398    0.0000 O   0  0  0  0  0  0  0  0  0  0  0  0
    1.2851   -7.6657    0.0000 O   0  0  0  0  0  0  0  0  0  0  0  0
    4.7910   -5.4225    0.0000 C   0  0  0  0  0  0  0  0  0  0  0  0
    4.0975   -5.2800    0.0000 C   0  0  0  0  0  0  0  0  0  0  0  0
    5.3075   -7.3975    0.0000 C   0  0  0  0  0  0  0  0  0  0  0  0
    5.7833   -6.9271    0.0000 C   0  0  0  0  0  0  0  0  0  0  0  0
    5.3818   -6.2301    0.0000 C   0  0  0  0  0  0  0  0  0  0  0  0
    4.6200   -6.1875    0.0000 C   0  0  2  0  0  0  0  0  0  0  0  0
    3.5475   -6.2975    0.0000 O   0  0  0  0  0  0  0  0  0  0  0  0
    3.3438   -6.9403    0.0000 C   0  0  0  0  0  0  0  0  0  0  0  0
    2.5188   -6.9447    0.0000 C   0  0  0  0  0  0  0  0  0  0  0  0
    2.1100   -7.6613    0.0000 C   0  0  0  0  0  0  0  0  0  0  0  0
    2.5263   -8.3736    0.0000 C   0  0  0  0  0  0  0  0  0  0  0  0
    3.3513   -8.3693    0.0000 C   0  0  0  0  0  0  0  0  0  0  0  0
    3.7600   -7.6526    0.0000 C   0  0  0  0  0  0  0  0  0  0  0  0
    4.5100   -7.1775    0.0000 C   0  0  2  0  0  0  0  0  0  0  0  0
    6.6158   -8.3517    0.0000 O   0  0  0  0  0  0  0  0  0  0  0  0
    6.6008   -5.4939    0.0000 O   0  0  0  0  0  0  0  0  0  0  0  0
    7.8420   -6.2018    0.0000 C   0  0  0  0  0  0  0  0  0  0  0  0
    8.2583   -6.9141    0.0000 C   0  0  0  0  0  0  0  0  0  0  0  0
    7.8496   -7.6307    0.0000 C   0  0  0  0  0  0  0  0  0  0  0  0
    7.0246   -7.6351    0.0000 C   0  0  0  0  0  0  0  0  0  0  0  0
    6.6083   -6.9228    0.0000 C   0  0  0  0  0  0  0  0  0  0  0  0
    7.0170   -6.2062    0.0000 C   0  0  0  0  0  0  0  0  0  0  0  0
 26  1  1  1  0  0  0
 30 10  1  0  0  0  0
  5  2  1  0  0  0  0
 11  3  1  0  0  0  0
  8  3  2  0  0  0  0
  4  3  1  0  0  0  0
  5  4  2  0  0  0  0
  6  5  1  0  0  0  0
  7  6  2  0  0  0  0
  8  7  1  0  0  0  0
  9  8  1  0  0  0  0
 10  9  2  0  0  0  0
 11 10  1  0  0  0  0
 33 16  1  0  0  0  0
 22 12  1  0  0  0  0
 18 13  1  6  0  0  0
 25 20  2  0  0  0  0
 18 14  1  0  0  0  0
 26 14  1  0  0  0  0
 26 15  1  0  0  0  0
 16 15  1  0  0  0  0
 17 16  2  0  0  0  0
 18 17  1  0  0  0  0
 19 18  1  0  0  0  0
 20 19  1  0  0  0  0
 21 20  1  0  0  0  0
 22 21  2  0  0  0  0
 23 22  1  0  0  0  0
 24 23  2  0  0  0  0
 25 24  1  0  0  0  0
 26 25  1  0  0  0  0
 32 27  1  0  0  0  0
 34 28  1  0  0  0  0
 34 29  2  0  0  0  0
 30 29  1  0  0  0  0
 31 30  2  0  0  0  0
 32 31  1  0  0  0  0
 33 32  2  0  0  0  0
 34 33  1  0  0  0  0
M  END
>  <cdx:fragmentId>
126203

$$$$
