5617.cdx
  Mrv1902 05222410262D          

 34 38  0  0  0  0            999 V2000
    4.8405   -9.2400    0.0000 C   0  0  0  0  0  0  0  0  0  0  0  0
    4.8405  -10.0650    0.0000 C   0  0  0  0  0  0  0  0  0  0  0  0
    5.5550  -10.4775    0.0000 C   0  0  0  0  0  0  0  0  0  0  0  0
    6.2695  -10.0650    0.0000 C   0  0  0  0  0  0  0  0  0  0  0  0
    6.2695   -9.2400    0.0000 C   0  0  0  0  0  0  0  0  0  0  0  0
    5.5550   -8.8275    0.0000 C   0  0  0  0  0  0  0  0  0  0  0  0
    6.9839  -10.4775    0.0000 C   0  0  0  0  0  0  0  0  0  0  0  0
    7.6984  -10.0650    0.0000 C   0  0  0  0  0  0  0  0  0  0  0  0
    7.6984   -9.2400    0.0000 C   0  0  0  0  0  0  0  0  0  0  0  0
    6.9839   -8.8275    0.0000 C   0  0  0  0  0  0  0  0  0  0  0  0
    8.4129   -8.8275    0.0000 C   0  0  0  0  0  0  0  0  0  0  0  0
    8.4129   -8.0025    0.0000 C   0  0  0  0  0  0  0  0  0  0  0  0
    7.6984   -7.5900    0.0000 C   0  0  0  0  0  0  0  0  0  0  0  0
    6.9839   -8.0025    0.0000 C   0  0  0  0  0  0  0  0  0  0  0  0
    9.1975   -9.0824    0.0000 C   0  0  0  0  0  0  0  0  0  0  0  0
    9.6824   -8.4150    0.0000 C   0  0  0  0  0  0  0  0  0  0  0  0
    9.1975   -7.7476    0.0000 C   0  0  0  0  0  0  0  0  0  0  0  0
    9.4524   -6.9629    0.0000 C   0  0  0  0  0  0  0  0  0  0  0  0
    8.9004   -6.3498    0.0000 C   0  0  0  0  0  0  0  0  0  0  0  0
   10.2594   -6.7914    0.0000 C   0  0  0  0  0  0  0  0  0  0  0  0
   10.5144   -6.0068    0.0000 C   0  0  0  0  0  0  0  0  0  0  0  0
   11.3213   -5.8353    0.0000 C   0  0  0  0  0  0  0  0  0  0  0  0
   11.5763   -5.0506    0.0000 C   0  0  0  0  0  0  0  0  0  0  0  0
   11.0242   -4.4375    0.0000 C   0  0  0  0  0  0  0  0  0  0  0  0
   12.3832   -4.8791    0.0000 C   0  0  0  0  0  0  0  0  0  0  0  0
    4.1261  -10.4775    0.0000 O   0  0  0  0  0  0  0  0  0  0  0  0
    3.4116  -10.0650    0.0000 C   0  0  0  0  0  0  0  0  0  0  0  0
    2.6971  -10.4775    0.0000 C   0  0  0  0  0  0  0  0  0  0  0  0
    3.4116   -9.2400    0.0000 O   0  0  0  0  0  0  0  0  0  0  0  0
    5.5550  -11.3025    0.0000 C   0  0  0  0  0  0  0  0  0  0  0  0
    6.2695   -8.4150    0.0000 C   0  0  0  0  0  0  0  0  0  0  0  0
    8.4991   -7.1820    0.0000 C   0  0  0  0  0  0  0  0  0  0  0  0
    8.4991   -9.6480    0.0000 C   0  0  0  0  0  0  0  0  0  0  0  0
   11.8734   -6.4484    0.0000 C   0  0  0  0  0  0  0  0  0  0  0  0
  1  2  1  0  0  0  0
  2  3  1  0  0  0  0
  3  4  1  0  0  0  0
  4  5  1  0  0  0  0
  5  6  1  0  0  0  0
  6  1  1  0  0  0  0
  4  7  1  0  0  0  0
  7  8  1  0  0  0  0
  8  9  1  0  0  0  0
  9 10  1  0  0  0  0
 10  5  1  0  0  0  0
  9 11  1  0  0  0  0
 11 12  1  0  0  0  0
 12 13  1  0  0  0  0
 13 14  1  0  0  0  0
 14 10  1  0  0  0  0
 11 15  1  0  0  0  0
 15 16  1  0  0  0  0
 16 17  1  0  0  0  0
 17 12  1  0  0  0  0
 17 18  1  0  0  0  0
 18 19  1  0  0  0  0
 18 20  1  0  0  0  0
 20 21  1  0  0  0  0
 21 22  1  0  0  0  0
 22 23  1  0  0  0  0
 23 24  1  0  0  0  0
 23 25  1  0  0  0  0
  2 26  1  0  0  0  0
 26 27  1  0  0  0  0
 27 28  1  0  0  0  0
 27 29  2  0  0  0  0
  3 30  1  0  0  0  0
  5 31  1  0  0  0  0
 31 10  1  0  0  0  0
 12 32  1  0  0  0  0
 11 33  1  0  0  0  0
 22 34  2  0  0  0  0
M  END
>  <cdx:fragmentId>
287

$$$$
