5618.cdx
  Mrv1902 05222410192D          

 25 24  0  0  0  0            999 V2000
    5.0325   -5.9125    0.0000 C   0  0  0  0  0  0  0  0  0  0  0  0
    5.7470   -5.5000    0.0000 O   0  0  0  0  0  0  0  0  0  0  0  0
    6.4614   -5.9125    0.0000 C   0  0  0  0  0  0  0  0  0  0  0  0
    7.1759   -5.5000    0.0000 C   0  0  0  0  0  0  0  0  0  0  0  0
    6.4614   -6.7375    0.0000 O   0  0  0  0  0  0  0  0  0  0  0  0
    7.8904   -5.9125    0.0000 C   0  0  0  0  0  0  0  0  0  0  0  0
    8.6049   -5.5000    0.0000 C   0  0  0  0  0  0  0  0  0  0  0  0
    9.3193   -5.9125    0.0000 C   0  0  0  0  0  0  0  0  0  0  0  0
    9.3193   -6.7375    0.0000 C   0  0  0  0  0  0  0  0  0  0  0  0
   10.0338   -7.1500    0.0000 C   0  0  0  0  0  0  0  0  0  0  0  0
   10.0338   -7.9750    0.0000 C   0  0  0  0  0  0  0  0  0  0  0  0
    9.3193   -8.3875    0.0000 C   0  0  0  0  0  0  0  0  0  0  0  0
    9.3193   -9.2125    0.0000 C   0  0  0  0  0  0  0  0  0  0  0  0
    8.6049   -9.6250    0.0000 C   0  0  0  0  0  0  0  0  0  0  0  0
    7.8904   -9.2125    0.0000 C   0  0  0  0  0  0  0  0  0  0  0  0
    7.1759   -9.6250    0.0000 C   0  0  0  0  0  0  0  0  0  0  0  0
    6.4614   -9.2125    0.0000 C   0  0  0  0  0  0  0  0  0  0  0  0
    6.4614   -8.3875    0.0000 C   0  0  0  0  0  0  0  0  0  0  0  0
    5.7470   -7.9750    0.0000 C   0  0  0  0  0  0  0  0  0  0  0  0
    5.0325   -8.3875    0.0000 C   0  0  0  0  0  0  0  0  0  0  0  0
    5.0325   -9.2125    0.0000 C   0  0  0  0  0  0  0  0  0  0  0  0
    4.3180   -9.6250    0.0000 C   0  0  0  0  0  0  0  0  0  0  0  0
    4.3180  -10.4500    0.0000 C   0  0  0  0  0  0  0  0  0  0  0  0
    5.0325  -10.8625    0.0000 C   0  0  0  0  0  0  0  0  0  0  0  0
    5.0325  -11.6875    0.0000 C   0  0  0  0  0  0  0  0  0  0  0  0
  1  2  1  0  0  0  0
  2  3  1  0  0  0  0
  3  4  1  0  0  0  0
  3  5  2  0  0  0  0
  4  6  1  0  0  0  0
  6  7  1  0  0  0  0
  7  8  2  0  0  0  0
  8  9  1  0  0  0  0
  9 10  1  0  0  0  0
 10 11  2  0  0  0  0
 11 12  1  0  0  0  0
 12 13  1  0  0  0  0
 13 14  2  0  0  0  0
 14 15  1  0  0  0  0
 15 16  1  0  0  0  0
 16 17  2  0  0  0  0
 17 18  1  0  0  0  0
 18 19  1  0  0  0  0
 19 20  2  0  0  0  0
 20 21  1  0  0  0  0
 21 22  1  0  0  0  0
 22 23  2  0  0  0  0
 23 24  1  0  0  0  0
 24 25  1  0  0  0  0
M  END
>  <cdx:fragmentId>
473

$$$$
