5619.cdx
  Mrv1902 05222410192D          

 23 26  0  0  0  0            999 V2000
    4.5655   -8.1950    0.0000 C   0  0  0  0  0  0  0  0  0  0  0  0
    4.5655   -9.0200    0.0000 C   0  0  0  0  0  0  0  0  0  0  0  0
    5.2800   -9.4325    0.0000 C   0  0  0  0  0  0  0  0  0  0  0  0
    5.9945   -9.0200    0.0000 C   0  0  0  0  0  0  0  0  0  0  0  0
    5.9945   -8.1950    0.0000 C   0  0  2  0  0  0  0  0  0  0  0  0
    5.2800   -7.7825    0.0000 C   0  0  0  0  0  0  0  0  0  0  0  0
    6.7089   -9.4325    0.0000 C   0  0  0  0  0  0  0  0  0  0  0  0
    7.4234   -9.0200    0.0000 C   0  0  0  0  0  0  0  0  0  0  0  0
    7.4234   -8.1950    0.0000 C   0  0  0  0  0  0  0  0  0  0  0  0
    6.7089   -7.7825    0.0000 C   0  0  0  0  0  0  0  0  0  0  0  0
    8.1379   -7.7825    0.0000 C   0  0  0  0  0  0  0  0  0  0  0  0
    8.1379   -6.9575    0.0000 C   0  0  2  0  0  0  0  0  0  0  0  0
    7.4234   -6.5450    0.0000 C   0  0  0  0  0  0  0  0  0  0  0  0
    6.7089   -6.9575    0.0000 C   0  0  0  0  0  0  0  0  0  0  0  0
    8.9225   -8.0374    0.0000 C   0  0  0  0  0  0  0  0  0  0  0  0
    9.4074   -7.3700    0.0000 C   0  0  0  0  0  0  0  0  0  0  0  0
    8.9225   -6.7026    0.0000 C   0  0  2  0  0  0  0  0  0  0  0  0
    3.8511   -9.4325    0.0000 O   0  0  0  0  0  0  0  0  0  0  0  0
    5.9945   -7.3700    0.0000 C   0  0  0  0  0  0  0  0  0  0  0  0
    8.1379   -6.1325    0.0000 C   0  0  0  0  0  0  0  0  0  0  0  0
    9.1774   -5.9179    0.0000 C   0  0  0  0  0  0  0  0  0  0  0  0
    9.7194   -6.4890    0.0000 O   0  0  0  0  0  0  0  0  0  0  0  0
    9.4324   -5.1333    0.0000 N   0  0  0  0  0  0  0  0  0  0  0  0
  1  2  1  0  0  0  0
  2  3  1  0  0  0  0
  3  4  2  0  0  0  0
  4  5  1  0  0  0  0
  5  6  1  0  0  0  0
  6  1  1  0  0  0  0
  4  7  1  0  0  0  0
  7  8  1  0  0  0  0
  8  9  1  0  0  0  0
  9 10  1  0  0  0  0
 10  5  1  0  0  0  0
  9 11  1  0  0  0  0
 11 12  1  0  0  0  0
 12 13  1  0  0  0  0
 13 14  1  0  0  0  0
 14 10  1  0  0  0  0
 11 15  1  0  0  0  0
 15 16  1  0  0  0  0
 16 17  1  0  0  0  0
 17 12  1  0  0  0  0
  2 18  2  0  0  0  0
  5 19  1  1  0  0  0
 12 20  1  1  0  0  0
 17 21  1  0  0  0  0
 17 22  1  6  0  0  0
 21 23  3  0  0  0  0
M  END
>  <cdx:fragmentId>
568

$$$$
