561999.cdx
  Mrv1902 05222410232D          

 36 39  0  0  0  0            999 V2000
   10.9671   -5.9521    0.0000 C   0  0  0  0  0  0  0  0  0  0  0  0
   10.7342   -5.1606    0.0000 C   0  0  0  0  0  0  0  0  0  0  0  0
    9.9324   -4.9666    0.0000 C   0  0  0  0  0  0  0  0  0  0  0  0
    9.3634   -5.5640    0.0000 C   0  0  0  0  0  0  0  0  0  0  0  0
    8.5615   -5.3700    0.0000 C   0  0  0  0  0  0  0  0  0  0  0  0
    7.9926   -5.9674    0.0000 C   0  0  1  0  0  0  0  0  0  0  0  0
    8.2666   -6.7456    0.0000 C   0  0  0  0  0  0  0  0  0  0  0  0
   10.3982   -6.5495    0.0000 O   0  0  0  0  0  0  0  0  0  0  0  0
   11.7690   -6.1461    0.0000 O   0  0  0  0  0  0  0  0  0  0  0  0
   11.3032   -4.5632    0.0000 C   0  0  0  0  0  0  0  0  0  0  0  0
    5.1738   -7.2421    0.0000 C   0  0  2  0  0  0  0  0  0  0  0  0
    5.8981   -7.6370    0.0000 C   0  0  0  0  0  0  0  0  0  0  0  0
    6.6023   -7.2072    0.0000 C   0  0  0  0  0  0  0  0  0  0  0  0
    6.5822   -6.3825    0.0000 C   0  0  2  0  0  0  0  0  0  0  0  0
    7.1817   -5.8157    0.0000 C   0  0  2  0  0  0  0  0  0  0  0  0
    6.8278   -5.0704    0.0000 C   0  0  0  0  0  0  0  0  0  0  0  0
    6.0097   -5.1766    0.0000 C   0  0  0  0  0  0  0  0  0  0  0  0
    5.8579   -5.9875    0.0000 C   0  0  1  0  0  0  0  0  0  0  0  0
    5.1537   -6.4173    0.0000 C   0  0  2  0  0  0  0  0  0  0  0  0
    4.4294   -6.0224    0.0000 C   0  0  0  0  0  0  0  0  0  0  0  0
    3.7252   -6.4522    0.0000 C   0  0  0  0  0  0  0  0  0  0  0  0
    3.7453   -7.2769    0.0000 C   0  0  2  0  0  0  0  0  0  0  0  0
    4.4696   -7.6719    0.0000 C   0  0  1  0  0  0  0  0  0  0  0  0
    5.1940   -8.0668    0.0000 C   0  0  0  0  0  0  0  0  0  0  0  0
    3.0612   -8.5315    0.0000 C   0  0  0  0  0  0  0  0  0  0  0  0
    3.0411   -7.7068    0.0000 C   0  0  0  0  0  0  0  0  0  0  0  0
    2.3168   -7.3118    0.0000 C   0  0  0  0  0  0  0  0  0  0  0  0
    5.8780   -6.8123    0.0000 C   0  0  0  0  0  0  0  0  0  0  0  0
    7.3439   -6.6995    0.0000 C   0  0  0  0  0  0  0  0  0  0  0  0
    4.0747   -8.3962    0.0000 C   0  0  0  0  0  0  0  0  0  0  0  0
    4.5045   -9.1004    0.0000 C   0  0  0  0  0  0  0  0  0  0  0  0
    4.1095   -9.8247    0.0000 C   0  0  0  0  0  0  0  0  0  0  0  0
    4.5393  -10.5289    0.0000 O   0  0  0  0  0  0  0  0  0  0  0  0
    3.2848   -9.8449    0.0000 O   0  0  0  0  0  0  0  0  0  0  0  0
    5.1336   -5.5926    0.0000 H   0  0  0  0  0  0  0  0  0  0  0  0
    7.5766   -5.0913    0.0000 H   0  0  0  0  0  0  0  0  0  0  0  0
  1  2  1  0  0  0  0
  2  3  2  0  0  0  0
  3  4  1  0  0  0  0
  4  5  1  0  0  0  0
  5  6  1  0  0  0  0
  6  7  1  1  0  0  0
  1  8  2  0  0  0  0
  1  9  1  0  0  0  0
  2 10  1  0  0  0  0
 11 12  1  0  0  0  0
 12 13  1  0  0  0  0
 13 14  1  0  0  0  0
 14 15  1  0  0  0  0
 15 16  1  0  0  0  0
 16 17  1  0  0  0  0
 17 18  1  0  0  0  0
 18 19  1  0  0  0  0
 19 20  1  0  0  0  0
 20 21  1  0  0  0  0
 21 22  1  0  0  0  0
 22 23  1  0  0  0  0
 23 24  1  0  0  0  0
 11 24  1  6  0  0  0
 11 19  1  0  0  0  0
 11 23  1  0  0  0  0
 14 18  1  0  0  0  0
 25 26  2  0  0  0  0
 26 27  1  0  0  0  0
 22 26  1  6  0  0  0
 18 28  1  1  0  0  0
 14 29  1  6  0  0  0
 30 31  1  0  0  0  0
 32 33  2  0  0  0  0
 32 34  1  0  0  0  0
 31 32  1  0  0  0  0
 23 30  1  1  0  0  0
  6 15  1  0  0  0  0
 19 35  1  6  0  0  0
 15 36  1  1  0  0  0
M  END
>  <cdx:fragmentId>
69541

$$$$
