562404.cdx
  Mrv1902 05222410262D          

 50 56  0  0  0  0            999 V2000
    7.7838   -9.9843    0.0000 C   0  0  0  0  0  0  0  0  0  0  0  0
    8.4983   -9.5718    0.0000 C   0  0  0  0  0  0  0  0  0  0  0  0
    9.2127   -9.9843    0.0000 C   0  0  0  0  0  0  0  0  0  0  0  0
    9.9272   -9.5718    0.0000 C   0  0  0  0  0  0  0  0  0  0  0  0
    7.7838  -10.8093    0.0000 O   0  0  0  0  0  0  0  0  0  0  0  0
    7.0693   -9.5718    0.0000 O   0  0  0  0  0  0  0  0  0  0  0  0
    8.4983   -8.7468    0.0000 C   0  0  0  0  0  0  0  0  0  0  0  0
    7.0204   -6.9813    0.0000 C   0  0  1  0  0  0  0  0  0  0  0  0
    7.7349   -6.5688    0.0000 C   0  0  1  0  0  0  0  0  0  0  0  0
    7.7349   -5.7438    0.0000 C   0  0  0  0  0  0  0  0  0  0  0  0
    8.4494   -5.3313    0.0000 C   0  0  0  0  0  0  0  0  0  0  0  0
    9.1639   -5.7438    0.0000 C   0  0  1  0  0  0  0  0  0  0  0  0
    9.9485   -5.4889    0.0000 C   0  0  1  0  0  0  0  0  0  0  0  0
   10.4334   -6.1563    0.0000 C   0  0  0  0  0  0  0  0  0  0  0  0
    9.9485   -6.8238    0.0000 C   0  0  2  0  0  0  0  0  0  0  0  0
    9.1639   -6.5688    0.0000 C   0  0  1  0  0  0  0  0  0  0  0  0
    8.4494   -6.9813    0.0000 C   0  0  2  0  0  0  0  0  0  0  0  0
    8.4494   -7.8063    0.0000 C   0  0  1  0  0  0  0  0  0  0  0  0
    7.7349   -8.2188    0.0000 C   0  0  0  0  0  0  0  0  0  0  0  0
    7.0204   -7.8063    0.0000 C   0  0  1  0  0  0  0  0  0  0  0  0
    6.3060   -8.2188    0.0000 C   0  0  1  0  0  0  0  0  0  0  0  0
    7.0693   -8.7468    0.0000 C   0  0  1  0  0  0  0  0  0  0  0  0
    7.8854   -8.3047    0.0000 O   0  0  0  0  0  0  0  0  0  0  0  0
    7.8602   -7.3769    0.0000 C   0  0  0  0  0  0  0  0  0  0  0  0
    6.3060   -6.5688    0.0000 C   0  0  2  0  0  0  0  0  0  0  0  0
    5.5915   -6.9813    0.0000 C   0  0  2  0  0  0  0  0  0  0  0  0
    5.5915   -7.8063    0.0000 C   0  0  1  0  0  0  0  0  0  0  0  0
    9.1639   -7.3938    0.0000 O   0  0  0  0  0  0  0  0  0  0  0  0
    7.0204   -5.3313    0.0000 O   0  0  0  0  0  0  0  0  0  0  0  0
    5.8935   -8.9333    0.0000 C   0  0  0  0  0  0  0  0  0  0  0  0
    8.4494   -6.1563    0.0000 C   0  0  0  0  0  0  0  0  0  0  0  0
    9.2501   -4.9233    0.0000 C   0  0  0  0  0  0  0  0  0  0  0  0
    6.3060   -5.7438    0.0000 O   0  0  0  0  0  0  0  0  0  0  0  0
   10.2034   -7.6084    0.0000 O   0  0  0  0  0  0  0  0  0  0  0  0
   10.9880   -3.6243    0.0000 O   0  0  0  0  0  0  0  0  0  0  0  0
   10.9880   -4.4493    0.0000 C   0  0  0  0  0  0  0  0  0  0  0  0
   10.2034   -4.7043    0.0000 C   0  0  0  0  0  0  0  0  0  0  0  0
    9.7185   -4.0368    0.0000 C   0  0  0  0  0  0  0  0  0  0  0  0
   10.2034   -3.3694    0.0000 C   0  0  0  0  0  0  0  0  0  0  0  0
    4.8770   -8.2188    0.0000 O   0  0  0  0  0  0  0  0  0  0  0  0
    4.8770   -9.0438    0.0000 C   0  0  0  0  0  0  0  0  0  0  0  0
    5.5915   -9.4563    0.0000 O   0  0  0  0  0  0  0  0  0  0  0  0
    4.1626   -9.4563    0.0000 C   0  0  0  0  0  0  0  0  0  0  0  0
    4.8770   -6.5688    0.0000 O   0  0  0  0  0  0  0  0  0  0  0  0
    4.1626   -6.9813    0.0000 C   0  0  0  0  0  0  0  0  0  0  0  0
    4.1626   -7.8063    0.0000 O   0  0  0  0  0  0  0  0  0  0  0  0
    3.4481   -6.5688    0.0000 C   0  0  0  0  0  0  0  0  0  0  0  0
    7.0204   -6.1563    0.0000 H   0  0  0  0  0  0  0  0  0  0  0  0
    8.8619   -8.5208    0.0000 H   0  0  0  0  0  0  0  0  0  0  0  0
    6.3060   -7.3938    0.0000 H   0  0  0  0  0  0  0  0  0  0  0  0
  1  2  1  0  0  0  0
  2  3  1  0  0  0  0
  3  4  1  0  0  0  0
  1  5  2  0  0  0  0
  1  6  1  0  0  0  0
  2  7  1  0  0  0  0
  8  9  1  0  0  0  0
  9 10  1  0  0  0  0
 10 11  1  0  0  0  0
 11 12  1  0  0  0  0
 12 13  1  0  0  0  0
 13 14  1  0  0  0  0
 14 15  1  0  0  0  0
 15 16  1  0  0  0  0
 16 17  1  0  0  0  0
 17 18  1  0  0  0  0
 18 19  1  0  0  0  0
 19 20  1  0  0  0  0
 20 21  1  0  0  0  0
 21 22  1  0  0  0  0
 22 23  1  0  0  0  0
 23 24  1  0  0  0  0
 25 26  1  0  0  0  0
 26 27  1  0  0  0  0
  8 24  1  1  0  0  0
  8 25  1  0  0  0  0
 27 21  1  0  0  0  0
  8 20  1  0  0  0  0
 18 28  1  0  0  0  0
 16 28  1  6  0  0  0
  9 17  1  0  0  0  0
 12 16  1  0  0  0  0
 10 29  2  0  0  0  0
 21 30  1  6  0  0  0
 17 31  1  1  0  0  0
 12 32  1  6  0  0  0
 25 33  1  6  0  0  0
 15 34  1  1  0  0  0
 35 36  1  0  0  0  0
 36 37  2  0  0  0  0
 37 38  1  0  0  0  0
 38 39  2  0  0  0  0
 35 39  1  0  0  0  0
 13 37  1  6  0  0  0
 41 42  2  0  0  0  0
 41 43  1  0  0  0  0
 40 41  1  0  0  0  0
 27 40  1  6  0  0  0
 45 46  2  0  0  0  0
 45 47  1  0  0  0  0
 44 45  1  0  0  0  0
 26 44  1  6  0  0  0
 22  6  1  1  0  0  0
  9 48  1  6  0  0  0
 18 49  1  1  0  0  0
 20 50  1  6  0  0  0
M  END
>  <cdx:fragmentId>
250042

$$$$
