562403.cdx
  Mrv1902 05222410272D          

 45 50  0  0  0  0            999 V2000
    4.1626   -8.3727    0.0000 C   0  0  0  0  0  0  0  0  0  0  0  0
    3.4481   -8.7852    0.0000 C   0  0  0  0  0  0  0  0  0  0  0  0
    4.1626   -7.5477    0.0000 O   0  0  0  0  0  0  0  0  0  0  0  0
    4.8770   -8.7852    0.0000 O   0  0  0  0  0  0  0  0  0  0  0  0
    7.0204   -7.5477    0.0000 C   0  0  1  0  0  0  0  0  0  0  0  0
    7.7349   -7.1352    0.0000 C   0  0  1  0  0  0  0  0  0  0  0  0
    7.7349   -6.3102    0.0000 C   0  0  0  0  0  0  0  0  0  0  0  0
    8.4494   -5.8977    0.0000 C   0  0  1  0  0  0  0  0  0  0  0  0
    9.1639   -6.3102    0.0000 C   0  0  1  0  0  0  0  0  0  0  0  0
    9.9485   -6.0553    0.0000 C   0  0  1  0  0  0  0  0  0  0  0  0
   10.4334   -6.7227    0.0000 C   0  0  0  0  0  0  0  0  0  0  0  0
    9.9485   -7.3902    0.0000 C   0  0  0  0  0  0  0  0  0  0  0  0
    9.1639   -7.1352    0.0000 C   0  0  1  0  0  0  0  0  0  0  0  0
    8.4494   -7.5477    0.0000 C   0  0  2  0  0  0  0  0  0  0  0  0
    8.4494   -8.3727    0.0000 C   0  0  1  0  0  0  0  0  0  0  0  0
    7.7349   -8.7852    0.0000 C   0  0  0  0  0  0  0  0  0  0  0  0
    7.0204   -8.3727    0.0000 C   0  0  1  0  0  0  0  0  0  0  0  0
    6.3060   -8.7852    0.0000 C   0  0  2  0  0  0  0  0  0  0  0  0
    7.0693   -9.3132    0.0000 C   0  0  2  0  0  0  0  0  0  0  0  0
    7.8854   -8.8711    0.0000 O   0  0  0  0  0  0  0  0  0  0  0  0
    7.8602   -7.9434    0.0000 C   0  0  0  0  0  0  0  0  0  0  0  0
    6.3060   -7.1352    0.0000 C   0  0  2  0  0  0  0  0  0  0  0  0
    5.5915   -7.5477    0.0000 C   0  0  0  0  0  0  0  0  0  0  0  0
    5.5915   -8.3727    0.0000 C   0  0  1  0  0  0  0  0  0  0  0  0
   10.2034   -8.1748    0.0000 O   0  0  0  0  0  0  0  0  0  0  0  0
    7.0204   -5.8977    0.0000 O   0  0  0  0  0  0  0  0  0  0  0  0
    5.8935   -9.4997    0.0000 C   0  0  0  0  0  0  0  0  0  0  0  0
    8.4494   -6.7227    0.0000 C   0  0  0  0  0  0  0  0  0  0  0  0
    9.2501   -5.4898    0.0000 C   0  0  0  0  0  0  0  0  0  0  0  0
    7.0693  -10.1382    0.0000 O   0  0  0  0  0  0  0  0  0  0  0  0
    6.3548  -10.5507    0.0000 C   0  0  0  0  0  0  0  0  0  0  0  0
    6.3060   -6.3102    0.0000 O   0  0  0  0  0  0  0  0  0  0  0  0
    9.1639   -8.7852    0.0000 O   0  0  0  0  0  0  0  0  0  0  0  0
   10.9880   -4.1908    0.0000 O   0  0  0  0  0  0  0  0  0  0  0  0
   10.9880   -5.0158    0.0000 C   0  0  0  0  0  0  0  0  0  0  0  0
   10.2034   -5.2707    0.0000 C   0  0  0  0  0  0  0  0  0  0  0  0
    9.7185   -4.6033    0.0000 C   0  0  0  0  0  0  0  0  0  0  0  0
   10.2034   -3.9358    0.0000 C   0  0  0  0  0  0  0  0  0  0  0  0
    8.4494   -5.0727    0.0000 O   0  0  0  0  0  0  0  0  0  0  0  0
    7.7349   -4.6602    0.0000 C   0  0  0  0  0  0  0  0  0  0  0  0
    7.7349   -3.8352    0.0000 O   0  0  0  0  0  0  0  0  0  0  0  0
    7.0204   -5.0727    0.0000 C   0  0  0  0  0  0  0  0  0  0  0  0
    7.0204   -6.7227    0.0000 H   0  0  0  0  0  0  0  0  0  0  0  0
    9.1639   -7.9602    0.0000 H   0  0  0  0  0  0  0  0  0  0  0  0
    6.3060   -7.9602    0.0000 H   0  0  0  0  0  0  0  0  0  0  0  0
  1  2  1  0  0  0  0
  1  3  2  0  0  0  0
  1  4  1  0  0  0  0
  5  6  1  0  0  0  0
  6  7  1  0  0  0  0
  7  8  1  0  0  0  0
  8  9  1  0  0  0  0
  9 10  1  0  0  0  0
 10 11  1  0  0  0  0
 11 12  1  0  0  0  0
 12 13  1  0  0  0  0
 13 14  1  0  0  0  0
 14 15  1  0  0  0  0
 15 16  1  0  0  0  0
 16 17  1  0  0  0  0
 17 18  1  0  0  0  0
 18 19  1  0  0  0  0
 19 20  1  0  0  0  0
 20 21  1  0  0  0  0
 22 23  1  0  0  0  0
 23 24  1  0  0  0  0
  5 21  1  1  0  0  0
  5 22  1  0  0  0  0
 24 18  1  0  0  0  0
  5 17  1  0  0  0  0
  6 14  1  0  0  0  0
  9 13  1  0  0  0  0
 12 25  2  0  0  0  0
  7 26  2  0  0  0  0
 18 27  1  1  0  0  0
 14 28  1  1  0  0  0
  9 29  1  6  0  0  0
 30 31  1  0  0  0  0
 19 30  1  6  0  0  0
 22 32  1  6  0  0  0
 15 33  1  6  0  0  0
 34 35  1  0  0  0  0
 35 36  2  0  0  0  0
 36 37  1  0  0  0  0
 37 38  2  0  0  0  0
 34 38  1  0  0  0  0
 10 36  1  6  0  0  0
 40 41  2  0  0  0  0
 40 42  1  0  0  0  0
 39 40  1  0  0  0  0
  8 39  1  6  0  0  0
 24  4  1  6  0  0  0
  6 43  1  6  0  0  0
 13 44  1  6  0  0  0
 17 45  1  6  0  0  0
M  END
>  <cdx:fragmentId>
249886

$$$$
