562401.cdx
  Mrv1902 05222410282D          

 40 45  0  0  0  0            999 V2000
    4.1626   -8.4251    0.0000 C   0  0  0  0  0  0  0  0  0  0  0  0
    3.4481   -8.8376    0.0000 C   0  0  0  0  0  0  0  0  0  0  0  0
    4.1626   -7.6001    0.0000 O   0  0  0  0  0  0  0  0  0  0  0  0
    4.8770   -8.8376    0.0000 O   0  0  0  0  0  0  0  0  0  0  0  0
    7.0204   -7.6001    0.0000 C   0  0  2  0  0  0  0  0  0  0  0  0
    7.7349   -7.1876    0.0000 C   0  0  0  0  0  0  0  0  0  0  0  0
    7.7349   -6.3626    0.0000 C   0  0  0  0  0  0  0  0  0  0  0  0
    8.4494   -5.9501    0.0000 C   0  0  0  0  0  0  0  0  0  0  0  0
    9.1639   -6.3626    0.0000 C   0  0  1  0  0  0  0  0  0  0  0  0
    9.9485   -6.1076    0.0000 C   0  0  1  0  0  0  0  0  0  0  0  0
   10.4334   -6.7751    0.0000 C   0  0  0  0  0  0  0  0  0  0  0  0
    9.9485   -7.4425    0.0000 C   0  0  0  0  0  0  0  0  0  0  0  0
    9.1639   -7.1876    0.0000 C   0  0  1  0  0  0  0  0  0  0  0  0
    8.4494   -7.6001    0.0000 C   0  0  2  0  0  0  0  0  0  0  0  0
    8.4494   -8.4251    0.0000 C   0  0  1  0  0  0  0  0  0  0  0  0
    7.7349   -8.8376    0.0000 C   0  0  0  0  0  0  0  0  0  0  0  0
    7.0204   -8.4251    0.0000 C   0  0  1  0  0  0  0  0  0  0  0  0
    6.3060   -8.8376    0.0000 C   0  0  2  0  0  0  0  0  0  0  0  0
    7.0693   -9.3655    0.0000 C   0  0  1  0  0  0  0  0  0  0  0  0
    7.8854   -8.9235    0.0000 O   0  0  0  0  0  0  0  0  0  0  0  0
    7.8602   -7.9957    0.0000 C   0  0  0  0  0  0  0  0  0  0  0  0
    6.3060   -7.1876    0.0000 C   0  0  2  0  0  0  0  0  0  0  0  0
    5.5915   -7.6001    0.0000 C   0  0  0  0  0  0  0  0  0  0  0  0
    5.5915   -8.4251    0.0000 C   0  0  1  0  0  0  0  0  0  0  0  0
   10.2034   -8.2271    0.0000 O   0  0  0  0  0  0  0  0  0  0  0  0
    8.4494   -5.1251    0.0000 O   0  0  0  0  0  0  0  0  0  0  0  0
    5.8935   -9.5520    0.0000 C   0  0  0  0  0  0  0  0  0  0  0  0
    8.4494   -6.7751    0.0000 C   0  0  0  0  0  0  0  0  0  0  0  0
    9.2501   -5.5421    0.0000 C   0  0  0  0  0  0  0  0  0  0  0  0
    6.3060   -6.3626    0.0000 O   0  0  0  0  0  0  0  0  0  0  0  0
    7.0693  -10.1905    0.0000 O   0  0  0  0  0  0  0  0  0  0  0  0
    9.1639   -8.8376    0.0000 O   0  0  0  0  0  0  0  0  0  0  0  0
    7.0204   -5.9501    0.0000 O   0  0  0  0  0  0  0  0  0  0  0  0
   10.9880   -4.2431    0.0000 O   0  0  0  0  0  0  0  0  0  0  0  0
   10.9880   -5.0681    0.0000 C   0  0  0  0  0  0  0  0  0  0  0  0
   10.2034   -5.3230    0.0000 C   0  0  0  0  0  0  0  0  0  0  0  0
    9.7185   -4.6556    0.0000 C   0  0  0  0  0  0  0  0  0  0  0  0
   10.2034   -3.9881    0.0000 C   0  0  0  0  0  0  0  0  0  0  0  0
    9.1639   -8.0126    0.0000 H   0  0  0  0  0  0  0  0  0  0  0  0
    6.3060   -8.0126    0.0000 H   0  0  0  0  0  0  0  0  0  0  0  0
  1  2  1  0  0  0  0
  1  3  2  0  0  0  0
  1  4  1  0  0  0  0
  5  6  1  0  0  0  0
  6  7  2  0  0  0  0
  7  8  1  0  0  0  0
  8  9  1  0  0  0  0
  9 10  1  0  0  0  0
 10 11  1  0  0  0  0
 11 12  1  0  0  0  0
 12 13  1  0  0  0  0
 13 14  1  0  0  0  0
 14 15  1  0  0  0  0
 15 16  1  0  0  0  0
 16 17  1  0  0  0  0
 17 18  1  0  0  0  0
 18 19  1  0  0  0  0
 19 20  1  0  0  0  0
 20 21  1  0  0  0  0
 22 23  1  0  0  0  0
 23 24  1  0  0  0  0
  5 21  1  6  0  0  0
  5 22  1  0  0  0  0
 24 18  1  0  0  0  0
  5 17  1  0  0  0  0
  6 14  1  0  0  0  0
  9 13  1  0  0  0  0
 12 25  2  0  0  0  0
  8 26  2  0  0  0  0
 18 27  1  1  0  0  0
 14 28  1  1  0  0  0
  9 29  1  6  0  0  0
 22 30  1  6  0  0  0
 19 31  1  1  0  0  0
 15 32  1  6  0  0  0
  7 33  1  0  0  0  0
 34 35  1  0  0  0  0
 35 36  2  0  0  0  0
 36 37  1  0  0  0  0
 37 38  2  0  0  0  0
 34 38  1  0  0  0  0
 10 36  1  6  0  0  0
 24  4  1  6  0  0  0
 13 39  1  6  0  0  0
 17 40  1  6  0  0  0
M  END
>  <cdx:fragmentId>
249603

$$$$
