20056242.cdx
  Mrv1902 05222410272D          

 14 15  0  0  0  0            999 V2000
    8.3400  -14.0327    0.0000 C   0  0  0  0  0  0  0  0  0  0  0  0
    9.0544  -14.4452    0.0000 N   0  3  0  0  0  0  0  0  0  0  0  0
    9.0544  -15.2702    0.0000 C   0  0  0  0  0  0  0  0  0  0  0  0
    8.3400  -15.6827    0.0000 C   0  0  0  0  0  0  0  0  0  0  0  0
    7.6255  -15.2702    0.0000 C   0  0  0  0  0  0  0  0  0  0  0  0
    6.9110  -15.6827    0.0000 C   0  0  0  0  0  0  0  0  0  0  0  0
    6.1965  -15.2702    0.0000 C   0  0  0  0  0  0  0  0  0  0  0  0
    6.1965  -14.4452    0.0000 C   0  0  0  0  0  0  0  0  0  0  0  0
    6.9110  -14.0327    0.0000 C   0  0  0  0  0  0  0  0  0  0  0  0
    7.6255  -14.4452    0.0000 C   0  0  0  0  0  0  0  0  0  0  0  0
    5.4821  -14.0327    0.0000 O   0  0  0  0  0  0  0  0  0  0  0  0
    9.7689  -14.0327    0.0000 C   0  0  0  0  0  0  0  0  0  0  0  0
    5.4821  -15.6827    0.0000 O   0  0  0  0  0  0  0  0  0  0  0  0
    4.7676  -15.2702    0.0000 C   0  0  0  0  0  0  0  0  0  0  0  0
  1  2  2  0  0  0  0
  2  3  1  0  0  0  0
  3  4  1  0  0  0  0
  4  5  1  0  0  0  0
  5  6  1  0  0  0  0
  6  7  2  0  0  0  0
  7  8  1  0  0  0  0
  8  9  2  0  0  0  0
  9 10  1  0  0  0  0
  1 10  1  0  0  0  0
  5 10  2  0  0  0  0
  8 11  1  0  0  0  0
  2 12  1  0  0  0  0
 13 14  1  0  0  0  0
  7 13  1  0  0  0  0
M  CHG  1   2   1
M  END
>  <cdx:groupId>
126346

>  <cdx:fragmentId>
126306

$$$$
