562714.cdx
  Mrv1902 05222410252D          

 14 17  0  0  0  0            999 V2000
   14.3418  -13.6755    0.0000 C   0  0  0  0  0  0  0  0  0  0  0  0
   13.6273  -14.0880    0.0000 C   0  0  0  0  0  0  0  0  0  0  0  0
   12.9128  -13.6755    0.0000 C   0  0  0  0  0  0  0  0  0  0  0  0
   12.9128  -12.8505    0.0000 C   0  0  0  0  0  0  0  0  0  0  0  0
   13.6273  -12.4380    0.0000 C   0  0  0  0  0  0  0  0  0  0  0  0
   14.3418  -12.8505    0.0000 C   0  0  0  0  0  0  0  0  0  0  0  0
   15.0563  -13.2630    0.0000 C   0  0  0  0  0  0  0  0  0  0  0  0
   16.5957  -12.8505    0.0000 C   0  0  0  0  0  0  0  0  0  0  0  0
   17.3102  -12.4380    0.0000 C   0  0  0  0  0  0  0  0  0  0  0  0
   18.0247  -12.8505    0.0000 C   0  0  0  0  0  0  0  0  0  0  0  0
   18.0247  -13.6755    0.0000 C   0  0  0  0  0  0  0  0  0  0  0  0
   17.3102  -14.0880    0.0000 C   0  0  0  0  0  0  0  0  0  0  0  0
   16.5957  -13.6755    0.0000 C   0  0  0  0  0  0  0  0  0  0  0  0
   15.8813  -13.2630    0.0000 C   0  0  0  0  0  0  0  0  0  0  0  0
  1  2  1  0  0  0  0
  2  3  1  0  0  0  0
  3  4  1  0  0  0  0
  4  5  1  0  0  0  0
  5  6  1  0  0  0  0
  6  7  1  0  0  0  0
  1  7  1  0  0  0  0
  1  6  1  0  0  0  0
  8  9  1  0  0  0  0
  9 10  1  0  0  0  0
 10 11  1  0  0  0  0
 11 12  1  0  0  0  0
 12 13  1  0  0  0  0
 13 14  1  0  0  0  0
  8 14  1  0  0  0  0
  8 13  1  0  0  0  0
  7 14  2  0  0  0  0
M  END
>  <cdx:groupId>
765

>  <cdx:fragmentId>
737

$$$$
