44563121.cdx
  Mrv1902 05222410262D          

 30 32  0  0  0  0            999 V2000
    5.6423   -6.2558    0.0000 C   0  0  2  0  0  0  0  0  0  0  0  0
    5.6423   -5.4308    0.0000 C   0  0  0  0  0  0  0  0  0  0  0  0
    6.3567   -5.0183    0.0000 C   0  0  0  0  0  0  0  0  0  0  0  0
    7.0712   -5.4308    0.0000 C   0  0  0  0  0  0  0  0  0  0  0  0
    7.7857   -5.0183    0.0000 C   0  0  0  0  0  0  0  0  0  0  0  0
    8.5001   -5.4308    0.0000 C   0  0  0  0  0  0  0  0  0  0  0  0
    8.5001   -6.2558    0.0000 C   0  0  0  0  0  0  0  0  0  0  0  0
    7.7857   -6.6683    0.0000 C   0  0  0  0  0  0  0  0  0  0  0  0
    7.0712   -6.2558    0.0000 C   0  0  0  0  0  0  0  0  0  0  0  0
    6.3567   -6.6683    0.0000 O   0  0  0  0  0  0  0  0  0  0  0  0
    6.3567   -4.1933    0.0000 O   0  0  0  0  0  0  0  0  0  0  0  0
    7.7857   -7.4933    0.0000 C   0  0  0  0  0  0  0  0  0  0  0  0
    8.5001   -7.9058    0.0000 C   0  0  1  0  0  0  0  0  0  0  0  0
    9.2146   -7.4933    0.0000 C   0  0  0  0  0  0  0  0  0  0  0  0
    9.9291   -7.9058    0.0000 C   0  0  0  0  0  0  0  0  0  0  0  0
   10.6436   -7.4933    0.0000 C   0  0  0  0  0  0  0  0  0  0  0  0
   10.6436   -6.6683    0.0000 C   0  0  0  0  0  0  0  0  0  0  0  0
    9.2146   -9.1433    0.0000 C   0  0  0  0  0  0  0  0  0  0  0  0
    8.5001   -8.7308    0.0000 C   0  0  0  0  0  0  0  0  0  0  0  0
    7.7857   -9.1433    0.0000 C   0  0  0  0  0  0  0  0  0  0  0  0
   11.3580   -7.9058    0.0000 C   0  0  0  0  0  0  0  0  0  0  0  0
    4.9278   -6.6683    0.0000 C   0  0  0  0  0  0  0  0  0  0  0  0
    4.9278   -7.4933    0.0000 C   0  0  0  0  0  0  0  0  0  0  0  0
    4.2133   -7.9058    0.0000 C   0  0  0  0  0  0  0  0  0  0  0  0
    3.4988   -7.4933    0.0000 C   0  0  0  0  0  0  0  0  0  0  0  0
    3.4988   -6.6683    0.0000 C   0  0  0  0  0  0  0  0  0  0  0  0
    4.2133   -6.2558    0.0000 C   0  0  0  0  0  0  0  0  0  0  0  0
    5.6423   -7.9058    0.0000 O   0  0  0  0  0  0  0  0  0  0  0  0
    9.2146   -6.6683    0.0000 O   0  0  0  0  0  0  0  0  0  0  0  0
    7.7857   -4.1933    0.0000 O   0  0  0  0  0  0  0  0  0  0  0  0
  1  2  1  0  0  0  0
  2  3  1  0  0  0  0
  3  4  1  0  0  0  0
  4  5  1  0  0  0  0
  5  6  2  0  0  0  0
  6  7  1  0  0  0  0
  7  8  2  0  0  0  0
  8  9  1  0  0  0  0
  4  9  2  0  0  0  0
  9 10  1  0  0  0  0
  1 10  1  0  0  0  0
  3 11  2  0  0  0  0
 12 13  1  0  0  0  0
 13 14  1  0  0  0  0
 14 15  1  0  0  0  0
 15 16  2  0  0  0  0
 16 17  1  0  0  0  0
 18 19  2  0  0  0  0
 19 20  1  0  0  0  0
 13 19  1  1  0  0  0
 16 21  1  0  0  0  0
  8 12  1  0  0  0  0
 22 23  1  0  0  0  0
 23 24  2  0  0  0  0
 24 25  1  0  0  0  0
 25 26  2  0  0  0  0
 26 27  1  0  0  0  0
 22 27  2  0  0  0  0
 23 28  1  0  0  0  0
  1 22  1  6  0  0  0
  7 29  1  0  0  0  0
  5 30  1  0  0  0  0
M  END
>  <cdx:groupId>
94

>  <cdx:fragmentId>
5

$$$$
