44563198.cdx
  Mrv1902 05222410222D          

 33 35  0  0  0  0            999 V2000
   50.1418  -10.2498    0.0000 C   0  0  2  0  0  0  0  0  0  0  0  0
   50.1418   -9.4248    0.0000 C   0  0  0  0  0  0  0  0  0  0  0  0
   50.8563   -9.0123    0.0000 C   0  0  0  0  0  0  0  0  0  0  0  0
   51.5707   -9.4248    0.0000 C   0  0  0  0  0  0  0  0  0  0  0  0
   52.2852   -9.0123    0.0000 C   0  0  0  0  0  0  0  0  0  0  0  0
   52.9997   -9.4248    0.0000 C   0  0  0  0  0  0  0  0  0  0  0  0
   52.9997  -10.2498    0.0000 C   0  0  0  0  0  0  0  0  0  0  0  0
   52.2852  -10.6623    0.0000 C   0  0  0  0  0  0  0  0  0  0  0  0
   51.5707  -10.2498    0.0000 C   0  0  0  0  0  0  0  0  0  0  0  0
   50.8563  -10.6623    0.0000 O   0  0  0  0  0  0  0  0  0  0  0  0
   50.8563   -8.1873    0.0000 O   0  0  0  0  0  0  0  0  0  0  0  0
   52.2852   -8.1873    0.0000 O   0  0  0  0  0  0  0  0  0  0  0  0
   52.9997   -7.7748    0.0000 C   0  0  0  0  0  0  0  0  0  0  0  0
   52.2852  -11.4873    0.0000 C   0  0  0  0  0  0  0  0  0  0  0  0
   52.9997  -11.8998    0.0000 C   0  0  1  0  0  0  0  0  0  0  0  0
   53.7142  -11.4873    0.0000 C   0  0  0  0  0  0  0  0  0  0  0  0
   54.4286  -11.8998    0.0000 C   0  0  0  0  0  0  0  0  0  0  0  0
   55.1431  -11.4873    0.0000 C   0  0  0  0  0  0  0  0  0  0  0  0
   55.1431  -10.6623    0.0000 C   0  0  0  0  0  0  0  0  0  0  0  0
   53.7142  -13.1373    0.0000 C   0  0  0  0  0  0  0  0  0  0  0  0
   52.9997  -12.7248    0.0000 C   0  0  0  0  0  0  0  0  0  0  0  0
   52.2852  -13.1373    0.0000 C   0  0  0  0  0  0  0  0  0  0  0  0
   55.8576  -11.8998    0.0000 C   0  0  0  0  0  0  0  0  0  0  0  0
   55.8576  -11.0748    0.0000 O   0  0  0  0  0  0  0  0  0  0  0  0
   53.7142  -10.6623    0.0000 O   0  0  0  0  0  0  0  0  0  0  0  0
   49.4273  -10.6623    0.0000 C   0  0  0  0  0  0  0  0  0  0  0  0
   49.4273  -11.4873    0.0000 C   0  0  0  0  0  0  0  0  0  0  0  0
   48.7129  -11.8998    0.0000 C   0  0  0  0  0  0  0  0  0  0  0  0
   47.9984  -11.4873    0.0000 C   0  0  0  0  0  0  0  0  0  0  0  0
   47.9984  -10.6623    0.0000 C   0  0  0  0  0  0  0  0  0  0  0  0
   48.7129  -10.2498    0.0000 C   0  0  0  0  0  0  0  0  0  0  0  0
   47.2839  -11.8998    0.0000 O   0  0  0  0  0  0  0  0  0  0  0  0
   50.1418  -11.8998    0.0000 O   0  0  0  0  0  0  0  0  0  0  0  0
  1  2  1  0  0  0  0
  2  3  1  0  0  0  0
  3  4  1  0  0  0  0
  4  5  1  0  0  0  0
  5  6  2  0  0  0  0
  6  7  1  0  0  0  0
  7  8  2  0  0  0  0
  8  9  1  0  0  0  0
  4  9  2  0  0  0  0
  9 10  1  0  0  0  0
  1 10  1  0  0  0  0
  3 11  2  0  0  0  0
 12 13  1  0  0  0  0
  5 12  1  0  0  0  0
 14 15  1  0  0  0  0
 15 16  1  0  0  0  0
 16 17  1  0  0  0  0
 17 18  1  0  0  0  0
 18 19  1  0  0  0  0
 20 21  2  0  0  0  0
 21 22  1  0  0  0  0
 15 21  1  1  0  0  0
 18 23  1  0  0  0  0
 18 24  1  0  0  0  0
  8 14  1  0  0  0  0
  7 25  1  0  0  0  0
 26 27  1  0  0  0  0
 27 28  2  0  0  0  0
 28 29  1  0  0  0  0
 29 30  2  0  0  0  0
 30 31  1  0  0  0  0
 26 31  2  0  0  0  0
 29 32  1  0  0  0  0
 27 33  1  0  0  0  0
  1 26  1  6  0  0  0
M  END
>  <cdx:groupId>
166284

>  <cdx:fragmentId>
166186

$$$$
