44563159.cdx
  Mrv1902 05222410222D          

 32 34  0  0  0  0            999 V2000
    5.9961   -6.2558    0.0000 C   0  0  2  0  0  0  0  0  0  0  0  0
    5.9961   -5.4308    0.0000 C   0  0  0  0  0  0  0  0  0  0  0  0
    6.7105   -5.0183    0.0000 C   0  0  0  0  0  0  0  0  0  0  0  0
    7.4250   -5.4308    0.0000 C   0  0  0  0  0  0  0  0  0  0  0  0
    8.1395   -5.0183    0.0000 C   0  0  0  0  0  0  0  0  0  0  0  0
    8.8539   -5.4308    0.0000 C   0  0  0  0  0  0  0  0  0  0  0  0
    8.8539   -6.2558    0.0000 C   0  0  0  0  0  0  0  0  0  0  0  0
    8.1395   -6.6683    0.0000 C   0  0  0  0  0  0  0  0  0  0  0  0
    7.4250   -6.2558    0.0000 C   0  0  0  0  0  0  0  0  0  0  0  0
    6.7105   -6.6683    0.0000 O   0  0  0  0  0  0  0  0  0  0  0  0
    6.7105   -4.1933    0.0000 O   0  0  0  0  0  0  0  0  0  0  0  0
    8.1395   -7.4933    0.0000 C   0  0  0  0  0  0  0  0  0  0  0  0
    8.8539   -7.9058    0.0000 C   0  0  1  0  0  0  0  0  0  0  0  0
    9.5684   -7.4933    0.0000 C   0  0  0  0  0  0  0  0  0  0  0  0
   10.2829   -7.9058    0.0000 C   0  0  0  0  0  0  0  0  0  0  0  0
   10.9974   -7.4933    0.0000 C   0  0  0  0  0  0  0  0  0  0  0  0
   10.9974   -6.6683    0.0000 C   0  0  0  0  0  0  0  0  0  0  0  0
    9.5684   -9.1433    0.0000 C   0  0  0  0  0  0  0  0  0  0  0  0
    8.8539   -8.7308    0.0000 C   0  0  0  0  0  0  0  0  0  0  0  0
    8.1395   -9.1433    0.0000 C   0  0  0  0  0  0  0  0  0  0  0  0
   11.7118   -7.9058    0.0000 C   0  0  0  0  0  0  0  0  0  0  0  0
   11.7118   -7.0808    0.0000 O   0  0  0  0  0  0  0  0  0  0  0  0
    9.5684   -6.6683    0.0000 O   0  0  0  0  0  0  0  0  0  0  0  0
    8.1395   -4.1933    0.0000 O   0  0  0  0  0  0  0  0  0  0  0  0
    5.2816   -6.6683    0.0000 C   0  0  0  0  0  0  0  0  0  0  0  0
    5.2816   -7.4933    0.0000 C   0  0  0  0  0  0  0  0  0  0  0  0
    4.5671   -7.9058    0.0000 C   0  0  0  0  0  0  0  0  0  0  0  0
    3.8526   -7.4933    0.0000 C   0  0  0  0  0  0  0  0  0  0  0  0
    3.8526   -6.6683    0.0000 C   0  0  0  0  0  0  0  0  0  0  0  0
    4.5671   -6.2558    0.0000 C   0  0  0  0  0  0  0  0  0  0  0  0
    3.1382   -7.9058    0.0000 O   0  0  0  0  0  0  0  0  0  0  0  0
    5.9961   -7.9058    0.0000 O   0  0  0  0  0  0  0  0  0  0  0  0
  1  2  1  0  0  0  0
  2  3  1  0  0  0  0
  3  4  1  0  0  0  0
  4  5  1  0  0  0  0
  5  6  2  0  0  0  0
  6  7  1  0  0  0  0
  7  8  2  0  0  0  0
  8  9  1  0  0  0  0
  4  9  2  0  0  0  0
  9 10  1  0  0  0  0
  1 10  1  0  0  0  0
  3 11  2  0  0  0  0
 12 13  1  0  0  0  0
 13 14  1  0  0  0  0
 14 15  1  0  0  0  0
 15 16  1  0  0  0  0
 16 17  1  0  0  0  0
 18 19  2  0  0  0  0
 19 20  1  0  0  0  0
 13 19  1  1  0  0  0
 16 21  1  0  0  0  0
 16 22  1  0  0  0  0
  8 12  1  0  0  0  0
  7 23  1  0  0  0  0
  5 24  1  0  0  0  0
 25 26  1  0  0  0  0
 26 27  2  0  0  0  0
 27 28  1  0  0  0  0
 28 29  2  0  0  0  0
 29 30  1  0  0  0  0
 25 30  2  0  0  0  0
 28 31  1  0  0  0  0
 26 32  1  0  0  0  0
  1 25  1  6  0  0  0
M  END
>  <cdx:groupId>
100

>  <cdx:fragmentId>
5

$$$$
