563197.cdx
  Mrv1902 05222410242D          

 15 18  0  0  0  0            999 V2000
    6.2950   -4.6051    0.0000 C   0  0  0  0  0  0  0  0  0  0  0  0
    5.5806   -5.0176    0.0000 C   0  0  0  0  0  0  0  0  0  0  0  0
    5.5806   -4.1926    0.0000 C   0  0  0  0  0  0  0  0  0  0  0  0
    7.0095   -4.1926    0.0000 C   0  0  0  0  0  0  0  0  0  0  0  0
    6.2950   -5.4301    0.0000 C   0  0  0  0  0  0  0  0  0  0  0  0
    6.7375   -5.8025    0.0000 C   0  0  0  0  0  0  0  0  0  0  0  0
    7.2875   -5.5275    0.0000 C   0  0  0  0  0  0  0  0  0  0  0  0
    7.4220   -4.9071    0.0000 C   0  0  0  0  0  0  0  0  0  0  0  0
    8.1365   -4.4946    0.0000 C   0  0  0  0  0  0  0  0  0  0  0  0
    6.2950   -3.7801    0.0000 C   0  0  0  0  0  0  0  0  0  0  0  0
    7.7240   -3.7801    0.0000 C   0  0  0  0  0  0  0  0  0  0  0  0
    7.2230   -3.3958    0.0000 C   0  0  0  0  0  0  0  0  0  0  0  0
    7.9375   -2.9833    0.0000 C   0  0  0  0  0  0  0  0  0  0  0  0
    8.9615   -4.4946    0.0000 C   0  0  0  0  0  0  0  0  0  0  0  0
    8.5490   -5.2091    0.0000 C   0  0  0  0  0  0  0  0  0  0  0  0
  1  2  1  0  0  0  0
  1  3  1  0  0  0  0
  1  4  1  0  0  0  0
  1  5  1  0  0  0  0
  5  6  1  0  0  0  0
  6  7  1  0  0  0  0
  4  8  1  0  0  0  0
  8  9  1  0  0  0  0
  8  7  1  0  0  0  0
  4 10  1  0  0  0  0
  9 11  1  0  0  0  0
 11 10  1  0  0  0  0
  4 12  1  0  0  0  0
 12  8  1  0  0  0  0
 11 13  1  0  0  0  0
 12 13  1  0  0  0  0
  9 14  1  0  0  0  0
  9 15  1  0  0  0  0
M  END
>  <cdx:fragmentId>
3

$$$$
