5637.cdx
  Mrv1902 05222410182D          

 10 10  0  0  0  0            999 V2000
    6.1289   -7.8581    0.0000 C   0  0  0  0  0  0  0  0  0  0  0  0
    6.1289   -8.6831    0.0000 C   0  0  0  0  0  0  0  0  0  0  0  0
    6.8434   -9.0956    0.0000 C   0  0  0  0  0  0  0  0  0  0  0  0
    7.5578   -8.6831    0.0000 C   0  0  0  0  0  0  0  0  0  0  0  0
    7.5578   -7.8581    0.0000 C   0  0  0  0  0  0  0  0  0  0  0  0
    6.8434   -7.4456    0.0000 C   0  0  0  0  0  0  0  0  0  0  0  0
    6.8434   -6.6206    0.0000 N   0  0  0  0  0  0  0  0  0  0  0  0
    7.5578   -6.2081    0.0000 C   0  0  0  0  0  0  0  0  0  0  0  0
    8.2723   -5.7956    0.0000 N   0  0  0  0  0  0  0  0  0  0  0  0
    6.8434   -9.9206    0.0000 C   0  0  0  0  0  0  0  0  0  0  0  0
  1  2  2  0  0  0  0
  2  3  1  0  0  0  0
  3  4  2  0  0  0  0
  4  5  1  0  0  0  0
  5  6  2  0  0  0  0
  6  1  1  0  0  0  0
  6  7  1  0  0  0  0
  7  8  1  0  0  0  0
  8  9  3  0  0  0  0
  3 10  1  0  0  0  0
M  END
>  <cdx:fragmentId>
5

$$$$
