563923.cdx
  Mrv1902 05222410182D          

  9  8  0  0  0  0            999 V2000
    4.7731   -5.4980    0.0000 C   0  0  0  0  0  0  0  0  0  0  0  0
    5.4876   -5.9105    0.0000 C   0  0  0  0  0  0  0  0  0  0  0  0
    5.4876   -6.7355    0.0000 C   0  0  0  0  0  0  0  0  0  0  0  0
    6.2020   -7.1480    0.0000 C   0  0  0  0  0  0  0  0  0  0  0  0
    6.9165   -6.7355    0.0000 C   0  0  0  0  0  0  0  0  0  0  0  0
    7.6310   -7.1480    0.0000 C   0  0  0  0  0  0  0  0  0  0  0  0
    8.3455   -6.7355    0.0000 C   0  0  0  0  0  0  0  0  0  0  0  0
    9.0599   -7.1480    0.0000 C   0  0  0  0  0  0  0  0  0  0  0  0
    9.7744   -6.7355    0.0000 C   0  0  0  0  0  0  0  0  0  0  0  0
  1  2  2  0  0  0  0
  2  3  1  0  0  0  0
  3  4  2  0  0  0  0
  4  5  1  0  0  0  0
  5  6  1  0  0  0  0
  6  7  1  0  0  0  0
  7  8  1  0  0  0  0
  8  9  1  0  0  0  0
M  END
>  <cdx:groupId>
42415

>  <cdx:fragmentId>
42392

$$$$
