56407.cdx
  Mrv1902 05222410222D          

 29 31  0  0  0  0            999 V2000
    5.0291   -6.7127    0.0000 C   0  0  0  0  0  0  0  0  0  0  0  0
    5.0313   -7.5377    0.0000 C   0  0  0  0  0  0  0  0  0  0  0  0
    4.3180   -7.9522    0.0000 C   0  0  0  0  0  0  0  0  0  0  0  0
    3.6024   -7.5416    0.0000 C   0  0  0  0  0  0  0  0  0  0  0  0
    2.8890   -7.9560    0.0000 C   0  0  0  0  0  0  0  0  0  0  0  0
    2.1734   -7.5455    0.0000 C   0  0  0  0  0  0  0  0  0  0  0  0
    2.1712   -6.7205    0.0000 C   0  0  0  0  0  0  0  0  0  0  0  0
    2.8846   -6.3060    0.0000 C   0  0  0  0  0  0  0  0  0  0  0  0
    3.6001   -6.7166    0.0000 C   0  0  0  0  0  0  0  0  0  0  0  0
    4.3135   -6.3022    0.0000 O   0  0  0  0  0  0  0  0  0  0  0  0
    4.3202   -8.7771    0.0000 O   0  0  0  0  0  0  0  0  0  0  0  0
    1.4556   -6.3099    0.0000 O   0  0  0  0  0  0  0  0  0  0  0  0
    5.7469   -7.9483    0.0000 C   0  0  0  0  0  0  0  0  0  0  0  0
    6.4603   -7.5338    0.0000 C   0  0  0  0  0  0  0  0  0  0  0  0
    7.1758   -7.9444    0.0000 C   0  0  0  0  0  0  0  0  0  0  0  0
    7.1781   -8.7694    0.0000 C   0  0  0  0  0  0  0  0  0  0  0  0
    6.4647   -9.1838    0.0000 C   0  0  0  0  0  0  0  0  0  0  0  0
    5.7491   -8.7733    0.0000 C   0  0  0  0  0  0  0  0  0  0  0  0
    7.8937   -9.1800    0.0000 O   0  0  0  0  0  0  0  0  0  0  0  0
    7.8892   -7.5300    0.0000 C   0  0  0  0  0  0  0  0  0  0  0  0
    8.6048   -7.9405    0.0000 C   0  0  0  0  0  0  0  0  0  0  0  0
    9.3181   -7.5261    0.0000 C   0  0  0  0  0  0  0  0  0  0  0  0
   10.0337   -7.9367    0.0000 C   0  0  0  0  0  0  0  0  0  0  0  0
   10.7471   -7.5222    0.0000 C   0  0  0  0  0  0  0  0  0  0  0  0
   11.4627   -7.9328    0.0000 C   0  0  0  0  0  0  0  0  0  0  0  0
   12.1760   -7.5184    0.0000 C   0  0  0  0  0  0  0  0  0  0  0  0
   12.1738   -6.6934    0.0000 C   0  0  0  0  0  0  0  0  0  0  0  0
   12.8916   -7.9289    0.0000 C   0  0  0  0  0  0  0  0  0  0  0  0
    9.3159   -6.7011    0.0000 C   0  0  0  0  0  0  0  0  0  0  0  0
  1  2  2  0  0  0  0
  2  3  1  0  0  0  0
  3  4  1  0  0  0  0
  4  5  1  0  0  0  0
  5  6  2  0  0  0  0
  6  7  1  0  0  0  0
  7  8  2  0  0  0  0
  8  9  1  0  0  0  0
  4  9  2  0  0  0  0
  9 10  1  0  0  0  0
  1 10  1  0  0  0  0
  3 11  2  0  0  0  0
  7 12  1  0  0  0  0
 13 14  1  0  0  0  0
 14 15  2  0  0  0  0
 15 16  1  0  0  0  0
 16 17  2  0  0  0  0
 17 18  1  0  0  0  0
 13 18  2  0  0  0  0
 16 19  1  0  0  0  0
 20 21  1  0  0  0  0
 21 22  2  0  0  0  0
 22 23  1  0  0  0  0
 23 24  1  0  0  0  0
 24 25  1  0  0  0  0
 25 26  2  0  0  0  0
 26 27  1  0  0  0  0
 26 28  1  0  0  0  0
 22 29  1  0  0  0  0
 15 20  1  0  0  0  0
  2 13  1  0  0  0  0
M  END
>  <cdx:groupId>
148546

>  <cdx:fragmentId>
148498

$$$$
