5641.cdx
  Mrv1902 05222410202D          

 15 15  0  0  0  0            999 V2000
    5.7393   -7.6313    0.0000 C   0  0  0  0  0  0  0  0  0  0  0  0
    5.7393   -8.4563    0.0000 C   0  0  0  0  0  0  0  0  0  0  0  0
    6.3843   -8.9706    0.0000 C   0  0  0  0  0  0  0  0  0  0  0  0
    7.1886   -8.7870    0.0000 C   0  0  0  0  0  0  0  0  0  0  0  0
    7.5466   -8.0437    0.0000 C   0  0  0  0  0  0  0  0  0  0  0  0
    7.1886   -7.3005    0.0000 C   0  0  0  0  0  0  0  0  0  0  0  0
    6.3843   -7.1169    0.0000 C   0  0  0  0  0  0  0  0  0  0  0  0
    5.0248   -8.8688    0.0000 C   0  0  0  0  0  0  0  0  0  0  0  0
    8.2611   -7.6313    0.0000 C   0  0  0  0  0  0  0  0  0  0  0  0
    8.2611   -8.4563    0.0000 C   0  0  0  0  0  0  0  0  0  0  0  0
    8.9755   -8.0437    0.0000 C   0  0  0  0  0  0  0  0  0  0  0  0
    7.7720   -9.3704    0.0000 C   0  0  0  0  0  0  0  0  0  0  0  0
    7.5585  -10.1673    0.0000 C   0  0  0  0  0  0  0  0  0  0  0  0
    6.7616  -10.3808    0.0000 C   0  0  0  0  0  0  0  0  0  0  0  0
    8.1418  -10.7507    0.0000 C   0  0  0  0  0  0  0  0  0  0  0  0
  1  2  1  0  0  0  0
  2  3  1  0  0  0  0
  3  4  1  0  0  0  0
  4  5  1  0  0  0  0
  5  6  1  0  0  0  0
  6  7  1  0  0  0  0
  7  1  1  0  0  0  0
  2  8  2  0  0  0  0
  5  9  1  0  0  0  0
  5 10  1  0  0  0  0
 10 11  2  0  0  0  0
  4 12  1  0  0  0  0
 12 13  2  0  0  0  0
 13 14  1  0  0  0  0
 13 15  1  0  0  0  0
M  END
>  <cdx:fragmentId>
5

$$$$
