564376.cdx
  Mrv1902 05222410242D          

 12 14  0  0  0  0            999 V2000
    6.8164   -7.5174    0.0000 C   0  0  0  0  0  0  0  0  0  0  0  0
    7.0713   -6.7328    0.0000 C   0  0  0  0  0  0  0  0  0  0  0  0
    6.4039   -6.2479    0.0000 C   0  0  0  0  0  0  0  0  0  0  0  0
    5.7365   -6.7328    0.0000 C   0  0  0  0  0  0  0  0  0  0  0  0
    5.9914   -7.5174    0.0000 C   0  0  0  0  0  0  0  0  0  0  0  0
    6.1988   -7.8754    0.0000 C   0  0  0  0  0  0  0  0  0  0  0  0
    6.6113   -7.8754    0.0000 C   0  0  0  0  0  0  0  0  0  0  0  0
    6.8164   -8.3424    0.0000 C   0  0  0  0  0  0  0  0  0  0  0  0
    5.9914   -8.3424    0.0000 C   0  0  0  0  0  0  0  0  0  0  0  0
    7.8560   -6.4779    0.0000 C   0  0  0  0  0  0  0  0  0  0  0  0
    8.0275   -5.6709    0.0000 O   0  0  0  0  0  0  0  0  0  0  0  0
    8.4691   -7.0299    0.0000 O   0  0  0  0  0  0  0  0  0  0  0  0
  1  2  1  0  0  0  0
  2  3  1  0  0  0  0
  3  4  1  0  0  0  0
  4  5  1  0  0  0  0
  5  6  1  0  0  0  0
  6  7  1  0  0  0  0
  8  9  1  0  0  0  0
  1  7  1  0  0  0  0
  1  8  1  0  0  0  0
  9  5  1  0  0  0  0
  1  5  1  0  0  0  0
 10 11  2  0  0  0  0
 10 12  1  0  0  0  0
  2 10  1  0  0  0  0
M  END
>  <cdx:fragmentId>
825

$$$$
