564463.cdx
  Mrv1902 05222410272D          

 11 11  0  0  0  0            999 V2000
    8.4434   -6.9831    0.0000 C   0  0  0  0  0  0  0  0  0  0  0  0
    9.1579   -6.5706    0.0000 O   0  0  0  0  0  0  0  0  0  0  0  0
    7.7289   -6.5706    0.0000 C   0  0  0  0  0  0  0  0  0  0  0  0
    7.0145   -6.9831    0.0000 C   0  0  0  0  0  0  0  0  0  0  0  0
    6.3000   -6.5706    0.0000 C   0  0  0  0  0  0  0  0  0  0  0  0
    6.3000   -5.7456    0.0000 C   0  0  0  0  0  0  0  0  0  0  0  0
    7.0145   -5.3331    0.0000 C   0  0  0  0  0  0  0  0  0  0  0  0
    7.7289   -5.7456    0.0000 C   0  0  0  0  0  0  0  0  0  0  0  0
    5.5855   -4.5081    0.0000 C   0  0  0  0  0  0  0  0  0  0  0  0
    5.5855   -5.3331    0.0000 C   0  0  0  0  0  0  0  0  0  0  0  0
    4.8710   -5.7456    0.0000 C   0  0  0  0  0  0  0  0  0  0  0  0
  1  2  1  0  0  0  0
  3  4  1  0  0  0  0
  4  5  2  0  0  0  0
  5  6  1  0  0  0  0
  6  7  1  0  0  0  0
  7  8  1  0  0  0  0
  3  8  1  0  0  0  0
  9 10  1  0  0  0  0
 10 11  1  0  0  0  0
  6 10  1  0  0  0  0
  1  3  1  0  0  0  0
M  END
>  <cdx:fragmentId>
896

$$$$
