5646.cdx
  Mrv1902 05222410222D          

 23 25  0  0  0  0            999 V2000
    4.0870   -4.9706    0.0000 C   0  0  0  0  0  0  0  0  0  0  0  0
    4.0870   -5.7956    0.0000 C   0  0  0  0  0  0  0  0  0  0  0  0
    4.8015   -6.2081    0.0000 C   0  0  0  0  0  0  0  0  0  0  0  0
    5.5160   -5.7956    0.0000 C   0  0  0  0  0  0  0  0  0  0  0  0
    5.5160   -4.9706    0.0000 C   0  0  0  0  0  0  0  0  0  0  0  0
    4.8015   -4.5581    0.0000 C   0  0  0  0  0  0  0  0  0  0  0  0
    6.2304   -6.2081    0.0000 C   0  0  0  0  0  0  0  0  0  0  0  0
    6.9449   -5.7956    0.0000 N   0  0  0  0  0  0  0  0  0  0  0  0
    6.9449   -4.9706    0.0000 C   0  0  0  0  0  0  0  0  0  0  0  0
    6.2304   -4.5581    0.0000 C   0  0  0  0  0  0  0  0  0  0  0  0
    9.8028   -8.2706    0.0000 C   0  0  0  0  0  0  0  0  0  0  0  0
    9.0883   -8.6831    0.0000 O   0  0  0  0  0  0  0  0  0  0  0  0
    6.9449   -8.2706    0.0000 C   0  0  0  0  0  0  0  0  0  0  0  0
    7.6594   -8.6831    0.0000 C   0  0  0  0  0  0  0  0  0  0  0  0
    8.3739   -8.2706    0.0000 C   0  0  0  0  0  0  0  0  0  0  0  0
    3.3726   -4.5581    0.0000 O   0  0  0  0  0  0  0  0  0  0  0  0
    3.3726   -6.2081    0.0000 O   0  0  0  0  0  0  0  0  0  0  0  0
    8.3739   -7.4456    0.0000 C   0  0  0  0  0  0  0  0  0  0  0  0
    6.2304   -7.0331    0.0000 C   0  0  0  0  0  0  0  0  0  0  0  0
    6.9449   -7.4456    0.0000 C   0  0  0  0  0  0  0  0  0  0  0  0
    7.6594   -7.0331    0.0000 C   0  0  0  0  0  0  0  0  0  0  0  0
    7.6594   -6.2081    0.0000 C   0  0  0  0  0  0  0  0  0  0  0  0
    2.6581   -4.9706    0.0000 C   0  0  0  0  0  0  0  0  0  0  0  0
  1  2  2  0  0  0  0
  2  3  1  0  0  0  0
  3  4  2  0  0  0  0
  4  5  1  0  0  0  0
  5  6  2  0  0  0  0
  6  1  1  0  0  0  0
  4  7  1  0  0  0  0
  7  8  1  0  0  0  0
  8  9  1  0  0  0  0
  9 10  1  0  0  0  0
 10  5  1  0  0  0  0
 12 11  1  0  0  0  0
 15 12  1  0  0  0  0
 19  7  1  0  0  0  0
 13 20  1  0  0  0  0
 14 13  2  0  0  0  0
 15 14  1  0  0  0  0
 18 15  2  0  0  0  0
 21 18  1  0  0  0  0
  1 16  1  0  0  0  0
  2 17  1  0  0  0  0
 20 19  1  0  0  0  0
 21 20  2  0  0  0  0
  8 22  1  0  0  0  0
 16 23  1  0  0  0  0
M  END
>  <cdx:fragmentId>
5

$$$$
