564727.cdx
  Mrv1902 05222410182D          

 11 12  0  0  0  0            999 V2000
    7.7960   -6.6134    0.0000 C   0  0  0  0  0  0  0  0  0  0  0  0
    7.0815   -7.0259    0.0000 C   0  0  0  0  0  0  0  0  0  0  0  0
    6.3670   -6.6134    0.0000 C   0  0  0  0  0  0  0  0  0  0  0  0
    6.3670   -5.7884    0.0000 C   0  0  0  0  0  0  0  0  0  0  0  0
    7.0815   -5.3759    0.0000 C   0  0  0  0  0  0  0  0  0  0  0  0
    7.7960   -5.7884    0.0000 C   0  0  0  0  0  0  0  0  0  0  0  0
    8.5105   -6.2009    0.0000 C   0  0  0  0  0  0  0  0  0  0  0  0
    7.0815   -7.8509    0.0000 O   0  0  0  0  0  0  0  0  0  0  0  0
    9.2249   -5.7884    0.0000 C   0  0  0  0  0  0  0  0  0  0  0  0
    9.2249   -6.6134    0.0000 C   0  0  0  0  0  0  0  0  0  0  0  0
    5.6526   -5.3759    0.0000 C   0  0  0  0  0  0  0  0  0  0  0  0
  1  2  1  0  0  0  0
  2  3  1  0  0  0  0
  3  4  1  0  0  0  0
  4  5  1  0  0  0  0
  5  6  1  0  0  0  0
  6  7  1  0  0  0  0
  1  7  1  0  0  0  0
  1  6  1  0  0  0  0
  2  8  1  0  0  0  0
  7  9  1  0  0  0  0
  7 10  1  0  0  0  0
  4 11  1  0  0  0  0
M  END
>  <cdx:fragmentId>
929

$$$$
