564731.cdx
  Mrv1902 05222410192D          

 33 36  0  0  0  0            999 V2000
    8.3634   -8.5813    0.0000 C   0  0  0  0  0  0  0  0  0  0  0  0
    9.1703   -8.4093    0.0000 C   0  0  0  0  0  0  0  0  0  0  0  0
    8.1088   -9.3660    0.0000 O   0  0  0  0  0  0  0  0  0  0  0  0
    7.8110   -7.9684    0.0000 O   0  0  0  0  0  0  0  0  0  0  0  0
    9.7226   -9.0221    0.0000 C   0  0  0  0  0  0  0  0  0  0  0  0
   10.5295   -8.8502    0.0000 C   0  0  0  0  0  0  0  0  0  0  0  0
   11.0818   -9.4630    0.0000 C   0  0  0  0  0  0  0  0  0  0  0  0
   10.8273  -10.2478    0.0000 C   0  0  0  0  0  0  0  0  0  0  0  0
   10.0204  -10.4197    0.0000 C   0  0  0  0  0  0  0  0  0  0  0  0
    9.4681   -9.8069    0.0000 C   0  0  0  0  0  0  0  0  0  0  0  0
   11.3796  -10.8606    0.0000 O   0  0  0  0  0  0  0  0  0  0  0  0
    5.4307   -6.6878    0.0000 O   0  0  0  0  0  0  0  0  0  0  0  0
    5.6742   -7.4761    0.0000 C   0  0  1  0  0  0  0  0  0  0  0  0
    6.4991   -7.4880    0.0000 C   0  0  2  0  0  0  0  0  0  0  0  0
    6.7654   -6.7071    0.0000 C   0  0  0  0  0  0  0  0  0  0  0  0
    6.1050   -6.2126    0.0000 C   0  0  0  0  0  0  0  0  0  0  0  0
    4.6083   -9.3333    0.0000 C   0  0  0  0  0  0  0  0  0  0  0  0
    3.9949   -8.7816    0.0000 C   0  0  0  0  0  0  0  0  0  0  0  0
    4.3301   -8.0278    0.0000 C   0  0  0  0  0  0  0  0  0  0  0  0
    5.1506   -8.1136    0.0000 C   0  0  1  0  0  0  0  0  0  0  0  0
    7.0041   -8.1404    0.0000 C   0  0  2  0  0  0  0  0  0  0  0  0
    6.8090   -8.9420    0.0000 C   0  0  0  0  0  0  0  0  0  0  0  0
    6.0606   -9.2891    0.0000 C   0  0  0  0  0  0  0  0  0  0  0  0
    5.3225   -8.9205    0.0000 C   0  0  0  0  0  0  0  0  0  0  0  0
    4.5224  -10.1538    0.0000 O   0  0  0  0  0  0  0  0  0  0  0  0
    6.1170   -5.3877    0.0000 O   0  0  0  0  0  0  0  0  0  0  0  0
    7.5536   -6.4636    0.0000 C   0  0  0  0  0  0  0  0  0  0  0  0
    6.0486  -10.1140    0.0000 C   0  0  0  0  0  0  0  0  0  0  0  0
    3.9172   -7.3135    0.0000 C   0  0  0  0  0  0  0  0  0  0  0  0
    3.0922   -7.3139    0.0000 O   0  0  0  0  0  0  0  0  0  0  0  0
    7.3060   -7.3161    0.0000 H   0  0  0  0  0  0  0  0  0  0  0  0
    4.9786   -7.3067    0.0000 H   0  0  0  0  0  0  0  0  0  0  0  0
    5.8462   -8.2830    0.0000 H   0  0  0  0  0  0  0  0  0  0  0  0
  1  2  1  0  0  0  0
  1  3  2  0  0  0  0
  1  4  1  0  0  0  0
  5  6  1  0  0  0  0
  6  7  2  0  0  0  0
  7  8  1  0  0  0  0
  8  9  2  0  0  0  0
  9 10  1  0  0  0  0
  5 10  2  0  0  0  0
  8 11  1  0  0  0  0
  2  5  1  0  0  0  0
 12 13  1  0  0  0  0
 13 14  1  0  0  0  0
 14 15  1  0  0  0  0
 15 16  1  0  0  0  0
 12 16  1  0  0  0  0
 17 18  1  0  0  0  0
 18 19  2  0  0  0  0
 19 20  1  0  0  0  0
 21 22  1  0  0  0  0
 22 23  1  0  0  0  0
 23 24  2  0  0  0  0
 17 24  1  0  0  0  0
 20 24  1  0  0  0  0
 20 13  1  0  0  0  0
 21 14  1  0  0  0  0
 17 25  2  0  0  0  0
 16 26  2  0  0  0  0
 15 27  2  0  0  0  0
 23 28  1  0  0  0  0
 29 30  1  0  0  0  0
 19 29  1  0  0  0  0
 21  4  1  1  0  0  0
 14 31  1  1  0  0  0
 20 32  1  1  0  0  0
 13 33  1  6  0  0  0
M  END
>  <cdx:fragmentId>
45

$$$$
