564772.cdx
  Mrv1902 05222410242D          

 20 20  0  0  0  0            999 V2000
    4.7965   -7.4614    0.0000 C   0  0  0  0  0  0  0  0  0  0  0  0
    4.0820   -7.8739    0.0000 N   0  0  0  0  0  0  0  0  0  0  0  0
    4.7965   -6.6364    0.0000 O   0  0  0  0  0  0  0  0  0  0  0  0
    5.5109   -7.8739    0.0000 O   0  0  0  0  0  0  0  0  0  0  0  0
    3.3675   -7.4614    0.0000 C   0  0  0  0  0  0  0  0  0  0  0  0
    3.3675   -6.6364    0.0000 C   0  0  0  0  0  0  0  0  0  0  0  0
    2.6530   -6.2239    0.0000 C   0  0  0  0  0  0  0  0  0  0  0  0
    1.9386   -6.6364    0.0000 C   0  0  0  0  0  0  0  0  0  0  0  0
    1.9386   -7.4614    0.0000 C   0  0  0  0  0  0  0  0  0  0  0  0
    2.6530   -7.8739    0.0000 C   0  0  0  0  0  0  0  0  0  0  0  0
    6.2254   -7.4614    0.0000 C   0  0  0  0  0  0  0  0  0  0  0  0
    6.9399   -7.8739    0.0000 C   0  0  0  0  0  0  0  0  0  0  0  0
    7.6543   -7.4614    0.0000 C   0  0  0  0  0  0  0  0  0  0  0  0
    8.3688   -7.8739    0.0000 C   0  0  0  0  0  0  0  0  0  0  0  0
    9.0833   -7.4614    0.0000 C   0  0  0  0  0  0  0  0  0  0  0  0
    9.7977   -7.8739    0.0000 C   0  0  0  0  0  0  0  0  0  0  0  0
   10.5122   -7.4614    0.0000 C   0  0  0  0  0  0  0  0  0  0  0  0
   11.2267   -7.8739    0.0000 C   0  0  0  0  0  0  0  0  0  0  0  0
   11.9412   -7.4614    0.0000 C   0  0  0  0  0  0  0  0  0  0  0  0
   12.6556   -7.8739    0.0000 Br  0  0  0  0  0  0  0  0  0  0  0  0
  1  2  1  0  0  0  0
  1  3  2  0  0  0  0
  1  4  1  0  0  0  0
  5  6  1  0  0  0  0
  6  7  2  0  0  0  0
  7  8  1  0  0  0  0
  8  9  2  0  0  0  0
  9 10  1  0  0  0  0
  5 10  2  0  0  0  0
  2  5  1  0  0  0  0
 11 12  1  0  0  0  0
 12 13  1  0  0  0  0
 13 14  1  0  0  0  0
 14 15  1  0  0  0  0
 15 16  1  0  0  0  0
 16 17  1  0  0  0  0
 17 18  1  0  0  0  0
 18 19  1  0  0  0  0
 19 20  1  0  0  0  0
  4 11  1  0  0  0  0
M  END
>  <cdx:groupId>
1022

>  <cdx:fragmentId>
973

$$$$
