565242.cdx
  Mrv1902 05222410242D          

 12 12  0  0  0  0            999 V2000
    8.9291   -6.2774    0.0000 C   0  0  0  0  0  0  0  0  0  0  0  0
    8.1221   -6.4489    0.0000 C   0  0  0  0  0  0  0  0  0  0  0  0
    8.0359   -7.2694    0.0000 C   0  0  0  0  0  0  0  0  0  0  0  0
    8.7896   -7.6049    0.0000 C   0  0  0  0  0  0  0  0  0  0  0  0
    9.3416   -6.9918    0.0000 C   0  0  0  0  0  0  0  0  0  0  0  0
    9.2647   -5.5237    0.0000 O   0  0  0  0  0  0  0  0  0  0  0  0
    7.3214   -7.6819    0.0000 C   0  0  0  0  0  0  0  0  0  0  0  0
    6.6070   -7.2694    0.0000 C   0  0  0  0  0  0  0  0  0  0  0  0
    5.8925   -7.6819    0.0000 C   0  0  0  0  0  0  0  0  0  0  0  0
    5.8925   -8.5069    0.0000 C   0  0  0  0  0  0  0  0  0  0  0  0
    5.1780   -7.2694    0.0000 C   0  0  0  0  0  0  0  0  0  0  0  0
    7.5090   -5.8969    0.0000 O   0  0  0  0  0  0  0  0  0  0  0  0
  1  2  1  0  0  0  0
  2  3  1  0  0  0  0
  3  4  2  0  0  0  0
  4  5  1  0  0  0  0
  1  5  1  0  0  0  0
  1  6  2  0  0  0  0
  7  8  1  0  0  0  0
  8  9  2  0  0  0  0
  9 10  1  0  0  0  0
  9 11  1  0  0  0  0
  3  7  1  0  0  0  0
  2 12  1  0  0  0  0
M  END
>  <cdx:fragmentId>
1031

$$$$
