565323.cdx
  Mrv1902 05222410242D          

 12 13  0  0  0  0            999 V2000
   15.7229  -12.8406    0.0000 O   0  0  0  0  0  0  0  0  0  0  0  0
   16.4373  -13.2531    0.0000 C   0  0  0  0  0  0  0  0  0  0  0  0
   17.1518  -12.8406    0.0000 O   0  0  0  0  0  0  0  0  0  0  0  0
   16.4373  -14.0781    0.0000 C   0  0  0  0  0  0  0  0  0  0  0  0
   15.7229  -14.4906    0.0000 C   0  0  0  0  0  0  0  0  0  0  0  0
   15.0084  -14.0781    0.0000 C   0  0  0  0  0  0  0  0  0  0  0  0
   14.2939  -14.4906    0.0000 C   0  0  0  0  0  0  0  0  0  0  0  0
   13.5795  -14.0781    0.0000 C   0  0  0  0  0  0  0  0  0  0  0  0
   13.5795  -13.2531    0.0000 C   0  0  0  0  0  0  0  0  0  0  0  0
   14.2939  -12.8406    0.0000 C   0  0  0  0  0  0  0  0  0  0  0  0
   15.0084  -13.2531    0.0000 C   0  0  0  0  0  0  0  0  0  0  0  0
   14.2939  -12.0156    0.0000 C   0  0  0  0  0  0  0  0  0  0  0  0
  1  2  1  0  0  0  0
  2  3  2  0  0  0  0
  2  4  1  0  0  0  0
  4  5  1  0  0  0  0
  5  6  1  0  0  0  0
  6  7  1  0  0  0  0
  7  8  1  0  0  0  0
  8  9  1  0  0  0  0
  9 10  1  0  0  0  0
 10 11  1  0  0  0  0
  1 11  1  0  0  0  0
  6 11  1  0  0  0  0
 10 12  1  0  0  0  0
M  END
>  <cdx:groupId>
1104

>  <cdx:fragmentId>
1070

$$$$
