565405.cdx
  Mrv1902 05222410182D          

 11 12  0  0  0  0            999 V2000
   15.1158  -12.8505    0.0000 C   0  0  0  0  0  0  0  0  0  0  0  0
   15.1158  -13.6755    0.0000 C   0  0  0  0  0  0  0  0  0  0  0  0
   14.4013  -14.0880    0.0000 C   0  0  0  0  0  0  0  0  0  0  0  0
   13.6869  -13.6755    0.0000 C   0  0  0  0  0  0  0  0  0  0  0  0
   13.6869  -12.8505    0.0000 C   0  0  0  0  0  0  0  0  0  0  0  0
   14.4013  -12.4380    0.0000 C   0  0  0  0  0  0  0  0  0  0  0  0
   14.0657  -13.2634    0.0000 C   0  0  0  0  0  0  0  0  0  0  0  0
   15.8303  -12.4380    0.0000 C   0  0  0  0  0  0  0  0  0  0  0  0
   16.5448  -12.8505    0.0000 C   0  0  0  0  0  0  0  0  0  0  0  0
   16.5448  -13.6755    0.0000 C   0  0  0  0  0  0  0  0  0  0  0  0
   17.2592  -12.4380    0.0000 C   0  0  0  0  0  0  0  0  0  0  0  0
  1  2  1  0  0  0  0
  2  3  1  0  0  0  0
  3  4  1  0  0  0  0
  4  5  1  0  0  0  0
  5  6  1  0  0  0  0
  1  6  1  0  0  0  0
  6  7  1  0  0  0  0
  3  7  1  0  0  0  0
  8  9  1  0  0  0  0
  9 10  1  0  0  0  0
 11  9  1  0  0  0  0
  1  8  1  0  0  0  0
M  END
>  <cdx:groupId>
1179

>  <cdx:fragmentId>
1148

$$$$
