565494.cdx
  Mrv1902 05222410252D          

 22 23  0  0  0  0            999 V2000
    5.3960   -9.7296    0.0000 C   0  0  0  0  0  0  0  0  0  0  0  0
    5.4218   -8.9050    0.0000 C   0  0  0  0  0  0  0  0  0  0  0  0
    6.1488   -8.5151    0.0000 C   0  0  0  0  0  0  0  0  0  0  0  0
    6.8500   -8.9498    0.0000 C   0  0  0  0  0  0  0  0  0  0  0  0
    6.8242   -9.7744    0.0000 C   0  0  0  0  0  0  0  0  0  0  0  0
    6.0972  -10.1643    0.0000 C   0  0  0  0  0  0  0  0  0  0  0  0
    4.6689  -10.1195    0.0000 O   0  0  0  0  0  0  0  0  0  0  0  0
    7.5771   -8.5598    0.0000 C   0  0  2  0  0  0  0  0  0  0  0  0
    7.6029   -7.7353    0.0000 O   0  0  0  0  0  0  0  0  0  0  0  0
    9.0053   -8.6046    0.0000 C   0  0  1  0  0  0  0  0  0  0  0  0
    8.6154   -7.8776    0.0000 C   0  0  0  0  0  0  0  0  0  0  0  0
    9.4400   -7.9034    0.0000 C   0  0  0  0  0  0  0  0  0  0  0  0
    9.0501   -7.1764    0.0000 C   0  0  0  0  0  0  0  0  0  0  0  0
    9.6290  -11.5131    0.0000 C   0  0  0  0  0  0  0  0  0  0  0  0
    8.9278  -11.0784    0.0000 C   0  0  0  0  0  0  0  0  0  0  0  0
    8.2008  -11.4683    0.0000 C   0  0  0  0  0  0  0  0  0  0  0  0
    8.9536  -10.2538    0.0000 C   0  0  2  0  0  0  0  0  0  0  0  0
    9.6807   -9.8639    0.0000 C   0  0  0  0  0  0  0  0  0  0  0  0
    9.7065   -9.0393    0.0000 C   0  0  0  0  0  0  0  0  0  0  0  0
    8.2783   -8.9945    0.0000 C   0  0  2  0  0  0  0  0  0  0  0  0
    8.2524   -9.8191    0.0000 O   0  0  0  0  0  0  0  0  0  0  0  0
    7.5638   -9.4070    0.0000 H   0  0  0  0  0  0  0  0  0  0  0  0
 17 15  1  1  0  0  0
 15 14  1  0  0  0  0
 16 15  2  0  0  0  0
 21 17  1  0  0  0  0
 18 17  1  0  0  0  0
 19 18  1  0  0  0  0
 10 19  1  0  0  0  0
 20 10  1  0  0  0  0
 20 21  1  0  0  0  0
  1  2  1  0  0  0  0
  2  3  2  0  0  0  0
  3  4  1  0  0  0  0
  4  5  2  0  0  0  0
  5  6  1  0  0  0  0
  1  6  2  0  0  0  0
  1  7  1  0  0  0  0
  8  9  1  6  0  0  0
 10 11  1  1  0  0  0
 12 13  2  0  0  0  0
 10 12  1  6  0  0  0
  8 20  1  0  0  0  0
  4  8  1  0  0  0  0
 20 22  1  1  0  0  0
M  END
>  <cdx:groupId>
3138

>  <cdx:fragmentId>
3093

$$$$
