565540.cdx
  Mrv1902 05222410282D          

 18 19  0  0  0  0            999 V2000
   14.1000  -12.2250    0.0000 C   0  0  0  0  0  0  0  0  0  0  0  0
   14.9158  -12.1020    0.0000 C   0  0  0  0  0  0  0  0  0  0  0  0
   15.2172  -11.3341    0.0000 C   0  0  0  0  0  0  0  0  0  0  0  0
   13.7986  -12.9930    0.0000 O   0  0  0  0  0  0  0  0  0  0  0  0
   13.5856  -11.5800    0.0000 O   0  0  0  0  0  0  0  0  0  0  0  0
   17.6641  -14.1578    0.0000 C   0  0  0  0  0  0  0  0  0  0  0  0
   18.1490  -13.4904    0.0000 C   0  0  0  0  0  0  0  0  0  0  0  0
   17.6641  -12.8229    0.0000 C   0  0  0  0  0  0  0  0  0  0  0  0
   16.8795  -13.0779    0.0000 C   0  0  0  0  0  0  0  0  0  0  0  0
   16.2345  -12.5635    0.0000 C   0  0  0  0  0  0  0  0  0  0  0  0
   15.4301  -12.7471    0.0000 C   0  0  0  0  0  0  0  0  0  0  0  0
   15.0722  -13.4904    0.0000 C   0  0  0  0  0  0  0  0  0  0  0  0
   15.4301  -14.2337    0.0000 C   0  0  0  0  0  0  0  0  0  0  0  0
   16.2345  -14.4172    0.0000 C   0  0  0  0  0  0  0  0  0  0  0  0
   16.8795  -13.9029    0.0000 C   0  0  0  0  0  0  0  0  0  0  0  0
   16.4180  -15.2216    0.0000 C   0  0  0  0  0  0  0  0  0  0  0  0
   17.9190  -12.0383    0.0000 C   0  0  0  0  0  0  0  0  0  0  0  0
   12.7698  -11.7030    0.0000 C   0  0  0  0  0  0  0  0  0  0  0  0
  1  2  1  0  0  0  0
  2  3  2  0  0  0  0
  1  4  2  0  0  0  0
  1  5  1  0  0  0  0
  6  7  1  0  0  0  0
  7  8  1  0  0  0  0
  8  9  2  0  0  0  0
  9 10  1  0  0  0  0
 10 11  1  0  0  0  0
 11 12  1  0  0  0  0
 12 13  1  0  0  0  0
 13 14  1  0  0  0  0
 14 15  1  0  0  0  0
  6 15  1  0  0  0  0
  9 15  1  0  0  0  0
 14 16  1  0  0  0  0
  8 17  1  0  0  0  0
  2 11  1  0  0  0  0
  5 18  1  0  0  0  0
M  END
>  <cdx:groupId>
1239

>  <cdx:fragmentId>
1197

$$$$
