565584.cdx
  Mrv1902 05222410272D          

 16 18  0  0  0  0            999 V2000
   15.5917  -12.8636    0.0000 C   0  0  0  0  0  0  0  0  0  0  0  0
   15.5917  -13.6886    0.0000 C   0  0  0  0  0  0  0  0  0  0  0  0
   16.2368  -14.2030    0.0000 C   0  0  0  0  0  0  0  0  0  0  0  0
   17.0411  -14.0194    0.0000 C   0  0  0  0  0  0  0  0  0  0  0  0
   17.3990  -13.2761    0.0000 C   0  0  0  0  0  0  0  0  0  0  0  0
   17.0411  -12.5328    0.0000 C   0  0  0  0  0  0  0  0  0  0  0  0
   16.2368  -12.3493    0.0000 C   0  0  0  0  0  0  0  0  0  0  0  0
   15.1345  -12.9488    0.0000 C   0  0  0  0  0  0  0  0  0  0  0  0
   14.8071  -13.9436    0.0000 C   0  0  0  0  0  0  0  0  0  0  0  0
   14.3222  -13.2761    0.0000 C   0  0  0  0  0  0  0  0  0  0  0  0
   14.9627  -12.4896    0.0000 C   0  0  0  0  0  0  0  0  0  0  0  0
   14.4188  -12.5384    0.0000 C   0  0  0  0  0  0  0  0  0  0  0  0
   13.7055  -12.9529    0.0000 O   0  0  0  0  0  0  0  0  0  0  0  0
   16.1242  -11.5320    0.0000 C   0  0  0  0  0  0  0  0  0  0  0  0
   16.4799  -14.9914    0.0000 C   0  0  0  0  0  0  0  0  0  0  0  0
   15.6756  -14.8078    0.0000 C   0  0  0  0  0  0  0  0  0  0  0  0
  1  2  1  0  0  0  0
  2  3  1  0  0  0  0
  3  4  1  0  0  0  0
  4  5  1  0  0  0  0
  5  6  1  0  0  0  0
  6  7  1  0  0  0  0
  7  8  1  0  0  0  0
  8  9  1  0  0  0  0
  9 10  1  0  0  0  0
 10 11  1  0  0  0  0
  1 11  1  0  0  0  0
  1  7  1  0  0  0  0
  2  9  1  0  0  0  0
 12 13  2  0  0  0  0
  8 12  1  0  0  0  0
  7 14  1  0  0  0  0
  3 15  1  0  0  0  0
  3 16  1  0  0  0  0
M  END
>  <cdx:groupId>
1295

>  <cdx:fragmentId>
1248

$$$$
