565709.cdx
  Mrv1902 05222410252D          

 15 16  0  0  0  0            999 V2000
   16.9990  -14.1578    0.0000 C   0  0  0  0  0  0  0  0  0  0  0  0
   17.4839  -13.4904    0.0000 C   0  0  0  0  0  0  0  0  0  0  0  0
   16.9990  -12.8229    0.0000 C   0  0  0  0  0  0  0  0  0  0  0  0
   16.2144  -13.0779    0.0000 C   0  0  0  0  0  0  0  0  0  0  0  0
   15.5694  -12.5635    0.0000 C   0  0  0  0  0  0  0  0  0  0  0  0
   14.7651  -12.7471    0.0000 C   0  0  0  0  0  0  0  0  0  0  0  0
   14.4071  -13.4904    0.0000 C   0  0  0  0  0  0  0  0  0  0  0  0
   14.7651  -14.2337    0.0000 C   0  0  0  0  0  0  0  0  0  0  0  0
   15.5694  -14.4172    0.0000 C   0  0  0  0  0  0  0  0  0  0  0  0
   16.2144  -13.9029    0.0000 C   0  0  0  0  0  0  0  0  0  0  0  0
   14.5521  -11.3341    0.0000 C   0  0  0  0  0  0  0  0  0  0  0  0
   14.2507  -12.1020    0.0000 C   0  0  0  0  0  0  0  0  0  0  0  0
   13.4349  -12.2250    0.0000 C   0  0  0  0  0  0  0  0  0  0  0  0
   15.7530  -15.2216    0.0000 C   0  0  0  0  0  0  0  0  0  0  0  0
   17.2539  -12.0383    0.0000 C   0  0  0  0  0  0  0  0  0  0  0  0
  1  2  1  0  0  0  0
  2  3  1  0  0  0  0
  3  4  2  0  0  0  0
  4  5  1  0  0  0  0
  5  6  1  0  0  0  0
  6  7  1  0  0  0  0
  7  8  1  0  0  0  0
  8  9  1  0  0  0  0
  9 10  1  0  0  0  0
  1 10  1  0  0  0  0
  4 10  1  0  0  0  0
 11 12  2  0  0  0  0
 12 13  1  0  0  0  0
  6 12  1  0  0  0  0
  9 14  1  0  0  0  0
  3 15  1  0  0  0  0
M  END
>  <cdx:groupId>
1349

>  <cdx:fragmentId>
1306

$$$$
