566139.cdx
  Mrv1902 05222410262D          

 16 19  0  0  0  0            999 V2000
    6.5604   -6.6339    0.0000 C   0  0  0  0  0  0  0  0  0  0  0  0
    7.1144   -5.7398    0.0000 C   0  0  0  0  0  0  0  0  0  0  0  0
    8.1663   -5.7398    0.0000 C   0  0  0  0  0  0  0  0  0  0  0  0
    8.7203   -6.6339    0.0000 C   0  0  0  0  0  0  0  0  0  0  0  0
    8.9752   -7.4186    0.0000 O   0  0  0  0  0  0  0  0  0  0  0  0
    8.3078   -7.9035    0.0000 C   0  0  0  0  0  0  0  0  0  0  0  0
    7.6404   -7.4186    0.0000 C   0  0  0  0  0  0  0  0  0  0  0  0
    6.8154   -7.4186    0.0000 C   0  0  0  0  0  0  0  0  0  0  0  0
    6.1479   -7.9035    0.0000 C   0  0  0  0  0  0  0  0  0  0  0  0
    5.4805   -7.4186    0.0000 C   0  0  0  0  0  0  0  0  0  0  0  0
    5.7354   -6.6339    0.0000 C   0  0  0  0  0  0  0  0  0  0  0  0
    7.2279   -6.1490    0.0000 C   0  0  0  0  0  0  0  0  0  0  0  0
    7.8953   -6.6339    0.0000 C   0  0  0  0  0  0  0  0  0  0  0  0
    5.2505   -5.9665    0.0000 C   0  0  0  0  0  0  0  0  0  0  0  0
    7.3854   -8.2032    0.0000 C   0  0  0  0  0  0  0  0  0  0  0  0
    9.4687   -6.2867    0.0000 C   0  0  0  0  0  0  0  0  0  0  0  0
  1  2  1  0  0  0  0
  2  3  1  0  0  0  0
  3  4  1  0  0  0  0
  4  5  1  0  0  0  0
  5  6  1  0  0  0  0
  6  7  1  0  0  0  0
  7  8  1  0  0  0  0
  8  9  1  0  0  0  0
  9 10  1  0  0  0  0
 10 11  1  0  0  0  0
 12 13  1  0  0  0  0
  1 11  1  0  0  0  0
  1 12  1  0  0  0  0
 13  7  1  0  0  0  0
  1  8  1  0  0  0  0
  4 13  1  0  0  0  0
 11 14  1  0  0  0  0
  7 15  1  0  0  0  0
  4 16  1  0  0  0  0
M  END
>  <cdx:fragmentId>
1356

$$$$
