566216.cdx
  Mrv1902 05222410252D          

 22 22  0  0  0  0            999 V2000
   10.7693  -13.4869    0.0000 C   0  0  0  0  0  0  0  0  0  0  0  0
   10.6831  -12.6665    0.0000 C   0  0  0  0  0  0  0  0  0  0  0  0
    9.8761  -12.4949    0.0000 C   0  0  0  0  0  0  0  0  0  0  0  0
    9.4636  -13.2094    0.0000 C   0  0  0  0  0  0  0  0  0  0  0  0
   10.0157  -13.8225    0.0000 S   0  0  0  0  0  0  0  0  0  0  0  0
   12.1983  -13.4869    0.0000 C   0  0  0  0  0  0  0  0  0  0  0  0
   11.4838  -13.8994    0.0000 C   0  0  0  0  0  0  0  0  0  0  0  0
   12.1983  -12.6619    0.0000 O   0  0  0  0  0  0  0  0  0  0  0  0
   12.9128  -13.8994    0.0000 O   0  0  0  0  0  0  0  0  0  0  0  0
   13.6272  -12.6619    0.0000 C   0  0  0  0  0  0  0  0  0  0  0  0
   13.6272  -13.4869    0.0000 C   0  0  0  0  0  0  0  0  0  0  0  0
   14.3417  -13.8994    0.0000 C   0  0  0  0  0  0  0  0  0  0  0  0
   15.0562  -13.4869    0.0000 C   0  0  0  0  0  0  0  0  0  0  0  0
   15.7706  -13.8994    0.0000 C   0  0  0  0  0  0  0  0  0  0  0  0
   16.4851  -13.4869    0.0000 C   0  0  0  0  0  0  0  0  0  0  0  0
   17.1996  -13.8994    0.0000 C   0  0  0  0  0  0  0  0  0  0  0  0
   17.9141  -13.4869    0.0000 C   0  0  0  0  0  0  0  0  0  0  0  0
   18.6285  -13.8994    0.0000 C   0  0  0  0  0  0  0  0  0  0  0  0
   19.3430  -13.4869    0.0000 C   0  0  0  0  0  0  0  0  0  0  0  0
   20.0575  -13.8994    0.0000 C   0  0  0  0  0  0  0  0  0  0  0  0
   20.7719  -13.4869    0.0000 C   0  0  0  0  0  0  0  0  0  0  0  0
   21.4864  -13.8994    0.0000 C   0  0  0  0  0  0  0  0  0  0  0  0
  1  2  2  0  0  0  0
  2  3  1  0  0  0  0
  3  4  2  0  0  0  0
  4  5  1  0  0  0  0
  1  5  1  0  0  0  0
  6  7  1  0  0  0  0
  6  8  2  0  0  0  0
  6  9  1  0  0  0  0
  1  7  1  0  0  0  0
 10 11  1  0  0  0  0
 11 12  1  0  0  0  0
 12 13  1  0  0  0  0
 13 14  1  0  0  0  0
 14 15  1  0  0  0  0
 15 16  1  0  0  0  0
 16 17  1  0  0  0  0
 17 18  1  0  0  0  0
 18 19  1  0  0  0  0
 19 20  1  0  0  0  0
 20 21  1  0  0  0  0
 21 22  1  0  0  0  0
  9 11  1  0  0  0  0
M  END
>  <cdx:groupId>
1473

>  <cdx:fragmentId>
1428

$$$$
