44566678.cdx
  Mrv1902 05222410192D          

 96103  0  0  0  0            999 V2000
   31.3662  -18.6459    0.0000 C   0  0  0  0  0  0  0  0  0  0  0  0
   30.8142  -19.2590    0.0000 C   0  0  0  0  0  0  0  0  0  0  0  0
   30.0072  -19.0874    0.0000 C   0  0  0  0  0  0  0  0  0  0  0  0
   29.4552  -19.7005    0.0000 C   0  0  0  0  0  0  0  0  0  0  0  0
   29.7101  -20.4852    0.0000 C   0  0  0  0  0  0  0  0  0  0  0  0
   30.5171  -20.6567    0.0000 C   0  0  0  0  0  0  0  0  0  0  0  0
   31.0691  -20.0436    0.0000 C   0  0  0  0  0  0  0  0  0  0  0  0
   32.1732  -18.8174    0.0000 O   0  0  0  0  0  0  0  0  0  0  0  0
   31.0348  -17.6259    0.0000 O   0  0  0  0  0  0  0  0  0  0  0  0
   29.0718  -16.7869    0.0000 O   0  0  0  0  0  0  0  0  0  0  0  0
   29.8923  -16.7007    0.0000 C   0  0  1  0  0  0  0  0  0  0  0  0
   30.2278  -17.4543    0.0000 C   0  0  2  0  0  0  0  0  0  0  0  0
   29.6147  -18.0064    0.0000 C   0  0  1  0  0  0  0  0  0  0  0  0
   28.9003  -17.5939    0.0000 C   0  0  1  0  0  0  0  0  0  0  0  0
   28.1466  -17.9294    0.0000 C   0  0  0  0  0  0  0  0  0  0  0  0
   28.0604  -18.7499    0.0000 O   0  0  0  0  0  0  0  0  0  0  0  0
   29.8923  -15.8757    0.0000 C   0  0  0  0  0  0  0  0  0  0  0  0
   29.1778  -15.4632    0.0000 O   0  0  0  0  0  0  0  0  0  0  0  0
   28.4633  -15.8757    0.0000 C   0  0  0  0  0  0  0  0  0  0  0  0
   27.7489  -15.4632    0.0000 C   0  0  0  0  0  0  0  0  0  0  0  0
   27.0344  -15.8757    0.0000 C   0  0  0  0  0  0  0  0  0  0  0  0
   28.4633  -16.7007    0.0000 O   0  0  0  0  0  0  0  0  0  0  0  0
   26.3199  -15.4632    0.0000 C   0  0  0  0  0  0  0  0  0  0  0  0
   25.6055  -15.8757    0.0000 C   0  0  0  0  0  0  0  0  0  0  0  0
   24.8910  -15.4632    0.0000 C   0  0  0  0  0  0  0  0  0  0  0  0
   24.8910  -14.6382    0.0000 C   0  0  0  0  0  0  0  0  0  0  0  0
   25.6055  -14.2257    0.0000 C   0  0  0  0  0  0  0  0  0  0  0  0
   26.3199  -14.6382    0.0000 C   0  0  0  0  0  0  0  0  0  0  0  0
   24.1765  -15.8757    0.0000 O   0  0  0  0  0  0  0  0  0  0  0  0
   23.4620  -15.4632    0.0000 C   0  0  0  0  0  0  0  0  0  0  0  0
   24.1765  -14.2257    0.0000 O   0  0  0  0  0  0  0  0  0  0  0  0
   29.7010  -18.8269    0.0000 O   0  0  0  0  0  0  0  0  0  0  0  0
   30.6068  -16.2882    0.0000 O   0  0  0  0  0  0  0  0  0  0  0  0
   29.8923  -14.5557    0.0000 O   0  0  0  0  0  0  0  0  0  0  0  0
   30.6068  -14.9682    0.0000 C   0  0  1  0  0  0  0  0  0  0  0  0
   31.3212  -14.5557    0.0000 C   0  0  1  0  0  0  0  0  0  0  0  0
   31.3212  -13.7307    0.0000 C   0  0  2  0  0  0  0  0  0  0  0  0
   30.6068  -13.3182    0.0000 C   0  0  1  0  0  0  0  0  0  0  0  0
   29.8923  -13.7307    0.0000 C   0  0  1  0  0  0  0  0  0  0  0  0
   32.8931  -15.4632    0.0000 O   0  0  0  0  0  0  0  0  0  0  0  0
   33.6075  -16.7007    0.0000 O   0  0  0  0  0  0  0  0  0  0  0  0
   32.8931  -16.2882    0.0000 C   0  0  2  0  0  0  0  0  0  0  0  0
   32.1786  -16.7007    0.0000 C   0  0  1  0  0  0  0  0  0  0  0  0
   32.1786  -17.5257    0.0000 C   0  0  2  0  0  0  0  0  0  0  0  0
   32.8931  -17.9382    0.0000 C   0  0  1  0  0  0  0  0  0  0  0  0
   33.6075  -17.5257    0.0000 C   0  0  1  0  0  0  0  0  0  0  0  0
   34.3220  -17.9382    0.0000 C   0  0  0  0  0  0  0  0  0  0  0  0
   34.3220  -18.7632    0.0000 O   0  0  0  0  0  0  0  0  0  0  0  0
   32.8931  -18.7632    0.0000 O   0  0  0  0  0  0  0  0  0  0  0  0
   31.6427  -17.8350    0.0000 O   0  0  0  0  0  0  0  0  0  0  0  0
   31.4641  -16.2882    0.0000 O   0  0  0  0  0  0  0  0  0  0  0  0
   30.6068  -12.4932    0.0000 O   0  0  0  0  0  0  0  0  0  0  0  0
   29.8923  -12.0807    0.0000 C   0  0  0  0  0  0  0  0  0  0  0  0
   29.8923  -11.2557    0.0000 C   0  0  0  0  0  0  0  0  0  0  0  0
   29.1778  -10.8432    0.0000 C   0  0  0  0  0  0  0  0  0  0  0  0
   29.1778  -12.4932    0.0000 O   0  0  0  0  0  0  0  0  0  0  0  0
   29.1778  -10.0182    0.0000 C   0  0  0  0  0  0  0  0  0  0  0  0
   28.4633   -9.6057    0.0000 C   0  0  0  0  0  0  0  0  0  0  0  0
   28.4633   -8.7807    0.0000 C   0  0  0  0  0  0  0  0  0  0  0  0
   29.1778   -8.3682    0.0000 C   0  0  0  0  0  0  0  0  0  0  0  0
   29.8923   -8.7807    0.0000 C   0  0  0  0  0  0  0  0  0  0  0  0
   29.8923   -9.6057    0.0000 C   0  0  0  0  0  0  0  0  0  0  0  0
   27.7489   -8.3682    0.0000 O   0  0  0  0  0  0  0  0  0  0  0  0
   27.0344   -8.7807    0.0000 C   0  0  0  0  0  0  0  0  0  0  0  0
   29.1778   -7.5432    0.0000 O   0  0  0  0  0  0  0  0  0  0  0  0
   32.4644  -13.0707    0.0000 O   0  0  0  0  0  0  0  0  0  0  0  0
   33.3932  -14.4319    0.0000 O   0  0  0  0  0  0  0  0  0  0  0  0
   33.3932  -13.6069    0.0000 C   0  0  2  0  0  0  0  0  0  0  0  0
   34.1077  -13.1944    0.0000 C   0  0  1  0  0  0  0  0  0  0  0  0
   34.8221  -13.6069    0.0000 C   0  0  2  0  0  0  0  0  0  0  0  0
   34.8221  -14.4319    0.0000 C   0  0  1  0  0  0  0  0  0  0  0  0
   34.1077  -14.8444    0.0000 C   0  0  1  0  0  0  0  0  0  0  0  0
   35.5366  -14.8444    0.0000 O   0  0  0  0  0  0  0  0  0  0  0  0
   36.2511  -13.6069    0.0000 O   0  0  0  0  0  0  0  0  0  0  0  0
   36.2511  -14.4319    0.0000 C   0  0  2  0  0  0  0  0  0  0  0  0
   36.9655  -14.8444    0.0000 C   0  0  1  0  0  0  0  0  0  0  0  0
   37.6800  -14.4319    0.0000 C   0  0  2  0  0  0  0  0  0  0  0  0
   37.6800  -13.6069    0.0000 C   0  0  1  0  0  0  0  0  0  0  0  0
   36.9655  -13.1944    0.0000 C   0  0  1  0  0  0  0  0  0  0  0  0
   36.9655  -12.3694    0.0000 C   0  0  0  0  0  0  0  0  0  0  0  0
   37.6800  -11.9569    0.0000 O   0  0  0  0  0  0  0  0  0  0  0  0
   38.3945  -13.1944    0.0000 O   0  0  0  0  0  0  0  0  0  0  0  0
   38.3945  -14.8444    0.0000 O   0  0  0  0  0  0  0  0  0  0  0  0
   36.9655  -15.6694    0.0000 O   0  0  0  0  0  0  0  0  0  0  0  0
   35.5366  -13.1944    0.0000 O   0  0  0  0  0  0  0  0  0  0  0  0
   34.1077  -12.3694    0.0000 O   0  0  0  0  0  0  0  0  0  0  0  0
   34.1077  -15.6694    0.0000 C   0  0  0  0  0  0  0  0  0  0  0  0
   34.8221  -16.0819    0.0000 O   0  0  0  0  0  0  0  0  0  0  0  0
   34.8221  -16.9069    0.0000 C   0  0  0  0  0  0  0  0  0  0  0  0
   35.5366  -17.3194    0.0000 O   0  0  0  0  0  0  0  0  0  0  0  0
   34.1077  -17.3194    0.0000 C   0  0  0  0  0  0  0  0  0  0  0  0
   29.1778  -13.3182    0.0000 C   0  0  0  0  0  0  0  0  0  0  0  0
   28.4633  -13.7307    0.0000 O   0  0  0  0  0  0  0  0  0  0  0  0
   27.7489  -13.3182    0.0000 C   0  0  0  0  0  0  0  0  0  0  0  0
   27.7489  -12.4932    0.0000 O   0  0  0  0  0  0  0  0  0  0  0  0
   27.0344  -13.7307    0.0000 C   0  0  0  0  0  0  0  0  0  0  0  0
  1  2  1  0  0  0  0
  2  3  1  0  0  0  0
  3  4  2  0  0  0  0
  4  5  1  0  0  0  0
  5  6  2  0  0  0  0
  6  7  1  0  0  0  0
  2  7  2  0  0  0  0
  1  8  2  0  0  0  0
  1  9  1  0  0  0  0
 10 11  1  0  0  0  0
 11 12  1  0  0  0  0
 12 13  1  0  0  0  0
 13 14  1  0  0  0  0
 10 14  1  0  0  0  0
 15 16  1  0  0  0  0
 14 15  1  1  0  0  0
 19 20  1  0  0  0  0
 20 21  2  0  0  0  0
 19 22  2  0  0  0  0
 23 24  1  0  0  0  0
 24 25  2  0  0  0  0
 25 26  1  0  0  0  0
 26 27  2  0  0  0  0
 27 28  1  0  0  0  0
 23 28  2  0  0  0  0
 29 30  1  0  0  0  0
 25 29  1  0  0  0  0
 26 31  1  0  0  0  0
 21 23  1  0  0  0  0
 18 19  1  0  0  0  0
 17 18  1  0  0  0  0
 11 17  1  6  0  0  0
 13 32  1  6  0  0  0
 34 35  1  0  0  0  0
 35 36  1  0  0  0  0
 36 37  1  0  0  0  0
 37 38  1  0  0  0  0
 38 39  1  0  0  0  0
 34 39  1  0  0  0  0
 41 42  1  0  0  0  0
 42 43  1  0  0  0  0
 43 44  1  0  0  0  0
 44 45  1  0  0  0  0
 45 46  1  0  0  0  0
 41 46  1  0  0  0  0
 47 48  1  0  0  0  0
 46 47  1  6  0  0  0
 45 49  1  1  0  0  0
 44 50  1  6  0  0  0
 43 51  1  1  0  0  0
 42 40  1  6  0  0  0
 36 40  1  1  0  0  0
 53 54  1  0  0  0  0
 54 55  2  0  0  0  0
 53 56  2  0  0  0  0
 57 58  1  0  0  0  0
 58 59  2  0  0  0  0
 59 60  1  0  0  0  0
 60 61  2  0  0  0  0
 61 62  1  0  0  0  0
 57 62  2  0  0  0  0
 63 64  1  0  0  0  0
 59 63  1  0  0  0  0
 60 65  1  0  0  0  0
 55 57  1  0  0  0  0
 52 53  1  0  0  0  0
 38 52  1  1  0  0  0
 67 68  1  0  0  0  0
 68 69  1  0  0  0  0
 69 70  1  0  0  0  0
 70 71  1  0  0  0  0
 71 72  1  0  0  0  0
 67 72  1  0  0  0  0
 74 75  1  0  0  0  0
 75 76  1  0  0  0  0
 76 77  1  0  0  0  0
 77 78  1  0  0  0  0
 78 79  1  0  0  0  0
 74 79  1  0  0  0  0
 80 81  1  0  0  0  0
 79 80  1  6  0  0  0
 78 82  1  1  0  0  0
 77 83  1  6  0  0  0
 76 84  1  1  0  0  0
 75 73  1  6  0  0  0
 71 73  1  6  0  0  0
 70 85  1  1  0  0  0
 69 86  1  6  0  0  0
 89 90  2  0  0  0  0
 89 91  1  0  0  0  0
 88 89  1  0  0  0  0
 87 88  1  0  0  0  0
 72 87  1  1  0  0  0
 68 66  1  1  0  0  0
 37 66  1  6  0  0  0
 94 95  2  0  0  0  0
 94 96  1  0  0  0  0
 93 94  1  0  0  0  0
 92 93  1  0  0  0  0
 39 92  1  6  0  0  0
 35 33  1  1  0  0  0
 11 33  1  1  0  0  0
 12  9  1  1  0  0  0
M  END
>  <cdx:groupId>
168025

>  <cdx:fragmentId>
167813

$$$$
