566617.cdx
  Mrv1902 05222410242D          

 41 43  0  0  0  0            999 V2000
    7.7603   -5.5663    0.0000 C   0  0  0  0  0  0  0  0  0  0  0  0
    8.4676   -5.1416    0.0000 C   0  0  2  0  0  0  0  0  0  0  0  0
    9.1891   -5.5418    0.0000 C   0  0  0  0  0  0  0  0  0  0  0  0
    7.7745   -6.3912    0.0000 O   0  0  0  0  0  0  0  0  0  0  0  0
    7.0389   -5.1661    0.0000 N   0  0  0  0  0  0  0  0  0  0  0  0
    9.8964   -5.1171    0.0000 C   0  0  0  0  0  0  0  0  0  0  0  0
    9.8822   -4.2922    0.0000 C   0  0  0  0  0  0  0  0  0  0  0  0
   10.5895   -3.8675    0.0000 C   0  0  0  0  0  0  0  0  0  0  0  0
   11.3110   -4.2677    0.0000 C   0  0  0  0  0  0  0  0  0  0  0  0
   11.3251   -5.0926    0.0000 C   0  0  0  0  0  0  0  0  0  0  0  0
   10.6178   -5.5173    0.0000 C   0  0  0  0  0  0  0  0  0  0  0  0
    4.9170   -6.4402    0.0000 C   0  0  0  0  0  0  0  0  0  0  0  0
    4.9029   -5.6153    0.0000 O   0  0  0  0  0  0  0  0  0  0  0  0
    5.6102   -5.1906    0.0000 C   0  0  2  0  0  0  0  0  0  0  0  0
    6.3316   -5.5908    0.0000 C   0  0  1  0  0  0  0  0  0  0  0  0
    6.3458   -6.4157    0.0000 C   0  0  0  0  0  0  0  0  0  0  0  0
    7.0672   -6.8159    0.0000 N   0  0  0  0  0  0  0  0  0  0  0  0
    7.0813   -7.6407    0.0000 C   0  0  2  0  0  0  0  0  0  0  0  0
    6.3740   -8.0654    0.0000 C   0  0  0  0  0  0  0  0  0  0  0  0
    6.3882   -8.8903    0.0000 N   0  0  0  0  0  0  0  0  0  0  0  0
    5.6809   -9.3150    0.0000 C   0  0  0  0  0  0  0  0  0  0  0  0
    4.9594   -8.9148    0.0000 C   0  0  1  0  0  0  0  0  0  0  0  0
    4.9453   -8.0899    0.0000 C   0  0  0  0  0  0  0  0  0  0  0  0
    5.6526   -7.6652    0.0000 C   0  0  0  0  0  0  0  0  0  0  0  0
    5.6385   -6.8403    0.0000 C   0  0  0  0  0  0  0  0  0  0  0  0
    4.2104   -6.8660    0.0000 C   0  0  0  0  0  0  0  0  0  0  0  0
    4.2246   -7.6909    0.0000 C   0  0  0  0  0  0  0  0  0  0  0  0
    6.3033   -3.9410    0.0000 C   0  0  0  0  0  0  0  0  0  0  0  0
    5.5960   -4.3657    0.0000 C   0  0  0  0  0  0  0  0  0  0  0  0
    4.8746   -3.9655    0.0000 C   0  0  0  0  0  0  0  0  0  0  0  0
    5.6596   -8.4779    0.0000 O   0  0  0  0  0  0  0  0  0  0  0  0
    5.6313   -6.0032    0.0000 O   0  0  0  0  0  0  0  0  0  0  0  0
    8.5384   -9.2660    0.0000 C   0  0  0  0  0  0  0  0  0  0  0  0
    4.2522   -9.3395    0.0000 O   0  0  0  0  0  0  0  0  0  0  0  0
    4.2522  -10.1645    0.0000 C   0  0  0  0  0  0  0  0  0  0  0  0
    8.4535   -4.3167    0.0000 N   0  0  0  0  0  0  0  0  0  0  0  0
    9.1608   -3.8920    0.0000 C   0  0  0  0  0  0  0  0  0  0  0  0
    7.7321   -3.9165    0.0000 C   0  0  0  0  0  0  0  0  0  0  0  0
    7.1096   -9.2905    0.0000 C   0  0  0  0  0  0  0  0  0  0  0  0
    7.8169   -8.8658    0.0000 C   0  0  0  0  0  0  0  0  0  0  0  0
    7.8028   -8.0409    0.0000 C   0  0  0  0  0  0  0  0  0  0  0  0
 40 33  1  0  0  0  0
 40 39  1  0  0  0  0
 41 40  1  0  0  0  0
  1  2  1  0  0  0  0
  2  3  1  0  0  0  0
  1  4  2  0  0  0  0
  1  5  1  0  0  0  0
  6  7  1  0  0  0  0
  7  8  2  0  0  0  0
  8  9  1  0  0  0  0
  9 10  2  0  0  0  0
 10 11  1  0  0  0  0
  6 11  2  0  0  0  0
  3  6  1  0  0  0  0
 12 13  1  0  0  0  0
 13 14  1  0  0  0  0
 14 15  1  0  0  0  0
 15 16  1  0  0  0  0
 16 17  1  0  0  0  0
 17 18  1  0  0  0  0
 18 19  1  0  0  0  0
 19 20  1  0  0  0  0
 20 21  1  0  0  0  0
 21 22  1  0  0  0  0
 22 23  1  0  0  0  0
 23 24  2  0  0  0  0
 24 25  1  0  0  0  0
 26 27  2  0  0  0  0
 12 25  2  0  0  0  0
 12 26  1  0  0  0  0
 27 23  1  0  0  0  0
 28 29  1  0  0  0  0
 29 30  1  0  0  0  0
 14 29  1  1  0  0  0
 19 31  2  0  0  0  0
 16 32  2  0  0  0  0
 18 41  1  1  0  0  0
 34 35  1  0  0  0  0
 22 34  1  6  0  0  0
 15  5  1  6  0  0  0
 36 37  1  0  0  0  0
 36 38  1  0  0  0  0
  2 36  1  1  0  0  0
M  END
>  <cdx:fragmentId>
86

$$$$
