566705.cdx
  Mrv1902 05222410272D          

 19 21  0  0  0  0            999 V2000
    5.5567   -6.6684    0.0000 H   0  0  0  0  0  0  0  0  0  0  0  0
    5.0518   -7.8726    0.0000 C   0  0  0  0  0  0  0  0  0  0  0  0
    5.0551   -7.0476    0.0000 C   0  0  0  0  0  0  0  0  0  0  0  0
    8.3396   -5.1874    0.0000 C   0  0  0  0  0  0  0  0  0  0  0  0
    9.3039   -5.4503    0.0000 O   0  0  0  0  0  0  0  0  0  0  0  0
    7.7825   -7.8650    0.0000 O   0  0  0  0  0  0  0  0  0  0  0  0
    7.5625   -4.7850    0.0000 C   0  0  0  0  0  0  0  0  0  0  0  0
    8.7175   -7.3975    0.0000 C   0  0  0  0  0  0  0  0  0  0  0  0
    9.2400   -6.6825    0.0000 C   0  0  0  0  0  0  0  0  0  0  0  0
    8.7205   -6.0336    0.0000 C   0  0  1  0  0  0  0  0  0  0  0  0
    7.9271   -5.9019    0.0000 C   0  0  2  0  0  0  0  0  0  0  0  0
    6.8200   -5.8575    0.0000 C   0  0  0  0  0  0  0  0  0  0  0  0
    6.2425   -6.2700    0.0000 C   0  0  0  0  0  0  0  0  0  0  0  0
    6.3536   -6.8819    0.0000 C   0  0  2  0  0  0  0  0  0  0  0  0
    5.7679   -7.4630    0.0000 C   0  0  0  0  0  0  0  0  0  0  0  0
    6.3489   -8.0486    0.0000 C   0  0  0  0  0  0  0  0  0  0  0  0
    6.9346   -7.4676    0.0000 C   0  0  1  0  0  0  0  0  0  0  0  0
    7.7825   -7.0400    0.0000 C   0  0  1  0  0  0  0  0  0  0  0  0
    7.1372   -8.2673    0.0000 H   0  0  0  0  0  0  0  0  0  0  0  0
 14  1  1  6  0  0  0
 15  2  1  0  0  0  0
 15  3  1  0  0  0  0
 11  4  1  6  0  0  0
 10  5  1  1  0  0  0
 18  6  1  1  0  0  0
 17 14  1  0  0  0  0
 11  7  1  0  0  0  0
 18  7  1  0  0  0  0
 18  8  1  0  0  0  0
  9  8  1  0  0  0  0
 10  9  1  0  0  0  0
 11 10  1  0  0  0  0
 12 11  1  0  0  0  0
 13 12  1  0  0  0  0
 14 13  1  0  0  0  0
 15 14  1  0  0  0  0
 16 15  1  0  0  0  0
 17 16  1  0  0  0  0
 18 17  1  0  0  0  0
 17 19  1  1  0  0  0
M  END
>  <cdx:fragmentId>
5

$$$$
