566967.cdx
  Mrv1902 05222410202D          

 36 39  0  0  0  0            999 V2000
    5.7262   -8.5711    0.0000 C   0  0  0  0  0  0  0  0  0  0  0  0
    5.0056   -8.9728    0.0000 C   0  0  1  0  0  0  0  0  0  0  0  0
    4.2974   -8.5497    0.0000 C   0  0  0  0  0  0  0  0  0  0  0  0
    6.4344   -8.9943    0.0000 O   0  0  0  0  0  0  0  0  0  0  0  0
    5.7385   -7.7462    0.0000 O   0  0  0  0  0  0  0  0  0  0  0  0
    4.3098   -7.7247    0.0000 C   0  0  0  0  0  0  0  0  0  0  0  0
    5.0303   -7.3230    0.0000 C   0  0  0  0  0  0  0  0  0  0  0  0
    5.0427   -6.4981    0.0000 C   0  0  0  0  0  0  0  0  0  0  0  0
    4.3345   -6.0749    0.0000 C   0  0  0  0  0  0  0  0  0  0  0  0
    3.6139   -6.4767    0.0000 C   0  0  0  0  0  0  0  0  0  0  0  0
    3.6015   -7.3016    0.0000 C   0  0  0  0  0  0  0  0  0  0  0  0
    4.3469   -5.2500    0.0000 O   0  0  0  0  0  0  0  0  0  0  0  0
    5.7633   -6.0964    0.0000 O   0  0  0  0  0  0  0  0  0  0  0  0
    7.0939  -12.7082    0.0000 C   0  0  0  0  0  0  0  0  0  0  0  0
    6.3788  -12.2967    0.0000 C   0  0  0  0  0  0  0  0  0  0  0  0
    5.6649  -12.7102    0.0000 C   0  0  0  0  0  0  0  0  0  0  0  0
    5.6661  -13.5352    0.0000 C   0  0  0  0  0  0  0  0  0  0  0  0
    6.3811  -13.9467    0.0000 C   0  0  0  0  0  0  0  0  0  0  0  0
    7.0950  -13.5332    0.0000 C   0  0  0  0  0  0  0  0  0  0  0  0
    6.4212   -9.8492    0.0000 O   0  0  0  0  0  0  0  0  0  0  0  0
    6.3777  -11.4717    0.0000 C   0  0  0  0  0  0  0  0  0  0  0  0
    5.6627  -11.0602    0.0000 C   0  0  0  0  0  0  0  0  0  0  0  0
    5.6924  -10.2357    0.0000 C   0  0  0  0  0  0  0  0  0  0  0  0
    4.9932   -9.7977    0.0000 O   0  0  0  0  0  0  0  0  0  0  0  0
    7.7407  -14.0467    0.0000 O   0  0  0  0  0  0  0  0  0  0  0  0
    8.5448  -13.8620    0.0000 C   0  0  0  0  0  0  0  0  0  0  0  0
    8.9201  -13.1276    0.0000 C   0  0  0  0  0  0  0  0  0  0  0  0
    8.5841  -12.3965    0.0000 C   0  0  0  0  0  0  0  0  0  0  0  0
    7.7713  -12.2099    0.0000 C   0  0  0  0  0  0  0  0  0  0  0  0
    8.9931  -14.5542    0.0000 C   0  0  0  0  0  0  0  0  0  0  0  0
    9.8168  -14.5121    0.0000 C   0  0  0  0  0  0  0  0  0  0  0  0
   10.1921  -13.7777    0.0000 C   0  0  0  0  0  0  0  0  0  0  0  0
    9.7438  -13.0854    0.0000 C   0  0  0  0  0  0  0  0  0  0  0  0
   10.2653  -15.2045    0.0000 O   0  0  0  0  0  0  0  0  0  0  0  0
   11.0160  -13.7355    0.0000 O   0  0  0  0  0  0  0  0  0  0  0  0
    6.3823  -14.7717    0.0000 O   0  0  0  0  0  0  0  0  0  0  0  0
 24 23  1  0  0  0  0
 21 15  1  0  0  0  0
 17 18  2  0  0  0  0
 14 19  2  0  0  0  0
 15 14  1  0  0  0  0
 16 15  2  0  0  0  0
 17 16  1  0  0  0  0
 19 18  1  0  0  0  0
 23 20  2  0  0  0  0
  1  2  1  0  0  0  0
  2  3  1  0  0  0  0
  1  4  2  0  0  0  0
  1  5  1  0  0  0  0
 22 21  2  0  0  0  0
 23 22  1  0  0  0  0
  2 24  1  6  0  0  0
  6  7  1  0  0  0  0
  7  8  2  0  0  0  0
  8  9  1  0  0  0  0
  9 10  2  0  0  0  0
 10 11  1  0  0  0  0
  6 11  2  0  0  0  0
  9 12  1  0  0  0  0
  8 13  1  0  0  0  0
  3  6  1  0  0  0  0
 19 25  1  0  0  0  0
 25 26  1  0  0  0  0
 26 27  2  0  0  0  0
 27 28  1  0  0  0  0
 28 29  2  0  0  0  0
 29 14  1  0  0  0  0
 26 30  1  0  0  0  0
 30 31  2  0  0  0  0
 31 32  1  0  0  0  0
 32 33  2  0  0  0  0
 33 27  1  0  0  0  0
 31 34  1  0  0  0  0
 32 35  1  0  0  0  0
 18 36  1  0  0  0  0
M  END
>  <cdx:groupId>
168159

>  <cdx:fragmentId>
168071

$$$$
