567150.cdx
  Mrv1902 05222410262D          

 50 55  0  0  0  0            999 V2000
    7.6178   -4.8107    0.0000 C   0  0  0  0  0  0  0  0  0  0  0  0
    8.3322   -4.3982    0.0000 C   0  0  0  0  0  0  0  0  0  0  0  0
    9.0467   -4.8107    0.0000 C   0  0  0  0  0  0  0  0  0  0  0  0
    9.0467   -5.6357    0.0000 C   0  0  0  0  0  0  0  0  0  0  0  0
    8.3322   -6.0482    0.0000 C   0  0  2  0  0  0  0  0  0  0  0  0
    8.3322   -6.8732    0.0000 C   0  0  0  0  0  0  0  0  0  0  0  0
    7.6178   -7.2857    0.0000 C   0  0  0  0  0  0  0  0  0  0  0  0
    6.9033   -6.8732    0.0000 C   0  0  1  0  0  0  0  0  0  0  0  0
    6.1888   -7.2857    0.0000 C   0  0  2  0  0  0  0  0  0  0  0  0
    6.1888   -8.1107    0.0000 C   0  0  0  0  0  0  0  0  0  0  0  0
    5.4744   -8.5232    0.0000 C   0  0  2  0  0  0  0  0  0  0  0  0
    4.7599   -8.1107    0.0000 C   0  0  1  0  0  0  0  0  0  0  0  0
    4.0454   -8.5232    0.0000 C   0  0  2  0  0  0  0  0  0  0  0  0
    3.3309   -8.1107    0.0000 C   0  0  2  0  0  0  0  0  0  0  0  0
    3.3309   -7.2857    0.0000 C   0  0  1  0  0  0  0  0  0  0  0  0
    4.0454   -6.8732    0.0000 C   0  0  0  0  0  0  0  0  0  0  0  0
    4.7599   -7.2857    0.0000 C   0  0  2  0  0  0  0  0  0  0  0  0
    5.4744   -6.8732    0.0000 C   0  0  1  0  0  0  0  0  0  0  0  0
    5.4744   -6.0482    0.0000 C   0  0  0  0  0  0  0  0  0  0  0  0
    6.1888   -5.6357    0.0000 C   0  0  0  0  0  0  0  0  0  0  0  0
    6.9033   -6.0482    0.0000 C   0  0  0  0  0  0  0  0  0  0  0  0
    7.6178   -5.6357    0.0000 C   0  0  2  0  0  0  0  0  0  0  0  0
    4.7599   -6.4607    0.0000 C   0  0  0  0  0  0  0  0  0  0  0  0
    3.6329   -9.2377    0.0000 C   0  0  0  0  0  0  0  0  0  0  0  0
    6.9033   -7.6982    0.0000 C   0  0  0  0  0  0  0  0  0  0  0  0
    7.9197   -3.6837    0.0000 C   0  0  0  0  0  0  0  0  0  0  0  0
    8.7447   -3.6837    0.0000 C   0  0  0  0  0  0  0  0  0  0  0  0
    4.4579   -9.2377    0.0000 C   0  0  0  0  0  0  0  0  0  0  0  0
    4.0454   -9.9521    0.0000 O   0  0  0  0  0  0  0  0  0  0  0  0
    2.6165   -6.8732    0.0000 O   0  0  0  0  0  0  0  0  0  0  0  0
    2.6165   -8.5232    0.0000 O   0  0  0  0  0  0  0  0  0  0  0  0
    5.4744   -9.3482    0.0000 O   0  0  0  0  0  0  0  0  0  0  0  0
    4.7599   -8.9357    0.0000 H   0  0  0  0  0  0  0  0  0  0  0  0
    6.9033   -5.2232    0.0000 H   0  0  0  0  0  0  0  0  0  0  0  0
   10.4756   -6.4607    0.0000 O   0  0  0  0  0  0  0  0  0  0  0  0
   11.9046   -7.2857    0.0000 O   0  0  0  0  0  0  0  0  0  0  0  0
   11.9046   -8.9357    0.0000 O   0  0  0  0  0  0  0  0  0  0  0  0
   11.1901  -10.1732    0.0000 O   0  0  0  0  0  0  0  0  0  0  0  0
   10.4756   -9.7607    0.0000 C   0  0  0  0  0  0  0  0  0  0  0  0
   10.4756   -8.9357    0.0000 C   0  0  2  0  0  0  0  0  0  0  0  0
   11.1901   -8.5232    0.0000 C   0  0  2  0  0  0  0  0  0  0  0  0
   11.1901   -7.6982    0.0000 C   0  0  1  0  0  0  0  0  0  0  0  0
   10.4756   -7.2857    0.0000 C   0  0  2  0  0  0  0  0  0  0  0  0
    9.7612   -7.6982    0.0000 C   0  0  1  0  0  0  0  0  0  0  0  0
    9.7612   -8.5232    0.0000 O   0  0  0  0  0  0  0  0  0  0  0  0
    9.0467   -7.2857    0.0000 O   0  0  0  0  0  0  0  0  0  0  0  0
    9.7612   -6.0482    0.0000 O   0  0  0  0  0  0  0  0  0  0  0  0
    9.0467   -6.4607    0.0000 C   0  0  0  0  0  0  0  0  0  0  0  0
    6.1888   -6.4607    0.0000 C   0  0  0  0  0  0  0  0  0  0  0  0
    5.4744   -7.6982    0.0000 H   0  0  0  0  0  0  0  0  0  0  0  0
 44 46  1  1  0  0  0
 43 35  1  6  0  0  0
 42 36  1  1  0  0  0
 41 37  1  6  0  0  0
 40 39  1  1  0  0  0
 39 38  1  0  0  0  0
 45 40  1  0  0  0  0
 41 40  1  0  0  0  0
 42 41  1  0  0  0  0
 43 42  1  0  0  0  0
 44 43  1  0  0  0  0
 45 44  1  0  0  0  0
 48 46  1  0  0  0  0
 48 47  2  0  0  0  0
  1  2  1  0  0  0  0
  2  3  1  0  0  0  0
  3  4  1  0  0  0  0
  4  5  1  0  0  0  0
  5  6  1  0  0  0  0
  6  7  1  0  0  0  0
  7  8  1  0  0  0  0
  8  9  1  0  0  0  0
  9 10  1  0  0  0  0
 10 11  1  0  0  0  0
 11 12  1  0  0  0  0
 12 13  1  0  0  0  0
 13 14  1  0  0  0  0
 14 15  1  0  0  0  0
 15 16  1  0  0  0  0
 16 17  1  0  0  0  0
 12 17  1  0  0  0  0
 17 18  1  0  0  0  0
  9 18  1  0  0  0  0
 18 19  1  0  0  0  0
 19 20  1  0  0  0  0
 20 21  2  0  0  0  0
  8 21  1  0  0  0  0
 21 22  1  0  0  0  0
  5 22  1  0  0  0  0
  1 22  1  0  0  0  0
  5 48  1  1  0  0  0
 17 23  1  1  0  0  0
 13 24  1  1  0  0  0
  8 25  1  6  0  0  0
  2 26  1  0  0  0  0
  2 27  1  0  0  0  0
 28 29  1  0  0  0  0
 13 28  1  6  0  0  0
 15 30  1  6  0  0  0
 14 31  1  1  0  0  0
 11 32  1  1  0  0  0
 12 33  1  6  0  0  0
 22 34  1  1  0  0  0
  9 49  1  1  0  0  0
 18 50  1  6  0  0  0
M  END
>  <cdx:fragmentId>
69

$$$$
