567123.cdx
  Mrv1902 05222410262D          

 38 41  0  0  0  0            999 V2000
    8.7907   -7.4623    0.0000 C   0  0  1  0  0  0  0  0  0  0  0  0
    7.6444   -4.0537    0.0000 C   0  0  0  0  0  0  0  0  0  0  0  0
    4.8932   -9.3268    0.0000 C   0  0  0  0  0  0  0  0  0  0  0  0
    4.1787   -9.7393    0.0000 C   0  0  0  0  0  0  0  0  0  0  0  0
    4.1787  -10.5643    0.0000 C   0  0  0  0  0  0  0  0  0  0  0  0
    4.8932  -10.9768    0.0000 C   0  0  0  0  0  0  0  0  0  0  0  0
    5.6077  -10.5643    0.0000 C   0  0  2  0  0  0  0  0  0  0  0  0
    6.3221  -10.9768    0.0000 C   0  0  0  0  0  0  0  0  0  0  0  0
    7.0366  -10.5643    0.0000 C   0  0  0  0  0  0  0  0  0  0  0  0
    7.0366   -9.7393    0.0000 C   0  0  0  0  0  0  0  0  0  0  0  0
    7.7511   -9.3268    0.0000 C   0  0  1  0  0  0  0  0  0  0  0  0
    8.5357   -9.5818    0.0000 C   0  0  0  0  0  0  0  0  0  0  0  0
    9.0206   -8.9143    0.0000 C   0  0  1  0  0  0  0  0  0  0  0  0
    8.5357   -8.2469    0.0000 C   0  0  2  0  0  0  0  0  0  0  0  0
    7.7511   -8.5018    0.0000 C   0  0  2  0  0  0  0  0  0  0  0  0
    7.0366   -8.0893    0.0000 C   0  0  0  0  0  0  0  0  0  0  0  0
    6.3221   -8.5018    0.0000 C   0  0  0  0  0  0  0  0  0  0  0  0
    6.3221   -9.3268    0.0000 C   0  0  2  0  0  0  0  0  0  0  0  0
    5.6077   -9.7393    0.0000 C   0  0  1  0  0  0  0  0  0  0  0  0
    3.4643  -10.9768    0.0000 O   0  0  0  0  0  0  0  0  0  0  0  0
    7.7511  -10.1518    0.0000 C   0  0  0  0  0  0  0  0  0  0  0  0
    7.7511   -7.6435    0.0000 C   0  0  0  0  0  0  0  0  0  0  0  0
    5.6077   -8.9143    0.0000 C   0  0  0  0  0  0  0  0  0  0  0  0
    5.3057  -11.6913    0.0000 C   0  0  0  0  0  0  0  0  0  0  0  0
    4.4807  -11.6913    0.0000 C   0  0  0  0  0  0  0  0  0  0  0  0
    9.8456   -8.9143    0.0000 O   0  0  0  0  0  0  0  0  0  0  0  0
   10.6595   -6.3346    0.0000 C   0  0  0  0  0  0  0  0  0  0  0  0
    5.6077  -11.3893    0.0000 H   0  0  0  0  0  0  0  0  0  0  0  0
    6.3221  -10.1518    0.0000 H   0  0  0  0  0  0  0  0  0  0  0  0
    9.0034   -4.4953    0.0000 C   0  0  0  0  0  0  0  0  0  0  0  0
    8.1965   -4.6668    0.0000 C   0  0  0  0  0  0  0  0  0  0  0  0
    7.9415   -5.4514    0.0000 C   0  0  0  0  0  0  0  0  0  0  0  0
    8.4936   -6.0645    0.0000 C   0  0  0  0  0  0  0  0  0  0  0  0
    9.8526   -6.5061    0.0000 O   0  0  0  0  0  0  0  0  0  0  0  0
   10.1497   -7.9038    0.0000 O   0  0  0  0  0  0  0  0  0  0  0  0
    8.2386   -6.8492    0.0000 C   0  0  0  0  0  0  0  0  0  0  0  0
    9.5976   -7.2907    0.0000 C   0  0  0  0  0  0  0  0  0  0  0  0
    9.3203   -7.9919    0.0000 H   0  0  0  0  0  0  0  0  0  0  0  0
 34 27  1  0  0  0  0
 31  2  1  0  0  0  0
 31 30  1  0  0  0  0
 32 31  2  0  0  0  0
 33 32  1  0  0  0  0
 36 33  1  0  0  0  0
 37 34  1  0  0  0  0
 37 35  2  0  0  0  0
 37  1  1  0  0  0  0
  1 36  1  1  0  0  0
  3  4  1  0  0  0  0
  4  5  1  0  0  0  0
  5  6  1  0  0  0  0
  6  7  1  0  0  0  0
  7  8  1  0  0  0  0
  8  9  1  0  0  0  0
  9 10  2  0  0  0  0
 10 11  1  0  0  0  0
 11 12  1  0  0  0  0
 12 13  1  0  0  0  0
 13 14  1  0  0  0  0
 14 15  1  0  0  0  0
 11 15  1  0  0  0  0
 15 16  1  0  0  0  0
 16 17  1  0  0  0  0
 17 18  1  0  0  0  0
 10 18  1  0  0  0  0
 18 19  1  0  0  0  0
  7 19  1  0  0  0  0
  3 19  1  0  0  0  0
  5 20  2  0  0  0  0
 11 21  1  1  0  0  0
 15 22  1  6  0  0  0
 19 23  1  1  0  0  0
  6 24  1  0  0  0  0
  6 25  1  0  0  0  0
 13 26  1  1  0  0  0
 14  1  1  0  0  0  0
  7 28  1  6  0  0  0
 18 29  1  6  0  0  0
 14 38  1  1  0  0  0
M  END
>  <cdx:groupId>
168280

>  <cdx:fragmentId>
168189

$$$$
