567200.cdx
  Mrv1902 05222410192D          

 16 18  0  0  0  0            999 V2000
    8.7266   -7.1975    0.0000 H   0  0  0  0  0  0  0  0  0  0  0  0
    6.0572   -7.1513    0.0000 C   0  0  0  0  0  0  0  0  0  0  0  0
    7.9099   -6.0630    0.0000 C   0  0  0  0  0  0  0  0  0  0  0  0
    8.5689   -6.5594    0.0000 C   0  0  0  0  0  0  0  0  0  0  0  0
    7.1200   -9.5919    0.0000 C   0  0  0  0  0  0  0  0  0  0  0  0
    7.6164   -8.9330    0.0000 C   0  0  2  0  0  0  0  0  0  0  0  0
    8.4413   -8.9473    0.0000 C   0  0  0  0  0  0  0  0  0  0  0  0
    8.7098   -8.1672    0.0000 C   0  0  0  0  0  0  0  0  0  0  0  0
    8.0508   -7.6708    0.0000 C   0  0  2  0  0  0  0  0  0  0  0  0
    7.8095   -6.8819    0.0000 C   0  0  0  0  0  0  0  0  0  0  0  0
    6.9846   -6.8676    0.0000 C   0  0  0  0  0  0  0  0  0  0  0  0
    6.7162   -7.6477    0.0000 C   0  0  1  0  0  0  0  0  0  0  0  0
    6.0404   -8.1210    0.0000 C   0  0  0  0  0  0  0  0  0  0  0  0
    6.2818   -8.9099    0.0000 C   0  0  0  0  0  0  0  0  0  0  0  0
    7.1066   -8.9242    0.0000 C   0  0  0  0  0  0  0  0  0  0  0  0
    7.3751   -8.1441    0.0000 C   0  0  1  0  0  0  0  0  0  0  0  0
  9  1  1  6  0  0  0
 12  2  1  6  0  0  0
 10  3  1  0  0  0  0
 10  4  1  0  0  0  0
  6  5  1  1  0  0  0
 16 12  1  0  0  0  0
 16  9  1  0  0  0  0
 16  6  1  0  0  0  0
  7  6  1  0  0  0  0
  8  7  1  0  0  0  0
  9  8  1  0  0  0  0
 10  9  1  0  0  0  0
 11 10  1  0  0  0  0
 12 11  1  0  0  0  0
 13 12  1  0  0  0  0
 14 13  1  0  0  0  0
 15 14  2  0  0  0  0
 16 15  1  1  0  0  0
M  END
>  <cdx:groupId>
168335

>  <cdx:fragmentId>
168288

$$$$
