567342.cdx
  Mrv1902 05222410282D          

 14 13  0  0  0  0            999 V2000
   15.1115  -13.1890    0.0000 C   0  0  0  0  0  0  0  0  0  0  0  0
   14.3970  -13.6015    0.0000 C   0  0  0  0  0  0  0  0  0  0  0  0
   13.6826  -13.1890    0.0000 C   0  0  0  0  0  0  0  0  0  0  0  0
   12.9681  -13.6015    0.0000 C   0  0  0  0  0  0  0  0  0  0  0  0
   12.2536  -13.1890    0.0000 C   0  0  0  0  0  0  0  0  0  0  0  0
   11.5392  -13.6015    0.0000 C   0  0  0  0  0  0  0  0  0  0  0  0
   15.1115  -12.3640    0.0000 O   0  0  0  0  0  0  0  0  0  0  0  0
   15.8260  -13.6015    0.0000 O   0  0  0  0  0  0  0  0  0  0  0  0
   16.5405  -13.1890    0.0000 C   0  0  0  0  0  0  0  0  0  0  0  0
   17.2549  -13.6015    0.0000 C   0  0  0  0  0  0  0  0  0  0  0  0
   17.9694  -13.1890    0.0000 C   0  0  0  0  0  0  0  0  0  0  0  0
   18.6839  -13.6015    0.0000 C   0  0  0  0  0  0  0  0  0  0  0  0
   19.3983  -13.1890    0.0000 C   0  0  0  0  0  0  0  0  0  0  0  0
   18.6839  -14.4265    0.0000 C   0  0  0  0  0  0  0  0  0  0  0  0
  1  2  1  0  0  0  0
  2  3  1  0  0  0  0
  3  4  1  0  0  0  0
  4  5  1  0  0  0  0
  5  6  1  0  0  0  0
  1  7  2  0  0  0  0
  1  8  1  0  0  0  0
  9 10  1  0  0  0  0
 10 11  1  0  0  0  0
 11 12  1  0  0  0  0
 12 13  1  0  0  0  0
 12 14  1  0  0  0  0
  8  9  1  0  0  0  0
M  END
>  <cdx:groupId>
1654

>  <cdx:fragmentId>
1616

$$$$
