567645.cdx
  Mrv1902 05222410262D          

 38 43  0  0  0  0            999 V2000
    6.3442   -8.0964    0.0000 C   0  0  1  0  0  0  0  0  0  0  0  0
    5.6415   -7.6641    0.0000 C   0  0  0  0  0  0  0  0  0  0  0  0
    4.8500   -7.8971    0.0000 N   0  0  0  0  0  0  0  0  0  0  0  0
    4.3839   -7.2164    0.0000 C   0  0  0  0  0  0  0  0  0  0  0  0
    3.5661   -7.1073    0.0000 C   0  0  0  0  0  0  0  0  0  0  0  0
    3.2517   -6.3446    0.0000 C   0  0  0  0  0  0  0  0  0  0  0  0
    3.7550   -5.6909    0.0000 C   0  0  0  0  0  0  0  0  0  0  0  0
    4.5728   -5.8000    0.0000 C   0  0  0  0  0  0  0  0  0  0  0  0
    4.8872   -6.5627    0.0000 C   0  0  0  0  0  0  0  0  0  0  0  0
    5.6644   -6.8394    0.0000 C   0  0  0  0  0  0  0  0  0  0  0  0
    6.3901   -6.4470    0.0000 C   0  0  0  0  0  0  0  0  0  0  0  0
    7.0928   -6.8792    0.0000 C   0  0  0  0  0  0  0  0  0  0  0  0
    7.0698   -7.7039    0.0000 N   0  0  0  0  0  0  0  0  0  0  0  0
    7.7725   -8.1362    0.0000 C   0  0  0  0  0  0  0  0  0  0  0  0
    7.7495   -8.9609    0.0000 C   0  0  0  0  0  0  0  0  0  0  0  0
    8.4522   -9.3931    0.0000 C   0  0  0  0  0  0  0  0  0  0  0  0
    8.4293  -10.2178    0.0000 O   0  0  0  0  0  0  0  0  0  0  0  0
    7.7036  -10.6102    0.0000 C   0  0  0  0  0  0  0  0  0  0  0  0
    7.0009  -10.1780    0.0000 C   0  0  1  0  0  0  0  0  0  0  0  0
    7.0239   -9.3533    0.0000 C   0  0  2  0  0  0  0  0  0  0  0  0
    6.3212   -8.9210    0.0000 C   0  0  0  0  0  0  0  0  0  0  0  0
    8.4982   -7.7437    0.0000 O   0  0  0  0  0  0  0  0  0  0  0  0
    7.6806  -11.4349    0.0000 O   0  0  0  0  0  0  0  0  0  0  0  0
    6.4673  -12.1897    0.0000 O   0  0  0  0  0  0  0  0  0  0  0  0
    7.2918  -12.1625    0.0000 C   0  0  2  0  0  0  0  0  0  0  0  0
    7.7276  -12.8631    0.0000 C   0  0  1  0  0  0  0  0  0  0  0  0
    7.3388  -13.5907    0.0000 C   0  0  2  0  0  0  0  0  0  0  0  0
    6.5143  -13.6179    0.0000 C   0  0  1  0  0  0  0  0  0  0  0  0
    6.0785  -12.9174    0.0000 C   0  0  1  0  0  0  0  0  0  0  0  0
    5.2539  -12.9445    0.0000 C   0  0  0  0  0  0  0  0  0  0  0  0
    4.8652  -13.6722    0.0000 O   0  0  0  0  0  0  0  0  0  0  0  0
    6.1255  -14.3455    0.0000 O   0  0  0  0  0  0  0  0  0  0  0  0
    7.7746  -14.2912    0.0000 O   0  0  0  0  0  0  0  0  0  0  0  0
    8.5522  -12.8359    0.0000 O   0  0  0  0  0  0  0  0  0  0  0  0
    6.2752  -10.5704    0.0000 C   0  0  0  0  0  0  0  0  0  0  0  0
    6.2522  -11.3951    0.0000 C   0  0  0  0  0  0  0  0  0  0  0  0
    5.6185   -8.4888    0.0000 H   0  0  0  0  0  0  0  0  0  0  0  0
    6.2982   -9.7457    0.0000 H   0  0  0  0  0  0  0  0  0  0  0  0
  1  2  1  0  0  0  0
  2  3  1  0  0  0  0
  3  4  1  0  0  0  0
  4  5  2  0  0  0  0
  5  6  1  0  0  0  0
  6  7  2  0  0  0  0
  7  8  1  0  0  0  0
  8  9  2  0  0  0  0
  9 10  1  0  0  0  0
 10 11  1  0  0  0  0
 11 12  1  0  0  0  0
 12 13  1  0  0  0  0
 13 14  1  0  0  0  0
 14 15  1  0  0  0  0
 15 16  2  0  0  0  0
 16 17  1  0  0  0  0
 17 18  1  0  0  0  0
 18 19  1  0  0  0  0
 19 20  1  0  0  0  0
 20 21  1  0  0  0  0
  1 21  1  0  0  0  0
  1 13  1  0  0  0  0
 15 20  1  0  0  0  0
  2 10  2  0  0  0  0
  4  9  1  0  0  0  0
 14 22  2  0  0  0  0
 24 25  1  0  0  0  0
 25 26  1  0  0  0  0
 26 27  1  0  0  0  0
 27 28  1  0  0  0  0
 28 29  1  0  0  0  0
 24 29  1  0  0  0  0
 30 31  1  0  0  0  0
 29 30  1  1  0  0  0
 28 32  1  6  0  0  0
 27 33  1  1  0  0  0
 26 34  1  6  0  0  0
 25 23  1  1  0  0  0
 18 23  1  0  0  0  0
 35 36  2  0  0  0  0
 19 35  1  6  0  0  0
  1 37  1  6  0  0  0
 20 38  1  1  0  0  0
M  END
>  <cdx:fragmentId>
168340

$$$$
