568.cdx
  Mrv1902 05222410232D          

 13 15  0  0  0  0            999 V2000
    4.2034   -2.9501    0.0000 O   0  0  0  0  0  0  0  0  0  0  0  0
    4.8708   -3.4350    0.0000 C   0  0  0  0  0  0  0  0  0  0  0  0
    4.6159   -4.2196    0.0000 C   0  0  0  0  0  0  0  0  0  0  0  0
    3.7909   -4.2196    0.0000 C   0  0  0  0  0  0  0  0  0  0  0  0
    3.5359   -3.4350    0.0000 C   0  0  0  0  0  0  0  0  0  0  0  0
    5.1679   -4.8327    0.0000 C   0  0  0  0  0  0  0  0  0  0  0  0
    5.9749   -4.6612    0.0000 C   0  0  0  0  0  0  0  0  0  0  0  0
    6.2298   -3.8765    0.0000 C   0  0  0  0  0  0  0  0  0  0  0  0
    5.6778   -3.2635    0.0000 C   0  0  0  0  0  0  0  0  0  0  0  0
    2.7290   -3.2635    0.0000 C   0  0  0  0  0  0  0  0  0  0  0  0
    2.1769   -3.8765    0.0000 C   0  0  0  0  0  0  0  0  0  0  0  0
    2.4319   -4.6612    0.0000 C   0  0  0  0  0  0  0  0  0  0  0  0
    3.2388   -4.8327    0.0000 C   0  0  0  0  0  0  0  0  0  0  0  0
  1  2  1  0  0  0  0
  2  3  1  0  0  0  0
  3  4  1  0  0  0  0
  4  5  1  0  0  0  0
  1  5  1  0  0  0  0
  6  7  1  0  0  0  0
  7  8  2  0  0  0  0
  8  9  1  0  0  0  0
  9  2  2  0  0  0  0
  6  3  2  0  0  0  0
 10 11  1  0  0  0  0
 11 12  2  0  0  0  0
 12 13  1  0  0  0  0
 13  4  2  0  0  0  0
 10  5  2  0  0  0  0
M  END
>  <cdx:groupId>
43

>  <cdx:fragmentId>
5

$$$$
