4-O-dimethoxycinnamoylquinic acid.cdx
  Mrv1902 05222410212D          

 27 28  0  0  0  0            999 V2000
    3.5314   -7.2122    0.0000 C   0  0  0  0  0  0  0  0  0  0  0  0
    3.1189   -7.9266    0.0000 C   0  0  0  0  0  0  0  0  0  0  0  0
    3.9122   -7.6999    0.0000 C   0  0  0  0  0  0  0  0  0  0  0  0
    4.7103   -7.9266    0.0000 C   0  0  0  0  0  0  0  0  0  0  0  0
    5.1229   -7.2122    0.0000 C   0  0  0  0  0  0  0  0  0  0  0  0
    4.3295   -7.4388    0.0000 C   0  0  0  0  0  0  0  0  0  0  0  0
    5.9197   -7.4257    0.0000 O   0  0  0  0  0  0  0  0  0  0  0  0
    4.7420   -6.7243    0.0000 O   0  0  0  0  0  0  0  0  0  0  0  0
    2.3221   -7.7131    0.0000 C   0  0  0  0  0  0  0  0  0  0  0  0
    1.7387   -8.2965    0.0000 O   0  0  0  0  0  0  0  0  0  0  0  0
    2.1085   -6.9162    0.0000 O   0  0  0  0  0  0  0  0  0  0  0  0
    3.1189   -8.7516    0.0000 O   0  0  0  0  0  0  0  0  0  0  0  0
    4.7103   -8.7516    0.0000 O   0  0  0  0  0  0  0  0  0  0  0  0
    6.7444   -7.1169    0.0000 C   0  0  0  0  0  0  0  0  0  0  0  0
    7.4594   -7.5284    0.0000 C   0  0  0  0  0  0  0  0  0  0  0  0
    8.1733   -7.1150    0.0000 C   0  0  0  0  0  0  0  0  0  0  0  0
    8.8884   -7.5265    0.0000 C   0  0  0  0  0  0  0  0  0  0  0  0
    8.8895   -8.3515    0.0000 C   0  0  0  0  0  0  0  0  0  0  0  0
    9.6045   -8.7631    0.0000 C   0  0  0  0  0  0  0  0  0  0  0  0
   10.3184   -8.3496    0.0000 C   0  0  0  0  0  0  0  0  0  0  0  0
   10.3173   -7.5246    0.0000 C   0  0  0  0  0  0  0  0  0  0  0  0
    9.6023   -7.1131    0.0000 C   0  0  0  0  0  0  0  0  0  0  0  0
   11.0334   -8.7611    0.0000 O   0  0  0  0  0  0  0  0  0  0  0  0
   11.2480   -9.5577    0.0000 C   0  0  0  0  0  0  0  0  0  0  0  0
    6.7433   -6.2919    0.0000 O   0  0  0  0  0  0  0  0  0  0  0  0
    9.6045   -9.5881    0.0000 O   0  0  0  0  0  0  0  0  0  0  0  0
    8.8900  -10.0006    0.0000 C   0  0  0  0  0  0  0  0  0  0  0  0
  1  2  1  0  0  0  0
  2  3  1  0  0  0  0
  3  4  1  0  0  0  0
  4  5  1  0  0  0  0
  5  6  1  0  0  0  0
  6  1  1  0  0  0  0
  5  7  1  0  0  0  0
  6  8  1  0  0  0  0
  2  9  1  0  0  0  0
  2 12  1  0  0  0  0
  4 13  1  0  0  0  0
 14 15  1  0  0  0  0
 15 16  2  0  0  0  0
 16 17  1  0  0  0  0
 17 18  2  0  0  0  0
 18 19  1  0  0  0  0
 19 20  2  0  0  0  0
 20 21  1  0  0  0  0
 21 22  2  0  0  0  0
 22 17  1  0  0  0  0
 20 23  1  0  0  0  0
 23 24  1  0  0  0  0
 14 25  2  0  0  0  0
 14  7  1  0  0  0  0
 19 26  1  0  0  0  0
 26 27  1  0  0  0  0
  9 10  2  0  0  0  0
  9 11  1  0  0  0  0
M  STY  1   1 SUP
M  SAL   1  3   9  10  11
M  SBL   1  1   9
M  SMT   1 COOH
M  SAP   1  1   9   2  1
M  END
>  <cdx:fragmentId>
64

$$$$
