4-O-glucopyranosyl rosmarinic acid.cdx
  Mrv1902 05222410222D          

 30 31  0  0  0  0            999 V2000
    2.2720   -8.2500    0.0000 C   0  0  0  0  0  0  0  0  0  0  0  0
    2.2720   -9.0750    0.0000 C   0  0  0  0  0  0  0  0  0  0  0  0
    2.9865   -9.4875    0.0000 C   0  0  0  0  0  0  0  0  0  0  0  0
    3.7010   -9.0750    0.0000 C   0  0  0  0  0  0  0  0  0  0  0  0
    3.7010   -8.2500    0.0000 C   0  0  0  0  0  0  0  0  0  0  0  0
    2.9865   -7.8375    0.0000 C   0  0  0  0  0  0  0  0  0  0  0  0
    4.4154   -7.8375    0.0000 C   0  0  0  0  0  0  0  0  0  0  0  0
    5.1299   -8.2500    0.0000 C   0  0  0  0  0  0  0  0  0  0  0  0
    5.8444   -7.8375    0.0000 C   0  0  0  0  0  0  0  0  0  0  0  0
    6.5589   -8.2500    0.0000 O   0  0  0  0  0  0  0  0  0  0  0  0
    7.2733   -7.8375    0.0000 C   0  0  0  0  0  0  0  0  0  0  0  0
    7.9878   -8.2500    0.0000 C   0  0  0  0  0  0  0  0  0  0  0  0
    8.7023   -7.8375    0.0000 C   0  0  0  0  0  0  0  0  0  0  0  0
    9.4167   -8.2500    0.0000 C   0  0  0  0  0  0  0  0  0  0  0  0
   10.1312   -7.8375    0.0000 C   0  0  0  0  0  0  0  0  0  0  0  0
   10.1312   -7.0125    0.0000 C   0  0  0  0  0  0  0  0  0  0  0  0
    9.4167   -6.6000    0.0000 C   0  0  0  0  0  0  0  0  0  0  0  0
    8.7023   -7.0125    0.0000 C   0  0  0  0  0  0  0  0  0  0  0  0
    1.5576   -7.8375    0.0000 O   0  0  0  0  0  0  0  0  0  0  0  0
    1.5576   -9.4875    0.0000 O   0  0  0  0  0  0  0  0  0  0  0  0
    5.8444   -7.0125    0.0000 O   0  0  0  0  0  0  0  0  0  0  0  0
    7.2733   -7.0125    0.0000 C   0  0  0  0  0  0  0  0  0  0  0  0
    6.5589   -6.6000    0.0000 O   0  0  0  0  0  0  0  0  0  0  0  0
    7.9878   -6.6000    0.0000 O   0  0  0  0  0  0  0  0  0  0  0  0
   10.8457   -6.6000    0.0000 O   0  0  0  0  0  0  0  0  0  0  0  0
   10.8457   -8.2500    0.0000 O   0  0  0  0  0  0  0  0  0  0  0  0
   11.5602   -6.1875    0.0000 C   0  0  0  0  0  0  0  0  0  0  0  0
   11.5602   -5.3625    0.0000 C   0  0  0  0  0  0  0  0  0  0  0  0
   12.2746   -6.6000    0.0000 O   0  0  0  0  0  0  0  0  0  0  0  0
   12.2746   -4.9500    0.0000 O   0  0  0  0  0  0  0  0  0  0  0  0
  1  2  2  0  0  0  0
  2  3  1  0  0  0  0
  3  4  2  0  0  0  0
  4  5  1  0  0  0  0
  5  6  2  0  0  0  0
  6  1  1  0  0  0  0
  5  7  1  0  0  0  0
  7  8  2  0  0  0  0
  8  9  1  0  0  0  0
  9 10  1  0  0  0  0
 10 11  1  0  0  0  0
 11 12  1  0  0  0  0
 12 13  1  0  0  0  0
 13 14  2  0  0  0  0
 14 15  1  0  0  0  0
 15 16  2  0  0  0  0
 16 17  1  0  0  0  0
 17 18  2  0  0  0  0
 18 13  1  0  0  0  0
  1 19  1  0  0  0  0
  2 20  1  0  0  0  0
  9 21  2  0  0  0  0
 11 22  1  0  0  0  0
 16 25  1  0  0  0  0
 15 26  1  0  0  0  0
 22 23  2  0  0  0  0
 22 24  1  0  0  0  0
 25 27  1  0  0  0  0
 27 29  2  0  0  0  0
 27 28  1  0  0  0  0
 28 30  1  0  0  0  0
M  STY  2   1 SUP   2 SUP
M  SAL   1  3  22  23  24
M  SBL   1  1  23
M  SMT   1 COOH
M  SAP   1  1  22  11  1
M  SAL   2  5  25  27  28  29  30
M  SBL   2  1  24
M  SMT   2 OGlc
M  SAP   2  1  25  16  1
M  END
>  <cdx:fragmentId>
5

$$$$
