22568705.cdx
  Mrv1902 05222410272D          

 29 28  0  0  0  0            999 V2000
    0.0154  -15.1110    0.0000 C   0  0  0  0  0  0  0  0  0  0  0  0
    0.7299  -14.6985    0.0000 C   0  0  0  0  0  0  0  0  0  0  0  0
    1.4443  -15.1110    0.0000 C   0  0  0  0  0  0  0  0  0  0  0  0
    2.1588  -14.6985    0.0000 C   0  0  0  0  0  0  0  0  0  0  0  0
    2.8733  -15.1110    0.0000 C   0  0  0  0  0  0  0  0  0  0  0  0
    3.5877  -14.6985    0.0000 C   0  0  0  0  0  0  0  0  0  0  0  0
    4.3022  -15.1110    0.0000 C   0  0  0  0  0  0  0  0  0  0  0  0
    5.0167  -14.6985    0.0000 C   0  0  0  0  0  0  0  0  0  0  0  0
    5.7312  -15.1110    0.0000 C   0  0  0  0  0  0  0  0  0  0  0  0
    6.4456  -14.6985    0.0000 C   0  0  0  0  0  0  0  0  0  0  0  0
    7.1601  -15.1110    0.0000 C   0  0  0  0  0  0  0  0  0  0  0  0
    7.8746  -14.6985    0.0000 C   0  0  0  0  0  0  0  0  0  0  0  0
    8.5890  -15.1110    0.0000 C   0  0  0  0  0  0  0  0  0  0  0  0
    9.3035  -14.6985    0.0000 C   0  0  0  0  0  0  0  0  0  0  0  0
   10.0180  -15.1110    0.0000 C   0  0  0  0  0  0  0  0  0  0  0  0
   10.7325  -14.6985    0.0000 C   0  0  0  0  0  0  0  0  0  0  0  0
   11.4469  -15.1110    0.0000 C   0  0  0  0  0  0  0  0  0  0  0  0
   12.1614  -14.6985    0.0000 C   0  0  0  0  0  0  0  0  0  0  0  0
   12.8759  -15.1110    0.0000 C   0  0  0  0  0  0  0  0  0  0  0  0
   13.5903  -14.6985    0.0000 C   0  0  0  0  0  0  0  0  0  0  0  0
   14.3048  -15.1110    0.0000 C   0  0  0  0  0  0  0  0  0  0  0  0
   15.0193  -14.6985    0.0000 C   0  0  0  0  0  0  0  0  0  0  0  0
   15.7338  -15.1110    0.0000 C   0  0  0  0  0  0  0  0  0  0  0  0
   16.4482  -14.6985    0.0000 C   0  0  0  0  0  0  0  0  0  0  0  0
   17.1627  -15.1110    0.0000 C   0  0  0  0  0  0  0  0  0  0  0  0
   17.8772  -14.6985    0.0000 C   0  0  0  0  0  0  0  0  0  0  0  0
   18.5916  -15.1110    0.0000 C   0  0  0  0  0  0  0  0  0  0  0  0
   19.3061  -14.6985    0.0000 C   0  0  0  0  0  0  0  0  0  0  0  0
    6.4456  -13.8735    0.0000 O   0  0  0  0  0  0  0  0  0  0  0  0
  1  2  1  0  0  0  0
  2  3  1  0  0  0  0
  3  4  1  0  0  0  0
  4  5  1  0  0  0  0
  5  6  1  0  0  0  0
  6  7  1  0  0  0  0
  7  8  1  0  0  0  0
  8  9  1  0  0  0  0
  9 10  1  0  0  0  0
 10 11  1  0  0  0  0
 11 12  1  0  0  0  0
 12 13  1  0  0  0  0
 13 14  1  0  0  0  0
 14 15  1  0  0  0  0
 15 16  1  0  0  0  0
 16 17  1  0  0  0  0
 17 18  1  0  0  0  0
 18 19  1  0  0  0  0
 19 20  1  0  0  0  0
 20 21  1  0  0  0  0
 21 22  1  0  0  0  0
 22 23  1  0  0  0  0
 23 24  1  0  0  0  0
 24 25  1  0  0  0  0
 25 26  1  0  0  0  0
 26 27  1  0  0  0  0
 27 28  1  0  0  0  0
 10 29  1  0  0  0  0
M  END
>  <cdx:groupId>
143009

>  <cdx:fragmentId>
142926

$$$$
