5690.cdx
  Mrv1902 05222410222D          

 27 29  0  0  0  0            999 V2000
    2.5402   -6.0225    0.0000 C   0  0  0  0  0  0  0  0  0  0  0  0
    2.5402   -6.8475    0.0000 C   0  0  0  0  0  0  0  0  0  0  0  0
    3.2546   -7.2600    0.0000 C   0  0  0  0  0  0  0  0  0  0  0  0
    3.9691   -6.8475    0.0000 C   0  0  0  0  0  0  0  0  0  0  0  0
    3.9691   -6.0225    0.0000 C   0  0  0  0  0  0  0  0  0  0  0  0
    3.2546   -5.6100    0.0000 C   0  0  0  0  0  0  0  0  0  0  0  0
    4.7537   -7.1024    0.0000 C   0  0  0  0  0  0  0  0  0  0  0  0
    5.2386   -6.4350    0.0000 C   0  0  0  0  0  0  0  0  0  0  0  0
    4.7537   -5.7676    0.0000 O   0  0  0  0  0  0  0  0  0  0  0  0
    6.0636   -6.4350    0.0000 C   0  0  0  0  0  0  0  0  0  0  0  0
    6.4761   -7.1495    0.0000 C   0  0  0  0  0  0  0  0  0  0  0  0
    7.3011   -7.1495    0.0000 C   0  0  0  0  0  0  0  0  0  0  0  0
    7.7136   -6.4350    0.0000 C   0  0  0  0  0  0  0  0  0  0  0  0
    7.3011   -5.7205    0.0000 C   0  0  0  0  0  0  0  0  0  0  0  0
    6.4761   -5.7205    0.0000 C   0  0  0  0  0  0  0  0  0  0  0  0
    7.7136   -7.8639    0.0000 C   0  0  0  0  0  0  0  0  0  0  0  0
    8.5386   -7.8639    0.0000 C   0  0  0  0  0  0  0  0  0  0  0  0
    8.5386   -6.4350    0.0000 O   0  0  0  0  0  0  0  0  0  0  0  0
    8.9511   -8.5784    0.0000 C   0  0  0  0  0  0  0  0  0  0  0  0
    9.7761   -8.5784    0.0000 C   0  0  0  0  0  0  0  0  0  0  0  0
    1.8257   -5.6100    0.0000 O   0  0  0  0  0  0  0  0  0  0  0  0
    4.9672   -7.8993    0.0000 C   0  0  0  0  0  0  0  0  0  0  0  0
    6.0636   -5.0061    0.0000 O   0  0  0  0  0  0  0  0  0  0  0  0
    6.0636   -7.8639    0.0000 O   0  0  0  0  0  0  0  0  0  0  0  0
    8.5386   -9.2929    0.0000 C   0  0  0  0  0  0  0  0  0  0  0  0
    8.9511   -7.1495    0.0000 C   0  0  0  0  0  0  0  0  0  0  0  0
    6.4761   -8.5784    0.0000 C   0  0  0  0  0  0  0  0  0  0  0  0
  1  2  2  0  0  0  0
  2  3  1  0  0  0  0
  3  4  2  0  0  0  0
  4  5  1  0  0  0  0
  5  6  2  0  0  0  0
  6  1  1  0  0  0  0
  4  7  1  0  0  0  0
  7  8  2  0  0  0  0
  8  9  1  0  0  0  0
  9  5  1  0  0  0  0
  8 10  1  0  0  0  0
 10 11  2  0  0  0  0
 11 12  1  0  0  0  0
 12 13  2  0  0  0  0
 13 14  1  0  0  0  0
 14 15  2  0  0  0  0
 15 10  1  0  0  0  0
 12 16  1  0  0  0  0
 16 17  1  0  0  0  0
 18 13  1  0  0  0  0
 17 19  2  0  0  0  0
 19 20  1  0  0  0  0
  1 21  1  0  0  0  0
  7 22  1  0  0  0  0
 15 23  1  0  0  0  0
 11 24  1  0  0  0  0
 19 25  1  0  0  0  0
 18 26  1  0  0  0  0
 24 27  1  0  0  0  0
M  END
>  <cdx:fragmentId>
5

$$$$
