569167.cdx
  Mrv1902 05222410202D          

 11 12  0  0  0  0            999 V2000
   15.7936  -12.6739    0.0000 C   0  0  0  0  0  0  0  0  0  0  0  0
   15.0791  -13.0864    0.0000 C   0  0  0  0  0  0  0  0  0  0  0  0
   15.0791  -13.9114    0.0000 C   0  0  0  0  0  0  0  0  0  0  0  0
   15.7936  -14.3239    0.0000 C   0  0  0  0  0  0  0  0  0  0  0  0
   16.5081  -13.9114    0.0000 C   0  0  0  0  0  0  0  0  0  0  0  0
   16.5081  -13.0864    0.0000 C   0  0  0  0  0  0  0  0  0  0  0  0
   15.9762  -13.3934    0.0000 C   0  0  0  0  0  0  0  0  0  0  0  0
   14.3646  -12.6739    0.0000 C   0  0  0  0  0  0  0  0  0  0  0  0
   13.6502  -12.2614    0.0000 C   0  0  0  0  0  0  0  0  0  0  0  0
   16.9206  -12.3720    0.0000 C   0  0  0  0  0  0  0  0  0  0  0  0
   17.3331  -13.0864    0.0000 C   0  0  0  0  0  0  0  0  0  0  0  0
  1  2  1  0  0  0  0
  2  3  1  0  0  0  0
  3  4  1  0  0  0  0
  4  5  1  0  0  0  0
  5  6  1  0  0  0  0
  1  6  1  0  0  0  0
  1  7  1  0  0  0  0
  7  5  1  0  0  0  0
  8  9  2  0  0  0  0
  2  8  2  0  0  0  0
  6 10  1  0  0  0  0
  6 11  1  0  0  0  0
M  END
>  <cdx:groupId>
1693

>  <cdx:fragmentId>
1662

$$$$
