5691.cdx
  Mrv1902 05222410222D          

 22 24  0  0  0  0            999 V2000
    9.2338   -4.7369    0.0000 O   0  0  0  0  0  0  0  0  0  0  0  0
    4.9469   -4.7369    0.0000 O   0  0  0  0  0  0  0  0  0  0  0  0
    4.9469   -6.3869    0.0000 O   0  0  0  0  0  0  0  0  0  0  0  0
    7.8048   -9.6869    0.0000 O   0  0  0  0  0  0  0  0  0  0  0  0
    7.0903   -7.6244    0.0000 C   0  0  0  0  0  0  0  0  0  0  0  0
    7.0903   -8.4494    0.0000 C   0  0  0  0  0  0  0  0  0  0  0  0
    7.8048   -8.8619    0.0000 C   0  0  0  0  0  0  0  0  0  0  0  0
    8.5193   -8.4494    0.0000 C   0  0  0  0  0  0  0  0  0  0  0  0
    7.8048   -7.2119    0.0000 C   0  0  0  0  0  0  0  0  0  0  0  0
    8.5193   -7.6244    0.0000 C   0  0  0  0  0  0  0  0  0  0  0  0
    7.8048   -6.3869    0.0000 C   0  0  0  0  0  0  0  0  0  0  0  0
    8.5193   -5.9744    0.0000 C   0  0  0  0  0  0  0  0  0  0  0  0
    8.5193   -5.1494    0.0000 C   0  0  0  0  0  0  0  0  0  0  0  0
    7.8048   -4.7369    0.0000 O   0  0  0  0  0  0  0  0  0  0  0  0
    6.3759   -6.3869    0.0000 C   0  0  0  0  0  0  0  0  0  0  0  0
    7.0903   -5.9744    0.0000 C   0  0  0  0  0  0  0  0  0  0  0  0
    7.0903   -5.1494    0.0000 C   0  0  0  0  0  0  0  0  0  0  0  0
    6.3759   -4.7369    0.0000 C   0  0  0  0  0  0  0  0  0  0  0  0
    5.6614   -5.1494    0.0000 C   0  0  0  0  0  0  0  0  0  0  0  0
    5.6614   -5.9744    0.0000 C   0  0  0  0  0  0  0  0  0  0  0  0
    8.5193  -10.0994    0.0000 C   0  0  0  0  0  0  0  0  0  0  0  0
    4.2325   -5.1494    0.0000 C   0  0  0  0  0  0  0  0  0  0  0  0
 13  1  2  0  0  0  0
 19  2  1  0  0  0  0
 20  3  1  0  0  0  0
  7  4  1  0  0  0  0
  5  9  1  0  0  0  0
  6  5  2  0  0  0  0
  7  6  1  0  0  0  0
  8  7  2  0  0  0  0
 10  8  1  0  0  0  0
  9 11  1  0  0  0  0
 10  9  2  0  0  0  0
 11 16  1  0  0  0  0
 12 11  2  0  0  0  0
 13 12  1  0  0  0  0
 14 13  1  0  0  0  0
 17 14  1  0  0  0  0
 15 20  1  0  0  0  0
 16 15  2  0  0  0  0
 17 16  1  0  0  0  0
 18 17  2  0  0  0  0
 19 18  1  0  0  0  0
 20 19  2  0  0  0  0
  4 21  1  0  0  0  0
  2 22  1  0  0  0  0
M  END
>  <cdx:fragmentId>
5

$$$$
