569561.cdx
  Mrv1902 05222410202D          

 17 17  0  0  0  0            999 V2000
    7.5958   -5.6511    0.0000 O   0  0  0  0  0  0  0  0  0  0  0  0
    6.1671   -5.6764    0.0000 O   0  0  0  0  0  0  0  0  0  0  0  0
    6.8595   -4.4264    0.0000 C   0  0  0  0  0  0  0  0  0  0  0  0
    6.8741   -5.2513    0.0000 C   0  0  0  0  0  0  0  0  0  0  0  0
    8.3321   -6.8757    0.0000 O   0  0  0  0  0  0  0  0  0  0  0  0
    9.0245   -5.6257    0.0000 O   0  0  0  0  0  0  0  0  0  0  0  0
    9.7608   -6.8504    0.0000 C   0  0  0  0  0  0  0  0  0  0  0  0
    9.0391   -6.4506    0.0000 C   0  0  0  0  0  0  0  0  0  0  0  0
    6.2109   -8.1510    0.0000 C   0  0  0  0  0  0  0  0  0  0  0  0
    6.2256   -8.9759    0.0000 C   0  0  0  0  0  0  0  0  0  0  0  0
    6.9472   -9.3757    0.0000 C   0  0  0  0  0  0  0  0  0  0  0  0
    7.6543   -8.9506    0.0000 C   0  0  0  0  0  0  0  0  0  0  0  0
    7.6397   -8.1257    0.0000 C   0  0  0  0  0  0  0  0  0  0  0  0
    6.9180   -7.7259    0.0000 C   0  0  0  0  0  0  0  0  0  0  0  0
    6.1817   -6.5013    0.0000 O   0  0  0  0  0  0  0  0  0  0  0  0
    6.9034   -6.9010    0.0000 C   0  0  0  0  0  0  0  0  0  0  0  0
    7.6104   -6.4759    0.0000 C   0  0  0  0  0  0  0  0  0  0  0  0
 17  1  1  0  0  0  0
  4  1  1  0  0  0  0
  4  2  2  0  0  0  0
  4  3  1  0  0  0  0
 17  5  1  0  0  0  0
  8  5  1  0  0  0  0
  8  6  2  0  0  0  0
  8  7  1  0  0  0  0
 14  9  2  0  0  0  0
 10  9  1  0  0  0  0
 11 10  2  0  0  0  0
 12 11  1  0  0  0  0
 13 12  2  0  0  0  0
 14 13  1  0  0  0  0
 16 14  1  0  0  0  0
 16 15  2  0  0  0  0
 17 16  1  0  0  0  0
M  END
>  <cdx:fragmentId>
1700

$$$$
