5696.cdx
  Mrv1902 05222410202D          

 40 42  0  0  0  0            999 V2000
    5.1029   -7.3356    0.0000 O   0  0  0  0  0  0  0  0  0  0  0  0
    5.1029   -6.5106    0.0000 C   0  0  2  0  0  0  0  0  0  0  0  0
    5.8174   -6.0981    0.0000 C   0  0  1  0  0  0  0  0  0  0  0  0
    5.8174   -5.2731    0.0000 C   0  0  0  0  0  0  0  0  0  0  0  0
    5.1029   -4.8606    0.0000 C   0  0  1  0  0  0  0  0  0  0  0  0
    4.3885   -5.2731    0.0000 C   0  0  0  0  0  0  0  0  0  0  0  0
    4.3885   -6.0981    0.0000 C   0  0  1  0  0  0  0  0  0  0  0  0
    6.5319   -6.5106    0.0000 O   0  0  0  0  0  0  0  0  0  0  0  0
    3.6740   -6.5106    0.0000 O   0  0  0  0  0  0  0  0  0  0  0  0
    4.6904   -4.1462    0.0000 O   0  0  0  0  0  0  0  0  0  0  0  0
    5.5154   -4.1462    0.0000 C   0  0  0  0  0  0  0  0  0  0  0  0
    6.3404   -4.1462    0.0000 O   0  0  0  0  0  0  0  0  0  0  0  0
    5.1029   -3.4317    0.0000 O   0  0  0  0  0  0  0  0  0  0  0  0
    7.9723   -9.8144    0.0000 C   0  0  0  0  0  0  0  0  0  0  0  0
    8.6877  -10.2255    0.0000 C   0  0  0  0  0  0  0  0  0  0  0  0
    9.4013   -9.8115    0.0000 C   0  0  0  0  0  0  0  0  0  0  0  0
    9.3996   -8.9865    0.0000 C   0  0  0  0  0  0  0  0  0  0  0  0
    8.6843   -8.5755    0.0000 C   0  0  0  0  0  0  0  0  0  0  0  0
    7.9707   -8.9894    0.0000 C   0  0  0  0  0  0  0  0  0  0  0  0
   10.1166  -10.2226    0.0000 O   0  0  0  0  0  0  0  0  0  0  0  0
   10.1132   -8.5726    0.0000 O   0  0  0  0  0  0  0  0  0  0  0  0
    7.2553   -8.5784    0.0000 C   0  0  0  0  0  0  0  0  0  0  0  0
    7.2536   -7.7534    0.0000 C   0  0  0  0  0  0  0  0  0  0  0  0
    6.5383   -7.3424    0.0000 C   0  0  0  0  0  0  0  0  0  0  0  0
    5.8247   -7.7563    0.0000 O   0  0  0  0  0  0  0  0  0  0  0  0
    4.3854   -7.7590    0.0000 C   0  0  0  0  0  0  0  0  0  0  0  0
    3.6709   -7.3465    0.0000 O   0  0  0  0  0  0  0  0  0  0  0  0
    4.3854   -8.5840    0.0000 C   0  0  0  0  0  0  0  0  0  0  0  0
    3.6709   -8.9965    0.0000 C   0  0  0  0  0  0  0  0  0  0  0  0
    3.6709   -9.8215    0.0000 C   0  0  0  0  0  0  0  0  0  0  0  0
    2.9564  -10.2340    0.0000 C   0  0  0  0  0  0  0  0  0  0  0  0
    2.9564  -11.0590    0.0000 C   0  0  0  0  0  0  0  0  0  0  0  0
    3.6709  -11.4715    0.0000 C   0  0  0  0  0  0  0  0  0  0  0  0
    4.3854  -11.0590    0.0000 C   0  0  0  0  0  0  0  0  0  0  0  0
    4.3854  -10.2340    0.0000 C   0  0  0  0  0  0  0  0  0  0  0  0
    2.2420  -11.4715    0.0000 O   0  0  0  0  0  0  0  0  0  0  0  0
    3.6709  -12.2965    0.0000 O   0  0  0  0  0  0  0  0  0  0  0  0
    5.0998  -11.4715    0.0000 O   0  0  0  0  0  0  0  0  0  0  0  0
    5.8143  -11.0590    0.0000 C   0  0  0  0  0  0  0  0  0  0  0  0
    1.5275  -11.0590    0.0000 C   0  0  0  0  0  0  0  0  0  0  0  0
  2  1  1  1  0  0  0
  2  3  1  0  0  0  0
  3  4  1  0  0  0  0
  4  5  1  0  0  0  0
  5  6  1  0  0  0  0
  6  7  1  0  0  0  0
  7  2  1  0  0  0  0
  3  8  1  1  0  0  0
  7  9  1  6  0  0  0
  5 10  1  1  0  0  0
  5 11  1  0  0  0  0
 11 12  1  0  0  0  0
 11 13  2  0  0  0  0
 14 15  2  0  0  0  0
 15 16  1  0  0  0  0
 16 17  2  0  0  0  0
 17 18  1  0  0  0  0
 18 19  2  0  0  0  0
 19 14  1  0  0  0  0
 16 20  1  0  0  0  0
 17 21  1  0  0  0  0
 19 22  1  0  0  0  0
 22 23  2  0  0  0  0
 23 24  1  0  0  0  0
 24 25  2  0  0  0  0
 24  8  1  0  0  0  0
 26 27  2  0  0  0  0
 26 28  1  0  0  0  0
 28 29  2  0  0  0  0
 29 30  1  0  0  0  0
 30 31  2  0  0  0  0
 31 32  1  0  0  0  0
 32 33  2  0  0  0  0
 33 34  1  0  0  0  0
 34 35  2  0  0  0  0
 35 30  1  0  0  0  0
 32 36  1  0  0  0  0
 33 37  1  0  0  0  0
 34 38  1  0  0  0  0
 38 39  1  0  0  0  0
 36 40  1  0  0  0  0
  1 26  1  0  0  0  0
M  END
>  <cdx:fragmentId>
367

$$$$
