5697.cdx
  Mrv1902 05222410212D          

 41 43  0  0  0  0            999 V2000
    7.9629   -7.5281    0.0000 O   0  0  0  0  0  0  0  0  0  0  0  0
    7.9629   -6.7031    0.0000 C   0  0  2  0  0  0  0  0  0  0  0  0
    8.6774   -6.2906    0.0000 C   0  0  1  0  0  0  0  0  0  0  0  0
    8.6774   -5.4656    0.0000 C   0  0  0  0  0  0  0  0  0  0  0  0
    7.9629   -5.0531    0.0000 C   0  0  1  0  0  0  0  0  0  0  0  0
    7.2485   -5.4656    0.0000 C   0  0  0  0  0  0  0  0  0  0  0  0
    7.2485   -6.2906    0.0000 C   0  0  1  0  0  0  0  0  0  0  0  0
    9.3919   -6.7031    0.0000 O   0  0  0  0  0  0  0  0  0  0  0  0
    6.5340   -6.7031    0.0000 O   0  0  0  0  0  0  0  0  0  0  0  0
    7.5504   -4.3387    0.0000 O   0  0  0  0  0  0  0  0  0  0  0  0
    8.3754   -4.3387    0.0000 C   0  0  0  0  0  0  0  0  0  0  0  0
    9.2004   -4.3387    0.0000 O   0  0  0  0  0  0  0  0  0  0  0  0
    7.9629   -3.6242    0.0000 O   0  0  0  0  0  0  0  0  0  0  0  0
   10.8323  -10.0069    0.0000 C   0  0  0  0  0  0  0  0  0  0  0  0
   11.5477  -10.4180    0.0000 C   0  0  0  0  0  0  0  0  0  0  0  0
   12.2613  -10.0040    0.0000 C   0  0  0  0  0  0  0  0  0  0  0  0
   12.2596   -9.1790    0.0000 C   0  0  0  0  0  0  0  0  0  0  0  0
   11.5443   -8.7680    0.0000 C   0  0  0  0  0  0  0  0  0  0  0  0
   10.8307   -9.1819    0.0000 C   0  0  0  0  0  0  0  0  0  0  0  0
   12.9766  -10.4151    0.0000 O   0  0  0  0  0  0  0  0  0  0  0  0
   12.9732   -8.7651    0.0000 O   0  0  0  0  0  0  0  0  0  0  0  0
   12.9715   -7.9401    0.0000 C   0  0  0  0  0  0  0  0  0  0  0  0
   10.1153   -8.7709    0.0000 C   0  0  0  0  0  0  0  0  0  0  0  0
   10.1136   -7.9459    0.0000 C   0  0  0  0  0  0  0  0  0  0  0  0
    9.3983   -7.5349    0.0000 C   0  0  0  0  0  0  0  0  0  0  0  0
    8.6847   -7.9488    0.0000 O   0  0  0  0  0  0  0  0  0  0  0  0
    7.2503   -7.9665    0.0000 C   0  0  0  0  0  0  0  0  0  0  0  0
    6.5359   -7.5540    0.0000 O   0  0  0  0  0  0  0  0  0  0  0  0
    7.2503   -8.7915    0.0000 C   0  0  0  0  0  0  0  0  0  0  0  0
    6.5359   -9.2040    0.0000 C   0  0  0  0  0  0  0  0  0  0  0  0
    6.5359  -10.0290    0.0000 C   0  0  0  0  0  0  0  0  0  0  0  0
    5.8214  -10.4415    0.0000 C   0  0  0  0  0  0  0  0  0  0  0  0
    5.8214  -11.2665    0.0000 C   0  0  0  0  0  0  0  0  0  0  0  0
    6.5359  -11.6790    0.0000 C   0  0  0  0  0  0  0  0  0  0  0  0
    7.2503  -11.2665    0.0000 C   0  0  0  0  0  0  0  0  0  0  0  0
    7.2503  -10.4415    0.0000 C   0  0  0  0  0  0  0  0  0  0  0  0
    5.1069  -11.6790    0.0000 O   0  0  0  0  0  0  0  0  0  0  0  0
    6.5359  -12.5040    0.0000 O   0  0  0  0  0  0  0  0  0  0  0  0
    7.9648  -11.6790    0.0000 O   0  0  0  0  0  0  0  0  0  0  0  0
    8.6793  -11.2665    0.0000 C   0  0  0  0  0  0  0  0  0  0  0  0
    4.3924  -11.2665    0.0000 C   0  0  0  0  0  0  0  0  0  0  0  0
  2  1  1  1  0  0  0
  2  3  1  0  0  0  0
  3  4  1  0  0  0  0
  4  5  1  0  0  0  0
  5  6  1  0  0  0  0
  6  7  1  0  0  0  0
  7  2  1  0  0  0  0
  3  8  1  1  0  0  0
  7  9  1  6  0  0  0
  5 10  1  1  0  0  0
  5 11  1  0  0  0  0
 11 12  1  0  0  0  0
 11 13  2  0  0  0  0
 14 15  2  0  0  0  0
 15 16  1  0  0  0  0
 16 17  2  0  0  0  0
 17 18  1  0  0  0  0
 18 19  2  0  0  0  0
 19 14  1  0  0  0  0
 16 20  1  0  0  0  0
 17 21  1  0  0  0  0
 21 22  1  0  0  0  0
 19 23  1  0  0  0  0
 23 24  2  0  0  0  0
 24 25  1  0  0  0  0
 25 26  2  0  0  0  0
 25  8  1  0  0  0  0
 27 28  2  0  0  0  0
 27 29  1  0  0  0  0
 29 30  2  0  0  0  0
 30 31  1  0  0  0  0
 31 32  2  0  0  0  0
 32 33  1  0  0  0  0
 33 34  2  0  0  0  0
 34 35  1  0  0  0  0
 35 36  2  0  0  0  0
 36 31  1  0  0  0  0
 33 37  1  0  0  0  0
 34 38  1  0  0  0  0
 35 39  1  0  0  0  0
 39 40  1  0  0  0  0
 37 41  1  0  0  0  0
  1 27  1  0  0  0  0
M  END
>  <cdx:fragmentId>
146

$$$$
