5699.cdx
  Mrv1902 05222410242D          

 28 29  0  0  0  0            999 V2000
    6.4381   -6.2883    0.0000 O   0  0  0  0  0  0  0  0  0  0  0  0
    7.1569   -5.8833    0.0000 C   0  0  1  0  0  0  0  0  0  0  0  0
    7.8625   -6.3107    0.0000 C   0  0  1  0  0  0  0  0  0  0  0  0
    8.5855   -5.9134    0.0000 C   0  0  1  0  0  0  0  0  0  0  0  0
    8.5855   -5.0885    0.0000 C   0  0  0  0  0  0  0  0  0  0  0  0
    7.8625   -4.6611    0.0000 C   0  0  1  0  0  0  0  0  0  0  0  0
    7.1569   -5.0585    0.0000 C   0  0  0  0  0  0  0  0  0  0  0  0
    7.8452   -7.1356    0.0000 O   0  0  0  0  0  0  0  0  0  0  0  0
    7.4500   -3.9466    0.0000 O   0  0  0  0  0  0  0  0  0  0  0  0
    8.3435   -4.0095    0.0000 C   0  0  0  0  0  0  0  0  0  0  0  0
    9.1685   -4.0095    0.0000 O   0  0  0  0  0  0  0  0  0  0  0  0
    7.9310   -3.2950    0.0000 O   0  0  0  0  0  0  0  0  0  0  0  0
    9.2956   -6.3333    0.0000 O   0  0  0  0  0  0  0  0  0  0  0  0
    6.4029   -8.7591    0.0000 C   0  0  0  0  0  0  0  0  0  0  0  0
    6.3942   -9.5841    0.0000 C   0  0  0  0  0  0  0  0  0  0  0  0
    5.6754   -9.9890    0.0000 C   0  0  0  0  0  0  0  0  0  0  0  0
    5.6667  -10.8140    0.0000 C   0  0  0  0  0  0  0  0  0  0  0  0
    6.3768  -11.2340    0.0000 C   0  0  0  0  0  0  0  0  0  0  0  0
    7.0956  -10.8290    0.0000 C   0  0  0  0  0  0  0  0  0  0  0  0
    7.1043  -10.0041    0.0000 C   0  0  0  0  0  0  0  0  0  0  0  0
    4.9480  -11.2190    0.0000 O   0  0  0  0  0  0  0  0  0  0  0  0
    6.3682  -12.0589    0.0000 O   0  0  0  0  0  0  0  0  0  0  0  0
    7.8057  -11.2490    0.0000 O   0  0  0  0  0  0  0  0  0  0  0  0
    8.5245  -10.8440    0.0000 C   0  0  0  0  0  0  0  0  0  0  0  0
    4.2379  -10.7990    0.0000 C   0  0  0  0  0  0  0  0  0  0  0  0
    7.1216   -8.3541    0.0000 C   0  0  0  0  0  0  0  0  0  0  0  0
    7.1303   -7.5292    0.0000 C   0  0  0  0  0  0  0  0  0  0  0  0
    6.4202   -7.1092    0.0000 O   0  0  0  0  0  0  0  0  0  0  0  0
  2  1  1  6  0  0  0
  2  3  1  0  0  0  0
  3  4  1  0  0  0  0
  4  5  1  0  0  0  0
  5  6  1  0  0  0  0
  6  7  1  0  0  0  0
  7  2  1  0  0  0  0
  3  8  1  1  0  0  0
  6  9  1  1  0  0  0
  6 10  1  0  0  0  0
 10 11  1  0  0  0  0
 10 12  2  0  0  0  0
  4 13  1  1  0  0  0
 14 15  1  0  0  0  0
 15 16  2  0  0  0  0
 16 17  1  0  0  0  0
 17 18  2  0  0  0  0
 18 19  1  0  0  0  0
 19 20  2  0  0  0  0
 20 15  1  0  0  0  0
 17 21  1  0  0  0  0
 18 22  1  0  0  0  0
 19 23  1  0  0  0  0
 23 24  1  0  0  0  0
 21 25  1  0  0  0  0
 14 26  2  0  0  0  0
 26 27  1  0  0  0  0
 27 28  2  0  0  0  0
  8 27  1  0  0  0  0
M  END
>  <cdx:fragmentId>
189

$$$$
