570273.cdx
  Mrv1902 05222410252D          

 40 43  0  0  0  0            999 V2000
    6.4112  -14.6662    0.0000 C   0  0  1  0  0  0  0  0  0  0  0  0
    7.1257  -14.2537    0.0000 C   0  0  1  0  0  0  0  0  0  0  0  0
    7.1257  -13.4287    0.0000 C   0  0  1  0  0  0  0  0  0  0  0  0
    6.4112  -13.0162    0.0000 C   0  0  0  0  0  0  0  0  0  0  0  0
    5.6968  -13.4287    0.0000 C   0  0  0  0  0  0  0  0  0  0  0  0
    5.6968  -14.2537    0.0000 O   0  0  0  0  0  0  0  0  0  0  0  0
    7.9103  -13.1738    0.0000 C   0  0  0  0  0  0  0  0  0  0  0  0
    8.3953  -13.8412    0.0000 C   0  0  0  0  0  0  0  0  0  0  0  0
    7.9103  -14.5087    0.0000 C   0  0  0  0  0  0  0  0  0  0  0  0
    6.4112  -12.1912    0.0000 C   0  0  0  0  0  0  0  0  0  0  0  0
    7.1257  -11.7787    0.0000 O   0  0  0  0  0  0  0  0  0  0  0  0
    5.6968  -11.7787    0.0000 O   0  0  0  0  0  0  0  0  0  0  0  0
    8.1653  -15.2933    0.0000 C   0  0  0  0  0  0  0  0  0  0  0  0
    8.9723  -15.4648    0.0000 O   0  0  0  0  0  0  0  0  0  0  0  0
   10.0342  -16.4209    0.0000 O   0  0  0  0  0  0  0  0  0  0  0  0
    9.2272  -16.2494    0.0000 C   0  0  1  0  0  0  0  0  0  0  0  0
    8.6752  -16.8625    0.0000 C   0  0  2  0  0  0  0  0  0  0  0  0
    8.9301  -17.6471    0.0000 C   0  0  1  0  0  0  0  0  0  0  0  0
    9.7371  -17.8187    0.0000 C   0  0  2  0  0  0  0  0  0  0  0  0
   10.2891  -17.2056    0.0000 C   0  0  2  0  0  0  0  0  0  0  0  0
   11.0961  -17.3771    0.0000 C   0  0  0  0  0  0  0  0  0  0  0  0
   11.3096  -18.1740    0.0000 O   0  0  0  0  0  0  0  0  0  0  0  0
    9.9920  -18.6033    0.0000 O   0  0  0  0  0  0  0  0  0  0  0  0
    8.3781  -18.2602    0.0000 O   0  0  0  0  0  0  0  0  0  0  0  0
    7.8682  -16.6910    0.0000 O   0  0  0  0  0  0  0  0  0  0  0  0
    6.4112  -15.4912    0.0000 O   0  0  0  0  0  0  0  0  0  0  0  0
    4.9823  -15.4912    0.0000 O   0  0  0  0  0  0  0  0  0  0  0  0
    5.6968  -15.9037    0.0000 C   0  0  2  0  0  0  0  0  0  0  0  0
    5.6968  -16.7287    0.0000 C   0  0  1  0  0  0  0  0  0  0  0  0
    4.9823  -17.1412    0.0000 C   0  0  2  0  0  0  0  0  0  0  0  0
    4.2678  -16.7287    0.0000 C   0  0  1  0  0  0  0  0  0  0  0  0
    4.2678  -15.9037    0.0000 C   0  0  1  0  0  0  0  0  0  0  0  0
    3.5534  -15.4912    0.0000 C   0  0  0  0  0  0  0  0  0  0  0  0
    2.8389  -15.9037    0.0000 O   0  0  0  0  0  0  0  0  0  0  0  0
    3.5534  -17.1412    0.0000 O   0  0  0  0  0  0  0  0  0  0  0  0
    4.9823  -17.9662    0.0000 O   0  0  0  0  0  0  0  0  0  0  0  0
    6.4112  -17.1412    0.0000 O   0  0  0  0  0  0  0  0  0  0  0  0
    7.2120  -12.6082    0.0000 H   0  0  0  0  0  0  0  0  0  0  0  0
    7.2120  -15.0742    0.0000 H   0  0  0  0  0  0  0  0  0  0  0  0
    5.6968  -10.9537    0.0000 C   0  0  0  0  0  0  0  0  0  0  0  0
  1  2  1  0  0  0  0
  2  3  1  0  0  0  0
  3  4  1  0  0  0  0
  4  5  2  0  0  0  0
  5  6  1  0  0  0  0
  1  6  1  0  0  0  0
  7  8  1  0  0  0  0
  8  9  2  0  0  0  0
  9  2  1  0  0  0  0
  7  3  1  0  0  0  0
 10 11  2  0  0  0  0
 10 12  1  0  0  0  0
  4 10  1  0  0  0  0
 15 16  1  0  0  0  0
 16 17  1  0  0  0  0
 17 18  1  0  0  0  0
 18 19  1  0  0  0  0
 19 20  1  0  0  0  0
 15 20  1  0  0  0  0
 21 22  1  0  0  0  0
 20 21  1  1  0  0  0
 19 23  1  6  0  0  0
 18 24  1  1  0  0  0
 17 25  1  6  0  0  0
 16 14  1  1  0  0  0
 13 14  1  0  0  0  0
  9 13  1  0  0  0  0
 27 28  1  0  0  0  0
 28 29  1  0  0  0  0
 29 30  1  0  0  0  0
 30 31  1  0  0  0  0
 31 32  1  0  0  0  0
 27 32  1  0  0  0  0
 33 34  1  0  0  0  0
 32 33  1  1  0  0  0
 31 35  1  6  0  0  0
 30 36  1  1  0  0  0
 29 37  1  6  0  0  0
 28 26  1  1  0  0  0
  1 26  1  6  0  0  0
  3 38  1  6  0  0  0
  2 39  1  6  0  0  0
 12 40  1  0  0  0  0
M  END
>  <cdx:fragmentId>
74993

$$$$
