570681.cdx
  Mrv1902 05222410222D          

 19 20  0  0  0  0            999 V2000
   14.3970  -13.2859    0.0000 C   0  0  0  0  0  0  0  0  0  0  0  0
   13.6826  -13.6984    0.0000 C   0  0  0  0  0  0  0  0  0  0  0  0
   13.6826  -14.5234    0.0000 C   0  0  0  0  0  0  0  0  0  0  0  0
   12.9681  -14.9359    0.0000 C   0  0  0  0  0  0  0  0  0  0  0  0
   12.2536  -14.5234    0.0000 C   0  0  0  0  0  0  0  0  0  0  0  0
   12.2536  -13.6984    0.0000 C   0  0  0  0  0  0  0  0  0  0  0  0
   12.9681  -13.2859    0.0000 C   0  0  0  0  0  0  0  0  0  0  0  0
   14.3970  -12.4609    0.0000 O   0  0  0  0  0  0  0  0  0  0  0  0
   15.1115  -13.6984    0.0000 O   0  0  0  0  0  0  0  0  0  0  0  0
   14.3970  -14.9359    0.0000 C   0  0  0  0  0  0  0  0  0  0  0  0
   15.8260  -13.2859    0.0000 C   0  0  0  0  0  0  0  0  0  0  0  0
   16.5405  -13.6984    0.0000 C   0  0  0  0  0  0  0  0  0  0  0  0
   16.5405  -14.5234    0.0000 O   0  0  0  0  0  0  0  0  0  0  0  0
   17.2549  -13.2859    0.0000 C   0  0  0  0  0  0  0  0  0  0  0  0
   17.2549  -12.4609    0.0000 C   0  0  0  0  0  0  0  0  0  0  0  0
   17.9694  -12.0484    0.0000 C   0  0  0  0  0  0  0  0  0  0  0  0
   18.6839  -12.4609    0.0000 C   0  0  0  0  0  0  0  0  0  0  0  0
   18.6839  -13.2859    0.0000 C   0  0  0  0  0  0  0  0  0  0  0  0
   17.9694  -13.6984    0.0000 C   0  0  0  0  0  0  0  0  0  0  0  0
  1  2  1  0  0  0  0
  2  3  1  0  0  0  0
  3  4  2  0  0  0  0
  4  5  1  0  0  0  0
  5  6  2  0  0  0  0
  6  7  1  0  0  0  0
  2  7  2  0  0  0  0
  1  8  2  0  0  0  0
  1  9  1  0  0  0  0
  3 10  1  0  0  0  0
 11 12  1  0  0  0  0
 12 13  2  0  0  0  0
 12 14  1  0  0  0  0
 14 15  1  0  0  0  0
 15 16  2  0  0  0  0
 16 17  1  0  0  0  0
 17 18  2  0  0  0  0
 18 19  1  0  0  0  0
 14 19  2  0  0  0  0
  9 11  1  0  0  0  0
M  END
>  <cdx:groupId>
1866

>  <cdx:fragmentId>
1811

$$$$
