570683.cdx
  Mrv1902 05222410232D          

 12 13  0  0  0  0            999 V2000
   16.5362  -12.6672    0.0000 C   0  0  0  0  0  0  0  0  0  0  0  0
   17.2506  -13.0797    0.0000 C   0  0  0  0  0  0  0  0  0  0  0  0
   17.2506  -13.9047    0.0000 C   0  0  0  0  0  0  0  0  0  0  0  0
   16.5362  -14.3172    0.0000 C   0  0  0  0  0  0  0  0  0  0  0  0
   15.8217  -13.9047    0.0000 C   0  0  0  0  0  0  0  0  0  0  0  0
   15.1072  -14.3172    0.0000 C   0  0  0  0  0  0  0  0  0  0  0  0
   14.3928  -13.9047    0.0000 C   0  0  0  0  0  0  0  0  0  0  0  0
   14.3928  -13.0797    0.0000 C   0  0  0  0  0  0  0  0  0  0  0  0
   15.1072  -12.6672    0.0000 C   0  0  0  0  0  0  0  0  0  0  0  0
   15.8217  -13.0797    0.0000 C   0  0  0  0  0  0  0  0  0  0  0  0
   13.6783  -12.6672    0.0000 C   0  0  0  0  0  0  0  0  0  0  0  0
   13.6783  -14.3172    0.0000 C   0  0  0  0  0  0  0  0  0  0  0  0
  1  2  1  0  0  0  0
  2  3  1  0  0  0  0
  3  4  1  0  0  0  0
  4  5  2  0  0  0  0
  5  6  1  0  0  0  0
  6  7  1  0  0  0  0
  7  8  2  0  0  0  0
  8  9  1  0  0  0  0
  9 10  1  0  0  0  0
  1 10  1  0  0  0  0
  5 10  1  0  0  0  0
  8 11  1  0  0  0  0
  7 12  1  0  0  0  0
M  END
>  <cdx:groupId>
1908

>  <cdx:fragmentId>
1874

$$$$
