5057077.cdx
  Mrv1902 05222410242D          

 19 20  0  0  0  0            999 V2000
    7.1363   -5.0116    0.0000 C   0  0  0  0  0  0  0  0  0  0  0  0
    6.4218   -4.5991    0.0000 C   0  0  0  0  0  0  0  0  0  0  0  0
    6.4218   -3.7741    0.0000 O   0  0  0  0  0  0  0  0  0  0  0  0
    5.7073   -5.0116    0.0000 C   0  0  0  0  0  0  0  0  0  0  0  0
    5.7073   -5.8366    0.0000 C   0  0  0  0  0  0  0  0  0  0  0  0
    4.9928   -6.2491    0.0000 C   0  0  0  0  0  0  0  0  0  0  0  0
    4.2784   -5.8366    0.0000 C   0  0  0  0  0  0  0  0  0  0  0  0
    4.2784   -5.0116    0.0000 C   0  0  0  0  0  0  0  0  0  0  0  0
    4.9928   -4.5991    0.0000 C   0  0  0  0  0  0  0  0  0  0  0  0
    7.8507   -4.5991    0.0000 C   0  0  0  0  0  0  0  0  0  0  0  0
    8.5652   -5.0116    0.0000 C   0  0  0  0  0  0  0  0  0  0  0  0
    8.5652   -5.8366    0.0000 C   0  0  0  0  0  0  0  0  0  0  0  0
    9.2797   -6.2491    0.0000 C   0  0  0  0  0  0  0  0  0  0  0  0
    9.9941   -5.8366    0.0000 C   0  0  0  0  0  0  0  0  0  0  0  0
    9.9941   -5.0116    0.0000 C   0  0  0  0  0  0  0  0  0  0  0  0
    9.2797   -4.5991    0.0000 C   0  0  0  0  0  0  0  0  0  0  0  0
    3.5639   -6.2491    0.0000 O   0  0  0  0  0  0  0  0  0  0  0  0
   10.7086   -6.2491    0.0000 O   0  0  0  0  0  0  0  0  0  0  0  0
    7.8507   -6.2491    0.0000 O   0  0  0  0  0  0  0  0  0  0  0  0
  1  2  1  0  0  0  0
  2  3  2  0  0  0  0
  2  4  1  0  0  0  0
  4  5  1  0  0  0  0
  5  6  2  0  0  0  0
  6  7  1  0  0  0  0
  7  8  2  0  0  0  0
  8  9  1  0  0  0  0
  4  9  2  0  0  0  0
  1 10  2  0  0  0  0
 10 11  1  0  0  0  0
 11 12  1  0  0  0  0
 12 13  2  0  0  0  0
 13 14  1  0  0  0  0
 14 15  2  0  0  0  0
 15 16  1  0  0  0  0
 11 16  2  0  0  0  0
  7 17  1  0  0  0  0
 14 18  1  0  0  0  0
 12 19  1  0  0  0  0
M  END
>  <cdx:fragmentId>
5856

$$$$
