571676.cdx
  Mrv1902 05222410202D          

 13 13  0  0  0  0            999 V2000
   15.8217  -14.7396    0.0000 C   0  0  0  0  0  0  0  0  0  0  0  0
   15.8217  -13.9146    0.0000 C   0  0  0  0  0  0  0  0  0  0  0  0
   15.1072  -13.5021    0.0000 C   0  0  0  0  0  0  0  0  0  0  0  0
   14.3928  -13.9146    0.0000 C   0  0  0  0  0  0  0  0  0  0  0  0
   13.6783  -13.5021    0.0000 C   0  0  0  0  0  0  0  0  0  0  0  0
   12.9638  -13.9146    0.0000 C   0  0  0  0  0  0  0  0  0  0  0  0
   15.1072  -12.6771    0.0000 O   0  0  0  0  0  0  0  0  0  0  0  0
   16.5362  -13.5021    0.0000 C   0  0  0  0  0  0  0  0  0  0  0  0
   16.5362  -12.6771    0.0000 C   0  0  0  0  0  0  0  0  0  0  0  0
   17.2506  -12.2646    0.0000 C   0  0  0  0  0  0  0  0  0  0  0  0
   17.9651  -12.6771    0.0000 C   0  0  0  0  0  0  0  0  0  0  0  0
   17.9651  -13.5021    0.0000 C   0  0  0  0  0  0  0  0  0  0  0  0
   17.2506  -13.9146    0.0000 C   0  0  0  0  0  0  0  0  0  0  0  0
  1  2  1  0  0  0  0
  2  3  1  0  0  0  0
  3  4  1  0  0  0  0
  4  5  1  0  0  0  0
  5  6  2  0  0  0  0
  3  7  1  0  0  0  0
  8  9  1  0  0  0  0
  9 10  2  0  0  0  0
 10 11  1  0  0  0  0
 11 12  2  0  0  0  0
 12 13  1  0  0  0  0
  8 13  2  0  0  0  0
  2  8  1  0  0  0  0
M  END
>  <cdx:groupId>
1951

>  <cdx:fragmentId>
1915

$$$$
