3572008.cdx
  Mrv1902 05222410202D          

 11 10  0  0  0  0            999 V2000
   13.4571  -13.0000    0.0000 C   0  0  0  0  0  0  0  0  0  0  0  0
   14.1716  -13.4125    0.0000 C   0  0  0  0  0  0  0  0  0  0  0  0
   14.8861  -13.0000    0.0000 C   0  0  0  0  0  0  0  0  0  0  0  0
   15.6006  -13.4125    0.0000 C   0  0  0  0  0  0  0  0  0  0  0  0
   16.3150  -13.0000    0.0000 C   0  0  0  0  0  0  0  0  0  0  0  0
   17.0295  -13.4125    0.0000 C   0  0  0  0  0  0  0  0  0  0  0  0
   12.7427  -13.4125    0.0000 O   0  0  0  0  0  0  0  0  0  0  0  0
   17.7440  -13.0000    0.0000 O   0  0  0  0  0  0  0  0  0  0  0  0
   15.6006  -14.2375    0.0000 O   0  0  0  0  0  0  0  0  0  0  0  0
   14.8861  -12.1750    0.0000 O   0  0  0  0  0  0  0  0  0  0  0  0
   14.1716  -14.2375    0.0000 N   0  0  0  0  0  0  0  0  0  0  0  0
  1  2  1  0  0  0  0
  2  3  1  0  0  0  0
  3  4  1  0  0  0  0
  4  5  1  0  0  0  0
  5  6  1  0  0  0  0
  1  7  2  0  0  0  0
  6  8  1  0  0  0  0
  4  9  1  0  0  0  0
  3 10  1  0  0  0  0
  2 11  1  0  0  0  0
M  END
>  <cdx:groupId>
812

>  <cdx:fragmentId>
783

$$$$
