572089.cdx
  Mrv1902 05222410262D          

 11 11  0  0  0  0            999 V2000
   15.6476  -14.0551    0.0000 C   0  0  0  0  0  0  0  0  0  0  0  0
   16.4545  -14.2266    0.0000 C   0  0  0  0  0  0  0  0  0  0  0  0
   16.8670  -13.5121    0.0000 C   0  0  0  0  0  0  0  0  0  0  0  0
   16.3150  -12.8990    0.0000 C   0  0  0  0  0  0  0  0  0  0  0  0
   15.5613  -13.2346    0.0000 C   0  0  0  0  0  0  0  0  0  0  0  0
   16.7901  -14.9803    0.0000 C   0  0  0  0  0  0  0  0  0  0  0  0
   14.8469  -12.8221    0.0000 C   0  0  0  0  0  0  0  0  0  0  0  0
   14.8469  -11.9971    0.0000 C   0  0  0  0  0  0  0  0  0  0  0  0
   14.1324  -13.2346    0.0000 C   0  0  0  0  0  0  0  0  0  0  0  0
   15.0345  -14.6071    0.0000 C   0  0  0  0  0  0  0  0  0  0  0  0
   14.2498  -14.3522    0.0000 O   0  0  0  0  0  0  0  0  0  0  0  0
  1  2  2  0  0  0  0
  2  3  1  0  0  0  0
  3  4  1  0  0  0  0
  4  5  1  0  0  0  0
  1  5  1  0  0  0  0
  2  6  1  0  0  0  0
  7  8  2  0  0  0  0
  7  9  1  0  0  0  0
  5  7  1  0  0  0  0
 10 11  2  0  0  0  0
  1 10  1  0  0  0  0
M  END
>  <cdx:groupId>
2026

>  <cdx:fragmentId>
1996

$$$$
