572048.cdx
  Mrv1902 05222410242D          

 11 12  0  0  0  0            999 V2000
   16.2721  -13.9047    0.0000 C   0  0  0  0  0  0  0  0  0  0  0  0
   15.5576  -14.3172    0.0000 C   0  0  0  0  0  0  0  0  0  0  0  0
   14.8431  -13.9047    0.0000 C   0  0  0  0  0  0  0  0  0  0  0  0
   14.8431  -13.0797    0.0000 C   0  0  0  0  0  0  0  0  0  0  0  0
   15.5576  -12.6672    0.0000 C   0  0  0  0  0  0  0  0  0  0  0  0
   16.2721  -13.0797    0.0000 C   0  0  0  0  0  0  0  0  0  0  0  0
   16.9866  -13.4922    0.0000 C   0  0  0  0  0  0  0  0  0  0  0  0
   17.7010  -13.0797    0.0000 C   0  0  0  0  0  0  0  0  0  0  0  0
   17.7010  -13.9047    0.0000 C   0  0  0  0  0  0  0  0  0  0  0  0
   14.1287  -14.3172    0.0000 C   0  0  0  0  0  0  0  0  0  0  0  0
   13.4142  -13.9047    0.0000 O   0  0  0  0  0  0  0  0  0  0  0  0
  1  2  1  0  0  0  0
  2  3  1  0  0  0  0
  3  4  2  0  0  0  0
  4  5  1  0  0  0  0
  5  6  1  0  0  0  0
  1  6  1  0  0  0  0
  6  7  1  0  0  0  0
  1  7  1  0  0  0  0
  7  8  1  0  0  0  0
  7  9  1  0  0  0  0
  3 10  1  0  0  0  0
 10 11  2  0  0  0  0
M  END
>  <cdx:groupId>
1989

>  <cdx:fragmentId>
1958

$$$$
