572127.cdx
  Mrv1902 05222410202D          

 11 10  0  0  0  0            999 V2000
   17.1661  -14.2529    0.0000 C   0  0  0  0  0  0  0  0  0  0  0  0
   16.4516  -13.8404    0.0000 C   0  0  0  0  0  0  0  0  0  0  0  0
   15.7371  -14.2529    0.0000 C   0  0  0  0  0  0  0  0  0  0  0  0
   15.0227  -13.8404    0.0000 C   0  0  0  0  0  0  0  0  0  0  0  0
   14.3082  -14.2529    0.0000 C   0  0  0  0  0  0  0  0  0  0  0  0
   13.5937  -13.8404    0.0000 C   0  0  0  0  0  0  0  0  0  0  0  0
   12.8792  -14.2529    0.0000 C   0  0  0  0  0  0  0  0  0  0  0  0
   17.8805  -13.8404    0.0000 O   0  0  0  0  0  0  0  0  0  0  0  0
   13.5937  -13.0154    0.0000 C   0  0  0  0  0  0  0  0  0  0  0  0
   16.4516  -13.0154    0.0000 C   0  0  0  0  0  0  0  0  0  0  0  0
   17.1661  -12.6029    0.0000 C   0  0  0  0  0  0  0  0  0  0  0  0
  1  2  1  0  0  0  0
  2  3  1  0  0  0  0
  3  4  2  0  0  0  0
  4  5  1  0  0  0  0
  5  6  2  0  0  0  0
  6  7  1  0  0  0  0
  1  8  2  0  0  0  0
  6  9  1  0  0  0  0
 10 11  1  0  0  0  0
  2 10  2  0  0  0  0
M  END
>  <cdx:groupId>
2093

>  <cdx:fragmentId>
2064

$$$$
