572140.cdx
  Mrv1902 05222410202D          

  9  9  0  0  0  0            999 V2000
    6.6186   -7.9556    0.0000 C   0  0  0  0  0  0  0  0  0  0  0  0
    6.8755   -8.7396    0.0000 C   0  0  0  0  0  0  0  0  0  0  0  0
    7.7005   -8.7376    0.0000 C   0  0  0  0  0  0  0  0  0  0  0  0
    7.9535   -7.9524    0.0000 C   0  0  0  0  0  0  0  0  0  0  0  0
    7.2849   -7.4691    0.0000 C   0  0  0  0  0  0  0  0  0  0  0  0
    6.3922   -9.4082    0.0000 C   0  0  0  0  0  0  0  0  0  0  0  0
    6.7296  -10.1611    0.0000 C   0  0  0  0  0  0  0  0  0  0  0  0
    6.8706   -6.7556    0.0000 C   0  0  0  0  0  0  0  0  0  0  0  0
    7.6956   -6.7536    0.0000 C   0  0  0  0  0  0  0  0  0  0  0  0
  1  2  2  0  0  0  0
  2  3  1  0  0  0  0
  3  4  2  0  0  0  0
  4  5  1  0  0  0  0
  1  5  1  0  0  0  0
  6  7  1  0  0  0  0
  2  6  1  0  0  0  0
  5  8  1  0  0  0  0
  5  9  1  0  0  0  0
M  END
>  <cdx:fragmentId>
5

$$$$
