572141.cdx
  Mrv1902 05222410202D          

  9  9  0  0  0  0            999 V2000
    7.4090   -8.9780    0.0000 C   0  0  0  0  0  0  0  0  0  0  0  0
    7.1530   -9.7623    0.0000 C   0  0  0  0  0  0  0  0  0  0  0  0
    6.3280   -9.7612    0.0000 C   0  0  0  0  0  0  0  0  0  0  0  0
    6.0741   -8.9762    0.0000 C   0  0  0  0  0  0  0  0  0  0  0  0
    6.7422   -8.4922    0.0000 C   0  0  0  0  0  0  0  0  0  0  0  0
    8.1940   -8.7241    0.0000 C   0  0  0  0  0  0  0  0  0  0  0  0
    8.3666   -7.9174    0.0000 C   0  0  0  0  0  0  0  0  0  0  0  0
    6.3307   -7.7772    0.0000 C   0  0  0  0  0  0  0  0  0  0  0  0
    7.1557   -7.7783    0.0000 C   0  0  0  0  0  0  0  0  0  0  0  0
  1  2  2  0  0  0  0
  2  3  1  0  0  0  0
  3  4  2  0  0  0  0
  4  5  1  0  0  0  0
  1  5  1  0  0  0  0
  6  7  1  0  0  0  0
  1  6  1  0  0  0  0
  5  8  1  0  0  0  0
  5  9  1  0  0  0  0
M  END
>  <cdx:fragmentId>
5

$$$$
