572142.cdx
  Mrv1902 05222410192D          

  9  9  0  0  0  0            999 V2000
    6.7417   -8.5521    0.0000 C   0  0  0  0  0  0  0  0  0  0  0  0
    6.9686   -9.3453    0.0000 C   0  0  0  0  0  0  0  0  0  0  0  0
    7.7931   -9.3746    0.0000 C   0  0  0  0  0  0  0  0  0  0  0  0
    8.0757   -8.5995    0.0000 C   0  0  0  0  0  0  0  0  0  0  0  0
    7.4259   -8.0912    0.0000 C   0  0  0  0  0  0  0  0  0  0  0  0
    7.0391   -7.3625    0.0000 C   0  0  0  0  0  0  0  0  0  0  0  0
    7.8636   -7.3918    0.0000 C   0  0  0  0  0  0  0  0  0  0  0  0
    6.4602   -9.9951    0.0000 C   0  0  0  0  0  0  0  0  0  0  0  0
    5.9666   -8.2694    0.0000 C   0  0  0  0  0  0  0  0  0  0  0  0
  1  2  2  0  0  0  0
  2  3  1  0  0  0  0
  3  4  2  0  0  0  0
  4  5  1  0  0  0  0
  1  5  1  0  0  0  0
  5  6  1  0  0  0  0
  5  7  1  0  0  0  0
  2  8  1  0  0  0  0
  1  9  1  0  0  0  0
M  END
>  <cdx:fragmentId>
5

$$$$
