572265.cdx
  Mrv1902 05222410242D          

 25 25  0  0  0  0            999 V2000
    4.4094   -6.7415    0.0000 C   0  0  0  0  0  0  0  0  0  0  0  0
    5.1248   -7.1524    0.0000 C   0  0  0  0  0  0  0  0  0  0  0  0
    5.8383   -6.7382    0.0000 C   0  0  1  0  0  0  0  0  0  0  0  0
    6.5538   -7.1490    0.0000 C   0  0  0  0  0  0  0  0  0  0  0  0
    7.2673   -6.7348    0.0000 C   0  0  2  0  0  0  0  0  0  0  0  0
    7.9827   -7.1456    0.0000 C   0  0  0  0  0  0  0  0  0  0  0  0
    8.6962   -6.7314    0.0000 C   0  0  0  0  0  0  0  0  0  0  0  0
    9.4117   -7.1422    0.0000 C   0  0  0  0  0  0  0  0  0  0  0  0
   10.1252   -6.7280    0.0000 C   0  0  0  0  0  0  0  0  0  0  0  0
   10.8406   -7.1388    0.0000 C   0  0  0  0  0  0  0  0  0  0  0  0
   11.5541   -6.7246    0.0000 C   0  0  0  0  0  0  0  0  0  0  0  0
   12.2695   -7.1355    0.0000 C   0  0  0  0  0  0  0  0  0  0  0  0
   12.9830   -6.7213    0.0000 C   0  0  0  0  0  0  0  0  0  0  0  0
   13.6985   -7.1321    0.0000 C   0  0  0  0  0  0  0  0  0  0  0  0
    5.8364   -5.9132    0.0000 O   0  0  0  0  0  0  0  0  0  0  0  0
    7.2653   -5.9098    0.0000 O   0  0  0  0  0  0  0  0  0  0  0  0
    3.6959   -7.1557    0.0000 C   0  0  0  0  0  0  0  0  0  0  0  0
    2.9805   -6.7449    0.0000 C   0  0  0  0  0  0  0  0  0  0  0  0
    2.2670   -7.1591    0.0000 C   0  0  0  0  0  0  0  0  0  0  0  0
    2.2689   -7.9841    0.0000 C   0  0  0  0  0  0  0  0  0  0  0  0
    2.9844   -8.3949    0.0000 C   0  0  0  0  0  0  0  0  0  0  0  0
    3.6979   -7.9807    0.0000 C   0  0  0  0  0  0  0  0  0  0  0  0
    1.5515   -6.7483    0.0000 O   0  0  0  0  0  0  0  0  0  0  0  0
    0.8380   -7.1625    0.0000 C   0  0  0  0  0  0  0  0  0  0  0  0
    1.5554   -8.3983    0.0000 O   0  0  0  0  0  0  0  0  0  0  0  0
  1  2  1  0  0  0  0
  2  3  1  0  0  0  0
  3  4  1  0  0  0  0
  4  5  1  0  0  0  0
  5  6  1  0  0  0  0
  6  7  1  0  0  0  0
  7  8  1  0  0  0  0
  8  9  1  0  0  0  0
  9 10  1  0  0  0  0
 10 11  1  0  0  0  0
 11 12  1  0  0  0  0
 12 13  1  0  0  0  0
 13 14  1  0  0  0  0
  3 15  1  6  0  0  0
  5 16  1  1  0  0  0
 17 18  1  0  0  0  0
 18 19  2  0  0  0  0
 19 20  1  0  0  0  0
 20 21  2  0  0  0  0
 21 22  1  0  0  0  0
 17 22  2  0  0  0  0
 23 24  1  0  0  0  0
 19 23  1  0  0  0  0
 20 25  1  0  0  0  0
  1 17  1  0  0  0  0
M  END
>  <cdx:groupId>
250444

>  <cdx:fragmentId>
250372

$$$$
