572305.cdx
  Mrv1902 05222410232D          

 13 13  0  0  0  0            999 V2000
   14.0398  -13.8000    0.0000 C   0  0  0  0  0  0  0  0  0  0  0  0
   13.3253  -14.2125    0.0000 C   0  0  0  0  0  0  0  0  0  0  0  0
   12.6109  -13.8000    0.0000 C   0  0  0  0  0  0  0  0  0  0  0  0
   14.0398  -12.9750    0.0000 O   0  0  0  0  0  0  0  0  0  0  0  0
   14.7543  -14.2125    0.0000 O   0  0  0  0  0  0  0  0  0  0  0  0
   15.4688  -13.8000    0.0000 C   0  0  0  0  0  0  0  0  0  0  0  0
   16.1832  -14.2125    0.0000 C   0  0  0  0  0  0  0  0  0  0  0  0
   16.8977  -13.8000    0.0000 C   0  0  0  0  0  0  0  0  0  0  0  0
   16.8977  -12.9750    0.0000 C   0  0  0  0  0  0  0  0  0  0  0  0
   16.1832  -12.5625    0.0000 C   0  0  0  0  0  0  0  0  0  0  0  0
   15.4688  -12.9750    0.0000 C   0  0  0  0  0  0  0  0  0  0  0  0
   17.6122  -12.5625    0.0000 C   0  0  0  0  0  0  0  0  0  0  0  0
   18.3266  -12.9750    0.0000 C   0  0  0  0  0  0  0  0  0  0  0  0
  1  2  1  0  0  0  0
  2  3  1  0  0  0  0
  1  4  2  0  0  0  0
  1  5  1  0  0  0  0
  6  7  1  0  0  0  0
  7  8  2  0  0  0  0
  8  9  1  0  0  0  0
  9 10  2  0  0  0  0
 10 11  1  0  0  0  0
  6 11  2  0  0  0  0
 12 13  1  0  0  0  0
  9 12  1  0  0  0  0
  5  6  1  0  0  0  0
M  END
>  <cdx:groupId>
2276

>  <cdx:fragmentId>
2250

$$$$
