572422.cdx
  Mrv1902 05222410192D          

 20 21  0  0  0  0            999 V2000
    3.6912   -5.2577    0.0000 O   0  0  0  0  0  0  0  0  0  0  0  0
    5.1201   -6.9077    0.0000 C   0  0  0  0  0  0  0  0  0  0  0  0
    4.4057   -6.4952    0.0000 C   0  0  0  0  0  0  0  0  0  0  0  0
    4.4057   -5.6702    0.0000 C   0  0  0  0  0  0  0  0  0  0  0  0
    5.1201   -5.2577    0.0000 C   0  0  0  0  0  0  0  0  0  0  0  0
    5.8346   -5.6702    0.0000 C   0  0  0  0  0  0  0  0  0  0  0  0
    5.8346   -6.4952    0.0000 C   0  0  0  0  0  0  0  0  0  0  0  0
    6.5491   -6.9077    0.0000 C   0  0  0  0  0  0  0  0  0  0  0  0
   10.8359   -5.2577    0.0000 C   0  0  0  0  0  0  0  0  0  0  0  0
   10.1214   -6.4952    0.0000 C   0  0  0  0  0  0  0  0  0  0  0  0
   10.1214   -5.6702    0.0000 C   0  0  0  0  0  0  0  0  0  0  0  0
    9.4070   -5.2577    0.0000 C   0  0  0  0  0  0  0  0  0  0  0  0
    9.4070   -6.9077    0.0000 O   0  0  0  0  0  0  0  0  0  0  0  0
    6.5491   -5.2577    0.0000 O   0  0  0  0  0  0  0  0  0  0  0  0
    8.6925   -5.6702    0.0000 C   0  0  0  0  0  0  0  0  0  0  0  0
    8.6925   -6.4952    0.0000 C   0  0  0  0  0  0  0  0  0  0  0  0
    7.9780   -6.9077    0.0000 N   0  0  0  0  0  0  0  0  0  0  0  0
    7.2635   -6.4952    0.0000 C   0  0  0  0  0  0  0  0  0  0  0  0
    7.2635   -5.6702    0.0000 C   0  0  0  0  0  0  0  0  0  0  0  0
    7.9780   -5.2577    0.0000 N   0  0  0  0  0  0  0  0  0  0  0  0
 18  8  1  0  0  0  0
  8  7  1  0  0  0  0
  4  1  1  0  0  0  0
  7  2  2  0  0  0  0
  3  2  1  0  0  0  0
  4  3  2  0  0  0  0
  5  4  1  0  0  0  0
  6  5  2  0  0  0  0
  7  6  1  0  0  0  0
 15 12  1  0  0  0  0
 11  9  1  0  0  0  0
 11 10  1  0  0  0  0
 12 11  1  0  0  0  0
 16 13  2  0  0  0  0
 19 14  2  0  0  0  0
 20 15  1  0  0  0  0
 16 15  1  0  0  0  0
 17 16  1  0  0  0  0
 18 17  1  0  0  0  0
 19 18  1  0  0  0  0
 20 19  1  0  0  0  0
M  END
>  <cdx:fragmentId>
2284

$$$$
