572504.cdx
  Mrv1902 05222410242D          

 20 22  0  0  0  0            999 V2000
    7.1770   -9.4495    0.0000 H   0  0  0  0  0  0  0  0  0  0  0  0
    5.6618   -6.9790    0.0000 H   0  0  0  0  0  0  0  0  0  0  0  0
    7.1770   -6.9835    0.0000 H   0  0  0  0  0  0  0  0  0  0  0  0
    8.1303   -6.7644    0.0000 C   0  0  0  0  0  0  0  0  0  0  0  0
    5.6618   -9.4540    0.0000 C   0  0  0  0  0  0  0  0  0  0  0  0
    4.9473   -6.5665    0.0000 C   0  0  0  0  0  0  0  0  0  0  0  0
    9.1853   -8.2165    0.0000 O   0  0  0  0  0  0  0  0  0  0  0  0
    4.9473   -7.3915    0.0000 C   0  0  0  0  0  0  0  0  0  0  0  0
    4.2328   -7.8040    0.0000 C   0  0  0  0  0  0  0  0  0  0  0  0
    4.2328   -8.6290    0.0000 C   0  0  0  0  0  0  0  0  0  0  0  0
    4.9473   -9.0415    0.0000 C   0  0  0  0  0  0  0  0  0  0  0  0
    7.0907   -8.6290    0.0000 C   0  0  2  0  0  0  0  0  0  0  0  0
    6.3762   -9.0415    0.0000 C   0  0  0  0  0  0  0  0  0  0  0  0
    5.6618   -8.6290    0.0000 C   0  0  1  0  0  0  0  0  0  0  0  0
    5.6618   -7.8040    0.0000 C   0  0  1  0  0  0  0  0  0  0  0  0
    6.3762   -7.3915    0.0000 C   0  0  0  0  0  0  0  0  0  0  0  0
    7.0907   -7.8040    0.0000 C   0  0  2  0  0  0  0  0  0  0  0  0
    7.8753   -7.5491    0.0000 C   0  0  1  0  0  0  0  0  0  0  0  0
    8.3603   -8.2165    0.0000 C   0  0  0  0  0  0  0  0  0  0  0  0
    7.8753   -8.8839    0.0000 O   0  0  0  0  0  0  0  0  0  0  0  0
 12  1  1  1  0  0  0
 15  2  1  1  0  0  0
 17  3  1  1  0  0  0
 18  4  1  6  0  0  0
 14  5  1  6  0  0  0
  8  6  2  0  0  0  0
 19  7  2  0  0  0  0
 11 14  1  0  0  0  0
  8 15  1  0  0  0  0
  9  8  1  0  0  0  0
 10  9  1  0  0  0  0
 11 10  1  0  0  0  0
 20 12  1  0  0  0  0
 17 12  1  0  0  0  0
 13 12  1  0  0  0  0
 14 13  1  0  0  0  0
 15 14  1  0  0  0  0
 16 15  1  0  0  0  0
 17 16  1  0  0  0  0
 18 17  1  0  0  0  0
 19 18  1  0  0  0  0
 20 19  1  0  0  0  0
M  END
>  <cdx:fragmentId>
5

$$$$
