572679.cdx
  Mrv1902 05222410232D          

 12 13  0  0  0  0            999 V2000
   15.3184  -13.4083    0.0000 C   0  0  0  0  0  0  0  0  0  0  0  0
   16.0329  -13.8208    0.0000 C   0  0  0  0  0  0  0  0  0  0  0  0
   16.0329  -14.6458    0.0000 C   0  0  0  0  0  0  0  0  0  0  0  0
   15.3184  -15.0583    0.0000 C   0  0  0  0  0  0  0  0  0  0  0  0
   14.6039  -14.6458    0.0000 C   0  0  0  0  0  0  0  0  0  0  0  0
   14.6039  -13.8208    0.0000 C   0  0  0  0  0  0  0  0  0  0  0  0
   14.9828  -14.2336    0.0000 C   0  0  0  0  0  0  0  0  0  0  0  0
   16.7473  -13.4083    0.0000 O   0  0  0  0  0  0  0  0  0  0  0  0
   14.2683  -14.6461    0.0000 C   0  0  0  0  0  0  0  0  0  0  0  0
   14.2683  -13.8211    0.0000 C   0  0  0  0  0  0  0  0  0  0  0  0
   15.3184  -12.5833    0.0000 C   0  0  0  0  0  0  0  0  0  0  0  0
   14.6039  -12.1708    0.0000 O   0  0  0  0  0  0  0  0  0  0  0  0
  1  2  1  0  0  0  0
  2  3  1  0  0  0  0
  3  4  1  0  0  0  0
  4  5  1  0  0  0  0
  5  6  1  0  0  0  0
  1  6  1  0  0  0  0
  1  7  1  0  0  0  0
  7  4  1  0  0  0  0
  2  8  2  0  0  0  0
  7  9  1  0  0  0  0
  7 10  1  0  0  0  0
 11 12  1  0  0  0  0
  1 11  1  0  0  0  0
M  END
>  <cdx:groupId>
2429

>  <cdx:fragmentId>
2395

$$$$
