572667.cdx
  Mrv1902 05222410252D          

 12 12  0  0  0  0            999 V2000
   15.4688  -13.6145    0.0000 C   0  0  0  0  0  0  0  0  0  0  0  0
   14.7543  -13.2020    0.0000 C   0  0  0  0  0  0  0  0  0  0  0  0
   14.0398  -13.6145    0.0000 C   0  0  0  0  0  0  0  0  0  0  0  0
   14.0398  -14.4395    0.0000 C   0  0  0  0  0  0  0  0  0  0  0  0
   14.7543  -14.8520    0.0000 C   0  0  0  0  0  0  0  0  0  0  0  0
   15.4688  -14.4395    0.0000 C   0  0  0  0  0  0  0  0  0  0  0  0
   16.1832  -13.2020    0.0000 C   0  0  0  0  0  0  0  0  0  0  0  0
   16.1832  -12.3770    0.0000 O   0  0  0  0  0  0  0  0  0  0  0  0
   16.8977  -13.6145    0.0000 O   0  0  0  0  0  0  0  0  0  0  0  0
   13.3253  -14.8520    0.0000 C   0  0  0  0  0  0  0  0  0  0  0  0
   13.3253  -13.2020    0.0000 C   0  0  0  0  0  0  0  0  0  0  0  0
   17.6122  -13.2020    0.0000 C   0  0  0  0  0  0  0  0  0  0  0  0
  1  2  1  0  0  0  0
  2  3  1  0  0  0  0
  3  4  2  0  0  0  0
  4  5  1  0  0  0  0
  5  6  1  0  0  0  0
  1  6  1  0  0  0  0
  7  8  2  0  0  0  0
  7  9  1  0  0  0  0
  1  7  1  0  0  0  0
  4 10  1  0  0  0  0
  3 11  1  0  0  0  0
  9 12  1  0  0  0  0
M  END
>  <cdx:groupId>
2386

>  <cdx:fragmentId>
2353

$$$$
