572861.cdx
  Mrv1902 05222410222D          

 11 12  0  0  0  0            999 V2000
    7.1301   -7.6099    0.0000 O   0  0  0  0  0  0  0  0  0  0  0  0
    5.6994   -8.4319    0.0000 C   0  0  0  0  0  0  0  0  0  0  0  0
    9.2709   -8.8520    0.0000 C   0  0  0  0  0  0  0  0  0  0  0  0
    9.2692   -9.6770    0.0000 C   0  0  0  0  0  0  0  0  0  0  0  0
    8.5556   -9.2630    0.0000 C   0  0  0  0  0  0  0  0  0  0  0  0
    7.8402   -9.6739    0.0000 C   0  0  0  0  0  0  0  0  0  0  0  0
    7.1249  -10.0849    0.0000 C   0  0  0  0  0  0  0  0  0  0  0  0
    6.4113   -9.6709    0.0000 C   0  0  0  0  0  0  0  0  0  0  0  0
    6.4130   -8.8459    0.0000 C   0  0  0  0  0  0  0  0  0  0  0  0
    7.1284   -8.4349    0.0000 C   0  0  0  0  0  0  0  0  0  0  0  0
    7.8420   -8.8490    0.0000 C   0  0  0  0  0  0  0  0  0  0  0  0
 10  1  1  0  0  0  0
  9  2  2  0  0  0  0
  5  3  1  0  0  0  0
  5  4  1  0  0  0  0
 11  5  1  0  0  0  0
  6  5  1  0  0  0  0
 11  6  1  0  0  0  0
  7  6  1  0  0  0  0
  8  7  1  0  0  0  0
  9  8  1  0  0  0  0
 10  9  1  0  0  0  0
 11 10  1  0  0  0  0
M  END
>  <cdx:groupId>
2528

>  <cdx:fragmentId>
2491

$$$$
