572930.cdx
  Mrv1902 05222410242D          

 47 49  0  0  0  0            999 V2000
    7.6500   -7.0398    0.0000 P   0  0  0  0  0  0  0  0  0  0  0  0
    7.6500   -7.8648    0.0000 O   0  0  0  0  0  0  0  0  0  0  0  0
    6.7541   -7.0398    0.0000 O   0  0  0  0  0  0  0  0  0  0  0  0
    8.6780   -7.0398    0.0000 O   0  0  0  0  0  0  0  0  0  0  0  0
    7.6500   -6.2148    0.0000 O   0  0  0  0  0  0  0  0  0  0  0  0
    5.6109   -7.6998    0.0000 C   0  0  0  0  0  0  0  0  0  0  0  0
    5.6109   -8.5248    0.0000 C   0  0  0  0  0  0  0  0  0  0  0  0
    4.8964   -8.9373    0.0000 C   0  0  0  0  0  0  0  0  0  0  0  0
    4.1820   -8.5248    0.0000 C   0  0  0  0  0  0  0  0  0  0  0  0
    4.1820   -7.6998    0.0000 C   0  0  0  0  0  0  0  0  0  0  0  0
    4.8964   -7.2873    0.0000 C   0  0  0  0  0  0  0  0  0  0  0  0
    3.4675   -8.9373    0.0000 C   0  0  0  0  0  0  0  0  0  0  0  0
    3.8800   -9.6518    0.0000 C   0  0  0  0  0  0  0  0  0  0  0  0
    2.7530   -9.3498    0.0000 C   0  0  0  0  0  0  0  0  0  0  0  0
    3.0550   -8.2229    0.0000 C   0  0  0  0  0  0  0  0  0  0  0  0
    6.3254   -8.9373    0.0000 C   0  0  0  0  0  0  0  0  0  0  0  0
    7.0399   -9.3498    0.0000 C   0  0  0  0  0  0  0  0  0  0  0  0
    5.9129   -9.6518    0.0000 C   0  0  0  0  0  0  0  0  0  0  0  0
    6.7379   -8.2229    0.0000 C   0  0  0  0  0  0  0  0  0  0  0  0
    9.3925   -7.4523    0.0000 C   0  0  0  0  0  0  0  0  0  0  0  0
   10.1070   -7.0398    0.0000 C   0  0  0  0  0  0  0  0  0  0  0  0
   10.8214   -7.4523    0.0000 C   0  0  0  0  0  0  0  0  0  0  0  0
   10.8214   -8.2773    0.0000 C   0  0  0  0  0  0  0  0  0  0  0  0
   10.1070   -8.6898    0.0000 C   0  0  0  0  0  0  0  0  0  0  0  0
    9.3925   -8.2773    0.0000 C   0  0  0  0  0  0  0  0  0  0  0  0
   11.5359   -8.6898    0.0000 C   0  0  0  0  0  0  0  0  0  0  0  0
   12.2504   -9.1023    0.0000 C   0  0  0  0  0  0  0  0  0  0  0  0
   11.1234   -9.4043    0.0000 C   0  0  0  0  0  0  0  0  0  0  0  0
   11.9484   -7.9754    0.0000 C   0  0  0  0  0  0  0  0  0  0  0  0
   10.1070   -6.2148    0.0000 C   0  0  0  0  0  0  0  0  0  0  0  0
   10.9320   -6.2148    0.0000 C   0  0  0  0  0  0  0  0  0  0  0  0
   10.1070   -5.3898    0.0000 C   0  0  0  0  0  0  0  0  0  0  0  0
    9.2820   -6.2148    0.0000 C   0  0  0  0  0  0  0  0  0  0  0  0
    6.9356   -5.8023    0.0000 C   0  0  0  0  0  0  0  0  0  0  0  0
    6.9356   -4.9773    0.0000 C   0  0  0  0  0  0  0  0  0  0  0  0
    6.2211   -4.5648    0.0000 C   0  0  0  0  0  0  0  0  0  0  0  0
    5.5066   -4.9773    0.0000 C   0  0  0  0  0  0  0  0  0  0  0  0
    5.5066   -5.8023    0.0000 C   0  0  0  0  0  0  0  0  0  0  0  0
    6.2211   -6.2148    0.0000 C   0  0  0  0  0  0  0  0  0  0  0  0
    4.7922   -4.5648    0.0000 C   0  0  0  0  0  0  0  0  0  0  0  0
    4.0777   -4.1523    0.0000 C   0  0  0  0  0  0  0  0  0  0  0  0
    5.2047   -3.8504    0.0000 C   0  0  0  0  0  0  0  0  0  0  0  0
    4.3797   -5.2793    0.0000 C   0  0  0  0  0  0  0  0  0  0  0  0
    7.6500   -4.5648    0.0000 C   0  0  0  0  0  0  0  0  0  0  0  0
    7.2375   -3.8504    0.0000 C   0  0  0  0  0  0  0  0  0  0  0  0
    8.3645   -4.1523    0.0000 C   0  0  0  0  0  0  0  0  0  0  0  0
    8.0625   -5.2793    0.0000 C   0  0  0  0  0  0  0  0  0  0  0  0
  1  2  2  0  0  0  0
  1  3  1  0  0  0  0
  1  4  1  0  0  0  0
  1  5  1  0  0  0  0
  6  7  1  0  0  0  0
  7  8  2  0  0  0  0
  8  9  1  0  0  0  0
  9 10  2  0  0  0  0
 10 11  1  0  0  0  0
  6 11  2  0  0  0  0
 12 13  1  0  0  0  0
 12 15  1  0  0  0  0
 12 14  1  0  0  0  0
  9 12  1  0  0  0  0
 16 17  1  0  0  0  0
 16 19  1  0  0  0  0
 16 18  1  0  0  0  0
  7 16  1  0  0  0  0
  3  6  1  0  0  0  0
 20 21  1  0  0  0  0
 21 22  2  0  0  0  0
 22 23  1  0  0  0  0
 23 24  2  0  0  0  0
 24 25  1  0  0  0  0
 20 25  2  0  0  0  0
 26 27  1  0  0  0  0
 26 29  1  0  0  0  0
 26 28  1  0  0  0  0
 23 26  1  0  0  0  0
 30 31  1  0  0  0  0
 30 33  1  0  0  0  0
 30 32  1  0  0  0  0
 21 30  1  0  0  0  0
  4 20  1  0  0  0  0
 34 35  1  0  0  0  0
 35 36  2  0  0  0  0
 36 37  1  0  0  0  0
 37 38  2  0  0  0  0
 38 39  1  0  0  0  0
 34 39  2  0  0  0  0
 40 41  1  0  0  0  0
 40 43  1  0  0  0  0
 40 42  1  0  0  0  0
 37 40  1  0  0  0  0
 44 45  1  0  0  0  0
 44 47  1  0  0  0  0
 44 46  1  0  0  0  0
 35 44  1  0  0  0  0
  5 34  1  0  0  0  0
M  END
>  <cdx:groupId>
106515

>  <cdx:fragmentId>
106385

$$$$
