573293.cdx
  Mrv1902 05222410262D          

 18 20  0  0  0  0            999 V2000
    6.3615   -6.1418    0.0000 C   0  0  2  0  0  0  0  0  0  0  0  0
    5.9487   -6.8561    0.0000 C   0  0  0  0  0  0  0  0  0  0  0  0
    6.4279   -7.5277    0.0000 C   0  0  0  0  0  0  0  0  0  0  0  0
    7.2370   -7.3689    0.0000 C   0  0  2  0  0  0  0  0  0  0  0  0
    8.0567   -7.4622    0.0000 C   0  0  0  0  0  0  0  0  0  0  0  0
    8.3987   -6.7114    0.0000 C   0  0  0  0  0  0  0  0  0  0  0  0
    7.7904   -6.1541    0.0000 C   0  0  2  0  0  0  0  0  0  0  0  0
    7.7975   -5.3292    0.0000 C   0  0  0  0  0  0  0  0  0  0  0  0
    7.0866   -4.9105    0.0000 C   0  0  0  0  0  0  0  0  0  0  0  0
    6.3686   -5.3169    0.0000 C   0  0  0  0  0  0  0  0  0  0  0  0
    7.0724   -6.5605    0.0000 C   0  0  1  0  0  0  0  0  0  0  0  0
    5.5656   -5.9247    0.0000 H   0  0  0  0  0  0  0  0  0  0  0  0
    8.5470   -5.8251    0.0000 H   0  0  0  0  0  0  0  0  0  0  0  0
    7.7833   -6.9791    0.0000 H   0  0  0  0  0  0  0  0  0  0  0  0
    8.5155   -4.9228    0.0000 C   0  0  0  0  0  0  0  0  0  0  0  0
    7.2299   -8.1939    0.0000 C   0  0  0  0  0  0  0  0  0  0  0  0
    5.2307   -7.2625    0.0000 C   0  0  0  0  0  0  0  0  0  0  0  0
    5.2378   -6.4375    0.0000 C   0  0  0  0  0  0  0  0  0  0  0  0
  1  2  1  0  0  0  0
  2  3  1  0  0  0  0
  3  4  1  0  0  0  0
  4  5  1  0  0  0  0
  5  6  1  0  0  0  0
  6  7  1  0  0  0  0
  7  8  1  0  0  0  0
  8  9  2  0  0  0  0
  9 10  1  0  0  0  0
  1 10  1  0  0  0  0
  1 11  1  0  0  0  0
 11  7  1  0  0  0  0
  4 11  1  0  0  0  0
  1 12  1  1  0  0  0
  7 13  1  6  0  0  0
 11 14  1  1  0  0  0
  8 15  1  0  0  0  0
  4 16  1  6  0  0  0
  2 17  1  0  0  0  0
  2 18  1  0  0  0  0
M  END
>  <cdx:fragmentId>
2589

$$$$
