5732.cdx
  Mrv1902 05222410222D          

 18 18  0  0  0  0            999 V2000
    3.0411   -5.0033    0.0000 C   0  0  0  0  0  0  0  0  0  0  0  0
    3.0411   -5.8283    0.0000 C   0  0  0  0  0  0  0  0  0  0  0  0
    3.7556   -6.2408    0.0000 C   0  0  0  0  0  0  0  0  0  0  0  0
    4.4701   -5.8283    0.0000 C   0  0  0  0  0  0  0  0  0  0  0  0
    4.4701   -5.0033    0.0000 C   0  0  0  0  0  0  0  0  0  0  0  0
    3.7556   -4.5908    0.0000 C   0  0  0  0  0  0  0  0  0  0  0  0
    2.3267   -4.5908    0.0000 O   0  0  0  0  0  0  0  0  0  0  0  0
    1.6122   -5.0033    0.0000 C   0  0  0  0  0  0  0  0  0  0  0  0
    2.3267   -6.2408    0.0000 O   0  0  0  0  0  0  0  0  0  0  0  0
    5.2126   -4.5908    0.0000 C   0  0  0  0  0  0  0  0  0  0  0  0
    5.9270   -5.0033    0.0000 C   0  0  0  0  0  0  0  0  0  0  0  0
    6.6415   -4.5908    0.0000 C   0  0  0  0  0  0  0  0  0  0  0  0
    7.3560   -5.0033    0.0000 C   0  0  0  0  0  0  0  0  0  0  0  0
    8.0705   -4.5908    0.0000 C   0  0  0  0  0  0  0  0  0  0  0  0
    8.7849   -5.0033    0.0000 C   0  0  0  0  0  0  0  0  0  0  0  0
    9.4994   -4.5908    0.0000 C   0  0  0  0  0  0  0  0  0  0  0  0
   10.2139   -5.0033    0.0000 C   0  0  0  0  0  0  0  0  0  0  0  0
    6.6415   -3.7658    0.0000 O   0  0  0  0  0  0  0  0  0  0  0  0
  1  2  2  0  0  0  0
  2  3  1  0  0  0  0
  3  4  2  0  0  0  0
  4  5  1  0  0  0  0
  5  6  2  0  0  0  0
  6  1  1  0  0  0  0
  1  7  1  0  0  0  0
  7  8  1  0  0  0  0
  2  9  1  0  0  0  0
 10 11  1  0  0  0  0
 11 12  1  0  0  0  0
 12 13  1  0  0  0  0
 13 14  2  0  0  0  0
 14 15  1  0  0  0  0
 15 16  1  0  0  0  0
 16 17  1  0  0  0  0
 10  5  1  0  0  0  0
 12 18  2  0  0  0  0
M  END
>  <cdx:fragmentId>
73

$$$$
