573697.cdx
  Mrv1902 05222410262D          

 16 18  0  0  0  0            999 V2000
    7.3861   -9.4423    0.0000 C   0  0  0  0  0  0  0  0  0  0  0  0
    8.1006   -9.0298    0.0000 C   0  0  0  0  0  0  0  0  0  0  0  0
    8.8151   -8.6173    0.0000 O   0  0  0  0  0  0  0  0  0  0  0  0
    8.8151   -9.4423    0.0000 C   0  0  0  0  0  0  0  0  0  0  0  0
    8.8151  -10.2673    0.0000 C   0  0  0  0  0  0  0  0  0  0  0  0
    8.1006  -10.6798    0.0000 C   0  0  0  0  0  0  0  0  0  0  0  0
    7.3861  -10.2673    0.0000 C   0  0  0  0  0  0  0  0  0  0  0  0
    6.7411  -10.7817    0.0000 C   0  0  0  0  0  0  0  0  0  0  0  0
    5.9368  -10.5981    0.0000 C   0  0  0  0  0  0  0  0  0  0  0  0
    5.5789   -9.8548    0.0000 C   0  0  0  0  0  0  0  0  0  0  0  0
    5.9368   -9.1115    0.0000 C   0  0  0  0  0  0  0  0  0  0  0  0
    6.7411   -8.9279    0.0000 C   0  0  0  0  0  0  0  0  0  0  0  0
    7.3023   -8.3232    0.0000 C   0  0  0  0  0  0  0  0  0  0  0  0
    6.4980   -8.1396    0.0000 C   0  0  0  0  0  0  0  0  0  0  0  0
    6.9247  -11.5860    0.0000 C   0  0  0  0  0  0  0  0  0  0  0  0
    9.6401   -9.4423    0.0000 C   0  0  0  0  0  0  0  0  0  0  0  0
  1  2  1  0  0  0  0
  2  3  1  0  0  0  0
  3  4  1  0  0  0  0
  4  5  1  0  0  0  0
  5  6  1  0  0  0  0
  6  7  1  0  0  0  0
  7  8  2  0  0  0  0
  8  9  1  0  0  0  0
  9 10  1  0  0  0  0
 10 11  1  0  0  0  0
 11 12  1  0  0  0  0
  1 12  1  0  0  0  0
  1  7  1  0  0  0  0
  2  4  1  0  0  0  0
 12 13  1  0  0  0  0
 12 14  1  0  0  0  0
  8 15  1  0  0  0  0
  4 16  1  0  0  0  0
M  END
>  <cdx:fragmentId>
2686

$$$$
