5738.cdx
  Mrv1902 05222410252D          

 19 18  0  0  0  0            999 V2000
   10.1200   -5.7750    0.0000 C   0  0  0  0  0  0  0  0  0  0  0  0
   10.9450   -5.7750    0.0000 C   0  0  2  0  0  0  0  0  0  0  0  0
   11.3575   -5.0605    0.0000 O   0  0  0  0  0  0  0  0  0  0  0  0
   11.3575   -6.4895    0.0000 C   0  0  0  0  0  0  0  0  0  0  0  0
   12.1825   -6.4895    0.0000 C   0  0  0  0  0  0  0  0  0  0  0  0
    9.7075   -6.4895    0.0000 C   0  0  0  0  0  0  0  0  0  0  0  0
    8.8825   -6.4895    0.0000 C   0  0  0  0  0  0  0  0  0  0  0  0
    8.0575   -6.4895    0.0000 C   0  0  0  0  0  0  0  0  0  0  0  0
    7.2325   -6.4895    0.0000 C   0  0  1  0  0  0  0  0  0  0  0  0
    6.8200   -5.7750    0.0000 O   0  0  0  0  0  0  0  0  0  0  0  0
    6.8200   -7.2039    0.0000 C   0  0  0  0  0  0  0  0  0  0  0  0
    5.9950   -7.2039    0.0000 C   0  0  0  0  0  0  0  0  0  0  0  0
    5.5825   -6.4895    0.0000 C   0  0  0  0  0  0  0  0  0  0  0  0
    4.7575   -6.4895    0.0000 C   0  0  0  0  0  0  0  0  0  0  0  0
    4.3450   -5.7750    0.0000 C   0  0  0  0  0  0  0  0  0  0  0  0
    3.5200   -5.7750    0.0000 C   0  0  0  0  0  0  0  0  0  0  0  0
    3.1075   -5.0605    0.0000 C   0  0  0  0  0  0  0  0  0  0  0  0
    2.2825   -5.0605    0.0000 C   0  0  0  0  0  0  0  0  0  0  0  0
    1.8700   -4.3461    0.0000 C   0  0  0  0  0  0  0  0  0  0  0  0
  1  2  1  0  0  0  0
  2  3  1  6  0  0  0
  2  4  1  0  0  0  0
  4  5  2  0  0  0  0
  1  6  2  0  0  0  0
  6  7  1  0  0  0  0
  7  8  3  0  0  0  0
  8  9  1  0  0  0  0
  9 10  1  6  0  0  0
  9 11  1  0  0  0  0
 11 12  2  0  0  0  0
 12 13  1  0  0  0  0
 13 14  1  0  0  0  0
 14 15  1  0  0  0  0
 15 16  1  0  0  0  0
 16 17  1  0  0  0  0
 17 18  1  0  0  0  0
 18 19  1  0  0  0  0
M  END
>  <cdx:fragmentId>
80

$$$$
