574093.cdx
  Mrv1902 05222410182D          

 13 14  0  0  0  0            999 V2000
   15.0973  -14.3863    0.0000 O   0  0  0  0  0  0  0  0  0  0  0  0
   14.2723  -14.3863    0.0000 C   0  0  0  0  0  0  0  0  0  0  0  0
   14.0174  -13.6016    0.0000 C   0  0  0  0  0  0  0  0  0  0  0  0
   14.6848  -13.1167    0.0000 C   0  0  0  0  0  0  0  0  0  0  0  0
   15.3522  -13.6016    0.0000 C   0  0  0  0  0  0  0  0  0  0  0  0
   15.5238  -12.7947    0.0000 C   0  0  0  0  0  0  0  0  0  0  0  0
   16.3084  -12.5397    0.0000 C   0  0  0  0  0  0  0  0  0  0  0  0
   16.9215  -13.0918    0.0000 C   0  0  0  0  0  0  0  0  0  0  0  0
   16.7500  -13.8987    0.0000 C   0  0  0  0  0  0  0  0  0  0  0  0
   15.9653  -14.1537    0.0000 C   0  0  0  0  0  0  0  0  0  0  0  0
   15.7938  -14.9606    0.0000 C   0  0  0  0  0  0  0  0  0  0  0  0
   14.7168  -12.6231    0.0000 C   0  0  0  0  0  0  0  0  0  0  0  0
   15.2688  -12.0100    0.0000 C   0  0  0  0  0  0  0  0  0  0  0  0
  1  2  1  0  0  0  0
  2  3  1  0  0  0  0
  3  4  2  0  0  0  0
  4  5  1  0  0  0  0
  5  6  1  0  0  0  0
  6  7  1  0  0  0  0
  7  8  1  0  0  0  0
  8  9  1  0  0  0  0
  9 10  1  0  0  0  0
  1  5  1  0  0  0  0
 10  5  1  0  0  0  0
 10 11  2  0  0  0  0
  6 12  1  0  0  0  0
  6 13  1  0  0  0  0
M  END
>  <cdx:groupId>
2776

>  <cdx:fragmentId>
2739

$$$$
