5741.cdx
  Mrv1902 05222410192D          

 19 20  0  0  0  0            999 V2000
    7.2037   -7.3425    0.0000 C   0  0  2  0  0  0  0  0  0  0  0  0
    7.2037   -8.1675    0.0000 C   0  0  1  0  0  0  0  0  0  0  0  0
    7.8487   -8.6819    0.0000 C   0  0  0  0  0  0  0  0  0  0  0  0
    8.6530   -8.4983    0.0000 C   0  0  0  0  0  0  0  0  0  0  0  0
    9.0110   -7.7550    0.0000 C   0  0  0  0  0  0  0  0  0  0  0  0
    8.6530   -7.0117    0.0000 C   0  0  0  0  0  0  0  0  0  0  0  0
    7.8487   -6.8281    0.0000 C   0  0  1  0  0  0  0  0  0  0  0  0
    9.2364   -9.0817    0.0000 C   0  0  0  0  0  0  0  0  0  0  0  0
   10.0333   -8.8681    0.0000 C   0  0  0  0  0  0  0  0  0  0  0  0
    9.0228   -9.8786    0.0000 C   0  0  0  0  0  0  0  0  0  0  0  0
    6.4191   -7.0876    0.0000 C   0  0  0  0  0  0  0  0  0  0  0  0
    5.9341   -7.7550    0.0000 C   0  0  0  0  0  0  0  0  0  0  0  0
    6.4191   -8.4224    0.0000 C   0  0  1  0  0  0  0  0  0  0  0  0
    8.0622   -6.0312    0.0000 O   0  0  0  0  0  0  0  0  0  0  0  0
    6.9902   -6.5456    0.0000 H   0  0  0  0  0  0  0  0  0  0  0  0
    6.9902   -8.9644    0.0000 H   0  0  0  0  0  0  0  0  0  0  0  0
    6.4191   -9.2474    0.0000 O   0  0  0  0  0  0  0  0  0  0  0  0
    5.7046   -8.8349    0.0000 C   0  0  0  0  0  0  0  0  0  0  0  0
    7.2653   -6.2448    0.0000 C   0  0  0  0  0  0  0  0  0  0  0  0
  1  2  1  0  0  0  0
  2  3  1  0  0  0  0
  3  4  2  0  0  0  0
  4  5  1  0  0  0  0
  5  6  1  0  0  0  0
  6  7  1  0  0  0  0
  7  1  1  0  0  0  0
  4  8  1  0  0  0  0
  8  9  1  0  0  0  0
  8 10  1  0  0  0  0
  1 11  1  0  0  0  0
 11 12  1  0  0  0  0
 12 13  1  0  0  0  0
 13  2  1  0  0  0  0
  7 14  1  6  0  0  0
  1 15  1  6  0  0  0
  2 16  1  6  0  0  0
 13 17  1  6  0  0  0
 13 18  1  1  0  0  0
  7 19  1  1  0  0  0
M  END
>  <cdx:fragmentId>
29

$$$$
