574162.cdx
  Mrv1902 05222410252D          

 26 28  0  0  0  0            999 V2000
    6.6243   -7.1265    0.0000 C   0  0  0  0  0  0  0  0  0  0  0  0
    6.6119   -7.9514    0.0000 C   0  0  0  0  0  0  0  0  0  0  0  0
    7.3201   -8.3746    0.0000 C   0  0  0  0  0  0  0  0  0  0  0  0
    7.3449   -6.7248    0.0000 O   0  0  0  0  0  0  0  0  0  0  0  0
    5.9161   -6.7034    0.0000 O   0  0  0  0  0  0  0  0  0  0  0  0
   10.2702   -6.9262    0.0000 O   0  0  0  0  0  0  0  0  0  0  0  0
   10.7451   -7.6009    0.0000 C   0  0  0  0  0  0  0  0  0  0  0  0
   10.2502   -8.2610    0.0000 C   0  0  0  0  0  0  0  0  0  0  0  0
    9.4695   -7.9943    0.0000 C   0  0  0  0  0  0  0  0  0  0  0  0
    8.7489   -8.3960    0.0000 C   0  0  0  0  0  0  0  0  0  0  0  0
    8.0407   -7.9729    0.0000 C   0  0  0  0  0  0  0  0  0  0  0  0
    8.0531   -7.1480    0.0000 C   0  0  0  0  0  0  0  0  0  0  0  0
    8.7737   -6.7462    0.0000 C   0  0  0  0  0  0  0  0  0  0  0  0
    9.4819   -7.1694    0.0000 C   0  0  0  0  0  0  0  0  0  0  0  0
    8.7365   -9.2209    0.0000 O   0  0  0  0  0  0  0  0  0  0  0  0
    7.3078   -9.1995    0.0000 O   0  0  0  0  0  0  0  0  0  0  0  0
    8.0160   -9.6227    0.0000 C   0  0  2  0  0  0  0  0  0  0  0  0
    8.0036  -10.4476    0.0000 C   0  0  1  0  0  0  0  0  0  0  0  0
    7.2830  -10.8493    0.0000 C   0  0  2  0  0  0  0  0  0  0  0  0
    6.5748  -10.4262    0.0000 C   0  0  1  0  0  0  0  0  0  0  0  0
    6.5872   -9.6012    0.0000 C   0  0  1  0  0  0  0  0  0  0  0  0
    5.8790   -9.1781    0.0000 C   0  0  0  0  0  0  0  0  0  0  0  0
    5.1584   -9.5798    0.0000 O   0  0  0  0  0  0  0  0  0  0  0  0
    5.8542  -10.8279    0.0000 O   0  0  0  0  0  0  0  0  0  0  0  0
    7.2706  -11.6742    0.0000 O   0  0  0  0  0  0  0  0  0  0  0  0
    8.7118  -10.8708    0.0000 O   0  0  0  0  0  0  0  0  0  0  0  0
  1  2  1  0  0  0  0
  2  3  2  0  0  0  0
  1  4  2  0  0  0  0
  1  5  1  0  0  0  0
  6  7  1  0  0  0  0
  7  8  2  0  0  0  0
  8  9  1  0  0  0  0
  9 10  1  0  0  0  0
 10 11  2  0  0  0  0
 11 12  1  0  0  0  0
 12 13  2  0  0  0  0
 13 14  1  0  0  0  0
  9 14  2  0  0  0  0
  6 14  1  0  0  0  0
 16 17  1  0  0  0  0
 17 18  1  0  0  0  0
 18 19  1  0  0  0  0
 19 20  1  0  0  0  0
 20 21  1  0  0  0  0
 16 21  1  0  0  0  0
 22 23  1  0  0  0  0
 21 22  1  1  0  0  0
 20 24  1  6  0  0  0
 19 25  1  1  0  0  0
 18 26  1  6  0  0  0
 17 15  1  1  0  0  0
 10 15  1  0  0  0  0
  3 11  1  0  0  0  0
M  END
>  <cdx:groupId>
75175

>  <cdx:fragmentId>
75128

$$$$
