574140.cdx
  Mrv1902 05222410222D          

 69 77  0  0  0  0            999 V2000
   19.0179   -5.0069    0.0000 O   0  0  0  0  0  0  0  0  0  0  0  0
   18.5330   -5.6743    0.0000 C   0  0  0  0  0  0  0  0  0  0  0  0
   19.0179   -6.3418    0.0000 C   0  0  0  0  0  0  0  0  0  0  0  0
   19.8025   -6.0868    0.0000 C   0  0  0  0  0  0  0  0  0  0  0  0
   19.8025   -5.2618    0.0000 C   0  0  0  0  0  0  0  0  0  0  0  0
   20.4699   -4.7769    0.0000 O   0  0  0  0  0  0  0  0  0  0  0  0
   15.1204   -8.2063    0.0000 C   0  0  0  0  0  0  0  0  0  0  0  0
   14.4060   -8.6188    0.0000 C   0  0  0  0  0  0  0  0  0  0  0  0
   14.4060   -9.4438    0.0000 C   0  0  1  0  0  0  0  0  0  0  0  0
   15.1204   -9.8563    0.0000 C   0  0  0  0  0  0  0  0  0  0  0  0
   15.8349   -9.4438    0.0000 C   0  0  1  0  0  0  0  0  0  0  0  0
   16.5494   -9.8563    0.0000 C   0  0  0  0  0  0  0  0  0  0  0  0
   17.2638   -9.4438    0.0000 C   0  0  0  0  0  0  0  0  0  0  0  0
   17.2638   -8.6188    0.0000 C   0  0  1  0  0  0  0  0  0  0  0  0
   17.9783   -8.2063    0.0000 C   0  0  1  0  0  0  0  0  0  0  0  0
   18.7629   -8.4613    0.0000 C   0  0  0  0  0  0  0  0  0  0  0  0
   19.2479   -7.7938    0.0000 C   0  0  0  0  0  0  0  0  0  0  0  0
   18.7629   -7.1264    0.0000 C   0  0  1  0  0  0  0  0  0  0  0  0
   17.9783   -7.3813    0.0000 C   0  0  1  0  0  0  0  0  0  0  0  0
   17.2638   -6.9688    0.0000 C   0  0  1  0  0  0  0  0  0  0  0  0
   16.5494   -7.3813    0.0000 C   0  0  0  0  0  0  0  0  0  0  0  0
   16.5494   -8.2063    0.0000 C   0  0  2  0  0  0  0  0  0  0  0  0
   15.8349   -8.6188    0.0000 C   0  0  1  0  0  0  0  0  0  0  0  0
   18.0646   -6.5608    0.0000 C   0  0  0  0  0  0  0  0  0  0  0  0
   15.8349   -7.7938    0.0000 C   0  0  0  0  0  0  0  0  0  0  0  0
   13.6915   -9.8563    0.0000 O   0  0  0  0  0  0  0  0  0  0  0  0
   12.9770   -8.6188    0.0000 O   0  0  0  0  0  0  0  0  0  0  0  0
   12.9770   -9.4438    0.0000 C   0  0  2  0  0  0  0  0  0  0  0  0
   12.2626   -9.8563    0.0000 C   0  0  0  0  0  0  0  0  0  0  0  0
   11.5481   -9.4438    0.0000 C   0  0  1  0  0  0  0  0  0  0  0  0
   11.5481   -8.6188    0.0000 C   0  0  1  0  0  0  0  0  0  0  0  0
   12.2626   -8.2063    0.0000 C   0  0  1  0  0  0  0  0  0  0  0  0
   12.2626   -7.3813    0.0000 C   0  0  0  0  0  0  0  0  0  0  0  0
   10.8336   -8.2063    0.0000 O   0  0  0  0  0  0  0  0  0  0  0  0
    9.4047   -8.2063    0.0000 O   0  0  0  0  0  0  0  0  0  0  0  0
   10.1191   -8.6188    0.0000 C   0  0  2  0  0  0  0  0  0  0  0  0
   10.1191   -9.4438    0.0000 C   0  0  0  0  0  0  0  0  0  0  0  0
    9.4047   -9.8563    0.0000 C   0  0  1  0  0  0  0  0  0  0  0  0
    8.6902   -9.4438    0.0000 C   0  0  1  0  0  0  0  0  0  0  0  0
    8.6902   -8.6188    0.0000 C   0  0  1  0  0  0  0  0  0  0  0  0
    7.9757   -8.2063    0.0000 C   0  0  0  0  0  0  0  0  0  0  0  0
    7.9757   -9.8563    0.0000 O   0  0  0  0  0  0  0  0  0  0  0  0
    7.2613   -8.6188    0.0000 O   0  0  0  0  0  0  0  0  0  0  0  0
    7.2613   -9.4438    0.0000 C   0  0  2  0  0  0  0  0  0  0  0  0
    6.5468   -9.8563    0.0000 C   0  0  0  0  0  0  0  0  0  0  0  0
    5.8323   -9.4438    0.0000 C   0  0  1  0  0  0  0  0  0  0  0  0
    5.8323   -8.6188    0.0000 C   0  0  1  0  0  0  0  0  0  0  0  0
    6.5468   -8.2063    0.0000 C   0  0  1  0  0  0  0  0  0  0  0  0
    6.5468   -7.3813    0.0000 C   0  0  0  0  0  0  0  0  0  0  0  0
    5.1178   -9.8563    0.0000 O   0  0  0  0  0  0  0  0  0  0  0  0
    9.4047  -10.6813    0.0000 O   0  0  0  0  0  0  0  0  0  0  0  0
   10.8336   -9.8563    0.0000 O   0  0  0  0  0  0  0  0  0  0  0  0
   17.9783   -9.0313    0.0000 O   0  0  0  0  0  0  0  0  0  0  0  0
   17.2638   -6.1438    0.0000 O   0  0  0  0  0  0  0  0  0  0  0  0
   15.8349  -10.2688    0.0000 H   0  0  0  0  0  0  0  0  0  0  0  0
   17.2638   -7.7938    0.0000 H   0  0  0  0  0  0  0  0  0  0  0  0
   16.5494   -9.0313    0.0000 H   0  0  0  0  0  0  0  0  0  0  0  0
    4.2766   -9.6258    0.0000 O   0  0  0  0  0  0  0  0  0  0  0  0
    2.6267   -9.6070    0.0000 O   0  0  0  0  0  0  0  0  0  0  0  0
    1.8181   -8.1688    0.0000 O   0  0  0  0  0  0  0  0  0  0  0  0
    1.8343   -6.7399    0.0000 O   0  0  0  0  0  0  0  0  0  0  0  0
    2.6593   -6.7493    0.0000 C   0  0  0  0  0  0  0  0  0  0  0  0
    3.8885   -7.4778    0.0000 O   0  0  0  0  0  0  0  0  0  0  0  0
    3.0636   -7.4684    0.0000 C   0  0  1  0  0  0  0  0  0  0  0  0
    2.6430   -8.1782    0.0000 C   0  0  2  0  0  0  0  0  0  0  0  0
    3.0473   -8.8973    0.0000 C   0  0  1  0  0  0  0  0  0  0  0  0
    3.8723   -8.9067    0.0000 C   0  0  2  0  0  0  0  0  0  0  0  0
    4.2929   -8.1969    0.0000 C   0  0  2  0  0  0  0  0  0  0  0  0
    5.1178   -8.2063    0.0000 O   0  0  0  0  0  0  0  0  0  0  0  0
 68 69  1  1  0  0  0
 67 58  1  6  0  0  0
 66 59  1  1  0  0  0
 65 60  1  6  0  0  0
 64 62  1  1  0  0  0
 62 61  1  0  0  0  0
 68 63  1  0  0  0  0
 64 63  1  0  0  0  0
 65 64  1  0  0  0  0
 66 65  1  0  0  0  0
 67 66  1  0  0  0  0
 68 67  1  0  0  0  0
  1  2  1  0  0  0  0
  2  3  1  0  0  0  0
  3  4  2  0  0  0  0
  4  5  1  0  0  0  0
  1  5  1  0  0  0  0
  5  6  2  0  0  0  0
  7  8  1  0  0  0  0
  8  9  1  0  0  0  0
  9 10  1  0  0  0  0
 10 11  1  0  0  0  0
 11 12  1  0  0  0  0
 12 13  1  0  0  0  0
 13 14  1  0  0  0  0
 14 15  1  0  0  0  0
 15 16  1  0  0  0  0
 16 17  1  0  0  0  0
 17 18  1  0  0  0  0
 18 19  1  0  0  0  0
 15 19  1  0  0  0  0
 19 20  1  0  0  0  0
 20 21  1  0  0  0  0
 21 22  1  0  0  0  0
 14 22  1  0  0  0  0
 22 23  1  0  0  0  0
 11 23  1  0  0  0  0
  7 23  1  0  0  0  0
 19 24  1  1  0  0  0
 23 25  1  1  0  0  0
 27 28  1  0  0  0  0
 28 29  1  0  0  0  0
 29 30  1  0  0  0  0
 30 31  1  0  0  0  0
 31 32  1  0  0  0  0
 27 32  1  0  0  0  0
 32 33  1  1  0  0  0
 35 36  1  0  0  0  0
 36 37  1  0  0  0  0
 37 38  1  0  0  0  0
 38 39  1  0  0  0  0
 39 40  1  0  0  0  0
 35 40  1  0  0  0  0
 40 41  1  1  0  0  0
 43 44  1  0  0  0  0
 44 45  1  0  0  0  0
 45 46  1  0  0  0  0
 46 47  1  0  0  0  0
 47 48  1  0  0  0  0
 43 48  1  0  0  0  0
 47 69  1  6  0  0  0
 48 49  1  1  0  0  0
 46 50  1  6  0  0  0
 44 42  1  1  0  0  0
 39 42  1  6  0  0  0
 38 51  1  6  0  0  0
 36 34  1  1  0  0  0
 31 34  1  6  0  0  0
 30 52  1  6  0  0  0
 28 26  1  1  0  0  0
  9 26  1  1  0  0  0
 15 53  1  1  0  0  0
 20 54  1  1  0  0  0
 18  3  1  1  0  0  0
 11 55  1  1  0  0  0
 14 56  1  1  0  0  0
 22 57  1  6  0  0  0
M  END
>  <cdx:fragmentId>
103

$$$$
