574206.cdx
  Mrv1902 05222410242D          

104115  0  0  0  0            999 V2000
   14.0015  -10.2140    0.0000 C   0  0  0  0  0  0  0  0  0  0  0  0
   14.7160   -9.8015    0.0000 C   0  0  0  0  0  0  0  0  0  0  0  0
   15.4305  -10.2140    0.0000 C   0  0  0  0  0  0  0  0  0  0  0  0
   15.4305  -11.0390    0.0000 C   0  0  0  0  0  0  0  0  0  0  0  0
   14.7160  -11.4515    0.0000 C   0  0  2  0  0  0  0  0  0  0  0  0
   14.7160  -12.2765    0.0000 C   0  0  0  0  0  0  0  0  0  0  0  0
   14.0015  -12.6890    0.0000 C   0  0  0  0  0  0  0  0  0  0  0  0
   13.2871  -12.2765    0.0000 C   0  0  1  0  0  0  0  0  0  0  0  0
   12.5726  -12.6890    0.0000 C   0  0  2  0  0  0  0  0  0  0  0  0
   12.5726  -13.5140    0.0000 C   0  0  0  0  0  0  0  0  0  0  0  0
   11.8581  -13.9265    0.0000 C   0  0  0  0  0  0  0  0  0  0  0  0
   11.1436  -13.5140    0.0000 C   0  0  1  0  0  0  0  0  0  0  0  0
   10.4292  -13.9265    0.0000 C   0  0  2  0  0  0  0  0  0  0  0  0
    9.7147  -13.5140    0.0000 C   0  0  2  0  0  0  0  0  0  0  0  0
    9.7147  -12.6890    0.0000 C   0  0  2  0  0  0  0  0  0  0  0  0
   10.4292  -12.2765    0.0000 C   0  0  0  0  0  0  0  0  0  0  0  0
   11.1436  -12.6890    0.0000 C   0  0  2  0  0  0  0  0  0  0  0  0
   11.8581  -12.2765    0.0000 C   0  0  1  0  0  0  0  0  0  0  0  0
   11.8581  -11.4515    0.0000 C   0  0  0  0  0  0  0  0  0  0  0  0
   12.5726  -11.0390    0.0000 C   0  0  0  0  0  0  0  0  0  0  0  0
   13.2871  -11.4515    0.0000 C   0  0  0  0  0  0  0  0  0  0  0  0
   14.0015  -11.0390    0.0000 C   0  0  2  0  0  0  0  0  0  0  0  0
   15.4305  -11.8640    0.0000 C   0  0  0  0  0  0  0  0  0  0  0  0
   15.4305  -12.6890    0.0000 O   0  0  0  0  0  0  0  0  0  0  0  0
   16.1449  -11.4515    0.0000 O   0  0  0  0  0  0  0  0  0  0  0  0
   10.0167  -14.6409    0.0000 C   0  0  0  0  0  0  0  0  0  0  0  0
   14.3035   -9.0870    0.0000 C   0  0  0  0  0  0  0  0  0  0  0  0
   15.1285   -9.0870    0.0000 C   0  0  0  0  0  0  0  0  0  0  0  0
   10.8417  -14.6409    0.0000 C   0  0  0  0  0  0  0  0  0  0  0  0
   10.4292  -15.3554    0.0000 O   0  0  0  0  0  0  0  0  0  0  0  0
    9.0002  -12.2765    0.0000 O   0  0  0  0  0  0  0  0  0  0  0  0
    9.0002  -13.9265    0.0000 O   0  0  0  0  0  0  0  0  0  0  0  0
    8.2858  -12.6890    0.0000 O   0  0  0  0  0  0  0  0  0  0  0  0
    8.2858  -13.5140    0.0000 C   0  0  2  0  0  0  0  0  0  0  0  0
    7.5713  -13.9265    0.0000 C   0  0  1  0  0  0  0  0  0  0  0  0
    6.8568  -13.5140    0.0000 C   0  0  2  0  0  0  0  0  0  0  0  0
    6.8568  -12.6890    0.0000 C   0  0  1  0  0  0  0  0  0  0  0  0
    7.5713  -12.2765    0.0000 C   0  0  1  0  0  0  0  0  0  0  0  0
    6.1423  -13.9265    0.0000 O   0  0  0  0  0  0  0  0  0  0  0  0
    5.4279  -12.6890    0.0000 O   0  0  0  0  0  0  0  0  0  0  0  0
    5.4279  -13.5140    0.0000 C   0  0  2  0  0  0  0  0  0  0  0  0
    4.7134  -13.9265    0.0000 C   0  0  1  0  0  0  0  0  0  0  0  0
    3.9989  -13.5140    0.0000 C   0  0  2  0  0  0  0  0  0  0  0  0
    3.9989  -12.6890    0.0000 C   0  0  1  0  0  0  0  0  0  0  0  0
    4.7134  -12.2765    0.0000 C   0  0  0  0  0  0  0  0  0  0  0  0
    3.2845  -12.2765    0.0000 O   0  0  0  0  0  0  0  0  0  0  0  0
    3.2845  -13.9265    0.0000 O   0  0  0  0  0  0  0  0  0  0  0  0
    4.7134  -14.7515    0.0000 O   0  0  0  0  0  0  0  0  0  0  0  0
    7.5713  -11.4515    0.0000 C   0  0  0  0  0  0  0  0  0  0  0  0
    6.8568  -11.0390    0.0000 O   0  0  0  0  0  0  0  0  0  0  0  0
    6.1423  -12.2765    0.0000 O   0  0  0  0  0  0  0  0  0  0  0  0
    7.5713  -14.7515    0.0000 O   0  0  0  0  0  0  0  0  0  0  0  0
   11.1436  -14.3390    0.0000 H   0  0  0  0  0  0  0  0  0  0  0  0
   14.0015  -11.8640    0.0000 H   0  0  0  0  0  0  0  0  0  0  0  0
   16.8594  -12.6890    0.0000 O   0  0  0  0  0  0  0  0  0  0  0  0
   16.8594  -11.8640    0.0000 C   0  0  2  0  0  0  0  0  0  0  0  0
   17.5739  -11.4515    0.0000 C   0  0  1  0  0  0  0  0  0  0  0  0
   18.2884  -11.8640    0.0000 C   0  0  2  0  0  0  0  0  0  0  0  0
   18.2884  -12.6890    0.0000 C   0  0  2  0  0  0  0  0  0  0  0  0
   17.5739  -13.1015    0.0000 C   0  0  0  0  0  0  0  0  0  0  0  0
   19.0028  -13.1015    0.0000 O   0  0  0  0  0  0  0  0  0  0  0  0
   19.0028  -11.4515    0.0000 O   0  0  0  0  0  0  0  0  0  0  0  0
   17.5739  -10.6265    0.0000 O   0  0  0  0  0  0  0  0  0  0  0  0
   19.0028  -10.6265    0.0000 O   0  0  0  0  0  0  0  0  0  0  0  0
   18.2884  -10.2140    0.0000 C   0  0  2  0  0  0  0  0  0  0  0  0
   18.2884   -9.3890    0.0000 C   0  0  1  0  0  0  0  0  0  0  0  0
   19.0028   -8.9765    0.0000 C   0  0  1  0  0  0  0  0  0  0  0  0
   19.7173   -9.3890    0.0000 C   0  0  2  0  0  0  0  0  0  0  0  0
   19.7173  -10.2140    0.0000 C   0  0  2  0  0  0  0  0  0  0  0  0
   20.4318  -10.6265    0.0000 C   0  0  0  0  0  0  0  0  0  0  0  0
   17.5739   -8.9765    0.0000 O   0  0  0  0  0  0  0  0  0  0  0  0
   20.4318   -8.9765    0.0000 O   0  0  0  0  0  0  0  0  0  0  0  0
   21.1462  -10.2140    0.0000 O   0  0  0  0  0  0  0  0  0  0  0  0
   21.1462   -9.3890    0.0000 C   0  0  2  0  0  0  0  0  0  0  0  0
   21.8607   -8.9765    0.0000 C   0  0  1  0  0  0  0  0  0  0  0  0
   22.5752   -9.3890    0.0000 C   0  0  2  0  0  0  0  0  0  0  0  0
   22.5752  -10.2140    0.0000 C   0  0  1  0  0  0  0  0  0  0  0  0
   21.8607  -10.6265    0.0000 C   0  0  0  0  0  0  0  0  0  0  0  0
   23.2897  -10.6265    0.0000 O   0  0  0  0  0  0  0  0  0  0  0  0
   21.8607   -8.1515    0.0000 O   0  0  0  0  0  0  0  0  0  0  0  0
   23.2897   -8.9765    0.0000 O   0  0  0  0  0  0  0  0  0  0  0  0
   24.0904  -10.2095    0.0000 O   0  0  0  0  0  0  0  0  0  0  0  0
   24.0041   -9.3890    0.0000 C   0  0  2  0  0  0  0  0  0  0  0  0
   24.7578   -9.0534    0.0000 C   0  0  1  0  0  0  0  0  0  0  0  0
   25.3098   -9.6665    0.0000 C   0  0  2  0  0  0  0  0  0  0  0  0
   24.8973  -10.3810    0.0000 C   0  0  0  0  0  0  0  0  0  0  0  0
   26.0635  -10.0021    0.0000 C   0  0  0  0  0  0  0  0  0  0  0  0
   26.7310   -9.5171    0.0000 O   0  0  0  0  0  0  0  0  0  0  0  0
   25.9773   -9.1816    0.0000 O   0  0  0  0  0  0  0  0  0  0  0  0
   24.9293   -8.2464    0.0000 O   0  0  0  0  0  0  0  0  0  0  0  0
   19.0028   -8.1515    0.0000 O   0  0  0  0  0  0  0  0  0  0  0  0
   20.4710   -8.0745    0.0000 O   0  0  0  0  0  0  0  0  0  0  0  0
   19.7173   -7.7390    0.0000 C   0  0  2  0  0  0  0  0  0  0  0  0
   19.8035   -6.9185    0.0000 C   0  0  1  0  0  0  0  0  0  0  0  0
   20.6105   -6.7470    0.0000 C   0  0  2  0  0  0  0  0  0  0  0  0
   21.0230   -7.4614    0.0000 C   0  0  0  0  0  0  0  0  0  0  0  0
   21.2779   -6.2620    0.0000 C   0  0  0  0  0  0  0  0  0  0  0  0
   22.0316   -6.5976    0.0000 O   0  0  0  0  0  0  0  0  0  0  0  0
   20.5243   -5.9265    0.0000 O   0  0  0  0  0  0  0  0  0  0  0  0
   19.1904   -6.3665    0.0000 O   0  0  0  0  0  0  0  0  0  0  0  0
   11.1436  -11.8640    0.0000 C   0  0  0  0  0  0  0  0  0  0  0  0
   11.8581  -13.1015    0.0000 H   0  0  0  0  0  0  0  0  0  0  0  0
   13.2871  -13.1015    0.0000 C   0  0  0  0  0  0  0  0  0  0  0  0
   12.5726  -11.8640    0.0000 C   0  0  0  0  0  0  0  0  0  0  0  0
  1  2  1  0  0  0  0
  2  3  1  0  0  0  0
  3  4  1  0  0  0  0
  4  5  1  0  0  0  0
  5  6  1  0  0  0  0
  6  7  1  0  0  0  0
  7  8  1  0  0  0  0
  8  9  1  0  0  0  0
  9 10  1  0  0  0  0
 10 11  1  0  0  0  0
 11 12  1  0  0  0  0
 12 13  1  0  0  0  0
 13 14  1  0  0  0  0
 14 15  1  0  0  0  0
 15 16  1  0  0  0  0
 16 17  1  0  0  0  0
 12 17  1  0  0  0  0
 17 18  1  0  0  0  0
  9 18  1  0  0  0  0
 18 19  1  0  0  0  0
 19 20  1  0  0  0  0
 20 21  2  0  0  0  0
  8 21  1  0  0  0  0
 21 22  1  0  0  0  0
  5 22  1  0  0  0  0
  1 22  1  0  0  0  0
 23 24  2  0  0  0  0
 23 25  1  0  0  0  0
  5 23  1  1  0  0  0
 13 26  1  1  0  0  0
  2 27  1  0  0  0  0
  2 28  1  0  0  0  0
 29 30  1  0  0  0  0
 13 29  1  0  0  0  0
 15 31  1  1  0  0  0
 33 34  1  0  0  0  0
 34 35  1  0  0  0  0
 35 36  1  0  0  0  0
 36 37  1  0  0  0  0
 37 38  1  0  0  0  0
 33 38  1  0  0  0  0
 40 41  1  0  0  0  0
 41 42  1  0  0  0  0
 42 43  1  0  0  0  0
 43 44  1  0  0  0  0
 44 45  1  0  0  0  0
 40 45  1  0  0  0  0
 44 46  1  6  0  0  0
 43 47  1  1  0  0  0
 42 48  1  6  0  0  0
 41 39  1  1  0  0  0
 36 39  1  1  0  0  0
 49 50  1  0  0  0  0
 38 49  1  1  0  0  0
 37 51  1  6  0  0  0
 35 52  1  6  0  0  0
 34 32  1  1  0  0  0
 14 32  1  1  0  0  0
 12 53  1  6  0  0  0
 22 54  1  1  0  0  0
 55 56  1  0  0  0  0
 56 57  1  0  0  0  0
 57 58  1  0  0  0  0
 58 59  1  0  0  0  0
 59 60  1  0  0  0  0
 55 60  1  0  0  0  0
 59 61  1  1  0  0  0
 58 62  1  1  0  0  0
 64 65  1  0  0  0  0
 65 66  1  0  0  0  0
 66 67  1  0  0  0  0
 67 68  1  0  0  0  0
 68 69  1  0  0  0  0
 64 69  1  0  0  0  0
 69 70  1  6  0  0  0
 66 71  1  6  0  0  0
 73 74  1  0  0  0  0
 74 75  1  0  0  0  0
 75 76  1  0  0  0  0
 76 77  1  0  0  0  0
 77 78  1  0  0  0  0
 73 78  1  0  0  0  0
 77 79  1  6  0  0  0
 75 80  1  6  0  0  0
 82 83  1  0  0  0  0
 83 84  1  0  0  0  0
 84 85  1  0  0  0  0
 85 86  1  0  0  0  0
 82 86  1  0  0  0  0
 87 88  1  0  0  0  0
 85 87  1  1  0  0  0
 85 89  1  6  0  0  0
 84 90  1  6  0  0  0
 83 81  1  1  0  0  0
 76 81  1  1  0  0  0
 74 72  1  1  0  0  0
 68 72  1  1  0  0  0
 92 93  1  0  0  0  0
 93 94  1  0  0  0  0
 94 95  1  0  0  0  0
 95 96  1  0  0  0  0
 92 96  1  0  0  0  0
 97 98  1  0  0  0  0
 95 97  1  1  0  0  0
 95 99  1  6  0  0  0
 94100  1  6  0  0  0
 93 91  1  1  0  0  0
 67 91  1  6  0  0  0
 65 63  1  1  0  0  0
 57 63  1  6  0  0  0
 56 25  1  1  0  0  0
 17101  1  1  0  0  0
 18102  1  6  0  0  0
  8103  1  6  0  0  0
  9104  1  1  0  0  0
M  END
>  <cdx:fragmentId>
128324

$$$$
