574204.cdx
  Mrv1902 05222410232D          

106117  0  0  0  0            999 V2000
   11.7407   -7.8729    0.0000 C   0  0  0  0  0  0  0  0  0  0  0  0
   12.4551   -7.4604    0.0000 C   0  0  0  0  0  0  0  0  0  0  0  0
   13.1696   -7.8729    0.0000 C   0  0  0  0  0  0  0  0  0  0  0  0
   13.1696   -8.6979    0.0000 C   0  0  0  0  0  0  0  0  0  0  0  0
   12.4551   -9.1104    0.0000 C   0  0  2  0  0  0  0  0  0  0  0  0
   12.4551   -9.9354    0.0000 C   0  0  1  0  0  0  0  0  0  0  0  0
   11.7407  -10.3479    0.0000 C   0  0  0  0  0  0  0  0  0  0  0  0
   11.0262   -9.9354    0.0000 C   0  0  1  0  0  0  0  0  0  0  0  0
   10.3117  -10.3479    0.0000 C   0  0  2  0  0  0  0  0  0  0  0  0
   10.3117  -11.1729    0.0000 C   0  0  0  0  0  0  0  0  0  0  0  0
    9.5973  -11.5854    0.0000 C   0  0  0  0  0  0  0  0  0  0  0  0
    8.8828  -11.1729    0.0000 C   0  0  1  0  0  0  0  0  0  0  0  0
    8.1683  -11.5854    0.0000 C   0  0  2  0  0  0  0  0  0  0  0  0
    7.4538  -11.1729    0.0000 C   0  0  2  0  0  0  0  0  0  0  0  0
    7.4538  -10.3479    0.0000 C   0  0  2  0  0  0  0  0  0  0  0  0
    8.1683   -9.9354    0.0000 C   0  0  0  0  0  0  0  0  0  0  0  0
    8.8828  -10.3479    0.0000 C   0  0  2  0  0  0  0  0  0  0  0  0
    9.5973   -9.9354    0.0000 C   0  0  1  0  0  0  0  0  0  0  0  0
    9.5973   -9.1104    0.0000 C   0  0  0  0  0  0  0  0  0  0  0  0
   10.3117   -8.6979    0.0000 C   0  0  0  0  0  0  0  0  0  0  0  0
   11.0262   -9.1104    0.0000 C   0  0  0  0  0  0  0  0  0  0  0  0
   11.7407   -8.6979    0.0000 C   0  0  2  0  0  0  0  0  0  0  0  0
   13.2132   -9.5916    0.0000 C   0  0  0  0  0  0  0  0  0  0  0  0
   13.2132  -10.4166    0.0000 O   0  0  0  0  0  0  0  0  0  0  0  0
   13.9276   -9.1791    0.0000 O   0  0  0  0  0  0  0  0  0  0  0  0
    7.7558  -12.2999    0.0000 C   0  0  0  0  0  0  0  0  0  0  0  0
   12.0426   -6.7460    0.0000 C   0  0  0  0  0  0  0  0  0  0  0  0
   12.8676   -6.7460    0.0000 C   0  0  0  0  0  0  0  0  0  0  0  0
    8.5808  -12.2999    0.0000 C   0  0  0  0  0  0  0  0  0  0  0  0
    8.1683  -13.0144    0.0000 O   0  0  0  0  0  0  0  0  0  0  0  0
    6.7394   -9.9354    0.0000 O   0  0  0  0  0  0  0  0  0  0  0  0
    6.7394  -11.5854    0.0000 O   0  0  0  0  0  0  0  0  0  0  0  0
    6.0249  -10.3479    0.0000 O   0  0  0  0  0  0  0  0  0  0  0  0
    6.0249  -11.1729    0.0000 C   0  0  2  0  0  0  0  0  0  0  0  0
    5.3104  -11.5854    0.0000 C   0  0  1  0  0  0  0  0  0  0  0  0
    4.5960  -11.1729    0.0000 C   0  0  2  0  0  0  0  0  0  0  0  0
    4.5960  -10.3479    0.0000 C   0  0  1  0  0  0  0  0  0  0  0  0
    5.3104   -9.9354    0.0000 C   0  0  1  0  0  0  0  0  0  0  0  0
    3.8815  -11.5854    0.0000 O   0  0  0  0  0  0  0  0  0  0  0  0
    3.1670  -10.3479    0.0000 O   0  0  0  0  0  0  0  0  0  0  0  0
    3.1670  -11.1729    0.0000 C   0  0  2  0  0  0  0  0  0  0  0  0
    2.4525  -11.5854    0.0000 C   0  0  1  0  0  0  0  0  0  0  0  0
    1.7381  -11.1729    0.0000 C   0  0  2  0  0  0  0  0  0  0  0  0
    1.7381  -10.3479    0.0000 C   0  0  1  0  0  0  0  0  0  0  0  0
    2.4525   -9.9354    0.0000 C   0  0  0  0  0  0  0  0  0  0  0  0
    1.0236   -9.9354    0.0000 O   0  0  0  0  0  0  0  0  0  0  0  0
    1.0236  -11.5854    0.0000 O   0  0  0  0  0  0  0  0  0  0  0  0
    2.4525  -12.4104    0.0000 O   0  0  0  0  0  0  0  0  0  0  0  0
    5.3104   -9.1104    0.0000 C   0  0  0  0  0  0  0  0  0  0  0  0
    4.5960   -8.6979    0.0000 O   0  0  0  0  0  0  0  0  0  0  0  0
    3.8815   -9.9354    0.0000 O   0  0  0  0  0  0  0  0  0  0  0  0
    5.3104  -12.4104    0.0000 O   0  0  0  0  0  0  0  0  0  0  0  0
    8.8828  -11.9979    0.0000 H   0  0  0  0  0  0  0  0  0  0  0  0
   11.7407   -9.5229    0.0000 H   0  0  0  0  0  0  0  0  0  0  0  0
   14.6421  -10.4166    0.0000 O   0  0  0  0  0  0  0  0  0  0  0  0
   14.6421   -9.5916    0.0000 C   0  0  2  0  0  0  0  0  0  0  0  0
   15.3566   -9.1791    0.0000 C   0  0  1  0  0  0  0  0  0  0  0  0
   16.0711   -9.5916    0.0000 C   0  0  2  0  0  0  0  0  0  0  0  0
   16.0711  -10.4166    0.0000 C   0  0  2  0  0  0  0  0  0  0  0  0
   15.3566  -10.8291    0.0000 C   0  0  0  0  0  0  0  0  0  0  0  0
   16.7855  -10.8291    0.0000 O   0  0  0  0  0  0  0  0  0  0  0  0
   16.7855   -9.1791    0.0000 O   0  0  0  0  0  0  0  0  0  0  0  0
   15.3566   -8.3541    0.0000 O   0  0  0  0  0  0  0  0  0  0  0  0
   16.7855   -8.3541    0.0000 O   0  0  0  0  0  0  0  0  0  0  0  0
   16.0711   -7.9416    0.0000 C   0  0  2  0  0  0  0  0  0  0  0  0
   16.0711   -7.1166    0.0000 C   0  0  1  0  0  0  0  0  0  0  0  0
   16.7855   -6.7041    0.0000 C   0  0  1  0  0  0  0  0  0  0  0  0
   17.5000   -7.1166    0.0000 C   0  0  2  0  0  0  0  0  0  0  0  0
   17.5000   -7.9416    0.0000 C   0  0  2  0  0  0  0  0  0  0  0  0
   18.2145   -8.3541    0.0000 C   0  0  0  0  0  0  0  0  0  0  0  0
   15.3566   -6.7041    0.0000 O   0  0  0  0  0  0  0  0  0  0  0  0
   18.2145   -6.7041    0.0000 O   0  0  0  0  0  0  0  0  0  0  0  0
   18.9289   -7.9416    0.0000 O   0  0  0  0  0  0  0  0  0  0  0  0
   18.9289   -7.1166    0.0000 C   0  0  2  0  0  0  0  0  0  0  0  0
   19.6434   -6.7041    0.0000 C   0  0  1  0  0  0  0  0  0  0  0  0
   20.3579   -7.1166    0.0000 C   0  0  2  0  0  0  0  0  0  0  0  0
   20.3579   -7.9416    0.0000 C   0  0  1  0  0  0  0  0  0  0  0  0
   19.6434   -8.3541    0.0000 C   0  0  0  0  0  0  0  0  0  0  0  0
   21.0724   -6.7041    0.0000 O   0  0  0  0  0  0  0  0  0  0  0  0
   21.7868   -7.9416    0.0000 O   0  0  0  0  0  0  0  0  0  0  0  0
   21.7868   -7.1166    0.0000 C   0  0  2  0  0  0  0  0  0  0  0  0
   22.5013   -6.7041    0.0000 C   0  0  1  0  0  0  0  0  0  0  0  0
   23.2158   -7.1166    0.0000 C   0  0  1  0  0  0  0  0  0  0  0  0
   23.2158   -7.9416    0.0000 C   0  0  2  0  0  0  0  0  0  0  0  0
   22.5013   -8.3541    0.0000 C   0  0  2  0  0  0  0  0  0  0  0  0
   22.5013   -9.1791    0.0000 C   0  0  0  0  0  0  0  0  0  0  0  0
   23.9302   -8.3541    0.0000 O   0  0  0  0  0  0  0  0  0  0  0  0
   23.9302   -6.7041    0.0000 O   0  0  0  0  0  0  0  0  0  0  0  0
   22.5013   -5.8791    0.0000 O   0  0  0  0  0  0  0  0  0  0  0  0
   21.0724   -8.3541    0.0000 O   0  0  0  0  0  0  0  0  0  0  0  0
   19.6434   -5.8791    0.0000 O   0  0  0  0  0  0  0  0  0  0  0  0
   16.7855   -5.8791    0.0000 O   0  0  0  0  0  0  0  0  0  0  0  0
   18.2537   -5.8022    0.0000 O   0  0  0  0  0  0  0  0  0  0  0  0
   17.5000   -5.4666    0.0000 C   0  0  2  0  0  0  0  0  0  0  0  0
   17.5862   -4.6461    0.0000 C   0  0  1  0  0  0  0  0  0  0  0  0
   18.3932   -4.4746    0.0000 C   0  0  2  0  0  0  0  0  0  0  0  0
   18.8057   -5.1891    0.0000 C   0  0  0  0  0  0  0  0  0  0  0  0
   19.0607   -3.9897    0.0000 C   0  0  0  0  0  0  0  0  0  0  0  0
   19.8143   -4.3252    0.0000 O   0  0  0  0  0  0  0  0  0  0  0  0
   18.3070   -3.6541    0.0000 O   0  0  0  0  0  0  0  0  0  0  0  0
   16.9731   -4.0941    0.0000 O   0  0  0  0  0  0  0  0  0  0  0  0
    8.8828   -9.5229    0.0000 C   0  0  0  0  0  0  0  0  0  0  0  0
    9.5973  -10.7604    0.0000 H   0  0  0  0  0  0  0  0  0  0  0  0
   11.0262  -10.7604    0.0000 C   0  0  0  0  0  0  0  0  0  0  0  0
   12.4551  -10.7604    0.0000 O   0  0  0  0  0  0  0  0  0  0  0  0
   10.3117   -9.5229    0.0000 C   0  0  0  0  0  0  0  0  0  0  0  0
  1  2  1  0  0  0  0
  2  3  1  0  0  0  0
  3  4  1  0  0  0  0
  4  5  1  0  0  0  0
  5  6  1  0  0  0  0
  6  7  1  0  0  0  0
  7  8  1  0  0  0  0
  8  9  1  0  0  0  0
  9 10  1  0  0  0  0
 10 11  1  0  0  0  0
 11 12  1  0  0  0  0
 12 13  1  0  0  0  0
 13 14  1  0  0  0  0
 14 15  1  0  0  0  0
 15 16  1  0  0  0  0
 16 17  1  0  0  0  0
 12 17  1  0  0  0  0
 17 18  1  0  0  0  0
  9 18  1  0  0  0  0
 18 19  1  0  0  0  0
 19 20  1  0  0  0  0
 20 21  2  0  0  0  0
  8 21  1  0  0  0  0
 21 22  1  0  0  0  0
  5 22  1  0  0  0  0
  1 22  1  0  0  0  0
 23 24  2  0  0  0  0
 23 25  1  0  0  0  0
  5 23  1  1  0  0  0
 13 26  1  1  0  0  0
  2 27  1  0  0  0  0
  2 28  1  0  0  0  0
 29 30  1  0  0  0  0
 13 29  1  0  0  0  0
 15 31  1  1  0  0  0
 33 34  1  0  0  0  0
 34 35  1  0  0  0  0
 35 36  1  0  0  0  0
 36 37  1  0  0  0  0
 37 38  1  0  0  0  0
 33 38  1  0  0  0  0
 40 41  1  0  0  0  0
 41 42  1  0  0  0  0
 42 43  1  0  0  0  0
 43 44  1  0  0  0  0
 44 45  1  0  0  0  0
 40 45  1  0  0  0  0
 44 46  1  6  0  0  0
 43 47  1  1  0  0  0
 42 48  1  6  0  0  0
 41 39  1  1  0  0  0
 36 39  1  1  0  0  0
 49 50  1  0  0  0  0
 38 49  1  1  0  0  0
 37 51  1  6  0  0  0
 35 52  1  6  0  0  0
 34 32  1  1  0  0  0
 14 32  1  1  0  0  0
 12 53  1  6  0  0  0
 22 54  1  1  0  0  0
 55 56  1  0  0  0  0
 56 57  1  0  0  0  0
 57 58  1  0  0  0  0
 58 59  1  0  0  0  0
 59 60  1  0  0  0  0
 55 60  1  0  0  0  0
 59 61  1  1  0  0  0
 58 62  1  1  0  0  0
 64 65  1  0  0  0  0
 65 66  1  0  0  0  0
 66 67  1  0  0  0  0
 67 68  1  0  0  0  0
 68 69  1  0  0  0  0
 64 69  1  0  0  0  0
 69 70  1  6  0  0  0
 66 71  1  6  0  0  0
 73 74  1  0  0  0  0
 74 75  1  0  0  0  0
 75 76  1  0  0  0  0
 76 77  1  0  0  0  0
 77 78  1  0  0  0  0
 73 78  1  0  0  0  0
 80 81  1  0  0  0  0
 81 82  1  0  0  0  0
 82 83  1  0  0  0  0
 83 84  1  0  0  0  0
 84 85  1  0  0  0  0
 80 85  1  0  0  0  0
 85 86  1  6  0  0  0
 84 87  1  1  0  0  0
 83 88  1  6  0  0  0
 82 89  1  6  0  0  0
 81 79  1  1  0  0  0
 76 79  1  1  0  0  0
 77 90  1  6  0  0  0
 75 91  1  6  0  0  0
 74 72  1  1  0  0  0
 68 72  1  1  0  0  0
 93 94  1  0  0  0  0
 94 95  1  0  0  0  0
 95 96  1  0  0  0  0
 96 97  1  0  0  0  0
 93 97  1  0  0  0  0
 98 99  1  0  0  0  0
 96 98  1  1  0  0  0
 96100  1  6  0  0  0
 95101  1  6  0  0  0
 94 92  1  1  0  0  0
 67 92  1  6  0  0  0
 65 63  1  1  0  0  0
 57 63  1  6  0  0  0
 56 25  1  1  0  0  0
 17102  1  1  0  0  0
 18103  1  6  0  0  0
  8104  1  6  0  0  0
  6105  1  6  0  0  0
  9106  1  1  0  0  0
M  END
>  <cdx:fragmentId>
127954

$$$$
