574209.cdx
  Mrv1902 05222410222D          

 95105  0  0  0  0            999 V2000
   14.4051   -7.7741    0.0000 C   0  0  0  0  0  0  0  0  0  0  0  0
   15.1195   -7.3616    0.0000 C   0  0  0  0  0  0  0  0  0  0  0  0
   15.8340   -7.7741    0.0000 C   0  0  0  0  0  0  0  0  0  0  0  0
   15.8340   -8.5991    0.0000 C   0  0  0  0  0  0  0  0  0  0  0  0
   15.1195   -9.0116    0.0000 C   0  0  2  0  0  0  0  0  0  0  0  0
   15.1195   -9.8366    0.0000 C   0  0  0  0  0  0  0  0  0  0  0  0
   14.4051  -10.2491    0.0000 C   0  0  0  0  0  0  0  0  0  0  0  0
   13.6906   -9.8366    0.0000 C   0  0  1  0  0  0  0  0  0  0  0  0
   12.9761  -10.2491    0.0000 C   0  0  2  0  0  0  0  0  0  0  0  0
   12.9761  -11.0741    0.0000 C   0  0  0  0  0  0  0  0  0  0  0  0
   12.2616  -11.4866    0.0000 C   0  0  0  0  0  0  0  0  0  0  0  0
   11.5472  -11.0741    0.0000 C   0  0  1  0  0  0  0  0  0  0  0  0
   10.8327  -11.4866    0.0000 C   0  0  2  0  0  0  0  0  0  0  0  0
   10.1182  -11.0741    0.0000 C   0  0  2  0  0  0  0  0  0  0  0  0
   10.1182  -10.2491    0.0000 C   0  0  2  0  0  0  0  0  0  0  0  0
   10.8327   -9.8366    0.0000 C   0  0  0  0  0  0  0  0  0  0  0  0
   11.5472  -10.2491    0.0000 C   0  0  2  0  0  0  0  0  0  0  0  0
   12.2616   -9.8366    0.0000 C   0  0  1  0  0  0  0  0  0  0  0  0
   12.2616   -9.0116    0.0000 C   0  0  0  0  0  0  0  0  0  0  0  0
   12.9761   -8.5991    0.0000 C   0  0  0  0  0  0  0  0  0  0  0  0
   13.6906   -9.0116    0.0000 C   0  0  0  0  0  0  0  0  0  0  0  0
   14.4051   -8.5991    0.0000 C   0  0  2  0  0  0  0  0  0  0  0  0
   15.8340   -9.4241    0.0000 C   0  0  0  0  0  0  0  0  0  0  0  0
   15.8340  -10.2491    0.0000 O   0  0  0  0  0  0  0  0  0  0  0  0
   16.5485   -9.0116    0.0000 O   0  0  0  0  0  0  0  0  0  0  0  0
   10.4202  -12.2010    0.0000 C   0  0  0  0  0  0  0  0  0  0  0  0
   14.7070   -6.6471    0.0000 C   0  0  0  0  0  0  0  0  0  0  0  0
   15.5320   -6.6471    0.0000 C   0  0  0  0  0  0  0  0  0  0  0  0
   11.2452  -12.2010    0.0000 C   0  0  0  0  0  0  0  0  0  0  0  0
   10.8327  -12.9155    0.0000 O   0  0  0  0  0  0  0  0  0  0  0  0
    9.4038   -9.8366    0.0000 O   0  0  0  0  0  0  0  0  0  0  0  0
    9.4038  -11.4866    0.0000 O   0  0  0  0  0  0  0  0  0  0  0  0
    8.6893  -10.2491    0.0000 O   0  0  0  0  0  0  0  0  0  0  0  0
    8.6893  -11.0741    0.0000 C   0  0  2  0  0  0  0  0  0  0  0  0
    7.9748  -11.4866    0.0000 C   0  0  1  0  0  0  0  0  0  0  0  0
    7.2603  -11.0741    0.0000 C   0  0  2  0  0  0  0  0  0  0  0  0
    7.2603  -10.2491    0.0000 C   0  0  1  0  0  0  0  0  0  0  0  0
    7.9748   -9.8366    0.0000 C   0  0  1  0  0  0  0  0  0  0  0  0
    6.5459  -11.4866    0.0000 O   0  0  0  0  0  0  0  0  0  0  0  0
    5.8314  -10.2491    0.0000 O   0  0  0  0  0  0  0  0  0  0  0  0
    5.8314  -11.0741    0.0000 C   0  0  2  0  0  0  0  0  0  0  0  0
    5.1169  -11.4866    0.0000 C   0  0  1  0  0  0  0  0  0  0  0  0
    4.4025  -11.0741    0.0000 C   0  0  2  0  0  0  0  0  0  0  0  0
    4.4025  -10.2491    0.0000 C   0  0  1  0  0  0  0  0  0  0  0  0
    5.1169   -9.8366    0.0000 C   0  0  0  0  0  0  0  0  0  0  0  0
    3.6880   -9.8366    0.0000 O   0  0  0  0  0  0  0  0  0  0  0  0
    3.6880  -11.4866    0.0000 O   0  0  0  0  0  0  0  0  0  0  0  0
    5.1169  -12.3116    0.0000 O   0  0  0  0  0  0  0  0  0  0  0  0
    7.9748   -9.0116    0.0000 C   0  0  0  0  0  0  0  0  0  0  0  0
    7.2603   -8.5991    0.0000 O   0  0  0  0  0  0  0  0  0  0  0  0
    6.5459   -9.8366    0.0000 O   0  0  0  0  0  0  0  0  0  0  0  0
    7.9748  -12.3116    0.0000 O   0  0  0  0  0  0  0  0  0  0  0  0
   11.5472  -11.8991    0.0000 H   0  0  0  0  0  0  0  0  0  0  0  0
   14.4051   -9.4241    0.0000 H   0  0  0  0  0  0  0  0  0  0  0  0
   17.2629  -10.2491    0.0000 O   0  0  0  0  0  0  0  0  0  0  0  0
   17.2629   -9.4241    0.0000 C   0  0  2  0  0  0  0  0  0  0  0  0
   17.9774   -9.0116    0.0000 C   0  0  1  0  0  0  0  0  0  0  0  0
   18.6919   -9.4241    0.0000 C   0  0  2  0  0  0  0  0  0  0  0  0
   18.6919  -10.2491    0.0000 C   0  0  2  0  0  0  0  0  0  0  0  0
   17.9774  -10.6616    0.0000 C   0  0  0  0  0  0  0  0  0  0  0  0
   19.4064  -10.6616    0.0000 O   0  0  0  0  0  0  0  0  0  0  0  0
   19.4064   -9.0116    0.0000 O   0  0  0  0  0  0  0  0  0  0  0  0
   17.9774   -8.1866    0.0000 O   0  0  0  0  0  0  0  0  0  0  0  0
   19.4064   -8.1866    0.0000 O   0  0  0  0  0  0  0  0  0  0  0  0
   18.6919   -7.7741    0.0000 C   0  0  2  0  0  0  0  0  0  0  0  0
   18.6919   -6.9491    0.0000 C   0  0  1  0  0  0  0  0  0  0  0  0
   19.4064   -6.5366    0.0000 C   0  0  1  0  0  0  0  0  0  0  0  0
   20.1208   -6.9491    0.0000 C   0  0  2  0  0  0  0  0  0  0  0  0
   20.1208   -7.7741    0.0000 C   0  0  2  0  0  0  0  0  0  0  0  0
   20.8353   -6.5366    0.0000 O   0  0  0  0  0  0  0  0  0  0  0  0
   21.5498   -7.7741    0.0000 O   0  0  0  0  0  0  0  0  0  0  0  0
   21.5498   -6.9491    0.0000 C   0  0  2  0  0  0  0  0  0  0  0  0
   22.2642   -6.5366    0.0000 C   0  0  1  0  0  0  0  0  0  0  0  0
   22.9787   -6.9491    0.0000 C   0  0  2  0  0  0  0  0  0  0  0  0
   22.9787   -7.7741    0.0000 C   0  0  1  0  0  0  0  0  0  0  0  0
   22.2642   -8.1866    0.0000 C   0  0  0  0  0  0  0  0  0  0  0  0
   23.6932   -8.1866    0.0000 O   0  0  0  0  0  0  0  0  0  0  0  0
   23.6932   -6.5366    0.0000 O   0  0  0  0  0  0  0  0  0  0  0  0
   22.2642   -5.7116    0.0000 O   0  0  0  0  0  0  0  0  0  0  0  0
   20.8353   -8.1866    0.0000 C   0  0  0  0  0  0  0  0  0  0  0  0
   17.9774   -6.5366    0.0000 O   0  0  0  0  0  0  0  0  0  0  0  0
   19.4064   -5.7116    0.0000 O   0  0  0  0  0  0  0  0  0  0  0  0
   20.8745   -5.6346    0.0000 O   0  0  0  0  0  0  0  0  0  0  0  0
   20.1208   -5.2991    0.0000 C   0  0  2  0  0  0  0  0  0  0  0  0
   20.2071   -4.4786    0.0000 C   0  0  1  0  0  0  0  0  0  0  0  0
   21.0140   -4.3070    0.0000 C   0  0  2  0  0  0  0  0  0  0  0  0
   21.4265   -5.0215    0.0000 C   0  0  0  0  0  0  0  0  0  0  0  0
   21.6815   -3.8221    0.0000 C   0  0  0  0  0  0  0  0  0  0  0  0
   22.4351   -4.1577    0.0000 O   0  0  0  0  0  0  0  0  0  0  0  0
   20.9278   -3.4866    0.0000 O   0  0  0  0  0  0  0  0  0  0  0  0
   19.5940   -3.9265    0.0000 O   0  0  0  0  0  0  0  0  0  0  0  0
   11.5472   -9.4241    0.0000 C   0  0  0  0  0  0  0  0  0  0  0  0
   12.2616  -10.6616    0.0000 H   0  0  0  0  0  0  0  0  0  0  0  0
   13.6906  -10.6616    0.0000 C   0  0  0  0  0  0  0  0  0  0  0  0
   12.9761   -9.4241    0.0000 C   0  0  0  0  0  0  0  0  0  0  0  0
  1  2  1  0  0  0  0
  2  3  1  0  0  0  0
  3  4  1  0  0  0  0
  4  5  1  0  0  0  0
  5  6  1  0  0  0  0
  6  7  1  0  0  0  0
  7  8  1  0  0  0  0
  8  9  1  0  0  0  0
  9 10  1  0  0  0  0
 10 11  1  0  0  0  0
 11 12  1  0  0  0  0
 12 13  1  0  0  0  0
 13 14  1  0  0  0  0
 14 15  1  0  0  0  0
 15 16  1  0  0  0  0
 16 17  1  0  0  0  0
 12 17  1  0  0  0  0
 17 18  1  0  0  0  0
  9 18  1  0  0  0  0
 18 19  1  0  0  0  0
 19 20  1  0  0  0  0
 20 21  2  0  0  0  0
  8 21  1  0  0  0  0
 21 22  1  0  0  0  0
  5 22  1  0  0  0  0
  1 22  1  0  0  0  0
 23 24  2  0  0  0  0
 23 25  1  0  0  0  0
  5 23  1  1  0  0  0
 13 26  1  1  0  0  0
  2 27  1  0  0  0  0
  2 28  1  0  0  0  0
 29 30  1  0  0  0  0
 13 29  1  6  0  0  0
 15 31  1  1  0  0  0
 33 34  1  0  0  0  0
 34 35  1  0  0  0  0
 35 36  1  0  0  0  0
 36 37  1  0  0  0  0
 37 38  1  0  0  0  0
 33 38  1  0  0  0  0
 40 41  1  0  0  0  0
 41 42  1  0  0  0  0
 42 43  1  0  0  0  0
 43 44  1  0  0  0  0
 44 45  1  0  0  0  0
 40 45  1  0  0  0  0
 44 46  1  6  0  0  0
 43 47  1  1  0  0  0
 42 48  1  6  0  0  0
 41 39  1  1  0  0  0
 36 39  1  1  0  0  0
 49 50  1  0  0  0  0
 38 49  1  1  0  0  0
 37 51  1  6  0  0  0
 35 52  1  6  0  0  0
 34 32  1  1  0  0  0
 14 32  1  1  0  0  0
 12 53  1  6  0  0  0
 22 54  1  1  0  0  0
 55 56  1  0  0  0  0
 56 57  1  0  0  0  0
 57 58  1  0  0  0  0
 58 59  1  0  0  0  0
 59 60  1  0  0  0  0
 55 60  1  0  0  0  0
 59 61  1  1  0  0  0
 58 62  1  1  0  0  0
 64 65  1  0  0  0  0
 65 66  1  0  0  0  0
 66 67  1  0  0  0  0
 67 68  1  0  0  0  0
 68 69  1  0  0  0  0
 64 69  1  0  0  0  0
 71 72  1  0  0  0  0
 72 73  1  0  0  0  0
 73 74  1  0  0  0  0
 74 75  1  0  0  0  0
 75 76  1  0  0  0  0
 71 76  1  0  0  0  0
 75 77  1  6  0  0  0
 74 78  1  1  0  0  0
 73 79  1  6  0  0  0
 72 70  1  1  0  0  0
 68 70  1  1  0  0  0
 69 80  1  6  0  0  0
 66 81  1  6  0  0  0
 83 84  1  0  0  0  0
 84 85  1  0  0  0  0
 85 86  1  0  0  0  0
 86 87  1  0  0  0  0
 83 87  1  0  0  0  0
 88 89  1  0  0  0  0
 86 88  1  1  0  0  0
 86 90  1  6  0  0  0
 85 91  1  6  0  0  0
 84 82  1  1  0  0  0
 67 82  1  6  0  0  0
 65 63  1  1  0  0  0
 57 63  1  6  0  0  0
 56 25  1  1  0  0  0
 17 92  1  1  0  0  0
 18 93  1  6  0  0  0
  8 94  1  6  0  0  0
  9 95  1  1  0  0  0
M  END
>  <cdx:fragmentId>
129398

$$$$
