574207.cdx
  Mrv1902 05222410242D          

 95105  0  0  0  0            999 V2000
   11.5497   -6.9680    0.0000 C   0  0  0  0  0  0  0  0  0  0  0  0
   12.2642   -6.5555    0.0000 C   0  0  0  0  0  0  0  0  0  0  0  0
   12.9786   -6.9680    0.0000 C   0  0  0  0  0  0  0  0  0  0  0  0
   12.9786   -7.7930    0.0000 C   0  0  0  0  0  0  0  0  0  0  0  0
   12.2642   -8.2055    0.0000 C   0  0  2  0  0  0  0  0  0  0  0  0
   12.2642   -9.0305    0.0000 C   0  0  0  0  0  0  0  0  0  0  0  0
   11.5497   -9.4430    0.0000 C   0  0  0  0  0  0  0  0  0  0  0  0
   10.8352   -9.0305    0.0000 C   0  0  1  0  0  0  0  0  0  0  0  0
   10.1208   -9.4430    0.0000 C   0  0  2  0  0  0  0  0  0  0  0  0
   10.1208  -10.2680    0.0000 C   0  0  0  0  0  0  0  0  0  0  0  0
    9.4063  -10.6805    0.0000 C   0  0  0  0  0  0  0  0  0  0  0  0
    8.6918  -10.2680    0.0000 C   0  0  1  0  0  0  0  0  0  0  0  0
    7.9773  -10.6805    0.0000 C   0  0  2  0  0  0  0  0  0  0  0  0
    7.2629  -10.2680    0.0000 C   0  0  2  0  0  0  0  0  0  0  0  0
    7.2629   -9.4430    0.0000 C   0  0  2  0  0  0  0  0  0  0  0  0
    7.9773   -9.0305    0.0000 C   0  0  0  0  0  0  0  0  0  0  0  0
    8.6918   -9.4430    0.0000 C   0  0  2  0  0  0  0  0  0  0  0  0
    9.4063   -9.0305    0.0000 C   0  0  1  0  0  0  0  0  0  0  0  0
    9.4063   -8.2055    0.0000 C   0  0  0  0  0  0  0  0  0  0  0  0
   10.1208   -7.7930    0.0000 C   0  0  0  0  0  0  0  0  0  0  0  0
   10.8352   -8.2055    0.0000 C   0  0  0  0  0  0  0  0  0  0  0  0
   11.5497   -7.7930    0.0000 C   0  0  2  0  0  0  0  0  0  0  0  0
   12.9786   -8.6180    0.0000 C   0  0  0  0  0  0  0  0  0  0  0  0
   12.9786   -9.4430    0.0000 O   0  0  0  0  0  0  0  0  0  0  0  0
   13.6931   -8.2055    0.0000 O   0  0  0  0  0  0  0  0  0  0  0  0
    6.5484  -10.6805    0.0000 O   0  0  0  0  0  0  0  0  0  0  0  0
    5.8339   -9.4430    0.0000 O   0  0  0  0  0  0  0  0  0  0  0  0
    5.8339  -10.2680    0.0000 C   0  0  2  0  0  0  0  0  0  0  0  0
    5.1195  -10.6805    0.0000 C   0  0  1  0  0  0  0  0  0  0  0  0
    4.4050  -10.2680    0.0000 C   0  0  2  0  0  0  0  0  0  0  0  0
    4.4050   -9.4430    0.0000 C   0  0  1  0  0  0  0  0  0  0  0  0
    5.1195   -9.0305    0.0000 C   0  0  1  0  0  0  0  0  0  0  0  0
    5.1195   -8.2055    0.0000 C   0  0  0  0  0  0  0  0  0  0  0  0
    4.4050   -7.7930    0.0000 O   0  0  0  0  0  0  0  0  0  0  0  0
    3.6905   -9.0305    0.0000 O   0  0  0  0  0  0  0  0  0  0  0  0
    3.6905  -10.6805    0.0000 O   0  0  0  0  0  0  0  0  0  0  0  0
    5.1195  -11.5055    0.0000 O   0  0  0  0  0  0  0  0  0  0  0  0
    7.5648  -11.3949    0.0000 C   0  0  0  0  0  0  0  0  0  0  0  0
   11.8517   -5.8410    0.0000 C   0  0  0  0  0  0  0  0  0  0  0  0
   12.6767   -5.8410    0.0000 C   0  0  0  0  0  0  0  0  0  0  0  0
    8.3898  -11.3949    0.0000 C   0  0  0  0  0  0  0  0  0  0  0  0
    7.9773  -12.1094    0.0000 O   0  0  0  0  0  0  0  0  0  0  0  0
    6.5484   -9.0305    0.0000 O   0  0  0  0  0  0  0  0  0  0  0  0
    8.6918  -11.0930    0.0000 H   0  0  0  0  0  0  0  0  0  0  0  0
   11.5497   -8.6180    0.0000 H   0  0  0  0  0  0  0  0  0  0  0  0
   14.4076   -9.4430    0.0000 O   0  0  0  0  0  0  0  0  0  0  0  0
   14.4076   -8.6180    0.0000 C   0  0  2  0  0  0  0  0  0  0  0  0
   15.1221   -8.2055    0.0000 C   0  0  1  0  0  0  0  0  0  0  0  0
   15.8365   -8.6180    0.0000 C   0  0  2  0  0  0  0  0  0  0  0  0
   15.8365   -9.4430    0.0000 C   0  0  2  0  0  0  0  0  0  0  0  0
   15.1221   -9.8555    0.0000 C   0  0  0  0  0  0  0  0  0  0  0  0
   16.5510   -9.8555    0.0000 O   0  0  0  0  0  0  0  0  0  0  0  0
   16.5510   -8.2055    0.0000 O   0  0  0  0  0  0  0  0  0  0  0  0
   15.1221   -7.3805    0.0000 O   0  0  0  0  0  0  0  0  0  0  0  0
   16.5510   -7.3805    0.0000 O   0  0  0  0  0  0  0  0  0  0  0  0
   15.8365   -6.9680    0.0000 C   0  0  2  0  0  0  0  0  0  0  0  0
   15.8365   -6.1430    0.0000 C   0  0  1  0  0  0  0  0  0  0  0  0
   16.5510   -5.7305    0.0000 C   0  0  1  0  0  0  0  0  0  0  0  0
   17.2655   -6.1430    0.0000 C   0  0  2  0  0  0  0  0  0  0  0  0
   17.2655   -6.9680    0.0000 C   0  0  2  0  0  0  0  0  0  0  0  0
   17.9799   -7.3805    0.0000 C   0  0  0  0  0  0  0  0  0  0  0  0
   15.1221   -5.7305    0.0000 O   0  0  0  0  0  0  0  0  0  0  0  0
   17.9799   -5.7305    0.0000 O   0  0  0  0  0  0  0  0  0  0  0  0
   18.6944   -6.9680    0.0000 O   0  0  0  0  0  0  0  0  0  0  0  0
   18.6944   -6.1430    0.0000 C   0  0  2  0  0  0  0  0  0  0  0  0
   19.4089   -5.7305    0.0000 C   0  0  1  0  0  0  0  0  0  0  0  0
   20.1234   -6.1430    0.0000 C   0  0  2  0  0  0  0  0  0  0  0  0
   20.1234   -6.9680    0.0000 C   0  0  1  0  0  0  0  0  0  0  0  0
   19.4089   -7.3805    0.0000 C   0  0  0  0  0  0  0  0  0  0  0  0
   20.8378   -7.3805    0.0000 O   0  0  0  0  0  0  0  0  0  0  0  0
   19.4089   -4.9055    0.0000 O   0  0  0  0  0  0  0  0  0  0  0  0
   20.8378   -5.7305    0.0000 O   0  0  0  0  0  0  0  0  0  0  0  0
   21.6385   -6.9634    0.0000 O   0  0  0  0  0  0  0  0  0  0  0  0
   21.5523   -6.1430    0.0000 C   0  0  2  0  0  0  0  0  0  0  0  0
   22.3060   -5.8074    0.0000 C   0  0  1  0  0  0  0  0  0  0  0  0
   22.8580   -6.4205    0.0000 C   0  0  2  0  0  0  0  0  0  0  0  0
   22.4455   -7.1350    0.0000 C   0  0  0  0  0  0  0  0  0  0  0  0
   23.6117   -6.7560    0.0000 C   0  0  0  0  0  0  0  0  0  0  0  0
   24.2791   -6.2711    0.0000 O   0  0  0  0  0  0  0  0  0  0  0  0
   23.5255   -5.9356    0.0000 O   0  0  0  0  0  0  0  0  0  0  0  0
   22.4775   -5.0004    0.0000 O   0  0  0  0  0  0  0  0  0  0  0  0
   16.5510   -4.9055    0.0000 O   0  0  0  0  0  0  0  0  0  0  0  0
   18.0192   -4.8285    0.0000 O   0  0  0  0  0  0  0  0  0  0  0  0
   17.2655   -4.4929    0.0000 C   0  0  2  0  0  0  0  0  0  0  0  0
   17.3517   -3.6725    0.0000 C   0  0  1  0  0  0  0  0  0  0  0  0
   18.1587   -3.5009    0.0000 C   0  0  2  0  0  0  0  0  0  0  0  0
   18.5712   -4.2154    0.0000 C   0  0  0  0  0  0  0  0  0  0  0  0
   18.8261   -3.0160    0.0000 C   0  0  0  0  0  0  0  0  0  0  0  0
   19.5798   -3.3516    0.0000 O   0  0  0  0  0  0  0  0  0  0  0  0
   18.0724   -2.6805    0.0000 O   0  0  0  0  0  0  0  0  0  0  0  0
   16.7386   -3.1204    0.0000 O   0  0  0  0  0  0  0  0  0  0  0  0
    8.6918   -8.6180    0.0000 C   0  0  0  0  0  0  0  0  0  0  0  0
    9.4063   -9.8555    0.0000 H   0  0  0  0  0  0  0  0  0  0  0  0
   10.8352   -9.8555    0.0000 C   0  0  0  0  0  0  0  0  0  0  0  0
   10.1208   -8.6180    0.0000 C   0  0  0  0  0  0  0  0  0  0  0  0
  1  2  1  0  0  0  0
  2  3  1  0  0  0  0
  3  4  1  0  0  0  0
  4  5  1  0  0  0  0
  5  6  1  0  0  0  0
  6  7  1  0  0  0  0
  7  8  1  0  0  0  0
  8  9  1  0  0  0  0
  9 10  1  0  0  0  0
 10 11  1  0  0  0  0
 11 12  1  0  0  0  0
 12 13  1  0  0  0  0
 13 14  1  0  0  0  0
 14 15  1  0  0  0  0
 15 16  1  0  0  0  0
 16 17  1  0  0  0  0
 12 17  1  0  0  0  0
 17 18  1  0  0  0  0
  9 18  1  0  0  0  0
 18 19  1  0  0  0  0
 19 20  1  0  0  0  0
 20 21  2  0  0  0  0
  8 21  1  0  0  0  0
 21 22  1  0  0  0  0
  5 22  1  0  0  0  0
  1 22  1  0  0  0  0
 23 24  2  0  0  0  0
 23 25  1  0  0  0  0
  5 23  1  1  0  0  0
 27 28  1  0  0  0  0
 28 29  1  0  0  0  0
 29 30  1  0  0  0  0
 30 31  1  0  0  0  0
 31 32  1  0  0  0  0
 27 32  1  0  0  0  0
 33 34  1  0  0  0  0
 32 33  1  1  0  0  0
 31 35  1  6  0  0  0
 30 36  1  1  0  0  0
 29 37  1  6  0  0  0
 28 26  1  1  0  0  0
 14 26  1  1  0  0  0
 13 38  1  1  0  0  0
  2 39  1  0  0  0  0
  2 40  1  0  0  0  0
 41 42  1  0  0  0  0
 13 41  1  0  0  0  0
 15 43  1  1  0  0  0
 12 44  1  6  0  0  0
 22 45  1  1  0  0  0
 46 47  1  0  0  0  0
 47 48  1  0  0  0  0
 48 49  1  0  0  0  0
 49 50  1  0  0  0  0
 50 51  1  0  0  0  0
 46 51  1  0  0  0  0
 50 52  1  1  0  0  0
 49 53  1  1  0  0  0
 55 56  1  0  0  0  0
 56 57  1  0  0  0  0
 57 58  1  0  0  0  0
 58 59  1  0  0  0  0
 59 60  1  0  0  0  0
 55 60  1  0  0  0  0
 60 61  1  6  0  0  0
 57 62  1  6  0  0  0
 64 65  1  0  0  0  0
 65 66  1  0  0  0  0
 66 67  1  0  0  0  0
 67 68  1  0  0  0  0
 68 69  1  0  0  0  0
 64 69  1  0  0  0  0
 68 70  1  6  0  0  0
 66 71  1  6  0  0  0
 73 74  1  0  0  0  0
 74 75  1  0  0  0  0
 75 76  1  0  0  0  0
 76 77  1  0  0  0  0
 73 77  1  0  0  0  0
 78 79  1  0  0  0  0
 76 78  1  1  0  0  0
 76 80  1  6  0  0  0
 75 81  1  6  0  0  0
 74 72  1  1  0  0  0
 67 72  1  1  0  0  0
 65 63  1  1  0  0  0
 59 63  1  1  0  0  0
 83 84  1  0  0  0  0
 84 85  1  0  0  0  0
 85 86  1  0  0  0  0
 86 87  1  0  0  0  0
 83 87  1  0  0  0  0
 88 89  1  0  0  0  0
 86 88  1  1  0  0  0
 86 90  1  6  0  0  0
 85 91  1  6  0  0  0
 84 82  1  1  0  0  0
 58 82  1  6  0  0  0
 56 54  1  1  0  0  0
 48 54  1  6  0  0  0
 47 25  1  1  0  0  0
 17 92  1  1  0  0  0
 18 93  1  6  0  0  0
  8 94  1  6  0  0  0
  9 95  1  1  0  0  0
M  END
>  <cdx:fragmentId>
128688

$$$$
