574210.cdx
  Mrv1902 05222410232D          

104115  0  0  0  0            999 V2000
   12.1803   -7.7900    0.0000 C   0  0  0  0  0  0  0  0  0  0  0  0
   12.8947   -7.3775    0.0000 C   0  0  0  0  0  0  0  0  0  0  0  0
   13.6092   -7.7900    0.0000 C   0  0  0  0  0  0  0  0  0  0  0  0
   13.6092   -8.6150    0.0000 C   0  0  0  0  0  0  0  0  0  0  0  0
   12.8947   -9.0275    0.0000 C   0  0  2  0  0  0  0  0  0  0  0  0
   12.8947   -9.8525    0.0000 C   0  0  0  0  0  0  0  0  0  0  0  0
   12.1803  -10.2650    0.0000 C   0  0  0  0  0  0  0  0  0  0  0  0
   11.4658   -9.8525    0.0000 C   0  0  1  0  0  0  0  0  0  0  0  0
   10.7513  -10.2650    0.0000 C   0  0  2  0  0  0  0  0  0  0  0  0
   10.7513  -11.0900    0.0000 C   0  0  0  0  0  0  0  0  0  0  0  0
   10.0369  -11.5025    0.0000 C   0  0  0  0  0  0  0  0  0  0  0  0
    9.3224  -11.0900    0.0000 C   0  0  1  0  0  0  0  0  0  0  0  0
    8.6079  -11.5025    0.0000 C   0  0  2  0  0  0  0  0  0  0  0  0
    7.8935  -11.0900    0.0000 C   0  0  2  0  0  0  0  0  0  0  0  0
    7.8935  -10.2650    0.0000 C   0  0  2  0  0  0  0  0  0  0  0  0
    8.6079   -9.8525    0.0000 C   0  0  0  0  0  0  0  0  0  0  0  0
    9.3224  -10.2650    0.0000 C   0  0  2  0  0  0  0  0  0  0  0  0
   10.0369   -9.8525    0.0000 C   0  0  1  0  0  0  0  0  0  0  0  0
   10.0369   -9.0275    0.0000 C   0  0  0  0  0  0  0  0  0  0  0  0
   10.7513   -8.6150    0.0000 C   0  0  0  0  0  0  0  0  0  0  0  0
   11.4658   -9.0275    0.0000 C   0  0  0  0  0  0  0  0  0  0  0  0
   12.1803   -8.6150    0.0000 C   0  0  2  0  0  0  0  0  0  0  0  0
   13.6092   -9.4400    0.0000 C   0  0  0  0  0  0  0  0  0  0  0  0
   13.6092  -10.2650    0.0000 O   0  0  0  0  0  0  0  0  0  0  0  0
   14.3237   -9.0275    0.0000 O   0  0  0  0  0  0  0  0  0  0  0  0
    8.1954  -12.2170    0.0000 C   0  0  0  0  0  0  0  0  0  0  0  0
   12.4822   -6.6630    0.0000 C   0  0  0  0  0  0  0  0  0  0  0  0
   13.3072   -6.6630    0.0000 C   0  0  0  0  0  0  0  0  0  0  0  0
    9.0204  -12.2170    0.0000 C   0  0  0  0  0  0  0  0  0  0  0  0
    8.6079  -12.9314    0.0000 O   0  0  0  0  0  0  0  0  0  0  0  0
    7.1790   -9.8525    0.0000 O   0  0  0  0  0  0  0  0  0  0  0  0
    7.1790  -11.5025    0.0000 O   0  0  0  0  0  0  0  0  0  0  0  0
    6.4645  -10.2650    0.0000 O   0  0  0  0  0  0  0  0  0  0  0  0
    6.4645  -11.0900    0.0000 C   0  0  2  0  0  0  0  0  0  0  0  0
    5.7500  -11.5025    0.0000 C   0  0  1  0  0  0  0  0  0  0  0  0
    5.0356  -11.0900    0.0000 C   0  0  2  0  0  0  0  0  0  0  0  0
    5.0356  -10.2650    0.0000 C   0  0  1  0  0  0  0  0  0  0  0  0
    5.7500   -9.8525    0.0000 C   0  0  1  0  0  0  0  0  0  0  0  0
    4.3211  -11.5025    0.0000 O   0  0  0  0  0  0  0  0  0  0  0  0
    3.6066  -10.2650    0.0000 O   0  0  0  0  0  0  0  0  0  0  0  0
    3.6066  -11.0900    0.0000 C   0  0  2  0  0  0  0  0  0  0  0  0
    2.8922  -11.5025    0.0000 C   0  0  1  0  0  0  0  0  0  0  0  0
    2.1777  -11.0900    0.0000 C   0  0  2  0  0  0  0  0  0  0  0  0
    2.1777  -10.2650    0.0000 C   0  0  1  0  0  0  0  0  0  0  0  0
    2.8922   -9.8525    0.0000 C   0  0  0  0  0  0  0  0  0  0  0  0
    1.4632   -9.8525    0.0000 O   0  0  0  0  0  0  0  0  0  0  0  0
    1.4632  -11.5025    0.0000 O   0  0  0  0  0  0  0  0  0  0  0  0
    2.8922  -12.3275    0.0000 O   0  0  0  0  0  0  0  0  0  0  0  0
    5.7500   -9.0275    0.0000 C   0  0  0  0  0  0  0  0  0  0  0  0
    5.0356   -8.6150    0.0000 O   0  0  0  0  0  0  0  0  0  0  0  0
    4.3211   -9.8525    0.0000 O   0  0  0  0  0  0  0  0  0  0  0  0
    5.7500  -12.3275    0.0000 O   0  0  0  0  0  0  0  0  0  0  0  0
    9.3224  -11.9150    0.0000 H   0  0  0  0  0  0  0  0  0  0  0  0
   12.1803   -9.4400    0.0000 H   0  0  0  0  0  0  0  0  0  0  0  0
   15.0382  -10.2650    0.0000 O   0  0  0  0  0  0  0  0  0  0  0  0
   15.0382   -9.4400    0.0000 C   0  0  2  0  0  0  0  0  0  0  0  0
   15.7526   -9.0275    0.0000 C   0  0  1  0  0  0  0  0  0  0  0  0
   16.4671   -9.4400    0.0000 C   0  0  2  0  0  0  0  0  0  0  0  0
   16.4671  -10.2650    0.0000 C   0  0  2  0  0  0  0  0  0  0  0  0
   15.7526  -10.6775    0.0000 C   0  0  0  0  0  0  0  0  0  0  0  0
   17.1816  -10.6775    0.0000 O   0  0  0  0  0  0  0  0  0  0  0  0
   17.1816   -9.0275    0.0000 O   0  0  0  0  0  0  0  0  0  0  0  0
   15.7526   -8.2025    0.0000 O   0  0  0  0  0  0  0  0  0  0  0  0
   17.1816   -8.2025    0.0000 O   0  0  0  0  0  0  0  0  0  0  0  0
   16.4671   -7.7900    0.0000 C   0  0  2  0  0  0  0  0  0  0  0  0
   16.4671   -6.9650    0.0000 C   0  0  1  0  0  0  0  0  0  0  0  0
   17.1816   -6.5525    0.0000 C   0  0  1  0  0  0  0  0  0  0  0  0
   17.8960   -6.9650    0.0000 C   0  0  2  0  0  0  0  0  0  0  0  0
   17.8960   -7.7900    0.0000 C   0  0  2  0  0  0  0  0  0  0  0  0
   18.6105   -8.2025    0.0000 C   0  0  0  0  0  0  0  0  0  0  0  0
   15.7526   -6.5525    0.0000 O   0  0  0  0  0  0  0  0  0  0  0  0
   18.6105   -6.5525    0.0000 O   0  0  0  0  0  0  0  0  0  0  0  0
   19.3250   -7.7900    0.0000 O   0  0  0  0  0  0  0  0  0  0  0  0
   19.3250   -6.9650    0.0000 C   0  0  2  0  0  0  0  0  0  0  0  0
   20.0395   -6.5525    0.0000 C   0  0  1  0  0  0  0  0  0  0  0  0
   20.7539   -6.9650    0.0000 C   0  0  2  0  0  0  0  0  0  0  0  0
   20.7539   -7.7900    0.0000 C   0  0  1  0  0  0  0  0  0  0  0  0
   20.0395   -8.2025    0.0000 C   0  0  0  0  0  0  0  0  0  0  0  0
   21.4684   -6.5525    0.0000 O   0  0  0  0  0  0  0  0  0  0  0  0
   22.1829   -7.7900    0.0000 O   0  0  0  0  0  0  0  0  0  0  0  0
   22.1829   -6.9650    0.0000 C   0  0  2  0  0  0  0  0  0  0  0  0
   22.8973   -6.5525    0.0000 C   0  0  1  0  0  0  0  0  0  0  0  0
   23.6118   -6.9650    0.0000 C   0  0  2  0  0  0  0  0  0  0  0  0
   23.6118   -7.7900    0.0000 C   0  0  1  0  0  0  0  0  0  0  0  0
   22.8973   -8.2025    0.0000 C   0  0  0  0  0  0  0  0  0  0  0  0
   24.3263   -8.2025    0.0000 O   0  0  0  0  0  0  0  0  0  0  0  0
   24.3263   -6.5525    0.0000 O   0  0  0  0  0  0  0  0  0  0  0  0
   22.8973   -5.7275    0.0000 O   0  0  0  0  0  0  0  0  0  0  0  0
   21.4684   -8.2025    0.0000 O   0  0  0  0  0  0  0  0  0  0  0  0
   20.0395   -5.7275    0.0000 O   0  0  0  0  0  0  0  0  0  0  0  0
   17.1816   -5.7275    0.0000 O   0  0  0  0  0  0  0  0  0  0  0  0
   18.6497   -5.6506    0.0000 O   0  0  0  0  0  0  0  0  0  0  0  0
   17.8960   -5.3150    0.0000 C   0  0  2  0  0  0  0  0  0  0  0  0
   17.9823   -4.4945    0.0000 C   0  0  1  0  0  0  0  0  0  0  0  0
   18.7893   -4.3230    0.0000 C   0  0  2  0  0  0  0  0  0  0  0  0
   19.2018   -5.0375    0.0000 C   0  0  0  0  0  0  0  0  0  0  0  0
   19.4567   -3.8381    0.0000 C   0  0  0  0  0  0  0  0  0  0  0  0
   20.2104   -4.1736    0.0000 O   0  0  0  0  0  0  0  0  0  0  0  0
   18.7030   -3.5025    0.0000 O   0  0  0  0  0  0  0  0  0  0  0  0
   17.3692   -3.9425    0.0000 O   0  0  0  0  0  0  0  0  0  0  0  0
    9.3224   -9.4400    0.0000 C   0  0  0  0  0  0  0  0  0  0  0  0
   10.0369  -10.6775    0.0000 H   0  0  0  0  0  0  0  0  0  0  0  0
   11.4658  -10.6775    0.0000 C   0  0  0  0  0  0  0  0  0  0  0  0
   10.7513   -9.4400    0.0000 C   0  0  0  0  0  0  0  0  0  0  0  0
  1  2  1  0  0  0  0
  2  3  1  0  0  0  0
  3  4  1  0  0  0  0
  4  5  1  0  0  0  0
  5  6  1  0  0  0  0
  6  7  1  0  0  0  0
  7  8  1  0  0  0  0
  8  9  1  0  0  0  0
  9 10  1  0  0  0  0
 10 11  1  0  0  0  0
 11 12  1  0  0  0  0
 12 13  1  0  0  0  0
 13 14  1  0  0  0  0
 14 15  1  0  0  0  0
 15 16  1  0  0  0  0
 16 17  1  0  0  0  0
 12 17  1  0  0  0  0
 17 18  1  0  0  0  0
  9 18  1  0  0  0  0
 18 19  1  0  0  0  0
 19 20  1  0  0  0  0
 20 21  2  0  0  0  0
  8 21  1  0  0  0  0
 21 22  1  0  0  0  0
  5 22  1  0  0  0  0
  1 22  1  0  0  0  0
 23 24  2  0  0  0  0
 23 25  1  0  0  0  0
  5 23  1  1  0  0  0
 13 26  1  1  0  0  0
  2 27  1  0  0  0  0
  2 28  1  0  0  0  0
 29 30  1  0  0  0  0
 13 29  1  0  0  0  0
 15 31  1  1  0  0  0
 33 34  1  0  0  0  0
 34 35  1  0  0  0  0
 35 36  1  0  0  0  0
 36 37  1  0  0  0  0
 37 38  1  0  0  0  0
 33 38  1  0  0  0  0
 40 41  1  0  0  0  0
 41 42  1  0  0  0  0
 42 43  1  0  0  0  0
 43 44  1  0  0  0  0
 44 45  1  0  0  0  0
 40 45  1  0  0  0  0
 44 46  1  6  0  0  0
 43 47  1  1  0  0  0
 42 48  1  6  0  0  0
 41 39  1  1  0  0  0
 36 39  1  1  0  0  0
 49 50  1  0  0  0  0
 38 49  1  1  0  0  0
 37 51  1  6  0  0  0
 35 52  1  6  0  0  0
 34 32  1  1  0  0  0
 14 32  1  1  0  0  0
 12 53  1  6  0  0  0
 22 54  1  1  0  0  0
 55 56  1  0  0  0  0
 56 57  1  0  0  0  0
 57 58  1  0  0  0  0
 58 59  1  0  0  0  0
 59 60  1  0  0  0  0
 55 60  1  0  0  0  0
 59 61  1  1  0  0  0
 58 62  1  1  0  0  0
 64 65  1  0  0  0  0
 65 66  1  0  0  0  0
 66 67  1  0  0  0  0
 67 68  1  0  0  0  0
 68 69  1  0  0  0  0
 64 69  1  0  0  0  0
 69 70  1  6  0  0  0
 66 71  1  6  0  0  0
 73 74  1  0  0  0  0
 74 75  1  0  0  0  0
 75 76  1  0  0  0  0
 76 77  1  0  0  0  0
 77 78  1  0  0  0  0
 73 78  1  0  0  0  0
 80 81  1  0  0  0  0
 81 82  1  0  0  0  0
 82 83  1  0  0  0  0
 83 84  1  0  0  0  0
 84 85  1  0  0  0  0
 80 85  1  0  0  0  0
 84 86  1  6  0  0  0
 83 87  1  1  0  0  0
 82 88  1  6  0  0  0
 81 79  1  1  0  0  0
 76 79  1  1  0  0  0
 77 89  1  6  0  0  0
 75 90  1  6  0  0  0
 74 72  1  1  0  0  0
 68 72  1  1  0  0  0
 92 93  1  0  0  0  0
 93 94  1  0  0  0  0
 94 95  1  0  0  0  0
 95 96  1  0  0  0  0
 92 96  1  0  0  0  0
 97 98  1  0  0  0  0
 95 97  1  1  0  0  0
 95 99  1  6  0  0  0
 94100  1  6  0  0  0
 93 91  1  1  0  0  0
 67 91  1  6  0  0  0
 65 63  1  1  0  0  0
 57 63  1  6  0  0  0
 56 25  1  1  0  0  0
 17101  1  1  0  0  0
 18102  1  6  0  0  0
  8103  1  6  0  0  0
  9104  1  1  0  0  0
M  END
>  <cdx:fragmentId>
129720

$$$$
