574202.cdx
  Mrv1902 05222410252D          

 96106  0  0  0  0            999 V2000
   13.6724   -7.6128    0.0000 C   0  0  0  0  0  0  0  0  0  0  0  0
   14.3869   -7.2003    0.0000 C   0  0  0  0  0  0  0  0  0  0  0  0
   15.1014   -7.6128    0.0000 C   0  0  0  0  0  0  0  0  0  0  0  0
   15.1014   -8.4378    0.0000 C   0  0  0  0  0  0  0  0  0  0  0  0
   14.3869   -8.8503    0.0000 C   0  0  2  0  0  0  0  0  0  0  0  0
   14.3869   -9.6753    0.0000 C   0  0  0  0  0  0  0  0  0  0  0  0
   13.6724  -10.0878    0.0000 C   0  0  0  0  0  0  0  0  0  0  0  0
   12.9580   -9.6753    0.0000 C   0  0  1  0  0  0  0  0  0  0  0  0
   12.2435  -10.0878    0.0000 C   0  0  2  0  0  0  0  0  0  0  0  0
   12.2435  -10.9128    0.0000 C   0  0  0  0  0  0  0  0  0  0  0  0
   11.5290  -11.3253    0.0000 C   0  0  0  0  0  0  0  0  0  0  0  0
   10.8145  -10.9128    0.0000 C   0  0  1  0  0  0  0  0  0  0  0  0
   10.1001  -11.3253    0.0000 C   0  0  2  0  0  0  0  0  0  0  0  0
    9.3856  -10.9128    0.0000 C   0  0  2  0  0  0  0  0  0  0  0  0
    9.3856  -10.0878    0.0000 C   0  0  2  0  0  0  0  0  0  0  0  0
   10.1001   -9.6753    0.0000 C   0  0  0  0  0  0  0  0  0  0  0  0
   10.8145  -10.0878    0.0000 C   0  0  2  0  0  0  0  0  0  0  0  0
   11.5290   -9.6753    0.0000 C   0  0  1  0  0  0  0  0  0  0  0  0
   11.5290   -8.8503    0.0000 C   0  0  0  0  0  0  0  0  0  0  0  0
   12.2435   -8.4378    0.0000 C   0  0  0  0  0  0  0  0  0  0  0  0
   12.9580   -8.8503    0.0000 C   0  0  0  0  0  0  0  0  0  0  0  0
   13.6724   -8.4378    0.0000 C   0  0  2  0  0  0  0  0  0  0  0  0
   15.1014   -9.2628    0.0000 C   0  0  0  0  0  0  0  0  0  0  0  0
   15.1014  -10.0878    0.0000 O   0  0  0  0  0  0  0  0  0  0  0  0
   15.8158   -8.8503    0.0000 O   0  0  0  0  0  0  0  0  0  0  0  0
   10.8145   -9.2628    0.0000 C   0  0  0  0  0  0  0  0  0  0  0  0
    9.6876  -12.0397    0.0000 C   0  0  0  0  0  0  0  0  0  0  0  0
   12.9580  -10.5003    0.0000 C   0  0  0  0  0  0  0  0  0  0  0  0
   13.9744   -6.4858    0.0000 C   0  0  0  0  0  0  0  0  0  0  0  0
   14.7994   -6.4858    0.0000 C   0  0  0  0  0  0  0  0  0  0  0  0
   10.5126  -12.0397    0.0000 C   0  0  0  0  0  0  0  0  0  0  0  0
   10.1001  -12.7542    0.0000 O   0  0  0  0  0  0  0  0  0  0  0  0
    8.6711   -9.6753    0.0000 O   0  0  0  0  0  0  0  0  0  0  0  0
    8.6711  -11.3253    0.0000 O   0  0  0  0  0  0  0  0  0  0  0  0
    7.9567  -10.0878    0.0000 O   0  0  0  0  0  0  0  0  0  0  0  0
    7.9567  -10.9128    0.0000 C   0  0  2  0  0  0  0  0  0  0  0  0
    7.2422  -11.3253    0.0000 C   0  0  1  0  0  0  0  0  0  0  0  0
    6.5277  -10.9128    0.0000 C   0  0  2  0  0  0  0  0  0  0  0  0
    6.5277  -10.0878    0.0000 C   0  0  1  0  0  0  0  0  0  0  0  0
    7.2422   -9.6753    0.0000 C   0  0  1  0  0  0  0  0  0  0  0  0
    5.8132  -11.3253    0.0000 O   0  0  0  0  0  0  0  0  0  0  0  0
    5.0988  -10.0878    0.0000 O   0  0  0  0  0  0  0  0  0  0  0  0
    5.0988  -10.9128    0.0000 C   0  0  2  0  0  0  0  0  0  0  0  0
    4.3843  -11.3253    0.0000 C   0  0  1  0  0  0  0  0  0  0  0  0
    3.6698  -10.9128    0.0000 C   0  0  2  0  0  0  0  0  0  0  0  0
    3.6698  -10.0878    0.0000 C   0  0  1  0  0  0  0  0  0  0  0  0
    4.3843   -9.6753    0.0000 C   0  0  0  0  0  0  0  0  0  0  0  0
    2.9554   -9.6753    0.0000 O   0  0  0  0  0  0  0  0  0  0  0  0
    2.9554  -11.3253    0.0000 O   0  0  0  0  0  0  0  0  0  0  0  0
    4.3843  -12.1503    0.0000 O   0  0  0  0  0  0  0  0  0  0  0  0
    7.2422   -8.8503    0.0000 C   0  0  0  0  0  0  0  0  0  0  0  0
    6.5277   -8.4378    0.0000 O   0  0  0  0  0  0  0  0  0  0  0  0
    5.8132   -9.6753    0.0000 O   0  0  0  0  0  0  0  0  0  0  0  0
    7.2422  -12.1503    0.0000 O   0  0  0  0  0  0  0  0  0  0  0  0
   10.8145  -11.7378    0.0000 H   0  0  0  0  0  0  0  0  0  0  0  0
   13.6724   -9.2628    0.0000 H   0  0  0  0  0  0  0  0  0  0  0  0
   16.5303  -10.0878    0.0000 O   0  0  0  0  0  0  0  0  0  0  0  0
   16.5303   -9.2628    0.0000 C   0  0  2  0  0  0  0  0  0  0  0  0
   17.2448   -8.8503    0.0000 C   0  0  1  0  0  0  0  0  0  0  0  0
   17.9593   -9.2628    0.0000 C   0  0  2  0  0  0  0  0  0  0  0  0
   17.9593  -10.0878    0.0000 C   0  0  2  0  0  0  0  0  0  0  0  0
   17.2448  -10.5003    0.0000 C   0  0  0  0  0  0  0  0  0  0  0  0
   18.6737  -10.5003    0.0000 O   0  0  0  0  0  0  0  0  0  0  0  0
   18.6737   -8.8503    0.0000 O   0  0  0  0  0  0  0  0  0  0  0  0
   17.2448   -8.0253    0.0000 O   0  0  0  0  0  0  0  0  0  0  0  0
   18.6737   -8.0253    0.0000 O   0  0  0  0  0  0  0  0  0  0  0  0
   17.9593   -7.6128    0.0000 C   0  0  2  0  0  0  0  0  0  0  0  0
   17.9593   -6.7878    0.0000 C   0  0  1  0  0  0  0  0  0  0  0  0
   18.6737   -6.3753    0.0000 C   0  0  1  0  0  0  0  0  0  0  0  0
   19.3882   -6.7878    0.0000 C   0  0  2  0  0  0  0  0  0  0  0  0
   19.3882   -7.6128    0.0000 C   0  0  2  0  0  0  0  0  0  0  0  0
   20.1027   -8.0253    0.0000 C   0  0  0  0  0  0  0  0  0  0  0  0
   18.6737   -5.5503    0.0000 O   0  0  0  0  0  0  0  0  0  0  0  0
   17.2448   -6.3753    0.0000 O   0  0  0  0  0  0  0  0  0  0  0  0
   20.1027   -6.3753    0.0000 O   0  0  0  0  0  0  0  0  0  0  0  0
   20.8171   -7.6128    0.0000 O   0  0  0  0  0  0  0  0  0  0  0  0
   20.8171   -6.7878    0.0000 C   0  0  2  0  0  0  0  0  0  0  0  0
   21.5316   -6.3753    0.0000 C   0  0  1  0  0  0  0  0  0  0  0  0
   22.2461   -6.7878    0.0000 C   0  0  2  0  0  0  0  0  0  0  0  0
   22.2461   -7.6128    0.0000 C   0  0  1  0  0  0  0  0  0  0  0  0
   21.5316   -8.0253    0.0000 C   0  0  0  0  0  0  0  0  0  0  0  0
   22.9606   -6.3753    0.0000 O   0  0  0  0  0  0  0  0  0  0  0  0
   23.6750   -7.6128    0.0000 O   0  0  0  0  0  0  0  0  0  0  0  0
   23.6750   -6.7878    0.0000 C   0  0  2  0  0  0  0  0  0  0  0  0
   24.3895   -6.3753    0.0000 C   0  0  1  0  0  0  0  0  0  0  0  0
   25.1040   -6.7878    0.0000 C   0  0  1  0  0  0  0  0  0  0  0  0
   25.1040   -7.6128    0.0000 C   0  0  2  0  0  0  0  0  0  0  0  0
   24.3895   -8.0253    0.0000 C   0  0  2  0  0  0  0  0  0  0  0  0
   24.3895   -8.8503    0.0000 C   0  0  0  0  0  0  0  0  0  0  0  0
   25.8184   -8.0253    0.0000 O   0  0  0  0  0  0  0  0  0  0  0  0
   25.8184   -6.3753    0.0000 O   0  0  0  0  0  0  0  0  0  0  0  0
   24.3895   -5.5503    0.0000 O   0  0  0  0  0  0  0  0  0  0  0  0
   22.9606   -8.0253    0.0000 O   0  0  0  0  0  0  0  0  0  0  0  0
   21.5316   -5.5503    0.0000 O   0  0  0  0  0  0  0  0  0  0  0  0
   12.2435   -9.2628    0.0000 C   0  0  0  0  0  0  0  0  0  0  0  0
   11.5290  -10.5003    0.0000 H   0  0  0  0  0  0  0  0  0  0  0  0
  1  2  1  0  0  0  0
  2  3  1  0  0  0  0
  3  4  1  0  0  0  0
  4  5  1  0  0  0  0
  5  6  1  0  0  0  0
  6  7  1  0  0  0  0
  7  8  1  0  0  0  0
  8  9  1  0  0  0  0
  9 10  1  0  0  0  0
 10 11  1  0  0  0  0
 11 12  1  0  0  0  0
 12 13  1  0  0  0  0
 13 14  1  0  0  0  0
 14 15  1  0  0  0  0
 15 16  1  0  0  0  0
 16 17  1  0  0  0  0
 12 17  1  0  0  0  0
 17 18  1  0  0  0  0
  9 18  1  0  0  0  0
 18 19  1  0  0  0  0
 19 20  1  0  0  0  0
 20 21  2  0  0  0  0
  8 21  1  0  0  0  0
 21 22  1  0  0  0  0
  5 22  1  0  0  0  0
  1 22  1  0  0  0  0
 23 24  2  0  0  0  0
 23 25  1  0  0  0  0
  5 23  1  1  0  0  0
 17 26  1  1  0  0  0
 13 27  1  1  0  0  0
  8 28  1  6  0  0  0
  2 29  1  0  0  0  0
  2 30  1  0  0  0  0
 31 32  1  0  0  0  0
 13 31  1  0  0  0  0
 15 33  1  1  0  0  0
 35 36  1  0  0  0  0
 36 37  1  0  0  0  0
 37 38  1  0  0  0  0
 38 39  1  0  0  0  0
 39 40  1  0  0  0  0
 35 40  1  0  0  0  0
 42 43  1  0  0  0  0
 43 44  1  0  0  0  0
 44 45  1  0  0  0  0
 45 46  1  0  0  0  0
 46 47  1  0  0  0  0
 42 47  1  0  0  0  0
 46 48  1  6  0  0  0
 45 49  1  1  0  0  0
 44 50  1  6  0  0  0
 43 41  1  1  0  0  0
 38 41  1  1  0  0  0
 51 52  1  0  0  0  0
 40 51  1  1  0  0  0
 39 53  1  6  0  0  0
 37 54  1  6  0  0  0
 36 34  1  1  0  0  0
 14 34  1  1  0  0  0
 12 55  1  6  0  0  0
 22 56  1  1  0  0  0
 57 58  1  0  0  0  0
 58 59  1  0  0  0  0
 59 60  1  0  0  0  0
 60 61  1  0  0  0  0
 61 62  1  0  0  0  0
 57 62  1  0  0  0  0
 61 63  1  1  0  0  0
 60 64  1  1  0  0  0
 66 67  1  0  0  0  0
 67 68  1  0  0  0  0
 68 69  1  0  0  0  0
 69 70  1  0  0  0  0
 70 71  1  0  0  0  0
 66 71  1  0  0  0  0
 71 72  1  6  0  0  0
 69 73  1  6  0  0  0
 68 74  1  6  0  0  0
 76 77  1  0  0  0  0
 77 78  1  0  0  0  0
 78 79  1  0  0  0  0
 79 80  1  0  0  0  0
 80 81  1  0  0  0  0
 76 81  1  0  0  0  0
 83 84  1  0  0  0  0
 84 85  1  0  0  0  0
 85 86  1  0  0  0  0
 86 87  1  0  0  0  0
 87 88  1  0  0  0  0
 83 88  1  0  0  0  0
 88 89  1  6  0  0  0
 87 90  1  1  0  0  0
 86 91  1  6  0  0  0
 85 92  1  6  0  0  0
 84 82  1  1  0  0  0
 79 82  1  1  0  0  0
 80 93  1  6  0  0  0
 78 94  1  6  0  0  0
 77 75  1  1  0  0  0
 70 75  1  1  0  0  0
 67 65  1  1  0  0  0
 59 65  1  6  0  0  0
 58 25  1  1  0  0  0
  9 95  1  1  0  0  0
 18 96  1  6  0  0  0
M  END
>  <cdx:fragmentId>
5

$$$$
