574208.cdx
  Mrv1902 05222410232D          

106117  0  0  0  0            999 V2000
   14.2216   -8.9952    0.0000 C   0  0  0  0  0  0  0  0  0  0  0  0
   14.9361   -8.5827    0.0000 C   0  0  0  0  0  0  0  0  0  0  0  0
   15.6505   -8.9952    0.0000 C   0  0  0  0  0  0  0  0  0  0  0  0
   15.6505   -9.8202    0.0000 C   0  0  0  0  0  0  0  0  0  0  0  0
   14.9361  -10.2327    0.0000 C   0  0  2  0  0  0  0  0  0  0  0  0
   14.9361  -11.0577    0.0000 C   0  0  0  0  0  0  0  0  0  0  0  0
   14.2216  -11.4702    0.0000 C   0  0  0  0  0  0  0  0  0  0  0  0
   13.5071  -11.0577    0.0000 C   0  0  1  0  0  0  0  0  0  0  0  0
   12.7927  -11.4702    0.0000 C   0  0  2  0  0  0  0  0  0  0  0  0
   12.7927  -12.2952    0.0000 C   0  0  0  0  0  0  0  0  0  0  0  0
   12.0782  -12.7077    0.0000 C   0  0  0  0  0  0  0  0  0  0  0  0
   11.3637  -12.2952    0.0000 C   0  0  1  0  0  0  0  0  0  0  0  0
   10.6492  -12.7077    0.0000 C   0  0  2  0  0  0  0  0  0  0  0  0
    9.9348  -12.2952    0.0000 C   0  0  2  0  0  0  0  0  0  0  0  0
    9.9348  -11.4702    0.0000 C   0  0  2  0  0  0  0  0  0  0  0  0
   10.6492  -11.0577    0.0000 C   0  0  0  0  0  0  0  0  0  0  0  0
   11.3637  -11.4702    0.0000 C   0  0  2  0  0  0  0  0  0  0  0  0
   12.0782  -11.0577    0.0000 C   0  0  1  0  0  0  0  0  0  0  0  0
   12.0782  -10.2327    0.0000 C   0  0  0  0  0  0  0  0  0  0  0  0
   12.7927   -9.8202    0.0000 C   0  0  0  0  0  0  0  0  0  0  0  0
   13.5071  -10.2327    0.0000 C   0  0  0  0  0  0  0  0  0  0  0  0
   14.2216   -9.8202    0.0000 C   0  0  2  0  0  0  0  0  0  0  0  0
   15.6505  -10.6452    0.0000 C   0  0  0  0  0  0  0  0  0  0  0  0
   15.6505  -11.4702    0.0000 O   0  0  0  0  0  0  0  0  0  0  0  0
   16.3650  -10.2327    0.0000 O   0  0  0  0  0  0  0  0  0  0  0  0
   10.2367  -13.4222    0.0000 C   0  0  0  0  0  0  0  0  0  0  0  0
   14.5236   -7.8683    0.0000 C   0  0  0  0  0  0  0  0  0  0  0  0
   15.3486   -7.8683    0.0000 C   0  0  0  0  0  0  0  0  0  0  0  0
   11.0617  -13.4222    0.0000 C   0  0  0  0  0  0  0  0  0  0  0  0
   10.6492  -14.1367    0.0000 O   0  0  0  0  0  0  0  0  0  0  0  0
    9.2203  -11.0577    0.0000 O   0  0  0  0  0  0  0  0  0  0  0  0
    9.2203  -12.7077    0.0000 O   0  0  0  0  0  0  0  0  0  0  0  0
    8.5058  -11.4702    0.0000 O   0  0  0  0  0  0  0  0  0  0  0  0
    8.5058  -12.2952    0.0000 C   0  0  2  0  0  0  0  0  0  0  0  0
    7.7914  -12.7077    0.0000 C   0  0  1  0  0  0  0  0  0  0  0  0
    7.0769  -12.2952    0.0000 C   0  0  2  0  0  0  0  0  0  0  0  0
    7.0769  -11.4702    0.0000 C   0  0  1  0  0  0  0  0  0  0  0  0
    7.7914  -11.0577    0.0000 C   0  0  1  0  0  0  0  0  0  0  0  0
    6.3624  -12.7077    0.0000 O   0  0  0  0  0  0  0  0  0  0  0  0
    5.6479  -11.4702    0.0000 O   0  0  0  0  0  0  0  0  0  0  0  0
    5.6479  -12.2952    0.0000 C   0  0  2  0  0  0  0  0  0  0  0  0
    4.9335  -12.7077    0.0000 C   0  0  1  0  0  0  0  0  0  0  0  0
    4.2190  -12.2952    0.0000 C   0  0  2  0  0  0  0  0  0  0  0  0
    4.2190  -11.4702    0.0000 C   0  0  1  0  0  0  0  0  0  0  0  0
    4.9335  -11.0577    0.0000 C   0  0  1  0  0  0  0  0  0  0  0  0
    4.9335  -10.2327    0.0000 C   0  0  0  0  0  0  0  0  0  0  0  0
    4.2190   -9.8202    0.0000 O   0  0  0  0  0  0  0  0  0  0  0  0
    3.5045  -11.0577    0.0000 O   0  0  0  0  0  0  0  0  0  0  0  0
    3.5045  -12.7077    0.0000 O   0  0  0  0  0  0  0  0  0  0  0  0
    4.9335  -13.5327    0.0000 O   0  0  0  0  0  0  0  0  0  0  0  0
    7.7914  -10.2327    0.0000 C   0  0  0  0  0  0  0  0  0  0  0  0
    7.0769   -9.8202    0.0000 O   0  0  0  0  0  0  0  0  0  0  0  0
    6.3624  -11.0577    0.0000 O   0  0  0  0  0  0  0  0  0  0  0  0
    7.7914  -13.5327    0.0000 O   0  0  0  0  0  0  0  0  0  0  0  0
   11.3637  -13.1202    0.0000 H   0  0  0  0  0  0  0  0  0  0  0  0
   14.2216  -10.6452    0.0000 H   0  0  0  0  0  0  0  0  0  0  0  0
   17.0795  -11.4702    0.0000 O   0  0  0  0  0  0  0  0  0  0  0  0
   17.0795  -10.6452    0.0000 C   0  0  2  0  0  0  0  0  0  0  0  0
   17.7940  -10.2327    0.0000 C   0  0  1  0  0  0  0  0  0  0  0  0
   18.5084  -10.6452    0.0000 C   0  0  2  0  0  0  0  0  0  0  0  0
   18.5084  -11.4702    0.0000 C   0  0  2  0  0  0  0  0  0  0  0  0
   17.7940  -11.8827    0.0000 C   0  0  0  0  0  0  0  0  0  0  0  0
   19.2229  -11.8827    0.0000 O   0  0  0  0  0  0  0  0  0  0  0  0
   19.2229  -10.2327    0.0000 O   0  0  0  0  0  0  0  0  0  0  0  0
   17.7940   -9.4077    0.0000 O   0  0  0  0  0  0  0  0  0  0  0  0
   19.2229   -9.4077    0.0000 O   0  0  0  0  0  0  0  0  0  0  0  0
   18.5084   -8.9952    0.0000 C   0  0  2  0  0  0  0  0  0  0  0  0
   18.5084   -8.1702    0.0000 C   0  0  1  0  0  0  0  0  0  0  0  0
   19.2229   -7.7577    0.0000 C   0  0  1  0  0  0  0  0  0  0  0  0
   19.9374   -8.1702    0.0000 C   0  0  2  0  0  0  0  0  0  0  0  0
   19.9374   -8.9952    0.0000 C   0  0  2  0  0  0  0  0  0  0  0  0
   20.6518   -9.4077    0.0000 C   0  0  0  0  0  0  0  0  0  0  0  0
   17.7940   -7.7577    0.0000 O   0  0  0  0  0  0  0  0  0  0  0  0
   20.6518   -7.7577    0.0000 O   0  0  0  0  0  0  0  0  0  0  0  0
   21.3663   -8.9952    0.0000 O   0  0  0  0  0  0  0  0  0  0  0  0
   21.3663   -8.1702    0.0000 C   0  0  2  0  0  0  0  0  0  0  0  0
   22.0808   -7.7577    0.0000 C   0  0  1  0  0  0  0  0  0  0  0  0
   22.7953   -8.1702    0.0000 C   0  0  2  0  0  0  0  0  0  0  0  0
   22.7953   -8.9952    0.0000 C   0  0  1  0  0  0  0  0  0  0  0  0
   22.0808   -9.4077    0.0000 C   0  0  0  0  0  0  0  0  0  0  0  0
   23.5097   -9.4077    0.0000 O   0  0  0  0  0  0  0  0  0  0  0  0
   22.0808   -6.9327    0.0000 O   0  0  0  0  0  0  0  0  0  0  0  0
   23.5097   -7.7577    0.0000 O   0  0  0  0  0  0  0  0  0  0  0  0
   24.3104   -8.9907    0.0000 O   0  0  0  0  0  0  0  0  0  0  0  0
   24.2242   -8.1702    0.0000 C   0  0  2  0  0  0  0  0  0  0  0  0
   24.9779   -7.8347    0.0000 C   0  0  1  0  0  0  0  0  0  0  0  0
   25.5299   -8.4478    0.0000 C   0  0  2  0  0  0  0  0  0  0  0  0
   25.1174   -9.1622    0.0000 C   0  0  0  0  0  0  0  0  0  0  0  0
   26.2836   -8.7833    0.0000 C   0  0  0  0  0  0  0  0  0  0  0  0
   26.9510   -8.2984    0.0000 O   0  0  0  0  0  0  0  0  0  0  0  0
   26.1973   -7.9629    0.0000 O   0  0  0  0  0  0  0  0  0  0  0  0
   25.1494   -7.0277    0.0000 O   0  0  0  0  0  0  0  0  0  0  0  0
   19.2229   -6.9327    0.0000 O   0  0  0  0  0  0  0  0  0  0  0  0
   20.6910   -6.8558    0.0000 O   0  0  0  0  0  0  0  0  0  0  0  0
   19.9374   -6.5202    0.0000 C   0  0  2  0  0  0  0  0  0  0  0  0
   20.0236   -5.6998    0.0000 C   0  0  1  0  0  0  0  0  0  0  0  0
   20.8306   -5.5282    0.0000 C   0  0  2  0  0  0  0  0  0  0  0  0
   21.2431   -6.2427    0.0000 C   0  0  0  0  0  0  0  0  0  0  0  0
   21.4980   -5.0433    0.0000 C   0  0  0  0  0  0  0  0  0  0  0  0
   22.2517   -5.3789    0.0000 O   0  0  0  0  0  0  0  0  0  0  0  0
   20.7443   -4.7077    0.0000 O   0  0  0  0  0  0  0  0  0  0  0  0
   19.4105   -5.1477    0.0000 O   0  0  0  0  0  0  0  0  0  0  0  0
   11.3637  -10.6452    0.0000 C   0  0  0  0  0  0  0  0  0  0  0  0
   12.0782  -11.8827    0.0000 H   0  0  0  0  0  0  0  0  0  0  0  0
   13.5071  -11.8827    0.0000 C   0  0  0  0  0  0  0  0  0  0  0  0
   12.7927  -10.6452    0.0000 C   0  0  0  0  0  0  0  0  0  0  0  0
  1  2  1  0  0  0  0
  2  3  1  0  0  0  0
  3  4  1  0  0  0  0
  4  5  1  0  0  0  0
  5  6  1  0  0  0  0
  6  7  1  0  0  0  0
  7  8  1  0  0  0  0
  8  9  1  0  0  0  0
  9 10  1  0  0  0  0
 10 11  1  0  0  0  0
 11 12  1  0  0  0  0
 12 13  1  0  0  0  0
 13 14  1  0  0  0  0
 14 15  1  0  0  0  0
 15 16  1  0  0  0  0
 16 17  1  0  0  0  0
 12 17  1  0  0  0  0
 17 18  1  0  0  0  0
  9 18  1  0  0  0  0
 18 19  1  0  0  0  0
 19 20  1  0  0  0  0
 20 21  2  0  0  0  0
  8 21  1  0  0  0  0
 21 22  1  0  0  0  0
  5 22  1  0  0  0  0
  1 22  1  0  0  0  0
 23 24  2  0  0  0  0
 23 25  1  0  0  0  0
  5 23  1  1  0  0  0
 13 26  1  1  0  0  0
  2 27  1  0  0  0  0
  2 28  1  0  0  0  0
 29 30  1  0  0  0  0
 13 29  1  0  0  0  0
 15 31  1  1  0  0  0
 33 34  1  0  0  0  0
 34 35  1  0  0  0  0
 35 36  1  0  0  0  0
 36 37  1  0  0  0  0
 37 38  1  0  0  0  0
 33 38  1  0  0  0  0
 40 41  1  0  0  0  0
 41 42  1  0  0  0  0
 42 43  1  0  0  0  0
 43 44  1  0  0  0  0
 44 45  1  0  0  0  0
 40 45  1  0  0  0  0
 46 47  1  0  0  0  0
 45 46  1  1  0  0  0
 44 48  1  6  0  0  0
 43 49  1  1  0  0  0
 42 50  1  6  0  0  0
 41 39  1  1  0  0  0
 36 39  1  1  0  0  0
 51 52  1  0  0  0  0
 38 51  1  1  0  0  0
 37 53  1  6  0  0  0
 35 54  1  6  0  0  0
 34 32  1  1  0  0  0
 14 32  1  1  0  0  0
 12 55  1  6  0  0  0
 22 56  1  1  0  0  0
 57 58  1  0  0  0  0
 58 59  1  0  0  0  0
 59 60  1  0  0  0  0
 60 61  1  0  0  0  0
 61 62  1  0  0  0  0
 57 62  1  0  0  0  0
 61 63  1  1  0  0  0
 60 64  1  1  0  0  0
 66 67  1  0  0  0  0
 67 68  1  0  0  0  0
 68 69  1  0  0  0  0
 69 70  1  0  0  0  0
 70 71  1  0  0  0  0
 66 71  1  0  0  0  0
 71 72  1  6  0  0  0
 68 73  1  6  0  0  0
 75 76  1  0  0  0  0
 76 77  1  0  0  0  0
 77 78  1  0  0  0  0
 78 79  1  0  0  0  0
 79 80  1  0  0  0  0
 75 80  1  0  0  0  0
 79 81  1  6  0  0  0
 77 82  1  6  0  0  0
 84 85  1  0  0  0  0
 85 86  1  0  0  0  0
 86 87  1  0  0  0  0
 87 88  1  0  0  0  0
 84 88  1  0  0  0  0
 89 90  1  0  0  0  0
 87 89  1  1  0  0  0
 87 91  1  6  0  0  0
 86 92  1  6  0  0  0
 85 83  1  1  0  0  0
 78 83  1  1  0  0  0
 76 74  1  1  0  0  0
 70 74  1  1  0  0  0
 94 95  1  0  0  0  0
 95 96  1  0  0  0  0
 96 97  1  0  0  0  0
 97 98  1  0  0  0  0
 94 98  1  0  0  0  0
 99100  1  0  0  0  0
 97 99  1  1  0  0  0
 97101  1  6  0  0  0
 96102  1  6  0  0  0
 95 93  1  1  0  0  0
 69 93  1  6  0  0  0
 67 65  1  1  0  0  0
 59 65  1  6  0  0  0
 58 25  1  1  0  0  0
 17103  1  1  0  0  0
 18104  1  6  0  0  0
  8105  1  6  0  0  0
  9106  1  1  0  0  0
M  END
>  <cdx:fragmentId>
129028

$$$$
