574203.cdx
  Mrv1902 05222410252D          

 97107  0  0  0  0            999 V2000
   13.6918   -7.8809    0.0000 C   0  0  0  0  0  0  0  0  0  0  0  0
   14.4063   -7.4684    0.0000 C   0  0  0  0  0  0  0  0  0  0  0  0
   15.1208   -7.8809    0.0000 C   0  0  0  0  0  0  0  0  0  0  0  0
   15.1208   -8.7059    0.0000 C   0  0  0  0  0  0  0  0  0  0  0  0
   14.4063   -9.1184    0.0000 C   0  0  2  0  0  0  0  0  0  0  0  0
   14.4063   -9.9434    0.0000 C   0  0  1  0  0  0  0  0  0  0  0  0
   13.6918  -10.3559    0.0000 C   0  0  0  0  0  0  0  0  0  0  0  0
   12.9774   -9.9434    0.0000 C   0  0  1  0  0  0  0  0  0  0  0  0
   12.2629  -10.3559    0.0000 C   0  0  2  0  0  0  0  0  0  0  0  0
   12.2629  -11.1809    0.0000 C   0  0  0  0  0  0  0  0  0  0  0  0
   11.5484  -11.5934    0.0000 C   0  0  0  0  0  0  0  0  0  0  0  0
   10.8340  -11.1809    0.0000 C   0  0  1  0  0  0  0  0  0  0  0  0
   10.1195  -11.5934    0.0000 C   0  0  2  0  0  0  0  0  0  0  0  0
    9.4050  -11.1809    0.0000 C   0  0  2  0  0  0  0  0  0  0  0  0
    9.4050  -10.3559    0.0000 C   0  0  2  0  0  0  0  0  0  0  0  0
   10.1195   -9.9434    0.0000 C   0  0  0  0  0  0  0  0  0  0  0  0
   10.8340  -10.3559    0.0000 C   0  0  2  0  0  0  0  0  0  0  0  0
   11.5484   -9.9434    0.0000 C   0  0  1  0  0  0  0  0  0  0  0  0
   11.5484   -9.1184    0.0000 C   0  0  0  0  0  0  0  0  0  0  0  0
   12.2629   -8.7059    0.0000 C   0  0  0  0  0  0  0  0  0  0  0  0
   12.9774   -9.1184    0.0000 C   0  0  0  0  0  0  0  0  0  0  0  0
   13.6918   -8.7059    0.0000 C   0  0  2  0  0  0  0  0  0  0  0  0
   15.2470   -9.5859    0.0000 C   0  0  0  0  0  0  0  0  0  0  0  0
   15.2470  -10.4109    0.0000 O   0  0  0  0  0  0  0  0  0  0  0  0
   15.9614   -9.1734    0.0000 O   0  0  0  0  0  0  0  0  0  0  0  0
   10.8340   -9.5309    0.0000 C   0  0  0  0  0  0  0  0  0  0  0  0
    9.7070  -12.3079    0.0000 C   0  0  0  0  0  0  0  0  0  0  0  0
   12.9774  -10.7684    0.0000 C   0  0  0  0  0  0  0  0  0  0  0  0
   13.9938   -6.7539    0.0000 C   0  0  0  0  0  0  0  0  0  0  0  0
   14.8188   -6.7539    0.0000 C   0  0  0  0  0  0  0  0  0  0  0  0
   10.5320  -12.3079    0.0000 C   0  0  0  0  0  0  0  0  0  0  0  0
   10.1195  -13.0223    0.0000 O   0  0  0  0  0  0  0  0  0  0  0  0
    8.6905   -9.9434    0.0000 O   0  0  0  0  0  0  0  0  0  0  0  0
    8.6905  -11.5934    0.0000 O   0  0  0  0  0  0  0  0  0  0  0  0
    7.9761  -10.3559    0.0000 O   0  0  0  0  0  0  0  0  0  0  0  0
    7.9761  -11.1809    0.0000 C   0  0  2  0  0  0  0  0  0  0  0  0
    7.2616  -11.5934    0.0000 C   0  0  1  0  0  0  0  0  0  0  0  0
    6.5471  -11.1809    0.0000 C   0  0  2  0  0  0  0  0  0  0  0  0
    6.5471  -10.3559    0.0000 C   0  0  1  0  0  0  0  0  0  0  0  0
    7.2616   -9.9434    0.0000 C   0  0  1  0  0  0  0  0  0  0  0  0
    5.8327  -11.5934    0.0000 O   0  0  0  0  0  0  0  0  0  0  0  0
    5.1182  -10.3559    0.0000 O   0  0  0  0  0  0  0  0  0  0  0  0
    5.1182  -11.1809    0.0000 C   0  0  2  0  0  0  0  0  0  0  0  0
    4.4037  -11.5934    0.0000 C   0  0  1  0  0  0  0  0  0  0  0  0
    3.6892  -11.1809    0.0000 C   0  0  2  0  0  0  0  0  0  0  0  0
    3.6892  -10.3559    0.0000 C   0  0  1  0  0  0  0  0  0  0  0  0
    4.4037   -9.9434    0.0000 C   0  0  0  0  0  0  0  0  0  0  0  0
    2.9748   -9.9434    0.0000 O   0  0  0  0  0  0  0  0  0  0  0  0
    2.9748  -11.5934    0.0000 O   0  0  0  0  0  0  0  0  0  0  0  0
    4.4037  -12.4184    0.0000 O   0  0  0  0  0  0  0  0  0  0  0  0
    7.2616   -9.1184    0.0000 C   0  0  0  0  0  0  0  0  0  0  0  0
    6.5471   -8.7059    0.0000 O   0  0  0  0  0  0  0  0  0  0  0  0
    5.8327   -9.9434    0.0000 O   0  0  0  0  0  0  0  0  0  0  0  0
    7.2616  -12.4184    0.0000 O   0  0  0  0  0  0  0  0  0  0  0  0
   10.8340  -12.0059    0.0000 H   0  0  0  0  0  0  0  0  0  0  0  0
   13.6918   -9.5309    0.0000 H   0  0  0  0  0  0  0  0  0  0  0  0
   16.6759  -10.4109    0.0000 O   0  0  0  0  0  0  0  0  0  0  0  0
   16.6759   -9.5859    0.0000 C   0  0  2  0  0  0  0  0  0  0  0  0
   17.3904   -9.1734    0.0000 C   0  0  1  0  0  0  0  0  0  0  0  0
   18.1048   -9.5859    0.0000 C   0  0  2  0  0  0  0  0  0  0  0  0
   18.1048  -10.4109    0.0000 C   0  0  2  0  0  0  0  0  0  0  0  0
   17.3904  -10.8234    0.0000 C   0  0  0  0  0  0  0  0  0  0  0  0
   18.8193  -10.8234    0.0000 O   0  0  0  0  0  0  0  0  0  0  0  0
   18.8193   -9.1734    0.0000 O   0  0  0  0  0  0  0  0  0  0  0  0
   17.3904   -8.3484    0.0000 O   0  0  0  0  0  0  0  0  0  0  0  0
   18.8193   -8.3484    0.0000 O   0  0  0  0  0  0  0  0  0  0  0  0
   18.1048   -7.9359    0.0000 C   0  0  2  0  0  0  0  0  0  0  0  0
   18.1048   -7.1109    0.0000 C   0  0  1  0  0  0  0  0  0  0  0  0
   18.8193   -6.6984    0.0000 C   0  0  1  0  0  0  0  0  0  0  0  0
   19.5338   -7.1109    0.0000 C   0  0  2  0  0  0  0  0  0  0  0  0
   19.5338   -7.9359    0.0000 C   0  0  2  0  0  0  0  0  0  0  0  0
   20.2483   -8.3484    0.0000 C   0  0  0  0  0  0  0  0  0  0  0  0
   18.8193   -5.8734    0.0000 O   0  0  0  0  0  0  0  0  0  0  0  0
   17.3904   -6.6984    0.0000 O   0  0  0  0  0  0  0  0  0  0  0  0
   20.2483   -6.6984    0.0000 O   0  0  0  0  0  0  0  0  0  0  0  0
   20.9627   -7.9359    0.0000 O   0  0  0  0  0  0  0  0  0  0  0  0
   20.9627   -7.1109    0.0000 C   0  0  2  0  0  0  0  0  0  0  0  0
   21.6772   -6.6984    0.0000 C   0  0  1  0  0  0  0  0  0  0  0  0
   22.3917   -7.1109    0.0000 C   0  0  2  0  0  0  0  0  0  0  0  0
   22.3917   -7.9359    0.0000 C   0  0  1  0  0  0  0  0  0  0  0  0
   21.6772   -8.3484    0.0000 C   0  0  0  0  0  0  0  0  0  0  0  0
   23.1061   -6.6984    0.0000 O   0  0  0  0  0  0  0  0  0  0  0  0
   23.8206   -7.9359    0.0000 O   0  0  0  0  0  0  0  0  0  0  0  0
   23.8206   -7.1109    0.0000 C   0  0  2  0  0  0  0  0  0  0  0  0
   24.5351   -6.6984    0.0000 C   0  0  1  0  0  0  0  0  0  0  0  0
   25.2496   -7.1109    0.0000 C   0  0  1  0  0  0  0  0  0  0  0  0
   25.2496   -7.9359    0.0000 C   0  0  2  0  0  0  0  0  0  0  0  0
   24.5351   -8.3484    0.0000 C   0  0  2  0  0  0  0  0  0  0  0  0
   24.5351   -9.1734    0.0000 C   0  0  0  0  0  0  0  0  0  0  0  0
   25.9640   -8.3484    0.0000 O   0  0  0  0  0  0  0  0  0  0  0  0
   25.9640   -6.6984    0.0000 O   0  0  0  0  0  0  0  0  0  0  0  0
   24.5351   -5.8734    0.0000 O   0  0  0  0  0  0  0  0  0  0  0  0
   23.1061   -8.3484    0.0000 O   0  0  0  0  0  0  0  0  0  0  0  0
   21.6772   -5.8734    0.0000 O   0  0  0  0  0  0  0  0  0  0  0  0
   11.5484  -10.7684    0.0000 H   0  0  0  0  0  0  0  0  0  0  0  0
   12.2629   -9.5309    0.0000 C   0  0  0  0  0  0  0  0  0  0  0  0
   14.4063  -10.7684    0.0000 O   0  0  0  0  0  0  0  0  0  0  0  0
  1  2  1  0  0  0  0
  2  3  1  0  0  0  0
  3  4  1  0  0  0  0
  4  5  1  0  0  0  0
  5  6  1  0  0  0  0
  6  7  1  0  0  0  0
  7  8  1  0  0  0  0
  8  9  1  0  0  0  0
  9 10  1  0  0  0  0
 10 11  1  0  0  0  0
 11 12  1  0  0  0  0
 12 13  1  0  0  0  0
 13 14  1  0  0  0  0
 14 15  1  0  0  0  0
 15 16  1  0  0  0  0
 16 17  1  0  0  0  0
 12 17  1  0  0  0  0
 17 18  1  0  0  0  0
  9 18  1  0  0  0  0
 18 19  1  0  0  0  0
 19 20  1  0  0  0  0
 20 21  2  0  0  0  0
  8 21  1  0  0  0  0
 21 22  1  0  0  0  0
  5 22  1  0  0  0  0
  1 22  1  0  0  0  0
 23 24  2  0  0  0  0
 23 25  1  0  0  0  0
  5 23  1  1  0  0  0
 17 26  1  1  0  0  0
 13 27  1  1  0  0  0
  8 28  1  6  0  0  0
  2 29  1  0  0  0  0
  2 30  1  0  0  0  0
 31 32  1  0  0  0  0
 13 31  1  6  0  0  0
 15 33  1  1  0  0  0
 35 36  1  0  0  0  0
 36 37  1  0  0  0  0
 37 38  1  0  0  0  0
 38 39  1  0  0  0  0
 39 40  1  0  0  0  0
 35 40  1  0  0  0  0
 42 43  1  0  0  0  0
 43 44  1  0  0  0  0
 44 45  1  0  0  0  0
 45 46  1  0  0  0  0
 46 47  1  0  0  0  0
 42 47  1  0  0  0  0
 46 48  1  6  0  0  0
 45 49  1  1  0  0  0
 44 50  1  6  0  0  0
 43 41  1  1  0  0  0
 38 41  1  1  0  0  0
 51 52  1  0  0  0  0
 40 51  1  1  0  0  0
 39 53  1  6  0  0  0
 37 54  1  6  0  0  0
 36 34  1  1  0  0  0
 14 34  1  1  0  0  0
 12 55  1  6  0  0  0
 22 56  1  1  0  0  0
 57 58  1  0  0  0  0
 58 59  1  0  0  0  0
 59 60  1  0  0  0  0
 60 61  1  0  0  0  0
 61 62  1  0  0  0  0
 57 62  1  0  0  0  0
 61 63  1  1  0  0  0
 60 64  1  1  0  0  0
 66 67  1  0  0  0  0
 67 68  1  0  0  0  0
 68 69  1  0  0  0  0
 69 70  1  0  0  0  0
 70 71  1  0  0  0  0
 66 71  1  0  0  0  0
 71 72  1  6  0  0  0
 69 73  1  6  0  0  0
 68 74  1  6  0  0  0
 76 77  1  0  0  0  0
 77 78  1  0  0  0  0
 78 79  1  0  0  0  0
 79 80  1  0  0  0  0
 80 81  1  0  0  0  0
 76 81  1  0  0  0  0
 83 84  1  0  0  0  0
 84 85  1  0  0  0  0
 85 86  1  0  0  0  0
 86 87  1  0  0  0  0
 87 88  1  0  0  0  0
 83 88  1  0  0  0  0
 88 89  1  6  0  0  0
 87 90  1  1  0  0  0
 86 91  1  6  0  0  0
 85 92  1  6  0  0  0
 84 82  1  1  0  0  0
 79 82  1  1  0  0  0
 80 93  1  6  0  0  0
 78 94  1  6  0  0  0
 77 75  1  1  0  0  0
 70 75  1  1  0  0  0
 67 65  1  1  0  0  0
 59 65  1  6  0  0  0
 58 25  1  1  0  0  0
 18 95  1  6  0  0  0
  9 96  1  1  0  0  0
  6 97  1  6  0  0  0
M  END
>  <cdx:fragmentId>
5

$$$$
