21574474.cdx
  Mrv1902 05222410262D          

 47 51  0  0  0  0            999 V2000
    6.2538  -14.8718    0.0000 N   0  0  0  0  0  0  0  0  0  0  0  0
    6.7387  -15.5392    0.0000 C   0  0  1  0  0  0  0  0  0  0  0  0
    6.2538  -16.2067    0.0000 C   0  0  0  0  0  0  0  0  0  0  0  0
    5.4692  -15.9517    0.0000 C   0  0  0  0  0  0  0  0  0  0  0  0
    4.7547  -16.3642    0.0000 C   0  0  0  0  0  0  0  0  0  0  0  0
    4.0403  -15.9517    0.0000 C   0  0  0  0  0  0  0  0  0  0  0  0
    4.0403  -15.1267    0.0000 C   0  0  0  0  0  0  0  0  0  0  0  0
    4.7547  -14.7142    0.0000 C   0  0  0  0  0  0  0  0  0  0  0  0
    5.4692  -15.1267    0.0000 C   0  0  0  0  0  0  0  0  0  0  0  0
    7.5637  -15.5392    0.0000 C   0  0  0  0  0  0  0  0  0  0  0  0
    7.9762  -16.2537    0.0000 O   0  0  0  0  0  0  0  0  0  0  0  0
    7.9762  -14.8248    0.0000 O   0  0  0  0  0  0  0  0  0  0  0  0
    6.5088  -14.0872    0.0000 C   0  0  0  0  0  0  0  0  0  0  0  0
    7.3157  -13.9157    0.0000 C   0  0  0  0  0  0  0  0  0  0  0  0
    7.5707  -13.1310    0.0000 C   0  0  0  0  0  0  0  0  0  0  0  0
    5.9567  -13.4741    0.0000 O   0  0  0  0  0  0  0  0  0  0  0  0
    8.3776  -12.9595    0.0000 C   0  0  0  0  0  0  0  0  0  0  0  0
    8.6326  -12.1749    0.0000 C   0  0  0  0  0  0  0  0  0  0  0  0
    9.4396  -12.0034    0.0000 C   0  0  0  0  0  0  0  0  0  0  0  0
    9.9916  -12.6165    0.0000 C   0  0  0  0  0  0  0  0  0  0  0  0
    9.7366  -13.4011    0.0000 C   0  0  0  0  0  0  0  0  0  0  0  0
    8.9297  -13.5726    0.0000 C   0  0  0  0  0  0  0  0  0  0  0  0
   10.7986  -12.4449    0.0000 O   0  0  0  0  0  0  0  0  0  0  0  0
   12.1576  -12.8865    0.0000 O   0  0  0  0  0  0  0  0  0  0  0  0
   11.3506  -13.0580    0.0000 C   0  0  2  0  0  0  0  0  0  0  0  0
   11.0957  -13.8426    0.0000 C   0  0  1  0  0  0  0  0  0  0  0  0
   11.6477  -14.4557    0.0000 C   0  0  2  0  0  0  0  0  0  0  0  0
   12.4547  -14.2842    0.0000 C   0  0  1  0  0  0  0  0  0  0  0  0
   12.7096  -13.4996    0.0000 C   0  0  1  0  0  0  0  0  0  0  0  0
   13.5166  -13.3281    0.0000 C   0  0  0  0  0  0  0  0  0  0  0  0
   14.0686  -13.9412    0.0000 O   0  0  0  0  0  0  0  0  0  0  0  0
   13.0067  -14.8973    0.0000 O   0  0  0  0  0  0  0  0  0  0  0  0
   11.3927  -15.2404    0.0000 O   0  0  0  0  0  0  0  0  0  0  0  0
   10.2887  -14.0142    0.0000 O   0  0  0  0  0  0  0  0  0  0  0  0
    3.3258  -14.7142    0.0000 O   0  0  0  0  0  0  0  0  0  0  0  0
    2.6113  -15.9517    0.0000 O   0  0  0  0  0  0  0  0  0  0  0  0
    2.6113  -15.1267    0.0000 C   0  0  2  0  0  0  0  0  0  0  0  0
    1.8968  -14.7142    0.0000 C   0  0  1  0  0  0  0  0  0  0  0  0
    1.1824  -15.1267    0.0000 C   0  0  2  0  0  0  0  0  0  0  0  0
    1.1824  -15.9517    0.0000 C   0  0  1  0  0  0  0  0  0  0  0  0
    1.8968  -16.3642    0.0000 C   0  0  1  0  0  0  0  0  0  0  0  0
    1.8968  -17.1892    0.0000 C   0  0  0  0  0  0  0  0  0  0  0  0
    1.1824  -17.6017    0.0000 O   0  0  0  0  0  0  0  0  0  0  0  0
    0.4679  -16.3642    0.0000 O   0  0  0  0  0  0  0  0  0  0  0  0
    0.4679  -14.7142    0.0000 O   0  0  0  0  0  0  0  0  0  0  0  0
    1.8968  -13.8892    0.0000 O   0  0  0  0  0  0  0  0  0  0  0  0
    3.3258  -16.3642    0.0000 O   0  0  0  0  0  0  0  0  0  0  0  0
  1  2  1  0  0  0  0
  2  3  1  0  0  0  0
  3  4  1  0  0  0  0
  4  5  1  0  0  0  0
  5  6  2  0  0  0  0
  6  7  1  0  0  0  0
  7  8  2  0  0  0  0
  8  9  1  0  0  0  0
  1  9  1  0  0  0  0
  4  9  2  0  0  0  0
 10 11  2  0  0  0  0
 10 12  1  0  0  0  0
  2 10  1  6  0  0  0
 13 14  1  0  0  0  0
 14 15  2  0  0  0  0
 13 16  2  0  0  0  0
 17 18  1  0  0  0  0
 18 19  2  0  0  0  0
 19 20  1  0  0  0  0
 20 21  2  0  0  0  0
 21 22  1  0  0  0  0
 17 22  2  0  0  0  0
 24 25  1  0  0  0  0
 25 26  1  0  0  0  0
 26 27  1  0  0  0  0
 27 28  1  0  0  0  0
 28 29  1  0  0  0  0
 24 29  1  0  0  0  0
 30 31  1  0  0  0  0
 29 30  1  6  0  0  0
 28 32  1  1  0  0  0
 27 33  1  6  0  0  0
 26 34  1  1  0  0  0
 25 23  1  6  0  0  0
 20 23  1  0  0  0  0
 15 17  1  0  0  0  0
  1 13  1  0  0  0  0
 36 37  1  0  0  0  0
 37 38  1  0  0  0  0
 38 39  1  0  0  0  0
 39 40  1  0  0  0  0
 40 41  1  0  0  0  0
 36 41  1  0  0  0  0
 42 43  1  0  0  0  0
 41 42  1  6  0  0  0
 40 44  1  1  0  0  0
 39 45  1  6  0  0  0
 38 46  1  1  0  0  0
 37 35  1  6  0  0  0
  7 35  1  0  0  0  0
  6 47  1  0  0  0  0
M  END
>  <cdx:groupId>
130580

>  <cdx:fragmentId>
130484

$$$$
