21574473.cdx
  Mrv1902 05222410272D          

 38 41  0  0  0  0            999 V2000
    7.8888  -15.3491    0.0000 N   0  0  0  0  0  0  0  0  0  0  0  0
    8.3738  -16.0165    0.0000 C   0  0  1  0  0  0  0  0  0  0  0  0
    7.8888  -16.6839    0.0000 C   0  0  0  0  0  0  0  0  0  0  0  0
    7.1042  -16.4290    0.0000 C   0  0  0  0  0  0  0  0  0  0  0  0
    6.3897  -16.8415    0.0000 C   0  0  0  0  0  0  0  0  0  0  0  0
    5.6753  -16.4290    0.0000 C   0  0  0  0  0  0  0  0  0  0  0  0
    5.6753  -15.6040    0.0000 C   0  0  0  0  0  0  0  0  0  0  0  0
    6.3897  -15.1915    0.0000 C   0  0  0  0  0  0  0  0  0  0  0  0
    7.1042  -15.6040    0.0000 C   0  0  0  0  0  0  0  0  0  0  0  0
    9.1988  -16.0165    0.0000 C   0  0  0  0  0  0  0  0  0  0  0  0
    9.6113  -16.7310    0.0000 O   0  0  0  0  0  0  0  0  0  0  0  0
    9.6113  -15.3020    0.0000 O   0  0  0  0  0  0  0  0  0  0  0  0
    4.9608  -15.1915    0.0000 O   0  0  0  0  0  0  0  0  0  0  0  0
    4.2463  -16.4290    0.0000 O   0  0  0  0  0  0  0  0  0  0  0  0
    4.2463  -15.6040    0.0000 C   0  0  2  0  0  0  0  0  0  0  0  0
    3.5319  -15.1915    0.0000 C   0  0  1  0  0  0  0  0  0  0  0  0
    2.8174  -15.6040    0.0000 C   0  0  2  0  0  0  0  0  0  0  0  0
    2.8174  -16.4290    0.0000 C   0  0  1  0  0  0  0  0  0  0  0  0
    3.5319  -16.8415    0.0000 C   0  0  1  0  0  0  0  0  0  0  0  0
    3.5319  -17.6665    0.0000 C   0  0  0  0  0  0  0  0  0  0  0  0
    2.8174  -18.0790    0.0000 O   0  0  0  0  0  0  0  0  0  0  0  0
    2.1029  -16.8415    0.0000 O   0  0  0  0  0  0  0  0  0  0  0  0
    2.1029  -15.1915    0.0000 O   0  0  0  0  0  0  0  0  0  0  0  0
    3.5319  -14.3665    0.0000 O   0  0  0  0  0  0  0  0  0  0  0  0
    8.1438  -14.5644    0.0000 C   0  0  0  0  0  0  0  0  0  0  0  0
    8.9508  -14.3929    0.0000 C   0  0  0  0  0  0  0  0  0  0  0  0
    9.2057  -13.6083    0.0000 C   0  0  0  0  0  0  0  0  0  0  0  0
    7.5917  -13.9513    0.0000 O   0  0  0  0  0  0  0  0  0  0  0  0
   10.0127  -13.4368    0.0000 C   0  0  0  0  0  0  0  0  0  0  0  0
   10.2676  -12.6521    0.0000 C   0  0  0  0  0  0  0  0  0  0  0  0
   11.0746  -12.4806    0.0000 C   0  0  0  0  0  0  0  0  0  0  0  0
   11.6266  -13.0937    0.0000 C   0  0  0  0  0  0  0  0  0  0  0  0
   11.3717  -13.8783    0.0000 C   0  0  0  0  0  0  0  0  0  0  0  0
   10.5647  -14.0498    0.0000 C   0  0  0  0  0  0  0  0  0  0  0  0
   11.3295  -11.6960    0.0000 O   0  0  0  0  0  0  0  0  0  0  0  0
   12.1365  -11.5245    0.0000 C   0  0  0  0  0  0  0  0  0  0  0  0
   12.4336  -12.9222    0.0000 O   0  0  0  0  0  0  0  0  0  0  0  0
    4.9608  -16.8415    0.0000 O   0  0  0  0  0  0  0  0  0  0  0  0
  1  2  1  0  0  0  0
  2  3  1  0  0  0  0
  3  4  1  0  0  0  0
  4  5  1  0  0  0  0
  5  6  2  0  0  0  0
  6  7  1  0  0  0  0
  7  8  2  0  0  0  0
  8  9  1  0  0  0  0
  1  9  1  0  0  0  0
  4  9  2  0  0  0  0
 10 11  2  0  0  0  0
 10 12  1  0  0  0  0
  2 10  1  6  0  0  0
 14 15  1  0  0  0  0
 15 16  1  0  0  0  0
 16 17  1  0  0  0  0
 17 18  1  0  0  0  0
 18 19  1  0  0  0  0
 14 19  1  0  0  0  0
 20 21  1  0  0  0  0
 19 20  1  6  0  0  0
 18 22  1  1  0  0  0
 17 23  1  6  0  0  0
 16 24  1  1  0  0  0
 15 13  1  6  0  0  0
  7 13  1  0  0  0  0
 25 26  1  0  0  0  0
 26 27  2  0  0  0  0
 25 28  2  0  0  0  0
 29 30  1  0  0  0  0
 30 31  2  0  0  0  0
 31 32  1  0  0  0  0
 32 33  2  0  0  0  0
 33 34  1  0  0  0  0
 29 34  2  0  0  0  0
 35 36  1  0  0  0  0
 31 35  1  0  0  0  0
 32 37  1  0  0  0  0
 27 29  1  0  0  0  0
  1 25  1  0  0  0  0
  6 38  1  0  0  0  0
M  END
>  <cdx:groupId>
130424

>  <cdx:fragmentId>
130310

$$$$
