21574478.cdx
  Mrv1902 05222410202D          

 47 51  0  0  0  0            999 V2000
    6.5538  -15.5255    0.0000 C   0  0  0  0  0  0  0  0  0  0  0  0
    7.2682  -15.1130    0.0000 C   0  0  0  0  0  0  0  0  0  0  0  0
    7.2682  -14.2880    0.0000 C   0  0  0  0  0  0  0  0  0  0  0  0
    7.9827  -13.8755    0.0000 C   0  0  0  0  0  0  0  0  0  0  0  0
    8.6972  -14.2880    0.0000 C   0  0  0  0  0  0  0  0  0  0  0  0
    8.6972  -15.1130    0.0000 C   0  0  0  0  0  0  0  0  0  0  0  0
    7.9827  -15.5255    0.0000 C   0  0  0  0  0  0  0  0  0  0  0  0
    5.8393  -15.1130    0.0000 O   0  0  0  0  0  0  0  0  0  0  0  0
    6.5538  -16.3505    0.0000 O   0  0  0  0  0  0  0  0  0  0  0  0
    7.9827  -13.0505    0.0000 O   0  0  0  0  0  0  0  0  0  0  0  0
    9.4117  -13.0505    0.0000 O   0  0  0  0  0  0  0  0  0  0  0  0
    8.6972  -12.6380    0.0000 C   0  0  2  0  0  0  0  0  0  0  0  0
    8.6972  -11.8130    0.0000 C   0  0  1  0  0  0  0  0  0  0  0  0
    9.4117  -11.4005    0.0000 C   0  0  2  0  0  0  0  0  0  0  0  0
   10.1261  -11.8130    0.0000 C   0  0  1  0  0  0  0  0  0  0  0  0
   10.1261  -12.6380    0.0000 C   0  0  1  0  0  0  0  0  0  0  0  0
   10.8406  -13.0505    0.0000 C   0  0  0  0  0  0  0  0  0  0  0  0
   11.5551  -12.6380    0.0000 O   0  0  0  0  0  0  0  0  0  0  0  0
   10.8406  -11.4005    0.0000 O   0  0  0  0  0  0  0  0  0  0  0  0
    9.4117  -10.5755    0.0000 O   0  0  0  0  0  0  0  0  0  0  0  0
    7.9827  -11.4005    0.0000 O   0  0  0  0  0  0  0  0  0  0  0  0
    6.5538  -13.8755    0.0000 O   0  0  0  0  0  0  0  0  0  0  0  0
    5.1248  -18.0005    0.0000 O   0  0  0  0  0  0  0  0  0  0  0  0
    5.8393  -17.5880    0.0000 C   0  0  2  0  0  0  0  0  0  0  0  0
    5.8393  -16.7630    0.0000 C   0  0  1  0  0  0  0  0  0  0  0  0
    5.1248  -16.3505    0.0000 C   0  0  2  0  0  0  0  0  0  0  0  0
    4.4104  -16.7630    0.0000 C   0  0  1  0  0  0  0  0  0  0  0  0
    4.4104  -17.5880    0.0000 C   0  0  1  0  0  0  0  0  0  0  0  0
    3.6959  -18.0005    0.0000 C   0  0  0  0  0  0  0  0  0  0  0  0
    2.9814  -17.5880    0.0000 O   0  0  0  0  0  0  0  0  0  0  0  0
    3.6959  -16.3505    0.0000 O   0  0  0  0  0  0  0  0  0  0  0  0
    5.1248  -15.5255    0.0000 O   0  0  0  0  0  0  0  0  0  0  0  0
    6.5538  -18.0005    0.0000 O   0  0  0  0  0  0  0  0  0  0  0  0
    7.9827  -16.3505    0.0000 C   0  0  0  0  0  0  0  0  0  0  0  0
    8.6972  -16.7630    0.0000 C   0  0  0  0  0  0  0  0  0  0  0  0
    8.6972  -17.5880    0.0000 C   0  0  2  0  0  0  0  0  0  0  0  0
    7.9827  -18.0005    0.0000 C   0  0  2  0  0  0  0  0  0  0  0  0
    7.2682  -17.5880    0.0000 C   0  0  1  0  0  0  0  0  0  0  0  0
    7.2682  -16.7630    0.0000 O   0  0  0  0  0  0  0  0  0  0  0  0
    9.4117  -16.3505    0.0000 C   0  0  0  0  0  0  0  0  0  0  0  0
    9.4117  -18.0005    0.0000 C   0  0  0  0  0  0  0  0  0  0  0  0
   10.1261  -17.5880    0.0000 C   0  0  0  0  0  0  0  0  0  0  0  0
   10.1261  -16.7630    0.0000 O   0  0  0  0  0  0  0  0  0  0  0  0
    9.4117  -15.5255    0.0000 O   0  0  0  0  0  0  0  0  0  0  0  0
    7.9827  -18.8255    0.0000 C   0  0  0  0  0  0  0  0  0  0  0  0
    7.2682  -19.2380    0.0000 C   0  0  0  0  0  0  0  0  0  0  0  0
    8.6972  -18.4130    0.0000 H   0  0  0  0  0  0  0  0  0  0  0  0
  1  2  1  0  0  0  0
  2  3  1  0  0  0  0
  3  4  2  0  0  0  0
  4  5  1  0  0  0  0
  5  6  2  0  0  0  0
  6  7  1  0  0  0  0
  2  7  2  0  0  0  0
  1  8  2  0  0  0  0
  1  9  1  0  0  0  0
 11 12  1  0  0  0  0
 12 13  1  0  0  0  0
 13 14  1  0  0  0  0
 14 15  1  0  0  0  0
 15 16  1  0  0  0  0
 11 16  1  0  0  0  0
 17 18  1  0  0  0  0
 16 17  1  1  0  0  0
 15 19  1  6  0  0  0
 14 20  1  1  0  0  0
 13 21  1  6  0  0  0
 12 10  1  1  0  0  0
  4 10  1  0  0  0  0
  3 22  1  0  0  0  0
 23 24  1  0  0  0  0
 24 25  1  0  0  0  0
 25 26  1  0  0  0  0
 26 27  1  0  0  0  0
 27 28  1  0  0  0  0
 23 28  1  0  0  0  0
 29 30  1  0  0  0  0
 28 29  1  6  0  0  0
 27 31  1  1  0  0  0
 26 32  1  6  0  0  0
 34 35  2  0  0  0  0
 35 36  1  0  0  0  0
 36 37  1  0  0  0  0
 37 38  1  0  0  0  0
 38 39  1  0  0  0  0
 34 39  1  0  0  0  0
 41 42  1  0  0  0  0
 42 43  1  0  0  0  0
 40 43  1  0  0  0  0
 40 35  1  0  0  0  0
 41 36  1  0  0  0  0
 40 44  2  0  0  0  0
 45 46  2  0  0  0  0
 37 45  1  1  0  0  0
 38 33  1  6  0  0  0
 24 33  1  6  0  0  0
 25  9  1  1  0  0  0
 36 47  1  6  0  0  0
M  END
>  <cdx:groupId>
130902

>  <cdx:fragmentId>
130826

$$$$
