21574475.cdx
  Mrv1902 05222410262D          

 49 53  0  0  0  0            999 V2000
    6.2538  -15.3491    0.0000 N   0  0  0  0  0  0  0  0  0  0  0  0
    6.7387  -16.0165    0.0000 C   0  0  1  0  0  0  0  0  0  0  0  0
    6.2538  -16.6839    0.0000 C   0  0  0  0  0  0  0  0  0  0  0  0
    5.4692  -16.4290    0.0000 C   0  0  0  0  0  0  0  0  0  0  0  0
    4.7547  -16.8415    0.0000 C   0  0  0  0  0  0  0  0  0  0  0  0
    4.0403  -16.4290    0.0000 C   0  0  0  0  0  0  0  0  0  0  0  0
    4.0403  -15.6040    0.0000 C   0  0  0  0  0  0  0  0  0  0  0  0
    4.7547  -15.1915    0.0000 C   0  0  0  0  0  0  0  0  0  0  0  0
    5.4692  -15.6040    0.0000 C   0  0  0  0  0  0  0  0  0  0  0  0
    7.5637  -16.0165    0.0000 C   0  0  0  0  0  0  0  0  0  0  0  0
    7.9762  -16.7310    0.0000 O   0  0  0  0  0  0  0  0  0  0  0  0
    7.9762  -15.3020    0.0000 O   0  0  0  0  0  0  0  0  0  0  0  0
    3.3258  -15.1915    0.0000 O   0  0  0  0  0  0  0  0  0  0  0  0
    2.6113  -16.4290    0.0000 O   0  0  0  0  0  0  0  0  0  0  0  0
    2.6113  -15.6040    0.0000 C   0  0  2  0  0  0  0  0  0  0  0  0
    1.8968  -15.1915    0.0000 C   0  0  1  0  0  0  0  0  0  0  0  0
    1.1824  -15.6040    0.0000 C   0  0  2  0  0  0  0  0  0  0  0  0
    1.1824  -16.4290    0.0000 C   0  0  1  0  0  0  0  0  0  0  0  0
    1.8968  -16.8415    0.0000 C   0  0  1  0  0  0  0  0  0  0  0  0
    1.8968  -17.6665    0.0000 C   0  0  0  0  0  0  0  0  0  0  0  0
    1.1824  -18.0790    0.0000 O   0  0  0  0  0  0  0  0  0  0  0  0
    0.4679  -16.8415    0.0000 O   0  0  0  0  0  0  0  0  0  0  0  0
    0.4679  -15.1915    0.0000 O   0  0  0  0  0  0  0  0  0  0  0  0
    1.8968  -14.3665    0.0000 O   0  0  0  0  0  0  0  0  0  0  0  0
    6.5088  -14.5644    0.0000 C   0  0  0  0  0  0  0  0  0  0  0  0
    7.3157  -14.3929    0.0000 C   0  0  0  0  0  0  0  0  0  0  0  0
    7.5707  -13.6083    0.0000 C   0  0  0  0  0  0  0  0  0  0  0  0
    5.9567  -13.9513    0.0000 O   0  0  0  0  0  0  0  0  0  0  0  0
    8.3776  -13.4368    0.0000 C   0  0  0  0  0  0  0  0  0  0  0  0
    8.6326  -12.6521    0.0000 C   0  0  0  0  0  0  0  0  0  0  0  0
    9.4396  -12.4806    0.0000 C   0  0  0  0  0  0  0  0  0  0  0  0
    9.9916  -13.0937    0.0000 C   0  0  0  0  0  0  0  0  0  0  0  0
    9.7366  -13.8783    0.0000 C   0  0  0  0  0  0  0  0  0  0  0  0
    8.9297  -14.0498    0.0000 C   0  0  0  0  0  0  0  0  0  0  0  0
   10.7986  -12.9222    0.0000 O   0  0  0  0  0  0  0  0  0  0  0  0
   12.1576  -13.3637    0.0000 O   0  0  0  0  0  0  0  0  0  0  0  0
   11.3506  -13.5353    0.0000 C   0  0  2  0  0  0  0  0  0  0  0  0
   11.0957  -14.3199    0.0000 C   0  0  1  0  0  0  0  0  0  0  0  0
   11.6477  -14.9330    0.0000 C   0  0  2  0  0  0  0  0  0  0  0  0
   12.4547  -14.7615    0.0000 C   0  0  1  0  0  0  0  0  0  0  0  0
   12.7096  -13.9768    0.0000 C   0  0  1  0  0  0  0  0  0  0  0  0
   13.5166  -13.8053    0.0000 C   0  0  0  0  0  0  0  0  0  0  0  0
   14.0686  -14.4184    0.0000 O   0  0  0  0  0  0  0  0  0  0  0  0
   13.0067  -15.3746    0.0000 O   0  0  0  0  0  0  0  0  0  0  0  0
   11.3927  -15.7176    0.0000 O   0  0  0  0  0  0  0  0  0  0  0  0
   10.2887  -14.4914    0.0000 O   0  0  0  0  0  0  0  0  0  0  0  0
    9.6945  -11.6960    0.0000 O   0  0  0  0  0  0  0  0  0  0  0  0
   10.5015  -11.5245    0.0000 C   0  0  0  0  0  0  0  0  0  0  0  0
    3.3258  -16.8415    0.0000 O   0  0  0  0  0  0  0  0  0  0  0  0
  1  2  1  0  0  0  0
  2  3  1  0  0  0  0
  3  4  1  0  0  0  0
  4  5  1  0  0  0  0
  5  6  2  0  0  0  0
  6  7  1  0  0  0  0
  7  8  2  0  0  0  0
  8  9  1  0  0  0  0
  1  9  1  0  0  0  0
  4  9  2  0  0  0  0
 10 11  2  0  0  0  0
 10 12  1  0  0  0  0
  2 10  1  6  0  0  0
 14 15  1  0  0  0  0
 15 16  1  0  0  0  0
 16 17  1  0  0  0  0
 17 18  1  0  0  0  0
 18 19  1  0  0  0  0
 14 19  1  0  0  0  0
 20 21  1  0  0  0  0
 19 20  1  6  0  0  0
 18 22  1  1  0  0  0
 17 23  1  6  0  0  0
 16 24  1  1  0  0  0
 15 13  1  6  0  0  0
  7 13  1  0  0  0  0
 25 26  1  0  0  0  0
 26 27  2  0  0  0  0
 25 28  2  0  0  0  0
 29 30  1  0  0  0  0
 30 31  2  0  0  0  0
 31 32  1  0  0  0  0
 32 33  2  0  0  0  0
 33 34  1  0  0  0  0
 29 34  2  0  0  0  0
 36 37  1  0  0  0  0
 37 38  1  0  0  0  0
 38 39  1  0  0  0  0
 39 40  1  0  0  0  0
 40 41  1  0  0  0  0
 36 41  1  0  0  0  0
 42 43  1  0  0  0  0
 41 42  1  6  0  0  0
 40 44  1  1  0  0  0
 39 45  1  6  0  0  0
 38 46  1  1  0  0  0
 37 35  1  6  0  0  0
 32 35  1  0  0  0  0
 47 48  1  0  0  0  0
 31 47  1  0  0  0  0
 27 29  1  0  0  0  0
  1 25  1  0  0  0  0
  6 49  1  0  0  0  0
M  END
>  <cdx:groupId>
130741

>  <cdx:fragmentId>
130593

$$$$
