21574472.cdx
  Mrv1902 05222410272D          

 36 39  0  0  0  0            999 V2000
    7.8888  -14.8718    0.0000 N   0  0  0  0  0  0  0  0  0  0  0  0
    8.3738  -15.5392    0.0000 C   0  0  1  0  0  0  0  0  0  0  0  0
    7.8888  -16.2067    0.0000 C   0  0  0  0  0  0  0  0  0  0  0  0
    7.1042  -15.9517    0.0000 C   0  0  0  0  0  0  0  0  0  0  0  0
    6.3897  -16.3642    0.0000 C   0  0  0  0  0  0  0  0  0  0  0  0
    5.6753  -15.9517    0.0000 C   0  0  0  0  0  0  0  0  0  0  0  0
    5.6753  -15.1267    0.0000 C   0  0  0  0  0  0  0  0  0  0  0  0
    6.3897  -14.7142    0.0000 C   0  0  0  0  0  0  0  0  0  0  0  0
    7.1042  -15.1267    0.0000 C   0  0  0  0  0  0  0  0  0  0  0  0
    9.1988  -15.5392    0.0000 C   0  0  0  0  0  0  0  0  0  0  0  0
    9.6113  -16.2537    0.0000 O   0  0  0  0  0  0  0  0  0  0  0  0
    9.6113  -14.8248    0.0000 O   0  0  0  0  0  0  0  0  0  0  0  0
    4.9608  -14.7142    0.0000 O   0  0  0  0  0  0  0  0  0  0  0  0
    4.2463  -15.9517    0.0000 O   0  0  0  0  0  0  0  0  0  0  0  0
    4.2463  -15.1267    0.0000 C   0  0  2  0  0  0  0  0  0  0  0  0
    3.5319  -14.7142    0.0000 C   0  0  1  0  0  0  0  0  0  0  0  0
    2.8174  -15.1267    0.0000 C   0  0  2  0  0  0  0  0  0  0  0  0
    2.8174  -15.9517    0.0000 C   0  0  1  0  0  0  0  0  0  0  0  0
    3.5319  -16.3642    0.0000 C   0  0  1  0  0  0  0  0  0  0  0  0
    3.5319  -17.1892    0.0000 C   0  0  0  0  0  0  0  0  0  0  0  0
    2.8174  -17.6017    0.0000 O   0  0  0  0  0  0  0  0  0  0  0  0
    2.1029  -16.3642    0.0000 O   0  0  0  0  0  0  0  0  0  0  0  0
    2.1029  -14.7142    0.0000 O   0  0  0  0  0  0  0  0  0  0  0  0
    3.5319  -13.8892    0.0000 O   0  0  0  0  0  0  0  0  0  0  0  0
    8.1438  -14.0872    0.0000 C   0  0  0  0  0  0  0  0  0  0  0  0
    8.9508  -13.9157    0.0000 C   0  0  0  0  0  0  0  0  0  0  0  0
    9.2057  -13.1310    0.0000 C   0  0  0  0  0  0  0  0  0  0  0  0
    7.5917  -13.4741    0.0000 O   0  0  0  0  0  0  0  0  0  0  0  0
   10.0127  -12.9595    0.0000 C   0  0  0  0  0  0  0  0  0  0  0  0
   10.2676  -12.1749    0.0000 C   0  0  0  0  0  0  0  0  0  0  0  0
   11.0746  -12.0034    0.0000 C   0  0  0  0  0  0  0  0  0  0  0  0
   11.6266  -12.6165    0.0000 C   0  0  0  0  0  0  0  0  0  0  0  0
   11.3717  -13.4011    0.0000 C   0  0  0  0  0  0  0  0  0  0  0  0
   10.5647  -13.5726    0.0000 C   0  0  0  0  0  0  0  0  0  0  0  0
   12.4336  -12.4449    0.0000 O   0  0  0  0  0  0  0  0  0  0  0  0
    4.9608  -16.3642    0.0000 O   0  0  0  0  0  0  0  0  0  0  0  0
  1  2  1  0  0  0  0
  2  3  1  0  0  0  0
  3  4  1  0  0  0  0
  4  5  1  0  0  0  0
  5  6  2  0  0  0  0
  6  7  1  0  0  0  0
  7  8  2  0  0  0  0
  8  9  1  0  0  0  0
  1  9  1  0  0  0  0
  4  9  2  0  0  0  0
 10 11  2  0  0  0  0
 10 12  1  0  0  0  0
  2 10  1  6  0  0  0
 14 15  1  0  0  0  0
 15 16  1  0  0  0  0
 16 17  1  0  0  0  0
 17 18  1  0  0  0  0
 18 19  1  0  0  0  0
 14 19  1  0  0  0  0
 20 21  1  0  0  0  0
 19 20  1  6  0  0  0
 18 22  1  1  0  0  0
 17 23  1  6  0  0  0
 16 24  1  1  0  0  0
 15 13  1  6  0  0  0
  7 13  1  0  0  0  0
 25 26  1  0  0  0  0
 26 27  2  0  0  0  0
 25 28  2  0  0  0  0
 29 30  1  0  0  0  0
 30 31  2  0  0  0  0
 31 32  1  0  0  0  0
 32 33  2  0  0  0  0
 33 34  1  0  0  0  0
 29 34  2  0  0  0  0
 32 35  1  0  0  0  0
 27 29  1  0  0  0  0
  1 25  1  0  0  0  0
  6 36  1  0  0  0  0
M  END
>  <cdx:groupId>
130299

>  <cdx:fragmentId>
130191

$$$$
