575006.cdx
  Mrv1902 05222410182D          

 76 85  0  0  0  0            999 V2000
    7.2226  -12.7148    0.0000 O   0  0  0  0  0  0  0  0  0  0  0  0
    7.9436  -12.3138    0.0000 C   0  0  0  0  0  0  0  0  0  0  0  0
    9.3856  -11.5118    0.0000 O   0  0  0  0  0  0  0  0  0  0  0  0
   12.2432  -11.5577    0.0000 O   0  0  0  0  0  0  0  0  0  0  0  0
   10.8409   -9.8850    0.0000 C   0  0  2  0  0  0  0  0  0  0  0  0
   10.1199  -10.2859    0.0000 C   0  0  2  0  0  0  0  0  0  0  0  0
   10.1066  -11.1108    0.0000 C   0  0  1  0  0  0  0  0  0  0  0  0
   10.8144  -11.5347    0.0000 C   0  0  2  0  0  0  0  0  0  0  0  0
   11.5354  -11.1338    0.0000 C   0  0  1  0  0  0  0  0  0  0  0  0
   11.5486  -10.3089    0.0000 O   0  0  0  0  0  0  0  0  0  0  0  0
   10.8012  -12.3596    0.0000 O   0  0  0  0  0  0  0  0  0  0  0  0
   10.7747  -14.0094    0.0000 O   0  0  0  0  0  0  0  0  0  0  0  0
    9.3327  -14.8114    0.0000 O   0  0  0  0  0  0  0  0  0  0  0  0
    7.9172  -13.9636    0.0000 O   0  0  0  0  0  0  0  0  0  0  0  0
   10.0802  -12.7606    0.0000 C   0  0  1  0  0  0  0  0  0  0  0  0
   10.0669  -13.5855    0.0000 C   0  0  1  0  0  0  0  0  0  0  0  0
    9.3459  -13.9865    0.0000 C   0  0  2  0  0  0  0  0  0  0  0  0
    8.6382  -13.5626    0.0000 C   0  0  1  0  0  0  0  0  0  0  0  0
    8.6514  -12.7377    0.0000 C   0  0  2  0  0  0  0  0  0  0  0  0
    9.3724  -12.3367    0.0000 O   0  0  0  0  0  0  0  0  0  0  0  0
    9.4121   -9.8620    0.0000 O   0  0  0  0  0  0  0  0  0  0  0  0
    8.1727   -9.1508    0.0000 O   0  0  0  0  0  0  0  0  0  0  0  0
    8.5871   -9.8642    0.0000 C   0  0  2  0  0  0  0  0  0  0  0  0
    8.1765  -10.5798    0.0000 C   0  0  1  0  0  0  0  0  0  0  0  0
    7.3515  -10.5820    0.0000 C   0  0  2  0  0  0  0  0  0  0  0  0
    6.9371   -9.8686    0.0000 C   0  0  2  0  0  0  0  0  0  0  0  0
    7.3477   -9.1530    0.0000 C   0  0  0  0  0  0  0  0  0  0  0  0
    6.1121   -9.8708    0.0000 O   0  0  0  0  0  0  0  0  0  0  0  0
    6.9409  -11.2975    0.0000 O   0  0  0  0  0  0  0  0  0  0  0  0
    8.5909  -11.2932    0.0000 O   0  0  0  0  0  0  0  0  0  0  0  0
   10.8541   -9.0601    0.0000 C   0  0  0  0  0  0  0  0  0  0  0  0
   10.1464   -8.6361    0.0000 O   0  0  0  0  0  0  0  0  0  0  0  0
   10.8525   -7.3939    0.0000 O   0  0  0  0  0  0  0  0  0  0  0  0
   10.1408   -7.8112    0.0000 C   0  0  2  0  0  0  0  0  0  0  0  0
    9.4236   -7.4035    0.0000 C   0  0  1  0  0  0  0  0  0  0  0  0
    9.4180   -6.5785    0.0000 C   0  0  2  0  0  0  0  0  0  0  0  0
   10.1297   -6.1612    0.0000 C   0  0  2  0  0  0  0  0  0  0  0  0
   10.8469   -6.5689    0.0000 C   0  0  0  0  0  0  0  0  0  0  0  0
   10.1241   -5.3362    0.0000 O   0  0  0  0  0  0  0  0  0  0  0  0
    8.7008   -6.1708    0.0000 O   0  0  0  0  0  0  0  0  0  0  0  0
    8.7119   -7.8208    0.0000 O   0  0  0  0  0  0  0  0  0  0  0  0
   15.8155  -10.3202    0.0000 C   0  0  1  0  0  0  0  0  0  0  0  0
   16.5300   -9.9077    0.0000 C   0  0  2  0  0  0  0  0  0  0  0  0
   17.3146  -10.1626    0.0000 C   0  0  0  0  0  0  0  0  0  0  0  0
   17.7995   -9.4952    0.0000 C   0  0  2  0  0  0  0  0  0  0  0  0
   18.5841   -9.2402    0.0000 O   0  0  0  0  0  0  0  0  0  0  0  0
   18.5841   -8.4152    0.0000 C   0  0  2  0  0  0  0  0  0  0  0  0
   17.7995   -8.1603    0.0000 C   0  0  2  0  0  0  0  0  0  0  0  0
   17.3146   -8.8277    0.0000 C   0  0  2  0  0  0  0  0  0  0  0  0
   16.5300   -9.0827    0.0000 C   0  0  1  0  0  0  0  0  0  0  0  0
   15.8155   -8.6702    0.0000 C   0  0  0  0  0  0  0  0  0  0  0  0
   15.1010   -9.0827    0.0000 C   0  0  0  0  0  0  0  0  0  0  0  0
   15.1010   -9.9077    0.0000 C   0  0  2  0  0  0  0  0  0  0  0  0
   14.3866  -10.3202    0.0000 C   0  0  1  0  0  0  0  0  0  0  0  0
   13.6721   -9.9077    0.0000 C   0  0  0  0  0  0  0  0  0  0  0  0
   12.9576  -10.3202    0.0000 C   0  0  0  0  0  0  0  0  0  0  0  0
   12.9576  -11.1452    0.0000 C   0  0  1  0  0  0  0  0  0  0  0  0
   13.6721  -11.5577    0.0000 C   0  0  0  0  0  0  0  0  0  0  0  0
   14.3866  -11.1452    0.0000 C   0  0  1  0  0  0  0  0  0  0  0  0
   15.1010  -11.5577    0.0000 C   0  0  0  0  0  0  0  0  0  0  0  0
   15.8155  -11.1452    0.0000 C   0  0  0  0  0  0  0  0  0  0  0  0
   18.4979   -7.5948    0.0000 O   0  0  0  0  0  0  0  0  0  0  0  0
   19.3378   -8.7508    0.0000 C   0  0  0  0  0  0  0  0  0  0  0  0
   20.0053   -8.2659    0.0000 C   0  0  0  0  0  0  0  0  0  0  0  0
   19.9190   -7.4454    0.0000 C   0  0  1  0  0  0  0  0  0  0  0  0
   19.1654   -7.1098    0.0000 C   0  0  0  0  0  0  0  0  0  0  0  0
   14.3866   -9.4952    0.0000 C   0  0  0  0  0  0  0  0  0  0  0  0
   16.3867   -8.2702    0.0000 C   0  0  0  0  0  0  0  0  0  0  0  0
   17.5446   -7.3757    0.0000 C   0  0  0  0  0  0  0  0  0  0  0  0
   20.5865   -6.9605    0.0000 C   0  0  0  0  0  0  0  0  0  0  0  0
   15.8155   -9.4952    0.0000 H   0  0  0  0  0  0  0  0  0  0  0  0
   16.5300  -10.7327    0.0000 H   0  0  0  0  0  0  0  0  0  0  0  0
   18.2844  -10.1626    0.0000 H   0  0  0  0  0  0  0  0  0  0  0  0
   16.9529   -8.0862    0.0000 H   0  0  0  0  0  0  0  0  0  0  0  0
   15.1010  -10.7327    0.0000 H   0  0  0  0  0  0  0  0  0  0  0  0
   14.3866  -11.9702    0.0000 H   0  0  0  0  0  0  0  0  0  0  0  0
 20 15  1  0  0  0  0
 16 15  1  0  0  0  0
 17 16  1  0  0  0  0
 18 17  1  0  0  0  0
 19 18  1  0  0  0  0
 20 19  1  0  0  0  0
 22 23  1  0  0  0  0
 23 24  1  0  0  0  0
 24 25  1  0  0  0  0
 25 26  1  0  0  0  0
 26 27  1  0  0  0  0
 22 27  1  0  0  0  0
 26 28  1  1  0  0  0
 25 29  1  1  0  0  0
 24 30  1  6  0  0  0
 23 21  1  1  0  0  0
 33 34  1  0  0  0  0
 34 35  1  0  0  0  0
 35 36  1  0  0  0  0
 36 37  1  0  0  0  0
 37 38  1  0  0  0  0
 33 38  1  0  0  0  0
 37 39  1  1  0  0  0
 36 40  1  1  0  0  0
 35 41  1  6  0  0  0
 34 32  1  1  0  0  0
 31 32  1  0  0  0  0
 42 43  1  0  0  0  0
 43 44  1  0  0  0  0
 44 45  1  0  0  0  0
 45 46  1  0  0  0  0
 47 46  1  6  0  0  0
 47 48  1  0  0  0  0
 48 49  1  0  0  0  0
 49 50  1  0  0  0  0
 50 51  1  0  0  0  0
 51 52  1  0  0  0  0
 52 53  1  0  0  0  0
 53 54  1  0  0  0  0
 54 55  1  0  0  0  0
 55 56  1  0  0  0  0
 56 57  1  0  0  0  0
 57 58  1  0  0  0  0
 58 59  1  0  0  0  0
 59 60  1  0  0  0  0
 60 61  1  0  0  0  0
 42 61  1  0  0  0  0
 42 53  1  0  0  0  0
 54 59  1  0  0  0  0
 43 50  1  0  0  0  0
 45 49  1  0  0  0  0
 63 64  1  0  0  0  0
 64 65  1  0  0  0  0
 65 66  1  0  0  0  0
 62 66  1  0  0  0  0
 47 62  1  0  0  0  0
 47 63  1  0  0  0  0
 54 67  1  1  0  0  0
 50 68  1  1  0  0  0
 48 69  1  6  0  0  0
 65 70  1  1  0  0  0
 57  4  1  1  0  0  0
 42 71  1  1  0  0  0
 43 72  1  6  0  0  0
 45 73  1  6  0  0  0
 49 74  1  6  0  0  0
 53 75  1  6  0  0  0
 59 76  1  1  0  0  0
 19  2  1  1  0  0  0
  2  1  1  0  0  0  0
 15 11  1  1  0  0  0
  8 11  1  6  0  0  0
  7  3  1  1  0  0  0
  9  4  1  1  0  0  0
  6 21  1  6  0  0  0
  5 31  1  1  0  0  0
 10  5  1  0  0  0  0
  6  5  1  0  0  0  0
  7  6  1  0  0  0  0
  8  7  1  0  0  0  0
  9  8  1  0  0  0  0
 10  9  1  0  0  0  0
 16 12  1  6  0  0  0
 17 13  1  1  0  0  0
 18 14  1  6  0  0  0
M  END
>  <cdx:groupId>
131155

>  <cdx:fragmentId>
130997

$$$$
