575014.cdx
  Mrv1902 05222410202D          

 21 22  0  0  0  0            999 V2000
    5.4475   -4.4792    0.0000 O   0  0  0  0  0  0  0  0  0  0  0  0
    6.8946   -6.1133    0.0000 C   0  0  0  0  0  0  0  0  0  0  0  0
    6.1756   -5.7087    0.0000 C   0  0  0  0  0  0  0  0  0  0  0  0
    6.1665   -4.8838    0.0000 C   0  0  0  0  0  0  0  0  0  0  0  0
    6.8764   -4.4634    0.0000 C   0  0  0  0  0  0  0  0  0  0  0  0
    7.5953   -4.8680    0.0000 C   0  0  0  0  0  0  0  0  0  0  0  0
    7.6045   -5.6930    0.0000 C   0  0  0  0  0  0  0  0  0  0  0  0
    6.1938   -7.3586    0.0000 C   0  0  0  0  0  0  0  0  0  0  0  0
    6.9037   -6.9383    0.0000 C   0  0  0  0  0  0  0  0  0  0  0  0
    7.6227   -7.3429    0.0000 C   0  0  0  0  0  0  0  0  0  0  0  0
    8.3326   -6.9225    0.0000 C   0  0  0  0  0  0  0  0  0  0  0  0
    8.3234   -6.0975    0.0000 C   0  0  0  0  0  0  0  0  0  0  0  0
    6.9493  -11.0630    0.0000 C   0  0  0  0  0  0  0  0  0  0  0  0
    7.6591  -10.6427    0.0000 O   0  0  0  0  0  0  0  0  0  0  0  0
    6.2212   -9.8335    0.0000 O   0  0  0  0  0  0  0  0  0  0  0  0
    6.9219   -8.5882    0.0000 C   0  0  0  0  0  0  0  0  0  0  0  0
    7.6318   -8.1678    0.0000 C   0  0  0  0  0  0  0  0  0  0  0  0
    8.3508   -8.5724    0.0000 C   0  0  0  0  0  0  0  0  0  0  0  0
    8.3599   -9.3973    0.0000 C   0  0  0  0  0  0  0  0  0  0  0  0
    7.6500   -9.8177    0.0000 C   0  0  0  0  0  0  0  0  0  0  0  0
    6.9310   -9.4131    0.0000 C   0  0  0  0  0  0  0  0  0  0  0  0
 17 10  1  0  0  0  0
 12  7  1  0  0  0  0
  4  1  1  0  0  0  0
  7  2  2  0  0  0  0
  3  2  1  0  0  0  0
  4  3  2  0  0  0  0
  5  4  1  0  0  0  0
  6  5  2  0  0  0  0
  7  6  1  0  0  0  0
  9  8  2  0  0  0  0
 10  9  1  0  0  0  0
 11 10  1  0  0  0  0
 12 11  2  0  0  0  0
 20 14  1  0  0  0  0
 14 13  1  0  0  0  0
 21 15  1  0  0  0  0
 21 16  2  0  0  0  0
 17 16  1  0  0  0  0
 18 17  2  0  0  0  0
 19 18  1  0  0  0  0
 20 19  2  0  0  0  0
 21 20  1  0  0  0  0
M  END
>  <cdx:fragmentId>
54419

$$$$
