575175.cdx
  Mrv1902 05222410202D          

112121  0  0  0  0            999 V2000
    6.4333  -11.7208    0.0000 C   0  0  0  0  0  0  0  0  0  0  0  0
    7.1477  -11.3083    0.0000 C   0  0  0  0  0  0  0  0  0  0  0  0
    7.1477  -10.4833    0.0000 C   0  0  0  0  0  0  0  0  0  0  0  0
    7.8622  -10.0708    0.0000 C   0  0  0  0  0  0  0  0  0  0  0  0
    8.5767  -10.4833    0.0000 C   0  0  0  0  0  0  0  0  0  0  0  0
    8.5767  -11.3083    0.0000 C   0  0  0  0  0  0  0  0  0  0  0  0
    7.8622  -11.7208    0.0000 C   0  0  0  0  0  0  0  0  0  0  0  0
    5.7188  -11.3083    0.0000 O   0  0  0  0  0  0  0  0  0  0  0  0
    6.4333  -12.5458    0.0000 O   0  0  0  0  0  0  0  0  0  0  0  0
    9.2911  -11.7208    0.0000 O   0  0  0  0  0  0  0  0  0  0  0  0
    9.2911  -10.0708    0.0000 O   0  0  0  0  0  0  0  0  0  0  0  0
    7.8622   -9.2458    0.0000 O   0  0  0  0  0  0  0  0  0  0  0  0
    6.4333  -10.0708    0.0000 O   0  0  0  0  0  0  0  0  0  0  0  0
    6.2197   -6.7989    0.0000 C   0  0  0  0  0  0  0  0  0  0  0  0
    6.4333   -7.5958    0.0000 C   0  0  0  0  0  0  0  0  0  0  0  0
    5.7188   -8.0083    0.0000 C   0  0  0  0  0  0  0  0  0  0  0  0
    5.7188   -8.8333    0.0000 C   0  0  0  0  0  0  0  0  0  0  0  0
    6.4333   -9.2458    0.0000 C   0  0  0  0  0  0  0  0  0  0  0  0
    7.1477   -8.8333    0.0000 C   0  0  0  0  0  0  0  0  0  0  0  0
    7.1477   -8.0083    0.0000 C   0  0  0  0  0  0  0  0  0  0  0  0
    7.9446   -7.7948    0.0000 C   0  0  0  0  0  0  0  0  0  0  0  0
    8.3571   -7.0803    0.0000 O   0  0  0  0  0  0  0  0  0  0  0  0
    9.1810   -7.1235    0.0000 C   0  0  0  0  0  0  0  0  0  0  0  0
    9.4766   -6.3533    0.0000 C   0  0  2  0  0  0  0  0  0  0  0  0
    8.8355   -5.8341    0.0000 C   0  0  1  0  0  0  0  0  0  0  0  0
    8.1436   -6.2834    0.0000 O   0  0  0  0  0  0  0  0  0  0  0  0
    7.4291   -5.8709    0.0000 C   0  0  0  0  0  0  0  0  0  0  0  0
    6.6322   -6.0844    0.0000 C   0  0  0  0  0  0  0  0  0  0  0  0
    6.2197   -5.3700    0.0000 C   0  0  0  0  0  0  0  0  0  0  0  0
    5.3947   -5.3700    0.0000 C   0  0  0  0  0  0  0  0  0  0  0  0
    4.9822   -6.0844    0.0000 C   0  0  0  0  0  0  0  0  0  0  0  0
    5.3947   -6.7989    0.0000 C   0  0  0  0  0  0  0  0  0  0  0  0
    8.8355   -5.0091    0.0000 C   0  0  1  0  0  0  0  0  0  0  0  0
    9.5500   -4.5966    0.0000 C   0  0  2  0  0  0  0  0  0  0  0  0
    9.5500   -3.7716    0.0000 C   0  0  0  0  0  0  0  0  0  0  0  0
   10.2644   -5.0091    0.0000 O   0  0  0  0  0  0  0  0  0  0  0  0
   10.9789   -4.5966    0.0000 C   0  0  0  0  0  0  0  0  0  0  0  0
   11.6934   -5.0091    0.0000 C   0  0  0  0  0  0  0  0  0  0  0  0
   12.4079   -4.5966    0.0000 C   0  0  0  0  0  0  0  0  0  0  0  0
   13.1223   -5.0091    0.0000 C   0  0  0  0  0  0  0  0  0  0  0  0
   13.1223   -5.8341    0.0000 C   0  0  0  0  0  0  0  0  0  0  0  0
   12.4079   -6.2466    0.0000 C   0  0  0  0  0  0  0  0  0  0  0  0
   11.6934   -5.8341    0.0000 C   0  0  0  0  0  0  0  0  0  0  0  0
   10.9789   -3.7716    0.0000 O   0  0  0  0  0  0  0  0  0  0  0  0
   12.4079   -7.0716    0.0000 O   0  0  0  0  0  0  0  0  0  0  0  0
   13.8368   -6.2466    0.0000 O   0  0  0  0  0  0  0  0  0  0  0  0
   13.8368   -4.5966    0.0000 O   0  0  0  0  0  0  0  0  0  0  0  0
    8.1210   -4.5966    0.0000 O   0  0  0  0  0  0  0  0  0  0  0  0
    8.1210   -3.7716    0.0000 C   0  0  0  0  0  0  0  0  0  0  0  0
    7.4066   -3.3591    0.0000 C   0  0  0  0  0  0  0  0  0  0  0  0
    6.6921   -3.7716    0.0000 C   0  0  0  0  0  0  0  0  0  0  0  0
    5.9776   -3.3591    0.0000 C   0  0  0  0  0  0  0  0  0  0  0  0
    5.9776   -2.5341    0.0000 C   0  0  0  0  0  0  0  0  0  0  0  0
    6.6921   -2.1216    0.0000 C   0  0  0  0  0  0  0  0  0  0  0  0
    7.4066   -2.5341    0.0000 C   0  0  0  0  0  0  0  0  0  0  0  0
    8.8355   -3.3591    0.0000 O   0  0  0  0  0  0  0  0  0  0  0  0
    6.6921   -1.2966    0.0000 O   0  0  0  0  0  0  0  0  0  0  0  0
    5.2631   -2.1216    0.0000 O   0  0  0  0  0  0  0  0  0  0  0  0
    5.2631   -3.7716    0.0000 O   0  0  0  0  0  0  0  0  0  0  0  0
   10.2644   -3.3591    0.0000 O   0  0  0  0  0  0  0  0  0  0  0  0
    7.5368   -5.0530    0.0000 O   0  0  0  0  0  0  0  0  0  0  0  0
    8.4469   -8.4493    0.0000 O   0  0  0  0  0  0  0  0  0  0  0  0
    4.7628   -7.3292    0.0000 O   0  0  0  0  0  0  0  0  0  0  0  0
    4.1572   -6.0844    0.0000 O   0  0  0  0  0  0  0  0  0  0  0  0
    4.9822   -4.6555    0.0000 O   0  0  0  0  0  0  0  0  0  0  0  0
   10.2735   -6.1397    0.0000 O   0  0  0  0  0  0  0  0  0  0  0  0
    5.0043   -9.2458    0.0000 O   0  0  0  0  0  0  0  0  0  0  0  0
    4.9063   -7.8650    0.0000 O   0  0  0  0  0  0  0  0  0  0  0  0
    7.1477  -14.0308    0.0000 C   0  0  1  0  0  0  0  0  0  0  0  0
    7.1477  -12.9583    0.0000 C   0  0  2  0  0  0  0  0  0  0  0  0
    7.8622  -12.5458    0.0000 C   0  0  0  0  0  0  0  0  0  0  0  0
    7.8622  -14.4433    0.0000 O   0  0  0  0  0  0  0  0  0  0  0  0
    7.8622  -15.2683    0.0000 C   0  0  0  0  0  0  0  0  0  0  0  0
    8.5767  -15.6808    0.0000 C   0  0  0  0  0  0  0  0  0  0  0  0
    9.2911  -15.2683    0.0000 C   0  0  0  0  0  0  0  0  0  0  0  0
   10.0056  -15.6808    0.0000 C   0  0  0  0  0  0  0  0  0  0  0  0
   10.0056  -16.5058    0.0000 C   0  0  0  0  0  0  0  0  0  0  0  0
    9.2911  -16.9183    0.0000 C   0  0  0  0  0  0  0  0  0  0  0  0
    8.5767  -16.5058    0.0000 C   0  0  0  0  0  0  0  0  0  0  0  0
    7.1477  -15.6808    0.0000 O   0  0  0  0  0  0  0  0  0  0  0  0
    9.2911  -17.7433    0.0000 O   0  0  0  0  0  0  0  0  0  0  0  0
   10.7201  -16.9183    0.0000 O   0  0  0  0  0  0  0  0  0  0  0  0
   10.7201  -15.2683    0.0000 O   0  0  0  0  0  0  0  0  0  0  0  0
    8.5767  -12.9583    0.0000 O   0  0  0  0  0  0  0  0  0  0  0  0
    3.4921  -13.3675    0.0000 C   0  0  0  0  0  0  0  0  0  0  0  0
    4.0755  -12.7841    0.0000 C   0  0  0  0  0  0  0  0  0  0  0  0
    3.6630  -12.0697    0.0000 C   0  0  0  0  0  0  0  0  0  0  0  0
    4.0755  -11.3552    0.0000 C   0  0  0  0  0  0  0  0  0  0  0  0
    4.9005  -11.3552    0.0000 C   0  0  0  0  0  0  0  0  0  0  0  0
    5.3130  -12.0697    0.0000 C   0  0  0  0  0  0  0  0  0  0  0  0
    4.9005  -12.7841    0.0000 C   0  0  0  0  0  0  0  0  0  0  0  0
    5.4838  -13.3675    0.0000 C   0  0  0  0  0  0  0  0  0  0  0  0
    5.4838  -14.1925    0.0000 O   0  0  0  0  0  0  0  0  0  0  0  0
    6.2189  -14.5670    0.0000 C   0  0  2  0  0  0  0  0  0  0  0  0
    6.0899  -15.3819    0.0000 C   0  0  1  0  0  0  0  0  0  0  0  0
    5.2750  -15.5109    0.0000 C   0  0  0  0  0  0  0  0  0  0  0  0
    4.9005  -14.7759    0.0000 O   0  0  0  0  0  0  0  0  0  0  0  0
    4.0755  -14.7759    0.0000 C   0  0  0  0  0  0  0  0  0  0  0  0
    3.4921  -14.1925    0.0000 C   0  0  0  0  0  0  0  0  0  0  0  0
    2.7776  -14.6050    0.0000 C   0  0  0  0  0  0  0  0  0  0  0  0
    2.0632  -14.1925    0.0000 C   0  0  0  0  0  0  0  0  0  0  0  0
    2.0632  -13.3675    0.0000 C   0  0  0  0  0  0  0  0  0  0  0  0
    2.7776  -12.9550    0.0000 C   0  0  0  0  0  0  0  0  0  0  0  0
    3.7598  -15.5381    0.0000 O   0  0  0  0  0  0  0  0  0  0  0  0
    6.2460  -13.0518    0.0000 O   0  0  0  0  0  0  0  0  0  0  0  0
    2.4955  -12.1797    0.0000 O   0  0  0  0  0  0  0  0  0  0  0  0
    1.3487  -12.9550    0.0000 O   0  0  0  0  0  0  0  0  0  0  0  0
    1.3487  -14.6050    0.0000 O   0  0  0  0  0  0  0  0  0  0  0  0
    6.6732  -15.9652    0.0000 O   0  0  0  0  0  0  0  0  0  0  0  0
    5.3130  -10.6407    0.0000 O   0  0  0  0  0  0  0  0  0  0  0  0
    3.6630  -10.6407    0.0000 O   0  0  0  0  0  0  0  0  0  0  0  0
    2.8877  -11.7875    0.0000 O   0  0  0  0  0  0  0  0  0  0  0  0
  1  2  1  0  0  0  0
  2  3  1  0  0  0  0
  3  4  2  0  0  0  0
  4  5  1  0  0  0  0
  5  6  2  0  0  0  0
  6  7  1  0  0  0  0
  2  7  2  0  0  0  0
  1  8  2  0  0  0  0
  1  9  1  0  0  0  0
  6 10  1  0  0  0  0
  5 11  1  0  0  0  0
  4 12  1  0  0  0  0
 14 15  1  0  0  0  0
 15 16  2  0  0  0  0
 16 17  1  0  0  0  0
 17 18  2  0  0  0  0
 18 19  1  0  0  0  0
 19 20  2  0  0  0  0
 20 21  1  0  0  0  0
 21 22  1  0  0  0  0
 22 23  1  0  0  0  0
 23 24  1  0  0  0  0
 24 25  1  0  0  0  0
 25 26  1  1  0  0  0
 26 27  1  0  0  0  0
 27 28  1  0  0  0  0
 28 29  2  0  0  0  0
 29 30  1  0  0  0  0
 30 31  2  0  0  0  0
 31 32  1  0  0  0  0
 14 32  2  0  0  0  0
 14 28  1  0  0  0  0
 15 20  1  0  0  0  0
 33 34  1  0  0  0  0
 34 35  1  0  0  0  0
 37 38  1  0  0  0  0
 38 39  1  0  0  0  0
 39 40  2  0  0  0  0
 40 41  1  0  0  0  0
 41 42  2  0  0  0  0
 42 43  1  0  0  0  0
 38 43  2  0  0  0  0
 37 44  2  0  0  0  0
 42 45  1  0  0  0  0
 41 46  1  0  0  0  0
 40 47  1  0  0  0  0
 36 37  1  0  0  0  0
 34 36  1  6  0  0  0
 49 50  1  0  0  0  0
 50 51  1  0  0  0  0
 51 52  2  0  0  0  0
 52 53  1  0  0  0  0
 53 54  2  0  0  0  0
 54 55  1  0  0  0  0
 50 55  2  0  0  0  0
 49 56  2  0  0  0  0
 54 57  1  0  0  0  0
 53 58  1  0  0  0  0
 52 59  1  0  0  0  0
 48 49  1  0  0  0  0
 33 48  1  6  0  0  0
 35 60  2  0  0  0  0
 25 33  1  0  0  0  0
 27 61  2  0  0  0  0
 21 62  2  0  0  0  0
 32 63  1  0  0  0  0
 31 64  1  0  0  0  0
 30 65  1  0  0  0  0
 24 66  1  6  0  0  0
 17 67  1  0  0  0  0
 16 68  1  0  0  0  0
 13 18  1  0  0  0  0
  3 13  1  0  0  0  0
 69 70  1  0  0  0  0
 70 71  1  0  0  0  0
 73 74  1  0  0  0  0
 74 75  1  0  0  0  0
 75 76  2  0  0  0  0
 76 77  1  0  0  0  0
 77 78  2  0  0  0  0
 78 79  1  0  0  0  0
 74 79  2  0  0  0  0
 73 80  2  0  0  0  0
 78 81  1  0  0  0  0
 77 82  1  0  0  0  0
 76 83  1  0  0  0  0
 72 73  1  0  0  0  0
 69 72  1  1  0  0  0
 71 84  2  0  0  0  0
 85 86  1  0  0  0  0
 86 87  2  0  0  0  0
 87 88  1  0  0  0  0
 88 89  2  0  0  0  0
 89 90  1  0  0  0  0
 90 91  2  0  0  0  0
 91 92  1  0  0  0  0
 92 93  1  0  0  0  0
 94 93  1  1  0  0  0
 94 95  1  0  0  0  0
 95 96  1  0  0  0  0
 96 97  1  0  0  0  0
 97 98  1  0  0  0  0
 98 99  1  0  0  0  0
 99100  2  0  0  0  0
100101  1  0  0  0  0
101102  2  0  0  0  0
102103  1  0  0  0  0
 85103  2  0  0  0  0
 85 99  1  0  0  0  0
 86 91  1  0  0  0  0
 98104  2  0  0  0  0
 92105  2  0  0  0  0
103106  1  0  0  0  0
102107  1  0  0  0  0
101108  1  0  0  0  0
 95109  1  6  0  0  0
 89110  1  0  0  0  0
 88111  1  0  0  0  0
 87112  1  0  0  0  0
 69 94  1  0  0  0  0
 70  9  1  1  0  0  0
M  END
>  <cdx:fragmentId>
241

$$$$
