575246.cdx
  Mrv1902 05222410242D          

 21 22  0  0  0  0            999 V2000
    9.7623   -7.5180    0.0000 O   0  0  0  0  0  0  0  0  0  0  0  0
   10.2472   -6.8506    0.0000 C   0  0  0  0  0  0  0  0  0  0  0  0
    9.7623   -6.1831    0.0000 C   0  0  0  0  0  0  0  0  0  0  0  0
    8.9777   -6.4381    0.0000 C   0  0  1  0  0  0  0  0  0  0  0  0
    8.2632   -6.0256    0.0000 C   0  0  1  0  0  0  0  0  0  0  0  0
    7.5487   -6.4381    0.0000 C   0  0  0  0  0  0  0  0  0  0  0  0
    7.5487   -7.2631    0.0000 C   0  0  0  0  0  0  0  0  0  0  0  0
    8.2632   -7.6756    0.0000 C   0  0  0  0  0  0  0  0  0  0  0  0
    8.9777   -7.2631    0.0000 C   0  0  1  0  0  0  0  0  0  0  0  0
   11.0722   -6.8506    0.0000 O   0  0  0  0  0  0  0  0  0  0  0  0
   10.0172   -5.3985    0.0000 C   0  0  0  0  0  0  0  0  0  0  0  0
    6.8343   -7.6756    0.0000 C   0  0  0  0  0  0  0  0  0  0  0  0
    6.8343   -5.2006    0.0000 C   0  0  0  0  0  0  0  0  0  0  0  0
    6.8343   -6.0256    0.0000 C   0  0  1  0  0  0  0  0  0  0  0  0
    6.1198   -6.4381    0.0000 C   0  0  0  0  0  0  0  0  0  0  0  0
    5.4053   -6.0256    0.0000 C   0  0  0  0  0  0  0  0  0  0  0  0
    4.6908   -6.4381    0.0000 C   0  0  0  0  0  0  0  0  0  0  0  0
    3.9764   -6.0256    0.0000 O   0  0  0  0  0  0  0  0  0  0  0  0
    8.2632   -5.2006    0.0000 O   0  0  0  0  0  0  0  0  0  0  0  0
    9.0639   -5.6176    0.0000 H   0  0  0  0  0  0  0  0  0  0  0  0
    9.0639   -8.0835    0.0000 H   0  0  0  0  0  0  0  0  0  0  0  0
  1  2  1  0  0  0  0
  2  3  1  0  0  0  0
  3  4  1  0  0  0  0
  4  5  1  0  0  0  0
  5  6  1  0  0  0  0
  6  7  2  0  0  0  0
  7  8  1  0  0  0  0
  8  9  1  0  0  0  0
  4  9  1  0  0  0  0
  1  9  1  0  0  0  0
  2 10  2  0  0  0  0
  3 11  2  0  0  0  0
  7 12  1  0  0  0  0
 14 13  1  6  0  0  0
 14 15  1  0  0  0  0
 15 16  1  0  0  0  0
 16 17  1  0  0  0  0
 17 18  1  0  0  0  0
  6 14  1  0  0  0  0
  5 19  1  1  0  0  0
  4 20  1  1  0  0  0
  9 21  1  1  0  0  0
M  END
>  <cdx:groupId>
66

>  <cdx:fragmentId>
5

$$$$
