44575265.cdx
  Mrv1902 05222410212D          

 28 32  0  0  0  0            999 V2000
    7.7860   -7.1781    0.0000 O   0  0  0  0  0  0  0  0  0  0  0  0
    7.6712   -7.9951    0.0000 C   0  0  0  0  0  0  0  0  0  0  0  0
    6.8587   -8.1383    0.0000 C   0  0  0  0  0  0  0  0  0  0  0  0
    6.4714   -7.4099    0.0000 C   0  0  0  0  0  0  0  0  0  0  0  0
    7.0445   -6.8164    0.0000 C   0  0  1  0  0  0  0  0  0  0  0  0
    5.6469   -7.3811    0.0000 C   0  0  0  0  0  0  0  0  0  0  0  0
    5.2097   -8.0807    0.0000 C   0  0  0  0  0  0  0  0  0  0  0  0
    5.5970   -8.8092    0.0000 C   0  0  0  0  0  0  0  0  0  0  0  0
    6.4215   -8.8380    0.0000 C   0  0  0  0  0  0  0  0  0  0  0  0
    7.7590   -6.4039    0.0000 C   0  0  0  0  0  0  0  0  0  0  0  0
    8.5436   -6.6589    0.0000 C   0  0  0  0  0  0  0  0  0  0  0  0
    9.0285   -5.9914    0.0000 O   0  0  0  0  0  0  0  0  0  0  0  0
    8.5436   -5.3240    0.0000 C   0  0  0  0  0  0  0  0  0  0  0  0
    7.7590   -5.5789    0.0000 C   0  0  0  0  0  0  0  0  0  0  0  0
    7.0445   -5.1664    0.0000 C   0  0  0  0  0  0  0  0  0  0  0  0
    6.3300   -5.5789    0.0000 C   0  0  0  0  0  0  0  0  0  0  0  0
    6.3300   -6.4039    0.0000 C   0  0  1  0  0  0  0  0  0  0  0  0
    7.1413   -6.4414    0.0000 C   0  0  0  0  0  0  0  0  0  0  0  0
    6.6055   -6.1320    0.0000 C   0  0  0  0  0  0  0  0  0  0  0  0
    8.2646   -8.5682    0.0000 O   0  0  0  0  0  0  0  0  0  0  0  0
    8.7985   -4.5394    0.0000 O   0  0  0  0  0  0  0  0  0  0  0  0
    5.6156   -6.8164    0.0000 C   0  0  0  0  0  0  0  0  0  0  0  0
    4.9011   -6.4039    0.0000 C   0  0  0  0  0  0  0  0  0  0  0  0
    4.1866   -6.8164    0.0000 C   0  0  0  0  0  0  0  0  0  0  0  0
    8.7985   -7.4435    0.0000 C   0  0  0  0  0  0  0  0  0  0  0  0
    9.6055   -7.6150    0.0000 C   0  0  0  0  0  0  0  0  0  0  0  0
    9.8604   -8.3996    0.0000 C   0  0  0  0  0  0  0  0  0  0  0  0
   10.6674   -8.5712    0.0000 C   0  0  0  0  0  0  0  0  0  0  0  0
  1  2  1  0  0  0  0
  2  3  1  0  0  0  0
  3  4  1  0  0  0  0
  5  4  1  1  0  0  0
  5  1  1  6  0  0  0
  6  7  1  0  0  0  0
  7  8  2  0  0  0  0
  8  9  1  0  0  0  0
  9  3  2  0  0  0  0
  6  4  2  0  0  0  0
 10 11  1  0  0  0  0
 11 12  1  0  0  0  0
 12 13  1  0  0  0  0
 13 14  1  0  0  0  0
 14 15  2  0  0  0  0
 15 16  1  0  0  0  0
 16 17  1  0  0  0  0
 18 19  1  0  0  0  0
 10 18  1  0  0  0  0
 19 16  1  0  0  0  0
 10 14  1  0  0  0  0
 10  5  1  0  0  0  0
 17  5  1  0  0  0  0
  2 20  2  0  0  0  0
 13 21  2  0  0  0  0
 22 23  1  0  0  0  0
 23 24  1  0  0  0  0
 17 22  1  6  0  0  0
 25 26  1  0  0  0  0
 26 27  1  0  0  0  0
 27 28  1  0  0  0  0
 11 25  2  0  0  0  0
M  END
>  <cdx:groupId>
90

>  <cdx:fragmentId>
23

$$$$
