44575271.cdx
  Mrv1902 05222410212D          

 36 39  0  0  0  0            999 V2000
    5.5570  -11.0869    0.0000 O   0  0  0  0  0  0  0  0  0  0  0  0
    4.7320  -11.0869    0.0000 C   0  0  0  0  0  0  0  0  0  0  0  0
    4.4770  -10.3023    0.0000 C   0  0  0  0  0  0  0  0  0  0  0  0
    5.1445   -9.8174    0.0000 C   0  0  0  0  0  0  0  0  0  0  0  0
    5.8119  -10.3023    0.0000 C   0  0  0  0  0  0  0  0  0  0  0  0
    6.5965  -10.0474    0.0000 O   0  0  0  0  0  0  0  0  0  0  0  0
    5.1445   -8.9924    0.0000 C   0  0  0  0  0  0  0  0  0  0  0  0
    5.8589   -8.5799    0.0000 C   0  0  0  0  0  0  0  0  0  0  0  0
    5.8589   -7.7549    0.0000 C   0  0  2  0  0  0  0  0  0  0  0  0
    5.1445   -7.3424    0.0000 C   0  0  0  0  0  0  0  0  0  0  0  0
    5.1445   -6.5174    0.0000 C   0  0  0  0  0  0  0  0  0  0  0  0
    5.8589   -6.1049    0.0000 C   0  0  0  0  0  0  0  0  0  0  0  0
    6.5734   -6.5174    0.0000 C   0  0  2  0  0  0  0  0  0  0  0  0
    7.2879   -6.1049    0.0000 C   0  0  1  0  0  0  0  0  0  0  0  0
    8.0024   -6.5174    0.0000 C   0  0  1  0  0  0  0  0  0  0  0  0
    8.0024   -7.3424    0.0000 C   0  0  0  0  0  0  0  0  0  0  0  0
    7.2879   -7.7549    0.0000 C   0  0  0  0  0  0  0  0  0  0  0  0
    6.5734   -7.3424    0.0000 C   0  0  1  0  0  0  0  0  0  0  0  0
    7.2879   -5.2799    0.0000 C   0  0  0  0  0  0  0  0  0  0  0  0
    8.0024   -4.8674    0.0000 O   0  0  0  0  0  0  0  0  0  0  0  0
    8.7168   -3.6299    0.0000 O   0  0  0  0  0  0  0  0  0  0  0  0
    8.0024   -4.0424    0.0000 C   0  0  2  0  0  0  0  0  0  0  0  0
    7.2879   -3.6299    0.0000 C   0  0  1  0  0  0  0  0  0  0  0  0
    7.2879   -2.8049    0.0000 C   0  0  2  0  0  0  0  0  0  0  0  0
    8.0024   -2.3924    0.0000 C   0  0  1  0  0  0  0  0  0  0  0  0
    8.7168   -2.8049    0.0000 C   0  0  1  0  0  0  0  0  0  0  0  0
    9.4313   -2.3924    0.0000 C   0  0  0  0  0  0  0  0  0  0  0  0
   10.1458   -2.8049    0.0000 O   0  0  0  0  0  0  0  0  0  0  0  0
    8.0024   -1.5674    0.0000 O   0  0  0  0  0  0  0  0  0  0  0  0
    6.5734   -2.3924    0.0000 O   0  0  0  0  0  0  0  0  0  0  0  0
    6.5734   -4.0424    0.0000 O   0  0  0  0  0  0  0  0  0  0  0  0
    4.4300   -7.7549    0.0000 C   0  0  0  0  0  0  0  0  0  0  0  0
    6.5734   -8.1674    0.0000 C   0  0  0  0  0  0  0  0  0  0  0  0
    8.0024   -5.6924    0.0000 C   0  0  0  0  0  0  0  0  0  0  0  0
    8.7168   -6.1049    0.0000 O   0  0  0  0  0  0  0  0  0  0  0  0
    6.5734   -5.6924    0.0000 H   0  0  0  0  0  0  0  0  0  0  0  0
  1  2  1  0  0  0  0
  2  3  1  0  0  0  0
  3  4  2  0  0  0  0
  4  5  1  0  0  0  0
  1  5  1  0  0  0  0
  5  6  2  0  0  0  0
  7  8  2  0  0  0  0
  9 10  1  0  0  0  0
 10 11  1  0  0  0  0
 11 12  1  0  0  0  0
 12 13  1  0  0  0  0
 13 14  1  0  0  0  0
 14 15  1  0  0  0  0
 15 16  1  0  0  0  0
 16 17  1  0  0  0  0
 17 18  1  0  0  0  0
  9 18  1  0  0  0  0
 13 18  1  0  0  0  0
 21 22  1  0  0  0  0
 22 23  1  0  0  0  0
 23 24  1  0  0  0  0
 24 25  1  0  0  0  0
 25 26  1  0  0  0  0
 21 26  1  0  0  0  0
 27 28  1  0  0  0  0
 26 27  1  1  0  0  0
 25 29  1  6  0  0  0
 24 30  1  1  0  0  0
 23 31  1  6  0  0  0
 22 20  1  1  0  0  0
 19 20  1  0  0  0  0
 14 19  1  0  0  0  0
 10 32  2  0  0  0  0
 18 33  1  6  0  0  0
 14 34  1  1  0  0  0
 15 35  1  6  0  0  0
  9  8  1  6  0  0  0
  4  7  1  0  0  0  0
 13 36  1  1  0  0  0
M  END
>  <cdx:groupId>
113

>  <cdx:fragmentId>
45

$$$$
