5754.cdx
  Mrv1902 05222410192D          

 29 32  0  0  0  0            999 V2000
    3.7228   -3.9290    0.0000 C   0  0  0  0  0  0  0  0  0  0  0  0
    3.0083   -4.3415    0.0000 C   0  0  0  0  0  0  0  0  0  0  0  0
    3.0083   -5.1665    0.0000 C   0  0  0  0  0  0  0  0  0  0  0  0
    3.7228   -5.5790    0.0000 C   0  0  0  0  0  0  0  0  0  0  0  0
    4.4372   -5.1665    0.0000 C   0  0  0  0  0  0  0  0  0  0  0  0
    5.1517   -5.5790    0.0000 C   0  0  0  0  0  0  0  0  0  0  0  0
    5.8662   -5.1665    0.0000 C   0  0  0  0  0  0  0  0  0  0  0  0
    5.8662   -4.3415    0.0000 C   0  0  1  0  0  0  0  0  0  0  0  0
    6.5806   -3.9290    0.0000 C   0  0  2  0  0  0  0  0  0  0  0  0
    7.3653   -4.1840    0.0000 C   0  0  0  0  0  0  0  0  0  0  0  0
    7.8502   -3.5165    0.0000 C   0  0  0  0  0  0  0  0  0  0  0  0
    7.3653   -2.8491    0.0000 C   0  0  1  0  0  0  0  0  0  0  0  0
    6.5806   -3.1040    0.0000 C   0  0  1  0  0  0  0  0  0  0  0  0
    5.8662   -2.6915    0.0000 C   0  0  0  0  0  0  0  0  0  0  0  0
    5.1517   -3.1040    0.0000 C   0  0  1  0  0  0  0  0  0  0  0  0
    5.1517   -3.9290    0.0000 C   0  0  2  0  0  0  0  0  0  0  0  0
    4.4372   -4.3415    0.0000 C   0  0  1  0  0  0  0  0  0  0  0  0
    2.2938   -5.5790    0.0000 O   0  0  0  0  0  0  0  0  0  0  0  0
    6.6669   -2.2835    0.0000 C   0  0  0  0  0  0  0  0  0  0  0  0
    4.4372   -3.5165    0.0000 C   0  0  0  0  0  0  0  0  0  0  0  0
    7.9784   -2.2971    0.0000 C   0  0  0  0  0  0  0  0  0  0  0  0
    7.8068   -1.4901    0.0000 O   0  0  0  0  0  0  0  0  0  0  0  0
    8.7630   -2.5520    0.0000 C   0  0  0  0  0  0  0  0  0  0  0  0
    9.3463   -1.9686    0.0000 O   0  0  0  0  0  0  0  0  0  0  0  0
    7.1937   -2.0421    0.0000 O   0  0  0  0  0  0  0  0  0  0  0  0
    4.4372   -2.6915    0.0000 O   0  0  0  0  0  0  0  0  0  0  0  0
    5.8662   -3.5165    0.0000 H   0  0  0  0  0  0  0  0  0  0  0  0
    5.1517   -4.7540    0.0000 H   0  0  0  0  0  0  0  0  0  0  0  0
    6.5806   -4.7540    0.0000 H   0  0  0  0  0  0  0  0  0  0  0  0
  1  2  1  0  0  0  0
  2  3  1  0  0  0  0
  3  4  1  0  0  0  0
  4  5  2  0  0  0  0
  5  6  1  0  0  0  0
  6  7  1  0  0  0  0
  7  8  1  0  0  0  0
  8  9  1  0  0  0  0
  9 10  1  0  0  0  0
 10 11  1  0  0  0  0
 11 12  1  0  0  0  0
 12 13  1  0  0  0  0
  9 13  1  0  0  0  0
 13 14  1  0  0  0  0
 14 15  1  0  0  0  0
 15 16  1  0  0  0  0
  8 16  1  0  0  0  0
 16 17  1  0  0  0  0
  5 17  1  0  0  0  0
  1 17  1  0  0  0  0
  3 18  2  0  0  0  0
 13 19  1  1  0  0  0
 17 20  1  1  0  0  0
 21 22  2  0  0  0  0
 21 23  1  0  0  0  0
 23 24  1  0  0  0  0
 12 21  1  1  0  0  0
 12 25  1  6  0  0  0
 15 26  1  1  0  0  0
  8 27  1  1  0  0  0
 16 28  1  6  0  0  0
  9 29  1  6  0  0  0
M  END
>  <cdx:groupId>
92

>  <cdx:fragmentId>
5

$$$$
