575476.cdx
  Mrv1902 05222410202D          

 48 53  0  0  0  0            999 V2000
    6.5916   -7.2241    0.0000 C   0  0  0  0  0  0  0  0  0  0  0  0
    5.8771   -7.6366    0.0000 C   0  0  0  0  0  0  0  0  0  0  0  0
    5.8771   -8.4616    0.0000 C   0  0  1  0  0  0  0  0  0  0  0  0
    6.5916   -8.8741    0.0000 C   0  0  0  0  0  0  0  0  0  0  0  0
    7.3061   -8.4616    0.0000 C   0  0  2  0  0  0  0  0  0  0  0  0
    8.0206   -8.8741    0.0000 C   0  0  0  0  0  0  0  0  0  0  0  0
    8.7350   -8.4616    0.0000 C   0  0  0  0  0  0  0  0  0  0  0  0
    8.7350   -7.6366    0.0000 C   0  0  1  0  0  0  0  0  0  0  0  0
    9.4495   -7.2241    0.0000 C   0  0  2  0  0  0  0  0  0  0  0  0
   10.2341   -7.4790    0.0000 C   0  0  0  0  0  0  0  0  0  0  0  0
   10.7190   -6.8116    0.0000 C   0  0  0  0  0  0  0  0  0  0  0  0
   10.2341   -6.1441    0.0000 C   0  0  1  0  0  0  0  0  0  0  0  0
    9.4495   -6.3991    0.0000 C   0  0  1  0  0  0  0  0  0  0  0  0
    8.7350   -5.9866    0.0000 C   0  0  0  0  0  0  0  0  0  0  0  0
    8.0206   -6.3991    0.0000 C   0  0  0  0  0  0  0  0  0  0  0  0
    8.0206   -7.2241    0.0000 C   0  0  2  0  0  0  0  0  0  0  0  0
    7.3061   -7.6366    0.0000 C   0  0  1  0  0  0  0  0  0  0  0  0
    8.0206   -9.6991    0.0000 O   0  0  0  0  0  0  0  0  0  0  0  0
    9.4495   -5.5741    0.0000 C   0  0  0  0  0  0  0  0  0  0  0  0
    7.3061   -6.8116    0.0000 C   0  0  0  0  0  0  0  0  0  0  0  0
    5.1627   -8.8741    0.0000 O   0  0  0  0  0  0  0  0  0  0  0  0
    7.3061   -9.2866    0.0000 H   0  0  0  0  0  0  0  0  0  0  0  0
    8.7350   -6.8116    0.0000 H   0  0  0  0  0  0  0  0  0  0  0  0
    8.0206   -8.0491    0.0000 H   0  0  0  0  0  0  0  0  0  0  0  0
    9.4495   -8.0491    0.0000 H   0  0  0  0  0  0  0  0  0  0  0  0
   10.9989   -3.7903    0.0000 C   0  0  0  0  0  0  0  0  0  0  0  0
   13.7169   -4.6734    0.0000 C   0  0  0  0  0  0  0  0  0  0  0  0
   12.3579   -4.2318    0.0000 C   0  0  0  0  0  0  0  0  0  0  0  0
   12.9100   -4.8449    0.0000 C   0  0  2  0  0  0  0  0  0  0  0  0
   12.6550   -5.6295    0.0000 C   0  0  0  0  0  0  0  0  0  0  0  0
   11.8481   -5.8011    0.0000 C   0  0  0  0  0  0  0  0  0  0  0  0
   11.2960   -5.1880    0.0000 C   0  0  1  0  0  0  0  0  0  0  0  0
   11.5510   -4.4034    0.0000 N   0  0  0  0  0  0  0  0  0  0  0  0
    9.9370   -4.7464    0.0000 C   0  0  0  0  0  0  0  0  0  0  0  0
   10.4891   -5.3595    0.0000 C   0  0  1  0  0  0  0  0  0  0  0  0
   12.0929   -4.9745    0.0000 H   0  0  0  0  0  0  0  0  0  0  0  0
   11.0310   -5.9306    0.0000 H   0  0  0  0  0  0  0  0  0  0  0  0
    4.4482   -8.4616    0.0000 C   0  0  2  0  0  0  0  0  0  0  0  0
    4.4482   -7.6366    0.0000 O   0  0  0  0  0  0  0  0  0  0  0  0
    3.7337   -7.2241    0.0000 C   0  0  1  0  0  0  0  0  0  0  0  0
    3.0193   -7.6366    0.0000 C   0  0  2  0  0  0  0  0  0  0  0  0
    3.0193   -8.4616    0.0000 C   0  0  1  0  0  0  0  0  0  0  0  0
    3.7337   -8.8741    0.0000 C   0  0  1  0  0  0  0  0  0  0  0  0
    3.7337   -6.3991    0.0000 C   0  0  0  0  0  0  0  0  0  0  0  0
    2.3048   -8.8741    0.0000 O   0  0  0  0  0  0  0  0  0  0  0  0
    3.7337   -9.6991    0.0000 O   0  0  0  0  0  0  0  0  0  0  0  0
    2.3048   -7.2241    0.0000 O   0  0  0  0  0  0  0  0  0  0  0  0
    3.0193   -5.9866    0.0000 O   0  0  0  0  0  0  0  0  0  0  0  0
 35 32  1  0  0  0  0
 33 26  1  0  0  0  0
 29 27  1  1  0  0  0
 33 28  1  0  0  0  0
 29 28  1  0  0  0  0
 30 29  1  0  0  0  0
 31 30  1  0  0  0  0
 32 31  1  0  0  0  0
 33 32  1  0  0  0  0
 35 34  1  6  0  0  0
  1  2  1  0  0  0  0
  2  3  1  0  0  0  0
  3  4  1  0  0  0  0
  4  5  1  0  0  0  0
  5  6  1  0  0  0  0
  6  7  1  0  0  0  0
  7  8  1  0  0  0  0
  8  9  1  0  0  0  0
  9 10  1  0  0  0  0
 10 11  1  0  0  0  0
 12 11  1  0  0  0  0
 12 13  1  0  0  0  0
  9 13  1  0  0  0  0
 13 14  1  0  0  0  0
 14 15  1  0  0  0  0
 15 16  1  0  0  0  0
  8 16  1  0  0  0  0
 16 17  1  0  0  0  0
  5 17  1  0  0  0  0
  1 17  1  0  0  0  0
  6 18  2  0  0  0  0
 13 19  1  1  0  0  0
 17 20  1  1  0  0  0
  3 21  1  1  0  0  0
 12 35  1  0  0  0  0
  5 22  1  6  0  0  0
  8 23  1  1  0  0  0
 16 24  1  6  0  0  0
  9 25  1  6  0  0  0
 32 36  1  1  0  0  0
 12 37  1  6  0  0  0
 38 21  1  1  0  0  0
 38 39  1  0  0  0  0
 39 40  1  0  0  0  0
 40 41  1  0  0  0  0
 41 42  1  0  0  0  0
 42 43  1  0  0  0  0
 43 38  1  0  0  0  0
 40 44  1  1  0  0  0
 42 45  1  1  0  0  0
 43 46  1  6  0  0  0
 41 47  1  6  0  0  0
 44 48  1  0  0  0  0
M  END
>  <cdx:groupId>
219

>  <cdx:fragmentId>
220

$$$$
