575555.cdx
  Mrv1902 05222410262D          

 13 14  0  0  0  0            999 V2000
    8.2093   -8.4296    0.0000 O   0  0  0  0  0  0  0  0  0  0  0  0
    8.6942   -7.7622    0.0000 C   0  0  0  0  0  0  0  0  0  0  0  0
    8.2093   -7.0947    0.0000 C   0  0  0  0  0  0  0  0  0  0  0  0
    7.4247   -7.3497    0.0000 C   0  0  0  0  0  0  0  0  0  0  0  0
    6.7102   -6.9372    0.0000 C   0  0  0  0  0  0  0  0  0  0  0  0
    5.9957   -7.3497    0.0000 C   0  0  0  0  0  0  0  0  0  0  0  0
    5.9957   -8.1747    0.0000 C   0  0  2  0  0  0  0  0  0  0  0  0
    6.7102   -8.5872    0.0000 C   0  0  0  0  0  0  0  0  0  0  0  0
    7.4247   -8.1747    0.0000 C   0  0  1  0  0  0  0  0  0  0  0  0
    9.5192   -7.7622    0.0000 O   0  0  0  0  0  0  0  0  0  0  0  0
    5.2813   -8.5872    0.0000 C   0  0  0  0  0  0  0  0  0  0  0  0
    8.4642   -6.3101    0.0000 C   0  0  0  0  0  0  0  0  0  0  0  0
    7.5109   -8.9951    0.0000 O   0  0  0  0  0  0  0  0  0  0  0  0
  1  2  1  0  0  0  0
  2  3  1  0  0  0  0
  3  4  2  0  0  0  0
  4  5  1  0  0  0  0
  5  6  1  0  0  0  0
  6  7  1  0  0  0  0
  7  8  1  0  0  0  0
  8  9  1  0  0  0  0
  4  9  1  0  0  0  0
  1  9  1  0  0  0  0
  2 10  2  0  0  0  0
  7 11  1  6  0  0  0
  3 12  1  0  0  0  0
  9 13  1  1  0  0  0
M  END
>  <cdx:fragmentId>
210789

$$$$
