44575681.cdx
  Mrv1902 05222410242D          

 72 77  0  0  0  0            999 V2000
    4.5989   -6.5053    0.0000 C   0  0  0  0  0  0  0  0  0  0  0  0
    3.8845   -6.9178    0.0000 C   0  0  0  0  0  0  0  0  0  0  0  0
    3.1700   -6.5053    0.0000 C   0  0  0  0  0  0  0  0  0  0  0  0
    4.5989   -5.6803    0.0000 O   0  0  0  0  0  0  0  0  0  0  0  0
    5.3134   -6.9178    0.0000 O   0  0  0  0  0  0  0  0  0  0  0  0
    2.4555   -6.9178    0.0000 C   0  0  0  0  0  0  0  0  0  0  0  0
    2.4555   -7.7428    0.0000 C   0  0  0  0  0  0  0  0  0  0  0  0
    1.7410   -8.1553    0.0000 C   0  0  0  0  0  0  0  0  0  0  0  0
    1.0266   -7.7428    0.0000 C   0  0  0  0  0  0  0  0  0  0  0  0
    1.0266   -6.9178    0.0000 C   0  0  0  0  0  0  0  0  0  0  0  0
    1.7410   -6.5053    0.0000 C   0  0  0  0  0  0  0  0  0  0  0  0
    0.3121   -8.1553    0.0000 O   0  0  0  0  0  0  0  0  0  0  0  0
    6.0279   -6.5053    0.0000 C   0  0  0  0  0  0  0  0  0  0  0  0
    7.4960   -6.5822    0.0000 O   0  0  0  0  0  0  0  0  0  0  0  0
    6.7423   -6.9178    0.0000 C   0  0  1  0  0  0  0  0  0  0  0  0
    6.8286   -7.7382    0.0000 C   0  0  2  0  0  0  0  0  0  0  0  0
    7.6355   -7.9098    0.0000 C   0  0  1  0  0  0  0  0  0  0  0  0
    8.0480   -7.1953    0.0000 C   0  0  1  0  0  0  0  0  0  0  0  0
    8.8017   -7.5308    0.0000 C   0  0  0  0  0  0  0  0  0  0  0  0
    8.8880   -8.3513    0.0000 O   0  0  0  0  0  0  0  0  0  0  0  0
    9.6416   -8.6869    0.0000 C   0  0  0  0  0  0  0  0  0  0  0  0
   10.3091   -8.2020    0.0000 C   0  0  0  0  0  0  0  0  0  0  0  0
   11.0627   -8.5375    0.0000 C   0  0  0  0  0  0  0  0  0  0  0  0
    9.7279   -9.5074    0.0000 O   0  0  0  0  0  0  0  0  0  0  0  0
   11.7302   -8.0526    0.0000 C   0  0  0  0  0  0  0  0  0  0  0  0
   11.6440   -7.2321    0.0000 C   0  0  0  0  0  0  0  0  0  0  0  0
   12.3114   -6.7472    0.0000 C   0  0  0  0  0  0  0  0  0  0  0  0
   13.0651   -7.0828    0.0000 C   0  0  0  0  0  0  0  0  0  0  0  0
   13.1513   -7.9032    0.0000 C   0  0  0  0  0  0  0  0  0  0  0  0
   12.4839   -8.3882    0.0000 C   0  0  0  0  0  0  0  0  0  0  0  0
   13.7325   -6.5978    0.0000 O   0  0  0  0  0  0  0  0  0  0  0  0
    7.9711   -8.6634    0.0000 O   0  0  0  0  0  0  0  0  0  0  0  0
    7.4862   -9.3309    0.0000 C   0  0  0  0  0  0  0  0  0  0  0  0
    6.6657   -9.2446    0.0000 C   0  0  0  0  0  0  0  0  0  0  0  0
    6.1808   -9.9121    0.0000 C   0  0  0  0  0  0  0  0  0  0  0  0
    7.8217  -10.0845    0.0000 O   0  0  0  0  0  0  0  0  0  0  0  0
    5.3603   -9.8258    0.0000 C   0  0  0  0  0  0  0  0  0  0  0  0
    4.8754  -10.4933    0.0000 C   0  0  0  0  0  0  0  0  0  0  0  0
    4.0549  -10.4070    0.0000 C   0  0  0  0  0  0  0  0  0  0  0  0
    3.7193   -9.6534    0.0000 C   0  0  0  0  0  0  0  0  0  0  0  0
    4.2043   -8.9859    0.0000 C   0  0  0  0  0  0  0  0  0  0  0  0
    5.0247   -9.0722    0.0000 C   0  0  0  0  0  0  0  0  0  0  0  0
    2.8989   -9.5671    0.0000 O   0  0  0  0  0  0  0  0  0  0  0  0
    6.2155   -8.2903    0.0000 O   0  0  0  0  0  0  0  0  0  0  0  0
    8.7155   -6.7104    0.0000 O   0  0  0  0  0  0  0  0  0  0  0  0
    9.2708   -5.1588    0.0000 O   0  0  0  0  0  0  0  0  0  0  0  0
    8.6034   -5.6437    0.0000 C   0  0  2  0  0  0  0  0  0  0  0  0
    7.8497   -5.3082    0.0000 C   0  0  1  0  0  0  0  0  0  0  0  0
    7.7635   -4.4877    0.0000 C   0  0  2  0  0  0  0  0  0  0  0  0
    8.4309   -4.0028    0.0000 C   0  0  1  0  0  0  0  0  0  0  0  0
    9.1846   -4.3383    0.0000 C   0  0  1  0  0  0  0  0  0  0  0  0
    9.8520   -3.8534    0.0000 C   0  0  0  0  0  0  0  0  0  0  0  0
   10.6057   -4.1890    0.0000 O   0  0  0  0  0  0  0  0  0  0  0  0
   11.2731   -3.7040    0.0000 C   0  0  0  0  0  0  0  0  0  0  0  0
   12.0268   -4.0396    0.0000 C   0  0  0  0  0  0  0  0  0  0  0  0
   12.6942   -3.5547    0.0000 C   0  0  0  0  0  0  0  0  0  0  0  0
   11.1869   -2.8836    0.0000 O   0  0  0  0  0  0  0  0  0  0  0  0
   13.4479   -3.8902    0.0000 C   0  0  0  0  0  0  0  0  0  0  0  0
   14.1154   -3.4053    0.0000 C   0  0  0  0  0  0  0  0  0  0  0  0
   14.8690   -3.7409    0.0000 C   0  0  0  0  0  0  0  0  0  0  0  0
   14.9553   -4.5614    0.0000 C   0  0  0  0  0  0  0  0  0  0  0  0
   14.2878   -5.0463    0.0000 C   0  0  0  0  0  0  0  0  0  0  0  0
   13.5342   -4.7107    0.0000 C   0  0  0  0  0  0  0  0  0  0  0  0
   15.5365   -3.2560    0.0000 O   0  0  0  0  0  0  0  0  0  0  0  0
   16.2902   -3.5915    0.0000 C   0  0  0  0  0  0  0  0  0  0  0  0
   15.7089   -4.8969    0.0000 O   0  0  0  0  0  0  0  0  0  0  0  0
    8.3447   -3.1823    0.0000 O   0  0  0  0  0  0  0  0  0  0  0  0
    7.0098   -4.1521    0.0000 O   0  0  0  0  0  0  0  0  0  0  0  0
    7.1823   -5.7931    0.0000 O   0  0  0  0  0  0  0  0  0  0  0  0
    6.4286   -5.4575    0.0000 C   0  0  0  0  0  0  0  0  0  0  0  0
    6.3424   -4.6371    0.0000 O   0  0  0  0  0  0  0  0  0  0  0  0
    5.7612   -5.9425    0.0000 C   0  0  0  0  0  0  0  0  0  0  0  0
  1  2  1  0  0  0  0
  2  3  2  0  0  0  0
  1  4  2  0  0  0  0
  1  5  1  0  0  0  0
  6  7  1  0  0  0  0
  7  8  2  0  0  0  0
  8  9  1  0  0  0  0
  9 10  2  0  0  0  0
 10 11  1  0  0  0  0
  6 11  2  0  0  0  0
  9 12  1  0  0  0  0
  3  6  1  0  0  0  0
 14 15  1  0  0  0  0
 15 16  1  0  0  0  0
 16 17  1  0  0  0  0
 17 18  1  0  0  0  0
 14 18  1  0  0  0  0
 21 22  1  0  0  0  0
 22 23  2  0  0  0  0
 21 24  2  0  0  0  0
 25 26  1  0  0  0  0
 26 27  2  0  0  0  0
 27 28  1  0  0  0  0
 28 29  2  0  0  0  0
 29 30  1  0  0  0  0
 25 30  2  0  0  0  0
 28 31  1  0  0  0  0
 23 25  1  0  0  0  0
 20 21  1  0  0  0  0
 19 20  1  0  0  0  0
 18 19  1  6  0  0  0
 33 34  1  0  0  0  0
 34 35  2  0  0  0  0
 33 36  2  0  0  0  0
 37 38  1  0  0  0  0
 38 39  2  0  0  0  0
 39 40  1  0  0  0  0
 40 41  2  0  0  0  0
 41 42  1  0  0  0  0
 37 42  2  0  0  0  0
 40 43  1  0  0  0  0
 35 37  1  0  0  0  0
 32 33  1  0  0  0  0
 17 32  1  1  0  0  0
 16 44  1  6  0  0  0
 46 47  1  0  0  0  0
 47 48  1  0  0  0  0
 48 49  1  0  0  0  0
 49 50  1  0  0  0  0
 50 51  1  0  0  0  0
 46 51  1  0  0  0  0
 54 55  1  0  0  0  0
 55 56  2  0  0  0  0
 54 57  2  0  0  0  0
 58 59  1  0  0  0  0
 59 60  2  0  0  0  0
 60 61  1  0  0  0  0
 61 62  2  0  0  0  0
 62 63  1  0  0  0  0
 58 63  2  0  0  0  0
 64 65  1  0  0  0  0
 60 64  1  0  0  0  0
 61 66  1  0  0  0  0
 56 58  1  0  0  0  0
 53 54  1  0  0  0  0
 52 53  1  0  0  0  0
 51 52  1  1  0  0  0
 50 67  1  6  0  0  0
 49 68  1  1  0  0  0
 70 71  2  0  0  0  0
 70 72  1  0  0  0  0
 69 70  1  0  0  0  0
 48 69  1  6  0  0  0
 47 45  1  1  0  0  0
 18 45  1  1  0  0  0
 15 13  1  1  0  0  0
  5 13  1  0  0  0  0
M  END
>  <cdx:groupId>
223

>  <cdx:fragmentId>
53

$$$$
