575842.cdx
  Mrv1902 05222410222D          

 36 40  0  0  0  0            999 V2000
    5.0483   -7.1318    0.0000 H   0  0  0  0  0  0  0  0  0  0  0  0
    8.3193   -8.6701    0.0000 H   0  0  0  0  0  0  0  0  0  0  0  0
    5.0499  -11.5908    0.0000 C   0  0  0  0  0  0  0  0  0  0  0  0
    4.7947  -10.8063    0.0000 C   0  0  0  0  0  0  0  0  0  0  0  0
    5.4620  -10.3212    0.0000 C   0  0  0  0  0  0  0  0  0  0  0  0
    6.1296  -10.8058    0.0000 C   0  0  0  0  0  0  0  0  0  0  0  0
    5.8749  -11.5906    0.0000 O   0  0  0  0  0  0  0  0  0  0  0  0
    9.7473   -6.1946    0.0000 O   0  0  0  0  0  0  0  0  0  0  0  0
    9.0327   -5.7824    0.0000 C   0  0  0  0  0  0  0  0  0  0  0  0
    9.0330   -6.6074    0.0000 C   0  0  0  0  0  0  0  0  0  0  0  0
    9.7476   -7.0196    0.0000 C   0  0  0  0  0  0  0  0  0  0  0  0
    6.8903   -8.6706    0.0000 C   0  0  0  0  0  0  0  0  0  0  0  0
    9.0333   -7.4324    0.0000 C   0  0  0  0  0  0  0  0  0  0  0  0
    6.1763   -9.9084    0.0000 C   0  0  0  0  0  0  0  0  0  0  0  0
    6.2576   -6.4906    0.0000 O   0  0  0  0  0  0  0  0  0  0  0  0
    4.0321   -7.8467    0.0000 O   0  0  0  0  0  0  0  0  0  0  0  0
    6.1754   -7.4334    0.0000 O   0  0  0  0  0  0  0  0  0  0  0  0
    5.4611   -7.8462    0.0000 C   0  0  2  0  0  0  0  0  0  0  0  0
    4.7468   -8.2589    0.0000 C   0  0  0  0  0  0  0  0  0  0  0  0
    4.7471   -9.0839    0.0000 O   0  0  0  0  0  0  0  0  0  0  0  0
    5.4617   -9.4962    0.0000 C   0  0  2  0  0  0  0  0  0  0  0  0
    6.1760   -9.0834    0.0000 C   0  0  1  0  0  0  0  0  0  0  0  0
    6.8906   -9.4956    0.0000 C   0  0  0  0  0  0  0  0  0  0  0  0
    7.6049   -9.0829    0.0000 C   0  0  0  0  0  0  0  0  0  0  0  0
    7.6047   -8.2579    0.0000 C   0  0  2  0  0  0  0  0  0  0  0  0
    8.3190   -7.8451    0.0000 C   0  0  1  0  0  0  0  0  0  0  0  0
    8.3187   -7.0201    0.0000 C   0  0  1  0  0  0  0  0  0  0  0  0
    7.6041   -6.6079    0.0000 C   0  0  0  0  0  0  0  0  0  0  0  0
    6.8897   -7.0206    0.0000 C   0  0  0  0  0  0  0  0  0  0  0  0
    6.8900   -7.8456    0.0000 C   0  0  2  0  0  0  0  0  0  0  0  0
    6.1757   -8.2584    0.0000 C   0  0  2  0  0  0  0  0  0  0  0  0
    8.7486  -10.5675    0.0000 O   0  0  0  0  0  0  0  0  0  0  0  0
    8.0337   -9.3302    0.0000 O   0  0  0  0  0  0  0  0  0  0  0  0
    9.4624   -8.5047    0.0000 C   0  0  0  0  0  0  0  0  0  0  0  0
    9.4627   -9.3297    0.0000 C   0  0  0  0  0  0  0  0  0  0  0  0
    8.7483   -9.7425    0.0000 C   0  0  0  0  0  0  0  0  0  0  0  0
 18  1  1  6  0  0  0
 25  2  1  6  0  0  0
 34 26  1  0  0  0  0
 21  5  1  6  0  0  0
  7  3  1  0  0  0  0
  4  3  2  0  0  0  0
  5  4  1  0  0  0  0
  6  5  2  0  0  0  0
  7  6  1  0  0  0  0
 27 10  1  1  0  0  0
 10  8  1  0  0  0  0
 10  9  1  0  0  0  0
 11 10  1  0  0  0  0
 30 12  1  1  0  0  0
 26 13  1  1  0  0  0
 22 14  1  6  0  0  0
 29 15  2  0  0  0  0
 19 16  2  0  0  0  0
 30 25  1  0  0  0  0
 31 18  1  0  0  0  0
 31 22  1  0  0  0  0
 31 17  1  1  0  0  0
 18 17  1  0  0  0  0
 19 18  1  0  0  0  0
 20 19  1  0  0  0  0
 21 20  1  0  0  0  0
 22 21  1  0  0  0  0
 23 22  1  0  0  0  0
 24 23  1  0  0  0  0
 25 24  1  0  0  0  0
 26 25  1  0  0  0  0
 27 26  1  0  0  0  0
 28 27  1  0  0  0  0
 29 28  1  0  0  0  0
 30 29  1  0  0  0  0
 31 30  1  0  0  0  0
 36 32  1  0  0  0  0
 36 33  2  0  0  0  0
 35 34  2  0  0  0  0
 36 35  1  0  0  0  0
M  END
>  <cdx:fragmentId>
15

$$$$
