101575890.cdx
  Mrv1902 05222410202D          

 42 48  0  0  0  0            999 V2000
    8.2902   -5.8820    0.0000 C   0  0  1  0  0  0  0  0  0  0  0  0
    8.0265   -6.6637    0.0000 C   0  0  1  0  0  0  0  0  0  0  0  0
    8.3222   -7.4339    0.0000 C   0  0  1  0  0  0  0  0  0  0  0  0
    7.7388   -6.8505    0.0000 O   0  0  0  0  0  0  0  0  0  0  0  0
    6.9138   -6.8505    0.0000 C   0  0  1  0  0  0  0  0  0  0  0  0
    6.3304   -7.4339    0.0000 C   0  0  2  0  0  0  0  0  0  0  0  0
    5.6160   -7.0214    0.0000 C   0  0  1  0  0  0  0  0  0  0  0  0
    4.9015   -7.4339    0.0000 C   0  0  0  0  0  0  0  0  0  0  0  0
    4.9015   -8.2589    0.0000 C   0  0  0  0  0  0  0  0  0  0  0  0
    4.1870   -8.6714    0.0000 C   0  0  0  0  0  0  0  0  0  0  0  0
    4.1870   -9.4964    0.0000 C   0  0  0  0  0  0  0  0  0  0  0  0
    4.9015   -9.9089    0.0000 C   0  0  0  0  0  0  0  0  0  0  0  0
    5.6160   -9.4964    0.0000 C   0  0  0  0  0  0  0  0  0  0  0  0
    5.6160   -8.6714    0.0000 C   0  0  2  0  0  0  0  0  0  0  0  0
    6.3304   -8.2589    0.0000 C   0  0  1  0  0  0  0  0  0  0  0  0
    6.9138   -8.8423    0.0000 C   0  0  0  0  0  0  0  0  0  0  0  0
    7.7388   -8.8423    0.0000 C   0  0  0  0  0  0  0  0  0  0  0  0
    8.3222   -8.2589    0.0000 C   0  0  2  0  0  0  0  0  0  0  0  0
    9.1068   -8.5138    0.0000 C   0  0  0  0  0  0  0  0  0  0  0  0
    9.5917   -7.8464    0.0000 O   0  0  0  0  0  0  0  0  0  0  0  0
    9.1068   -7.1790    0.0000 C   0  0  1  0  0  0  0  0  0  0  0  0
    9.5492   -6.4825    0.0000 C   0  0  2  0  0  0  0  0  0  0  0  0
    9.8949   -5.7562    0.0000 O   0  0  0  0  0  0  0  0  0  0  0  0
    9.4391   -5.0934    0.0000 C   0  0  0  0  0  0  0  0  0  0  0  0
    8.6372   -5.1563    0.0000 C   0  0  0  0  0  0  0  0  0  0  0  0
    9.1094   -5.7845    0.0000 C   0  0  0  0  0  0  0  0  0  0  0  0
    7.3703   -6.1633    0.0000 C   0  0  0  0  0  0  0  0  0  0  0  0
    6.3304   -9.9089    0.0000 O   0  0  0  0  0  0  0  0  0  0  0  0
    9.3617   -9.2985    0.0000 O   0  0  0  0  0  0  0  0  0  0  0  0
    9.8516   -4.3790    0.0000 O   0  0  0  0  0  0  0  0  0  0  0  0
    7.2335   -5.3497    0.0000 O   0  0  0  0  0  0  0  0  0  0  0  0
    8.2247   -4.4418    0.0000 C   0  0  0  0  0  0  0  0  0  0  0  0
    9.9318   -7.1790    0.0000 C   0  0  0  0  0  0  0  0  0  0  0  0
    5.6160   -7.8464    0.0000 C   0  0  0  0  0  0  0  0  0  0  0  0
    7.5913   -5.4436    0.0000 C   0  0  0  0  0  0  0  0  0  0  0  0
    8.5148   -9.0611    0.0000 O   0  0  0  0  0  0  0  0  0  0  0  0
    5.6160   -6.1964    0.0000 O   0  0  0  0  0  0  0  0  0  0  0  0
    6.3758   -6.2251    0.0000 O   0  0  0  0  0  0  0  0  0  0  0  0
    8.8513   -6.6467    0.0000 H   0  0  0  0  0  0  0  0  0  0  0  0
    6.0824   -6.6471    0.0000 H   0  0  0  0  0  0  0  0  0  0  0  0
    6.3304   -9.0839    0.0000 H   0  0  0  0  0  0  0  0  0  0  0  0
   10.2636   -6.8950    0.0000 H   0  0  0  0  0  0  0  0  0  0  0  0
  1  2  1  0  0  0  0
  2  3  1  0  0  0  0
  3  4  1  1  0  0  0
  5  4  1  6  0  0  0
  5  6  1  0  0  0  0
  6  7  1  0  0  0  0
  7  8  1  0  0  0  0
  8  9  2  0  0  0  0
  9 10  1  0  0  0  0
 10 11  2  0  0  0  0
 11 12  1  0  0  0  0
 12 13  1  0  0  0  0
 13 14  1  0  0  0  0
 14 15  1  0  0  0  0
 15 16  1  0  0  0  0
 16 17  1  0  0  0  0
 17 18  1  0  0  0  0
 18 19  1  0  0  0  0
 19 20  1  0  0  0  0
 20 21  1  0  0  0  0
 21 22  1  0  0  0  0
 22 23  1  0  0  0  0
 23 24  1  0  0  0  0
 24 25  1  0  0  0  0
  1 25  1  0  0  0  0
  1 26  1  6  0  0  0
 22 26  1  6  0  0  0
  3 21  1  0  0  0  0
  3 18  1  0  0  0  0
  6 15  1  0  0  0  0
  9 14  1  0  0  0  0
  5 27  1  0  0  0  0
 27  2  1  0  0  0  0
 13 28  2  0  0  0  0
 19 29  2  0  0  0  0
 24 30  2  0  0  0  0
 27 31  2  0  0  0  0
 25 32  2  0  0  0  0
 21 33  1  1  0  0  0
 14 34  1  6  0  0  0
  1 35  1  0  0  0  0
 18 36  1  6  0  0  0
  7 37  1  1  0  0  0
  5 38  1  0  0  0  0
  2 39  1  6  0  0  0
  6 40  1  6  0  0  0
 15 41  1  1  0  0  0
 22 42  1  0  0  0  0
M  END
>  <cdx:groupId>
250585

>  <cdx:fragmentId>
250456

$$$$
