5758.cdx
  Mrv1902 05222410272D          

 10 11  0  0  0  0            999 V2000
    7.5740   -5.4344    0.0000 C   0  0  0  0  0  0  0  0  0  0  0  0
    8.0801   -6.0859    0.0000 C   0  0  0  0  0  0  0  0  0  0  0  0
    7.6168   -6.7686    0.0000 C   0  0  0  0  0  0  0  0  0  0  0  0
    6.8244   -6.5389    0.0000 C   0  0  0  0  0  0  0  0  0  0  0  0
    6.7980   -5.7143    0.0000 C   0  0  0  0  0  0  0  0  0  0  0  0
    6.0971   -6.1495    0.0000 C   0  0  0  0  0  0  0  0  0  0  0  0
    7.7528   -4.6290    0.0000 O   0  0  0  0  0  0  0  0  0  0  0  0
    6.2669   -7.1470    0.0000 C   0  0  0  0  0  0  0  0  0  0  0  0
    5.4427   -7.1828    0.0000 C   0  0  0  0  0  0  0  0  0  0  0  0
    6.7100   -7.8429    0.0000 C   0  0  0  0  0  0  0  0  0  0  0  0
  1  2  1  0  0  0  0
  2  3  1  0  0  0  0
  3  4  1  0  0  0  0
  4  5  1  0  0  0  0
  5  1  1  0  0  0  0
  4  6  1  0  0  0  0
  6  5  1  0  0  0  0
  1  7  2  0  0  0  0
  4  8  1  0  0  0  0
  8  9  1  0  0  0  0
  8 10  1  0  0  0  0
M  END
>  <cdx:fragmentId>
5

$$$$
