44575957.cdx
  Mrv1902 05222410192D          

 55 59  0  0  0  0            999 V2000
    6.6903   -7.9221    0.0000 C   0  0  0  0  0  0  0  0  0  0  0  0
    6.6903   -8.7471    0.0000 C   0  0  0  0  0  0  0  0  0  0  0  0
    7.4048   -9.1596    0.0000 C   0  0  0  0  0  0  0  0  0  0  0  0
    7.4048   -9.9846    0.0000 C   0  0  0  0  0  0  0  0  0  0  0  0
    6.6903  -10.3971    0.0000 C   0  0  0  0  0  0  0  0  0  0  0  0
    5.9758   -9.9846    0.0000 C   0  0  0  0  0  0  0  0  0  0  0  0
    5.9758   -9.1596    0.0000 C   0  0  0  0  0  0  0  0  0  0  0  0
    6.1544   -7.6128    0.0000 O   0  0  0  0  0  0  0  0  0  0  0  0
    7.4048   -7.5096    0.0000 O   0  0  0  0  0  0  0  0  0  0  0  0
    6.6903   -5.4471    0.0000 C   0  0  2  0  0  0  0  0  0  0  0  0
    7.4048   -5.0346    0.0000 C   0  0  0  0  0  0  0  0  0  0  0  0
    7.4048   -4.2096    0.0000 C   0  0  2  0  0  0  0  0  0  0  0  0
    8.1192   -3.7971    0.0000 C   0  0  1  0  0  0  0  0  0  0  0  0
    8.8337   -3.3846    0.0000 O   0  0  0  0  0  0  0  0  0  0  0  0
    8.8337   -4.2096    0.0000 C   0  0  2  0  0  0  0  0  0  0  0  0
    8.8337   -5.0346    0.0000 C   0  0  0  0  0  0  0  0  0  0  0  0
    9.5482   -5.4471    0.0000 C   0  0  0  0  0  0  0  0  0  0  0  0
    9.5482   -6.2721    0.0000 C   0  0  1  0  0  0  0  0  0  0  0  0
    8.8337   -6.6846    0.0000 C   0  0  2  0  0  0  0  0  0  0  0  0
    8.1192   -6.2721    0.0000 C   0  0  0  0  0  0  0  0  0  0  0  0
    7.4048   -6.6846    0.0000 C   0  0  1  0  0  0  0  0  0  0  0  0
    6.6903   -6.2721    0.0000 C   0  0  1  0  0  0  0  0  0  0  0  0
    5.9057   -6.5271    0.0000 C   0  0  2  0  0  0  0  0  0  0  0  0
    5.4207   -5.8596    0.0000 C   0  0  2  0  0  0  0  0  0  0  0  0
    5.9057   -5.1922    0.0000 C   0  0  2  0  0  0  0  0  0  0  0  0
   10.2626   -5.0346    0.0000 O   0  0  0  0  0  0  0  0  0  0  0  0
    8.1800   -5.3168    0.0000 O   0  0  0  0  0  0  0  0  0  0  0  0
    7.9760   -5.4597    0.0000 C   0  0  0  0  0  0  0  0  0  0  0  0
    4.7063   -5.4471    0.0000 C   0  0  0  0  0  0  0  0  0  0  0  0
    8.4212   -5.7491    0.0000 C   0  0  0  0  0  0  0  0  0  0  0  0
    8.0087   -5.0346    0.0000 C   0  0  0  0  0  0  0  0  0  0  0  0
    6.7728   -3.6793    0.0000 C   0  0  0  0  0  0  0  0  0  0  0  0
    5.6507   -4.4076    0.0000 O   0  0  0  0  0  0  0  0  0  0  0  0
    4.7063   -6.2721    0.0000 O   0  0  0  0  0  0  0  0  0  0  0  0
   10.2626   -6.6846    0.0000 O   0  0  0  0  0  0  0  0  0  0  0  0
    8.8337   -7.5096    0.0000 O   0  0  0  0  0  0  0  0  0  0  0  0
    9.5482   -7.9221    0.0000 C   0  0  0  0  0  0  0  0  0  0  0  0
    9.5482   -8.7471    0.0000 C   0  0  0  0  0  0  0  0  0  0  0  0
   10.2626   -9.1596    0.0000 C   0  0  0  0  0  0  0  0  0  0  0  0
   10.2626   -9.9846    0.0000 C   0  0  0  0  0  0  0  0  0  0  0  0
    9.5482  -10.3971    0.0000 C   0  0  0  0  0  0  0  0  0  0  0  0
    8.8337   -9.9846    0.0000 C   0  0  0  0  0  0  0  0  0  0  0  0
    8.8337   -9.1596    0.0000 C   0  0  0  0  0  0  0  0  0  0  0  0
   10.2626   -7.5096    0.0000 O   0  0  0  0  0  0  0  0  0  0  0  0
    5.6507   -7.3117    0.0000 O   0  0  0  0  0  0  0  0  0  0  0  0
    4.8438   -7.4832    0.0000 C   0  0  0  0  0  0  0  0  0  0  0  0
    4.5888   -8.2679    0.0000 O   0  0  0  0  0  0  0  0  0  0  0  0
    4.2917   -6.8701    0.0000 C   0  0  0  0  0  0  0  0  0  0  0  0
    6.5523   -4.1344    0.0000 O   0  0  0  0  0  0  0  0  0  0  0  0
    5.7986   -3.7988    0.0000 C   0  0  0  0  0  0  0  0  0  0  0  0
    5.7124   -2.9783    0.0000 O   0  0  0  0  0  0  0  0  0  0  0  0
    5.1312   -4.2837    0.0000 C   0  0  0  0  0  0  0  0  0  0  0  0
    7.7067   -3.0827    0.0000 H   0  0  0  0  0  0  0  0  0  0  0  0
    9.6587   -4.2096    0.0000 H   0  0  0  0  0  0  0  0  0  0  0  0
    6.6041   -7.0926    0.0000 H   0  0  0  0  0  0  0  0  0  0  0  0
  1  2  1  0  0  0  0
  2  3  1  0  0  0  0
  3  4  2  0  0  0  0
  4  5  1  0  0  0  0
  5  6  2  0  0  0  0
  6  7  1  0  0  0  0
  2  7  2  0  0  0  0
  1  8  2  0  0  0  0
  1  9  1  0  0  0  0
 10 11  1  0  0  0  0
 11 12  1  0  0  0  0
 12 13  1  0  0  0  0
 13 14  1  0  0  0  0
 14 15  1  0  0  0  0
 15 16  1  0  0  0  0
 16 17  1  0  0  0  0
 17 18  1  0  0  0  0
 18 19  1  0  0  0  0
 19 20  1  0  0  0  0
 20 21  1  0  0  0  0
 21 22  1  0  0  0  0
 22 23  1  0  0  0  0
 23 24  1  0  0  0  0
 24 25  1  0  0  0  0
 10 25  1  0  0  0  0
 10 22  1  0  0  0  0
 13 15  1  0  0  0  0
 17 26  2  0  0  0  0
 11 27  2  0  0  0  0
 20 28  2  0  0  0  0
 24 29  1  1  0  0  0
 16 30  1  0  0  0  0
 16 31  1  0  0  0  0
 12 32  1  1  0  0  0
 25 33  1  6  0  0  0
 24 34  1  6  0  0  0
 18 35  1  6  0  0  0
 37 38  1  0  0  0  0
 38 39  1  0  0  0  0
 39 40  2  0  0  0  0
 40 41  1  0  0  0  0
 41 42  2  0  0  0  0
 42 43  1  0  0  0  0
 38 43  2  0  0  0  0
 37 44  2  0  0  0  0
 36 37  1  0  0  0  0
 19 36  1  1  0  0  0
 46 47  2  0  0  0  0
 46 48  1  0  0  0  0
 45 46  1  0  0  0  0
 23 45  1  1  0  0  0
 50 51  2  0  0  0  0
 50 52  1  0  0  0  0
 49 50  1  0  0  0  0
 10 49  1  1  0  0  0
 21  9  1  6  0  0  0
 13 53  1  6  0  0  0
 15 54  1  1  0  0  0
 22 55  1  6  0  0  0
M  END
>  <cdx:groupId>
171

>  <cdx:fragmentId>
23

$$$$
