575927.cdx
  Mrv1902 05222410202D          

 33 37  0  0  0  0            999 V2000
    9.9419   -8.1083    0.0000 O   0  0  0  0  0  0  0  0  0  0  0  0
    9.4012   -7.4852    0.0000 C   0  0  1  0  0  0  0  0  0  0  0  0
    9.8267   -6.7784    0.0000 C   0  0  0  0  0  0  0  0  0  0  0  0
   10.6304   -6.9646    0.0000 C   0  0  1  0  0  0  0  0  0  0  0  0
   10.7016   -7.7865    0.0000 C   0  0  0  0  0  0  0  0  0  0  0  0
   11.4084   -8.2120    0.0000 O   0  0  0  0  0  0  0  0  0  0  0  0
   11.2534   -6.4239    0.0000 C   0  0  0  0  0  0  0  0  0  0  0  0
    6.5144  -10.2179    0.0000 H   0  0  0  0  0  0  0  0  0  0  0  0
    6.4082   -7.8188    0.0000 H   0  0  0  0  0  0  0  0  0  0  0  0
    6.7093   -7.5573    0.0000 H   0  0  0  0  0  0  0  0  0  0  0  0
    6.2422   -6.9396    0.0000 C   0  0  0  0  0  0  0  0  0  0  0  0
    5.6790   -7.5425    0.0000 C   0  0  0  0  0  0  0  0  0  0  0  0
    5.1859  -10.4525    0.0000 O   0  0  0  0  0  0  0  0  0  0  0  0
    3.4925   -9.8885    0.0000 C   0  0  0  0  0  0  0  0  0  0  0  0
    8.9757   -8.1920    0.0000 H   0  0  0  0  0  0  0  0  0  0  0  0
    3.4984   -8.0936    0.0000 O   0  0  0  0  0  0  0  0  0  0  0  0
    4.9453   -9.6633    0.0000 C   0  0  2  0  0  0  0  0  0  0  0  0
    4.1615   -9.4058    0.0000 C   0  0  2  0  0  0  0  0  0  0  0  0
    4.1643   -8.5808    0.0000 C   0  0  0  0  0  0  0  0  0  0  0  0
    4.9497   -8.3284    0.0000 O   0  0  0  0  0  0  0  0  0  0  0  0
    7.2788   -7.2550    0.0000 C   0  0  0  0  0  0  0  0  0  0  0  0
    8.0385   -6.9333    0.0000 C   0  0  0  0  0  0  0  0  0  0  0  0
    8.5792   -7.5564    0.0000 C   0  0  0  0  0  0  0  0  0  0  0  0
    8.1538   -8.2632    0.0000 N   0  0  0  0  0  0  0  0  0  0  0  0
    8.5092   -9.0077    0.0000 C   0  0  0  0  0  0  0  0  0  0  0  0
    8.1488   -9.7498    0.0000 C   0  0  0  0  0  0  0  0  0  0  0  0
    7.3439   -9.9307    0.0000 C   0  0  0  0  0  0  0  0  0  0  0  0
    6.7006   -9.4142    0.0000 C   0  0  1  0  0  0  0  0  0  0  0  0
    5.9151   -9.6665    0.0000 O   0  0  0  0  0  0  0  0  0  0  0  0
    5.4324   -8.9975    0.0000 C   0  0  1  0  0  0  0  0  0  0  0  0
    5.9196   -8.3317    0.0000 C   0  0  2  0  0  0  0  0  0  0  0  0
    6.7033   -8.5892    0.0000 C   0  0  2  0  0  0  0  0  0  0  0  0
    7.3501   -8.0770    0.0000 C   0  0  2  0  0  0  0  0  0  0  0  0
 28  8  1  6  0  0  0
 32  9  1  1  0  0  0
 33 10  1  1  0  0  0
 31 12  1  1  0  0  0
 12 11  1  0  0  0  0
 17 13  1  6  0  0  0
 18 14  1  1  0  0  0
  2 23  1  0  0  0  0
  1  2  1  0  0  0  0
  2  3  1  0  0  0  0
 19 16  2  0  0  0  0
 17 30  1  0  0  0  0
 30 20  1  0  0  0  0
 18 17  1  0  0  0  0
 19 18  1  0  0  0  0
 20 19  1  0  0  0  0
 32 28  1  0  0  0  0
 33 24  1  0  0  0  0
 33 21  1  0  0  0  0
 22 21  1  0  0  0  0
 23 22  2  0  0  0  0
 24 23  1  0  0  0  0
 25 24  1  0  0  0  0
 26 25  1  0  0  0  0
 27 26  1  0  0  0  0
 28 27  1  0  0  0  0
 29 28  1  0  0  0  0
 30 29  1  1  0  0  0
 31 30  1  0  0  0  0
 32 31  1  0  0  0  0
 33 32  1  0  0  0  0
  3  4  1  0  0  0  0
  4  5  1  0  0  0  0
  1  5  1  0  0  0  0
  5  6  2  0  0  0  0
  4  7  1  6  0  0  0
  2 15  1  1  0  0  0
M  END
>  <cdx:fragmentId>
41101

$$$$
