575991.cdx
  Mrv1902 05222410192D          

  9  9  0  0  0  0            999 V2000
   15.6359  -13.5938    0.0000 C   0  0  0  0  0  0  0  0  0  0  0  0
   15.6359  -12.7688    0.0000 C   0  0  0  0  0  0  0  0  0  0  0  0
   17.0648  -12.7688    0.0000 C   0  0  0  0  0  0  0  0  0  0  0  0
   16.3504  -14.0063    0.0000 C   0  0  0  0  0  0  0  0  0  0  0  0
   16.3504  -12.3563    0.0000 C   0  0  0  0  0  0  0  0  0  0  0  0
   17.0648  -13.5938    0.0000 C   0  0  0  0  0  0  0  0  0  0  0  0
   14.9214  -12.3563    0.0000 C   0  0  0  0  0  0  0  0  0  0  0  0
   14.9214  -14.0063    0.0000 N   0  3  0  0  0  0  0  0  0  0  0  0
   14.2069  -14.4188    0.0000 C   0  5  0  0  0  0  0  0  0  0  0  0
  1  2  1  0  0  0  0
  1  4  2  0  0  0  0
  2  5  2  0  0  0  0
  3  5  1  0  0  0  0
  3  6  2  0  0  0  0
  4  6  1  0  0  0  0
  2  7  1  0  0  0  0
  8  9  3  0  0  0  0
  1  8  1  0  0  0  0
M  CHG  2   8   1   9  -1
M  END
>  <cdx:groupId>
2807

>  <cdx:fragmentId>
2783

$$$$
