10057625.cdx
  Mrv1902 05222410202D          

 10 10  0  0  0  0            999 V2000
    7.9101   -6.6159    0.0000 C   0  0  1  0  0  0  0  0  0  0  0  0
    7.9101   -7.4409    0.0000 C   0  0  2  0  0  0  0  0  0  0  0  0
    7.1956   -7.8534    0.0000 C   0  0  1  0  0  0  0  0  0  0  0  0
    6.4812   -7.4409    0.0000 C   0  0  2  0  0  0  0  0  0  0  0  0
    6.4812   -6.6159    0.0000 C   0  0  0  0  0  0  0  0  0  0  0  0
    7.1956   -6.2034    0.0000 C   0  0  0  0  0  0  0  0  0  0  0  0
    8.6246   -6.2034    0.0000 O   0  0  0  0  0  0  0  0  0  0  0  0
    8.6246   -7.8534    0.0000 O   0  0  0  0  0  0  0  0  0  0  0  0
    7.1956   -8.6784    0.0000 O   0  0  0  0  0  0  0  0  0  0  0  0
    5.7667   -7.8534    0.0000 O   0  0  0  0  0  0  0  0  0  0  0  0
  1  2  1  0  0  0  0
  2  3  1  0  0  0  0
  3  4  1  0  0  0  0
  4  5  1  0  0  0  0
  5  6  2  0  0  0  0
  1  6  1  0  0  0  0
  1  7  1  1  0  0  0
  2  8  1  1  0  0  0
  3  9  1  6  0  0  0
  4 10  1  1  0  0  0
M  END
>  <cdx:groupId>
2279

>  <cdx:fragmentId>
2252

$$$$
