576416.cdx
  Mrv1902 05222410252D          

 31 33  0  0  0  0            999 V2000
    7.4966   -5.0795    0.0000 C   0  0  0  0  0  0  0  0  0  0  0  0
    8.2125   -4.6695    0.0000 C   0  0  0  0  0  0  0  0  0  0  0  0
    7.4938   -5.9045    0.0000 S   0  0  0  0  0  0  0  0  0  0  0  0
    6.7835   -4.6646    0.0000 N   0  0  0  0  0  0  0  0  0  0  0  0
    6.0677   -5.0747    0.0000 O   0  0  0  0  0  0  0  0  0  0  0  0
    5.3546   -4.6598    0.0000 S   0  0  0  0  0  0  0  0  0  0  0  0
    4.9397   -5.3728    0.0000 O   0  0  0  0  0  0  0  0  0  0  0  0
    5.7695   -3.9467    0.0000 O   0  0  0  0  0  0  0  0  0  0  0  0
    4.6415   -4.2449    0.0000 O   0  0  0  0  0  0  0  0  0  0  0  0
    9.8154   -6.0794    0.0000 N   0  0  0  0  0  0  0  0  0  0  0  0
    9.0090   -5.9051    0.0000 C   0  0  0  0  0  0  0  0  0  0  0  0
    8.9255   -5.0844    0.0000 C   0  0  0  0  0  0  0  0  0  0  0  0
    9.6803   -4.7514    0.0000 C   0  0  0  0  0  0  0  0  0  0  0  0
    9.9379   -3.9676    0.0000 C   0  0  0  0  0  0  0  0  0  0  0  0
   10.7455   -3.7988    0.0000 C   0  0  0  0  0  0  0  0  0  0  0  0
   11.2954   -4.4138    0.0000 C   0  0  0  0  0  0  0  0  0  0  0  0
   11.0378   -5.1975    0.0000 C   0  0  0  0  0  0  0  0  0  0  0  0
   10.2303   -5.3663    0.0000 C   0  0  0  0  0  0  0  0  0  0  0  0
   10.1484   -6.8342    0.0000 O   0  0  0  0  0  0  0  0  0  0  0  0
   10.9686   -6.9232    0.0000 C   0  0  0  0  0  0  0  0  0  0  0  0
    6.0649   -5.8997    0.0000 O   0  0  0  0  0  0  0  0  0  0  0  0
    6.7779   -6.3146    0.0000 C   0  0  2  0  0  0  0  0  0  0  0  0
    6.7751   -7.1396    0.0000 C   0  0  1  0  0  0  0  0  0  0  0  0
    6.0593   -7.5497    0.0000 C   0  0  2  0  0  0  0  0  0  0  0  0
    5.3462   -7.1348    0.0000 C   0  0  1  0  0  0  0  0  0  0  0  0
    5.3490   -6.3098    0.0000 C   0  0  1  0  0  0  0  0  0  0  0  0
    4.6359   -5.8949    0.0000 C   0  0  0  0  0  0  0  0  0  0  0  0
    3.9201   -6.3049    0.0000 O   0  0  0  0  0  0  0  0  0  0  0  0
    4.6303   -7.5448    0.0000 O   0  0  0  0  0  0  0  0  0  0  0  0
    6.0565   -8.3747    0.0000 O   0  0  0  0  0  0  0  0  0  0  0  0
    7.4882   -7.5545    0.0000 O   0  0  0  0  0  0  0  0  0  0  0  0
  1  2  1  0  0  0  0
  1  3  1  0  0  0  0
  1  4  2  0  0  0  0
  6  7  2  0  0  0  0
  6  8  2  0  0  0  0
  6  9  1  0  0  0  0
  5  6  1  0  0  0  0
  4  5  1  0  0  0  0
 10 11  1  0  0  0  0
 11 12  2  0  0  0  0
 12 13  1  0  0  0  0
 13 14  1  0  0  0  0
 14 15  2  0  0  0  0
 15 16  1  0  0  0  0
 16 17  2  0  0  0  0
 17 18  1  0  0  0  0
 10 18  1  0  0  0  0
 13 18  2  0  0  0  0
 19 20  1  0  0  0  0
 10 19  1  0  0  0  0
  2 12  1  0  0  0  0
 21 22  1  0  0  0  0
 22 23  1  0  0  0  0
 23 24  1  0  0  0  0
 24 25  1  0  0  0  0
 25 26  1  0  0  0  0
 21 26  1  0  0  0  0
 27 28  1  0  0  0  0
 26 27  1  1  0  0  0
 25 29  1  6  0  0  0
 24 30  1  1  0  0  0
 23 31  1  6  0  0  0
 22  3  1  1  0  0  0
M  END
>  <cdx:groupId>
97

>  <cdx:fragmentId>
23

$$$$
