576612.cdx
  Mrv1902 05222410242D          

 16 17  0  0  0  0            999 V2000
    6.5349   -8.4322    0.0000 C   0  0  0  0  0  0  0  0  0  0  0  0
    5.8204   -8.0197    0.0000 C   0  0  0  0  0  0  0  0  0  0  0  0
    5.1060   -8.4322    0.0000 C   0  0  0  0  0  0  0  0  0  0  0  0
    5.1060   -9.2572    0.0000 C   0  0  0  0  0  0  0  0  0  0  0  0
    5.8204   -9.6697    0.0000 C   0  0  0  0  0  0  0  0  0  0  0  0
    6.5349   -9.2572    0.0000 C   0  0  0  0  0  0  0  0  0  0  0  0
    4.3915   -9.6697    0.0000 C   0  0  0  0  0  0  0  0  0  0  0  0
    5.8204   -7.1947    0.0000 C   0  0  0  0  0  0  0  0  0  0  0  0
    9.4790   -9.2527    0.0000 C   0  0  0  0  0  0  0  0  0  0  0  0
   10.2860   -9.4242    0.0000 C   0  0  0  0  0  0  0  0  0  0  0  0
   10.6985   -8.7097    0.0000 C   0  0  0  0  0  0  0  0  0  0  0  0
   10.1465   -8.0966    0.0000 C   0  0  0  0  0  0  0  0  0  0  0  0
    9.3928   -8.4322    0.0000 C   0  0  0  0  0  0  0  0  0  0  0  0
    8.6783   -8.0197    0.0000 C   0  0  0  0  0  0  0  0  0  0  0  0
    7.9638   -8.4322    0.0000 C   0  0  0  0  0  0  0  0  0  0  0  0
    7.2494   -8.0197    0.0000 C   0  0  0  0  0  0  0  0  0  0  0  0
  1 16  1  0  0  0  0
 14 13  1  0  0  0  0
 13  9  1  0  0  0  0
 10  9  1  0  0  0  0
 11 10  1  0  0  0  0
 12 11  1  0  0  0  0
 13 12  1  0  0  0  0
 15 14  1  0  0  0  0
 16 15  1  0  0  0  0
  1  2  1  0  0  0  0
  2  3  2  0  0  0  0
  3  4  1  0  0  0  0
  4  5  2  0  0  0  0
  5  6  1  0  0  0  0
  1  6  2  0  0  0  0
  4  7  1  0  0  0  0
  2  8  1  0  0  0  0
M  END
>  <cdx:fragmentId>
2835

$$$$
