576719.cdx
  Mrv1902 05222410182D          

 12 13  0  0  0  0            999 V2000
   14.9221  -13.0698    0.0000 C   0  0  0  0  0  0  0  0  0  0  0  0
   15.6366  -13.4823    0.0000 C   0  0  0  0  0  0  0  0  0  0  0  0
   15.6366  -14.3073    0.0000 C   0  0  0  0  0  0  0  0  0  0  0  0
   14.9221  -14.7198    0.0000 C   0  0  0  0  0  0  0  0  0  0  0  0
   14.2076  -14.3073    0.0000 C   0  0  0  0  0  0  0  0  0  0  0  0
   14.2076  -13.4823    0.0000 C   0  0  0  0  0  0  0  0  0  0  0  0
   14.5865  -13.8952    0.0000 C   0  0  0  0  0  0  0  0  0  0  0  0
   16.3510  -13.0698    0.0000 C   0  0  0  0  0  0  0  0  0  0  0  0
   17.0655  -13.4823    0.0000 C   0  0  0  0  0  0  0  0  0  0  0  0
   13.8720  -14.3077    0.0000 C   0  0  0  0  0  0  0  0  0  0  0  0
   13.8720  -13.4827    0.0000 C   0  0  0  0  0  0  0  0  0  0  0  0
   14.9221  -12.2448    0.0000 C   0  0  0  0  0  0  0  0  0  0  0  0
  1  2  1  0  0  0  0
  2  3  2  0  0  0  0
  3  4  1  0  0  0  0
  4  5  1  0  0  0  0
  5  6  1  0  0  0  0
  1  6  1  0  0  0  0
  1  7  1  0  0  0  0
  7  4  1  0  0  0  0
  8  9  2  0  0  0  0
  2  8  1  0  0  0  0
  7 10  1  0  0  0  0
  7 11  1  0  0  0  0
  1 12  1  0  0  0  0
M  END
>  <cdx:groupId>
2933

>  <cdx:fragmentId>
2899

$$$$
