576718.cdx
  Mrv1902 05222410192D          

 10 10  0  0  0  0            999 V2000
    7.5804   -6.4631    0.0000 C   0  0  0  0  0  0  0  0  0  0  0  0
    6.8371   -6.8211    0.0000 C   0  0  0  0  0  0  0  0  0  0  0  0
    6.6536   -7.6254    0.0000 C   0  0  0  0  0  0  0  0  0  0  0  0
    7.1679   -8.2704    0.0000 C   0  0  0  0  0  0  0  0  0  0  0  0
    7.9929   -8.2704    0.0000 C   0  0  0  0  0  0  0  0  0  0  0  0
    8.5073   -7.6254    0.0000 C   0  0  0  0  0  0  0  0  0  0  0  0
    8.3237   -6.8211    0.0000 C   0  0  0  0  0  0  0  0  0  0  0  0
    8.6251   -6.0531    0.0000 C   0  0  0  0  0  0  0  0  0  0  0  0
    9.1395   -6.6981    0.0000 C   0  0  0  0  0  0  0  0  0  0  0  0
    5.8492   -7.8090    0.0000 C   0  0  0  0  0  0  0  0  0  0  0  0
  1  2  2  0  0  0  0
  2  3  1  0  0  0  0
  3  4  2  0  0  0  0
  4  5  1  0  0  0  0
  5  6  2  0  0  0  0
  6  7  1  0  0  0  0
  1  7  1  0  0  0  0
  7  8  1  0  0  0  0
  7  9  1  0  0  0  0
  3 10  1  0  0  0  0
M  END
>  <cdx:fragmentId>
2866

$$$$
