5767.cdx
  Mrv1902 05222410282D          

 16 16  0  0  0  0            999 V2000
    3.7640   -6.4904    0.0000 C   0  0  0  0  0  0  0  0  0  0  0  0
    4.4872   -6.0935    0.0000 O   0  0  0  0  0  0  0  0  0  0  0  0
    4.4578   -7.7432    0.0000 O   0  0  0  0  0  0  0  0  0  0  0  0
    6.6082   -7.3690    0.0000 C   0  0  0  0  0  0  0  0  0  0  0  0
    6.6229   -6.5441    0.0000 C   0  0  0  0  0  0  0  0  0  0  0  0
    5.9159   -6.1190    0.0000 C   0  0  0  0  0  0  0  0  0  0  0  0
    5.1942   -6.5186    0.0000 C   0  0  0  0  0  0  0  0  0  0  0  0
    5.1795   -7.3435    0.0000 C   0  0  0  0  0  0  0  0  0  0  0  0
    5.8865   -7.7687    0.0000 C   0  0  0  0  0  0  0  0  0  0  0  0
    8.8427   -5.3247    0.0000 O   0  0  0  0  0  0  0  0  0  0  0  0
   10.9589   -6.6083    0.0000 O   0  0  0  0  0  0  0  0  0  0  0  0
   10.2535   -6.1804    0.0000 C   0  0  0  0  0  0  0  0  0  0  0  0
    9.5302   -6.5774    0.0000 C   0  0  0  0  0  0  0  0  0  0  0  0
    8.8249   -6.1495    0.0000 C   0  0  0  0  0  0  0  0  0  0  0  0
    8.1016   -6.5464    0.0000 C   0  0  0  0  0  0  0  0  0  0  0  0
    7.3963   -6.1186    0.0000 C   0  0  0  0  0  0  0  0  0  0  0  0
 16  5  1  0  0  0  0
  2  1  1  0  0  0  0
  7  2  1  0  0  0  0
  8  3  1  0  0  0  0
  4  9  1  0  0  0  0
  5  4  2  0  0  0  0
  6  5  1  0  0  0  0
  7  6  2  0  0  0  0
  8  7  1  0  0  0  0
  9  8  2  0  0  0  0
 14 10  1  0  0  0  0
 12 11  2  0  0  0  0
 13 12  1  0  0  0  0
 14 13  1  0  0  0  0
 15 14  1  0  0  0  0
 16 15  1  0  0  0  0
M  END
>  <cdx:fragmentId>
19

$$$$
