576929.cdx
  Mrv1902 05222410182D          

 12 12  0  0  0  0            999 V2000
    6.2295   -7.2497    0.0000 C   0  0  0  0  0  0  0  0  0  0  0  0
    6.9440   -6.8372    0.0000 C   0  0  0  0  0  0  0  0  0  0  0  0
    7.6585   -7.2497    0.0000 C   0  0  0  0  0  0  0  0  0  0  0  0
    7.6585   -8.0747    0.0000 C   0  0  0  0  0  0  0  0  0  0  0  0
    6.9440   -8.4872    0.0000 C   0  0  0  0  0  0  0  0  0  0  0  0
    6.2295   -8.0747    0.0000 C   0  0  0  0  0  0  0  0  0  0  0  0
    8.3730   -8.4872    0.0000 C   0  0  0  0  0  0  0  0  0  0  0  0
    9.0874   -8.0747    0.0000 C   0  0  0  0  0  0  0  0  0  0  0  0
    9.0874   -7.2497    0.0000 C   0  0  0  0  0  0  0  0  0  0  0  0
    9.8019   -8.4872    0.0000 C   0  0  0  0  0  0  0  0  0  0  0  0
    5.5151   -6.8372    0.0000 C   0  0  0  0  0  0  0  0  0  0  0  0
    4.8006   -7.2497    0.0000 C   0  0  0  0  0  0  0  0  0  0  0  0
  1  2  1  0  0  0  0
  2  3  2  0  0  0  0
  3  4  1  0  0  0  0
  4  5  2  0  0  0  0
  5  6  1  0  0  0  0
  1  6  2  0  0  0  0
  7  8  1  0  0  0  0
  8  9  1  0  0  0  0
 10  8  1  0  0  0  0
  4  7  1  0  0  0  0
 11 12  1  0  0  0  0
  1 11  1  0  0  0  0
M  END
>  <cdx:fragmentId>
2940

$$$$
