5769.cdx
  Mrv1902 05222410192D          

 15 15  0  0  0  0            999 V2000
    3.4214   -5.7383    0.0000 C   0  0  0  0  0  0  0  0  0  0  0  0
    4.1377   -5.3291    0.0000 O   0  0  0  0  0  0  0  0  0  0  0  0
    4.1301   -6.9791    0.0000 O   0  0  0  0  0  0  0  0  0  0  0  0
    6.2754   -6.5765    0.0000 C   0  0  0  0  0  0  0  0  0  0  0  0
    6.2792   -5.7516    0.0000 C   0  0  0  0  0  0  0  0  0  0  0  0
    5.5667   -5.3358    0.0000 C   0  0  0  0  0  0  0  0  0  0  0  0
    4.8503   -5.7449    0.0000 C   0  0  0  0  0  0  0  0  0  0  0  0
    4.8465   -6.5699    0.0000 C   0  0  0  0  0  0  0  0  0  0  0  0
    5.5590   -6.9857    0.0000 C   0  0  0  0  0  0  0  0  0  0  0  0
   10.6156   -5.7585    0.0000 O   0  0  0  0  0  0  0  0  0  0  0  0
    9.9046   -5.3400    0.0000 C   0  0  0  0  0  0  0  0  0  0  0  0
    9.1867   -5.7464    0.0000 C   0  0  0  0  0  0  0  0  0  0  0  0
    8.4757   -5.3279    0.0000 C   0  0  0  0  0  0  0  0  0  0  0  0
    7.7578   -5.7343    0.0000 C   0  0  0  0  0  0  0  0  0  0  0  0
    7.0469   -5.3158    0.0000 C   0  0  0  0  0  0  0  0  0  0  0  0
  2  1  1  0  0  0  0
 15  5  1  0  0  0  0
  7  2  1  0  0  0  0
  8  3  1  0  0  0  0
  4  9  1  0  0  0  0
  5  4  2  0  0  0  0
  6  5  1  0  0  0  0
  7  6  2  0  0  0  0
  8  7  1  0  0  0  0
  9  8  2  0  0  0  0
 11 10  2  0  0  0  0
 12 11  1  0  0  0  0
 13 12  2  0  0  0  0
 14 13  1  0  0  0  0
 15 14  1  0  0  0  0
M  END
>  <cdx:fragmentId>
19

$$$$
