576961.cdx
  Mrv1902 05222410212D          

 17 18  0  0  0  0            999 V2000
   14.4443  -13.4083    0.0000 C   0  0  0  0  0  0  0  0  0  0  0  0
   13.7298  -13.8208    0.0000 C   0  0  0  0  0  0  0  0  0  0  0  0
   13.7298  -14.6458    0.0000 C   0  0  0  0  0  0  0  0  0  0  0  0
   13.0153  -15.0583    0.0000 C   0  0  0  0  0  0  0  0  0  0  0  0
   12.3009  -14.6458    0.0000 C   0  0  0  0  0  0  0  0  0  0  0  0
   12.3009  -13.8208    0.0000 C   0  0  0  0  0  0  0  0  0  0  0  0
   13.0153  -13.4083    0.0000 C   0  0  0  0  0  0  0  0  0  0  0  0
   14.4443  -12.5833    0.0000 O   0  0  0  0  0  0  0  0  0  0  0  0
   15.1588  -13.8208    0.0000 N   0  0  0  0  0  0  0  0  0  0  0  0
   14.4443  -15.0583    0.0000 C   0  0  0  0  0  0  0  0  0  0  0  0
   15.8732  -13.4083    0.0000 C   0  0  0  0  0  0  0  0  0  0  0  0
   15.8732  -12.5833    0.0000 C   0  0  0  0  0  0  0  0  0  0  0  0
   16.5877  -12.1708    0.0000 C   0  0  0  0  0  0  0  0  0  0  0  0
   17.3022  -12.5833    0.0000 C   0  0  0  0  0  0  0  0  0  0  0  0
   17.3022  -13.4083    0.0000 C   0  0  0  0  0  0  0  0  0  0  0  0
   16.5877  -13.8208    0.0000 C   0  0  0  0  0  0  0  0  0  0  0  0
   18.0166  -12.1708    0.0000 O   0  0  0  0  0  0  0  0  0  0  0  0
  1  2  1  0  0  0  0
  2  3  1  0  0  0  0
  3  4  2  0  0  0  0
  4  5  1  0  0  0  0
  5  6  2  0  0  0  0
  6  7  1  0  0  0  0
  2  7  2  0  0  0  0
  1  8  2  0  0  0  0
  1  9  1  0  0  0  0
  3 10  1  0  0  0  0
 11 12  1  0  0  0  0
 12 13  2  0  0  0  0
 13 14  1  0  0  0  0
 14 15  2  0  0  0  0
 15 16  1  0  0  0  0
 11 16  2  0  0  0  0
 14 17  1  0  0  0  0
  9 11  1  0  0  0  0
M  END
>  <cdx:groupId>
3030

>  <cdx:fragmentId>
2981

$$$$
