5770.cdx
  Mrv1902 05222410272D          

 47 52  0  0  0  0            999 V2000
    9.0192   -4.1787    0.0000 C   0  0  1  0  0  0  0  0  0  0  0  0
    5.1030   -3.7700    0.0000 N   0  0  0  0  0  0  0  0  0  0  0  0
    5.5879   -3.1026    0.0000 C   0  0  0  0  0  0  0  0  0  0  0  0
    6.4084   -3.0163    0.0000 C   0  0  2  0  0  0  0  0  0  0  0  0
    6.7440   -2.2627    0.0000 N   0  0  0  0  0  0  0  0  0  0  0  0
    6.2590   -1.5952    0.0000 C   0  0  0  0  0  0  0  0  0  0  0  0
    5.4386   -1.6815    0.0000 C   0  0  0  0  0  0  0  0  0  0  0  0
    5.1030   -2.4351    0.0000 C   0  0  0  0  0  0  0  0  0  0  0  0
    4.3184   -2.6901    0.0000 C   0  0  0  0  0  0  0  0  0  0  0  0
    3.6039   -2.2776    0.0000 C   0  0  0  0  0  0  0  0  0  0  0  0
    2.8894   -2.6901    0.0000 C   0  0  0  0  0  0  0  0  0  0  0  0
    2.9101   -3.5151    0.0000 C   0  0  0  0  0  0  0  0  0  0  0  0
    3.6039   -3.9276    0.0000 C   0  0  0  0  0  0  0  0  0  0  0  0
    4.3184   -3.5151    0.0000 C   0  0  0  0  0  0  0  0  0  0  0  0
    7.5644   -2.1764    0.0000 C   0  0  0  0  0  0  0  0  0  0  0  0
    8.0494   -2.8439    0.0000 C   0  0  1  0  0  0  0  0  0  0  0  0
    8.8698   -2.7576    0.0000 C   0  0  0  0  0  0  0  0  0  0  0  0
    9.3548   -3.4251    0.0000 C   0  0  1  0  0  0  0  0  0  0  0  0
    8.2088   -4.2694    0.0000 C   0  0  2  0  0  0  0  0  0  0  0  0
    7.7138   -3.5975    0.0000 C   0  0  1  0  0  0  0  0  0  0  0  0
    6.8933   -3.6838    0.0000 C   0  0  0  0  0  0  0  0  0  0  0  0
    8.3849   -2.0902    0.0000 H   0  0  0  0  0  0  0  0  0  0  0  0
    7.3783   -4.3512    0.0000 H   0  0  0  0  0  0  0  0  0  0  0  0
    6.0729   -3.7700    0.0000 H   0  0  0  0  0  0  0  0  0  0  0  0
    1.5190   -3.4813    0.0000 C   0  0  0  0  0  0  0  0  0  0  0  0
    2.2265   -3.9057    0.0000 O   0  0  0  0  0  0  0  0  0  0  0  0
    9.5183   -4.8766    0.0000 O   0  0  0  0  0  0  0  0  0  0  0  0
    9.1697   -5.6243    0.0000 C   0  0  0  0  0  0  0  0  0  0  0  0
    7.9547   -5.0837    0.0000 C   0  0  0  0  0  0  0  0  0  0  0  0
    8.5058   -5.6977    0.0000 O   0  0  0  0  0  0  0  0  0  0  0  0
    7.1475   -5.2539    0.0000 O   0  0  0  0  0  0  0  0  0  0  0  0
    6.8913   -6.0382    0.0000 C   0  0  0  0  0  0  0  0  0  0  0  0
   10.1901   -3.1062    0.0000 O   0  0  0  0  0  0  0  0  0  0  0  0
   10.9192   -3.4957    0.0000 C   0  0  0  0  0  0  0  0  0  0  0  0
   11.5650   -3.1167    0.0000 C   0  0  0  0  0  0  0  0  0  0  0  0
   12.2433   -3.5452    0.0000 C   0  0  0  0  0  0  0  0  0  0  0  0
   12.9398   -3.1271    0.0000 C   0  0  0  0  0  0  0  0  0  0  0  0
   12.9579   -2.2805    0.0000 C   0  0  0  0  0  0  0  0  0  0  0  0
   12.2795   -1.8519    0.0000 C   0  0  0  0  0  0  0  0  0  0  0  0
   11.5831   -2.2700    0.0000 C   0  0  0  0  0  0  0  0  0  0  0  0
   10.9014   -4.3282    0.0000 O   0  0  0  0  0  0  0  0  0  0  0  0
   12.2976   -1.0053    0.0000 O   0  0  0  0  0  0  0  0  0  0  0  0
   13.0093   -0.5974    0.0000 C   0  0  0  0  0  0  0  0  0  0  0  0
   13.6544   -1.8624    0.0000 O   0  0  0  0  0  0  0  0  0  0  0  0
   13.6763   -1.0188    0.0000 C   0  0  0  0  0  0  0  0  0  0  0  0
   13.6182   -3.5557    0.0000 O   0  0  0  0  0  0  0  0  0  0  0  0
   13.6051   -4.3488    0.0000 C   0  0  0  0  0  0  0  0  0  0  0  0
  2  3  1  0  0  0  0
  3  4  1  0  0  0  0
  4  5  1  0  0  0  0
  5  6  1  0  0  0  0
  6  7  1  0  0  0  0
  7  8  1  0  0  0  0
  3  8  2  0  0  0  0
  8  9  1  0  0  0  0
  9 10  1  0  0  0  0
 10 11  2  0  0  0  0
 11 12  1  0  0  0  0
 12 13  2  0  0  0  0
 13 14  1  0  0  0  0
  9 14  2  0  0  0  0
  2 14  1  0  0  0  0
  5 15  1  0  0  0  0
 15 16  1  0  0  0  0
 16 17  1  0  0  0  0
 17 18  1  0  0  0  0
  1 18  1  0  0  0  0
  1 19  1  0  0  0  0
 19 20  1  0  0  0  0
 16 20  1  0  0  0  0
 20 21  1  0  0  0  0
  4 21  1  0  0  0  0
 16 22  1  6  0  0  0
 20 23  1  6  0  0  0
  4 24  1  1  0  0  0
 25 26  1  0  0  0  0
 27 28  1  0  0  0  0
 29 30  2  0  0  0  0
 29 31  1  0  0  0  0
 31 32  1  0  0  0  0
 34 35  1  0  0  0  0
 35 36  1  0  0  0  0
 36 37  2  0  0  0  0
 37 38  1  0  0  0  0
 38 39  2  0  0  0  0
 39 40  1  0  0  0  0
 35 40  2  0  0  0  0
 34 41  2  0  0  0  0
 42 43  1  0  0  0  0
 39 42  1  0  0  0  0
 44 45  1  0  0  0  0
 38 44  1  0  0  0  0
 46 47  1  0  0  0  0
 37 46  1  0  0  0  0
 33 34  1  0  0  0  0
 19 29  1  1  0  0  0
  1 27  1  6  0  0  0
 18 33  1  1  0  0  0
 12 26  1  0  0  0  0
M  END
>  <cdx:groupId>
307

>  <cdx:fragmentId>
166

$$$$
