577126.cdx
  Mrv1902 05222410252D          

 14 14  0  0  0  0            999 V2000
    9.3656   -7.7607    0.0000 C   0  0  0  0  0  0  0  0  0  0  0  0
    8.6511   -7.3482    0.0000 C   0  0  0  0  0  0  0  0  0  0  0  0
    7.9367   -7.7607    0.0000 C   0  0  0  0  0  0  0  0  0  0  0  0
    7.2222   -7.3482    0.0000 C   0  0  0  0  0  0  0  0  0  0  0  0
    8.6511   -6.5232    0.0000 O   0  0  0  0  0  0  0  0  0  0  0  0
    6.5077   -7.7607    0.0000 C   0  0  0  0  0  0  0  0  0  0  0  0
    5.7932   -7.3482    0.0000 C   0  0  0  0  0  0  0  0  0  0  0  0
    5.0788   -7.7607    0.0000 C   0  0  0  0  0  0  0  0  0  0  0  0
    5.0788   -8.5857    0.0000 C   0  0  0  0  0  0  0  0  0  0  0  0
    5.7932   -8.9982    0.0000 C   0  0  0  0  0  0  0  0  0  0  0  0
    6.5077   -8.5857    0.0000 C   0  0  0  0  0  0  0  0  0  0  0  0
    6.9202   -9.3001    0.0000 C   0  0  0  0  0  0  0  0  0  0  0  0
    7.3327   -8.5857    0.0000 C   0  0  0  0  0  0  0  0  0  0  0  0
    5.7932   -6.5232    0.0000 C   0  0  0  0  0  0  0  0  0  0  0  0
  1  2  1  0  0  0  0
  2  3  1  0  0  0  0
  3  4  1  0  0  0  0
  2  5  2  0  0  0  0
  6  7  2  0  0  0  0
  7  8  1  0  0  0  0
  8  9  2  0  0  0  0
  9 10  1  0  0  0  0
 10 11  1  0  0  0  0
  6 11  1  0  0  0  0
 11 12  1  0  0  0  0
 11 13  1  0  0  0  0
  7 14  1  0  0  0  0
  4  6  1  0  0  0  0
M  END
>  <cdx:groupId>
3078

>  <cdx:fragmentId>
3049

$$$$
