11057730.cdx
  Mrv1902 05222410222D          

 29 32  0  0  0  0            999 V2000
    6.5642  -11.2986    0.0000 C   0  0  1  0  0  0  0  0  0  0  0  0
    7.0786  -10.6535    0.0000 C   0  0  0  0  0  0  0  0  0  0  0  0
    7.9036  -10.6535    0.0000 C   0  0  2  0  0  0  0  0  0  0  0  0
    8.4180  -11.2986    0.0000 C   0  0  2  0  0  0  0  0  0  0  0  0
    9.2396  -11.2246    0.0000 C   0  0  0  0  0  0  0  0  0  0  0  0
    9.5639  -11.9832    0.0000 C   0  0  2  0  0  0  0  0  0  0  0  0
    8.9426  -12.5260    0.0000 C   0  0  0  0  0  0  0  0  0  0  0  0
    8.2344  -12.1029    0.0000 C   0  0  1  0  0  0  0  0  0  0  0  0
    7.4911  -12.4608    0.0000 C   0  0  1  0  0  0  0  0  0  0  0  0
    6.7478  -12.1029    0.0000 C   0  0  2  0  0  0  0  0  0  0  0  0
    6.2334  -12.7479    0.0000 C   0  0  0  0  0  0  0  0  0  0  0  0
    5.4084  -12.7479    0.0000 C   0  0  0  0  0  0  0  0  0  0  0  0
    4.8940  -12.1029    0.0000 C   0  0  1  0  0  0  0  0  0  0  0  0
    5.0776  -11.2986    0.0000 C   0  0  1  0  0  0  0  0  0  0  0  0
    5.8209  -10.9406    0.0000 C   0  0  0  0  0  0  0  0  0  0  0  0
    5.4980  -11.2186    0.0000 C   0  0  1  0  0  0  0  0  0  0  0  0
    8.3161   -9.9391    0.0000 O   0  0  0  0  0  0  0  0  0  0  0  0
    8.7422  -10.5399    0.0000 O   0  0  0  0  0  0  0  0  0  0  0  0
   10.3682  -12.1668    0.0000 O   0  0  0  0  0  0  0  0  0  0  0  0
    7.9643  -13.1366    0.0000 O   0  0  0  0  0  0  0  0  0  0  0  0
    4.2618  -11.1756    0.0000 O   0  0  0  0  0  0  0  0  0  0  0  0
    5.0855  -10.5042    0.0000 O   0  0  0  0  0  0  0  0  0  0  0  0
    4.7762  -10.5306    0.0000 C   0  0  0  0  0  0  0  0  0  0  0  0
    7.2089  -13.2361    0.0000 C   0  0  0  0  0  0  0  0  0  0  0  0
    9.2396  -10.3996    0.0000 C   0  0  0  0  0  0  0  0  0  0  0  0
    9.9541  -10.8121    0.0000 C   0  0  0  0  0  0  0  0  0  0  0  0
    7.5894  -11.5885    0.0000 H   0  0  0  0  0  0  0  0  0  0  0  0
    6.7889  -12.9268    0.0000 H   0  0  0  0  0  0  0  0  0  0  0  0
    4.0897  -12.2864    0.0000 H   0  0  0  0  0  0  0  0  0  0  0  0
  1  2  1  0  0  0  0
  2  3  1  0  0  0  0
  3  4  1  0  0  0  0
  4  5  1  0  0  0  0
  5  6  1  0  0  0  0
  6  7  1  0  0  0  0
  7  8  1  0  0  0  0
  8  9  1  0  0  0  0
  9 10  1  0  0  0  0
 10 11  1  0  0  0  0
 11 12  1  0  0  0  0
 12 13  1  0  0  0  0
 13 14  1  0  0  0  0
 14 15  1  0  0  0  0
  1 15  1  1  0  0  0
  1 16  1  0  0  0  0
 16 13  1  0  0  0  0
  1 10  1  0  0  0  0
  4  8  1  0  0  0  0
  3 17  1  1  0  0  0
  4 18  1  1  0  0  0
  6 19  1  1  0  0  0
  9 20  1  6  0  0  0
 14 21  1  6  0  0  0
 16 22  1  1  0  0  0
 14 23  1  1  0  0  0
  9 24  1  1  0  0  0
  5 25  1  0  0  0  0
  5 26  1  0  0  0  0
  8 27  1  6  0  0  0
 10 28  1  1  0  0  0
 13 29  1  6  0  0  0
M  END
>  <cdx:groupId>
1985

>  <cdx:fragmentId>
1898

$$$$
