577312.cdx
  Mrv1902 05222410222D          

 32 35  0  0  0  0            999 V2000
    9.9474  -10.0331    0.0000 O   0  0  0  0  0  0  0  0  0  0  0  0
    7.0962  -10.8807    0.0000 O   0  0  0  0  0  0  0  0  0  0  0  0
    7.0700   -7.5808    0.0000 O   0  0  0  0  0  0  0  0  0  0  0  0
   12.0679   -7.1287    0.0000 O   0  0  0  0  0  0  0  0  0  0  0  0
    9.9278   -7.5582    0.0000 C   0  0  0  0  0  0  0  0  0  0  0  0
   10.6390   -7.1400    0.0000 C   0  0  0  0  0  0  0  0  0  0  0  0
   11.3567   -7.5468    0.0000 C   0  0  0  0  0  0  0  0  0  0  0  0
   11.3633   -8.3718    0.0000 C   0  0  0  0  0  0  0  0  0  0  0  0
   10.6521   -8.7900    0.0000 C   0  0  0  0  0  0  0  0  0  0  0  0
    9.9344   -8.3831    0.0000 C   0  0  0  0  0  0  0  0  0  0  0  0
    5.6607  -10.0670    0.0000 O   0  0  0  0  0  0  0  0  0  0  0  0
    4.2384  -10.9033    0.0000 O   0  0  0  0  0  0  0  0  0  0  0  0
    2.8030  -10.0897    0.0000 O   0  0  0  0  0  0  0  0  0  0  0  0
    2.7899   -8.4397    0.0000 C   0  0  0  0  0  0  0  0  0  0  0  0
    3.5076   -8.8466    0.0000 C   0  0  1  0  0  0  0  0  0  0  0  0
    3.5141   -9.6715    0.0000 C   0  0  1  0  0  0  0  0  0  0  0  0
    4.2318  -10.0784    0.0000 C   0  0  2  0  0  0  0  0  0  0  0  0
    4.9430   -9.6602    0.0000 C   0  0  2  0  0  0  0  0  0  0  0  0
    4.9365   -8.8352    0.0000 C   0  0  1  0  0  0  0  0  0  0  0  0
    4.2188   -8.4284    0.0000 O   0  0  0  0  0  0  0  0  0  0  0  0
    5.6477   -8.4171    0.0000 O   0  0  0  0  0  0  0  0  0  0  0  0
    8.5251  -10.8694    0.0000 O   0  0  0  0  0  0  0  0  0  0  0  0
    8.5055   -8.3945    0.0000 O   0  0  0  0  0  0  0  0  0  0  0  0
    7.7943   -8.8126    0.0000 C   0  0  0  0  0  0  0  0  0  0  0  0
    7.0766   -8.4058    0.0000 C   0  0  0  0  0  0  0  0  0  0  0  0
    6.3654   -8.8239    0.0000 C   0  0  0  0  0  0  0  0  0  0  0  0
    6.3719   -9.6489    0.0000 C   0  0  0  0  0  0  0  0  0  0  0  0
    7.0896  -10.0557    0.0000 C   0  0  0  0  0  0  0  0  0  0  0  0
    7.8008   -9.6376    0.0000 C   0  0  0  0  0  0  0  0  0  0  0  0
    8.5185  -10.0444    0.0000 C   0  0  0  0  0  0  0  0  0  0  0  0
    9.2297   -9.6263    0.0000 C   0  0  0  0  0  0  0  0  0  0  0  0
    9.2232   -8.8013    0.0000 C   0  0  0  0  0  0  0  0  0  0  0  0
 31  1  1  0  0  0  0
 28  2  1  0  0  0  0
 25  3  1  0  0  0  0
 32 10  1  0  0  0  0
  7  4  1  0  0  0  0
 10  5  2  0  0  0  0
  6  5  1  0  0  0  0
  7  6  2  0  0  0  0
  8  7  1  0  0  0  0
  9  8  2  0  0  0  0
 10  9  1  0  0  0  0
 26 21  1  0  0  0  0
 19 21  1  1  0  0  0
 18 11  1  6  0  0  0
 17 12  1  6  0  0  0
 16 13  1  1  0  0  0
 15 14  1  6  0  0  0
 20 15  1  0  0  0  0
 16 15  1  0  0  0  0
 17 16  1  0  0  0  0
 18 17  1  0  0  0  0
 19 18  1  0  0  0  0
 20 19  1  0  0  0  0
 30 22  2  0  0  0  0
 32 23  1  0  0  0  0
 24 23  1  0  0  0  0
 29 24  2  0  0  0  0
 25 24  1  0  0  0  0
 26 25  2  0  0  0  0
 27 26  1  0  0  0  0
 28 27  2  0  0  0  0
 29 28  1  0  0  0  0
 30 29  1  0  0  0  0
 31 30  1  0  0  0  0
 32 31  2  0  0  0  0
M  END
>  <cdx:groupId>
82689

>  <cdx:fragmentId>
82593

$$$$
