44577487.cdx
  Mrv1902 05222410242D          

 42 48  0  0  0  0            999 V2000
    8.2902  -13.5957    0.0000 C   0  0  1  0  0  0  0  0  0  0  0  0
    8.0265  -14.3774    0.0000 C   0  0  1  0  0  0  0  0  0  0  0  0
    8.3222  -15.1476    0.0000 C   0  0  1  0  0  0  0  0  0  0  0  0
    7.7388  -14.5643    0.0000 O   0  0  0  0  0  0  0  0  0  0  0  0
    6.9138  -14.5643    0.0000 C   0  0  2  0  0  0  0  0  0  0  0  0
    6.3304  -15.1476    0.0000 C   0  0  2  0  0  0  0  0  0  0  0  0
    5.6160  -14.7351    0.0000 C   0  0  1  0  0  0  0  0  0  0  0  0
    4.9015  -15.1476    0.0000 C   0  0  0  0  0  0  0  0  0  0  0  0
    4.9015  -15.9726    0.0000 C   0  0  0  0  0  0  0  0  0  0  0  0
    4.1870  -16.3851    0.0000 C   0  0  0  0  0  0  0  0  0  0  0  0
    4.1870  -17.2101    0.0000 C   0  0  0  0  0  0  0  0  0  0  0  0
    4.9015  -17.6226    0.0000 C   0  0  0  0  0  0  0  0  0  0  0  0
    5.6160  -17.2101    0.0000 C   0  0  0  0  0  0  0  0  0  0  0  0
    5.6160  -16.3851    0.0000 C   0  0  2  0  0  0  0  0  0  0  0  0
    6.3304  -15.9726    0.0000 C   0  0  1  0  0  0  0  0  0  0  0  0
    6.9138  -16.5560    0.0000 C   0  0  0  0  0  0  0  0  0  0  0  0
    7.7388  -16.5560    0.0000 C   0  0  0  0  0  0  0  0  0  0  0  0
    8.3222  -15.9726    0.0000 C   0  0  2  0  0  0  0  0  0  0  0  0
    9.1068  -16.2276    0.0000 C   0  0  0  0  0  0  0  0  0  0  0  0
    9.5917  -15.5601    0.0000 O   0  0  0  0  0  0  0  0  0  0  0  0
    9.1068  -14.8927    0.0000 C   0  0  1  0  0  0  0  0  0  0  0  0
    9.5492  -14.1962    0.0000 C   0  0  2  0  0  0  0  0  0  0  0  0
    9.8949  -13.4699    0.0000 O   0  0  0  0  0  0  0  0  0  0  0  0
    9.4391  -12.8072    0.0000 C   0  0  0  0  0  0  0  0  0  0  0  0
    8.6372  -12.8700    0.0000 C   0  0  0  0  0  0  0  0  0  0  0  0
    9.1094  -13.4982    0.0000 C   0  0  0  0  0  0  0  0  0  0  0  0
    7.3703  -13.8771    0.0000 C   0  0  0  0  0  0  0  0  0  0  0  0
    6.3304  -17.6226    0.0000 O   0  0  0  0  0  0  0  0  0  0  0  0
    9.3617  -17.0122    0.0000 O   0  0  0  0  0  0  0  0  0  0  0  0
    9.8516  -12.0927    0.0000 O   0  0  0  0  0  0  0  0  0  0  0  0
    7.2335  -13.0635    0.0000 O   0  0  0  0  0  0  0  0  0  0  0  0
    8.2247  -12.1556    0.0000 C   0  0  0  0  0  0  0  0  0  0  0  0
    9.9318  -14.8927    0.0000 C   0  0  0  0  0  0  0  0  0  0  0  0
    5.6160  -15.5601    0.0000 C   0  0  0  0  0  0  0  0  0  0  0  0
    7.5913  -13.1573    0.0000 C   0  0  0  0  0  0  0  0  0  0  0  0
    8.5148  -16.7749    0.0000 O   0  0  0  0  0  0  0  0  0  0  0  0
    5.6160  -13.9101    0.0000 O   0  0  0  0  0  0  0  0  0  0  0  0
    6.3758  -13.9389    0.0000 O   0  0  0  0  0  0  0  0  0  0  0  0
    8.8513  -14.3604    0.0000 H   0  0  0  0  0  0  0  0  0  0  0  0
    6.0824  -14.3608    0.0000 H   0  0  0  0  0  0  0  0  0  0  0  0
    6.3304  -16.7976    0.0000 H   0  0  0  0  0  0  0  0  0  0  0  0
   10.2636  -14.6087    0.0000 H   0  0  0  0  0  0  0  0  0  0  0  0
  1  2  1  0  0  0  0
  2  3  1  0  0  0  0
  3  4  1  1  0  0  0
  5  4  1  1  0  0  0
  5  6  1  0  0  0  0
  6  7  1  0  0  0  0
  7  8  1  0  0  0  0
  8  9  2  0  0  0  0
  9 10  1  0  0  0  0
 10 11  1  0  0  0  0
 11 12  2  0  0  0  0
 12 13  1  0  0  0  0
 13 14  1  0  0  0  0
 14 15  1  0  0  0  0
 15 16  1  0  0  0  0
 16 17  1  0  0  0  0
 17 18  1  0  0  0  0
 18 19  1  0  0  0  0
 19 20  1  0  0  0  0
 20 21  1  0  0  0  0
 21 22  1  0  0  0  0
 22 23  1  0  0  0  0
 23 24  1  0  0  0  0
 24 25  1  0  0  0  0
  1 25  1  0  0  0  0
  1 26  1  6  0  0  0
 22 26  1  6  0  0  0
  3 21  1  0  0  0  0
  3 18  1  0  0  0  0
  6 15  1  0  0  0  0
  9 14  1  0  0  0  0
  5 27  1  0  0  0  0
 27  2  1  0  0  0  0
 13 28  2  0  0  0  0
 19 29  2  0  0  0  0
 24 30  2  0  0  0  0
 27 31  2  0  0  0  0
 25 32  2  0  0  0  0
 21 33  1  1  0  0  0
 14 34  1  6  0  0  0
  1 35  1  0  0  0  0
 18 36  1  6  0  0  0
  7 37  1  1  0  0  0
  5 38  1  0  0  0  0
  2 39  1  6  0  0  0
  6 40  1  6  0  0  0
 15 41  1  1  0  0  0
 22 42  1  0  0  0  0
M  END
>  <cdx:groupId>
169879

>  <cdx:fragmentId>
169750

$$$$
