44577484.cdx
  Mrv1902 05222410242D          

 43 50  0  0  0  0            999 V2000
    8.7951  -15.3612    0.0000 C   0  0  2  0  0  0  0  0  0  0  0  0
    9.5797  -15.1062    0.0000 C   0  0  1  0  0  0  0  0  0  0  0  0
   10.0646  -15.7737    0.0000 O   0  0  0  0  0  0  0  0  0  0  0  0
    9.5797  -16.4411    0.0000 C   0  0  0  0  0  0  0  0  0  0  0  0
    8.7951  -16.1862    0.0000 C   0  0  1  0  0  0  0  0  0  0  0  0
    8.2117  -16.7695    0.0000 C   0  0  0  0  0  0  0  0  0  0  0  0
    7.3867  -16.7695    0.0000 C   0  0  0  0  0  0  0  0  0  0  0  0
    6.8034  -16.1862    0.0000 C   0  0  2  0  0  0  0  0  0  0  0  0
    6.0889  -16.5987    0.0000 C   0  0  1  0  0  0  0  0  0  0  0  0
    6.0889  -17.4237    0.0000 C   0  0  0  0  0  0  0  0  0  0  0  0
    5.3744  -17.8362    0.0000 C   0  0  0  0  0  0  0  0  0  0  0  0
    4.6600  -17.4237    0.0000 C   0  0  2  0  0  0  0  0  0  0  0  0
    4.6600  -16.5987    0.0000 C   0  0  0  0  0  0  0  0  0  0  0  0
    5.3744  -16.1862    0.0000 C   0  0  0  0  0  0  0  0  0  0  0  0
    5.3744  -15.3612    0.0000 C   0  0  0  0  0  0  0  0  0  0  0  0
    6.0889  -14.9487    0.0000 C   0  0  0  0  0  0  0  0  0  0  0  0
    6.8034  -15.3612    0.0000 C   0  0  1  0  0  0  0  0  0  0  0  0
    7.3867  -14.7778    0.0000 C   0  0  1  0  0  0  0  0  0  0  0  0
    6.9176  -13.6240    0.0000 O   0  0  0  0  0  0  0  0  0  0  0  0
    7.4938  -13.0334    0.0000 C   0  0  0  0  0  0  0  0  0  0  0  0
    8.3148  -13.1157    0.0000 C   0  0  1  0  0  0  0  0  0  0  0  0
    9.3039  -12.6978    0.0000 C   0  0  0  0  0  0  0  0  0  0  0  0
   10.1586  -13.3457    0.0000 O   0  0  0  0  0  0  0  0  0  0  0  0
   10.0213  -14.4094    0.0000 C   0  0  2  0  0  0  0  0  0  0  0  0
    9.5815  -13.7114    0.0000 C   0  0  0  0  0  0  0  0  0  0  0  0
    8.7623  -13.8089    0.0000 C   0  0  1  0  0  0  0  0  0  0  0  0
    8.4994  -14.5910    0.0000 C   0  0  2  0  0  0  0  0  0  0  0  0
    8.2117  -14.7778    0.0000 O   0  0  0  0  0  0  0  0  0  0  0  0
    7.7241  -14.8731    0.0000 C   0  0  0  0  0  0  0  0  0  0  0  0
    9.8347  -17.2257    0.0000 O   0  0  0  0  0  0  0  0  0  0  0  0
    6.8034  -17.8362    0.0000 O   0  0  0  0  0  0  0  0  0  0  0  0
    9.4063  -11.8792    0.0000 O   0  0  0  0  0  0  0  0  0  0  0  0
    7.7241  -15.6981    0.0000 O   0  0  0  0  0  0  0  0  0  0  0  0
    9.0717  -13.2730    0.0000 C   0  0  0  0  0  0  0  0  0  0  0  0
    6.0889  -15.7737    0.0000 C   0  0  0  0  0  0  0  0  0  0  0  0
   10.4047  -15.1062    0.0000 C   0  0  0  0  0  0  0  0  0  0  0  0
    3.9455  -17.8362    0.0000 O   0  0  0  0  0  0  0  0  0  0  0  0
    8.9877  -16.9884    0.0000 O   0  0  0  0  0  0  0  0  0  0  0  0
    6.8034  -17.0112    0.0000 H   0  0  0  0  0  0  0  0  0  0  0  0
    6.6957  -14.5432    0.0000 H   0  0  0  0  0  0  0  0  0  0  0  0
    8.1915  -12.3000    0.0000 H   0  0  0  0  0  0  0  0  0  0  0  0
   10.7973  -14.6896    0.0000 H   0  0  0  0  0  0  0  0  0  0  0  0
    7.9089  -14.0149    0.0000 H   0  0  0  0  0  0  0  0  0  0  0  0
  1  2  1  0  0  0  0
  2  3  1  0  0  0  0
  3  4  1  0  0  0  0
  4  5  1  0  0  0  0
  5  6  1  0  0  0  0
  6  7  1  0  0  0  0
  7  8  1  0  0  0  0
  8  9  1  0  0  0  0
  9 10  1  0  0  0  0
 10 11  1  0  0  0  0
 11 12  1  0  0  0  0
 12 13  1  0  0  0  0
 13 14  2  0  0  0  0
 14 15  1  0  0  0  0
 15 16  2  0  0  0  0
 16 17  1  0  0  0  0
 17 18  1  0  0  0  0
 18 19  1  0  0  0  0
 19 20  1  0  0  0  0
 20 21  1  0  0  0  0
 21 22  1  0  0  0  0
 22 23  1  0  0  0  0
 23 24  1  0  0  0  0
 24 25  1  6  0  0  0
 25 26  1  0  0  0  0
 26 27  1  0  0  0  0
  1 27  1  0  0  0  0
  1 28  1  1  0  0  0
 18 28  1  1  0  0  0
 27 29  1  0  0  0  0
 29 18  1  0  0  0  0
 21 26  1  0  0  0  0
  2 24  1  0  0  0  0
  8 17  1  0  0  0  0
  9 14  1  0  0  0  0
  1  5  1  0  0  0  0
  4 30  2  0  0  0  0
 10 31  2  0  0  0  0
 22 32  2  0  0  0  0
 29 33  2  0  0  0  0
 26 34  1  6  0  0  0
  9 35  1  6  0  0  0
  2 36  1  1  0  0  0
 12 37  1  1  0  0  0
  5 38  1  6  0  0  0
  8 39  1  1  0  0  0
 17 40  1  6  0  0  0
 21 41  1  6  0  0  0
 24 42  1  0  0  0  0
 27 43  1  6  0  0  0
M  END
>  <cdx:groupId>
169430

>  <cdx:fragmentId>
169297

$$$$
