44577486.cdx
  Mrv1902 05222410242D          

 43 49  0  0  0  0            999 V2000
    8.7294  -13.8166    0.0000 C   0  0  1  0  0  0  0  0  0  0  0  0
    8.5159  -14.6135    0.0000 C   0  0  2  0  0  0  0  0  0  0  0  0
    9.0993  -15.1969    0.0000 C   0  0  1  0  0  0  0  0  0  0  0  0
    8.4915  -15.7238    0.0000 O   0  0  0  0  0  0  0  0  0  0  0  0
    7.7483  -15.4160    0.0000 C   0  0  0  0  0  0  0  0  0  0  0  0
    7.6909  -14.6135    0.0000 C   0  0  1  0  0  0  0  0  0  0  0  0
    7.1075  -15.1969    0.0000 C   0  0  2  0  0  0  0  0  0  0  0  0
    6.3931  -14.7844    0.0000 C   0  0  0  0  0  0  0  0  0  0  0  0
    5.6786  -15.1969    0.0000 C   0  0  0  0  0  0  0  0  0  0  0  0
    5.6786  -16.0219    0.0000 C   0  0  0  0  0  0  0  0  0  0  0  0
    4.9641  -16.4344    0.0000 C   0  0  0  0  0  0  0  0  0  0  0  0
    4.9641  -17.2594    0.0000 C   0  0  1  0  0  0  0  0  0  0  0  0
    5.6786  -17.6719    0.0000 C   0  0  0  0  0  0  0  0  0  0  0  0
    6.3931  -17.2594    0.0000 C   0  0  0  0  0  0  0  0  0  0  0  0
    6.3931  -16.4344    0.0000 C   0  0  2  0  0  0  0  0  0  0  0  0
    7.1075  -16.0219    0.0000 C   0  0  1  0  0  0  0  0  0  0  0  0
    7.6909  -16.6053    0.0000 C   0  0  0  0  0  0  0  0  0  0  0  0
    8.5159  -16.6053    0.0000 C   0  0  0  0  0  0  0  0  0  0  0  0
    9.0993  -16.0219    0.0000 C   0  0  2  0  0  0  0  0  0  0  0  0
    9.8712  -16.3108    0.0000 C   0  0  0  0  0  0  0  0  0  0  0  0
   10.3734  -15.6563    0.0000 O   0  0  0  0  0  0  0  0  0  0  0  0
    9.8961  -14.9834    0.0000 C   0  0  1  0  0  0  0  0  0  0  0  0
   10.1097  -14.1865    0.0000 C   0  0  2  0  0  0  0  0  0  0  0  0
   10.3026  -13.4056    0.0000 O   0  0  0  0  0  0  0  0  0  0  0  0
    9.7303  -12.8403    0.0000 C   0  0  0  0  0  0  0  0  0  0  0  0
    8.9521  -13.0437    0.0000 C   0  0  1  0  0  0  0  0  0  0  0  0
    9.5263  -13.6031    0.0000 C   0  0  0  0  0  0  0  0  0  0  0  0
    7.8317  -16.2368    0.0000 O   0  0  0  0  0  0  0  0  0  0  0  0
    7.1075  -17.6719    0.0000 O   0  0  0  0  0  0  0  0  0  0  0  0
   10.0984  -17.1039    0.0000 O   0  0  0  0  0  0  0  0  0  0  0  0
    9.9438  -12.0435    0.0000 O   0  0  0  0  0  0  0  0  0  0  0  0
    8.3760  -12.4531    0.0000 C   0  0  0  0  0  0  0  0  0  0  0  0
   10.7082  -14.8377    0.0000 C   0  0  0  0  0  0  0  0  0  0  0  0
    6.3931  -15.6094    0.0000 C   0  0  0  0  0  0  0  0  0  0  0  0
    7.9850  -13.4610    0.0000 C   0  0  0  0  0  0  0  0  0  0  0  0
    4.2496  -17.6719    0.0000 O   0  0  0  0  0  0  0  0  0  0  0  0
    3.5352  -17.2594    0.0000 C   0  0  0  0  0  0  0  0  0  0  0  0
    9.2741  -16.8281    0.0000 O   0  0  0  0  0  0  0  0  0  0  0  0
    7.1286  -14.0098    0.0000 O   0  0  0  0  0  0  0  0  0  0  0  0
    7.9076  -14.0562    0.0000 H   0  0  0  0  0  0  0  0  0  0  0  0
    6.9998  -14.3790    0.0000 H   0  0  0  0  0  0  0  0  0  0  0  0
    7.1075  -16.8469    0.0000 H   0  0  0  0  0  0  0  0  0  0  0  0
   10.9086  -14.3922    0.0000 H   0  0  0  0  0  0  0  0  0  0  0  0
  1  2  1  0  0  0  0
  2  3  1  0  0  0  0
  3  4  1  1  0  0  0
  4  5  1  0  0  0  0
  6  5  1  6  0  0  0
  6  7  1  0  0  0  0
  7  8  1  0  0  0  0
  8  9  2  0  0  0  0
  9 10  1  0  0  0  0
 10 11  2  0  0  0  0
 11 12  1  0  0  0  0
 12 13  1  0  0  0  0
 13 14  1  0  0  0  0
 14 15  1  0  0  0  0
 15 16  1  0  0  0  0
 16 17  1  0  0  0  0
 17 18  1  0  0  0  0
 18 19  1  0  0  0  0
 19 20  1  0  0  0  0
 20 21  1  0  0  0  0
 21 22  1  0  0  0  0
 22 23  1  0  0  0  0
 23 24  1  0  0  0  0
 24 25  1  0  0  0  0
 25 26  1  0  0  0  0
  1 26  1  0  0  0  0
  1 27  1  6  0  0  0
 23 27  1  6  0  0  0
  3 22  1  0  0  0  0
  3 19  1  0  0  0  0
  7 16  1  0  0  0  0
 10 15  1  0  0  0  0
  2  6  1  0  0  0  0
  5 28  2  0  0  0  0
 14 29  2  0  0  0  0
 20 30  2  0  0  0  0
 25 31  2  0  0  0  0
 26 32  1  6  0  0  0
 22 33  1  1  0  0  0
 15 34  1  6  0  0  0
  1 35  1  0  0  0  0
 36 37  1  0  0  0  0
 12 36  1  1  0  0  0
 19 38  1  6  0  0  0
  6 39  1  0  0  0  0
  2 40  1  1  0  0  0
  7 41  1  6  0  0  0
 16 42  1  1  0  0  0
 23 43  1  0  0  0  0
M  END
>  <cdx:groupId>
169731

>  <cdx:fragmentId>
169599

$$$$
