577600.cdx
  Mrv1902 05222410192D          

 12 13  0  0  0  0            999 V2000
   15.1719  -13.2835    0.0000 C   0  0  0  0  0  0  0  0  0  0  0  0
   15.8864  -13.6960    0.0000 C   0  0  0  0  0  0  0  0  0  0  0  0
   15.8864  -14.5210    0.0000 C   0  0  0  0  0  0  0  0  0  0  0  0
   15.1719  -14.9335    0.0000 C   0  0  0  0  0  0  0  0  0  0  0  0
   14.4574  -14.5210    0.0000 C   0  0  0  0  0  0  0  0  0  0  0  0
   14.4574  -13.6960    0.0000 C   0  0  0  0  0  0  0  0  0  0  0  0
   14.8363  -14.1088    0.0000 C   0  0  0  0  0  0  0  0  0  0  0  0
   16.6008  -13.2835    0.0000 O   0  0  0  0  0  0  0  0  0  0  0  0
   15.1719  -12.4585    0.0000 C   0  0  0  0  0  0  0  0  0  0  0  0
   14.4574  -12.0460    0.0000 C   0  0  0  0  0  0  0  0  0  0  0  0
   14.1218  -14.5213    0.0000 C   0  0  0  0  0  0  0  0  0  0  0  0
   14.1218  -13.6963    0.0000 C   0  0  0  0  0  0  0  0  0  0  0  0
  1  2  1  0  0  0  0
  2  3  1  0  0  0  0
  3  4  1  0  0  0  0
  4  5  1  0  0  0  0
  5  6  1  0  0  0  0
  1  6  1  0  0  0  0
  1  7  1  0  0  0  0
  7  4  1  0  0  0  0
  2  8  2  0  0  0  0
  9 10  2  0  0  0  0
  1  9  1  0  0  0  0
  7 11  1  0  0  0  0
  7 12  1  0  0  0  0
M  END
>  <cdx:groupId>
3120

>  <cdx:fragmentId>
3086

$$$$
