577759.cdx
  Mrv1902 05222410192D          

 21 21  0  0  0  0            999 V2000
    7.1775   -5.8025    0.0000 C   0  0  0  0  0  0  0  0  0  0  0  0
    8.0025   -5.8025    0.0000 C   0  0  0  0  0  0  0  0  0  0  0  0
    8.2160   -5.0056    0.0000 O   0  0  0  0  0  0  0  0  0  0  0  0
    8.4150   -6.5170    0.0000 C   0  0  0  0  0  0  0  0  0  0  0  0
    8.0025   -7.2314    0.0000 C   0  0  0  0  0  0  0  0  0  0  0  0
    8.4150   -7.9459    0.0000 C   0  0  0  0  0  0  0  0  0  0  0  0
    8.0025   -8.6604    0.0000 C   0  0  0  0  0  0  0  0  0  0  0  0
    9.2400   -7.9459    0.0000 C   0  0  0  0  0  0  0  0  0  0  0  0
    7.1775   -8.6604    0.0000 C   0  0  0  0  0  0  0  0  0  0  0  0
    6.7650   -7.9459    0.0000 C   0  0  0  0  0  0  0  0  0  0  0  0
    5.9400   -7.9459    0.0000 C   0  0  0  0  0  0  0  0  0  0  0  0
    5.5275   -8.6604    0.0000 C   0  0  0  0  0  0  0  0  0  0  0  0
    5.5275   -7.2314    0.0000 C   0  0  0  0  0  0  0  0  0  0  0  0
    5.9400   -6.5170    0.0000 C   0  0  0  0  0  0  0  0  0  0  0  0
    5.5275   -5.8025    0.0000 C   0  0  0  0  0  0  0  0  0  0  0  0
    5.9400   -5.0880    0.0000 C   0  0  0  0  0  0  0  0  0  0  0  0
    5.5275   -4.3736    0.0000 C   0  0  0  0  0  0  0  0  0  0  0  0
    6.7650   -5.0880    0.0000 C   0  0  0  0  0  0  0  0  0  0  0  0
    8.7994   -5.5890    0.0000 C   0  0  0  0  0  0  0  0  0  0  0  0
    9.3828   -6.1723    0.0000 C   0  0  0  0  0  0  0  0  0  0  0  0
    9.0129   -4.7921    0.0000 C   0  0  0  0  0  0  0  0  0  0  0  0
  1  2  1  0  0  0  0
  2  3  1  0  0  0  0
  2  4  1  0  0  0  0
  4  5  1  0  0  0  0
  5  6  1  0  0  0  0
  6  7  2  0  0  0  0
  6  8  1  0  0  0  0
  7  9  1  0  0  0  0
  9 10  1  0  0  0  0
 10 11  1  0  0  0  0
 11 12  1  0  0  0  0
 11 13  2  0  0  0  0
 13 14  1  0  0  0  0
 14 15  1  0  0  0  0
 15 16  1  0  0  0  0
 16 17  1  0  0  0  0
 16 18  2  0  0  0  0
 18  1  1  0  0  0  0
  2 19  1  0  0  0  0
 19 20  1  0  0  0  0
 19 21  1  0  0  0  0
M  END
>  <cdx:fragmentId>
321

$$$$
