577817.cdx
  Mrv1902 05222410262D          

 36 39  0  0  0  0            999 V2000
    7.9334   -6.2852    0.0000 C   0  0  0  0  0  0  0  0  0  0  0  0
    8.6391   -5.8579    0.0000 C   0  0  0  0  0  0  0  0  0  0  0  0
    9.3620   -6.2554    0.0000 C   0  0  0  0  0  0  0  0  0  0  0  0
    9.3793   -7.0802    0.0000 C   0  0  2  0  0  0  0  0  0  0  0  0
    8.6736   -7.5075    0.0000 C   0  0  1  0  0  0  0  0  0  0  0  0
    7.9506   -7.1101    0.0000 O   0  0  0  0  0  0  0  0  0  0  0  0
    8.6218   -5.0331    0.0000 C   0  0  0  0  0  0  0  0  0  0  0  0
   10.0677   -5.8280    0.0000 C   0  0  0  0  0  0  0  0  0  0  0  0
   10.0504   -5.0032    0.0000 C   0  0  0  0  0  0  0  0  0  0  0  0
    9.3275   -4.6057    0.0000 O   0  0  0  0  0  0  0  0  0  0  0  0
    7.8989   -4.6356    0.0000 O   0  0  0  0  0  0  0  0  0  0  0  0
   10.1022   -7.4776    0.0000 C   0  0  0  0  0  0  0  0  0  0  0  0
   10.1022   -8.3026    0.0000 C   0  0  0  0  0  0  0  0  0  0  0  0
    8.6908   -8.3323    0.0000 O   0  0  0  0  0  0  0  0  0  0  0  0
    7.2619   -8.3338    0.0000 O   0  0  0  0  0  0  0  0  0  0  0  0
    7.9768   -8.7456    0.0000 C   0  0  2  0  0  0  0  0  0  0  0  0
    7.9776   -9.5706    0.0000 C   0  0  1  0  0  0  0  0  0  0  0  0
    7.2636   -9.9838    0.0000 C   0  0  2  0  0  0  0  0  0  0  0  0
    6.5487   -9.5720    0.0000 C   0  0  1  0  0  0  0  0  0  0  0  0
    6.5478   -8.7470    0.0000 C   0  0  1  0  0  0  0  0  0  0  0  0
    7.2644  -10.8088    0.0000 O   0  0  0  0  0  0  0  0  0  0  0  0
    5.8355  -10.8102    0.0000 O   0  0  0  0  0  0  0  0  0  0  0  0
    6.5503  -11.2220    0.0000 C   0  0  2  0  0  0  0  0  0  0  0  0
    6.5512  -12.0470    0.0000 C   0  0  1  0  0  0  0  0  0  0  0  0
    5.8371  -12.4602    0.0000 C   0  0  2  0  0  0  0  0  0  0  0  0
    5.1222  -12.0485    0.0000 C   0  0  1  0  0  0  0  0  0  0  0  0
    5.1214  -11.2235    0.0000 C   0  0  1  0  0  0  0  0  0  0  0  0
    4.4065  -10.8117    0.0000 C   0  0  0  0  0  0  0  0  0  0  0  0
    3.6925  -11.2249    0.0000 O   0  0  0  0  0  0  0  0  0  0  0  0
    4.4082  -12.4617    0.0000 O   0  0  0  0  0  0  0  0  0  0  0  0
    5.8380  -13.2852    0.0000 O   0  0  0  0  0  0  0  0  0  0  0  0
    7.2661  -12.4588    0.0000 O   0  0  0  0  0  0  0  0  0  0  0  0
    5.8329   -8.3352    0.0000 C   0  0  0  0  0  0  0  0  0  0  0  0
    5.1189   -8.7485    0.0000 O   0  0  0  0  0  0  0  0  0  0  0  0
    5.8346   -9.9852    0.0000 O   0  0  0  0  0  0  0  0  0  0  0  0
    8.6925   -9.9823    0.0000 O   0  0  0  0  0  0  0  0  0  0  0  0
  1  2  2  0  0  0  0
  2  3  1  0  0  0  0
  3  4  1  0  0  0  0
  4  5  1  0  0  0  0
  5  6  1  0  0  0  0
  1  6  1  0  0  0  0
  8  9  1  0  0  0  0
  9 10  1  0  0  0  0
  7 10  1  0  0  0  0
  7  2  1  0  0  0  0
  8  3  2  0  0  0  0
  7 11  2  0  0  0  0
 12 13  2  0  0  0  0
  4 12  1  1  0  0  0
 15 16  1  0  0  0  0
 16 17  1  0  0  0  0
 17 18  1  0  0  0  0
 18 19  1  0  0  0  0
 19 20  1  0  0  0  0
 15 20  1  0  0  0  0
 22 23  1  0  0  0  0
 23 24  1  0  0  0  0
 24 25  1  0  0  0  0
 25 26  1  0  0  0  0
 26 27  1  0  0  0  0
 22 27  1  0  0  0  0
 28 29  1  0  0  0  0
 27 28  1  1  0  0  0
 26 30  1  6  0  0  0
 25 31  1  1  0  0  0
 24 32  1  6  0  0  0
 23 21  1  1  0  0  0
 18 21  1  1  0  0  0
 33 34  1  0  0  0  0
 20 33  1  1  0  0  0
 19 35  1  6  0  0  0
 17 36  1  6  0  0  0
 16 14  1  1  0  0  0
  5 14  1  6  0  0  0
M  END
>  <cdx:fragmentId>
54715

$$$$
