577816.cdx
  Mrv1902 05222410272D          

 15 15  0  0  0  0            999 V2000
   17.7237  -13.3875    0.0000 C   0  0  0  0  0  0  0  0  0  0  0  0
   17.0092  -13.8000    0.0000 C   0  0  0  0  0  0  0  0  0  0  0  0
   16.2947  -13.3875    0.0000 C   0  0  0  0  0  0  0  0  0  0  0  0
   15.5803  -13.8000    0.0000 C   0  0  0  0  0  0  0  0  0  0  0  0
   17.7237  -12.5625    0.0000 O   0  0  0  0  0  0  0  0  0  0  0  0
   18.4382  -13.8000    0.0000 O   0  0  0  0  0  0  0  0  0  0  0  0
   15.5803  -14.6250    0.0000 O   0  0  0  0  0  0  0  0  0  0  0  0
   17.0092  -14.6250    0.0000 C   0  0  0  0  0  0  0  0  0  0  0  0
   14.8658  -13.3875    0.0000 C   0  0  0  0  0  0  0  0  0  0  0  0
   14.1513  -13.8000    0.0000 C   0  0  0  0  0  0  0  0  0  0  0  0
   13.4369  -13.3875    0.0000 C   0  0  0  0  0  0  0  0  0  0  0  0
   13.4369  -12.5625    0.0000 C   0  0  0  0  0  0  0  0  0  0  0  0
   14.1513  -12.1500    0.0000 C   0  0  0  0  0  0  0  0  0  0  0  0
   14.8658  -12.5625    0.0000 C   0  0  0  0  0  0  0  0  0  0  0  0
   12.7224  -13.8000    0.0000 N   0  0  0  0  0  0  0  0  0  0  0  0
  1  2  1  0  0  0  0
  2  3  1  0  0  0  0
  3  4  1  0  0  0  0
  1  5  2  0  0  0  0
  1  6  1  0  0  0  0
  4  7  2  0  0  0  0
  2  8  1  0  0  0  0
  9 10  1  0  0  0  0
 10 11  2  0  0  0  0
 11 12  1  0  0  0  0
 12 13  2  0  0  0  0
 13 14  1  0  0  0  0
  9 14  2  0  0  0  0
 11 15  1  0  0  0  0
  4  9  1  0  0  0  0
M  END
>  <cdx:groupId>
3169

>  <cdx:fragmentId>
3127

$$$$
