5780.cdx
  Mrv1902 05222410182D          

 12 11  0  0  0  0            999 V2000
    9.2071   -5.3427    0.0000 C   0  0  0  0  0  0  0  0  0  0  0  0
    8.4926   -4.9302    0.0000 C   0  0  2  0  0  0  0  0  0  0  0  0
    7.7781   -5.3427    0.0000 C   0  0  2  0  0  0  0  0  0  0  0  0
    7.0636   -4.9302    0.0000 C   0  0  1  0  0  0  0  0  0  0  0  0
    6.3492   -5.3427    0.0000 C   0  0  2  0  0  0  0  0  0  0  0  0
    5.6347   -4.9302    0.0000 C   0  0  0  0  0  0  0  0  0  0  0  0
    9.9215   -4.9302    0.0000 O   0  0  0  0  0  0  0  0  0  0  0  0
    8.4926   -4.1052    0.0000 O   0  0  0  0  0  0  0  0  0  0  0  0
    7.7781   -6.1677    0.0000 O   0  0  0  0  0  0  0  0  0  0  0  0
    7.0636   -4.1052    0.0000 O   0  0  0  0  0  0  0  0  0  0  0  0
    6.3492   -6.1677    0.0000 O   0  0  0  0  0  0  0  0  0  0  0  0
    4.9202   -5.3427    0.0000 O   0  0  0  0  0  0  0  0  0  0  0  0
  1  2  1  0  0  0  0
  2  3  1  0  0  0  0
  3  4  1  0  0  0  0
  4  5  1  0  0  0  0
  5  6  1  0  0  0  0
  1  7  1  0  0  0  0
  2  8  1  6  0  0  0
  3  9  1  1  0  0  0
  4 10  1  1  0  0  0
  5 11  1  1  0  0  0
  6 12  1  0  0  0  0
M  END
>  <cdx:fragmentId>
5

$$$$
