578236.cdx
  Mrv1902 05222410222D          

 10 11  0  0  0  0            999 V2000
    7.0732   -6.2097    0.0000 C   0  0  0  0  0  0  0  0  0  0  0  0
    6.2886   -5.9548    0.0000 C   0  0  0  0  0  0  0  0  0  0  0  0
    5.8037   -6.6222    0.0000 C   0  0  0  0  0  0  0  0  0  0  0  0
    6.2886   -7.2897    0.0000 C   0  0  0  0  0  0  0  0  0  0  0  0
    7.0732   -7.0347    0.0000 C   0  0  0  0  0  0  0  0  0  0  0  0
    7.7877   -6.6222    0.0000 C   0  0  0  0  0  0  0  0  0  0  0  0
    7.4088   -5.4561    0.0000 C   0  0  0  0  0  0  0  0  0  0  0  0
    8.6127   -6.6222    0.0000 C   0  0  0  0  0  0  0  0  0  0  0  0
    9.0252   -7.3367    0.0000 C   0  0  0  0  0  0  0  0  0  0  0  0
    9.0252   -5.9078    0.0000 C   0  0  0  0  0  0  0  0  0  0  0  0
  1  2  1  0  0  0  0
  2  3  1  0  0  0  0
  3  4  1  0  0  0  0
  4  5  1  0  0  0  0
  5  6  1  0  0  0  0
  1  6  1  0  0  0  0
  1  5  1  0  0  0  0
  1  7  1  0  0  0  0
  8  9  1  0  0  0  0
  8 10  1  0  0  0  0
  6  8  2  0  0  0  0
M  END
>  <cdx:fragmentId>
3179

$$$$
