578390.cdx
  Mrv1902 05222410212D          

 29 32  0  0  0  0            999 V2000
    6.0141   -8.3127    0.0000 O   0  0  0  0  0  0  0  0  0  0  0  0
    6.4990   -7.6452    0.0000 C   0  0  0  0  0  0  0  0  0  0  0  0
    7.2837   -7.9002    0.0000 C   0  0  1  0  0  0  0  0  0  0  0  0
    7.2837   -8.7252    0.0000 C   0  0  1  0  0  0  0  0  0  0  0  0
    6.4990   -8.9801    0.0000 C   0  0  1  0  0  0  0  0  0  0  0  0
    8.5532   -8.3127    0.0000 O   0  0  0  0  0  0  0  0  0  0  0  0
    8.0683   -7.6452    0.0000 C   0  0  2  0  0  0  0  0  0  0  0  0
    8.0683   -8.9801    0.0000 C   0  0  0  0  0  0  0  0  0  0  0  0
    8.3232   -6.8606    0.0000 C   0  0  0  0  0  0  0  0  0  0  0  0
    9.1302   -6.6891    0.0000 C   0  0  0  0  0  0  0  0  0  0  0  0
    9.3851   -5.9045    0.0000 C   0  0  0  0  0  0  0  0  0  0  0  0
    8.8331   -5.2914    0.0000 C   0  0  0  0  0  0  0  0  0  0  0  0
    8.0261   -5.4629    0.0000 C   0  0  0  0  0  0  0  0  0  0  0  0
    7.7712   -6.2475    0.0000 C   0  0  0  0  0  0  0  0  0  0  0  0
   10.1921   -5.7329    0.0000 O   0  0  0  0  0  0  0  0  0  0  0  0
   10.7441   -6.3460    0.0000 C   0  0  0  0  0  0  0  0  0  0  0  0
    9.0880   -4.5068    0.0000 O   0  0  0  0  0  0  0  0  0  0  0  0
    6.2441   -9.7647    0.0000 C   0  0  0  0  0  0  0  0  0  0  0  0
    5.4371   -9.9363    0.0000 C   0  0  0  0  0  0  0  0  0  0  0  0
    5.1822  -10.7209    0.0000 C   0  0  0  0  0  0  0  0  0  0  0  0
    5.7342  -11.3340    0.0000 C   0  0  0  0  0  0  0  0  0  0  0  0
    6.5412  -11.1625    0.0000 C   0  0  0  0  0  0  0  0  0  0  0  0
    6.7961  -10.3778    0.0000 C   0  0  0  0  0  0  0  0  0  0  0  0
    4.3752  -10.8924    0.0000 O   0  0  0  0  0  0  0  0  0  0  0  0
    3.7919  -10.3091    0.0000 C   0  0  0  0  0  0  0  0  0  0  0  0
    5.4793  -12.1186    0.0000 O   0  0  0  0  0  0  0  0  0  0  0  0
    7.2837   -9.5502    0.0000 H   0  0  0  0  0  0  0  0  0  0  0  0
    7.2837   -7.0752    0.0000 H   0  0  0  0  0  0  0  0  0  0  0  0
    6.2441   -6.8606    0.0000 O   0  0  0  0  0  0  0  0  0  0  0  0
  1  2  1  0  0  0  0
  2  3  1  0  0  0  0
  3  4  1  0  0  0  0
  4  5  1  0  0  0  0
  1  5  1  0  0  0  0
  6  7  1  0  0  0  0
  6  8  1  0  0  0  0
  7  3  1  0  0  0  0
  8  4  1  0  0  0  0
  9 10  1  0  0  0  0
 10 11  2  0  0  0  0
 11 12  1  0  0  0  0
 12 13  2  0  0  0  0
 13 14  1  0  0  0  0
  9 14  2  0  0  0  0
 15 16  1  0  0  0  0
 11 15  1  0  0  0  0
 12 17  1  0  0  0  0
  7  9  1  1  0  0  0
 18 19  1  0  0  0  0
 19 20  2  0  0  0  0
 20 21  1  0  0  0  0
 21 22  2  0  0  0  0
 22 23  1  0  0  0  0
 18 23  2  0  0  0  0
 24 25  1  0  0  0  0
 20 24  1  0  0  0  0
 21 26  1  0  0  0  0
  5 18  1  1  0  0  0
  4 27  1  1  0  0  0
  3 28  1  1  0  0  0
  2 29  2  0  0  0  0
M  END
>  <cdx:fragmentId>
169894

$$$$
