5789.cdx
  Mrv1902 05222410262D          

 35 38  0  0  0  0            999 V2000
    5.3589   -7.5144    0.0000 C   0  0  0  0  0  0  0  0  0  0  0  0
    5.3589   -6.6894    0.0000 C   0  0  0  0  0  0  0  0  0  0  0  0
    6.0734   -6.2769    0.0000 C   0  0  0  0  0  0  0  0  0  0  0  0
    6.7878   -6.6894    0.0000 C   0  0  0  0  0  0  0  0  0  0  0  0
    6.7878   -7.5144    0.0000 C   0  0  0  0  0  0  0  0  0  0  0  0
    6.0734   -7.9269    0.0000 C   0  0  0  0  0  0  0  0  0  0  0  0
    7.5023   -6.2769    0.0000 O   0  0  0  0  0  0  0  0  0  0  0  0
    8.2168   -6.6894    0.0000 C   0  0  0  0  0  0  0  0  0  0  0  0
    8.2168   -7.5144    0.0000 C   0  0  0  0  0  0  0  0  0  0  0  0
    7.5023   -7.9269    0.0000 C   0  0  0  0  0  0  0  0  0  0  0  0
    8.9313   -6.2769    0.0000 C   0  0  0  0  0  0  0  0  0  0  0  0
    9.6457   -6.6894    0.0000 C   0  0  0  0  0  0  0  0  0  0  0  0
    9.6457   -7.5144    0.0000 O   0  0  0  0  0  0  0  0  0  0  0  0
    8.9313   -5.4519    0.0000 C   0  0  0  0  0  0  0  0  0  0  0  0
    9.6457   -5.0394    0.0000 C   0  0  0  0  0  0  0  0  0  0  0  0
   10.3602   -5.4519    0.0000 C   0  0  0  0  0  0  0  0  0  0  0  0
   10.3602   -6.2769    0.0000 C   0  0  0  0  0  0  0  0  0  0  0  0
    4.6444   -6.2769    0.0000 O   0  0  0  0  0  0  0  0  0  0  0  0
    5.3589   -5.0394    0.0000 C   0  0  0  0  0  0  0  0  0  0  0  0
    6.0734   -5.4519    0.0000 O   0  0  0  0  0  0  0  0  0  0  0  0
    7.5023   -8.7519    0.0000 O   0  0  0  0  0  0  0  0  0  0  0  0
    6.0734   -8.7519    0.0000 O   0  0  0  0  0  0  0  0  0  0  0  0
    3.9300   -6.6894    0.0000 C   0  0  0  0  0  0  0  0  0  0  0  0
    8.2168   -5.0394    0.0000 O   0  0  0  0  0  0  0  0  0  0  0  0
   10.3602   -7.9269    0.0000 C   0  0  2  0  0  0  0  0  0  0  0  0
   10.3602   -8.7519    0.0000 O   0  0  0  0  0  0  0  0  0  0  0  0
   11.0747   -9.1644    0.0000 C   0  0  1  0  0  0  0  0  0  0  0  0
   11.7891   -8.7519    0.0000 C   0  0  2  0  0  0  0  0  0  0  0  0
   11.7891   -7.9269    0.0000 C   0  0  1  0  0  0  0  0  0  0  0  0
   11.0747   -7.5144    0.0000 C   0  0  1  0  0  0  0  0  0  0  0  0
   11.0747   -9.9894    0.0000 C   0  0  0  0  0  0  0  0  0  0  0  0
   12.5036   -7.5144    0.0000 O   0  0  0  0  0  0  0  0  0  0  0  0
   11.0747   -6.6894    0.0000 O   0  0  0  0  0  0  0  0  0  0  0  0
   12.5036   -9.1644    0.0000 O   0  0  0  0  0  0  0  0  0  0  0  0
   11.7891  -10.4019    0.0000 O   0  0  0  0  0  0  0  0  0  0  0  0
  1  2  1  0  0  0  0
  2  3  2  0  0  0  0
  3  4  1  0  0  0  0
  4  5  2  0  0  0  0
  5  6  1  0  0  0  0
  6  1  2  0  0  0  0
  4  7  1  0  0  0  0
  7  8  1  0  0  0  0
  8  9  2  0  0  0  0
  9 10  1  0  0  0  0
 10  5  1  0  0  0  0
  8 11  1  0  0  0  0
 11 12  1  0  0  0  0
 12 13  1  0  0  0  0
 11 14  2  0  0  0  0
 14 15  1  0  0  0  0
 15 16  2  0  0  0  0
 16 17  1  0  0  0  0
 17 12  2  0  0  0  0
  2 18  1  0  0  0  0
 19 20  1  0  0  0  0
 20  3  1  0  0  0  0
 10 21  2  0  0  0  0
 22  6  1  0  0  0  0
 18 23  1  0  0  0  0
 14 24  1  0  0  0  0
 25 13  1  1  0  0  0
 25 26  1  0  0  0  0
 26 27  1  0  0  0  0
 27 28  1  0  0  0  0
 28 29  1  0  0  0  0
 29 30  1  0  0  0  0
 30 25  1  0  0  0  0
 27 31  1  1  0  0  0
 29 32  1  1  0  0  0
 30 33  1  6  0  0  0
 28 34  1  6  0  0  0
 31 35  1  0  0  0  0
M  END
>  <cdx:fragmentId>
5

$$$$
