579073.cdx
  Mrv1902 05222410212D          

 16 18  0  0  0  0            999 V2000
   15.8324  -13.3152    0.0000 C   0  0  0  0  0  0  0  0  0  0  0  0
   16.5469  -12.9027    0.0000 C   0  0  0  0  0  0  0  0  0  0  0  0
   17.2613  -13.3152    0.0000 C   0  0  0  0  0  0  0  0  0  0  0  0
   17.2613  -14.1402    0.0000 C   0  0  0  0  0  0  0  0  0  0  0  0
   16.5469  -14.5527    0.0000 C   0  0  0  0  0  0  0  0  0  0  0  0
   15.8324  -14.1402    0.0000 C   0  0  0  0  0  0  0  0  0  0  0  0
   15.1179  -14.5527    0.0000 C   0  0  0  0  0  0  0  0  0  0  0  0
   14.4034  -14.1402    0.0000 C   0  0  0  0  0  0  0  0  0  0  0  0
   14.4034  -13.3152    0.0000 C   0  0  0  0  0  0  0  0  0  0  0  0
   14.4192  -12.5109    0.0000 C   0  0  0  0  0  0  0  0  0  0  0  0
   15.1183  -12.1131    0.0000 C   0  0  0  0  0  0  0  0  0  0  0  0
   15.8174  -12.5109    0.0000 O   0  0  0  0  0  0  0  0  0  0  0  0
   15.1179  -12.9027    0.0000 C   0  0  0  0  0  0  0  0  0  0  0  0
   13.7047  -12.0984    0.0000 C   0  0  0  0  0  0  0  0  0  0  0  0
   15.8324  -14.9652    0.0000 C   0  0  0  0  0  0  0  0  0  0  0  0
   16.5469  -12.0777    0.0000 C   0  0  0  0  0  0  0  0  0  0  0  0
  1  2  1  0  0  0  0
  2  3  2  0  0  0  0
  3  4  1  0  0  0  0
  4  5  1  0  0  0  0
  5  6  1  0  0  0  0
  6  7  1  0  0  0  0
  7  8  1  0  0  0  0
  8  9  1  0  0  0  0
  9 10  1  0  0  0  0
 10 11  1  0  0  0  0
 11 12  1  0  0  0  0
  1 12  1  0  0  0  0
  1 13  1  0  0  0  0
 13  9  1  0  0  0  0
  1  6  1  0  0  0  0
 10 14  2  0  0  0  0
  6 15  1  0  0  0  0
  2 16  1  0  0  0  0
M  END
>  <cdx:groupId>
3517

>  <cdx:fragmentId>
3470

$$$$
