5791.cdx
  Mrv1902 05222410202D          

 35 38  0  0  0  0            999 V2000
    4.1489   -6.4350    0.0000 C   0  0  0  0  0  0  0  0  0  0  0  0
    4.1489   -7.2600    0.0000 C   0  0  0  0  0  0  0  0  0  0  0  0
    4.8634   -7.6725    0.0000 C   0  0  0  0  0  0  0  0  0  0  0  0
    5.5778   -7.2600    0.0000 C   0  0  0  0  0  0  0  0  0  0  0  0
    5.5778   -6.4350    0.0000 C   0  0  0  0  0  0  0  0  0  0  0  0
    4.8634   -6.0225    0.0000 C   0  0  0  0  0  0  0  0  0  0  0  0
    6.2923   -7.6725    0.0000 C   0  0  0  0  0  0  0  0  0  0  0  0
    7.0068   -7.2600    0.0000 C   0  0  0  0  0  0  0  0  0  0  0  0
    7.0068   -6.4350    0.0000 C   0  0  0  0  0  0  0  0  0  0  0  0
    6.2923   -6.0225    0.0000 O   0  0  0  0  0  0  0  0  0  0  0  0
    7.7213   -6.0225    0.0000 C   0  0  0  0  0  0  0  0  0  0  0  0
    7.7213   -5.1975    0.0000 C   0  0  0  0  0  0  0  0  0  0  0  0
    8.4357   -6.4350    0.0000 C   0  0  0  0  0  0  0  0  0  0  0  0
    9.1502   -6.0225    0.0000 C   0  0  0  0  0  0  0  0  0  0  0  0
    9.1502   -5.1975    0.0000 C   0  0  0  0  0  0  0  0  0  0  0  0
    8.4357   -4.7850    0.0000 C   0  0  0  0  0  0  0  0  0  0  0  0
    6.2923   -8.4975    0.0000 O   0  0  0  0  0  0  0  0  0  0  0  0
    7.0068   -4.7850    0.0000 O   0  0  0  0  0  0  0  0  0  0  0  0
    8.4357   -7.2600    0.0000 O   0  0  0  0  0  0  0  0  0  0  0  0
    4.8634   -8.4975    0.0000 O   0  0  0  0  0  0  0  0  0  0  0  0
    3.4344   -6.0225    0.0000 O   0  0  0  0  0  0  0  0  0  0  0  0
    3.4344   -7.6725    0.0000 O   0  0  0  0  0  0  0  0  0  0  0  0
    2.7200   -6.4350    0.0000 C   0  0  0  0  0  0  0  0  0  0  0  0
    3.4344   -8.4975    0.0000 C   0  0  0  0  0  0  0  0  0  0  0  0
    9.1502   -7.6725    0.0000 C   0  0  2  0  0  0  0  0  0  0  0  0
    9.1502   -8.4975    0.0000 O   0  0  0  0  0  0  0  0  0  0  0  0
    9.8647   -8.9100    0.0000 C   0  0  1  0  0  0  0  0  0  0  0  0
   10.5791   -8.4975    0.0000 C   0  0  2  0  0  0  0  0  0  0  0  0
   10.5791   -7.6725    0.0000 C   0  0  1  0  0  0  0  0  0  0  0  0
    9.8647   -7.2600    0.0000 C   0  0  1  0  0  0  0  0  0  0  0  0
    9.8647   -9.7350    0.0000 C   0  0  0  0  0  0  0  0  0  0  0  0
   11.2936   -7.2600    0.0000 O   0  0  0  0  0  0  0  0  0  0  0  0
    9.8647   -6.4350    0.0000 O   0  0  0  0  0  0  0  0  0  0  0  0
   11.2936   -8.9100    0.0000 O   0  0  0  0  0  0  0  0  0  0  0  0
   10.5791  -10.1475    0.0000 O   0  0  0  0  0  0  0  0  0  0  0  0
  1  2  2  0  0  0  0
  2  3  1  0  0  0  0
  3  4  2  0  0  0  0
  4  5  1  0  0  0  0
  5  6  2  0  0  0  0
  6  1  1  0  0  0  0
  4  7  1  0  0  0  0
  7  8  1  0  0  0  0
  8  9  2  0  0  0  0
  9 10  1  0  0  0  0
 10  5  1  0  0  0  0
  9 11  1  0  0  0  0
 11 12  1  0  0  0  0
 11 13  2  0  0  0  0
 13 14  1  0  0  0  0
 14 15  2  0  0  0  0
 15 16  1  0  0  0  0
 16 12  2  0  0  0  0
  7 17  2  0  0  0  0
 12 18  1  0  0  0  0
 13 19  1  0  0  0  0
  3 20  1  0  0  0  0
  1 21  1  0  0  0  0
  2 22  1  0  0  0  0
 21 23  1  0  0  0  0
 22 24  1  0  0  0  0
 25 19  1  1  0  0  0
 25 26  1  0  0  0  0
 26 27  1  0  0  0  0
 27 28  1  0  0  0  0
 28 29  1  0  0  0  0
 29 30  1  0  0  0  0
 30 25  1  0  0  0  0
 27 31  1  1  0  0  0
 29 32  1  1  0  0  0
 30 33  1  6  0  0  0
 28 34  1  6  0  0  0
 31 35  1  0  0  0  0
M  END
>  <cdx:fragmentId>
112

$$$$
