579168.cdx
  Mrv1902 05222410282D          

 15 15  0  0  0  0            999 V2000
   17.6165  -13.5329    0.0000 C   0  0  0  0  0  0  0  0  0  0  0  0
   16.9020  -13.9454    0.0000 C   0  0  0  0  0  0  0  0  0  0  0  0
   16.1875  -13.5329    0.0000 C   0  0  0  0  0  0  0  0  0  0  0  0
   15.4731  -13.9454    0.0000 C   0  0  0  0  0  0  0  0  0  0  0  0
   15.4731  -14.7704    0.0000 C   0  0  0  0  0  0  0  0  0  0  0  0
   16.9020  -14.7704    0.0000 O   0  0  0  0  0  0  0  0  0  0  0  0
   14.7586  -13.5329    0.0000 C   0  0  0  0  0  0  0  0  0  0  0  0
   14.0441  -13.9454    0.0000 C   0  0  0  0  0  0  0  0  0  0  0  0
   13.3296  -13.5329    0.0000 C   0  0  0  0  0  0  0  0  0  0  0  0
   13.3296  -12.7079    0.0000 C   0  0  0  0  0  0  0  0  0  0  0  0
   14.0441  -12.2954    0.0000 C   0  0  0  0  0  0  0  0  0  0  0  0
   14.7586  -12.7079    0.0000 C   0  0  0  0  0  0  0  0  0  0  0  0
   15.1711  -11.9934    0.0000 C   0  0  0  0  0  0  0  0  0  0  0  0
   15.5836  -12.7079    0.0000 C   0  0  0  0  0  0  0  0  0  0  0  0
   14.0441  -14.7704    0.0000 C   0  0  0  0  0  0  0  0  0  0  0  0
  1  2  1  0  0  0  0
  2  3  1  0  0  0  0
  3  4  1  0  0  0  0
  4  5  1  0  0  0  0
  2  6  2  0  0  0  0
  7  8  1  0  0  0  0
  8  9  2  0  0  0  0
  9 10  1  0  0  0  0
 10 11  1  0  0  0  0
 11 12  1  0  0  0  0
  7 12  1  0  0  0  0
 12 13  1  0  0  0  0
 12 14  1  0  0  0  0
  8 15  1  0  0  0  0
  4  7  1  0  0  0  0
M  END
>  <cdx:groupId>
3569

>  <cdx:fragmentId>
3539

$$$$
