579266.cdx
  Mrv1902 05222410212D          

 12 12  0  0  0  0            999 V2000
   15.0910  -13.0735    0.0000 C   0  0  0  0  0  0  0  0  0  0  0  0
   15.1772  -13.8940    0.0000 C   0  0  0  0  0  0  0  0  0  0  0  0
   14.4235  -14.2296    0.0000 C   0  0  0  0  0  0  0  0  0  0  0  0
   13.8715  -13.6165    0.0000 C   0  0  0  0  0  0  0  0  0  0  0  0
   14.2840  -12.9020    0.0000 C   0  0  0  0  0  0  0  0  0  0  0  0
   14.2520  -15.0365    0.0000 C   0  0  0  0  0  0  0  0  0  0  0  0
   15.3459  -12.2889    0.0000 C   0  0  0  0  0  0  0  0  0  0  0  0
   15.8917  -14.3065    0.0000 C   0  0  0  0  0  0  0  0  0  0  0  0
   15.8917  -15.1315    0.0000 C   0  0  0  0  0  0  0  0  0  0  0  0
   15.8979  -12.9020    0.0000 C   0  0  0  0  0  0  0  0  0  0  0  0
   16.1529  -12.1174    0.0000 O   0  0  0  0  0  0  0  0  0  0  0  0
   16.4500  -13.5151    0.0000 O   0  0  0  0  0  0  0  0  0  0  0  0
  1  2  1  0  0  0  0
  2  3  2  0  0  0  0
  3  4  1  0  0  0  0
  4  5  1  0  0  0  0
  1  5  1  0  0  0  0
  3  6  1  0  0  0  0
  1  7  1  0  0  0  0
  8  9  1  0  0  0  0
  2  8  1  0  0  0  0
 10 11  2  0  0  0  0
 10 12  1  0  0  0  0
  1 10  1  0  0  0  0
M  END
>  <cdx:groupId>
3610

>  <cdx:fragmentId>
3577

$$$$
