5793.cdx
  Mrv1902 05222410192D          

 12 12  0  0  0  0            999 V2000
    7.4483   -4.9425    0.0000 O   0  0  0  0  0  0  0  0  0  0  0  0
    8.1604   -5.3592    0.0000 C   0  0  0  0  0  0  0  0  0  0  0  0
    8.1555   -6.1842    0.0000 C   0  0  1  0  0  0  0  0  0  0  0  0
    7.4387   -6.5925    0.0000 C   0  0  2  0  0  0  0  0  0  0  0  0
    6.7266   -6.1758    0.0000 C   0  0  1  0  0  0  0  0  0  0  0  0
    6.7314   -5.3508    0.0000 C   0  0  1  0  0  0  0  0  0  0  0  0
    8.8772   -4.9509    0.0000 O   0  0  0  0  0  0  0  0  0  0  0  0
    8.8676   -6.6008    0.0000 O   0  0  0  0  0  0  0  0  0  0  0  0
    7.4339   -7.4175    0.0000 O   0  0  0  0  0  0  0  0  0  0  0  0
    6.0098   -6.5841    0.0000 O   0  0  0  0  0  0  0  0  0  0  0  0
    6.0194   -4.9342    0.0000 C   0  0  0  0  0  0  0  0  0  0  0  0
    5.3025   -5.3425    0.0000 O   0  0  0  0  0  0  0  0  0  0  0  0
  1  2  1  0  0  0  0
  2  3  1  0  0  0  0
  3  4  1  0  0  0  0
  4  5  1  0  0  0  0
  5  6  1  0  0  0  0
  1  6  1  0  0  0  0
  2  7  1  0  0  0  0
  3  8  1  6  0  0  0
  4  9  1  1  0  0  0
  5 10  1  6  0  0  0
 11 12  1  0  0  0  0
  6 11  1  1  0  0  0
M  END
>  <cdx:fragmentId>
5

$$$$
