7057941.cdx
  Mrv1902 05222410272D          

 11 11  0  0  0  0            999 V2000
    7.0506   -7.4030    0.0000 C   0  0  1  0  0  0  0  0  0  0  0  0
    7.0506   -6.5780    0.0000 C   0  0  2  0  0  0  0  0  0  0  0  0
    7.7650   -6.1655    0.0000 C   0  0  0  0  0  0  0  0  0  0  0  0
    8.4795   -6.5780    0.0000 C   0  0  0  0  0  0  0  0  0  0  0  0
    8.4795   -7.4030    0.0000 C   0  0  2  0  0  0  0  0  0  0  0  0
    7.7650   -7.8155    0.0000 C   0  0  0  0  0  0  0  0  0  0  0  0
    6.3361   -7.8155    0.0000 O   0  0  0  0  0  0  0  0  0  0  0  0
    6.3361   -5.3405    0.0000 C   0  0  0  0  0  0  0  0  0  0  0  0
    6.3361   -6.1655    0.0000 C   0  0  0  0  0  0  0  0  0  0  0  0
    5.6216   -6.5780    0.0000 C   0  0  0  0  0  0  0  0  0  0  0  0
    9.1940   -7.8155    0.0000 C   0  0  0  0  0  0  0  0  0  0  0  0
  1  2  1  0  0  0  0
  2  3  1  0  0  0  0
  3  4  1  0  0  0  0
  4  5  1  0  0  0  0
  5  6  1  0  0  0  0
  1  6  1  0  0  0  0
  1  7  1  1  0  0  0
  8  9  2  0  0  0  0
  9 10  1  0  0  0  0
  2  9  1  1  0  0  0
  5 11  1  1  0  0  0
M  END
>  <cdx:groupId>
35

>  <cdx:fragmentId>
5

$$$$
