579650.cdx
  Mrv1902 05222410252D          

 17 18  0  0  0  0            999 V2000
   15.4645  -14.3349    0.0000 C   0  0  0  0  0  0  0  0  0  0  0  0
   14.7500  -13.9224    0.0000 C   0  0  0  0  0  0  0  0  0  0  0  0
   14.7500  -13.0974    0.0000 C   0  0  0  0  0  0  0  0  0  0  0  0
   15.4645  -12.6849    0.0000 C   0  0  0  0  0  0  0  0  0  0  0  0
   16.1789  -13.0974    0.0000 C   0  0  0  0  0  0  0  0  0  0  0  0
   16.8934  -12.6849    0.0000 C   0  0  0  0  0  0  0  0  0  0  0  0
   17.6079  -13.0974    0.0000 C   0  0  0  0  0  0  0  0  0  0  0  0
   17.6079  -13.9224    0.0000 C   0  0  0  0  0  0  0  0  0  0  0  0
   16.8934  -14.3349    0.0000 C   0  0  0  0  0  0  0  0  0  0  0  0
   16.1789  -13.9224    0.0000 C   0  0  0  0  0  0  0  0  0  0  0  0
   15.4645  -15.1599    0.0000 O   0  0  0  0  0  0  0  0  0  0  0  0
   16.8934  -11.8599    0.0000 O   0  0  0  0  0  0  0  0  0  0  0  0
   14.0355  -15.1599    0.0000 C   0  0  0  0  0  0  0  0  0  0  0  0
   14.0355  -14.3349    0.0000 C   0  0  0  0  0  0  0  0  0  0  0  0
   13.3210  -13.9224    0.0000 C   0  0  0  0  0  0  0  0  0  0  0  0
   16.8934  -15.1599    0.0000 C   0  0  0  0  0  0  0  0  0  0  0  0
   16.1789  -12.2724    0.0000 C   0  0  0  0  0  0  0  0  0  0  0  0
  1  2  1  0  0  0  0
  2  3  1  0  0  0  0
  3  4  1  0  0  0  0
  4  5  1  0  0  0  0
  5  6  1  0  0  0  0
  6  7  1  0  0  0  0
  7  8  1  0  0  0  0
  8  9  1  0  0  0  0
  9 10  1  0  0  0  0
  1 10  1  0  0  0  0
  5 10  1  0  0  0  0
  1 11  2  0  0  0  0
  6 12  2  0  0  0  0
 13 14  1  0  0  0  0
 14 15  1  0  0  0  0
  2 14  1  0  0  0  0
  9 16  2  0  0  0  0
  5 17  1  0  0  0  0
M  END
>  <cdx:groupId>
3668

>  <cdx:fragmentId>
3619

$$$$
