579791.cdx
  Mrv1902 05222410282D          

 16 17  0  0  0  0            999 V2000
   16.9449  -13.2859    0.0000 C   0  0  0  0  0  0  0  0  0  0  0  0
   16.2305  -12.8734    0.0000 C   0  0  0  0  0  0  0  0  0  0  0  0
   16.2305  -12.0484    0.0000 C   0  0  0  0  0  0  0  0  0  0  0  0
   17.6594  -12.8734    0.0000 O   0  0  0  0  0  0  0  0  0  0  0  0
   14.8015  -12.8734    0.0000 C   0  0  0  0  0  0  0  0  0  0  0  0
   15.5160  -13.2859    0.0000 C   0  0  0  0  0  0  0  0  0  0  0  0
   15.5160  -14.1109    0.0000 C   0  0  0  0  0  0  0  0  0  0  0  0
   14.8015  -14.5234    0.0000 C   0  0  0  0  0  0  0  0  0  0  0  0
   14.0871  -14.1109    0.0000 C   0  0  0  0  0  0  0  0  0  0  0  0
   13.3726  -14.5234    0.0000 C   0  0  0  0  0  0  0  0  0  0  0  0
   12.6581  -14.1109    0.0000 C   0  0  0  0  0  0  0  0  0  0  0  0
   12.6581  -13.2859    0.0000 C   0  0  0  0  0  0  0  0  0  0  0  0
   13.3726  -12.8734    0.0000 C   0  0  0  0  0  0  0  0  0  0  0  0
   14.0871  -13.2859    0.0000 C   0  0  0  0  0  0  0  0  0  0  0  0
   13.3726  -12.0484    0.0000 C   0  0  0  0  0  0  0  0  0  0  0  0
   14.0871  -14.9359    0.0000 C   0  0  0  0  0  0  0  0  0  0  0  0
  1  2  1  0  0  0  0
  2  3  2  0  0  0  0
  1  4  1  0  0  0  0
  5  6  1  0  0  0  0
  6  7  1  0  0  0  0
  7  8  1  0  0  0  0
  8  9  1  0  0  0  0
  9 10  1  0  0  0  0
 10 11  1  0  0  0  0
 11 12  1  0  0  0  0
 12 13  1  0  0  0  0
 13 14  2  0  0  0  0
  5 14  1  0  0  0  0
  9 14  1  0  0  0  0
 13 15  1  0  0  0  0
  9 16  1  0  0  0  0
  2  6  1  0  0  0  0
M  END
>  <cdx:groupId>
3765

>  <cdx:fragmentId>
3727

$$$$
