580057.cdx
  Mrv1902 05222410282D          

  9  9  0  0  0  0            999 V2000
   15.2900  -13.1515    0.0000 C   0  0  0  0  0  0  0  0  0  0  0  0
   14.4830  -12.9800    0.0000 C   0  0  0  0  0  0  0  0  0  0  0  0
   14.0705  -13.6944    0.0000 C   0  0  0  0  0  0  0  0  0  0  0  0
   14.6225  -14.3075    0.0000 C   0  0  0  0  0  0  0  0  0  0  0  0
   15.3762  -13.9720    0.0000 C   0  0  0  0  0  0  0  0  0  0  0  0
   16.0907  -14.3845    0.0000 C   0  0  0  0  0  0  0  0  0  0  0  0
   16.8051  -13.9720    0.0000 C   0  0  0  0  0  0  0  0  0  0  0  0
   15.9030  -12.5995    0.0000 C   0  0  0  0  0  0  0  0  0  0  0  0
   16.6877  -12.8544    0.0000 O   0  0  0  0  0  0  0  0  0  0  0  0
  1  2  2  0  0  0  0
  2  3  1  0  0  0  0
  3  4  1  0  0  0  0
  4  5  1  0  0  0  0
  1  5  1  0  0  0  0
  6  7  1  0  0  0  0
  5  6  1  0  0  0  0
  8  9  2  0  0  0  0
  1  8  1  0  0  0  0
M  END
>  <cdx:groupId>
3799

>  <cdx:fragmentId>
3775

$$$$
