44580016.cdx
  Mrv1902 05222410222D          

 38 43  0  0  0  0            999 V2000
    4.1624   -6.3907    0.0000 C   0  0  1  0  0  0  0  0  0  0  0  0
    4.9829   -6.4769    0.0000 C   0  0  1  0  0  0  0  0  0  0  0  0
    5.3185   -7.2306    0.0000 C   0  0  0  0  0  0  0  0  0  0  0  0
    3.8269   -5.6370    0.0000 O   0  0  0  0  0  0  0  0  0  0  0  0
    5.4678   -5.8095    0.0000 O   0  0  0  0  0  0  0  0  0  0  0  0
    6.2883   -5.8957    0.0000 C   0  0  0  0  0  0  0  0  0  0  0  0
    6.7732   -5.2283    0.0000 C   0  0  0  0  0  0  0  0  0  0  0  0
    7.5937   -5.3145    0.0000 C   0  0  0  0  0  0  0  0  0  0  0  0
    7.9293   -6.0682    0.0000 C   0  0  0  0  0  0  0  0  0  0  0  0
    7.4444   -6.7356    0.0000 C   0  0  0  0  0  0  0  0  0  0  0  0
    6.6239   -6.6494    0.0000 C   0  0  0  0  0  0  0  0  0  0  0  0
    6.4377   -4.4746    0.0000 O   0  0  0  0  0  0  0  0  0  0  0  0
    5.6172   -4.3883    0.0000 C   0  0  0  0  0  0  0  0  0  0  0  0
    9.3018   -5.5413    0.0000 O   0  0  0  0  0  0  0  0  0  0  0  0
    8.7498   -6.1544    0.0000 C   0  0  1  0  0  0  0  0  0  0  0  0
    9.1623   -6.8689    0.0000 C   0  0  1  0  0  0  0  0  0  0  0  0
    9.9692   -6.6973    0.0000 C   0  0  2  0  0  0  0  0  0  0  0  0
   10.0555   -5.8769    0.0000 C   0  0  1  0  0  0  0  0  0  0  0  0
   10.5823   -7.2494    0.0000 C   0  0  0  0  0  0  0  0  0  0  0  0
    8.8267   -7.6225    0.0000 C   0  0  0  0  0  0  0  0  0  0  0  0
   12.9835   -4.3844    0.0000 O   0  0  0  0  0  0  0  0  0  0  0  0
   13.4684   -5.0519    0.0000 C   0  0  0  0  0  0  0  0  0  0  0  0
   12.9835   -5.7193    0.0000 O   0  0  0  0  0  0  0  0  0  0  0  0
   12.1989   -5.4644    0.0000 C   0  0  0  0  0  0  0  0  0  0  0  0
   12.1989   -4.6394    0.0000 C   0  0  0  0  0  0  0  0  0  0  0  0
   11.4844   -5.8769    0.0000 C   0  0  0  0  0  0  0  0  0  0  0  0
   10.7699   -5.4644    0.0000 C   0  0  0  0  0  0  0  0  0  0  0  0
   10.7699   -4.6394    0.0000 C   0  0  0  0  0  0  0  0  0  0  0  0
   11.4844   -4.2269    0.0000 C   0  0  0  0  0  0  0  0  0  0  0  0
    2.0946   -8.9450    0.0000 O   0  0  0  0  0  0  0  0  0  0  0  0
    1.3801   -8.5325    0.0000 C   0  0  0  0  0  0  0  0  0  0  0  0
    1.5516   -7.7255    0.0000 O   0  0  0  0  0  0  0  0  0  0  0  0
    2.3721   -7.6393    0.0000 C   0  0  0  0  0  0  0  0  0  0  0  0
    2.7077   -8.3930    0.0000 C   0  0  0  0  0  0  0  0  0  0  0  0
    2.8570   -6.9719    0.0000 C   0  0  0  0  0  0  0  0  0  0  0  0
    3.6775   -7.0581    0.0000 C   0  0  0  0  0  0  0  0  0  0  0  0
    4.0131   -7.8118    0.0000 C   0  0  0  0  0  0  0  0  0  0  0  0
    3.5281   -8.4792    0.0000 C   0  0  0  0  0  0  0  0  0  0  0  0
  1  2  1  0  0  0  0
  2  3  1  6  0  0  0
  1  4  1  6  0  0  0
  6  7  1  0  0  0  0
  7  8  2  0  0  0  0
  8  9  1  0  0  0  0
  9 10  2  0  0  0  0
 10 11  1  0  0  0  0
  6 11  2  0  0  0  0
  5  6  1  0  0  0  0
 12 13  1  0  0  0  0
  7 12  1  0  0  0  0
 14 15  1  0  0  0  0
 15 16  1  0  0  0  0
 16 17  1  0  0  0  0
 17 18  1  0  0  0  0
 14 18  1  0  0  0  0
 17 19  1  6  0  0  0
 16 20  1  1  0  0  0
 21 22  1  0  0  0  0
 22 23  1  0  0  0  0
 23 24  1  0  0  0  0
 24 25  1  0  0  0  0
 21 25  1  0  0  0  0
 26 27  1  0  0  0  0
 27 28  2  0  0  0  0
 28 29  1  0  0  0  0
 29 25  2  0  0  0  0
 26 24  2  0  0  0  0
 18 27  1  6  0  0  0
 15  9  1  1  0  0  0
  2  5  1  0  0  0  0
 30 31  1  0  0  0  0
 31 32  1  0  0  0  0
 32 33  1  0  0  0  0
 33 34  1  0  0  0  0
 30 34  1  0  0  0  0
 35 36  1  0  0  0  0
 36 37  2  0  0  0  0
 37 38  1  0  0  0  0
 38 34  2  0  0  0  0
 35 33  2  0  0  0  0
  1 36  1  0  0  0  0
M  END
>  <cdx:groupId>
121

>  <cdx:fragmentId>
45

$$$$
