580132.cdx
  Mrv1902 05222410262D          

  8  9  0  0  0  0            999 V2000
    7.5875   -5.6280    0.0000 C   0  0  0  0  0  0  0  0  0  0  0  0
    8.3411   -5.2925    0.0000 C   0  0  0  0  0  0  0  0  0  0  0  0
    8.8932   -5.9056    0.0000 C   0  0  0  0  0  0  0  0  0  0  0  0
    8.4807   -6.6200    0.0000 C   0  0  0  0  0  0  0  0  0  0  0  0
    7.6737   -6.4485    0.0000 S   0  0  0  0  0  0  0  0  0  0  0  0
    6.8730   -5.2155    0.0000 C   0  0  0  0  0  0  0  0  0  0  0  0
    6.0480   -5.2155    0.0000 C   0  0  0  0  0  0  0  0  0  0  0  0
    6.4605   -4.5011    0.0000 C   0  0  0  0  0  0  0  0  0  0  0  0
  1  2  2  0  0  0  0
  2  3  1  0  0  0  0
  3  4  2  0  0  0  0
  4  5  1  0  0  0  0
  1  5  1  0  0  0  0
  6  7  1  0  0  0  0
  7  8  1  0  0  0  0
  6  8  1  0  0  0  0
  1  6  1  0  0  0  0
M  END
>  <cdx:fragmentId>
3805

$$$$
