580213.cdx
  Mrv1902 05222410212D          

 25 27  0  0  0  0            999 V2000
   11.0834  -10.5872    0.0000 C   0  0  0  0  0  0  0  0  0  0  0  0
   10.3690  -10.1747    0.0000 C   0  0  0  0  0  0  0  0  0  0  0  0
   10.3690   -9.3497    0.0000 C   0  0  0  0  0  0  0  0  0  0  0  0
   11.0834   -8.9372    0.0000 C   0  0  0  0  0  0  0  0  0  0  0  0
   11.7979  -10.1747    0.0000 C   0  0  0  0  0  0  0  0  0  0  0  0
   11.7979   -9.3497    0.0000 C   0  0  0  0  0  0  0  0  0  0  0  0
   12.5825   -9.0948    0.0000 O   0  0  0  0  0  0  0  0  0  0  0  0
   13.0674   -9.7622    0.0000 C   0  0  0  0  0  0  0  0  0  0  0  0
   12.5825  -10.4297    0.0000 O   0  0  0  0  0  0  0  0  0  0  0  0
    2.5098   -8.9372    0.0000 C   0  0  0  0  0  0  0  0  0  0  0  0
    1.7953   -9.3497    0.0000 C   0  0  0  0  0  0  0  0  0  0  0  0
    1.7953  -10.1747    0.0000 C   0  0  0  0  0  0  0  0  0  0  0  0
    2.5098  -10.5872    0.0000 C   0  0  0  0  0  0  0  0  0  0  0  0
    3.2242  -10.1747    0.0000 C   0  0  0  0  0  0  0  0  0  0  0  0
    3.2242   -9.3497    0.0000 N   0  0  0  0  0  0  0  0  0  0  0  0
    3.9387   -8.1122    0.0000 O   0  0  0  0  0  0  0  0  0  0  0  0
    9.6545   -8.9372    0.0000 C   0  0  0  0  0  0  0  0  0  0  0  0
    8.9400   -9.3497    0.0000 C   0  0  0  0  0  0  0  0  0  0  0  0
    8.2255   -8.9372    0.0000 C   0  0  0  0  0  0  0  0  0  0  0  0
    7.5111   -9.3497    0.0000 C   0  0  0  0  0  0  0  0  0  0  0  0
    6.7966   -8.9372    0.0000 C   0  0  0  0  0  0  0  0  0  0  0  0
    6.0821   -9.3497    0.0000 C   0  0  0  0  0  0  0  0  0  0  0  0
    5.3677   -8.9372    0.0000 C   0  0  0  0  0  0  0  0  0  0  0  0
    4.6532   -9.3497    0.0000 C   0  0  0  0  0  0  0  0  0  0  0  0
    3.9387   -8.9372    0.0000 C   0  0  0  0  0  0  0  0  0  0  0  0
 17  3  1  0  0  0  0
  4  6  2  0  0  0  0
  1  5  2  0  0  0  0
  2  1  1  0  0  0  0
  3  2  2  0  0  0  0
  4  3  1  0  0  0  0
  9  5  1  0  0  0  0
  6  5  1  0  0  0  0
  7  6  1  0  0  0  0
  8  7  1  0  0  0  0
  9  8  1  0  0  0  0
 25 15  1  0  0  0  0
 15 10  1  0  0  0  0
 11 10  1  0  0  0  0
 12 11  1  0  0  0  0
 13 12  1  0  0  0  0
 14 13  1  0  0  0  0
 15 14  1  0  0  0  0
 25 16  2  0  0  0  0
 18 17  2  0  0  0  0
 19 18  1  0  0  0  0
 20 19  1  0  0  0  0
 21 20  1  0  0  0  0
 22 21  1  0  0  0  0
 23 22  1  0  0  0  0
 24 23  1  0  0  0  0
 25 24  1  0  0  0  0
M  END
>  <cdx:groupId>
131410

>  <cdx:fragmentId>
131336

$$$$
