580381.cdx
  Mrv1902 05222410252D          

 10 10  0  0  0  0            999 V2000
   15.9129  -13.0644    0.0000 O   0  0  0  0  0  0  0  0  0  0  0  0
   16.4649  -13.6775    0.0000 C   0  0  0  0  0  0  0  0  0  0  0  0
   16.0524  -14.3919    0.0000 C   0  0  0  0  0  0  0  0  0  0  0  0
   15.2455  -14.2204    0.0000 C   0  0  0  0  0  0  0  0  0  0  0  0
   15.1592  -13.3999    0.0000 C   0  0  0  0  0  0  0  0  0  0  0  0
   14.4448  -12.9874    0.0000 C   0  0  0  0  0  0  0  0  0  0  0  0
   13.7303  -13.3999    0.0000 O   0  0  0  0  0  0  0  0  0  0  0  0
   17.2854  -13.5912    0.0000 C   0  0  0  0  0  0  0  0  0  0  0  0
   17.6210  -12.8375    0.0000 O   0  0  0  0  0  0  0  0  0  0  0  0
   17.7703  -14.2587    0.0000 C   0  0  0  0  0  0  0  0  0  0  0  0
  1  2  1  0  0  0  0
  2  3  2  0  0  0  0
  3  4  1  0  0  0  0
  4  5  2  0  0  0  0
  1  5  1  0  0  0  0
  6  7  1  0  0  0  0
  5  6  1  0  0  0  0
  8  9  2  0  0  0  0
  8 10  1  0  0  0  0
  2  8  1  0  0  0  0
M  END
>  <cdx:groupId>
3860

>  <cdx:fragmentId>
3833

$$$$
