5803.cdx
  Mrv1902 05222410192D          

 27 29  0  0  0  0            999 V2000
    4.4583   -6.1600    0.0000 C   0  0  0  0  0  0  0  0  0  0  0  0
    4.4583   -6.9850    0.0000 C   0  0  0  0  0  0  0  0  0  0  0  0
    5.1727   -7.3975    0.0000 C   0  0  0  0  0  0  0  0  0  0  0  0
    5.8872   -6.9850    0.0000 C   0  0  0  0  0  0  0  0  0  0  0  0
    5.8872   -6.1600    0.0000 C   0  0  0  0  0  0  0  0  0  0  0  0
    5.1727   -5.7475    0.0000 C   0  0  0  0  0  0  0  0  0  0  0  0
    6.6017   -7.3975    0.0000 C   0  0  0  0  0  0  0  0  0  0  0  0
    7.3162   -6.9850    0.0000 C   0  0  0  0  0  0  0  0  0  0  0  0
    7.3162   -6.1600    0.0000 C   0  0  0  0  0  0  0  0  0  0  0  0
    6.6017   -5.7475    0.0000 O   0  0  0  0  0  0  0  0  0  0  0  0
    8.0306   -7.3975    0.0000 C   0  0  0  0  0  0  0  0  0  0  0  0
    8.7451   -6.9850    0.0000 C   0  0  0  0  0  0  0  0  0  0  0  0
    8.7451   -6.1600    0.0000 C   0  0  0  0  0  0  0  0  0  0  0  0
    9.4596   -7.3975    0.0000 C   0  0  0  0  0  0  0  0  0  0  0  0
   10.1740   -6.9850    0.0000 C   0  0  0  0  0  0  0  0  0  0  0  0
   10.1740   -6.1600    0.0000 C   0  0  0  0  0  0  0  0  0  0  0  0
    9.4596   -5.7475    0.0000 C   0  0  0  0  0  0  0  0  0  0  0  0
    6.6017   -8.2225    0.0000 O   0  0  0  0  0  0  0  0  0  0  0  0
    5.1727   -4.9225    0.0000 O   0  0  0  0  0  0  0  0  0  0  0  0
    3.7438   -5.7475    0.0000 O   0  0  0  0  0  0  0  0  0  0  0  0
    3.7438   -7.3975    0.0000 C   0  0  0  0  0  0  0  0  0  0  0  0
    5.1727   -8.2225    0.0000 O   0  0  0  0  0  0  0  0  0  0  0  0
   10.8885   -5.7475    0.0000 O   0  0  0  0  0  0  0  0  0  0  0  0
    9.4596   -8.2225    0.0000 O   0  0  0  0  0  0  0  0  0  0  0  0
    3.0293   -6.1600    0.0000 C   0  0  0  0  0  0  0  0  0  0  0  0
    4.4583   -4.5100    0.0000 C   0  0  0  0  0  0  0  0  0  0  0  0
   11.6030   -6.1600    0.0000 C   0  0  0  0  0  0  0  0  0  0  0  0
  1  2  2  0  0  0  0
  2  3  1  0  0  0  0
  3  4  2  0  0  0  0
  4  5  1  0  0  0  0
  5  6  2  0  0  0  0
  6  1  1  0  0  0  0
  4  7  1  0  0  0  0
  7  8  1  0  0  0  0
  8  9  1  0  0  0  0
  9 10  1  0  0  0  0
 10  5  1  0  0  0  0
  8 11  1  0  0  0  0
 11 12  1  0  0  0  0
 12 13  1  0  0  0  0
 12 14  2  0  0  0  0
 14 15  1  0  0  0  0
 15 16  2  0  0  0  0
 16 17  1  0  0  0  0
 17 13  2  0  0  0  0
  7 18  2  0  0  0  0
  6 19  1  0  0  0  0
  1 20  1  0  0  0  0
  2 21  1  0  0  0  0
  3 22  1  0  0  0  0
 16 23  1  0  0  0  0
 14 24  1  0  0  0  0
 20 25  1  0  0  0  0
 19 26  1  0  0  0  0
 23 27  1  0  0  0  0
M  END
>  <cdx:fragmentId>
5

$$$$
