580475.cdx
  Mrv1902 05222410192D          

 43 45  0  0  0  0            999 V2000
    8.1794   -4.9311    0.0000 C   0  0  0  0  0  0  0  0  0  0  0  0
    8.6585   -4.2595    0.0000 C   0  0  0  0  0  0  0  0  0  0  0  0
    9.4797   -4.3386    0.0000 C   0  0  0  0  0  0  0  0  0  0  0  0
    8.5214   -5.6818    0.0000 O   0  0  0  0  0  0  0  0  0  0  0  0
    7.3582   -4.8519    0.0000 O   0  0  0  0  0  0  0  0  0  0  0  0
    9.9589   -3.6670    0.0000 C   0  0  0  0  0  0  0  0  0  0  0  0
    9.6168   -2.9163    0.0000 C   0  0  0  0  0  0  0  0  0  0  0  0
   10.0960   -2.2447    0.0000 C   0  0  0  0  0  0  0  0  0  0  0  0
   10.9172   -2.3238    0.0000 C   0  0  0  0  0  0  0  0  0  0  0  0
   11.2592   -3.0746    0.0000 C   0  0  0  0  0  0  0  0  0  0  0  0
   10.7801   -3.7462    0.0000 C   0  0  0  0  0  0  0  0  0  0  0  0
   11.3963   -1.6522    0.0000 O   0  0  0  0  0  0  0  0  0  0  0  0
    6.4775   -6.7966    0.0000 O   0  0  0  0  0  0  0  0  0  0  0  0
    7.1408   -6.3059    0.0000 C   0  0  1  0  0  0  0  0  0  0  0  0
    6.8791   -5.5235    0.0000 C   0  0  2  0  0  0  0  0  0  0  0  0
    6.0541   -5.5307    0.0000 C   0  0  1  0  0  0  0  0  0  0  0  0
    5.8059   -6.3175    0.0000 C   0  0  1  0  0  0  0  0  0  0  0  0
    5.0235   -6.5792    0.0000 C   0  0  0  0  0  0  0  0  0  0  0  0
    4.4402   -5.9958    0.0000 O   0  0  0  0  0  0  0  0  0  0  0  0
    5.5634   -4.8674    0.0000 O   0  0  0  0  0  0  0  0  0  0  0  0
    7.9545   -6.1699    0.0000 C   0  0  0  0  0  0  0  0  0  0  0  0
    7.7241   -6.8893    0.0000 O   0  0  0  0  0  0  0  0  0  0  0  0
    7.7241   -7.7143    0.0000 C   0  0  1  0  0  0  0  0  0  0  0  0
    7.0097   -8.1268    0.0000 O   0  0  0  0  0  0  0  0  0  0  0  0
    7.0097   -8.9518    0.0000 C   0  0  1  0  0  0  0  0  0  0  0  0
    7.7241   -9.3643    0.0000 C   0  0  2  0  0  0  0  0  0  0  0  0
    8.4386   -8.9518    0.0000 C   0  0  1  0  0  0  0  0  0  0  0  0
    8.4386   -8.1268    0.0000 C   0  0  1  0  0  0  0  0  0  0  0  0
    9.1531   -7.7143    0.0000 O   0  0  0  0  0  0  0  0  0  0  0  0
    7.7241  -10.1893    0.0000 O   0  0  0  0  0  0  0  0  0  0  0  0
    8.4792   -6.8065    0.0000 O   0  0  0  0  0  0  0  0  0  0  0  0
    6.2952  -10.1893    0.0000 O   0  0  0  0  0  0  0  0  0  0  0  0
    6.2952   -9.3643    0.0000 C   0  0  0  0  0  0  0  0  0  0  0  0
    8.4386  -10.6018    0.0000 O   0  0  0  0  0  0  0  0  0  0  0  0
    9.8675  -10.6018    0.0000 C   0  0  0  0  0  0  0  0  0  0  0  0
    9.1531  -10.1893    0.0000 C   0  0  0  0  0  0  0  0  0  0  0  0
    9.1531   -9.3643    0.0000 O   0  0  0  0  0  0  0  0  0  0  0  0
    5.8925   -4.1109    0.0000 C   0  0  0  0  0  0  0  0  0  0  0  0
    5.4018   -3.4477    0.0000 O   0  0  0  0  0  0  0  0  0  0  0  0
    6.7122   -4.0176    0.0000 C   0  0  0  0  0  0  0  0  0  0  0  0
    9.8675   -8.1268    0.0000 C   0  0  0  0  0  0  0  0  0  0  0  0
   10.5820   -7.7143    0.0000 C   0  0  0  0  0  0  0  0  0  0  0  0
    9.8675   -8.9518    0.0000 O   0  0  0  0  0  0  0  0  0  0  0  0
  1  2  1  0  0  0  0
  2  3  2  0  0  0  0
  1  4  2  0  0  0  0
  1  5  1  0  0  0  0
  6  7  1  0  0  0  0
  7  8  2  0  0  0  0
  8  9  1  0  0  0  0
  9 10  2  0  0  0  0
 10 11  1  0  0  0  0
  6 11  2  0  0  0  0
  9 12  1  0  0  0  0
  3  6  1  0  0  0  0
 13 14  1  0  0  0  0
 14 15  1  0  0  0  0
 15 16  1  0  0  0  0
 16 17  1  0  0  0  0
 13 17  1  0  0  0  0
 18 19  1  0  0  0  0
 17 18  1  6  0  0  0
 16 20  1  1  0  0  0
 15  5  1  6  0  0  0
 14 21  1  0  0  0  0
 14 22  1  6  0  0  0
 23 22  1  6  0  0  0
 23 24  1  0  0  0  0
 24 25  1  0  0  0  0
 25 26  1  0  0  0  0
 26 27  1  0  0  0  0
 27 28  1  0  0  0  0
 28 23  1  0  0  0  0
 25 33  1  1  0  0  0
 36 34  2  0  0  0  0
 27 37  1  1  0  0  0
 28 29  1  6  0  0  0
 26 30  1  6  0  0  0
 21 31  1  0  0  0  0
 33 32  1  0  0  0  0
 36 35  1  0  0  0  0
 37 36  1  0  0  0  0
 20 38  1  0  0  0  0
 38 39  2  0  0  0  0
 38 40  1  0  0  0  0
 29 41  1  0  0  0  0
 41 42  1  0  0  0  0
 41 43  2  0  0  0  0
M  END
>  <cdx:fragmentId>
204591

$$$$
