580473.cdx
  Mrv1902 05222410202D          

 43 45  0  0  0  0            999 V2000
    7.6294   -4.3811    0.0000 C   0  0  0  0  0  0  0  0  0  0  0  0
    8.1085   -3.7095    0.0000 C   0  0  0  0  0  0  0  0  0  0  0  0
    8.9297   -3.7886    0.0000 C   0  0  0  0  0  0  0  0  0  0  0  0
    7.9714   -5.1318    0.0000 O   0  0  0  0  0  0  0  0  0  0  0  0
    6.8082   -4.3019    0.0000 O   0  0  0  0  0  0  0  0  0  0  0  0
    9.4089   -3.1170    0.0000 C   0  0  0  0  0  0  0  0  0  0  0  0
    9.0668   -2.3663    0.0000 C   0  0  0  0  0  0  0  0  0  0  0  0
    9.5460   -1.6947    0.0000 C   0  0  0  0  0  0  0  0  0  0  0  0
   10.3672   -1.7738    0.0000 C   0  0  0  0  0  0  0  0  0  0  0  0
   10.7092   -2.5246    0.0000 C   0  0  0  0  0  0  0  0  0  0  0  0
   10.2301   -3.1962    0.0000 C   0  0  0  0  0  0  0  0  0  0  0  0
   10.8463   -1.1022    0.0000 O   0  0  0  0  0  0  0  0  0  0  0  0
    5.9275   -6.2466    0.0000 O   0  0  0  0  0  0  0  0  0  0  0  0
    6.5908   -5.7559    0.0000 C   0  0  1  0  0  0  0  0  0  0  0  0
    6.3291   -4.9735    0.0000 C   0  0  2  0  0  0  0  0  0  0  0  0
    5.5041   -4.9807    0.0000 C   0  0  1  0  0  0  0  0  0  0  0  0
    5.2559   -5.7675    0.0000 C   0  0  1  0  0  0  0  0  0  0  0  0
    4.4735   -6.0292    0.0000 C   0  0  0  0  0  0  0  0  0  0  0  0
    3.8902   -5.4458    0.0000 O   0  0  0  0  0  0  0  0  0  0  0  0
    5.0134   -4.3174    0.0000 O   0  0  0  0  0  0  0  0  0  0  0  0
    7.4045   -5.6199    0.0000 C   0  0  0  0  0  0  0  0  0  0  0  0
    7.1741   -6.3393    0.0000 O   0  0  0  0  0  0  0  0  0  0  0  0
    7.1741   -7.1643    0.0000 C   0  0  1  0  0  0  0  0  0  0  0  0
    6.4597   -7.5768    0.0000 O   0  0  0  0  0  0  0  0  0  0  0  0
    6.4597   -8.4018    0.0000 C   0  0  1  0  0  0  0  0  0  0  0  0
    7.1741   -8.8143    0.0000 C   0  0  2  0  0  0  0  0  0  0  0  0
    7.8886   -8.4018    0.0000 C   0  0  1  0  0  0  0  0  0  0  0  0
    7.8886   -7.5768    0.0000 C   0  0  1  0  0  0  0  0  0  0  0  0
    8.6031   -7.1643    0.0000 O   0  0  0  0  0  0  0  0  0  0  0  0
    7.1741   -9.6393    0.0000 O   0  0  0  0  0  0  0  0  0  0  0  0
    4.3162   -9.6393    0.0000 C   0  0  0  0  0  0  0  0  0  0  0  0
    7.9292   -6.2565    0.0000 O   0  0  0  0  0  0  0  0  0  0  0  0
    3.6018   -8.4018    0.0000 O   0  0  0  0  0  0  0  0  0  0  0  0
    4.3162   -8.8143    0.0000 C   0  0  0  0  0  0  0  0  0  0  0  0
    5.0307   -8.4018    0.0000 O   0  0  0  0  0  0  0  0  0  0  0  0
    5.7452   -8.8143    0.0000 C   0  0  0  0  0  0  0  0  0  0  0  0
    7.8886  -10.0518    0.0000 O   0  0  0  0  0  0  0  0  0  0  0  0
    9.3175  -10.0518    0.0000 C   0  0  0  0  0  0  0  0  0  0  0  0
    8.6031   -9.6393    0.0000 C   0  0  0  0  0  0  0  0  0  0  0  0
    8.6031   -8.8143    0.0000 O   0  0  0  0  0  0  0  0  0  0  0  0
    6.4597  -10.0518    0.0000 C   0  0  0  0  0  0  0  0  0  0  0  0
    6.4597  -10.8768    0.0000 O   0  0  0  0  0  0  0  0  0  0  0  0
    5.7452   -9.6393    0.0000 C   0  0  0  0  0  0  0  0  0  0  0  0
  1  2  1  0  0  0  0
  2  3  2  0  0  0  0
  1  4  2  0  0  0  0
  1  5  1  0  0  0  0
  6  7  1  0  0  0  0
  7  8  2  0  0  0  0
  8  9  1  0  0  0  0
  9 10  2  0  0  0  0
 10 11  1  0  0  0  0
  6 11  2  0  0  0  0
  9 12  1  0  0  0  0
  3  6  1  0  0  0  0
 13 14  1  0  0  0  0
 14 15  1  0  0  0  0
 15 16  1  0  0  0  0
 16 17  1  0  0  0  0
 13 17  1  0  0  0  0
 18 19  1  0  0  0  0
 17 18  1  6  0  0  0
 16 20  1  1  0  0  0
 15  5  1  6  0  0  0
 14 21  1  0  0  0  0
 14 22  1  6  0  0  0
 23 22  1  6  0  0  0
 23 24  1  0  0  0  0
 24 25  1  0  0  0  0
 25 26  1  0  0  0  0
 26 27  1  0  0  0  0
 27 28  1  0  0  0  0
 28 23  1  0  0  0  0
 34 31  1  0  0  0  0
 25 36  1  1  0  0  0
 39 37  2  0  0  0  0
 27 40  1  1  0  0  0
 28 29  1  6  0  0  0
 26 30  1  6  0  0  0
 34 33  2  0  0  0  0
 21 32  1  0  0  0  0
 35 34  1  0  0  0  0
 36 35  1  0  0  0  0
 39 38  1  0  0  0  0
 40 39  1  0  0  0  0
 30 41  1  0  0  0  0
 41 42  2  0  0  0  0
 41 43  1  0  0  0  0
M  END
>  <cdx:fragmentId>
204591

$$$$
