5810.cdx
  Mrv1902 05222410182D          

  9  9  0  0  0  0            999 V2000
    6.3952   -4.6465    0.0000 N   0  0  0  0  0  0  0  0  0  0  0  0
    6.6380   -3.8580    0.0000 C   0  0  1  0  0  0  0  0  0  0  0  0
    5.9632   -3.3835    0.0000 C   0  0  0  0  0  0  0  0  0  0  0  0
    5.3033   -3.8787    0.0000 C   0  0  2  0  0  0  0  0  0  0  0  0
    5.5703   -4.6592    0.0000 C   0  0  0  0  0  0  0  0  0  0  0  0
    7.4186   -3.5910    0.0000 C   0  0  0  0  0  0  0  0  0  0  0  0
    7.5776   -2.7815    0.0000 O   0  0  0  0  0  0  0  0  0  0  0  0
    8.0401   -4.1335    0.0000 O   0  0  0  0  0  0  0  0  0  0  0  0
    4.5148   -3.6359    0.0000 O   0  0  0  0  0  0  0  0  0  0  0  0
  1  2  1  0  0  0  0
  2  3  1  0  0  0  0
  3  4  1  0  0  0  0
  4  5  1  0  0  0  0
  1  5  1  0  0  0  0
  6  7  2  0  0  0  0
  6  8  1  0  0  0  0
  2  6  1  1  0  0  0
  4  9  1  6  0  0  0
M  END
>  <cdx:fragmentId>
5

$$$$
