581292.cdx
  Mrv1902 05222410212D          

 39 43  0  0  0  0            999 V2000
    3.8987   -7.2814    0.0000 C   0  0  0  0  0  0  0  0  0  0  0  0
    4.6131   -7.6939    0.0000 C   0  0  0  0  0  0  0  0  0  0  0  0
    5.3276   -7.2814    0.0000 C   0  0  0  0  0  0  0  0  0  0  0  0
    6.0421   -7.6939    0.0000 C   0  0  0  0  0  0  0  0  0  0  0  0
    6.0421   -8.5189    0.0000 C   0  0  0  0  0  0  0  0  0  0  0  0
    5.3276   -8.9314    0.0000 C   0  0  0  0  0  0  0  0  0  0  0  0
    4.6131   -8.5189    0.0000 C   0  0  0  0  0  0  0  0  0  0  0  0
    3.8987   -8.9314    0.0000 O   0  0  0  0  0  0  0  0  0  0  0  0
    3.1842   -8.5189    0.0000 C   0  0  0  0  0  0  0  0  0  0  0  0
    2.4697   -8.9314    0.0000 C   0  0  0  0  0  0  0  0  0  0  0  0
    1.7552   -8.5189    0.0000 C   0  0  0  0  0  0  0  0  0  0  0  0
    1.7552   -7.6939    0.0000 C   0  0  0  0  0  0  0  0  0  0  0  0
    2.4697   -7.2814    0.0000 C   0  0  0  0  0  0  0  0  0  0  0  0
    3.1842   -7.6939    0.0000 C   0  0  0  0  0  0  0  0  0  0  0  0
    3.8987   -6.4564    0.0000 O   0  0  0  0  0  0  0  0  0  0  0  0
    1.0408   -7.2814    0.0000 O   0  0  0  0  0  0  0  0  0  0  0  0
    6.7565   -8.9314    0.0000 O   0  0  0  0  0  0  0  0  0  0  0  0
    5.3276   -6.4564    0.0000 O   0  0  0  0  0  0  0  0  0  0  0  0
    7.4710   -7.6939    0.0000 O   0  0  0  0  0  0  0  0  0  0  0  0
    6.7565   -7.2814    0.0000 C   0  0  2  0  0  0  0  0  0  0  0  0
    6.7565   -6.4564    0.0000 C   0  0  1  0  0  0  0  0  0  0  0  0
    7.4710   -6.0439    0.0000 C   0  0  2  0  0  0  0  0  0  0  0  0
    8.1855   -6.4564    0.0000 C   0  0  1  0  0  0  0  0  0  0  0  0
    8.1855   -7.2814    0.0000 C   0  0  1  0  0  0  0  0  0  0  0  0
    8.9000   -6.0439    0.0000 O   0  0  0  0  0  0  0  0  0  0  0  0
    7.4710   -5.2189    0.0000 O   0  0  0  0  0  0  0  0  0  0  0  0
    6.0421   -6.0439    0.0000 O   0  0  0  0  0  0  0  0  0  0  0  0
    8.9000   -7.6939    0.0000 C   0  0  0  0  0  0  0  0  0  0  0  0
    9.6144   -7.2814    0.0000 O   0  0  0  0  0  0  0  0  0  0  0  0
   10.4151   -8.5144    0.0000 O   0  0  0  0  0  0  0  0  0  0  0  0
   10.3289   -7.6939    0.0000 C   0  0  2  0  0  0  0  0  0  0  0  0
   11.0826   -7.3584    0.0000 C   0  0  1  0  0  0  0  0  0  0  0  0
   11.6346   -7.9715    0.0000 C   0  0  2  0  0  0  0  0  0  0  0  0
   11.2221   -8.6859    0.0000 C   0  0  0  0  0  0  0  0  0  0  0  0
   12.3883   -8.3070    0.0000 C   0  0  0  0  0  0  0  0  0  0  0  0
   13.0557   -7.8221    0.0000 O   0  0  0  0  0  0  0  0  0  0  0  0
   12.3020   -7.4865    0.0000 O   0  0  0  0  0  0  0  0  0  0  0  0
   11.2541   -6.5514    0.0000 O   0  0  0  0  0  0  0  0  0  0  0  0
    6.7565   -8.1064    0.0000 H   0  0  0  0  0  0  0  0  0  0  0  0
  1  2  1  0  0  0  0
  2  3  1  0  0  0  0
  3  4  2  0  0  0  0
  4  5  1  0  0  0  0
  5  6  2  0  0  0  0
  6  7  1  0  0  0  0
  2  7  2  0  0  0  0
  7  8  1  0  0  0  0
  8  9  1  0  0  0  0
  9 10  1  0  0  0  0
 10 11  2  0  0  0  0
 11 12  1  0  0  0  0
 12 13  2  0  0  0  0
 13 14  1  0  0  0  0
  9 14  2  0  0  0  0
  1 14  1  0  0  0  0
  1 15  2  0  0  0  0
 12 16  1  0  0  0  0
  5 17  1  0  0  0  0
  3 18  1  0  0  0  0
 19 20  1  0  0  0  0
 20 21  1  0  0  0  0
 21 22  1  0  0  0  0
 22 23  1  0  0  0  0
 23 24  1  0  0  0  0
 19 24  1  0  0  0  0
 23 25  1  6  0  0  0
 22 26  1  1  0  0  0
 21 27  1  6  0  0  0
 30 31  1  0  0  0  0
 31 32  1  0  0  0  0
 32 33  1  0  0  0  0
 33 34  1  0  0  0  0
 30 34  1  0  0  0  0
 35 36  1  0  0  0  0
 33 35  1  1  0  0  0
 33 37  1  6  0  0  0
 32 38  1  6  0  0  0
 31 29  1  1  0  0  0
 28 29  1  0  0  0  0
 24 28  1  1  0  0  0
 20  4  1  0  0  0  0
 20 39  1  6  0  0  0
M  END
>  <cdx:fragmentId>
131481

$$$$
