581270.cdx
  Mrv1902 05222410242D          

 18 19  0  0  0  0            999 V2000
    9.6514   -7.5233    0.0000 C   0  0  0  0  0  0  0  0  0  0  0  0
    8.9370   -7.9358    0.0000 C   0  0  0  0  0  0  0  0  0  0  0  0
    8.2225   -7.5233    0.0000 C   0  0  0  0  0  0  0  0  0  0  0  0
    9.6514   -6.6983    0.0000 O   0  0  0  0  0  0  0  0  0  0  0  0
   10.3659   -7.9358    0.0000 O   0  0  0  0  0  0  0  0  0  0  0  0
    5.6503   -8.8264    0.0000 O   0  0  0  0  0  0  0  0  0  0  0  0
    4.8966   -8.4909    0.0000 C   0  0  0  0  0  0  0  0  0  0  0  0
    4.9828   -7.6704    0.0000 C   0  0  0  0  0  0  0  0  0  0  0  0
    5.7898   -7.4989    0.0000 O   0  0  0  0  0  0  0  0  0  0  0  0
    6.2023   -8.2133    0.0000 C   0  0  0  0  0  0  0  0  0  0  0  0
    6.7543   -7.6002    0.0000 C   0  0  0  0  0  0  0  0  0  0  0  0
    7.5080   -7.9358    0.0000 C   0  0  0  0  0  0  0  0  0  0  0  0
    7.4218   -8.7563    0.0000 C   0  0  0  0  0  0  0  0  0  0  0  0
    6.6148   -8.9278    0.0000 C   0  0  0  0  0  0  0  0  0  0  0  0
    6.5828   -6.7933    0.0000 C   0  0  0  0  0  0  0  0  0  0  0  0
    4.3697   -7.1184    0.0000 C   0  0  0  0  0  0  0  0  0  0  0  0
    4.1821   -8.9034    0.0000 C   0  0  0  0  0  0  0  0  0  0  0  0
   11.0804   -7.5233    0.0000 C   0  0  0  0  0  0  0  0  0  0  0  0
  1  2  1  0  0  0  0
  2  3  1  0  0  0  0
  1  4  2  0  0  0  0
  1  5  1  0  0  0  0
  6  7  1  0  0  0  0
  7  8  1  0  0  0  0
  8  9  1  0  0  0  0
  9 10  1  0  0  0  0
 10 11  1  0  0  0  0
 11 12  1  0  0  0  0
 12 13  1  0  0  0  0
 13 14  1  0  0  0  0
  6 10  1  0  0  0  0
 14 10  1  0  0  0  0
 11 15  1  0  0  0  0
  8 16  1  0  0  0  0
  7 17  1  0  0  0  0
  3 12  1  0  0  0  0
  5 18  1  0  0  0  0
M  END
>  <cdx:fragmentId>
3876

$$$$
