10581231.cdx
  Mrv1902 05222410182D          

 60 66  0  0  0  0            999 V2000
    6.2724  -10.7483    0.0000 O   0  0  0  0  0  0  0  0  0  0  0  0
    5.5579  -10.3358    0.0000 C   0  0  1  0  0  0  0  0  0  0  0  0
    5.5579   -9.5108    0.0000 C   0  0  2  0  0  0  0  0  0  0  0  0
    6.2724   -9.0983    0.0000 C   0  0  1  0  0  0  0  0  0  0  0  0
    6.9869   -9.5108    0.0000 C   0  0  2  0  0  0  0  0  0  0  0  0
    6.9869  -10.3358    0.0000 C   0  0  2  0  0  0  0  0  0  0  0  0
    4.8434  -10.7483    0.0000 C   0  0  0  0  0  0  0  0  0  0  0  0
    4.8434  -11.5733    0.0000 O   0  0  0  0  0  0  0  0  0  0  0  0
    4.1290  -10.3358    0.0000 O   0  0  0  0  0  0  0  0  0  0  0  0
    7.7013   -9.0983    0.0000 O   0  0  0  0  0  0  0  0  0  0  0  0
    6.9869   -7.8608    0.0000 O   0  0  0  0  0  0  0  0  0  0  0  0
    7.7013   -8.2733    0.0000 C   0  0  2  0  0  0  0  0  0  0  0  0
    8.4158   -7.8608    0.0000 C   0  0  1  0  0  0  0  0  0  0  0  0
    8.4158   -7.0358    0.0000 C   0  0  2  0  0  0  0  0  0  0  0  0
    7.7013   -6.6233    0.0000 C   0  0  2  0  0  0  0  0  0  0  0  0
    6.9869   -7.0358    0.0000 C   0  0  1  0  0  0  0  0  0  0  0  0
    6.2724   -6.6233    0.0000 C   0  0  0  0  0  0  0  0  0  0  0  0
    5.5579   -7.0358    0.0000 O   0  0  0  0  0  0  0  0  0  0  0  0
    7.7013   -5.7983    0.0000 O   0  0  0  0  0  0  0  0  0  0  0  0
    9.1303   -6.6233    0.0000 O   0  0  0  0  0  0  0  0  0  0  0  0
    9.1303   -8.2733    0.0000 O   0  0  0  0  0  0  0  0  0  0  0  0
    6.2724   -8.2733    0.0000 O   0  0  0  0  0  0  0  0  0  0  0  0
    4.8434   -9.0983    0.0000 O   0  0  0  0  0  0  0  0  0  0  0  0
    7.7013  -10.7483    0.0000 O   0  0  0  0  0  0  0  0  0  0  0  0
    9.1303   -9.0983    0.0000 C   0  0  0  0  0  0  0  0  0  0  0  0
    8.4158   -9.5108    0.0000 C   0  0  0  0  0  0  0  0  0  0  0  0
    8.4158  -10.3358    0.0000 C   0  0  1  0  0  0  0  0  0  0  0  0
    9.1303  -10.7483    0.0000 C   0  0  1  0  0  0  0  0  0  0  0  0
    9.8447  -10.3358    0.0000 C   0  0  2  0  0  0  0  0  0  0  0  0
   10.5592  -10.7483    0.0000 C   0  0  0  0  0  0  0  0  0  0  0  0
   11.2737  -10.3358    0.0000 C   0  0  0  0  0  0  0  0  0  0  0  0
   11.2737   -9.5108    0.0000 C   0  0  1  0  0  0  0  0  0  0  0  0
   11.9881   -9.0983    0.0000 C   0  0  2  0  0  0  0  0  0  0  0  0
   12.7026   -9.5108    0.0000 C   0  0  0  0  0  0  0  0  0  0  0  0
   13.4171   -9.0983    0.0000 C   0  0  0  0  0  0  0  0  0  0  0  0
   13.4171   -8.2733    0.0000 C   0  0  1  0  0  0  0  0  0  0  0  0
   14.1316   -7.8608    0.0000 C   0  0  0  0  0  0  0  0  0  0  0  0
   14.1316   -7.0358    0.0000 C   0  0  0  0  0  0  0  0  0  0  0  0
   13.4171   -6.6233    0.0000 C   0  0  0  0  0  0  0  0  0  0  0  0
   12.7026   -7.0358    0.0000 C   0  0  0  0  0  0  0  0  0  0  0  0
   12.7026   -7.8608    0.0000 C   0  0  1  0  0  0  0  0  0  0  0  0
   11.9881   -8.2733    0.0000 C   0  0  0  0  0  0  0  0  0  0  0  0
   11.2737   -7.8608    0.0000 C   0  0  0  0  0  0  0  0  0  0  0  0
   10.5592   -8.2733    0.0000 C   0  0  0  0  0  0  0  0  0  0  0  0
   10.5592   -9.0983    0.0000 C   0  0  2  0  0  0  0  0  0  0  0  0
    9.8447   -9.5108    0.0000 C   0  0  1  0  0  0  0  0  0  0  0  0
    9.8447   -8.6858    0.0000 C   0  0  0  0  0  0  0  0  0  0  0  0
   13.0046   -5.9089    0.0000 C   0  0  0  0  0  0  0  0  0  0  0  0
   13.8296   -5.9089    0.0000 C   0  0  0  0  0  0  0  0  0  0  0  0
   11.9881   -9.9233    0.0000 C   0  0  0  0  0  0  0  0  0  0  0  0
   11.2737   -8.6858    0.0000 C   0  0  0  0  0  0  0  0  0  0  0  0
    8.7178  -11.4628    0.0000 C   0  0  0  0  0  0  0  0  0  0  0  0
    9.5428  -11.4628    0.0000 C   0  0  0  0  0  0  0  0  0  0  0  0
    9.1303  -12.1773    0.0000 O   0  0  0  0  0  0  0  0  0  0  0  0
   14.1316   -8.6858    0.0000 C   0  0  0  0  0  0  0  0  0  0  0  0
   14.1316   -9.5108    0.0000 O   0  0  0  0  0  0  0  0  0  0  0  0
   14.8460   -8.2733    0.0000 O   0  0  0  0  0  0  0  0  0  0  0  0
    9.8447  -11.1608    0.0000 H   0  0  0  0  0  0  0  0  0  0  0  0
   12.7026   -8.6858    0.0000 H   0  0  0  0  0  0  0  0  0  0  0  0
   10.5592   -9.9233    0.0000 H   0  0  0  0  0  0  0  0  0  0  0  0
  1  2  1  0  0  0  0
  2  3  1  0  0  0  0
  3  4  1  0  0  0  0
  4  5  1  0  0  0  0
  5  6  1  0  0  0  0
  1  6  1  0  0  0  0
  7  8  2  0  0  0  0
  7  9  1  0  0  0  0
  2  7  1  6  0  0  0
 11 12  1  0  0  0  0
 12 13  1  0  0  0  0
 13 14  1  0  0  0  0
 14 15  1  0  0  0  0
 15 16  1  0  0  0  0
 11 16  1  0  0  0  0
 17 18  1  0  0  0  0
 16 17  1  6  0  0  0
 15 19  1  6  0  0  0
 14 20  1  6  0  0  0
 13 21  1  1  0  0  0
 12 10  1  6  0  0  0
  5 10  1  1  0  0  0
  4 22  1  6  0  0  0
  3 23  1  1  0  0  0
 25 26  1  0  0  0  0
 26 27  1  0  0  0  0
 27 28  1  0  0  0  0
 28 29  1  0  0  0  0
 29 30  1  0  0  0  0
 30 31  1  0  0  0  0
 31 32  1  0  0  0  0
 32 33  1  0  0  0  0
 33 34  1  0  0  0  0
 34 35  1  0  0  0  0
 35 36  1  0  0  0  0
 36 37  1  0  0  0  0
 37 38  1  0  0  0  0
 38 39  1  0  0  0  0
 39 40  1  0  0  0  0
 40 41  1  0  0  0  0
 36 41  1  0  0  0  0
 41 42  1  0  0  0  0
 33 42  1  0  0  0  0
 42 43  2  0  0  0  0
 43 44  1  0  0  0  0
 44 45  1  0  0  0  0
 32 45  1  0  0  0  0
 45 46  1  0  0  0  0
 29 46  1  0  0  0  0
 25 46  1  0  0  0  0
 46 47  1  1  0  0  0
 39 48  1  0  0  0  0
 39 49  1  0  0  0  0
 33 50  1  6  0  0  0
 32 51  1  1  0  0  0
 28 52  1  1  0  0  0
 53 54  2  0  0  0  0
 28 53  1  6  0  0  0
 55 56  2  0  0  0  0
 55 57  1  0  0  0  0
 36 55  1  1  0  0  0
 27 24  1  1  0  0  0
  6 24  1  6  0  0  0
 29 58  1  6  0  0  0
 41 59  1  1  0  0  0
 45 60  1  6  0  0  0
M  END
>  <cdx:groupId>
54980

>  <cdx:fragmentId>
54845

$$$$
