581486.cdx
  Mrv1902 05222410222D          

 15 14  0  0  0  0            999 V2000
   14.7543  -14.6151    0.0000 C   0  0  0  0  0  0  0  0  0  0  0  0
   15.4688  -14.2026    0.0000 C   0  0  0  0  0  0  0  0  0  0  0  0
   16.1832  -14.6151    0.0000 C   0  0  0  0  0  0  0  0  0  0  0  0
   14.0398  -14.2026    0.0000 C   0  0  0  0  0  0  0  0  0  0  0  0
   14.0398  -13.3776    0.0000 O   0  0  0  0  0  0  0  0  0  0  0  0
   13.3253  -14.6151    0.0000 O   0  0  0  0  0  0  0  0  0  0  0  0
   15.4688  -13.3776    0.0000 C   0  0  0  0  0  0  0  0  0  0  0  0
   14.7543  -12.9651    0.0000 O   0  0  0  0  0  0  0  0  0  0  0  0
   16.1832  -12.9651    0.0000 O   0  0  0  0  0  0  0  0  0  0  0  0
   16.8977  -14.2026    0.0000 C   0  0  0  0  0  0  0  0  0  0  0  0
   16.8977  -13.3776    0.0000 O   0  0  0  0  0  0  0  0  0  0  0  0
   17.6122  -14.6151    0.0000 O   0  0  0  0  0  0  0  0  0  0  0  0
   12.6109  -14.2026    0.0000 C   0  0  0  0  0  0  0  0  0  0  0  0
   16.1832  -12.1401    0.0000 C   0  0  0  0  0  0  0  0  0  0  0  0
   18.3266  -14.2026    0.0000 C   0  0  0  0  0  0  0  0  0  0  0  0
  1  2  1  0  0  0  0
  2  3  1  0  0  0  0
  4  5  2  0  0  0  0
  4  6  1  0  0  0  0
  1  4  1  0  0  0  0
  7  8  2  0  0  0  0
  7  9  1  0  0  0  0
  2  7  1  0  0  0  0
 10 11  2  0  0  0  0
 10 12  1  0  0  0  0
  3 10  1  0  0  0  0
  6 13  1  0  0  0  0
  9 14  1  0  0  0  0
 12 15  1  0  0  0  0
M  END
>  <cdx:groupId>
3967

>  <cdx:fragmentId>
3932

$$$$
