581508.cdx
  Mrv1902 05222410202D          

 31 33  0  0  0  0            999 V2000
    6.2871   -9.5495    0.0000 C   0  0  0  0  0  0  0  0  0  0  0  0
    6.2753   -8.7246    0.0000 C   0  0  0  0  0  0  0  0  0  0  0  0
    5.5551   -8.3223    0.0000 C   0  0  0  0  0  0  0  0  0  0  0  0
    4.8465   -8.7450    0.0000 C   0  0  0  0  0  0  0  0  0  0  0  0
    5.5786   -9.9721    0.0000 O   0  0  0  0  0  0  0  0  0  0  0  0
    7.0074   -9.9517    0.0000 O   0  0  0  0  0  0  0  0  0  0  0  0
    6.9839   -8.3019    0.0000 C   0  0  0  0  0  0  0  0  0  0  0  0
    6.3225  -12.0242    0.0000 C   0  0  0  0  0  0  0  0  0  0  0  0
    6.3107  -11.1993    0.0000 C   0  0  2  0  0  0  0  0  0  0  0  0
    7.0192  -10.7767    0.0000 C   0  0  1  0  0  0  0  0  0  0  0  0
    7.7395  -11.1789    0.0000 C   0  0  0  0  0  0  0  0  0  0  0  0
    8.4480  -10.7563    0.0000 C   0  0  0  0  0  0  0  0  0  0  0  0
    9.1683  -11.1585    0.0000 C   0  0  0  0  0  0  0  0  0  0  0  0
    9.1801  -11.9834    0.0000 C   0  0  0  0  0  0  0  0  0  0  0  0
    8.4716  -12.4061    0.0000 C   0  0  0  0  0  0  0  0  0  0  0  0
    7.7513  -12.0038    0.0000 C   0  0  0  0  0  0  0  0  0  0  0  0
    7.0428  -12.4265    0.0000 O   0  0  0  0  0  0  0  0  0  0  0  0
    9.8768  -10.7358    0.0000 C   0  0  0  0  0  0  0  0  0  0  0  0
   10.5971  -11.1381    0.0000 C   0  0  0  0  0  0  0  0  0  0  0  0
   10.6089  -11.9630    0.0000 C   0  0  0  0  0  0  0  0  0  0  0  0
    9.9003  -12.3857    0.0000 O   0  0  0  0  0  0  0  0  0  0  0  0
   11.3291  -12.3653    0.0000 O   0  0  0  0  0  0  0  0  0  0  0  0
    5.5904  -10.7971    0.0000 O   0  0  0  0  0  0  0  0  0  0  0  0
    4.8819  -11.2197    0.0000 C   0  0  0  0  0  0  0  0  0  0  0  0
    4.1616  -10.8175    0.0000 C   0  0  0  0  0  0  0  0  0  0  0  0
    3.4531  -11.2401    0.0000 C   0  0  0  0  0  0  0  0  0  0  0  0
    3.4649  -12.0650    0.0000 C   0  0  0  0  0  0  0  0  0  0  0  0
    4.8937  -12.0446    0.0000 O   0  0  0  0  0  0  0  0  0  0  0  0
    4.1498   -9.9926    0.0000 C   0  0  0  0  0  0  0  0  0  0  0  0
    5.9202  -12.7445    0.0000 C   0  0  0  0  0  0  0  0  0  0  0  0
    5.4976  -12.0360    0.0000 C   0  0  0  0  0  0  0  0  0  0  0  0
  1  2  1  0  0  0  0
  2  3  2  0  0  0  0
  3  4  1  0  0  0  0
  1  5  2  0  0  0  0
  1  6  1  0  0  0  0
  2  7  1  0  0  0  0
  8  9  1  0  0  0  0
  9 10  1  0  0  0  0
 10 11  1  0  0  0  0
 11 12  1  0  0  0  0
 12 13  2  0  0  0  0
 13 14  1  0  0  0  0
 14 15  2  0  0  0  0
 15 16  1  0  0  0  0
 11 16  2  0  0  0  0
 16 17  1  0  0  0  0
  8 17  1  0  0  0  0
 18 19  2  0  0  0  0
 19 20  1  0  0  0  0
 20 21  1  0  0  0  0
 18 13  1  0  0  0  0
 21 14  1  0  0  0  0
 20 22  2  0  0  0  0
 24 25  1  0  0  0  0
 25 26  2  0  0  0  0
 26 27  1  0  0  0  0
 24 28  2  0  0  0  0
 25 29  1  0  0  0  0
 23 24  1  0  0  0  0
  9 23  1  1  0  0  0
  8 30  1  0  0  0  0
  8 31  1  0  0  0  0
 10  6  1  6  0  0  0
M  END
>  <cdx:groupId>
131647

>  <cdx:fragmentId>
131569

$$$$
