581588.cdx
  Mrv1902 05222410262D          

 69 76  0  0  0  0            999 V2000
   20.1155   -9.6282    0.0000 C   0  0  0  0  0  0  0  0  0  0  0  0
   19.6306   -8.9608    0.0000 C   0  0  2  0  0  0  0  0  0  0  0  0
   18.8101   -9.0470    0.0000 C   0  0  0  0  0  0  0  0  0  0  0  0
   18.3252   -8.3796    0.0000 C   0  0  0  0  0  0  0  0  0  0  0  0
   19.9661   -8.2071    0.0000 C   0  0  0  0  0  0  0  0  0  0  0  0
   14.7360  -10.3707    0.0000 C   0  0  1  0  0  0  0  0  0  0  0  0
   15.4505   -9.9582    0.0000 C   0  0  2  0  0  0  0  0  0  0  0  0
   16.2351  -10.2132    0.0000 C   0  0  0  0  0  0  0  0  0  0  0  0
   16.7201   -9.5457    0.0000 C   0  0  2  0  0  0  0  0  0  0  0  0
   17.5047   -9.2908    0.0000 O   0  0  0  0  0  0  0  0  0  0  0  0
   17.5047   -8.4658    0.0000 C   0  0  1  0  0  0  0  0  0  0  0  0
   16.7201   -8.2109    0.0000 C   0  0  2  0  0  0  0  0  0  0  0  0
   16.2351   -8.8783    0.0000 C   0  0  2  0  0  0  0  0  0  0  0  0
   15.4505   -9.1332    0.0000 C   0  0  1  0  0  0  0  0  0  0  0  0
   14.7360   -8.7207    0.0000 C   0  0  0  0  0  0  0  0  0  0  0  0
   14.0216   -9.1332    0.0000 C   0  0  0  0  0  0  0  0  0  0  0  0
   14.0216   -9.9582    0.0000 C   0  0  2  0  0  0  0  0  0  0  0  0
   13.3071  -10.3707    0.0000 C   0  0  1  0  0  0  0  0  0  0  0  0
   12.5926   -9.9582    0.0000 C   0  0  0  0  0  0  0  0  0  0  0  0
   11.8782  -10.3707    0.0000 C   0  0  2  0  0  0  0  0  0  0  0  0
   11.8782  -11.1957    0.0000 C   0  0  1  0  0  0  0  0  0  0  0  0
   12.5926  -11.6082    0.0000 C   0  0  0  0  0  0  0  0  0  0  0  0
   13.3071  -11.1957    0.0000 C   0  0  2  0  0  0  0  0  0  0  0  0
   14.0216  -11.6082    0.0000 C   0  0  0  0  0  0  0  0  0  0  0  0
   14.7360  -11.1957    0.0000 C   0  0  0  0  0  0  0  0  0  0  0  0
    9.0517   -8.6977    0.0000 O   0  0  0  0  0  0  0  0  0  0  0  0
    9.7719   -7.4635    0.0000 O   0  0  0  0  0  0  0  0  0  0  0  0
    9.0555   -7.8727    0.0000 C   0  0  2  0  0  0  0  0  0  0  0  0
    8.3430   -7.4569    0.0000 C   0  0  1  0  0  0  0  0  0  0  0  0
    8.3469   -6.6319    0.0000 C   0  0  2  0  0  0  0  0  0  0  0  0
    9.0633   -6.2227    0.0000 C   0  0  1  0  0  0  0  0  0  0  0  0
    9.7758   -6.6386    0.0000 C   0  0  0  0  0  0  0  0  0  0  0  0
    9.0671   -5.3977    0.0000 O   0  0  0  0  0  0  0  0  0  0  0  0
    7.6343   -6.2160    0.0000 O   0  0  0  0  0  0  0  0  0  0  0  0
    7.6266   -7.8660    0.0000 O   0  0  0  0  0  0  0  0  0  0  0  0
   13.3071   -9.5457    0.0000 C   0  0  0  0  0  0  0  0  0  0  0  0
   15.4505   -8.3082    0.0000 C   0  0  0  0  0  0  0  0  0  0  0  0
   16.4651   -7.4262    0.0000 C   0  0  0  0  0  0  0  0  0  0  0  0
   17.8402   -7.7121    0.0000 O   0  0  0  0  0  0  0  0  0  0  0  0
   14.7360   -9.5457    0.0000 H   0  0  0  0  0  0  0  0  0  0  0  0
   15.4505  -10.7832    0.0000 H   0  0  0  0  0  0  0  0  0  0  0  0
   17.2050  -10.2132    0.0000 H   0  0  0  0  0  0  0  0  0  0  0  0
   15.8735   -8.1368    0.0000 H   0  0  0  0  0  0  0  0  0  0  0  0
   14.0216  -10.7832    0.0000 H   0  0  0  0  0  0  0  0  0  0  0  0
   13.3071  -12.0207    0.0000 H   0  0  0  0  0  0  0  0  0  0  0  0
   21.5207  -13.0902    0.0000 O   0  0  0  0  0  0  0  0  0  0  0  0
   21.0741  -12.3965    0.0000 C   0  0  0  0  0  0  0  0  0  0  0  0
   20.9360   -9.5420    0.0000 O   0  0  0  0  0  0  0  0  0  0  0  0
   22.5840   -9.4622    0.0000 O   0  0  0  0  0  0  0  0  0  0  0  0
   23.4771  -10.8496    0.0000 O   0  0  0  0  0  0  0  0  0  0  0  0
   22.7222  -12.3167    0.0000 O   0  0  0  0  0  0  0  0  0  0  0  0
   21.3825  -10.2357    0.0000 C   0  0  1  0  0  0  0  0  0  0  0  0
   22.2066  -10.1958    0.0000 C   0  0  1  0  0  0  0  0  0  0  0  0
   22.6531  -10.8895    0.0000 C   0  0  2  0  0  0  0  0  0  0  0  0
    9.7259  -12.4177    0.0000 O   0  0  0  0  0  0  0  0  0  0  0  0
    8.3060  -11.5773    0.0000 O   0  0  0  0  0  0  0  0  0  0  0  0
    8.3238   -9.9274    0.0000 O   0  0  0  0  0  0  0  0  0  0  0  0
    9.7616   -9.1179    0.0000 C   0  0  0  0  0  0  0  0  0  0  0  0
    9.7527   -9.9429    0.0000 C   0  0  2  0  0  0  0  0  0  0  0  0
    9.0338  -10.3476    0.0000 C   0  0  2  0  0  0  0  0  0  0  0  0
    9.0249  -11.1725    0.0000 C   0  0  1  0  0  0  0  0  0  0  0  0
    9.7348  -11.5928    0.0000 C   0  0  2  0  0  0  0  0  0  0  0  0
   10.4537  -11.1880    0.0000 C   0  0  1  0  0  0  0  0  0  0  0  0
   10.4627  -10.3631    0.0000 O   0  0  0  0  0  0  0  0  0  0  0  0
   11.1637  -11.6082    0.0000 O   0  0  0  0  0  0  0  0  0  0  0  0
   22.2756  -11.6230    0.0000 C   0  0  1  0  0  0  0  0  0  0  0  0
   21.4516  -11.6629    0.0000 C   0  0  2  0  0  0  0  0  0  0  0  0
   21.0050  -10.9692    0.0000 O   0  0  0  0  0  0  0  0  0  0  0  0
   11.1637   -9.9582    0.0000 O   0  0  0  0  0  0  0  0  0  0  0  0
 67 47  1  1  0  0  0
 47 46  1  0  0  0  0
 52 48  1  1  0  0  0
 53 49  1  6  0  0  0
 54 50  1  1  0  0  0
 66 51  1  6  0  0  0
 68 52  1  0  0  0  0
 53 52  1  0  0  0  0
 54 53  1  0  0  0  0
 66 54  1  0  0  0  0
 63 65  1  1  0  0  0
 62 55  1  6  0  0  0
 61 56  1  1  0  0  0
 60 57  1  6  0  0  0
 59 58  1  1  0  0  0
 58 26  1  0  0  0  0
 64 59  1  0  0  0  0
 60 59  1  0  0  0  0
 61 60  1  0  0  0  0
 62 61  1  0  0  0  0
 63 62  1  0  0  0  0
 67 66  1  0  0  0  0
 68 67  1  0  0  0  0
  1  2  1  0  0  0  0
  2  3  1  0  0  0  0
  3  4  1  0  0  0  0
 48  1  1  0  0  0  0
  2  5  1  6  0  0  0
  6  7  1  0  0  0  0
  7  8  1  0  0  0  0
  8  9  1  0  0  0  0
  9 10  1  0  0  0  0
 10 11  1  0  0  0  0
 11 12  1  0  0  0  0
 12 13  1  0  0  0  0
 13 14  1  0  0  0  0
 14 15  1  0  0  0  0
 15 16  1  0  0  0  0
 16 17  1  0  0  0  0
 17 18  1  0  0  0  0
 18 19  1  0  0  0  0
 19 20  1  0  0  0  0
 20 21  1  0  0  0  0
 21 22  1  0  0  0  0
 22 23  1  0  0  0  0
 23 24  1  0  0  0  0
 24 25  1  0  0  0  0
  6 25  1  0  0  0  0
  6 17  1  0  0  0  0
 18 23  1  0  0  0  0
  7 14  1  0  0  0  0
  9 13  1  0  0  0  0
 64 63  1  0  0  0  0
 27 28  1  0  0  0  0
 28 29  1  0  0  0  0
 29 30  1  0  0  0  0
 30 31  1  0  0  0  0
 31 32  1  0  0  0  0
 27 32  1  0  0  0  0
 31 33  1  6  0  0  0
 30 34  1  1  0  0  0
 29 35  1  6  0  0  0
 28 26  1  1  0  0  0
 21 65  1  1  0  0  0
 18 36  1  1  0  0  0
 14 37  1  1  0  0  0
 12 38  1  6  0  0  0
 11 39  1  6  0  0  0
 11  4  1  0  0  0  0
  6 40  1  1  0  0  0
  7 41  1  6  0  0  0
  9 42  1  6  0  0  0
 13 43  1  6  0  0  0
 17 44  1  6  0  0  0
 23 45  1  6  0  0  0
 20 69  1  6  0  0  0
M  END
>  <cdx:fragmentId>
120

$$$$
