581581.cdx
  Mrv1902 05222410182D          

 47 53  0  0  0  0            999 V2000
    7.4602   -6.9564    0.0000 C   0  0  0  0  0  0  0  0  0  0  0  0
    7.4604   -6.1314    0.0000 O   0  0  0  0  0  0  0  0  0  0  0  0
    6.7448  -11.4937    0.0000 H   0  0  0  0  0  0  0  0  0  0  0  0
    7.4596  -10.2564    0.0000 H   0  0  0  0  0  0  0  0  0  0  0  0
    6.7457   -7.3687    0.0000 C   0  0  0  0  0  0  0  0  0  0  0  0
    8.1746   -7.3691    0.0000 O   0  0  0  0  0  0  0  0  0  0  0  0
   10.7135   -6.4877    0.0000 O   0  0  0  0  0  0  0  0  0  0  0  0
   10.7133   -7.3127    0.0000 C   0  0  0  0  0  0  0  0  0  0  0  0
    9.9286   -7.5675    0.0000 C   0  0  0  0  0  0  0  0  0  0  0  0
    9.4438   -6.8999    0.0000 C   0  0  0  0  0  0  0  0  0  0  0  0
    9.9289   -6.2326    0.0000 C   0  0  0  0  0  0  0  0  0  0  0  0
    8.8881  -11.0818    0.0000 O   0  0  0  0  0  0  0  0  0  0  0  0
    4.6013  -11.0807    0.0000 O   0  0  0  0  0  0  0  0  0  0  0  0
    6.7450   -9.0187    0.0000 C   0  0  0  0  0  0  0  0  0  0  0  0
    8.9752   -7.7863    0.0000 C   0  0  0  0  0  0  0  0  0  0  0  0
    8.1740   -9.0191    0.0000 C   0  0  0  0  0  0  0  0  0  0  0  0
    5.6178  -11.7955    0.0000 C   0  0  0  0  0  0  0  0  0  0  0  0
    6.7448  -10.6687    0.0000 C   0  0  2  0  0  0  0  0  0  0  0  0
    6.0307   -9.4310    0.0000 C   0  0  1  0  0  0  0  0  0  0  0  0
    5.3161   -9.8434    0.0000 C   0  0  0  0  0  0  0  0  0  0  0  0
    5.3159  -10.6684    0.0000 C   0  0  2  0  0  0  0  0  0  0  0  0
    6.0303  -11.0810    0.0000 C   0  0  2  0  0  0  0  0  0  0  0  0
    6.3333  -11.8494    0.0000 C   0  0  0  0  0  0  0  0  0  0  0  0
    7.1583  -11.8496    0.0000 O   0  0  0  0  0  0  0  0  0  0  0  0
    7.4592  -11.0814    0.0000 C   0  0  1  0  0  0  0  0  0  0  0  0
    8.1738  -10.6691    0.0000 C   0  0  2  0  0  0  0  0  0  0  0  0
    8.1740   -9.8441    0.0000 C   0  0  2  0  0  0  0  0  0  0  0  0
    8.8886   -9.4318    0.0000 C   0  0  0  0  0  0  0  0  0  0  0  0
    9.6731   -9.6869    0.0000 C   0  0  0  0  0  0  0  0  0  0  0  0
   10.1582   -9.0196    0.0000 C   0  0  0  0  0  0  0  0  0  0  0  0
    9.6734   -8.3520    0.0000 C   0  0  2  0  0  0  0  0  0  0  0  0
    8.8888   -8.6068    0.0000 C   0  0  1  0  0  0  0  0  0  0  0  0
    8.1744   -8.1941    0.0000 C   0  0  2  0  0  0  0  0  0  0  0  0
    7.4598   -8.6064    0.0000 C   0  0  0  0  0  0  0  0  0  0  0  0
    7.4596   -9.4314    0.0000 C   0  0  2  0  0  0  0  0  0  0  0  0
    6.7450   -9.8437    0.0000 C   0  0  1  0  0  0  0  0  0  0  0  0
    3.8882   -5.7180    0.0000 C   0  0  0  0  0  0  0  0  0  0  0  0
    3.8884   -4.8930    0.0000 C   0  0  0  0  0  0  0  0  0  0  0  0
    4.6030   -4.4807    0.0000 C   0  0  0  0  0  0  0  0  0  0  0  0
    5.3173   -4.8934    0.0000 C   0  0  0  0  0  0  0  0  0  0  0  0
    5.3171   -5.7184    0.0000 C   0  0  0  0  0  0  0  0  0  0  0  0
    4.6026   -6.1307    0.0000 C   0  0  0  0  0  0  0  0  0  0  0  0
    6.0309   -8.6060    0.0000 O   0  0  0  0  0  0  0  0  0  0  0  0
    4.6019   -8.6057    0.0000 O   0  0  0  0  0  0  0  0  0  0  0  0
    4.6024   -6.9557    0.0000 C   0  0  0  0  0  0  0  0  0  0  0  0
    5.3167   -7.3684    0.0000 C   0  0  0  0  0  0  0  0  0  0  0  0
    5.3165   -8.1934    0.0000 C   0  0  0  0  0  0  0  0  0  0  0  0
 18  3  1  6  0  0  0
 35  4  1  6  0  0  0
 19 43  1  6  0  0  0
 33  6  1  6  0  0  0
  6  1  1  0  0  0  0
 31  9  1  6  0  0  0
 11  7  1  0  0  0  0
  8  7  1  0  0  0  0
  9  8  2  0  0  0  0
 10  9  1  0  0  0  0
 11 10  2  0  0  0  0
 26 12  1  6  0  0  0
 21 13  1  6  0  0  0
 36 14  1  1  0  0  0
 32 15  1  6  0  0  0
 27 16  1  1  0  0  0
 22 17  1  1  0  0  0
 22 18  1  0  0  0  0
 32 28  1  0  0  0  0
 35 27  1  0  0  0  0
 18 25  1  0  0  0  0
 36 18  1  0  0  0  0
 36 19  1  0  0  0  0
 20 19  1  0  0  0  0
 21 20  1  0  0  0  0
 22 21  1  0  0  0  0
 22 23  1  6  0  0  0
 24 23  1  0  0  0  0
 25 24  1  6  0  0  0
 26 25  1  0  0  0  0
 27 26  1  0  0  0  0
 28 27  1  0  0  0  0
 29 28  2  0  0  0  0
 30 29  1  0  0  0  0
 31 30  1  0  0  0  0
 32 31  1  0  0  0  0
 33 32  1  0  0  0  0
 34 33  1  0  0  0  0
 35 34  1  0  0  0  0
 36 35  1  0  0  0  0
 45 42  1  0  0  0  0
 42 37  2  0  0  0  0
 38 37  1  0  0  0  0
 39 38  2  0  0  0  0
 40 39  1  0  0  0  0
 41 40  2  0  0  0  0
 42 41  1  0  0  0  0
 47 43  1  0  0  0  0
 47 44  2  0  0  0  0
 46 45  2  0  0  0  0
 47 46  1  0  0  0  0
  1  2  2  0  0  0  0
  1  5  1  0  0  0  0
M  END
>  <cdx:fragmentId>
131785

$$$$
