5816.cdx
  Mrv1902 05222410192D          

 13 13  0  0  0  0            999 V2000
    6.1082   -2.6477    0.0000 C   0  0  0  0  0  0  0  0  0  0  0  0
    6.1082   -3.4727    0.0000 C   0  0  0  0  0  0  0  0  0  0  0  0
    5.3937   -3.8852    0.0000 C   0  0  0  0  0  0  0  0  0  0  0  0
    4.6792   -3.4727    0.0000 C   0  0  0  0  0  0  0  0  0  0  0  0
    4.6792   -2.6477    0.0000 C   0  0  0  0  0  0  0  0  0  0  0  0
    5.3937   -2.2352    0.0000 C   0  0  0  0  0  0  0  0  0  0  0  0
    6.8227   -2.2352    0.0000 O   0  0  0  0  0  0  0  0  0  0  0  0
    6.8227   -3.8852    0.0000 O   0  0  0  0  0  0  0  0  0  0  0  0
    3.9648   -3.8852    0.0000 C   0  0  2  0  0  0  0  0  0  0  0  0
    3.2503   -3.4727    0.0000 C   0  0  0  0  0  0  0  0  0  0  0  0
    2.5358   -3.8852    0.0000 N   0  0  0  0  0  0  0  0  0  0  0  0
    1.8214   -3.4727    0.0000 C   0  0  0  0  0  0  0  0  0  0  0  0
    3.9648   -4.7102    0.0000 O   0  0  0  0  0  0  0  0  0  0  0  0
  1  2  1  0  0  0  0
  2  3  2  0  0  0  0
  3  4  1  0  0  0  0
  4  5  2  0  0  0  0
  5  6  1  0  0  0  0
  1  6  2  0  0  0  0
  1  7  1  0  0  0  0
  2  8  1  0  0  0  0
  9 10  1  0  0  0  0
 11 12  1  0  0  0  0
 10 11  1  0  0  0  0
  9 13  1  1  0  0  0
  4  9  1  0  0  0  0
M  END
>  <cdx:groupId>
41

>  <cdx:fragmentId>
5

$$$$
