581908.cdx
  Mrv1902 05222410252D          

 26 27  0  0  0  0            999 V2000
    8.7109  -10.0590    0.0000 C   0  0  0  0  0  0  0  0  0  0  0  0
    8.7109  -10.8840    0.0000 C   0  0  0  0  0  0  0  0  0  0  0  0
    7.9965  -11.2965    0.0000 C   0  0  0  0  0  0  0  0  0  0  0  0
    9.4254   -9.6465    0.0000 O   0  0  0  0  0  0  0  0  0  0  0  0
    7.9965   -9.6465    0.0000 O   0  0  0  0  0  0  0  0  0  0  0  0
    9.4254  -11.2965    0.0000 C   0  0  0  0  0  0  0  0  0  0  0  0
    9.4955   -7.3291    0.0000 O   0  0  0  0  0  0  0  0  0  0  0  0
    9.9805   -7.9965    0.0000 C   0  0  0  0  0  0  0  0  0  0  0  0
    9.4955   -8.6640    0.0000 C   0  0  0  0  0  0  0  0  0  0  0  0
    8.7109   -8.4090    0.0000 C   0  0  1  0  0  0  0  0  0  0  0  0
    7.9965   -8.8215    0.0000 C   0  0  1  0  0  0  0  0  0  0  0  0
    7.2820   -8.4090    0.0000 C   0  0  0  0  0  0  0  0  0  0  0  0
    7.2820   -7.5840    0.0000 C   0  0  0  0  0  0  0  0  0  0  0  0
    7.9965   -7.1715    0.0000 C   0  0  0  0  0  0  0  0  0  0  0  0
    8.7109   -7.5840    0.0000 C   0  0  1  0  0  0  0  0  0  0  0  0
   10.8055   -7.9965    0.0000 O   0  0  0  0  0  0  0  0  0  0  0  0
    9.7505   -9.4486    0.0000 C   0  0  0  0  0  0  0  0  0  0  0  0
    6.5675   -7.1715    0.0000 C   0  0  0  0  0  0  0  0  0  0  0  0
    6.5675   -9.6465    0.0000 C   0  0  0  0  0  0  0  0  0  0  0  0
    6.5675   -8.8215    0.0000 C   0  0  1  0  0  0  0  0  0  0  0  0
    5.8530   -8.4090    0.0000 C   0  0  0  0  0  0  0  0  0  0  0  0
    5.1386   -8.8215    0.0000 C   0  0  0  0  0  0  0  0  0  0  0  0
    4.4241   -8.4090    0.0000 C   0  0  0  0  0  0  0  0  0  0  0  0
    3.7096   -8.8215    0.0000 O   0  0  0  0  0  0  0  0  0  0  0  0
    8.7109   -6.7590    0.0000 H   0  0  0  0  0  0  0  0  0  0  0  0
    8.7109   -9.2340    0.0000 H   0  0  0  0  0  0  0  0  0  0  0  0
  1  2  1  0  0  0  0
  2  3  1  0  0  0  0
  1  4  2  0  0  0  0
  1  5  1  0  0  0  0
  2  6  1  0  0  0  0
  7  8  1  0  0  0  0
  8  9  1  0  0  0  0
  9 10  1  0  0  0  0
 10 11  1  0  0  0  0
 11 12  1  0  0  0  0
 12 13  2  0  0  0  0
 13 14  1  0  0  0  0
 14 15  1  0  0  0  0
 10 15  1  0  0  0  0
  7 15  1  0  0  0  0
  8 16  2  0  0  0  0
  9 17  2  0  0  0  0
 13 18  1  0  0  0  0
 20 19  1  1  0  0  0
 20 21  1  0  0  0  0
 21 22  1  0  0  0  0
 22 23  1  0  0  0  0
 23 24  1  0  0  0  0
 12 20  1  0  0  0  0
 11  5  1  6  0  0  0
 15 25  1  6  0  0  0
 10 26  1  6  0  0  0
M  END
>  <cdx:groupId>
207522

>  <cdx:fragmentId>
207464

$$$$
