5820.cdx
  Mrv1902 05222410282D          

 35 38  0  0  0  0            999 V2000
    5.0770   -7.4250    0.0000 C   0  0  0  0  0  0  0  0  0  0  0  0
    5.0770   -8.2500    0.0000 C   0  0  0  0  0  0  0  0  0  0  0  0
    5.7915   -8.6625    0.0000 C   0  0  0  0  0  0  0  0  0  0  0  0
    6.5060   -8.2500    0.0000 C   0  0  0  0  0  0  0  0  0  0  0  0
    6.5060   -7.4250    0.0000 C   0  0  0  0  0  0  0  0  0  0  0  0
    5.7915   -7.0125    0.0000 C   0  0  0  0  0  0  0  0  0  0  0  0
    7.2204   -8.6625    0.0000 C   0  0  0  0  0  0  0  0  0  0  0  0
    7.9349   -8.2500    0.0000 C   0  0  0  0  0  0  0  0  0  0  0  0
    7.9349   -7.4250    0.0000 C   0  0  0  0  0  0  0  0  0  0  0  0
    7.2204   -7.0125    0.0000 O   0  0  0  0  0  0  0  0  0  0  0  0
    9.3639   -7.4250    0.0000 C   0  0  0  0  0  0  0  0  0  0  0  0
    8.6494   -7.0125    0.0000 C   0  0  0  0  0  0  0  0  0  0  0  0
   10.0783   -7.0125    0.0000 C   0  0  0  0  0  0  0  0  0  0  0  0
   10.0783   -6.1875    0.0000 C   0  0  0  0  0  0  0  0  0  0  0  0
    9.3639   -5.7750    0.0000 C   0  0  0  0  0  0  0  0  0  0  0  0
    8.6494   -6.1875    0.0000 C   0  0  0  0  0  0  0  0  0  0  0  0
    4.3626   -7.0125    0.0000 O   0  0  0  0  0  0  0  0  0  0  0  0
    4.3626   -8.6625    0.0000 O   0  0  0  0  0  0  0  0  0  0  0  0
    3.6481   -9.0750    0.0000 C   0  0  0  0  0  0  0  0  0  0  0  0
    5.7915   -9.4875    0.0000 O   0  0  0  0  0  0  0  0  0  0  0  0
    7.2204   -9.4875    0.0000 O   0  0  0  0  0  0  0  0  0  0  0  0
   10.7928   -5.7750    0.0000 O   0  0  0  0  0  0  0  0  0  0  0  0
    4.6916   -4.6700    0.0000 O   0  0  0  0  0  0  0  0  0  0  0  0
    4.3092   -5.4010    0.0000 C   0  0  0  0  0  0  0  0  0  0  0  0
    5.0923   -5.1415    0.0000 C   0  0  0  0  0  0  0  0  0  0  0  0
    5.8991   -5.3348    0.0000 C   0  0  0  0  0  0  0  0  0  0  0  0
    6.2816   -4.6037    0.0000 C   0  0  0  0  0  0  0  0  0  0  0  0
    5.4984   -4.8632    0.0000 C   0  0  0  0  0  0  0  0  0  0  0  0
    6.6331   -4.7955    0.0000 O   0  0  0  0  0  0  0  0  0  0  0  0
    5.8095   -4.4035    0.0000 C   0  0  0  0  0  0  0  0  0  0  0  0
    5.7709   -3.9716    0.0000 O   0  0  0  0  0  0  0  0  0  0  0  0
    4.8001   -5.5591    0.0000 O   0  0  0  0  0  0  0  0  0  0  0  0
    5.9154   -5.7263    0.0000 O   0  0  0  0  0  0  0  0  0  0  0  0
    9.3639   -4.9500    0.0000 O   0  0  0  0  0  0  0  0  0  0  0  0
    9.3639   -4.1250    0.0000 C   0  0  0  0  0  0  0  0  0  0  0  0
  1  2  2  0  0  0  0
  2  3  1  0  0  0  0
  3  4  2  0  0  0  0
  4  5  1  0  0  0  0
  5  6  2  0  0  0  0
  6  1  1  0  0  0  0
  4  7  1  0  0  0  0
  7  8  1  0  0  0  0
  8  9  2  0  0  0  0
  9 10  1  0  0  0  0
 10  5  1  0  0  0  0
 11 12  2  0  0  0  0
 12  9  1  0  0  0  0
 11 13  1  0  0  0  0
 13 14  2  0  0  0  0
 14 15  1  0  0  0  0
 15 16  2  0  0  0  0
 16 12  1  0  0  0  0
  1 17  1  0  0  0  0
  2 18  1  0  0  0  0
  3 20  1  0  0  0  0
  7 21  2  0  0  0  0
 14 22  1  0  0  0  0
 23 24  1  0  0  0  0
 24 25  1  0  0  0  0
 25 26  1  0  0  0  0
 26 27  1  0  0  0  0
 27 28  1  0  0  0  0
 28 23  1  0  0  0  0
 27 29  1  0  0  0  0
 28 30  1  0  0  0  0
 30 31  1  0  0  0  0
 25 32  1  0  0  0  0
 26 33  1  0  0  0  0
 24 17  1  0  0  0  0
 15 34  1  0  0  0  0
 18 19  1  0  0  0  0
 34 35  1  0  0  0  0
M  STY  2   1 SUP   2 SUP
M  SAL   1  2  18  19
M  SBL   1  1  20
M  SMT   1 OCH3
M  SAP   1  1  18   2  1
M  SAL   2  2  34  35
M  SBL   2  1  36
M  SMT   2 OCH3
M  SAP   2  1  34  15  1
M  END
>  <cdx:fragmentId>
5

$$$$
