582197.cdx
  Mrv1902 05222410232D          

 90 99  0  0  0  0            999 V2000
    7.2450  -11.6930    0.0000 O   0  0  0  0  0  0  0  0  0  0  0  0
    7.9595  -12.1055    0.0000 C   0  0  2  0  0  0  0  0  0  0  0  0
    7.9595  -12.9305    0.0000 C   0  0  1  0  0  0  0  0  0  0  0  0
    7.2450  -13.3430    0.0000 C   0  0  1  0  0  0  0  0  0  0  0  0
    6.5306  -12.9305    0.0000 C   0  0  2  0  0  0  0  0  0  0  0  0
    6.5306  -12.1055    0.0000 C   0  0  2  0  0  0  0  0  0  0  0  0
    8.6740  -13.3430    0.0000 O   0  0  0  0  0  0  0  0  0  0  0  0
    7.2450  -14.1680    0.0000 O   0  0  0  0  0  0  0  0  0  0  0  0
    5.8161  -13.3430    0.0000 O   0  0  0  0  0  0  0  0  0  0  0  0
    5.8161  -11.6930    0.0000 C   0  0  0  0  0  0  0  0  0  0  0  0
    8.6740  -11.6930    0.0000 O   0  0  0  0  0  0  0  0  0  0  0  0
    9.3884   -9.6305    0.0000 O   0  0  0  0  0  0  0  0  0  0  0  0
    9.3884  -10.4555    0.0000 C   0  0  2  0  0  0  0  0  0  0  0  0
    8.6740  -10.8680    0.0000 C   0  0  1  0  0  0  0  0  0  0  0  0
    7.9595  -10.4555    0.0000 C   0  0  2  0  0  0  0  0  0  0  0  0
    7.9595   -9.6305    0.0000 C   0  0  1  0  0  0  0  0  0  0  0  0
    8.6740   -9.2180    0.0000 C   0  0  1  0  0  0  0  0  0  0  0  0
    8.6740   -8.3930    0.0000 C   0  0  0  0  0  0  0  0  0  0  0  0
    7.9595   -7.9805    0.0000 O   0  0  0  0  0  0  0  0  0  0  0  0
    7.2450   -9.2180    0.0000 O   0  0  0  0  0  0  0  0  0  0  0  0
    7.2450  -10.8680    0.0000 O   0  0  0  0  0  0  0  0  0  0  0  0
   10.1029  -10.8680    0.0000 O   0  0  0  0  0  0  0  0  0  0  0  0
   13.6753   -9.6305    0.0000 C   0  0  1  0  0  0  0  0  0  0  0  0
   14.3897   -9.2180    0.0000 C   0  0  2  0  0  0  0  0  0  0  0  0
   15.1744   -9.4729    0.0000 C   0  0  0  0  0  0  0  0  0  0  0  0
   15.6593   -8.8055    0.0000 C   0  0  2  0  0  0  0  0  0  0  0  0
   16.4439   -8.5506    0.0000 O   0  0  0  0  0  0  0  0  0  0  0  0
   16.4439   -7.7256    0.0000 C   0  0  0  0  0  0  0  0  0  0  0  0
   15.6593   -7.4706    0.0000 C   0  0  2  0  0  0  0  0  0  0  0  0
   15.1744   -8.1381    0.0000 C   0  0  2  0  0  0  0  0  0  0  0  0
   14.3897   -8.3930    0.0000 C   0  0  1  0  0  0  0  0  0  0  0  0
   13.6753   -7.9805    0.0000 C   0  0  0  0  0  0  0  0  0  0  0  0
   12.9608   -8.3930    0.0000 C   0  0  0  0  0  0  0  0  0  0  0  0
   12.9608   -9.2180    0.0000 C   0  0  2  0  0  0  0  0  0  0  0  0
   12.2463   -9.6305    0.0000 C   0  0  1  0  0  0  0  0  0  0  0  0
   11.5319   -9.2180    0.0000 C   0  0  0  0  0  0  0  0  0  0  0  0
   10.8174   -9.6305    0.0000 C   0  0  0  0  0  0  0  0  0  0  0  0
   10.8174  -10.4555    0.0000 C   0  0  1  0  0  0  0  0  0  0  0  0
   11.5319  -10.8680    0.0000 C   0  0  0  0  0  0  0  0  0  0  0  0
   12.2463  -10.4555    0.0000 C   0  0  0  0  0  0  0  0  0  0  0  0
   12.9608  -10.8680    0.0000 C   0  0  0  0  0  0  0  0  0  0  0  0
   13.6753  -10.4555    0.0000 C   0  0  0  0  0  0  0  0  0  0  0  0
   17.2644   -7.6393    0.0000 C   0  0  0  0  0  0  0  0  0  0  0  0
   17.7493   -8.3068    0.0000 C   0  0  0  0  0  0  0  0  0  0  0  0
   18.5698   -8.2205    0.0000 C   0  0  1  0  0  0  0  0  0  0  0  0
   19.0547   -8.8880    0.0000 C   0  0  0  0  0  0  0  0  0  0  0  0
   18.9053   -7.4668    0.0000 C   0  0  0  0  0  0  0  0  0  0  0  0
   12.2463   -8.8055    0.0000 C   0  0  0  0  0  0  0  0  0  0  0  0
   14.3897   -7.5680    0.0000 C   0  0  0  0  0  0  0  0  0  0  0  0
   15.4043   -6.6860    0.0000 C   0  0  0  0  0  0  0  0  0  0  0  0
   16.7795   -6.9719    0.0000 O   0  0  0  0  0  0  0  0  0  0  0  0
   13.6753   -8.8055    0.0000 H   0  0  0  0  0  0  0  0  0  0  0  0
   14.3897  -10.0430    0.0000 H   0  0  0  0  0  0  0  0  0  0  0  0
   16.1442   -9.4729    0.0000 H   0  0  0  0  0  0  0  0  0  0  0  0
   14.8127   -7.3966    0.0000 H   0  0  0  0  0  0  0  0  0  0  0  0
   12.9608  -10.0430    0.0000 H   0  0  0  0  0  0  0  0  0  0  0  0
   21.5252   -8.7983    0.0000 O   0  0  0  0  0  0  0  0  0  0  0  0
   22.3532  -10.2255    0.0000 O   0  0  0  0  0  0  0  0  0  0  0  0
   21.5312  -11.6561    0.0000 O   0  0  0  0  0  0  0  0  0  0  0  0
   20.2952  -12.3732    0.0000 O   0  0  0  0  0  0  0  0  0  0  0  0
   19.8812  -11.6596    0.0000 C   0  0  0  0  0  0  0  0  0  0  0  0
   20.2922  -10.9443    0.0000 C   0  0  2  0  0  0  0  0  0  0  0  0
   21.1172  -10.9425    0.0000 C   0  0  2  0  0  0  0  0  0  0  0  0
   21.5282  -10.2272    0.0000 C   0  0  1  0  0  0  0  0  0  0  0  0
   21.1142   -9.5136    0.0000 C   0  0  2  0  0  0  0  0  0  0  0  0
   20.2892   -9.5153    0.0000 C   0  0  1  0  0  0  0  0  0  0  0  0
   19.8782  -10.2307    0.0000 O   0  0  0  0  0  0  0  0  0  0  0  0
   19.8752   -8.8017    0.0000 O   0  0  0  0  0  0  0  0  0  0  0  0
    6.8233   -8.5089    0.0000 C   0  0  2  0  0  0  0  0  0  0  0  0
    7.2265   -7.7892    0.0000 O   0  0  0  0  0  0  0  0  0  0  0  0
    6.8048   -7.0801    0.0000 C   0  0  1  0  0  0  0  0  0  0  0  0
    5.9798   -7.0908    0.0000 C   0  0  2  0  0  0  0  0  0  0  0  0
    5.5766   -7.8106    0.0000 C   0  0  1  0  0  0  0  0  0  0  0  0
    5.9984   -8.5196    0.0000 C   0  0  1  0  0  0  0  0  0  0  0  0
    7.2080   -6.3604    0.0000 C   0  0  0  0  0  0  0  0  0  0  0  0
    6.7863   -5.6513    0.0000 O   0  0  0  0  0  0  0  0  0  0  0  0
    4.7517   -7.8213    0.0000 O   0  0  0  0  0  0  0  0  0  0  0  0
    5.5952   -9.2394    0.0000 O   0  0  0  0  0  0  0  0  0  0  0  0
    5.5581   -6.3817    0.0000 O   0  0  0  0  0  0  0  0  0  0  0  0
    4.0392   -8.2371    0.0000 C   0  0  2  0  0  0  0  0  0  0  0  0
    3.3201   -7.8327    0.0000 O   0  0  0  0  0  0  0  0  0  0  0  0
    2.6103   -8.2532    0.0000 C   0  0  1  0  0  0  0  0  0  0  0  0
    2.6196   -9.0781    0.0000 C   0  0  2  0  0  0  0  0  0  0  0  0
    3.3305   -9.4964    0.0000 C   0  0  1  0  0  0  0  0  0  0  0  0
    4.0321   -9.0898    0.0000 C   0  0  1  0  0  0  0  0  0  0  0  0
    1.8913   -7.8487    0.0000 C   0  0  0  0  0  0  0  0  0  0  0  0
    3.3278  -10.3214    0.0000 O   0  0  0  0  0  0  0  0  0  0  0  0
    1.9058   -9.4917    0.0000 O   0  0  0  0  0  0  0  0  0  0  0  0
    1.1815   -8.2692    0.0000 O   0  0  0  0  0  0  0  0  0  0  0  0
    4.7452   -9.5047    0.0000 O   0  0  0  0  0  0  0  0  0  0  0  0
 66 68  1  1  0  0  0
 65 57  1  6  0  0  0
 64 58  1  1  0  0  0
 63 59  1  6  0  0  0
 62 61  1  1  0  0  0
 61 60  1  0  0  0  0
 67 62  1  0  0  0  0
 63 62  1  0  0  0  0
 64 63  1  0  0  0  0
 65 64  1  0  0  0  0
 66 65  1  0  0  0  0
 67 66  1  0  0  0  0
  1  2  1  0  0  0  0
  2  3  1  0  0  0  0
  3  4  1  0  0  0  0
  4  5  1  0  0  0  0
  5  6  1  0  0  0  0
  1  6  1  0  0  0  0
  3  7  1  6  0  0  0
  4  8  1  6  0  0  0
  5  9  1  1  0  0  0
  6 10  1  6  0  0  0
 12 13  1  0  0  0  0
 13 14  1  0  0  0  0
 14 15  1  0  0  0  0
 15 16  1  0  0  0  0
 16 17  1  0  0  0  0
 12 17  1  0  0  0  0
 18 19  1  0  0  0  0
 17 18  1  1  0  0  0
 16 20  1  6  0  0  0
 15 21  1  1  0  0  0
 23 24  1  0  0  0  0
 24 25  1  0  0  0  0
 25 26  1  0  0  0  0
 26 27  1  0  0  0  0
 27 28  1  0  0  0  0
 28 29  1  0  0  0  0
 29 30  1  0  0  0  0
 30 31  1  0  0  0  0
 31 32  1  0  0  0  0
 32 33  1  0  0  0  0
 33 34  1  0  0  0  0
 34 35  1  0  0  0  0
 35 36  1  0  0  0  0
 36 37  1  0  0  0  0
 37 38  1  0  0  0  0
 38 39  1  0  0  0  0
 39 40  1  0  0  0  0
 40 41  2  0  0  0  0
 41 42  1  0  0  0  0
 23 42  1  0  0  0  0
 23 34  1  0  0  0  0
 35 40  1  0  0  0  0
 24 31  1  0  0  0  0
 26 30  1  0  0  0  0
 43 44  1  0  0  0  0
 44 45  1  0  0  0  0
 45 46  1  0  0  0  0
 46 68  1  0  0  0  0
 45 47  1  6  0  0  0
 28 43  1  0  0  0  0
 35 48  1  1  0  0  0
 31 49  1  1  0  0  0
 29 50  1  6  0  0  0
 28 51  1  0  0  0  0
 38 22  1  1  0  0  0
 13 22  1  1  0  0  0
 14 11  1  6  0  0  0
  2 11  1  1  0  0  0
 23 52  1  1  0  0  0
 24 53  1  6  0  0  0
 26 54  1  6  0  0  0
 30 55  1  6  0  0  0
 34 56  1  6  0  0  0
 69 20  1  1  0  0  0
 69 70  1  0  0  0  0
 70 71  1  0  0  0  0
 71 72  1  0  0  0  0
 72 73  1  0  0  0  0
 73 74  1  0  0  0  0
 74 69  1  0  0  0  0
 71 75  1  1  0  0  0
 75 76  1  0  0  0  0
 73 77  1  1  0  0  0
 74 78  1  6  0  0  0
 72 79  1  6  0  0  0
 80 77  1  1  0  0  0
 80 81  1  0  0  0  0
 81 82  1  0  0  0  0
 82 83  1  0  0  0  0
 83 84  1  0  0  0  0
 84 85  1  0  0  0  0
 85 80  1  0  0  0  0
 82 86  1  1  0  0  0
 84 87  1  1  0  0  0
 83 88  1  6  0  0  0
 86 89  1  0  0  0  0
 85 90  1  6  0  0  0
M  END
>  <cdx:fragmentId>
60899

$$$$
