582313.cdx
  Mrv1902 05222410192D          

 14 14  0  0  0  0            999 V2000
   15.1158  -13.0797    0.0000 C   0  0  0  0  0  0  0  0  0  0  0  0
   15.1158  -13.9047    0.0000 C   0  0  0  0  0  0  0  0  0  0  0  0
   14.4013  -14.3172    0.0000 C   0  0  0  0  0  0  0  0  0  0  0  0
   13.6869  -13.9047    0.0000 C   0  0  0  0  0  0  0  0  0  0  0  0
   13.6869  -13.0797    0.0000 C   0  0  0  0  0  0  0  0  0  0  0  0
   14.4013  -12.6672    0.0000 C   0  0  0  0  0  0  0  0  0  0  0  0
   17.2592  -14.3172    0.0000 C   0  0  0  0  0  0  0  0  0  0  0  0
   16.5448  -13.9047    0.0000 C   0  0  0  0  0  0  0  0  0  0  0  0
   15.8303  -14.3172    0.0000 C   0  0  0  0  0  0  0  0  0  0  0  0
   15.8303  -15.1422    0.0000 C   0  0  0  0  0  0  0  0  0  0  0  0
   17.2592  -12.6672    0.0000 C   0  0  0  0  0  0  0  0  0  0  0  0
   16.5448  -13.0797    0.0000 C   0  0  0  0  0  0  0  0  0  0  0  0
   15.8303  -12.6672    0.0000 C   0  0  0  0  0  0  0  0  0  0  0  0
   15.8303  -11.8422    0.0000 C   0  0  0  0  0  0  0  0  0  0  0  0
  1  2  1  0  0  0  0
  2  3  2  0  0  0  0
  3  4  1  0  0  0  0
  4  5  2  0  0  0  0
  5  6  1  0  0  0  0
  1  6  2  0  0  0  0
  7  8  2  0  0  0  0
  8  9  1  0  0  0  0
  9 10  1  0  0  0  0
  2  9  1  0  0  0  0
 11 12  2  0  0  0  0
 12 13  1  0  0  0  0
 13 14  1  0  0  0  0
  1 13  1  0  0  0  0
M  END
>  <cdx:groupId>
4015

>  <cdx:fragmentId>
3976

$$$$
