21582640.cdx
  Mrv1902 05222410282D          

 31 33  0  0  0  0            999 V2000
    7.6499  -15.0012    0.0000 C   0  0  1  0  0  0  0  0  0  0  0  0
    8.3644  -14.5887    0.0000 C   0  0  1  0  0  0  0  0  0  0  0  0
    8.3644  -13.7637    0.0000 C   0  0  1  0  0  0  0  0  0  0  0  0
    7.6499  -13.3513    0.0000 C   0  0  0  0  0  0  0  0  0  0  0  0
    6.9354  -13.7637    0.0000 C   0  0  0  0  0  0  0  0  0  0  0  0
    6.9354  -14.5887    0.0000 O   0  0  0  0  0  0  0  0  0  0  0  0
    9.1490  -13.5088    0.0000 C   0  0  1  0  0  0  0  0  0  0  0  0
    9.6339  -14.1762    0.0000 C   0  0  1  0  0  0  0  0  0  0  0  0
    9.1490  -14.8437    0.0000 C   0  0  1  0  0  0  0  0  0  0  0  0
    7.6499  -12.5263    0.0000 C   0  0  0  0  0  0  0  0  0  0  0  0
    8.3644  -12.1138    0.0000 O   0  0  0  0  0  0  0  0  0  0  0  0
    6.9354  -12.1138    0.0000 O   0  0  0  0  0  0  0  0  0  0  0  0
    7.6499  -15.8263    0.0000 O   0  0  0  0  0  0  0  0  0  0  0  0
    6.2210  -15.8263    0.0000 O   0  0  0  0  0  0  0  0  0  0  0  0
    6.9354  -16.2387    0.0000 C   0  0  2  0  0  0  0  0  0  0  0  0
    6.9354  -17.0637    0.0000 C   0  0  1  0  0  0  0  0  0  0  0  0
    6.2210  -17.4763    0.0000 C   0  0  2  0  0  0  0  0  0  0  0  0
    5.5065  -17.0637    0.0000 C   0  0  1  0  0  0  0  0  0  0  0  0
    5.5065  -16.2387    0.0000 C   0  0  1  0  0  0  0  0  0  0  0  0
    4.7920  -15.8263    0.0000 C   0  0  0  0  0  0  0  0  0  0  0  0
    4.0776  -16.2387    0.0000 O   0  0  0  0  0  0  0  0  0  0  0  0
    4.7920  -17.4763    0.0000 O   0  0  0  0  0  0  0  0  0  0  0  0
    6.2210  -18.3012    0.0000 O   0  0  0  0  0  0  0  0  0  0  0  0
    7.6499  -17.4763    0.0000 O   0  0  0  0  0  0  0  0  0  0  0  0
    8.9775  -15.6507    0.0000 C   0  0  0  0  0  0  0  0  0  0  0  0
    9.7621  -15.3957    0.0000 O   0  0  0  0  0  0  0  0  0  0  0  0
   10.4589  -14.1762    0.0000 O   0  0  0  0  0  0  0  0  0  0  0  0
    9.4040  -12.7242    0.0000 O   0  0  0  0  0  0  0  0  0  0  0  0
    8.4506  -12.9433    0.0000 O   0  0  0  0  0  0  0  0  0  0  0  0
    8.4506  -15.4092    0.0000 H   0  0  0  0  0  0  0  0  0  0  0  0
    6.9354  -11.2888    0.0000 C   0  0  0  0  0  0  0  0  0  0  0  0
  1  2  1  0  0  0  0
  2  3  1  0  0  0  0
  3  4  1  0  0  0  0
  4  5  2  0  0  0  0
  5  6  1  0  0  0  0
  1  6  1  0  0  0  0
  7  8  1  0  0  0  0
  8  9  1  0  0  0  0
  9  2  1  0  0  0  0
  7  3  1  0  0  0  0
 10 11  2  0  0  0  0
 10 12  1  0  0  0  0
  4 10  1  0  0  0  0
 14 15  1  0  0  0  0
 15 16  1  0  0  0  0
 16 17  1  0  0  0  0
 17 18  1  0  0  0  0
 18 19  1  0  0  0  0
 14 19  1  0  0  0  0
 20 21  1  0  0  0  0
 19 20  1  1  0  0  0
 18 22  1  6  0  0  0
 17 23  1  1  0  0  0
 16 24  1  6  0  0  0
 15 13  1  1  0  0  0
  1 13  1  6  0  0  0
  9 25  1  1  0  0  0
  9 26  1  6  0  0  0
  8 27  1  6  0  0  0
  7 28  1  6  0  0  0
  3 29  1  6  0  0  0
  2 30  1  6  0  0  0
 12 31  1  0  0  0  0
M  END
>  <cdx:groupId>
132148

>  <cdx:fragmentId>
132056

$$$$
