582898.cdx
  Mrv1902 05222410282D          

 10 11  0  0  0  0            999 V2000
   16.8025  -13.1970    0.0000 C   0  0  0  0  0  0  0  0  0  0  0  0
   16.0881  -12.7845    0.0000 N   0  0  0  0  0  0  0  0  0  0  0  0
   15.3736  -13.1970    0.0000 C   0  0  0  0  0  0  0  0  0  0  0  0
   15.3736  -14.0220    0.0000 C   0  0  0  0  0  0  0  0  0  0  0  0
   16.0881  -14.4345    0.0000 C   0  0  0  0  0  0  0  0  0  0  0  0
   16.8025  -14.0220    0.0000 N   0  0  0  0  0  0  0  0  0  0  0  0
   14.6591  -14.4345    0.0000 C   0  0  0  0  0  0  0  0  0  0  0  0
   13.9447  -14.0220    0.0000 C   0  0  0  0  0  0  0  0  0  0  0  0
   13.9447  -13.1970    0.0000 C   0  0  0  0  0  0  0  0  0  0  0  0
   14.6591  -12.7845    0.0000 N   0  0  0  0  0  0  0  0  0  0  0  0
  1  2  1  0  0  0  0
  2  3  2  0  0  0  0
  3  4  1  0  0  0  0
  4  5  2  0  0  0  0
  5  6  1  0  0  0  0
  1  6  2  0  0  0  0
  7  8  2  0  0  0  0
  8  9  1  0  0  0  0
  9 10  2  0  0  0  0
 10  3  1  0  0  0  0
  7  4  1  0  0  0  0
M  END
>  <cdx:groupId>
4052

>  <cdx:fragmentId>
4024

$$$$
