583087.cdx
  Mrv1902 05222410222D          

 14 16  0  0  0  0            999 V2000
   16.5957  -12.2646    0.0000 C   0  0  0  0  0  0  0  0  0  0  0  0
   17.3102  -12.6771    0.0000 C   0  0  0  0  0  0  0  0  0  0  0  0
   17.3102  -13.5021    0.0000 C   0  0  0  0  0  0  0  0  0  0  0  0
   16.5957  -13.9146    0.0000 C   0  0  0  0  0  0  0  0  0  0  0  0
   15.8813  -13.5021    0.0000 C   0  0  0  0  0  0  0  0  0  0  0  0
   15.0563  -13.5021    0.0000 C   0  0  0  0  0  0  0  0  0  0  0  0
   14.3418  -13.9146    0.0000 C   0  0  0  0  0  0  0  0  0  0  0  0
   13.6273  -13.5021    0.0000 C   0  0  0  0  0  0  0  0  0  0  0  0
   13.6273  -12.6771    0.0000 C   0  0  0  0  0  0  0  0  0  0  0  0
   14.3418  -12.2646    0.0000 C   0  0  0  0  0  0  0  0  0  0  0  0
   15.0563  -12.6771    0.0000 C   0  0  0  0  0  0  0  0  0  0  0  0
   15.8813  -12.6771    0.0000 C   0  0  0  0  0  0  0  0  0  0  0  0
   14.3418  -14.7396    0.0000 C   0  0  0  0  0  0  0  0  0  0  0  0
   16.5957  -14.7396    0.0000 C   0  0  0  0  0  0  0  0  0  0  0  0
  1  2  1  0  0  0  0
  2  3  1  0  0  0  0
  3  4  1  0  0  0  0
  4  5  2  0  0  0  0
  5  6  1  0  0  0  0
  6  7  2  0  0  0  0
  7  8  1  0  0  0  0
  8  9  1  0  0  0  0
  9 10  1  0  0  0  0
 10 11  1  0  0  0  0
  6 11  1  0  0  0  0
 11 12  1  0  0  0  0
  5 12  1  0  0  0  0
  1 12  1  0  0  0  0
  7 13  1  0  0  0  0
  4 14  1  0  0  0  0
M  END
>  <cdx:groupId>
4164

>  <cdx:fragmentId>
4123

$$$$
