583060.cdx
  Mrv1902 05222410232D          

 19 20  0  0  0  0            999 V2000
   17.6079  -13.2859    0.0000 C   0  0  0  0  0  0  0  0  0  0  0  0
   17.6079  -12.4609    0.0000 C   0  0  0  0  0  0  0  0  0  0  0  0
   18.3223  -12.0484    0.0000 C   0  0  0  0  0  0  0  0  0  0  0  0
   19.0368  -12.4609    0.0000 C   0  0  0  0  0  0  0  0  0  0  0  0
   19.0368  -13.2859    0.0000 C   0  0  0  0  0  0  0  0  0  0  0  0
   19.7513  -13.6984    0.0000 C   0  0  0  0  0  0  0  0  0  0  0  0
   19.7513  -14.5234    0.0000 C   0  0  0  0  0  0  0  0  0  0  0  0
   19.0368  -14.9359    0.0000 C   0  0  0  0  0  0  0  0  0  0  0  0
   18.3223  -14.5234    0.0000 C   0  0  0  0  0  0  0  0  0  0  0  0
   18.3223  -13.6984    0.0000 C   0  0  0  0  0  0  0  0  0  0  0  0
   16.8934  -13.6984    0.0000 C   0  0  0  0  0  0  0  0  0  0  0  0
   16.1789  -13.2859    0.0000 C   0  0  0  0  0  0  0  0  0  0  0  0
   15.4645  -13.6984    0.0000 C   0  0  0  0  0  0  0  0  0  0  0  0
   14.7500  -13.2859    0.0000 C   0  0  0  0  0  0  0  0  0  0  0  0
   14.0355  -13.6984    0.0000 C   0  0  0  0  0  0  0  0  0  0  0  0
   13.3210  -13.2859    0.0000 C   0  0  0  0  0  0  0  0  0  0  0  0
   12.6066  -13.6984    0.0000 C   0  0  0  0  0  0  0  0  0  0  0  0
   11.8921  -13.2859    0.0000 C   0  0  0  0  0  0  0  0  0  0  0  0
   11.1776  -13.6984    0.0000 C   0  0  0  0  0  0  0  0  0  0  0  0
  1  2  1  0  0  0  0
  2  3  1  0  0  0  0
  3  4  1  0  0  0  0
  4  5  1  0  0  0  0
  5  6  1  0  0  0  0
  6  7  2  0  0  0  0
  7  8  1  0  0  0  0
  8  9  2  0  0  0  0
  9 10  1  0  0  0  0
  1 10  1  0  0  0  0
  5 10  2  0  0  0  0
 11 12  1  0  0  0  0
 12 13  1  0  0  0  0
 13 14  1  0  0  0  0
 14 15  1  0  0  0  0
 15 16  1  0  0  0  0
 16 17  1  0  0  0  0
 17 18  1  0  0  0  0
 18 19  1  0  0  0  0
  1 11  1  0  0  0  0
M  END
>  <cdx:groupId>
4115

>  <cdx:fragmentId>
4060

$$$$
