5834.cdx
  Mrv1902 05222410282D          

 32 35  0  0  0  0            999 V2000
    4.2882   -7.3079    0.0000 C   0  0  0  0  0  0  0  0  0  0  0  0
    4.2882   -8.1424    0.0000 C   0  0  0  0  0  0  0  0  0  0  0  0
    5.0000   -8.5351    0.0000 C   0  0  0  0  0  0  0  0  0  0  0  0
    5.7117   -8.1424    0.0000 C   0  0  0  0  0  0  0  0  0  0  0  0
    5.7117   -7.3079    0.0000 C   0  0  2  0  0  0  0  0  0  0  0  0
    5.0000   -6.8907    0.0000 C   0  0  0  0  0  0  0  0  0  0  0  0
    6.4232   -8.5351    0.0000 C   0  0  0  0  0  0  0  0  0  0  0  0
    7.1350   -8.1424    0.0000 C   0  0  0  0  0  0  0  0  0  0  0  0
    7.1350   -7.3079    0.0000 C   0  0  2  0  0  0  0  0  0  0  0  0
    6.4232   -6.8907    0.0000 C   0  0  2  0  0  0  0  0  0  0  0  0
    7.8713   -6.8907    0.0000 C   0  0  1  0  0  0  0  0  0  0  0  0
    7.8713   -6.0562    0.0000 C   0  0  2  0  0  0  0  0  0  0  0  0
    7.1350   -5.6637    0.0000 C   0  0  0  0  0  0  0  0  0  0  0  0
    6.4232   -6.0562    0.0000 C   0  0  2  0  0  0  0  0  0  0  0  0
    8.6320   -7.1361    0.0000 C   0  0  0  0  0  0  0  0  0  0  0  0
    9.0984   -6.4734    0.0000 C   0  0  0  0  0  0  0  0  0  0  0  0
    8.6678   -5.8385    0.0000 C   0  0  2  0  0  0  0  0  0  0  0  0
    3.5764   -8.5351    0.0000 O   0  0  0  0  0  0  0  0  0  0  0  0
    5.7117   -6.4734    0.0000 C   0  0  0  0  0  0  0  0  0  0  0  0
    5.7117   -5.6637    0.0000 O   0  0  0  0  0  0  0  0  0  0  0  0
    7.8713   -5.2312    0.0000 C   0  0  0  0  0  0  0  0  0  0  0  0
    6.4232   -7.7251    0.0000 H   0  0  0  0  0  0  0  0  0  0  0  0
    7.8468   -7.7006    0.0000 H   0  0  0  0  0  0  0  0  0  0  0  0
    7.1350   -6.4734    0.0000 H   0  0  0  0  0  0  0  0  0  0  0  0
    8.9537   -5.0646    0.0000 C   0  0  0  0  0  0  0  0  0  0  0  0
    8.4266   -4.4300    0.0000 O   0  0  0  0  0  0  0  0  0  0  0  0
    9.7669   -4.9254    0.0000 C   0  0  0  0  0  0  0  0  0  0  0  0
   10.0529   -4.1515    0.0000 O   0  0  0  0  0  0  0  0  0  0  0  0
   10.8660   -4.0123    0.0000 C   0  0  0  0  0  0  0  0  0  0  0  0
   11.3932   -4.6468    0.0000 O   0  0  0  0  0  0  0  0  0  0  0  0
   11.1520   -3.2384    0.0000 C   0  0  0  0  0  0  0  0  0  0  0  0
    9.4647   -5.6250    0.0000 O   0  0  0  0  0  0  0  0  0  0  0  0
  1  2  1  0  0  0  0
  2  3  1  0  0  0  0
  3  4  2  0  0  0  0
  4  5  1  0  0  0  0
  5  6  1  0  0  0  0
  1  6  2  0  0  0  0
  4  7  1  0  0  0  0
  7  8  1  0  0  0  0
  8  9  1  0  0  0  0
  9 10  1  0  0  0  0
  5 10  1  0  0  0  0
  9 11  1  0  0  0  0
 11 12  1  0  0  0  0
 12 13  1  0  0  0  0
 13 14  1  0  0  0  0
 10 14  1  0  0  0  0
 11 15  1  0  0  0  0
 15 16  1  0  0  0  0
 16 17  1  0  0  0  0
 12 17  1  0  0  0  0
  2 18  2  0  0  0  0
  5 19  1  1  0  0  0
 14 20  1  1  0  0  0
 12 21  1  1  0  0  0
 10 22  1  6  0  0  0
 11 23  1  6  0  0  0
  9 24  1  1  0  0  0
 17 25  1  0  0  0  0
 25 26  2  0  0  0  0
 25 27  1  0  0  0  0
 27 28  1  0  0  0  0
 28 29  1  0  0  0  0
 29 30  2  0  0  0  0
 29 31  1  0  0  0  0
 17 32  1  6  0  0  0
M  END
>  <cdx:fragmentId>
3

$$$$
