583920.cdx
  Mrv1902 05222410232D          

 37 41  0  0  0  0            999 V2000
    5.9316   -7.5266    0.0000 C   0  0  0  0  0  0  0  0  0  0  0  0
    5.2171   -7.9391    0.0000 C   0  0  0  0  0  0  0  0  0  0  0  0
    5.2171   -8.7641    0.0000 C   0  0  1  0  0  0  0  0  0  0  0  0
    5.9316   -9.1766    0.0000 C   0  0  0  0  0  0  0  0  0  0  0  0
    6.6461   -8.7641    0.0000 C   0  0  2  0  0  0  0  0  0  0  0  0
    7.3606   -9.1766    0.0000 C   0  0  0  0  0  0  0  0  0  0  0  0
    8.0750   -8.7641    0.0000 C   0  0  0  0  0  0  0  0  0  0  0  0
    8.0750   -7.9391    0.0000 C   0  0  1  0  0  0  0  0  0  0  0  0
    8.7895   -7.5266    0.0000 C   0  0  2  0  0  0  0  0  0  0  0  0
    9.5741   -7.7815    0.0000 C   0  0  0  0  0  0  0  0  0  0  0  0
   10.0590   -7.1141    0.0000 C   0  0  0  0  0  0  0  0  0  0  0  0
    9.5741   -6.4466    0.0000 C   0  0  1  0  0  0  0  0  0  0  0  0
    8.7895   -6.7016    0.0000 C   0  0  1  0  0  0  0  0  0  0  0  0
    8.0750   -6.2891    0.0000 C   0  0  0  0  0  0  0  0  0  0  0  0
    7.3606   -6.7016    0.0000 C   0  0  0  0  0  0  0  0  0  0  0  0
    7.3606   -7.5266    0.0000 C   0  0  2  0  0  0  0  0  0  0  0  0
    6.6461   -7.9391    0.0000 C   0  0  1  0  0  0  0  0  0  0  0  0
    7.3606  -10.0016    0.0000 O   0  0  0  0  0  0  0  0  0  0  0  0
    8.7895   -5.8766    0.0000 C   0  0  0  0  0  0  0  0  0  0  0  0
    6.6461   -7.1141    0.0000 C   0  0  0  0  0  0  0  0  0  0  0  0
    4.5027   -9.1766    0.0000 O   0  0  0  0  0  0  0  0  0  0  0  0
    6.6461   -9.5891    0.0000 H   0  0  0  0  0  0  0  0  0  0  0  0
    8.0750   -7.1141    0.0000 H   0  0  0  0  0  0  0  0  0  0  0  0
    7.3606   -8.3516    0.0000 H   0  0  0  0  0  0  0  0  0  0  0  0
    8.7895   -8.3516    0.0000 H   0  0  0  0  0  0  0  0  0  0  0  0
   10.3389   -4.0928    0.0000 C   0  0  0  0  0  0  0  0  0  0  0  0
   13.0569   -4.9759    0.0000 C   0  0  0  0  0  0  0  0  0  0  0  0
   11.6979   -4.5343    0.0000 C   0  0  0  0  0  0  0  0  0  0  0  0
   12.2500   -5.1474    0.0000 C   0  0  2  0  0  0  0  0  0  0  0  0
   11.9950   -5.9320    0.0000 C   0  0  0  0  0  0  0  0  0  0  0  0
   11.1881   -6.1036    0.0000 C   0  0  0  0  0  0  0  0  0  0  0  0
   10.6360   -5.4905    0.0000 C   0  0  1  0  0  0  0  0  0  0  0  0
   10.8910   -4.7059    0.0000 N   0  0  0  0  0  0  0  0  0  0  0  0
    9.2770   -5.0489    0.0000 C   0  0  0  0  0  0  0  0  0  0  0  0
    9.8291   -5.6620    0.0000 C   0  0  1  0  0  0  0  0  0  0  0  0
   11.4329   -5.2770    0.0000 H   0  0  0  0  0  0  0  0  0  0  0  0
   10.3710   -6.2331    0.0000 H   0  0  0  0  0  0  0  0  0  0  0  0
 35 32  1  0  0  0  0
 33 26  1  0  0  0  0
 29 27  1  1  0  0  0
 33 28  1  0  0  0  0
 29 28  1  0  0  0  0
 30 29  1  0  0  0  0
 31 30  1  0  0  0  0
 32 31  1  0  0  0  0
 33 32  1  0  0  0  0
 35 34  1  6  0  0  0
  1  2  1  0  0  0  0
  2  3  1  0  0  0  0
  3  4  1  0  0  0  0
  4  5  1  0  0  0  0
  5  6  1  0  0  0  0
  6  7  1  0  0  0  0
  7  8  1  0  0  0  0
  8  9  1  0  0  0  0
  9 10  1  0  0  0  0
 10 11  1  0  0  0  0
 12 11  1  0  0  0  0
 12 13  1  0  0  0  0
  9 13  1  0  0  0  0
 13 14  1  0  0  0  0
 14 15  1  0  0  0  0
 15 16  1  0  0  0  0
  8 16  1  0  0  0  0
 16 17  1  0  0  0  0
  5 17  1  0  0  0  0
  1 17  1  0  0  0  0
  6 18  2  0  0  0  0
 13 19  1  1  0  0  0
 17 20  1  1  0  0  0
  3 21  1  1  0  0  0
 12 35  1  0  0  0  0
  5 22  1  6  0  0  0
  8 23  1  1  0  0  0
 16 24  1  6  0  0  0
  9 25  1  6  0  0  0
 32 36  1  1  0  0  0
 12 37  1  6  0  0  0
M  END
>  <cdx:groupId>
111

>  <cdx:fragmentId>
5

$$$$
