583980.cdx
  Mrv1902 05222410262D          

 17 18  0  0  0  0            999 V2000
    8.6609   -9.2570    0.0000 O   0  0  0  0  0  0  0  0  0  0  0  0
    7.8763   -9.0021    0.0000 C   0  0  2  0  0  0  0  0  0  0  0  0
    7.8763   -8.1771    0.0000 C   0  0  2  0  0  0  0  0  0  0  0  0
    8.6609   -7.9222    0.0000 C   0  0  1  0  0  0  0  0  0  0  0  0
    9.1458   -8.5896    0.0000 C   0  0  0  0  0  0  0  0  0  0  0  0
    7.0917   -7.9222    0.0000 C   0  0  1  0  0  0  0  0  0  0  0  0
    6.6068   -8.5896    0.0000 C   0  0  0  0  0  0  0  0  0  0  0  0
    7.0917   -9.2570    0.0000 C   0  0  0  0  0  0  0  0  0  0  0  0
    9.9708   -8.5896    0.0000 O   0  0  0  0  0  0  0  0  0  0  0  0
    5.7818   -8.5896    0.0000 C   0  0  0  0  0  0  0  0  0  0  0  0
    5.3693   -9.3041    0.0000 O   0  0  0  0  0  0  0  0  0  0  0  0
    6.8367   -7.1375    0.0000 C   0  0  0  0  0  0  0  0  0  0  0  0
    6.0298   -6.9660    0.0000 O   0  0  0  0  0  0  0  0  0  0  0  0
    8.9159   -7.1375    0.0000 C   0  0  0  0  0  0  0  0  0  0  0  0
    9.7228   -6.9660    0.0000 O   0  0  0  0  0  0  0  0  0  0  0  0
    7.8763   -7.3521    0.0000 H   0  0  0  0  0  0  0  0  0  0  0  0
    7.8763   -9.8271    0.0000 H   0  0  0  0  0  0  0  0  0  0  0  0
  1  2  1  0  0  0  0
  2  3  1  0  0  0  0
  3  4  1  0  0  0  0
  4  5  1  0  0  0  0
  1  5  1  0  0  0  0
  6  7  1  0  0  0  0
  7  8  2  0  0  0  0
  8  2  1  0  0  0  0
  6  3  1  0  0  0  0
  5  9  2  0  0  0  0
 10 11  1  0  0  0  0
  7 10  1  0  0  0  0
 12 13  1  0  0  0  0
  6 12  1  1  0  0  0
 14 15  1  0  0  0  0
  4 14  1  6  0  0  0
  3 16  1  6  0  0  0
  2 17  1  6  0  0  0
M  END
>  <cdx:fragmentId>
169992

$$$$
