584283.cdx
  Mrv1902 05222410242D          

 10 11  0  0  0  0            999 V2000
   14.4090  -13.1347    0.0000 O   0  0  0  0  0  0  0  0  0  0  0  0
   15.0764  -13.6197    0.0000 C   0  0  0  0  0  0  0  0  0  0  0  0
   14.8215  -14.4043    0.0000 C   0  0  0  0  0  0  0  0  0  0  0  0
   13.9965  -14.4043    0.0000 C   0  0  0  0  0  0  0  0  0  0  0  0
   13.7416  -13.6197    0.0000 C   0  0  0  0  0  0  0  0  0  0  0  0
   15.8611  -13.3647    0.0000 C   0  0  0  0  0  0  0  0  0  0  0  0
   16.1160  -12.5801    0.0000 C   0  0  0  0  0  0  0  0  0  0  0  0
   16.9410  -12.5801    0.0000 C   0  0  0  0  0  0  0  0  0  0  0  0
   17.1959  -13.3647    0.0000 C   0  0  0  0  0  0  0  0  0  0  0  0
   16.5285  -13.8496    0.0000 C   0  0  0  0  0  0  0  0  0  0  0  0
  1  2  1  0  0  0  0
  2  3  2  0  0  0  0
  3  4  1  0  0  0  0
  4  5  2  0  0  0  0
  1  5  1  0  0  0  0
  6  7  2  0  0  0  0
  7  8  1  0  0  0  0
  8  9  1  0  0  0  0
  9 10  1  0  0  0  0
  6 10  1  0  0  0  0
  2  6  1  0  0  0  0
M  END
>  <cdx:groupId>
4310

>  <cdx:fragmentId>
4292

$$$$
