584223.cdx
  Mrv1902 05222410262D          

 72 79  0  0  0  0            999 V2000
    7.2443   -8.5525    0.0000 C   0  0  2  0  0  0  0  0  0  0  0  0
    7.2443   -9.3775    0.0000 O   0  0  0  0  0  0  0  0  0  0  0  0
    7.9588   -9.7900    0.0000 O   0  0  0  0  0  0  0  0  0  0  0  0
    8.6732   -9.3775    0.0000 C   0  0  1  0  0  0  0  0  0  0  0  0
    8.6732   -8.5525    0.0000 C   0  0  2  0  0  0  0  0  0  0  0  0
    7.9588   -8.1400    0.0000 O   0  0  0  0  0  0  0  0  0  0  0  0
    9.3877   -9.7900    0.0000 C   0  0  2  0  0  0  0  0  0  0  0  0
   10.1022   -9.3775    0.0000 C   0  0  1  0  0  0  0  0  0  0  0  0
   10.1022   -8.5525    0.0000 O   0  0  0  0  0  0  0  0  0  0  0  0
    9.3877   -8.1400    0.0000 C   0  0  2  0  0  0  0  0  0  0  0  0
   10.8167   -9.7900    0.0000 O   0  0  0  0  0  0  0  0  0  0  0  0
   11.5311   -9.3775    0.0000 C   0  0  1  0  0  0  0  0  0  0  0  0
   11.5311   -8.5525    0.0000 C   0  0  0  0  0  0  0  0  0  0  0  0
   12.2456   -9.7900    0.0000 C   0  0  0  0  0  0  0  0  0  0  0  0
   12.9601   -9.3775    0.0000 C   0  0  1  0  0  0  0  0  0  0  0  0
   12.9601   -8.5525    0.0000 C   0  0  2  0  0  0  0  0  0  0  0  0
   12.2456   -8.1400    0.0000 C   0  0  0  0  0  0  0  0  0  0  0  0
   13.6745   -9.7900    0.0000 C   0  0  0  0  0  0  0  0  0  0  0  0
   14.3890   -9.3775    0.0000 C   0  0  0  0  0  0  0  0  0  0  0  0
   14.3890   -8.5525    0.0000 C   0  0  2  0  0  0  0  0  0  0  0  0
   13.6745   -8.1400    0.0000 C   0  0  2  0  0  0  0  0  0  0  0  0
   15.1035   -8.1400    0.0000 C   0  0  1  0  0  0  0  0  0  0  0  0
   15.1035   -7.3150    0.0000 C   0  0  0  0  0  0  0  0  0  0  0  0
   14.3890   -6.9025    0.0000 C   0  0  0  0  0  0  0  0  0  0  0  0
   13.6745   -7.3150    0.0000 C   0  0  0  0  0  0  0  0  0  0  0  0
   15.8180   -8.5525    0.0000 C   0  0  0  0  0  0  0  0  0  0  0  0
   16.5324   -8.1400    0.0000 C   0  0  0  0  0  0  0  0  0  0  0  0
   16.5324   -7.3150    0.0000 C   0  0  2  0  0  0  0  0  0  0  0  0
   15.8180   -6.9025    0.0000 C   0  0  1  0  0  0  0  0  0  0  0  0
   17.2469   -6.9025    0.0000 C   0  0  0  0  0  0  0  0  0  0  0  0
   17.2469   -6.0775    0.0000 C   0  0  0  0  0  0  0  0  0  0  0  0
   16.5324   -5.6650    0.0000 C   0  0  0  0  0  0  0  0  0  0  0  0
   15.8180   -6.0775    0.0000 C   0  0  0  0  0  0  0  0  0  0  0  0
    9.3877  -10.6150    0.0000 O   0  0  0  0  0  0  0  0  0  0  0  0
    6.4597   -8.2976    0.0000 C   0  0  2  0  0  0  0  0  0  0  0  0
    5.9748   -8.9650    0.0000 C   0  0  1  0  0  0  0  0  0  0  0  0
    6.4597   -9.6324    0.0000 C   0  0  1  0  0  0  0  0  0  0  0  0
   17.2469   -7.7275    0.0000 C   0  0  0  0  0  0  0  0  0  0  0  0
   17.9614   -7.3150    0.0000 O   0  0  0  0  0  0  0  0  0  0  0  0
   17.2469   -8.5525    0.0000 O   0  0  0  0  0  0  0  0  0  0  0  0
    9.3877   -7.3150    0.0000 C   0  0  0  0  0  0  0  0  0  0  0  0
    8.6732   -6.9025    0.0000 O   0  0  0  0  0  0  0  0  0  0  0  0
   10.1022   -6.9025    0.0000 O   0  0  0  0  0  0  0  0  0  0  0  0
    6.2047  -10.4171    0.0000 C   0  0  0  0  0  0  0  0  0  0  0  0
    5.4079  -10.6306    0.0000 O   0  0  0  0  0  0  0  0  0  0  0  0
   16.1199   -4.9505    0.0000 C   0  0  0  0  0  0  0  0  0  0  0  0
   14.3890   -7.7275    0.0000 C   0  0  0  0  0  0  0  0  0  0  0  0
   12.9601   -7.7275    0.0000 C   0  0  0  0  0  0  0  0  0  0  0  0
   11.8331  -10.5045    0.0000 C   0  0  0  0  0  0  0  0  0  0  0  0
    5.1498   -8.9650    0.0000 O   0  0  0  0  0  0  0  0  0  0  0  0
   16.9449   -4.9505    0.0000 C   0  0  0  0  0  0  0  0  0  0  0  0
   15.1035   -8.9650    0.0000 C   0  0  0  0  0  0  0  0  0  0  0  0
   12.6581  -10.5045    0.0000 C   0  0  0  0  0  0  0  0  0  0  0  0
    6.2047   -7.5129    0.0000 O   0  0  0  0  0  0  0  0  0  0  0  0
   18.6758   -7.7275    0.0000 C   0  0  2  0  0  0  0  0  0  0  0  0
   18.6758   -8.5525    0.0000 O   0  0  0  0  0  0  0  0  0  0  0  0
   19.3903   -8.9650    0.0000 C   0  0  1  0  0  0  0  0  0  0  0  0
   20.1048   -8.5525    0.0000 C   0  0  2  0  0  0  0  0  0  0  0  0
   20.1048   -7.7275    0.0000 C   0  0  1  0  0  0  0  0  0  0  0  0
   19.3903   -7.3150    0.0000 C   0  0  1  0  0  0  0  0  0  0  0  0
   19.3903   -9.7900    0.0000 C   0  0  0  0  0  0  0  0  0  0  0  0
   20.8193   -7.3150    0.0000 O   0  0  0  0  0  0  0  0  0  0  0  0
   19.3903   -6.4900    0.0000 O   0  0  0  0  0  0  0  0  0  0  0  0
   20.8193   -8.9650    0.0000 O   0  0  0  0  0  0  0  0  0  0  0  0
   20.1048  -10.2025    0.0000 O   0  0  0  0  0  0  0  0  0  0  0  0
   12.9601  -10.2025    0.0000 H   0  0  0  0  0  0  0  0  0  0  0  0
   13.6745   -8.9650    0.0000 H   0  0  0  0  0  0  0  0  0  0  0  0
   15.8180   -7.7275    0.0000 H   0  0  0  0  0  0  0  0  0  0  0  0
    8.6732   -6.0775    0.0000 C   0  0  0  0  0  0  0  0  0  0  0  0
    7.9588   -5.6650    0.0000 C   0  0  0  0  0  0  0  0  0  0  0  0
    7.9588   -4.8400    0.0000 C   0  0  0  0  0  0  0  0  0  0  0  0
    7.2443   -4.4275    0.0000 C   0  0  0  0  0  0  0  0  0  0  0  0
  1  2  1  0  0  0  0
  4  3  1  1  0  0  0
  4  5  1  0  0  0  0
  5  6  1  6  0  0  0
  1  6  1  1  0  0  0
  4  7  1  0  0  0  0
  7  8  1  0  0  0  0
  8  9  1  0  0  0  0
  9 10  1  0  0  0  0
 10  5  1  0  0  0  0
  8 11  1  1  0  0  0
 12 11  1  1  0  0  0
 12 13  1  0  0  0  0
 12 14  1  0  0  0  0
 14 15  1  0  0  0  0
 15 16  1  0  0  0  0
 16 17  1  0  0  0  0
 17 13  1  0  0  0  0
 15 18  1  0  0  0  0
 18 19  1  0  0  0  0
 19 20  1  0  0  0  0
 20 21  1  0  0  0  0
 21 16  1  0  0  0  0
 20 22  1  0  0  0  0
 22 23  1  0  0  0  0
 23 24  2  0  0  0  0
 24 25  1  0  0  0  0
 25 21  1  0  0  0  0
 22 26  1  0  0  0  0
 26 27  1  0  0  0  0
 27 28  1  0  0  0  0
 28 29  1  0  0  0  0
 29 23  1  0  0  0  0
 28 30  1  0  0  0  0
 30 31  1  0  0  0  0
 31 32  1  0  0  0  0
 32 33  1  0  0  0  0
 33 29  1  0  0  0  0
  7 34  1  6  0  0  0
  1 35  1  0  0  0  0
 35 36  1  0  0  0  0
 36 37  1  0  0  0  0
 37  2  1  0  0  0  0
 28 38  1  1  0  0  0
 38 39  1  0  0  0  0
 38 40  2  0  0  0  0
 10 41  1  1  0  0  0
 41 42  1  0  0  0  0
 41 43  2  0  0  0  0
 37 44  1  6  0  0  0
 44 45  1  0  0  0  0
 32 46  1  0  0  0  0
 20 47  1  1  0  0  0
 16 48  1  1  0  0  0
 14 49  1  0  0  0  0
 36 50  1  1  0  0  0
 32 51  1  0  0  0  0
 22 52  1  6  0  0  0
 14 53  1  0  0  0  0
 35 54  1  6  0  0  0
 55 39  1  1  0  0  0
 55 56  1  0  0  0  0
 56 57  1  0  0  0  0
 57 58  1  0  0  0  0
 58 59  1  0  0  0  0
 59 60  1  0  0  0  0
 60 55  1  0  0  0  0
 57 61  1  1  0  0  0
 59 62  1  1  0  0  0
 60 63  1  6  0  0  0
 58 64  1  6  0  0  0
 61 65  1  0  0  0  0
 15 66  1  6  0  0  0
 21 67  1  6  0  0  0
 29 68  1  1  0  0  0
 42 69  1  0  0  0  0
 69 70  1  0  0  0  0
 70 71  1  0  0  0  0
 71 72  1  0  0  0  0
M  END
>  <cdx:fragmentId>
5

$$$$
