5843.cdx
  Mrv1902 05222410262D          

 23 25  0  0  0  0            999 V2000
    4.6027   -6.7306    0.0000 C   0  0  0  0  0  0  0  0  0  0  0  0
    4.6027   -7.5556    0.0000 C   0  0  0  0  0  0  0  0  0  0  0  0
    5.3171   -7.9681    0.0000 C   0  0  0  0  0  0  0  0  0  0  0  0
    6.0316   -7.5556    0.0000 C   0  0  0  0  0  0  0  0  0  0  0  0
    6.0316   -6.7306    0.0000 C   0  0  0  0  0  0  0  0  0  0  0  0
    5.3171   -6.3181    0.0000 C   0  0  0  0  0  0  0  0  0  0  0  0
    6.7461   -7.9681    0.0000 C   0  0  0  0  0  0  0  0  0  0  0  0
    7.4605   -7.5556    0.0000 C   0  0  0  0  0  0  0  0  0  0  0  0
    7.4605   -6.7306    0.0000 C   0  0  0  0  0  0  0  0  0  0  0  0
    6.7461   -6.3181    0.0000 O   0  0  0  0  0  0  0  0  0  0  0  0
    8.1750   -7.9681    0.0000 C   0  0  0  0  0  0  0  0  0  0  0  0
    8.8895   -7.5556    0.0000 C   0  0  0  0  0  0  0  0  0  0  0  0
    8.1750   -8.7931    0.0000 C   0  0  0  0  0  0  0  0  0  0  0  0
    8.8895   -9.2056    0.0000 C   0  0  0  0  0  0  0  0  0  0  0  0
    9.6040   -8.7931    0.0000 C   0  0  0  0  0  0  0  0  0  0  0  0
    9.6040   -7.9681    0.0000 C   0  0  0  0  0  0  0  0  0  0  0  0
    6.7461   -8.7931    0.0000 O   0  0  0  0  0  0  0  0  0  0  0  0
    5.3171   -8.7931    0.0000 O   0  0  0  0  0  0  0  0  0  0  0  0
    3.8882   -7.9681    0.0000 O   0  0  0  0  0  0  0  0  0  0  0  0
    3.8882   -6.3181    0.0000 O   0  0  0  0  0  0  0  0  0  0  0  0
   10.3184   -7.5556    0.0000 O   0  0  0  0  0  0  0  0  0  0  0  0
   10.3184   -9.2056    0.0000 O   0  0  0  0  0  0  0  0  0  0  0  0
   10.3184  -10.0306    0.0000 C   0  0  0  0  0  0  0  0  0  0  0  0
  1  2  2  0  0  0  0
  2  3  1  0  0  0  0
  3  4  2  0  0  0  0
  4  5  1  0  0  0  0
  5  6  2  0  0  0  0
  6  1  1  0  0  0  0
  4  7  1  0  0  0  0
  7  8  1  0  0  0  0
  8  9  2  0  0  0  0
  9 10  1  0  0  0  0
 10  5  1  0  0  0  0
  8 11  1  0  0  0  0
 11 12  1  0  0  0  0
 11 13  2  0  0  0  0
 13 14  1  0  0  0  0
 14 15  2  0  0  0  0
 15 16  1  0  0  0  0
 16 12  2  0  0  0  0
  7 17  2  0  0  0  0
  3 18  1  0  0  0  0
  2 19  1  0  0  0  0
  1 20  1  0  0  0  0
 16 21  1  0  0  0  0
 15 22  1  0  0  0  0
 22 23  1  0  0  0  0
M  END
>  <cdx:fragmentId>
5

$$$$
