584331.cdx
  Mrv1902 05222410252D          

 70 76  0  0  0  0            999 V2000
   14.1573   -8.1828    0.0000 C   0  0  0  0  0  0  0  0  0  0  0  0
   14.1638   -7.3578    0.0000 C   0  0  0  0  0  0  0  0  0  0  0  0
   13.4527   -6.9396    0.0000 C   0  0  0  0  0  0  0  0  0  0  0  0
   12.7349   -7.3464    0.0000 C   0  0  0  0  0  0  0  0  0  0  0  0
   12.7284   -8.1714    0.0000 C   0  0  0  0  0  0  0  0  0  0  0  0
   13.4395   -8.5896    0.0000 C   0  0  0  0  0  0  0  0  0  0  0  0
   13.4330   -9.4145    0.0000 C   0  0  0  0  0  0  0  0  0  0  0  0
   12.6889  -13.1212    0.0000 O   0  0  0  0  0  0  0  0  0  0  0  0
   12.6955  -12.2963    0.0000 C   0  0  0  0  0  0  0  0  0  0  0  0
    9.1786   -6.9056    0.0000 O   0  0  0  0  0  0  0  0  0  0  0  0
    7.7366   -8.5441    0.0000 C   0  0  0  0  0  0  0  0  0  0  0  0
    8.4543   -8.1373    0.0000 C   0  0  0  0  0  0  0  0  0  0  0  0
    8.4609   -7.3124    0.0000 C   0  0  0  0  0  0  0  0  0  0  0  0
    7.7497   -6.8942    0.0000 C   0  0  0  0  0  0  0  0  0  0  0  0
    7.0320   -7.3010    0.0000 C   0  0  0  0  0  0  0  0  0  0  0  0
    7.0254   -8.1260    0.0000 C   0  0  0  0  0  0  0  0  0  0  0  0
    0.3344   -8.5801    0.0000 O   0  0  0  0  0  0  0  0  0  0  0  0
    1.1210   -8.3314    0.0000 C   0  0  0  0  0  0  0  0  0  0  0  0
    1.3822   -7.5489    0.0000 C   0  0  0  0  0  0  0  0  0  0  0  0
    2.2072   -7.5555    0.0000 C   0  0  0  0  0  0  0  0  0  0  0  0
    2.4558   -8.3421    0.0000 C   0  0  2  0  0  0  0  0  0  0  0  0
    1.7846   -8.8217    0.0000 N   0  0  0  0  0  0  0  0  0  0  0  0
    3.8559   -8.0561    0.0000 O   0  0  0  0  0  0  0  0  0  0  0  0
    3.2384   -8.6033    0.0000 C   0  0  0  0  0  0  0  0  0  0  0  0
    2.8466  -10.0203    0.0000 C   0  0  0  0  0  0  0  0  0  0  0  0
    3.2534  -10.7380    0.0000 C   0  0  0  0  0  0  0  0  0  0  0  0
    4.0617  -10.5729    0.0000 C   0  0  0  0  0  0  0  0  0  0  0  0
    4.1545   -9.7531    0.0000 C   0  0  2  0  0  0  0  0  0  0  0  0
    3.4035   -9.4116    0.0000 N   0  0  0  0  0  0  0  0  0  0  0  0
    4.8788   -8.5214    0.0000 O   0  0  0  0  0  0  0  0  0  0  0  0
    4.8722   -9.3463    0.0000 C   0  0  0  0  0  0  0  0  0  0  0  0
    5.5834   -9.7645    0.0000 N   0  0  0  0  0  0  0  0  0  0  0  0
    7.0057  -10.6009    0.0000 O   0  0  0  0  0  0  0  0  0  0  0  0
    6.3077   -8.5327    0.0000 C   0  0  0  0  0  0  0  0  0  0  0  0
    6.3011   -9.3577    0.0000 C   0  0  1  0  0  0  0  0  0  0  0  0
    7.0123   -9.7759    0.0000 C   0  0  0  0  0  0  0  0  0  0  0  0
    7.7300   -9.3691    0.0000 N   0  0  0  0  0  0  0  0  0  0  0  0
    9.1655   -8.5555    0.0000 O   0  0  0  0  0  0  0  0  0  0  0  0
   11.2924  -10.6350    0.0000 O   0  0  0  0  0  0  0  0  0  0  0  0
   13.4198  -11.0645    0.0000 O   0  0  0  0  0  0  0  0  0  0  0  0
   10.6436  -11.7441    0.0000 O   0  0  0  0  0  0  0  0  0  0  0  0
   11.3121   -8.1601    0.0000 C   0  0  0  0  0  0  0  0  0  0  0  0
   10.5944   -8.5669    0.0000 C   0  0  0  0  0  0  0  0  0  0  0  0
    9.8832   -8.1487    0.0000 C   0  0  0  0  0  0  0  0  0  0  0  0
   10.1285  -14.4750    0.0000 O   0  0  0  0  0  0  0  0  0  0  0  0
    8.8967  -13.7507    0.0000 O   0  0  0  0  0  0  0  0  0  0  0  0
    9.7217  -13.7573    0.0000 C   0  0  0  0  0  0  0  0  0  0  0  0
    9.8503  -12.2736    0.0000 C   0  0  0  0  0  0  0  0  0  0  0  0
   10.1399  -13.0461    0.0000 C   0  0  2  0  0  0  0  0  0  0  0  0
   10.9648  -13.0527    0.0000 N   0  0  0  0  0  0  0  0  0  0  0  0
   11.2666  -12.2849    0.0000 C   0  0  0  0  0  0  0  0  0  0  0  0
   11.9843  -11.8781    0.0000 C   0  0  1  0  0  0  0  0  0  0  0  0
   11.9909  -11.0531    0.0000 N   0  0  0  0  0  0  0  0  0  0  0  0
   12.7086  -10.6463    0.0000 C   0  0  0  0  0  0  0  0  0  0  0  0
   12.7152   -9.8213    0.0000 C   0  0  1  0  0  0  0  0  0  0  0  0
   12.0167   -9.4033    0.0000 N   0  0  0  0  0  0  0  0  0  0  0  0
   11.2990   -9.8101    0.0000 C   0  0  0  0  0  0  0  0  0  0  0  0
   10.5878   -9.3919    0.0000 C   0  0  1  0  0  0  0  0  0  0  0  0
    9.8701   -9.7987    0.0000 N   0  0  0  0  0  0  0  0  0  0  0  0
    9.1589   -9.3805    0.0000 C   0  0  0  0  0  0  0  0  0  0  0  0
    8.4412   -9.7873    0.0000 C   0  0  1  0  0  0  0  0  0  0  0  0
    8.4346  -10.6123    0.0000 N   0  0  0  0  0  0  0  0  0  0  0  0
    7.7743  -11.1068    0.0000 C   0  0  0  0  0  0  0  0  0  0  0  0
    8.0406  -11.8877    0.0000 C   0  0  0  0  0  0  0  0  0  0  0  0
    8.8655  -11.8877    0.0000 C   0  0  0  0  0  0  0  0  0  0  0  0
    9.1090  -11.1068    0.0000 C   0  0  0  0  0  0  0  0  0  0  0  0
    6.9649  -10.9471    0.0000 C   0  0  0  0  0  0  0  0  0  0  0  0
    6.4218  -11.5681    0.0000 C   0  0  0  0  0  0  0  0  0  0  0  0
    6.6882  -12.3489    0.0000 C   0  0  0  0  0  0  0  0  0  0  0  0
    7.4975  -12.5087    0.0000 C   0  0  0  0  0  0  0  0  0  0  0  0
 55  7  1  1  0  0  0
  6  1  2  0  0  0  0
  2  1  1  0  0  0  0
  3  2  2  0  0  0  0
  4  3  1  0  0  0  0
  5  4  2  0  0  0  0
  6  5  1  0  0  0  0
  7  6  1  0  0  0  0
 52  9  1  1  0  0  0
  9  8  1  0  0  0  0
 61 37  1  1  0  0  0
 37 36  1  0  0  0  0
 34 16  1  0  0  0  0
 13 10  1  0  0  0  0
 16 11  2  0  0  0  0
 12 11  1  0  0  0  0
 13 12  2  0  0  0  0
 14 13  1  0  0  0  0
 15 14  2  0  0  0  0
 16 15  1  0  0  0  0
 35 32  1  1  0  0  0
 32 31  1  0  0  0  0
 29 24  1  0  0  0  0
 18 17  2  0  0  0  0
 21 24  1  1  0  0  0
 22 18  1  0  0  0  0
 19 18  1  0  0  0  0
 20 19  1  0  0  0  0
 21 20  1  0  0  0  0
 22 21  1  0  0  0  0
 24 23  2  0  0  0  0
 28 31  1  6  0  0  0
 29 25  1  0  0  0  0
 26 25  1  0  0  0  0
 27 26  1  0  0  0  0
 28 27  1  0  0  0  0
 29 28  1  0  0  0  0
 31 30  2  0  0  0  0
 36 33  2  0  0  0  0
 35 34  1  0  0  0  0
 36 35  1  0  0  0  0
 60 38  2  0  0  0  0
 57 39  2  0  0  0  0
 54 40  2  0  0  0  0
 51 41  2  0  0  0  0
 58 43  1  1  0  0  0
 43 42  1  0  0  0  0
 44 43  1  0  0  0  0
 49 47  1  6  0  0  0
 47 45  1  0  0  0  0
 47 46  2  0  0  0  0
 49 48  1  0  0  0  0
 50 49  1  0  0  0  0
 51 50  1  0  0  0  0
 52 51  1  0  0  0  0
 53 52  1  0  0  0  0
 54 53  1  0  0  0  0
 55 54  1  0  0  0  0
 56 55  1  0  0  0  0
 57 56  1  0  0  0  0
 58 57  1  0  0  0  0
 59 58  1  0  0  0  0
 60 59  1  0  0  0  0
 61 60  1  0  0  0  0
 62 61  1  0  0  0  0
 62 63  1  0  0  0  0
 63 64  2  0  0  0  0
 64 65  1  0  0  0  0
 65 66  2  0  0  0  0
 66 62  1  0  0  0  0
 63 67  1  0  0  0  0
 67 68  2  0  0  0  0
 68 69  1  0  0  0  0
 69 70  2  0  0  0  0
 70 64  1  0  0  0  0
 65 48  1  0  0  0  0
M  END
>  <cdx:fragmentId>
170048

$$$$
