5844.cdx
  Mrv1902 05222410242D          

 21 23  0  0  0  0            999 V2000
    3.6952   -4.8881    0.0000 C   0  0  0  0  0  0  0  0  0  0  0  0
    3.6952   -5.7131    0.0000 C   0  0  0  0  0  0  0  0  0  0  0  0
    4.4096   -6.1256    0.0000 C   0  0  0  0  0  0  0  0  0  0  0  0
    5.1241   -5.7131    0.0000 C   0  0  0  0  0  0  0  0  0  0  0  0
    5.1241   -4.8881    0.0000 C   0  0  0  0  0  0  0  0  0  0  0  0
    4.4096   -4.4756    0.0000 C   0  0  0  0  0  0  0  0  0  0  0  0
    5.8386   -6.1256    0.0000 C   0  0  0  0  0  0  0  0  0  0  0  0
    6.5530   -5.7131    0.0000 C   0  0  0  0  0  0  0  0  0  0  0  0
    6.5530   -4.8881    0.0000 C   0  0  0  0  0  0  0  0  0  0  0  0
    5.8386   -4.4756    0.0000 O   0  0  0  0  0  0  0  0  0  0  0  0
    7.2675   -6.1256    0.0000 C   0  0  0  0  0  0  0  0  0  0  0  0
    7.9820   -5.7131    0.0000 C   0  0  0  0  0  0  0  0  0  0  0  0
    7.2675   -6.9506    0.0000 C   0  0  0  0  0  0  0  0  0  0  0  0
    7.9820   -7.3631    0.0000 C   0  0  0  0  0  0  0  0  0  0  0  0
    8.6965   -6.9506    0.0000 C   0  0  0  0  0  0  0  0  0  0  0  0
    8.6965   -6.1256    0.0000 C   0  0  0  0  0  0  0  0  0  0  0  0
    5.8386   -6.9506    0.0000 O   0  0  0  0  0  0  0  0  0  0  0  0
    4.4096   -6.9506    0.0000 O   0  0  0  0  0  0  0  0  0  0  0  0
    2.9807   -6.1256    0.0000 O   0  0  0  0  0  0  0  0  0  0  0  0
    2.9807   -4.4756    0.0000 O   0  0  0  0  0  0  0  0  0  0  0  0
    9.4109   -5.7131    0.0000 O   0  0  0  0  0  0  0  0  0  0  0  0
  1  2  2  0  0  0  0
  2  3  1  0  0  0  0
  3  4  2  0  0  0  0
  4  5  1  0  0  0  0
  5  6  2  0  0  0  0
  6  1  1  0  0  0  0
  4  7  1  0  0  0  0
  7  8  1  0  0  0  0
  8  9  2  0  0  0  0
  9 10  1  0  0  0  0
 10  5  1  0  0  0  0
  8 11  1  0  0  0  0
 11 12  1  0  0  0  0
 11 13  2  0  0  0  0
 13 14  1  0  0  0  0
 14 15  2  0  0  0  0
 15 16  1  0  0  0  0
 16 12  2  0  0  0  0
  7 17  2  0  0  0  0
  3 18  1  0  0  0  0
  2 19  1  0  0  0  0
  1 20  1  0  0  0  0
 16 21  1  0  0  0  0
M  END
>  <cdx:fragmentId>
5

$$$$
