584585.cdx
  Mrv1902 05222410262D          

 11 11  0  0  0  0            999 V2000
    6.7286   -7.0420    0.0000 C   0  0  0  0  0  0  0  0  0  0  0  0
    6.7286   -7.8670    0.0000 C   0  0  0  0  0  0  0  0  0  0  0  0
    6.0141   -8.2795    0.0000 C   0  0  0  0  0  0  0  0  0  0  0  0
    5.2996   -7.8670    0.0000 C   0  0  0  0  0  0  0  0  0  0  0  0
    5.2996   -7.0420    0.0000 C   0  0  0  0  0  0  0  0  0  0  0  0
    6.0141   -6.6295    0.0000 C   0  0  0  0  0  0  0  0  0  0  0  0
    7.4431   -6.6295    0.0000 O   0  0  0  0  0  0  0  0  0  0  0  0
    7.4431   -8.2795    0.0000 C   0  0  0  0  0  0  0  0  0  0  0  0
    8.1575   -7.8670    0.0000 C   0  0  0  0  0  0  0  0  0  0  0  0
    8.8720   -7.4545    0.0000 C   0  0  0  0  0  0  0  0  0  0  0  0
    9.5865   -7.0420    0.0000 C   0  0  0  0  0  0  0  0  0  0  0  0
  1  2  1  0  0  0  0
  2  3  1  0  0  0  0
  3  4  1  0  0  0  0
  4  5  1  0  0  0  0
  5  6  1  0  0  0  0
  1  6  1  0  0  0  0
  1  7  2  0  0  0  0
  8  9  1  0  0  0  0
  9 10  3  0  0  0  0
 10 11  1  0  0  0  0
  2  8  1  0  0  0  0
M  END
>  <cdx:fragmentId>
4375

$$$$
