584681.cdx
  Mrv1902 05222410252D          

 16 18  0  0  0  0            999 V2000
    7.2600   -8.8000    0.0000 C   0  0  0  0  0  0  0  0  0  0  0  0
    8.2500   -8.9925    0.0000 C   0  0  0  0  0  0  0  0  0  0  0  0
    7.9750   -9.7900    0.0000 C   0  0  0  0  0  0  0  0  0  0  0  0
    6.8750   -9.5425    0.0000 C   0  0  0  0  0  0  0  0  0  0  0  0
    5.8025   -9.7900    0.0000 C   0  0  0  0  0  0  0  0  0  0  0  0
    5.9675   -8.9650    0.0000 C   0  0  0  0  0  0  0  0  0  0  0  0
    6.8715   -8.0711    0.0000 C   0  0  0  0  0  0  0  0  0  0  0  0
    6.1570   -7.6586    0.0000 O   0  0  0  0  0  0  0  0  0  0  0  0
    7.1211   -7.2848    0.0000 C   0  0  0  0  0  0  0  0  0  0  0  0
    6.5649   -6.6755    0.0000 C   0  0  0  0  0  0  0  0  0  0  0  0
    6.8145   -5.8891    0.0000 C   0  0  0  0  0  0  0  0  0  0  0  0
    7.6203   -5.7121    0.0000 C   0  0  0  0  0  0  0  0  0  0  0  0
    8.1765   -6.3215    0.0000 C   0  0  0  0  0  0  0  0  0  0  0  0
    7.9269   -7.1078    0.0000 C   0  0  0  0  0  0  0  0  0  0  0  0
    7.8699   -4.9258    0.0000 O   0  0  0  0  0  0  0  0  0  0  0  0
    8.6757   -4.7488    0.0000 C   0  0  0  0  0  0  0  0  0  0  0  0
  1  2  1  0  0  0  0
  2  3  2  0  0  0  0
  3  4  1  0  0  0  0
  4  5  1  0  0  0  0
  5  6  1  0  0  0  0
  1  6  1  0  0  0  0
  1  7  1  0  0  0  0
  7  4  1  0  0  0  0
  7  8  1  0  0  0  0
  9 10  1  0  0  0  0
 10 11  2  0  0  0  0
 11 12  1  0  0  0  0
 12 13  2  0  0  0  0
 13 14  1  0  0  0  0
  9 14  2  0  0  0  0
 15 16  1  0  0  0  0
 12 15  1  0  0  0  0
  7  9  1  0  0  0  0
M  END
>  <cdx:fragmentId>
4454

$$$$
