10584634.cdx
  Mrv1902 05222410282D          

 15 15  0  0  0  0            999 V2000
    8.8219   -8.0679    0.0000 C   0  0  0  0  0  0  0  0  0  0  0  0
    8.1075   -8.4804    0.0000 C   0  0  0  0  0  0  0  0  0  0  0  0
    7.3930   -8.0679    0.0000 C   0  0  0  0  0  0  0  0  0  0  0  0
    8.8219   -7.2429    0.0000 O   0  0  0  0  0  0  0  0  0  0  0  0
    9.5364   -8.4804    0.0000 O   0  0  0  0  0  0  0  0  0  0  0  0
    8.1075   -9.3054    0.0000 O   0  0  0  0  0  0  0  0  0  0  0  0
    6.6785   -8.4804    0.0000 C   0  0  0  0  0  0  0  0  0  0  0  0
    5.9640   -8.0679    0.0000 C   0  0  0  0  0  0  0  0  0  0  0  0
    5.2496   -8.4804    0.0000 C   0  0  0  0  0  0  0  0  0  0  0  0
    5.2496   -9.3054    0.0000 C   0  0  0  0  0  0  0  0  0  0  0  0
    5.9640   -9.7179    0.0000 C   0  0  0  0  0  0  0  0  0  0  0  0
    6.6785   -9.3054    0.0000 C   0  0  0  0  0  0  0  0  0  0  0  0
    4.5351   -9.7179    0.0000 O   0  0  0  0  0  0  0  0  0  0  0  0
    4.5351   -8.0679    0.0000 O   0  0  0  0  0  0  0  0  0  0  0  0
   10.2509   -8.0679    0.0000 C   0  0  0  0  0  0  0  0  0  0  0  0
  1  2  1  0  0  0  0
  2  3  1  0  0  0  0
  1  4  2  0  0  0  0
  1  5  1  0  0  0  0
  2  6  1  0  0  0  0
  7  8  1  0  0  0  0
  8  9  2  0  0  0  0
  9 10  1  0  0  0  0
 10 11  2  0  0  0  0
 11 12  1  0  0  0  0
  7 12  2  0  0  0  0
 10 13  1  0  0  0  0
  9 14  1  0  0  0  0
  3  7  1  0  0  0  0
  5 15  1  0  0  0  0
M  END
>  <cdx:fragmentId>
55325

$$$$
