584610.cdx
  Mrv1902 05222410182D          

 12 13  0  0  0  0            999 V2000
    7.9502   -6.7059    0.0000 C   0  0  0  0  0  0  0  0  0  0  0  0
    8.7349   -6.9608    0.0000 C   0  0  0  0  0  0  0  0  0  0  0  0
    8.7349   -7.7858    0.0000 C   0  0  0  0  0  0  0  0  0  0  0  0
    7.9502   -8.0408    0.0000 C   0  0  0  0  0  0  0  0  0  0  0  0
    7.4653   -7.3733    0.0000 C   0  0  0  0  0  0  0  0  0  0  0  0
    7.0528   -6.6589    0.0000 C   0  0  0  0  0  0  0  0  0  0  0  0
    6.2278   -6.6589    0.0000 C   0  0  0  0  0  0  0  0  0  0  0  0
    5.8153   -7.3733    0.0000 C   0  0  0  0  0  0  0  0  0  0  0  0
    6.2278   -8.0878    0.0000 C   0  0  0  0  0  0  0  0  0  0  0  0
    7.0528   -8.0878    0.0000 C   0  0  0  0  0  0  0  0  0  0  0  0
    7.0528   -5.8339    0.0000 O   0  0  0  0  0  0  0  0  0  0  0  0
    7.7673   -6.2464    0.0000 C   0  0  0  0  0  0  0  0  0  0  0  0
  1  2  1  0  0  0  0
  2  3  1  0  0  0  0
  3  4  1  0  0  0  0
  4  5  1  0  0  0  0
  5  6  1  0  0  0  0
  6  7  1  0  0  0  0
  7  8  1  0  0  0  0
  8  9  1  0  0  0  0
  9 10  1  0  0  0  0
  1  5  1  0  0  0  0
 10  5  1  0  0  0  0
  6 11  1  0  0  0  0
  6 12  1  0  0  0  0
M  END
>  <cdx:fragmentId>
4412

$$$$
