21584661.cdx
  Mrv1902 05222410222D          

  5  4  0  0  0  0            999 V2000
    7.4682   -9.7484    0.0000 C   0  0  0  0  0  0  0  0  0  0  0  0
    6.7537  -10.1609    0.0000 N   0  0  0  0  0  0  0  0  0  0  0  0
    7.4682   -8.9234    0.0000 O   0  0  0  0  0  0  0  0  0  0  0  0
    8.1826  -10.1609    0.0000 O   0  5  0  0  0  0  0  0  0  0  0  0
    6.0392   -9.7484    0.0000 C   0  0  0  0  0  0  0  0  0  0  0  0
  1  2  1  0  0  0  0
  1  3  2  0  0  0  0
  1  4  1  0  0  0  0
  2  5  1  0  0  0  0
M  CHG  1   4  -1
M  END
>  <cdx:groupId>
190

>  <cdx:fragmentId>
179

$$$$
