584633.cdx
  Mrv1902 05222410262D          

 15 15  0  0  0  0            999 V2000
    7.8055   -8.7824    0.0000 O   0  0  0  0  0  0  0  0  0  0  0  0
    7.3930   -8.0679    0.0000 C   0  0  0  0  0  0  0  0  0  0  0  0
    6.6785   -8.4804    0.0000 C   0  0  0  0  0  0  0  0  0  0  0  0
    5.9640   -8.0679    0.0000 C   0  0  0  0  0  0  0  0  0  0  0  0
    5.2496   -8.4804    0.0000 C   0  0  0  0  0  0  0  0  0  0  0  0
    5.2496   -9.3054    0.0000 C   0  0  0  0  0  0  0  0  0  0  0  0
    5.9640   -9.7179    0.0000 C   0  0  0  0  0  0  0  0  0  0  0  0
    6.6785   -9.3054    0.0000 C   0  0  0  0  0  0  0  0  0  0  0  0
    4.5351   -9.7179    0.0000 O   0  0  0  0  0  0  0  0  0  0  0  0
    4.5351   -8.0679    0.0000 O   0  0  0  0  0  0  0  0  0  0  0  0
    6.9805   -7.3535    0.0000 C   0  0  0  0  0  0  0  0  0  0  0  0
    8.1075   -7.6554    0.0000 C   0  0  0  0  0  0  0  0  0  0  0  0
    8.8219   -8.0679    0.0000 O   0  0  0  0  0  0  0  0  0  0  0  0
    8.1075   -6.8304    0.0000 O   0  0  0  0  0  0  0  0  0  0  0  0
    9.5364   -7.6554    0.0000 C   0  0  0  0  0  0  0  0  0  0  0  0
  1  2  1  0  0  0  0
  3  4  1  0  0  0  0
  4  5  2  0  0  0  0
  5  6  1  0  0  0  0
  6  7  2  0  0  0  0
  7  8  1  0  0  0  0
  3  8  2  0  0  0  0
  6  9  1  0  0  0  0
  5 10  1  0  0  0  0
  2  3  1  0  0  0  0
  2 11  1  0  0  0  0
  2 12  1  0  0  0  0
 12 13  1  0  0  0  0
 12 14  2  0  0  0  0
 13 15  1  0  0  0  0
M  END
>  <cdx:fragmentId>
55325

$$$$
