584790.cdx
  Mrv1902 05222410262D          

 27 30  0  0  0  0            999 V2000
    4.2207   -9.1288    0.0000 C   0  0  0  0  0  0  0  0  0  0  0  0
    4.2207   -9.9538    0.0000 C   0  0  1  0  0  0  0  0  0  0  0  0
    4.9351  -10.3663    0.0000 C   0  0  0  0  0  0  0  0  0  0  0  0
    5.6496   -9.9538    0.0000 C   0  0  0  0  0  0  0  0  0  0  0  0
    5.6496   -9.1288    0.0000 C   0  0  2  0  0  0  0  0  0  0  0  0
    4.9351   -8.7163    0.0000 C   0  0  0  0  0  0  0  0  0  0  0  0
    6.3641  -10.3663    0.0000 C   0  0  0  0  0  0  0  0  0  0  0  0
    7.0786   -9.9538    0.0000 C   0  0  0  0  0  0  0  0  0  0  0  0
    7.0786   -9.1288    0.0000 C   0  0  2  0  0  0  0  0  0  0  0  0
    6.3641   -8.7163    0.0000 C   0  0  2  0  0  0  0  0  0  0  0  0
    7.7930   -8.7163    0.0000 C   0  0  2  0  0  0  0  0  0  0  0  0
    7.7930   -7.8913    0.0000 C   0  0  2  0  0  0  0  0  0  0  0  0
    7.0786   -7.4788    0.0000 C   0  0  0  0  0  0  0  0  0  0  0  0
    6.3641   -7.8913    0.0000 C   0  0  0  0  0  0  0  0  0  0  0  0
    8.5777   -8.9712    0.0000 C   0  0  0  0  0  0  0  0  0  0  0  0
    9.0626   -8.3038    0.0000 C   0  0  0  0  0  0  0  0  0  0  0  0
    8.5777   -7.6364    0.0000 C   0  0  2  0  0  0  0  0  0  0  0  0
    8.8326   -6.8517    0.0000 C   0  0  0  0  0  0  0  0  0  0  0  0
    8.2806   -6.2386    0.0000 O   0  0  0  0  0  0  0  0  0  0  0  0
    9.6396   -6.6802    0.0000 C   0  0  0  0  0  0  0  0  0  0  0  0
    7.7930   -7.0663    0.0000 C   0  0  0  0  0  0  0  0  0  0  0  0
    7.7930   -9.5413    0.0000 O   0  0  0  0  0  0  0  0  0  0  0  0
    5.6496   -8.3038    0.0000 C   0  0  0  0  0  0  0  0  0  0  0  0
    3.5062  -10.3663    0.0000 O   0  0  0  0  0  0  0  0  0  0  0  0
    9.3623   -7.3814    0.0000 H   0  0  0  0  0  0  0  0  0  0  0  0
    7.0786   -8.3038    0.0000 H   0  0  0  0  0  0  0  0  0  0  0  0
    6.3641   -9.5413    0.0000 H   0  0  0  0  0  0  0  0  0  0  0  0
  1  2  1  0  0  0  0
  2  3  1  0  0  0  0
  3  4  1  0  0  0  0
  4  5  1  0  0  0  0
  5  6  1  0  0  0  0
  6  1  1  0  0  0  0
  4  7  2  0  0  0  0
  7  8  1  0  0  0  0
  8  9  1  0  0  0  0
  9 10  1  0  0  0  0
 10  5  1  0  0  0  0
  9 11  1  0  0  0  0
 11 12  1  0  0  0  0
 12 13  1  0  0  0  0
 13 14  1  0  0  0  0
 14 10  1  0  0  0  0
 11 15  1  0  0  0  0
 15 16  1  0  0  0  0
 16 17  1  0  0  0  0
 17 12  1  0  0  0  0
 17 18  1  0  0  0  0
 18 19  2  0  0  0  0
 18 20  1  0  0  0  0
 12 21  1  1  0  0  0
 11 22  1  1  0  0  0
  5 23  1  1  0  0  0
  2 24  1  1  0  0  0
 17 25  1  6  0  0  0
  9 26  1  1  0  0  0
 10 27  1  6  0  0  0
M  END
>  <cdx:fragmentId>
446

$$$$
