584765.cdx
  Mrv1902 05222410182D          

 12 12  0  0  0  0            999 V2000
    6.6145   -5.8595    0.0000 C   0  0  0  0  0  0  0  0  0  0  0  0
    5.9001   -6.2720    0.0000 C   0  0  0  0  0  0  0  0  0  0  0  0
    5.1856   -5.8595    0.0000 C   0  0  0  0  0  0  0  0  0  0  0  0
    6.6145   -5.0345    0.0000 O   0  0  0  0  0  0  0  0  0  0  0  0
    7.3290   -6.2720    0.0000 C   0  0  0  0  0  0  0  0  0  0  0  0
    8.0435   -5.8595    0.0000 C   0  0  0  0  0  0  0  0  0  0  0  0
    8.7580   -6.2720    0.0000 C   0  0  0  0  0  0  0  0  0  0  0  0
    8.7580   -7.0970    0.0000 C   0  0  0  0  0  0  0  0  0  0  0  0
    8.0435   -7.5095    0.0000 C   0  0  0  0  0  0  0  0  0  0  0  0
    7.3290   -7.0970    0.0000 C   0  0  0  0  0  0  0  0  0  0  0  0
    9.4724   -5.8595    0.0000 O   0  0  0  0  0  0  0  0  0  0  0  0
   10.1869   -6.2720    0.0000 C   0  0  0  0  0  0  0  0  0  0  0  0
  1  2  1  0  0  0  0
  2  3  1  0  0  0  0
  1  4  2  0  0  0  0
  5  6  1  0  0  0  0
  6  7  2  0  0  0  0
  7  8  1  0  0  0  0
  8  9  2  0  0  0  0
  9 10  1  0  0  0  0
  5 10  2  0  0  0  0
 11 12  1  0  0  0  0
  7 11  1  0  0  0  0
  1  5  1  0  0  0  0
M  END
>  <cdx:fragmentId>
4586

$$$$
