584750.cdx
  Mrv1902 05222410262D          

 20 22  0  0  0  0            999 V2000
   14.8954  -16.0467    0.0000 C   0  0  0  0  0  0  0  0  0  0  0  0
   15.5844  -15.6316    0.0000 C   0  0  0  0  0  0  0  0  0  0  0  0
   15.5794  -14.8272    0.0000 C   0  0  0  0  0  0  0  0  0  0  0  0
   14.8853  -14.4207    0.0000 C   0  0  0  0  0  0  0  0  0  0  0  0
   14.1810  -14.8092    0.0000 C   0  0  0  0  0  0  0  0  0  0  0  0
   13.4665  -15.2217    0.0000 C   0  0  0  0  0  0  0  0  0  0  0  0
   13.4665  -16.0467    0.0000 C   0  0  0  0  0  0  0  0  0  0  0  0
   14.1810  -16.4592    0.0000 C   0  0  0  0  0  0  0  0  0  0  0  0
   14.8954  -15.2217    0.0000 B   0  0  0  0  0  0  0  0  0  0  0  0
   15.4257  -14.5897    0.0000 O   0  0  0  0  0  0  0  0  0  0  0  0
   15.1436  -13.8144    0.0000 C   0  0  0  0  0  0  0  0  0  0  0  0
   15.6739  -13.1825    0.0000 C   0  0  0  0  0  0  0  0  0  0  0  0
   16.4863  -13.3257    0.0000 C   0  0  0  0  0  0  0  0  0  0  0  0
   17.0166  -12.6937    0.0000 C   0  0  0  0  0  0  0  0  0  0  0  0
   16.7345  -11.9185    0.0000 C   0  0  0  0  0  0  0  0  0  0  0  0
   15.9220  -11.7752    0.0000 C   0  0  0  0  0  0  0  0  0  0  0  0
   15.3917  -12.4072    0.0000 C   0  0  0  0  0  0  0  0  0  0  0  0
   14.3311  -13.6712    0.0000 O   0  0  0  0  0  0  0  0  0  0  0  0
   17.2648  -11.2865    0.0000 O   0  0  0  0  0  0  0  0  0  0  0  0
   16.9826  -10.5112    0.0000 C   0  0  0  0  0  0  0  0  0  0  0  0
  1  2  1  0  0  0  0
  2  3  1  0  0  0  0
  3  4  1  0  0  0  0
  4  5  1  0  0  0  0
  5  6  1  0  0  0  0
  6  7  1  0  0  0  0
  7  8  1  0  0  0  0
  1  8  1  0  0  0  0
  1  9  1  0  0  0  0
  9  5  1  0  0  0  0
 11 12  1  0  0  0  0
 12 13  1  0  0  0  0
 13 14  2  0  0  0  0
 14 15  1  0  0  0  0
 15 16  2  0  0  0  0
 16 17  1  0  0  0  0
 12 17  2  0  0  0  0
 11 18  2  0  0  0  0
 19 20  1  0  0  0  0
 15 19  1  0  0  0  0
 10 11  1  0  0  0  0
  9 10  1  0  0  0  0
M  END
>  <cdx:groupId>
4568

>  <cdx:fragmentId>
4529

$$$$
