584799.cdx
  Mrv1902 05222410182D          

 31 35  0  0  0  0            999 V2000
    8.5559  -11.1393    0.0000 H   0  0  0  0  0  0  0  0  0  0  0  0
    6.6918   -9.7188    0.0000 H   0  0  0  0  0  0  0  0  0  0  0  0
    7.8217   -7.4978    0.0000 C   0  0  0  0  0  0  0  0  0  0  0  0
   10.0585   -8.6922    0.0000 C   0  0  0  0  0  0  0  0  0  0  0  0
    8.8166  -10.5402    0.0000 C   0  0  0  0  0  0  0  0  0  0  0  0
    7.2984  -12.0194    0.0000 C   0  0  0  0  0  0  0  0  0  0  0  0
    7.9517   -8.3126    0.0000 C   0  0  0  0  0  0  0  0  0  0  0  0
    4.9850  -11.6423    0.0000 C   0  0  1  0  0  0  0  0  0  0  0  0
    9.1418   -7.7018    0.0000 C   0  0  1  0  0  0  0  0  0  0  0  0
    9.3188   -9.0635    0.0000 C   0  0  2  0  0  0  0  0  0  0  0  0
    6.5177   -9.9089    0.0000 C   0  0  0  0  0  0  0  0  0  0  0  0
    7.2420   -8.7427    0.0000 C   0  0  0  0  0  0  0  0  0  0  0  0
    4.9728  -10.7419    0.0000 C   0  0  0  0  0  0  0  0  0  0  0  0
    5.7742  -12.0758    0.0000 C   0  0  0  0  0  0  0  0  0  0  0  0
    8.0342  -11.5656    0.0000 C   0  0  0  0  0  0  0  0  0  0  0  0
    8.7720   -8.4392    0.0000 C   0  0  1  0  0  0  0  0  0  0  0  0
    6.9747   -9.5284    0.0000 C   0  0  0  0  0  0  0  0  0  0  0  0
    5.7500  -10.2870    0.0000 C   0  0  0  0  0  0  0  0  0  0  0  0
    6.5408  -11.6032    0.0000 C   0  0  0  0  0  0  0  0  0  0  0  0
    8.0026  -10.7017    0.0000 C   0  0  2  0  0  0  0  0  0  0  0  0
    7.2751  -10.3021    0.0000 C   0  0  1  0  0  0  0  0  0  0  0  0
    6.5290  -10.7387    0.0000 C   0  0  2  0  0  0  0  0  0  0  0  0
    9.2468  -11.2500    0.0000 O   0  0  0  0  0  0  0  0  0  0  0  0
    4.2736  -12.0697    0.0000 O   0  0  0  0  0  0  0  0  0  0  0  0
    8.5557   -7.1211    0.0000 O   0  0  0  0  0  0  0  0  0  0  0  0
    9.9518   -7.8715    0.0000 O   0  0  0  0  0  0  0  0  0  0  0  0
    9.3365   -9.8933    0.0000 O   0  0  0  0  0  0  0  0  0  0  0  0
   10.0333   -9.4760    0.0000 H   0  0  0  0  0  0  0  0  0  0  0  0
    8.3595   -7.7247    0.0000 H   0  0  0  0  0  0  0  0  0  0  0  0
    9.5543   -6.9873    0.0000 C   0  0  0  0  0  0  0  0  0  0  0  0
    8.7619  -11.9544    0.0000 O   0  0  0  0  0  0  0  0  0  0  0  0
  7  3  2  0  0  0  0
 10  4  1  0  0  0  0
 12  7  1  0  0  0  0
 13  8  1  0  0  0  0
 14  8  1  0  0  0  0
 15  6  1  0  0  0  0
 16  7  1  0  0  0  0
 16  9  1  0  0  0  0
 16 10  1  0  0  0  0
 17 12  1  0  0  0  0
 18 13  1  0  0  0  0
 19  6  2  0  0  0  0
 19 14  1  0  0  0  0
 20  1  1  1  0  0  0
 20  5  1  0  0  0  0
 20 15  1  0  0  0  0
 21  2  1  6  0  0  0
 21 17  1  0  0  0  0
 21 20  1  0  0  0  0
 22 11  1  1  0  0  0
 22 18  1  0  0  0  0
 22 19  1  0  0  0  0
 22 21  1  0  0  0  0
 23  5  2  0  0  0  0
  8 24  1  1  0  0  0
 25  3  1  0  0  0  0
 25  9  1  0  0  0  0
 26  4  1  0  0  0  0
 26  9  1  0  0  0  0
 27  5  1  0  0  0  0
 27 10  1  0  0  0  0
 10 28  1  6  0  0  0
 16 29  1  6  0  0  0
  9 30  1  6  0  0  0
 15 31  1  0  0  0  0
M  END
>  <cdx:fragmentId>
1

$$$$
