584793.cdx
  Mrv1902 05222410262D          

 41 46  0  0  0  0            999 V2000
    9.9542  -10.4813    0.0000 H   0  0  0  0  0  0  0  0  0  0  0  0
    8.0901   -9.0608    0.0000 H   0  0  0  0  0  0  0  0  0  0  0  0
    9.2200   -6.8398    0.0000 C   0  0  0  0  0  0  0  0  0  0  0  0
   11.4568   -8.0342    0.0000 C   0  0  0  0  0  0  0  0  0  0  0  0
   10.2149   -9.8822    0.0000 C   0  0  0  0  0  0  0  0  0  0  0  0
    8.6967  -11.3614    0.0000 C   0  0  0  0  0  0  0  0  0  0  0  0
    9.3500   -7.6545    0.0000 C   0  0  0  0  0  0  0  0  0  0  0  0
    6.3833  -10.9842    0.0000 C   0  0  1  0  0  0  0  0  0  0  0  0
   10.5400   -7.0437    0.0000 C   0  0  1  0  0  0  0  0  0  0  0  0
   10.7171   -8.4055    0.0000 C   0  0  2  0  0  0  0  0  0  0  0  0
    7.9160   -9.2509    0.0000 C   0  0  0  0  0  0  0  0  0  0  0  0
    8.6403   -8.0847    0.0000 C   0  0  0  0  0  0  0  0  0  0  0  0
    6.3711  -10.0838    0.0000 C   0  0  0  0  0  0  0  0  0  0  0  0
    7.1725  -11.4178    0.0000 C   0  0  0  0  0  0  0  0  0  0  0  0
    9.4325  -10.9076    0.0000 C   0  0  0  0  0  0  0  0  0  0  0  0
   10.1703   -7.7812    0.0000 C   0  0  1  0  0  0  0  0  0  0  0  0
    8.3730   -8.8704    0.0000 C   0  0  0  0  0  0  0  0  0  0  0  0
    7.1483   -9.6290    0.0000 C   0  0  0  0  0  0  0  0  0  0  0  0
    7.9390  -10.9452    0.0000 C   0  0  0  0  0  0  0  0  0  0  0  0
    9.4009  -10.0437    0.0000 C   0  0  2  0  0  0  0  0  0  0  0  0
    8.6734   -9.6441    0.0000 C   0  0  1  0  0  0  0  0  0  0  0  0
    7.9273  -10.0807    0.0000 C   0  0  2  0  0  0  0  0  0  0  0  0
   10.6451  -10.5920    0.0000 O   0  0  0  0  0  0  0  0  0  0  0  0
    5.6719  -11.4117    0.0000 O   0  0  0  0  0  0  0  0  0  0  0  0
    9.9539   -6.4631    0.0000 O   0  0  0  0  0  0  0  0  0  0  0  0
   11.3501   -7.2134    0.0000 O   0  0  0  0  0  0  0  0  0  0  0  0
   10.7348   -9.2353    0.0000 O   0  0  0  0  0  0  0  0  0  0  0  0
   11.4316   -8.8180    0.0000 H   0  0  0  0  0  0  0  0  0  0  0  0
    9.7578   -7.0667    0.0000 O   0  0  0  0  0  0  0  0  0  0  0  0
   10.9525   -6.3293    0.0000 C   0  0  0  0  0  0  0  0  0  0  0  0
    4.9503  -11.0117    0.0000 C   0  0  2  0  0  0  0  0  0  0  0  0
    4.9286  -10.1870    0.0000 O   0  0  0  0  0  0  0  0  0  0  0  0
    4.2035   -9.7934    0.0000 C   0  0  1  0  0  0  0  0  0  0  0  0
    3.5002  -10.2246    0.0000 C   0  0  2  0  0  0  0  0  0  0  0  0
    3.5002  -11.0493    0.0000 C   0  0  1  0  0  0  0  0  0  0  0  0
    4.2035  -11.4429    0.0000 C   0  0  1  0  0  0  0  0  0  0  0  0
    4.1818   -8.9687    0.0000 C   0  0  0  0  0  0  0  0  0  0  0  0
    2.7885  -11.4666    0.0000 O   0  0  0  0  0  0  0  0  0  0  0  0
    2.0713  -11.0589    0.0000 C   0  0  0  0  0  0  0  0  0  0  0  0
    4.2091  -12.2679    0.0000 O   0  0  0  0  0  0  0  0  0  0  0  0
    2.7803   -9.8215    0.0000 O   0  0  0  0  0  0  0  0  0  0  0  0
  7  3  2  0  0  0  0
 10  4  1  0  0  0  0
 12  7  1  0  0  0  0
 13  8  1  0  0  0  0
 14  8  1  0  0  0  0
 15  6  1  0  0  0  0
 16  7  1  0  0  0  0
 16  9  1  0  0  0  0
 16 10  1  0  0  0  0
 17 12  1  0  0  0  0
 18 13  1  0  0  0  0
 19  6  2  0  0  0  0
 19 14  1  0  0  0  0
 20  1  1  1  0  0  0
 20  5  1  0  0  0  0
 20 15  1  0  0  0  0
 21  2  1  6  0  0  0
 21 17  1  0  0  0  0
 21 20  1  0  0  0  0
 22 11  1  1  0  0  0
 22 18  1  0  0  0  0
 22 19  1  0  0  0  0
 22 21  1  0  0  0  0
 23  5  2  0  0  0  0
  8 24  1  1  0  0  0
 25  3  1  0  0  0  0
 25  9  1  0  0  0  0
 26  4  1  0  0  0  0
 26  9  1  0  0  0  0
 27  5  1  0  0  0  0
 27 10  1  0  0  0  0
 10 28  1  6  0  0  0
 16 29  1  6  0  0  0
  9 30  1  6  0  0  0
 31 24  1  1  0  0  0
 31 32  1  0  0  0  0
 32 33  1  0  0  0  0
 33 34  1  0  0  0  0
 34 35  1  0  0  0  0
 35 36  1  0  0  0  0
 36 31  1  0  0  0  0
 33 37  1  1  0  0  0
 35 38  1  1  0  0  0
 38 39  1  0  0  0  0
 36 40  1  6  0  0  0
 34 41  1  6  0  0  0
M  END
>  <cdx:fragmentId>
1

$$$$
