584854.cdx
  Mrv1902 05222410212D          

 12 14  0  0  0  0            999 V2000
    7.7801   -6.2360    0.0000 C   0  0  0  0  0  0  0  0  0  0  0  0
    7.3094   -6.9254    0.0000 C   0  0  0  0  0  0  0  0  0  0  0  0
    7.3355   -8.1089    0.0000 C   0  0  0  0  0  0  0  0  0  0  0  0
    6.4819   -8.1430    0.0000 C   0  0  0  0  0  0  0  0  0  0  0  0
    7.0548   -7.4672    0.0000 C   0  0  0  0  0  0  0  0  0  0  0  0
    7.7657   -7.8859    0.0000 C   0  0  0  0  0  0  0  0  0  0  0  0
    8.4837   -7.4797    0.0000 C   0  0  0  0  0  0  0  0  0  0  0  0
    8.4910   -6.6547    0.0000 C   0  0  0  0  0  0  0  0  0  0  0  0
    8.1535   -8.4039    0.0000 C   0  0  0  0  0  0  0  0  0  0  0  0
    7.0621   -6.6422    0.0000 C   0  0  0  0  0  0  0  0  0  0  0  0
    7.7587   -5.4234    0.0000 O   0  0  0  0  0  0  0  0  0  0  0  0
    8.4831   -5.0285    0.0000 C   0  0  0  0  0  0  0  0  0  0  0  0
  1  2  1  0  0  0  0
  2  3  1  0  0  0  0
  3  4  1  0  0  0  0
  4  5  1  0  0  0  0
  5  6  1  0  0  0  0
  6  7  1  0  0  0  0
  7  8  1  0  0  0  0
  1  8  1  0  0  0  0
  7  9  1  0  0  0  0
  3  9  1  0  0  0  0
  5 10  1  0  0  0  0
  1 10  1  0  0  0  0
 11 12  1  0  0  0  0
  1 11  1  0  0  0  0
M  END
>  <cdx:fragmentId>
4617

$$$$
