585005.cdx
  Mrv1902 05222410252D          

 15 16  0  0  0  0            999 V2000
   16.9990  -14.3734    0.0000 C   0  0  0  0  0  0  0  0  0  0  0  0
   17.4839  -13.7060    0.0000 C   0  0  0  0  0  0  0  0  0  0  0  0
   16.9990  -13.0385    0.0000 C   0  0  0  0  0  0  0  0  0  0  0  0
   16.2144  -13.2935    0.0000 C   0  0  0  0  0  0  0  0  0  0  0  0
   15.5694  -12.7791    0.0000 C   0  0  0  0  0  0  0  0  0  0  0  0
   14.7651  -12.9627    0.0000 C   0  0  0  0  0  0  0  0  0  0  0  0
   14.4071  -13.7060    0.0000 C   0  0  0  0  0  0  0  0  0  0  0  0
   14.7651  -14.4493    0.0000 C   0  0  0  0  0  0  0  0  0  0  0  0
   15.5694  -14.6328    0.0000 C   0  0  0  0  0  0  0  0  0  0  0  0
   16.2144  -14.1185    0.0000 C   0  0  0  0  0  0  0  0  0  0  0  0
   14.5521  -11.5497    0.0000 C   0  0  0  0  0  0  0  0  0  0  0  0
   14.2507  -12.3177    0.0000 C   0  0  0  0  0  0  0  0  0  0  0  0
   13.4349  -12.4406    0.0000 C   0  0  0  0  0  0  0  0  0  0  0  0
   15.7530  -15.4372    0.0000 C   0  0  0  0  0  0  0  0  0  0  0  0
   17.2539  -12.2539    0.0000 C   0  0  0  0  0  0  0  0  0  0  0  0
  1  2  1  0  0  0  0
  2  3  1  0  0  0  0
  3  4  2  0  0  0  0
  4  5  1  0  0  0  0
  5  6  1  0  0  0  0
  6  7  1  0  0  0  0
  7  8  1  0  0  0  0
  8  9  1  0  0  0  0
  9 10  2  0  0  0  0
  1 10  1  0  0  0  0
  4 10  1  0  0  0  0
 11 12  1  0  0  0  0
 12 13  1  0  0  0  0
  6 12  1  0  0  0  0
  9 14  1  0  0  0  0
  3 15  1  0  0  0  0
M  END
>  <cdx:groupId>
4738

>  <cdx:fragmentId>
4695

$$$$
