585177.cdx
  Mrv1902 05222410242D          

 18 20  0  0  0  0            999 V2000
   14.1704  -13.4819    0.0000 C   0  0  0  0  0  0  0  0  0  0  0  0
   13.4559  -13.8944    0.0000 C   0  0  0  0  0  0  0  0  0  0  0  0
   14.1704  -12.6569    0.0000 O   0  0  0  0  0  0  0  0  0  0  0  0
   14.8849  -13.8944    0.0000 O   0  0  0  0  0  0  0  0  0  0  0  0
   13.4559  -14.7194    0.0000 Cl  0  0  0  0  0  0  0  0  0  0  0  0
   12.7415  -13.4819    0.0000 Cl  0  0  0  0  0  0  0  0  0  0  0  0
   15.5993  -13.4819    0.0000 C   0  0  0  0  0  0  0  0  0  0  0  0
   16.3138  -13.8944    0.0000 C   0  0  0  0  0  0  0  0  0  0  0  0
   17.0283  -13.4819    0.0000 C   0  0  0  0  0  0  0  0  0  0  0  0
   17.4370  -14.1748    0.0000 C   0  0  0  0  0  0  0  0  0  0  0  0
   18.2413  -14.1773    0.0000 C   0  0  0  0  0  0  0  0  0  0  0  0
   18.6543  -13.4870    0.0000 C   0  0  0  0  0  0  0  0  0  0  0  0
   18.2724  -12.7790    0.0000 C   0  0  0  0  0  0  0  0  0  0  0  0
   17.8666  -12.0608    0.0000 C   0  0  0  0  0  0  0  0  0  0  0  0
   17.0416  -12.0531    0.0000 C   0  0  0  0  0  0  0  0  0  0  0  0
   16.6225  -12.7637    0.0000 C   0  0  0  0  0  0  0  0  0  0  0  0
   17.9865  -12.9198    0.0000 C   0  0  0  0  0  0  0  0  0  0  0  0
   17.8533  -13.4896    0.0000 C   0  0  0  0  0  0  0  0  0  0  0  0
  1  2  1  0  0  0  0
  1  3  2  0  0  0  0
  1  4  1  0  0  0  0
  2  5  1  0  0  0  0
  2  6  1  0  0  0  0
  7  8  1  0  0  0  0
  9 10  1  0  0  0  0
 10 11  1  0  0  0  0
 11 12  1  0  0  0  0
 12 13  1  0  0  0  0
 13 14  1  0  0  0  0
 14 15  1  0  0  0  0
 15 16  1  0  0  0  0
  9 16  1  0  0  0  0
 15 17  1  0  0  0  0
 11 17  1  0  0  0  0
 13 18  1  0  0  0  0
  9 18  1  0  0  0  0
  8  9  1  0  0  0  0
  4  7  1  0  0  0  0
M  END
>  <cdx:groupId>
4799

>  <cdx:fragmentId>
4762

$$$$
