585258.cdx
  Mrv1902 05222410282D          

 16 17  0  0  0  0            999 V2000
   15.1072  -14.2069    0.0000 C   0  0  0  0  0  0  0  0  0  0  0  0
   14.3928  -13.7944    0.0000 C   0  0  0  0  0  0  0  0  0  0  0  0
   14.3928  -12.9694    0.0000 C   0  0  0  0  0  0  0  0  0  0  0  0
   15.1072  -12.5569    0.0000 C   0  0  0  0  0  0  0  0  0  0  0  0
   15.8217  -12.9694    0.0000 C   0  0  0  0  0  0  0  0  0  0  0  0
   16.5362  -12.5569    0.0000 C   0  0  0  0  0  0  0  0  0  0  0  0
   17.2506  -12.9694    0.0000 C   0  0  0  0  0  0  0  0  0  0  0  0
   17.2506  -13.7944    0.0000 C   0  0  0  0  0  0  0  0  0  0  0  0
   16.5362  -14.2069    0.0000 C   0  0  0  0  0  0  0  0  0  0  0  0
   15.8217  -13.7944    0.0000 C   0  0  0  0  0  0  0  0  0  0  0  0
   15.5197  -14.9214    0.0000 O   0  0  0  0  0  0  0  0  0  0  0  0
   15.8217  -14.6194    0.0000 C   0  0  0  0  0  0  0  0  0  0  0  0
   16.1237  -11.8424    0.0000 C   0  0  0  0  0  0  0  0  0  0  0  0
   16.9487  -11.8424    0.0000 C   0  0  0  0  0  0  0  0  0  0  0  0
   13.6783  -14.2069    0.0000 C   0  0  0  0  0  0  0  0  0  0  0  0
   14.6947  -14.9214    0.0000 C   0  0  0  0  0  0  0  0  0  0  0  0
  1  2  1  0  0  0  0
  2  3  1  0  0  0  0
  3  4  1  0  0  0  0
  4  5  2  0  0  0  0
  5  6  1  0  0  0  0
  6  7  1  0  0  0  0
  7  8  1  0  0  0  0
  8  9  1  0  0  0  0
  9 10  1  0  0  0  0
  1 10  1  0  0  0  0
  5 10  1  0  0  0  0
  1 11  1  0  0  0  0
 10 12  1  0  0  0  0
  6 13  1  0  0  0  0
  6 14  1  0  0  0  0
  2 15  1  0  0  0  0
  1 16  1  0  0  0  0
M  END
>  <cdx:groupId>
4852

>  <cdx:fragmentId>
4806

$$$$
