585323.cdx
  Mrv1902 05222410192D          

 11 11  0  0  0  0            999 V2000
   15.7617  -12.8613    0.0000 C   0  0  0  0  0  0  0  0  0  0  0  0
   15.0472  -13.2738    0.0000 C   0  0  0  0  0  0  0  0  0  0  0  0
   14.3328  -12.8613    0.0000 C   0  0  0  0  0  0  0  0  0  0  0  0
   13.6183  -13.2738    0.0000 C   0  0  0  0  0  0  0  0  0  0  0  0
   13.6183  -14.0988    0.0000 C   0  0  0  0  0  0  0  0  0  0  0  0
   14.3328  -14.5113    0.0000 N   0  0  0  0  0  0  0  0  0  0  0  0
   15.0472  -14.0988    0.0000 C   0  0  0  0  0  0  0  0  0  0  0  0
   15.7617  -12.0363    0.0000 O   0  0  0  0  0  0  0  0  0  0  0  0
   16.4762  -13.2738    0.0000 O   0  0  0  0  0  0  0  0  0  0  0  0
   16.4762  -14.0988    0.0000 N   0  0  0  0  0  0  0  0  0  0  0  0
   15.7617  -14.5113    0.0000 N   0  0  0  0  0  0  0  0  0  0  0  0
  1  2  1  0  0  0  0
  2  3  1  0  0  0  0
  3  4  2  0  0  0  0
  4  5  1  0  0  0  0
  5  6  2  0  0  0  0
  6  7  1  0  0  0  0
  2  7  2  0  0  0  0
  1  8  2  0  0  0  0
  1  9  1  0  0  0  0
 10 11  1  0  0  0  0
  7 11  1  0  0  0  0
M  END
>  <cdx:groupId>
4889

>  <cdx:fragmentId>
4859

$$$$
