585521.cdx
  Mrv1902 05222410192D          

 17 19  0  0  0  0            999 V2000
    5.5846   -7.8856    0.0000 C   0  0  0  0  0  0  0  0  0  0  0  0
    5.5846   -8.7106    0.0000 C   0  0  0  0  0  0  0  0  0  0  0  0
    6.2991   -9.1231    0.0000 C   0  0  0  0  0  0  0  0  0  0  0  0
    7.0135   -8.7106    0.0000 C   0  0  0  0  0  0  0  0  0  0  0  0
    7.7280   -9.1231    0.0000 C   0  0  0  0  0  0  0  0  0  0  0  0
    8.4425   -8.7106    0.0000 C   0  0  0  0  0  0  0  0  0  0  0  0
    8.4425   -7.8856    0.0000 C   0  0  0  0  0  0  0  0  0  0  0  0
    7.7280   -7.4731    0.0000 C   0  0  0  0  0  0  0  0  0  0  0  0
    7.0135   -7.8856    0.0000 C   0  0  0  0  0  0  0  0  0  0  0  0
    6.2991   -7.4731    0.0000 O   0  0  0  0  0  0  0  0  0  0  0  0
    9.2271   -7.6307    0.0000 O   0  0  0  0  0  0  0  0  0  0  0  0
    9.2271   -8.9656    0.0000 C   0  0  0  0  0  0  0  0  0  0  0  0
    9.7120   -8.2981    0.0000 C   0  0  0  0  0  0  0  0  0  0  0  0
    7.7280   -9.9481    0.0000 C   0  0  0  0  0  0  0  0  0  0  0  0
    8.4425  -10.3606    0.0000 O   0  0  0  0  0  0  0  0  0  0  0  0
    4.8701   -7.4731    0.0000 O   0  0  0  0  0  0  0  0  0  0  0  0
    7.7280   -6.6481    0.0000 O   0  0  0  0  0  0  0  0  0  0  0  0
  1  2  1  0  0  0  0
  2  3  2  0  0  0  0
  3  4  1  0  0  0  0
  4  5  2  0  0  0  0
  5  6  1  0  0  0  0
  6  7  2  0  0  0  0
  7  8  1  0  0  0  0
  8  9  2  0  0  0  0
  4  9  1  0  0  0  0
  9 10  1  0  0  0  0
  1 10  1  0  0  0  0
 12 13  2  0  0  0  0
 11 13  1  0  0  0  0
 12  6  1  0  0  0  0
 11  7  1  0  0  0  0
 14 15  2  0  0  0  0
  5 14  1  0  0  0  0
  1 16  2  0  0  0  0
  8 17  1  0  0  0  0
M  END
>  <cdx:fragmentId>
55363

$$$$
