585767.cdx
  Mrv1902 05222410232D          

  6  5  0  0  0  0            999 V2000
    8.2088   -7.7412    0.0000 C   0  0  0  0  0  0  0  0  0  0  0  0
    5.3510   -7.7412    0.0000 O   0  0  0  0  0  0  0  0  0  0  0  0
    8.9233   -7.3287    0.0000 C   0  0  0  0  0  0  0  0  0  0  0  0
    7.4944   -7.3287    0.0000 C   0  0  0  0  0  0  0  0  0  0  0  0
    6.7799   -7.7412    0.0000 C   0  0  0  0  0  0  0  0  0  0  0  0
    6.0654   -7.3287    0.0000 C   0  0  0  0  0  0  0  0  0  0  0  0
  6  2  2  0  0  0  0
  4  1  2  0  0  0  0
  5  4  1  0  0  0  0
  6  5  1  0  0  0  0
  1  3  1  0  0  0  0
M  END
>  <cdx:fragmentId>
42477

$$$$
