5857.cdx
  Mrv1902 05222410262D          

 27 29  0  0  0  0            999 V2000
    8.0937   -4.4412    0.0000 C   0  0  0  0  0  0  0  0  0  0  0  0
    8.0937   -5.2662    0.0000 C   0  0  0  0  0  0  0  0  0  0  0  0
    7.3792   -5.6787    0.0000 C   0  0  0  0  0  0  0  0  0  0  0  0
    7.3792   -6.5037    0.0000 O   0  0  0  0  0  0  0  0  0  0  0  0
    6.6647   -5.2662    0.0000 C   0  0  0  0  0  0  0  0  0  0  0  0
    5.9503   -5.6787    0.0000 C   0  0  0  0  0  0  0  0  0  0  0  0
    5.2358   -5.2662    0.0000 C   0  0  0  0  0  0  0  0  0  0  0  0
    5.2358   -4.4412    0.0000 C   0  0  0  0  0  0  0  0  0  0  0  0
    5.9503   -4.0287    0.0000 C   0  0  0  0  0  0  0  0  0  0  0  0
    6.6647   -4.4412    0.0000 C   0  0  0  0  0  0  0  0  0  0  0  0
    7.3792   -4.0287    0.0000 O   0  0  0  0  0  0  0  0  0  0  0  0
    5.9503   -3.2037    0.0000 O   0  0  0  0  0  0  0  0  0  0  0  0
    5.2358   -2.7912    0.0000 C   0  0  0  0  0  0  0  0  0  0  0  0
    4.5213   -4.0287    0.0000 O   0  0  0  0  0  0  0  0  0  0  0  0
    3.8068   -4.4412    0.0000 C   0  0  0  0  0  0  0  0  0  0  0  0
    4.5213   -5.6787    0.0000 O   0  0  0  0  0  0  0  0  0  0  0  0
    3.8068   -5.2662    0.0000 C   0  0  0  0  0  0  0  0  0  0  0  0
    5.9503   -6.5037    0.0000 O   0  0  0  0  0  0  0  0  0  0  0  0
    8.0937   -2.7912    0.0000 O   0  0  0  0  0  0  0  0  0  0  0  0
    8.8081   -5.6787    0.0000 C   0  0  0  0  0  0  0  0  0  0  0  0
    9.5226   -5.2662    0.0000 O   0  0  0  0  0  0  0  0  0  0  0  0
    9.5226   -4.4412    0.0000 C   0  0  0  0  0  0  0  0  0  0  0  0
   10.2371   -4.0287    0.0000 C   0  0  0  0  0  0  0  0  0  0  0  0
   10.2371   -3.2037    0.0000 C   0  0  0  0  0  0  0  0  0  0  0  0
    9.5226   -2.7912    0.0000 C   0  0  0  0  0  0  0  0  0  0  0  0
    8.8081   -3.2037    0.0000 C   0  0  0  0  0  0  0  0  0  0  0  0
    8.8081   -4.0287    0.0000 C   0  0  0  0  0  0  0  0  0  0  0  0
 26 19  1  0  0  0  0
 22 21  1  0  0  0  0
 21 20  1  0  0  0  0
 27 22  2  0  0  0  0
 23 22  1  0  0  0  0
 24 23  2  0  0  0  0
 25 24  1  0  0  0  0
 26 25  2  0  0  0  0
 27 26  1  0  0  0  0
  1  2  2  0  0  0  0
  2  3  1  0  0  0  0
  3  4  2  0  0  0  0
  3  5  1  0  0  0  0
  5  6  1  0  0  0  0
  6  7  2  0  0  0  0
  7  8  1  0  0  0  0
  8  9  2  0  0  0  0
  9 10  1  0  0  0  0
  5 10  2  0  0  0  0
 10 11  1  0  0  0  0
  1 11  1  0  0  0  0
  1 27  1  0  0  0  0
 12 13  1  0  0  0  0
  9 12  1  0  0  0  0
 14 15  1  0  0  0  0
  8 14  1  0  0  0  0
 16 17  1  0  0  0  0
  7 16  1  0  0  0  0
  6 18  1  0  0  0  0
M  END
>  <cdx:fragmentId>
4416

$$$$
