586.cdx
  Mrv1902 05222410252D          

  9  8  0  0  0  0            999 V2000
    8.1817   -4.8323    0.0000 C   0  0  0  0  0  0  0  0  0  0  0  0
    7.4673   -4.4198    0.0000 C   0  0  0  0  0  0  0  0  0  0  0  0
    8.1817   -5.6573    0.0000 O   0  0  0  0  0  0  0  0  0  0  0  0
    8.8962   -4.4198    0.0000 O   0  0  0  0  0  0  0  0  0  0  0  0
    6.7528   -4.8323    0.0000 N   0  0  0  0  0  0  0  0  0  0  0  0
    6.7528   -5.6573    0.0000 C   0  0  0  0  0  0  0  0  0  0  0  0
    6.0383   -4.4198    0.0000 C   0  0  0  0  0  0  0  0  0  0  0  0
    5.3238   -4.8323    0.0000 N   0  0  0  0  0  0  0  0  0  0  0  0
    6.0383   -3.5948    0.0000 N   0  0  0  0  0  0  0  0  0  0  0  0
  1  2  1  0  0  0  0
  1  3  2  0  0  0  0
  1  4  1  0  0  0  0
  5  6  1  0  0  0  0
  7  8  1  0  0  0  0
  7  9  2  0  0  0  0
  5  7  1  0  0  0  0
  2  5  1  0  0  0  0
M  END
>  <cdx:groupId>
28

>  <cdx:fragmentId>
17

$$$$
