586387.cdx
  Mrv1902 05222410262D          

 22 24  0  0  0  0            999 V2000
   15.7830  -13.7161    0.0000 C   0  0  0  0  0  0  0  0  0  0  0  0
   15.7830  -12.8911    0.0000 C   0  0  0  0  0  0  0  0  0  0  0  0
   15.0686  -12.4786    0.0000 C   0  0  0  0  0  0  0  0  0  0  0  0
   14.3541  -12.8911    0.0000 C   0  0  0  0  0  0  0  0  0  0  0  0
   13.6396  -12.4786    0.0000 C   0  0  0  0  0  0  0  0  0  0  0  0
   12.9252  -12.8911    0.0000 C   0  0  0  0  0  0  0  0  0  0  0  0
   12.9252  -13.7161    0.0000 C   0  0  0  0  0  0  0  0  0  0  0  0
   13.6396  -14.1286    0.0000 C   0  0  0  0  0  0  0  0  0  0  0  0
   14.3541  -13.7161    0.0000 C   0  0  0  0  0  0  0  0  0  0  0  0
   15.0686  -14.1286    0.0000 O   0  0  0  0  0  0  0  0  0  0  0  0
   15.0686  -11.6536    0.0000 O   0  0  0  0  0  0  0  0  0  0  0  0
   16.4975  -14.1286    0.0000 C   0  0  0  0  0  0  0  0  0  0  0  0
   17.2120  -13.7161    0.0000 C   0  0  0  0  0  0  0  0  0  0  0  0
   17.9265  -14.1286    0.0000 C   0  0  0  0  0  0  0  0  0  0  0  0
   17.9265  -14.9536    0.0000 C   0  0  0  0  0  0  0  0  0  0  0  0
   17.2120  -15.3661    0.0000 C   0  0  0  0  0  0  0  0  0  0  0  0
   16.4975  -14.9536    0.0000 C   0  0  0  0  0  0  0  0  0  0  0  0
   18.6409  -15.3661    0.0000 O   0  0  0  0  0  0  0  0  0  0  0  0
   19.3554  -14.9536    0.0000 C   0  0  0  0  0  0  0  0  0  0  0  0
   12.2107  -14.1286    0.0000 O   0  0  0  0  0  0  0  0  0  0  0  0
   13.6396  -11.6536    0.0000 O   0  0  0  0  0  0  0  0  0  0  0  0
   16.4975  -12.4786    0.0000 O   0  0  0  0  0  0  0  0  0  0  0  0
  1  2  1  0  0  0  0
  2  3  1  0  0  0  0
  3  4  1  0  0  0  0
  4  5  1  0  0  0  0
  5  6  2  0  0  0  0
  6  7  1  0  0  0  0
  7  8  2  0  0  0  0
  8  9  1  0  0  0  0
  4  9  2  0  0  0  0
  9 10  1  0  0  0  0
  1 10  1  0  0  0  0
  3 11  2  0  0  0  0
 12 13  1  0  0  0  0
 13 14  2  0  0  0  0
 14 15  1  0  0  0  0
 15 16  2  0  0  0  0
 16 17  1  0  0  0  0
 12 17  2  0  0  0  0
 18 19  1  0  0  0  0
 15 18  1  0  0  0  0
  1 12  1  0  0  0  0
  7 20  1  0  0  0  0
  5 21  1  0  0  0  0
  2 22  1  0  0  0  0
M  END
>  <cdx:groupId>
4962

>  <cdx:fragmentId>
4897

$$$$
