101586381.cdx
  Mrv1902 05222410272D          

 44 51  0  0  0  0            999 V2000
    8.4379   -7.6474    0.0000 C   0  0  2  0  0  0  0  0  0  0  0  0
    9.2225   -7.3925    0.0000 C   0  0  1  0  0  0  0  0  0  0  0  0
    9.7074   -8.0599    0.0000 O   0  0  0  0  0  0  0  0  0  0  0  0
    9.2225   -8.7274    0.0000 C   0  0  0  0  0  0  0  0  0  0  0  0
    8.4379   -8.4724    0.0000 C   0  0  1  0  0  0  0  0  0  0  0  0
    7.8545   -9.0558    0.0000 C   0  0  0  0  0  0  0  0  0  0  0  0
    7.0295   -9.0558    0.0000 C   0  0  0  0  0  0  0  0  0  0  0  0
    6.4461   -8.4724    0.0000 C   0  0  2  0  0  0  0  0  0  0  0  0
    5.7317   -8.8849    0.0000 C   0  0  1  0  0  0  0  0  0  0  0  0
    5.7317   -9.7099    0.0000 C   0  0  0  0  0  0  0  0  0  0  0  0
    5.0172  -10.1224    0.0000 C   0  0  0  0  0  0  0  0  0  0  0  0
    4.3027   -9.7099    0.0000 C   0  0  0  0  0  0  0  0  0  0  0  0
    4.3027   -8.8849    0.0000 C   0  0  0  0  0  0  0  0  0  0  0  0
    5.0172   -8.4724    0.0000 C   0  0  2  0  0  0  0  0  0  0  0  0
    5.0172   -7.6474    0.0000 C   0  0  0  0  0  0  0  0  0  0  0  0
    5.7317   -7.2349    0.0000 C   0  0  2  0  0  0  0  0  0  0  0  0
    6.4461   -7.6474    0.0000 C   0  0  1  0  0  0  0  0  0  0  0  0
    7.0295   -7.0641    0.0000 C   0  0  1  0  0  0  0  0  0  0  0  0
    6.5603   -5.9103    0.0000 O   0  0  0  0  0  0  0  0  0  0  0  0
    7.1365   -5.3197    0.0000 C   0  0  0  0  0  0  0  0  0  0  0  0
    7.9575   -5.4020    0.0000 C   0  0  2  0  0  0  0  0  0  0  0  0
    8.9467   -4.9840    0.0000 C   0  0  0  0  0  0  0  0  0  0  0  0
    9.8013   -5.6319    0.0000 O   0  0  0  0  0  0  0  0  0  0  0  0
    9.6641   -6.6956    0.0000 C   0  0  2  0  0  0  0  0  0  0  0  0
    9.2243   -5.9976    0.0000 C   0  0  0  0  0  0  0  0  0  0  0  0
    8.4051   -6.0951    0.0000 C   0  0  1  0  0  0  0  0  0  0  0  0
    8.1422   -6.8772    0.0000 C   0  0  1  0  0  0  0  0  0  0  0  0
    7.8545   -7.0641    0.0000 O   0  0  0  0  0  0  0  0  0  0  0  0
    7.3668   -7.1593    0.0000 C   0  0  0  0  0  0  0  0  0  0  0  0
    9.4774   -9.5120    0.0000 O   0  0  0  0  0  0  0  0  0  0  0  0
    6.4461  -10.1224    0.0000 O   0  0  0  0  0  0  0  0  0  0  0  0
    9.0491   -4.1654    0.0000 O   0  0  0  0  0  0  0  0  0  0  0  0
    7.3668   -7.9843    0.0000 O   0  0  0  0  0  0  0  0  0  0  0  0
    8.7145   -5.5593    0.0000 C   0  0  0  0  0  0  0  0  0  0  0  0
    5.7317   -8.0599    0.0000 C   0  0  0  0  0  0  0  0  0  0  0  0
   10.0475   -7.3925    0.0000 C   0  0  0  0  0  0  0  0  0  0  0  0
    5.7317   -6.4099    0.0000 O   0  0  0  0  0  0  0  0  0  0  0  0
    4.3027   -8.0599    0.0000 O   0  0  0  0  0  0  0  0  0  0  0  0
    8.6305   -9.2746    0.0000 O   0  0  0  0  0  0  0  0  0  0  0  0
    6.4461   -9.2974    0.0000 H   0  0  0  0  0  0  0  0  0  0  0  0
    6.3384   -6.8295    0.0000 H   0  0  0  0  0  0  0  0  0  0  0  0
    7.8343   -4.5862    0.0000 H   0  0  0  0  0  0  0  0  0  0  0  0
   10.4400   -6.9759    0.0000 H   0  0  0  0  0  0  0  0  0  0  0  0
    7.5517   -6.3011    0.0000 H   0  0  0  0  0  0  0  0  0  0  0  0
  1  2  1  0  0  0  0
  2  3  1  0  0  0  0
  3  4  1  0  0  0  0
  4  5  1  0  0  0  0
  5  6  1  0  0  0  0
  6  7  1  0  0  0  0
  7  8  1  0  0  0  0
  8  9  1  0  0  0  0
  9 10  1  0  0  0  0
 10 11  1  0  0  0  0
 11 12  2  0  0  0  0
 12 13  1  0  0  0  0
 13 14  1  0  0  0  0
 14 15  1  0  0  0  0
 15 16  1  0  0  0  0
 16 17  1  0  0  0  0
 17 18  1  0  0  0  0
 18 19  1  0  0  0  0
 19 20  1  0  0  0  0
 20 21  1  0  0  0  0
 21 22  1  0  0  0  0
 22 23  1  0  0  0  0
 23 24  1  0  0  0  0
 24 25  1  6  0  0  0
 25 26  1  0  0  0  0
 26 27  1  0  0  0  0
  1 27  1  0  0  0  0
  1 28  1  1  0  0  0
 18 28  1  1  0  0  0
 27 29  1  0  0  0  0
 29 18  1  0  0  0  0
 21 26  1  0  0  0  0
  2 24  1  0  0  0  0
  8 17  1  0  0  0  0
  9 14  1  0  0  0  0
  1  5  1  0  0  0  0
  4 30  2  0  0  0  0
 10 31  2  0  0  0  0
 22 32  2  0  0  0  0
 29 33  2  0  0  0  0
 26 34  1  6  0  0  0
  9 35  1  6  0  0  0
  2 36  1  1  0  0  0
 16 37  1  1  0  0  0
 14 38  1  1  0  0  0
  5 39  1  6  0  0  0
  8 40  1  1  0  0  0
 17 41  1  6  0  0  0
 21 42  1  1  0  0  0
 24 43  1  0  0  0  0
 27 44  1  1  0  0  0
M  END
>  <cdx:groupId>
250857

>  <cdx:fragmentId>
250721

$$$$
