586438.cdx
  Mrv1902 05222410192D          

 13 13  0  0  0  0            999 V2000
   14.3970  -14.3349    0.0000 C   0  0  0  0  0  0  0  0  0  0  0  0
   15.1115  -13.9224    0.0000 C   0  0  0  0  0  0  0  0  0  0  0  0
   15.1115  -13.0974    0.0000 C   0  0  0  0  0  0  0  0  0  0  0  0
   15.8260  -12.6849    0.0000 C   0  0  0  0  0  0  0  0  0  0  0  0
   16.5405  -13.0974    0.0000 C   0  0  0  0  0  0  0  0  0  0  0  0
   16.5405  -13.9224    0.0000 C   0  0  0  0  0  0  0  0  0  0  0  0
   15.8260  -14.3349    0.0000 C   0  0  0  0  0  0  0  0  0  0  0  0
   13.6826  -13.9224    0.0000 O   0  0  0  0  0  0  0  0  0  0  0  0
   17.2549  -14.3349    0.0000 O   0  0  0  0  0  0  0  0  0  0  0  0
   17.9694  -13.9224    0.0000 C   0  0  0  0  0  0  0  0  0  0  0  0
   14.3970  -12.6849    0.0000 O   0  0  0  0  0  0  0  0  0  0  0  0
   13.6826  -13.0974    0.0000 C   0  0  0  0  0  0  0  0  0  0  0  0
   12.9681  -12.6849    0.0000 C   0  0  0  0  0  0  0  0  0  0  0  0
  1  2  1  0  0  0  0
  2  3  1  0  0  0  0
  3  4  2  0  0  0  0
  4  5  1  0  0  0  0
  5  6  2  0  0  0  0
  6  7  1  0  0  0  0
  2  7  2  0  0  0  0
  1  8  2  0  0  0  0
  9 10  1  0  0  0  0
  6  9  1  0  0  0  0
 12 13  1  0  0  0  0
 11 12  1  0  0  0  0
  3 11  1  0  0  0  0
M  END
>  <cdx:groupId>
5006

>  <cdx:fragmentId>
4970

$$$$
