71586808.cdx
  Mrv1902 05222410192D          

 16 17  0  0  0  0            999 V2000
    8.2898  -16.0655    0.0000 C   0  0  0  0  0  0  0  0  0  0  0  0
    9.0042  -15.6530    0.0000 C   0  0  0  0  0  0  0  0  0  0  0  0
    9.0042  -14.8280    0.0000 C   0  0  0  0  0  0  0  0  0  0  0  0
    8.2898  -14.4155    0.0000 C   0  0  2  0  0  0  0  0  0  0  0  0
    7.5753  -14.8280    0.0000 C   0  0  2  0  0  0  0  0  0  0  0  0
    6.8608  -14.4155    0.0000 C   0  0  0  0  0  0  0  0  0  0  0  0
    6.1464  -14.8280    0.0000 C   0  0  1  0  0  0  0  0  0  0  0  0
    6.1464  -15.6530    0.0000 C   0  0  0  0  0  0  0  0  0  0  0  0
    6.8608  -16.0655    0.0000 C   0  0  0  0  0  0  0  0  0  0  0  0
    7.5753  -15.6530    0.0000 C   0  0  0  0  0  0  0  0  0  0  0  0
    9.7187  -16.0655    0.0000 O   0  0  0  0  0  0  0  0  0  0  0  0
    5.4319  -13.5905    0.0000 C   0  0  0  0  0  0  0  0  0  0  0  0
    5.4319  -14.4155    0.0000 C   0  0  0  0  0  0  0  0  0  0  0  0
    4.7174  -14.8280    0.0000 C   0  0  0  0  0  0  0  0  0  0  0  0
    7.5753  -14.0030    0.0000 C   0  0  0  0  0  0  0  0  0  0  0  0
    8.2898  -13.5905    0.0000 C   0  0  0  0  0  0  0  0  0  0  0  0
  1  2  1  0  0  0  0
  2  3  1  0  0  0  0
  3  4  1  0  0  0  0
  4  5  1  0  0  0  0
  5  6  1  0  0  0  0
  6  7  1  0  0  0  0
  7  8  1  0  0  0  0
  8  9  2  0  0  0  0
  9 10  1  0  0  0  0
  1 10  2  0  0  0  0
  5 10  1  0  0  0  0
  2 11  2  0  0  0  0
 12 13  2  0  0  0  0
 13 14  1  0  0  0  0
  7 13  1  1  0  0  0
  5 15  1  6  0  0  0
  4 16  1  6  0  0  0
M  END
>  <cdx:groupId>
204049

>  <cdx:fragmentId>
204003

$$$$
