586992.cdx
  Mrv1902 05222410192D          

 60 65  0  0  0  0            999 V2000
    8.8628   -9.5759    0.0000 C   0  0  0  0  0  0  0  0  0  0  0  0
    8.8590  -10.4009    0.0000 C   0  0  0  0  0  0  0  0  0  0  0  0
    8.1427  -10.8101    0.0000 C   0  0  0  0  0  0  0  0  0  0  0  0
    8.1502   -9.1601    0.0000 O   0  0  0  0  0  0  0  0  0  0  0  0
    9.5791   -9.1666    0.0000 O   0  0  0  0  0  0  0  0  0  0  0  0
    8.1389  -11.6351    0.0000 C   0  0  0  0  0  0  0  0  0  0  0  0
    8.8515  -12.0508    0.0000 C   0  0  0  0  0  0  0  0  0  0  0  0
    8.8477  -12.8758    0.0000 C   0  0  0  0  0  0  0  0  0  0  0  0
    8.1314  -13.2851    0.0000 C   0  0  0  0  0  0  0  0  0  0  0  0
    7.4188  -12.8693    0.0000 C   0  0  0  0  0  0  0  0  0  0  0  0
    7.4226  -12.0443    0.0000 C   0  0  0  0  0  0  0  0  0  0  0  0
    8.1276  -14.1101    0.0000 O   0  0  0  0  0  0  0  0  0  0  0  0
    9.5858   -8.3417    0.0000 C   0  0  0  0  0  0  0  0  0  0  0  0
   10.3103   -7.1100    0.0000 O   0  0  0  0  0  0  0  0  0  0  0  0
   10.3036   -7.9350    0.0000 C   0  0  1  0  0  0  0  0  0  0  0  0
   11.0147   -8.3532    0.0000 C   0  0  2  0  0  0  0  0  0  0  0  0
   11.7325   -7.9466    0.0000 C   0  0  1  0  0  0  0  0  0  0  0  0
   11.7392   -7.1216    0.0000 C   0  0  2  0  0  0  0  0  0  0  0  0
   11.0281   -6.7033    0.0000 C   0  0  2  0  0  0  0  0  0  0  0  0
   12.4570   -6.7149    0.0000 O   0  0  0  0  0  0  0  0  0  0  0  0
   12.4436   -8.3648    0.0000 O   0  0  0  0  0  0  0  0  0  0  0  0
   11.0080   -9.1782    0.0000 O   0  0  0  0  0  0  0  0  0  0  0  0
   11.0348   -5.8783    0.0000 O   0  0  0  0  0  0  0  0  0  0  0  0
   10.3304   -4.6351    0.0000 C   0  0  0  0  0  0  0  0  0  0  0  0
   10.3237   -5.4600    0.0000 C   0  0  0  0  0  0  0  0  0  0  0  0
    9.6059   -5.8667    0.0000 C   0  0  0  0  0  0  0  0  0  0  0  0
    8.8948   -5.4485    0.0000 C   0  0  0  0  0  0  0  0  0  0  0  0
    8.1770   -5.8551    0.0000 C   0  0  0  0  0  0  0  0  0  0  0  0
    7.4659   -5.4369    0.0000 C   0  0  0  0  0  0  0  0  0  0  0  0
    7.4726   -4.6119    0.0000 C   0  0  0  0  0  0  0  0  0  0  0  0
    8.1904   -4.2052    0.0000 C   0  0  0  0  0  0  0  0  0  0  0  0
    8.9015   -4.6235    0.0000 C   0  0  0  0  0  0  0  0  0  0  0  0
    9.6193   -4.2168    0.0000 O   0  3  0  0  0  0  0  0  0  0  0  0
    6.7615   -4.1936    0.0000 O   0  0  0  0  0  0  0  0  0  0  0  0
   11.0482   -4.2284    0.0000 C   0  0  0  0  0  0  0  0  0  0  0  0
   11.0549   -3.4034    0.0000 C   0  0  0  0  0  0  0  0  0  0  0  0
   11.7727   -2.9967    0.0000 C   0  0  0  0  0  0  0  0  0  0  0  0
   12.4838   -3.4150    0.0000 C   0  0  0  0  0  0  0  0  0  0  0  0
   12.4771   -4.2400    0.0000 C   0  0  0  0  0  0  0  0  0  0  0  0
   11.7593   -4.6467    0.0000 C   0  0  0  0  0  0  0  0  0  0  0  0
   13.2016   -3.0083    0.0000 O   0  0  0  0  0  0  0  0  0  0  0  0
   11.7794   -2.1717    0.0000 O   0  0  0  0  0  0  0  0  0  0  0  0
    8.1670   -8.3301    0.0000 O   0  0  0  0  0  0  0  0  0  0  0  0
    6.7364   -9.1523    0.0000 O   0  0  0  0  0  0  0  0  0  0  0  0
    5.3091   -8.3244    0.0000 O   0  0  0  0  0  0  0  0  0  0  0  0
    4.5971   -7.0855    0.0000 O   0  0  0  0  0  0  0  0  0  0  0  0
    5.3124   -6.6744    0.0000 C   0  0  0  0  0  0  0  0  0  0  0  0
    6.0261   -7.0883    0.0000 C   0  0  2  0  0  0  0  0  0  0  0  0
    6.0244   -7.9133    0.0000 C   0  0  2  0  0  0  0  0  0  0  0  0
    6.7381   -8.3273    0.0000 C   0  0  1  0  0  0  0  0  0  0  0  0
    7.4534   -7.9162    0.0000 C   0  0  2  0  0  0  0  0  0  0  0  0
    7.4550   -7.0912    0.0000 C   0  0  1  0  0  0  0  0  0  0  0  0
    6.7414   -6.6773    0.0000 O   0  0  0  0  0  0  0  0  0  0  0  0
    8.1703   -6.6801    0.0000 O   0  0  0  0  0  0  0  0  0  0  0  0
    3.8835   -6.6716    0.0000 C   0  0  0  0  0  0  0  0  0  0  0  0
    3.1682   -7.0826    0.0000 C   0  0  0  0  0  0  0  0  0  0  0  0
    3.8851   -5.8466    0.0000 O   0  0  0  0  0  0  0  0  0  0  0  0
    2.4546   -6.6687    0.0000 C   0  0  0  0  0  0  0  0  0  0  0  0
    1.7393   -7.0798    0.0000 O   0  0  0  0  0  0  0  0  0  0  0  0
    2.4562   -5.8437    0.0000 O   0  0  0  0  0  0  0  0  0  0  0  0
 52 54  1  1  0  0  0
 51 43  1  6  0  0  0
 50 44  1  1  0  0  0
 49 45  1  6  0  0  0
 48 47  1  1  0  0  0
 47 46  1  0  0  0  0
 53 48  1  0  0  0  0
 49 48  1  0  0  0  0
 50 49  1  0  0  0  0
 51 50  1  0  0  0  0
 52 51  1  0  0  0  0
 53 52  1  0  0  0  0
  1  2  1  0  0  0  0
  2  3  2  0  0  0  0
  1  4  2  0  0  0  0
  1  5  1  0  0  0  0
  6  7  1  0  0  0  0
  7  8  2  0  0  0  0
  8  9  1  0  0  0  0
  9 10  2  0  0  0  0
 10 11  1  0  0  0  0
  6 11  2  0  0  0  0
  9 12  1  0  0  0  0
  3  6  1  0  0  0  0
 14 15  1  0  0  0  0
 15 16  1  0  0  0  0
 16 17  1  0  0  0  0
 17 18  1  0  0  0  0
 18 19  1  0  0  0  0
 14 19  1  0  0  0  0
 18 20  1  6  0  0  0
 17 21  1  1  0  0  0
 16 22  1  6  0  0  0
 24 25  1  0  0  0  0
 25 26  2  0  0  0  0
 26 27  1  0  0  0  0
 27 28  1  0  0  0  0
 28 29  2  0  0  0  0
 29 30  1  0  0  0  0
 30 31  2  0  0  0  0
 31 32  1  0  0  0  0
 27 32  2  0  0  0  0
 32 33  1  0  0  0  0
 24 33  2  0  0  0  0
 28 54  1  0  0  0  0
 30 34  1  0  0  0  0
 35 36  1  0  0  0  0
 36 37  2  0  0  0  0
 37 38  1  0  0  0  0
 38 39  2  0  0  0  0
 39 40  1  0  0  0  0
 35 40  2  0  0  0  0
 38 41  1  0  0  0  0
 37 42  1  0  0  0  0
 24 35  1  0  0  0  0
 23 25  1  0  0  0  0
 19 23  1  1  0  0  0
 15 13  1  1  0  0  0
  5 13  1  0  0  0  0
 46 55  1  0  0  0  0
 55 56  1  0  0  0  0
 55 57  2  0  0  0  0
 56 58  1  0  0  0  0
 58 59  1  0  0  0  0
 58 60  2  0  0  0  0
M  CHG  1  33   1
M  END
>  <cdx:fragmentId>
73

$$$$
