586993.cdx
  Mrv1902 05222410182D          

 60 65  0  0  0  0            999 V2000
    7.6025   -9.8635    0.0000 C   0  0  0  0  0  0  0  0  0  0  0  0
    7.6061  -10.6885    0.0000 C   0  0  0  0  0  0  0  0  0  0  0  0
    8.3224  -11.0978    0.0000 C   0  0  0  0  0  0  0  0  0  0  0  0
    8.3260  -11.9228    0.0000 C   0  0  0  0  0  0  0  0  0  0  0  0
    7.6133  -12.3384    0.0000 C   0  0  0  0  0  0  0  0  0  0  0  0
    6.8971  -11.9291    0.0000 C   0  0  0  0  0  0  0  0  0  0  0  0
    6.8935  -11.1041    0.0000 C   0  0  0  0  0  0  0  0  0  0  0  0
    7.6169  -13.1634    0.0000 O   0  0  0  0  0  0  0  0  0  0  0  0
    9.7508   -8.6167    0.0000 C   0  0  0  0  0  0  0  0  0  0  0  0
   10.4753   -7.3850    0.0000 O   0  0  0  0  0  0  0  0  0  0  0  0
   10.4686   -8.2100    0.0000 C   0  0  1  0  0  0  0  0  0  0  0  0
   11.1797   -8.6282    0.0000 C   0  0  2  0  0  0  0  0  0  0  0  0
   11.8975   -8.2216    0.0000 C   0  0  1  0  0  0  0  0  0  0  0  0
   11.9042   -7.3966    0.0000 C   0  0  2  0  0  0  0  0  0  0  0  0
   11.1931   -6.9783    0.0000 C   0  0  2  0  0  0  0  0  0  0  0  0
   12.6220   -6.9899    0.0000 O   0  0  0  0  0  0  0  0  0  0  0  0
   12.6086   -8.6398    0.0000 O   0  0  0  0  0  0  0  0  0  0  0  0
   11.1730   -9.4532    0.0000 O   0  0  0  0  0  0  0  0  0  0  0  0
   11.1998   -6.1533    0.0000 O   0  0  0  0  0  0  0  0  0  0  0  0
   10.4954   -4.9101    0.0000 C   0  0  0  0  0  0  0  0  0  0  0  0
   10.4887   -5.7350    0.0000 C   0  0  0  0  0  0  0  0  0  0  0  0
    9.7709   -6.1417    0.0000 C   0  0  0  0  0  0  0  0  0  0  0  0
    9.0598   -5.7235    0.0000 C   0  0  0  0  0  0  0  0  0  0  0  0
    8.3420   -6.1301    0.0000 C   0  0  0  0  0  0  0  0  0  0  0  0
    7.6309   -5.7119    0.0000 C   0  0  0  0  0  0  0  0  0  0  0  0
    7.6376   -4.8869    0.0000 C   0  0  0  0  0  0  0  0  0  0  0  0
    8.3554   -4.4802    0.0000 C   0  0  0  0  0  0  0  0  0  0  0  0
    9.0665   -4.8985    0.0000 C   0  0  0  0  0  0  0  0  0  0  0  0
    9.7843   -4.4918    0.0000 O   0  3  0  0  0  0  0  0  0  0  0  0
    6.9265   -4.4686    0.0000 O   0  0  0  0  0  0  0  0  0  0  0  0
   11.2132   -4.5034    0.0000 C   0  0  0  0  0  0  0  0  0  0  0  0
   11.2199   -3.6784    0.0000 C   0  0  0  0  0  0  0  0  0  0  0  0
   11.9377   -3.2717    0.0000 C   0  0  0  0  0  0  0  0  0  0  0  0
   12.6488   -3.6900    0.0000 C   0  0  0  0  0  0  0  0  0  0  0  0
   12.6421   -4.5150    0.0000 C   0  0  0  0  0  0  0  0  0  0  0  0
   11.9243   -4.9217    0.0000 C   0  0  0  0  0  0  0  0  0  0  0  0
   13.3666   -3.2833    0.0000 O   0  0  0  0  0  0  0  0  0  0  0  0
   11.9444   -2.4467    0.0000 O   0  0  0  0  0  0  0  0  0  0  0  0
    9.7441   -9.4416    0.0000 O   0  0  0  0  0  0  0  0  0  0  0  0
    9.0351  -10.6822    0.0000 O   0  0  0  0  0  0  0  0  0  0  0  0
    8.3152   -9.4479    0.0000 C   0  0  0  0  0  0  0  0  0  0  0  0
    9.0315   -9.8572    0.0000 C   0  0  0  0  0  0  0  0  0  0  0  0
    8.3320   -8.6051    0.0000 O   0  0  0  0  0  0  0  0  0  0  0  0
    6.9014   -9.4273    0.0000 O   0  0  0  0  0  0  0  0  0  0  0  0
    5.4741   -8.5994    0.0000 O   0  0  0  0  0  0  0  0  0  0  0  0
    4.7621   -7.3605    0.0000 O   0  0  0  0  0  0  0  0  0  0  0  0
    5.4774   -6.9494    0.0000 C   0  0  0  0  0  0  0  0  0  0  0  0
    6.1911   -7.3633    0.0000 C   0  0  2  0  0  0  0  0  0  0  0  0
    6.1894   -8.1883    0.0000 C   0  0  2  0  0  0  0  0  0  0  0  0
    6.9031   -8.6023    0.0000 C   0  0  1  0  0  0  0  0  0  0  0  0
    7.6184   -8.1912    0.0000 C   0  0  2  0  0  0  0  0  0  0  0  0
    7.6200   -7.3662    0.0000 C   0  0  1  0  0  0  0  0  0  0  0  0
    6.9064   -6.9523    0.0000 O   0  0  0  0  0  0  0  0  0  0  0  0
    8.3353   -6.9551    0.0000 O   0  0  0  0  0  0  0  0  0  0  0  0
    4.0485   -6.9466    0.0000 C   0  0  0  0  0  0  0  0  0  0  0  0
    3.3332   -7.3576    0.0000 C   0  0  0  0  0  0  0  0  0  0  0  0
    4.0501   -6.1216    0.0000 O   0  0  0  0  0  0  0  0  0  0  0  0
    2.6196   -6.9437    0.0000 C   0  0  0  0  0  0  0  0  0  0  0  0
    1.9043   -7.3548    0.0000 O   0  0  0  0  0  0  0  0  0  0  0  0
    2.6212   -6.1187    0.0000 O   0  0  0  0  0  0  0  0  0  0  0  0
 42 39  1  0  0  0  0
 42 40  2  0  0  0  0
 41  1  2  0  0  0  0
 42 41  1  0  0  0  0
 52 54  1  1  0  0  0
 51 43  1  6  0  0  0
 50 44  1  1  0  0  0
 49 45  1  6  0  0  0
 48 47  1  1  0  0  0
 47 46  1  0  0  0  0
 53 48  1  0  0  0  0
 49 48  1  0  0  0  0
 50 49  1  0  0  0  0
 51 50  1  0  0  0  0
 52 51  1  0  0  0  0
 53 52  1  0  0  0  0
  2  3  1  0  0  0  0
  3  4  2  0  0  0  0
  4  5  1  0  0  0  0
  5  6  2  0  0  0  0
  6  7  1  0  0  0  0
  2  7  2  0  0  0  0
  5  8  1  0  0  0  0
  1  2  1  0  0  0  0
 10 11  1  0  0  0  0
 11 12  1  0  0  0  0
 12 13  1  0  0  0  0
 13 14  1  0  0  0  0
 14 15  1  0  0  0  0
 10 15  1  0  0  0  0
 14 16  1  6  0  0  0
 13 17  1  1  0  0  0
 12 18  1  6  0  0  0
 20 21  1  0  0  0  0
 21 22  2  0  0  0  0
 22 23  1  0  0  0  0
 23 24  1  0  0  0  0
 24 25  2  0  0  0  0
 25 26  1  0  0  0  0
 26 27  2  0  0  0  0
 27 28  1  0  0  0  0
 23 28  2  0  0  0  0
 28 29  1  0  0  0  0
 20 29  2  0  0  0  0
 24 54  1  0  0  0  0
 26 30  1  0  0  0  0
 31 32  1  0  0  0  0
 32 33  2  0  0  0  0
 33 34  1  0  0  0  0
 34 35  2  0  0  0  0
 35 36  1  0  0  0  0
 31 36  2  0  0  0  0
 34 37  1  0  0  0  0
 33 38  1  0  0  0  0
 20 31  1  0  0  0  0
 19 21  1  0  0  0  0
 15 19  1  1  0  0  0
 11  9  1  1  0  0  0
 39  9  1  0  0  0  0
 46 55  1  0  0  0  0
 55 56  1  0  0  0  0
 55 57  2  0  0  0  0
 56 58  1  0  0  0  0
 58 59  1  0  0  0  0
 58 60  2  0  0  0  0
M  CHG  1  29   1
M  END
>  <cdx:fragmentId>
73

$$$$
