587017.cdx
  Mrv1902 05222410252D          

 16 17  0  0  0  0            999 V2000
   15.5812  -12.5427    0.0000 C   0  0  0  0  0  0  0  0  0  0  0  0
   16.3658  -12.2878    0.0000 C   0  0  0  0  0  0  0  0  0  0  0  0
   16.8507  -12.9552    0.0000 C   0  0  0  0  0  0  0  0  0  0  0  0
   16.3658  -13.6226    0.0000 C   0  0  0  0  0  0  0  0  0  0  0  0
   15.5812  -13.3677    0.0000 C   0  0  0  0  0  0  0  0  0  0  0  0
   14.7562  -13.3677    0.0000 C   0  0  0  0  0  0  0  0  0  0  0  0
   14.7562  -12.5427    0.0000 C   0  0  0  0  0  0  0  0  0  0  0  0
   16.6207  -11.5031    0.0000 O   0  0  0  0  0  0  0  0  0  0  0  0
   14.5426  -14.1646    0.0000 O   0  0  0  0  0  0  0  0  0  0  0  0
   17.5652  -12.5427    0.0000 C   0  0  0  0  0  0  0  0  0  0  0  0
   17.5652  -13.3677    0.0000 C   0  0  0  0  0  0  0  0  0  0  0  0
   15.4521  -14.1825    0.0000 C   0  0  0  0  0  0  0  0  0  0  0  0
   16.0932  -14.7017    0.0000 C   0  0  0  0  0  0  0  0  0  0  0  0
   15.9642  -15.5166    0.0000 O   0  0  0  0  0  0  0  0  0  0  0  0
   13.9593  -13.5812    0.0000 C   0  0  0  0  0  0  0  0  0  0  0  0
   13.3759  -12.9979    0.0000 C   0  0  0  0  0  0  0  0  0  0  0  0
  1  2  1  0  0  0  0
  2  3  1  0  0  0  0
  3  4  1  0  0  0  0
  4  5  1  0  0  0  0
  5  6  1  0  0  0  0
  6  7  1  0  0  0  0
  1  7  1  0  0  0  0
  1  5  1  0  0  0  0
  2  8  1  0  0  0  0
  6  9  1  0  0  0  0
  3 10  1  0  0  0  0
  3 11  1  0  0  0  0
 12 13  1  0  0  0  0
 13 14  1  0  0  0  0
  5 12  1  0  0  0  0
 15 16  2  0  0  0  0
  6 15  1  0  0  0  0
M  END
>  <cdx:groupId>
5060

>  <cdx:fragmentId>
5014

$$$$
