587212.cdx
  Mrv1902 05222410232D          

 77 78  0  0  0  0            999 V2000
   18.6420   -8.2492    0.0000 C   0  0  1  0  0  0  0  0  0  0  0  0
   19.1269   -7.5817    0.0000 C   0  0  0  0  0  0  0  0  0  0  0  0
   19.9115   -7.8367    0.0000 C   0  0  0  0  0  0  0  0  0  0  0  0
   19.9115   -8.6617    0.0000 C   0  0  1  0  0  0  0  0  0  0  0  0
   19.1269   -8.9166    0.0000 C   0  0  0  0  0  0  0  0  0  0  0  0
   18.5138   -7.0297    0.0000 C   0  0  0  0  0  0  0  0  0  0  0  0
   19.2984   -6.7748    0.0000 C   0  0  0  0  0  0  0  0  0  0  0  0
   20.5948   -9.9714    0.0000 C   0  0  0  0  0  0  0  0  0  0  0  0
    9.8876  -10.5895    0.0000 C   0  0  0  0  0  0  0  0  0  0  0  0
   21.3170  -10.3702    0.0000 O   0  0  0  0  0  0  0  0  0  0  0  0
    2.9236   -5.7742    0.0000 C   0  0  0  0  0  0  0  0  0  0  0  0
    3.6381   -6.1867    0.0000 C   0  0  0  0  0  0  0  0  0  0  0  0
    4.3526   -5.7742    0.0000 C   0  0  0  0  0  0  0  0  0  0  0  0
    5.0670   -6.1867    0.0000 C   0  0  0  0  0  0  0  0  0  0  0  0
    5.7815   -5.7742    0.0000 C   0  0  0  0  0  0  0  0  0  0  0  0
    6.4960   -6.1867    0.0000 C   0  0  0  0  0  0  0  0  0  0  0  0
    7.2104   -5.7742    0.0000 C   0  0  0  0  0  0  0  0  0  0  0  0
    7.9249   -6.1867    0.0000 C   0  0  0  0  0  0  0  0  0  0  0  0
    8.6394   -5.7742    0.0000 C   0  0  0  0  0  0  0  0  0  0  0  0
    9.3539   -6.1867    0.0000 C   0  0  0  0  0  0  0  0  0  0  0  0
   10.0683   -5.7742    0.0000 C   0  0  0  0  0  0  0  0  0  0  0  0
   10.7828   -6.1867    0.0000 C   0  0  0  0  0  0  0  0  0  0  0  0
   11.4973   -5.7742    0.0000 C   0  0  0  0  0  0  0  0  0  0  0  0
   12.2117   -6.1867    0.0000 C   0  0  0  0  0  0  0  0  0  0  0  0
    1.4947   -5.7742    0.0000 O   0  0  0  0  0  0  0  0  0  0  0  0
   10.5940  -10.1634    0.0000 C   0  0  0  0  0  0  0  0  0  0  0  0
   11.3163  -10.5621    0.0000 C   0  0  0  0  0  0  0  0  0  0  0  0
   12.0227  -10.1360    0.0000 C   0  0  0  0  0  0  0  0  0  0  0  0
   12.7450  -10.5347    0.0000 C   0  0  0  0  0  0  0  0  0  0  0  0
   13.4514  -10.1085    0.0000 C   0  0  0  0  0  0  0  0  0  0  0  0
   14.1737  -10.5073    0.0000 C   0  0  0  0  0  0  0  0  0  0  0  0
   14.8801  -10.0811    0.0000 C   0  0  0  0  0  0  0  0  0  0  0  0
   15.6023  -10.4798    0.0000 C   0  0  0  0  0  0  0  0  0  0  0  0
   16.3088  -10.0537    0.0000 C   0  0  0  0  0  0  0  0  0  0  0  0
   17.0310  -10.4524    0.0000 C   0  0  0  0  0  0  0  0  0  0  0  0
   17.9275   -7.8367    0.0000 C   0  0  0  0  0  0  0  0  0  0  0  0
   17.7374  -10.0263    0.0000 C   0  0  0  0  0  0  0  0  0  0  0  0
   18.4597  -10.4250    0.0000 C   0  0  0  0  0  0  0  0  0  0  0  0
   19.1661   -9.9989    0.0000 C   0  0  0  0  0  0  0  0  0  0  0  0
   19.8884  -10.3976    0.0000 C   0  0  0  0  0  0  0  0  0  0  0  0
   20.5790   -9.1466    0.0000 O   0  0  0  0  0  0  0  0  0  0  0  0
    6.4960   -9.4867    0.0000 C   0  0  0  0  0  0  0  0  0  0  0  0
    9.3539   -9.4867    0.0000 C   0  0  0  0  0  0  0  0  0  0  0  0
   12.9262   -7.4242    0.0000 C   0  0  0  0  0  0  0  0  0  0  0  0
   15.7841   -7.4242    0.0000 C   0  0  0  0  0  0  0  0  0  0  0  0
   17.9275   -9.4867    0.0000 O   0  0  0  0  0  0  0  0  0  0  0  0
   17.9275   -8.6617    0.0000 C   0  0  0  0  0  0  0  0  0  0  0  0
   17.2130   -8.2492    0.0000 C   0  0  0  0  0  0  0  0  0  0  0  0
   16.4986   -8.6617    0.0000 C   0  0  0  0  0  0  0  0  0  0  0  0
   15.7841   -8.2492    0.0000 C   0  0  0  0  0  0  0  0  0  0  0  0
   15.0696   -8.6617    0.0000 C   0  0  0  0  0  0  0  0  0  0  0  0
   14.3551   -8.2492    0.0000 C   0  0  0  0  0  0  0  0  0  0  0  0
   13.6407   -8.6617    0.0000 C   0  0  0  0  0  0  0  0  0  0  0  0
   12.9262   -8.2492    0.0000 C   0  0  0  0  0  0  0  0  0  0  0  0
   12.2117   -8.6617    0.0000 C   0  0  0  0  0  0  0  0  0  0  0  0
   11.4973   -8.2492    0.0000 C   0  0  0  0  0  0  0  0  0  0  0  0
   10.7828   -8.6617    0.0000 C   0  0  0  0  0  0  0  0  0  0  0  0
   10.0683   -8.2492    0.0000 C   0  0  0  0  0  0  0  0  0  0  0  0
    9.3539   -8.6617    0.0000 C   0  0  0  0  0  0  0  0  0  0  0  0
    8.6394   -8.2492    0.0000 C   0  0  0  0  0  0  0  0  0  0  0  0
    7.9249   -8.6617    0.0000 C   0  0  0  0  0  0  0  0  0  0  0  0
    7.2104   -8.2492    0.0000 C   0  0  0  0  0  0  0  0  0  0  0  0
    6.4960   -8.6617    0.0000 C   0  0  0  0  0  0  0  0  0  0  0  0
    5.7815   -8.2492    0.0000 C   0  0  0  0  0  0  0  0  0  0  0  0
    5.0670   -8.6617    0.0000 C   0  0  0  0  0  0  0  0  0  0  0  0
    3.6381   -9.4867    0.0000 C   0  0  0  0  0  0  0  0  0  0  0  0
    4.7651   -6.7097    0.0000 C   0  0  0  0  0  0  0  0  0  0  0  0
    5.1776   -7.4242    0.0000 C   0  0  0  0  0  0  0  0  0  0  0  0
    3.6381   -7.0117    0.0000 C   0  0  0  0  0  0  0  0  0  0  0  0
    4.3526   -7.4242    0.0000 C   0  0  0  0  0  0  0  0  0  0  0  0
    4.3526   -8.2492    0.0000 C   0  0  0  0  0  0  0  0  0  0  0  0
    3.6381   -8.6617    0.0000 C   0  0  0  0  0  0  0  0  0  0  0  0
    2.9236   -8.2492    0.0000 C   0  0  0  0  0  0  0  0  0  0  0  0
    2.9236   -7.4242    0.0000 C   0  0  1  0  0  0  0  0  0  0  0  0
    2.2091   -7.0117    0.0000 O   0  0  0  0  0  0  0  0  0  0  0  0
   12.9262   -5.7742    0.0000 C   0  0  0  0  0  0  0  0  0  0  0  0
    2.2091   -6.1867    0.0000 C   0  0  0  0  0  0  0  0  0  0  0  0
 74 75  1  1  0  0  0
 71 65  1  0  0  0  0
  1 47  1  6  0  0  0
 41  8  1  0  0  0  0
 26  9  1  0  0  0  0
 27 26  1  0  0  0  0
 28 27  1  0  0  0  0
 29 28  1  0  0  0  0
 30 29  1  0  0  0  0
 31 30  1  0  0  0  0
 32 31  1  0  0  0  0
 33 32  1  0  0  0  0
 34 33  1  0  0  0  0
  1 36  1  1  0  0  0
 35 34  1  0  0  0  0
 37 35  1  0  0  0  0
 38 37  1  0  0  0  0
 39 38  1  0  0  0  0
 40 39  1  0  0  0  0
 63 42  1  0  0  0  0
 59 43  1  0  0  0  0
 54 44  1  0  0  0  0
 50 45  1  0  0  0  0
 47 46  2  0  0  0  0
 48 47  1  0  0  0  0
 49 48  2  0  0  0  0
 50 49  1  0  0  0  0
 51 50  2  0  0  0  0
 52 51  1  0  0  0  0
 53 52  2  0  0  0  0
 54 53  1  0  0  0  0
 55 54  2  0  0  0  0
 56 55  1  0  0  0  0
 57 56  2  0  0  0  0
 58 57  1  0  0  0  0
 59 58  2  0  0  0  0
 60 59  1  0  0  0  0
 61 60  2  0  0  0  0
 62 61  1  0  0  0  0
 63 62  2  0  0  0  0
 64 63  1  0  0  0  0
 65 64  2  0  0  0  0
 72 66  1  0  0  0  0
 70 67  1  0  0  0  0
 70 68  1  0  0  0  0
 74 69  1  0  0  0  0
 70 69  1  0  0  0  0
 71 70  1  0  0  0  0
 72 71  2  0  0  0  0
 73 72  1  0  0  0  0
 74 73  1  0  0  0  0
 77 25  2  0  0  0  0
 77 11  1  0  0  0  0
  1  2  1  0  0  0  0
  2  3  1  0  0  0  0
  3  4  1  0  0  0  0
  4  5  1  0  0  0  0
  1  5  1  0  0  0  0
  2  6  1  0  0  0  0
  2  7  1  0  0  0  0
  8 40  1  0  0  0  0
  8 10  2  0  0  0  0
  4 41  1  6  0  0  0
 11 12  1  0  0  0  0
 12 13  1  0  0  0  0
 13 14  1  0  0  0  0
 14 15  1  0  0  0  0
 15 16  1  0  0  0  0
 16 17  1  0  0  0  0
 17 18  1  0  0  0  0
 18 19  1  0  0  0  0
 19 20  1  0  0  0  0
 20 21  1  0  0  0  0
 21 22  1  0  0  0  0
 22 23  1  0  0  0  0
 23 24  1  0  0  0  0
 24 76  1  0  0  0  0
 77 75  1  0  0  0  0
M  END
>  <cdx:fragmentId>
125

$$$$
