588229.cdx
  Mrv1902 05222410182D          

 26 28  0  0  0  0            999 V2000
   14.7463  -13.9454    0.0000 C   0  0  0  0  0  0  0  0  0  0  0  0
   14.0318  -14.3579    0.0000 C   0  0  0  0  0  0  0  0  0  0  0  0
   14.7463  -13.1204    0.0000 O   0  0  0  0  0  0  0  0  0  0  0  0
   15.4607  -14.3579    0.0000 O   0  0  0  0  0  0  0  0  0  0  0  0
   12.6028  -14.3579    0.0000 C   0  0  0  0  0  0  0  0  0  0  0  0
   13.3173  -13.9454    0.0000 C   0  0  0  0  0  0  0  0  0  0  0  0
   13.3173  -13.1204    0.0000 C   0  0  0  0  0  0  0  0  0  0  0  0
   12.6028  -12.7079    0.0000 C   0  0  0  0  0  0  0  0  0  0  0  0
   11.8884  -13.1204    0.0000 C   0  0  0  0  0  0  0  0  0  0  0  0
   11.1739  -12.7079    0.0000 C   0  0  0  0  0  0  0  0  0  0  0  0
   10.4594  -13.1204    0.0000 C   0  0  0  0  0  0  0  0  0  0  0  0
   10.4594  -13.9454    0.0000 C   0  0  0  0  0  0  0  0  0  0  0  0
   11.1739  -14.3579    0.0000 C   0  0  0  0  0  0  0  0  0  0  0  0
   11.8884  -13.9454    0.0000 C   0  0  0  0  0  0  0  0  0  0  0  0
   16.1752  -13.9454    0.0000 C   0  0  0  0  0  0  0  0  0  0  0  0
   16.8897  -14.3579    0.0000 C   0  0  0  0  0  0  0  0  0  0  0  0
   17.6041  -13.9454    0.0000 C   0  0  0  0  0  0  0  0  0  0  0  0
   18.3186  -14.3579    0.0000 C   0  0  0  0  0  0  0  0  0  0  0  0
   19.0331  -13.9454    0.0000 C   0  0  0  0  0  0  0  0  0  0  0  0
   19.0331  -13.1204    0.0000 C   0  0  0  0  0  0  0  0  0  0  0  0
   18.3186  -12.7079    0.0000 C   0  0  0  0  0  0  0  0  0  0  0  0
   17.6041  -13.1204    0.0000 C   0  0  0  0  0  0  0  0  0  0  0  0
   16.8897  -12.7079    0.0000 C   0  0  0  0  0  0  0  0  0  0  0  0
   16.1752  -13.1204    0.0000 C   0  0  0  0  0  0  0  0  0  0  0  0
   19.4456  -12.4059    0.0000 C   0  0  0  0  0  0  0  0  0  0  0  0
   19.8581  -13.1204    0.0000 O   0  0  0  0  0  0  0  0  0  0  0  0
  1  2  1  0  0  0  0
  1  3  2  0  0  0  0
  1  4  1  0  0  0  0
  5  6  1  0  0  0  0
  6  7  2  0  0  0  0
  7  8  1  0  0  0  0
  8  9  2  0  0  0  0
  9 10  1  0  0  0  0
 10 11  2  0  0  0  0
 11 12  1  0  0  0  0
 12 13  2  0  0  0  0
 13 14  1  0  0  0  0
  5 14  2  0  0  0  0
  9 14  1  0  0  0  0
  2  6  1  0  0  0  0
 15 16  1  0  0  0  0
 16 17  1  0  0  0  0
 17 18  1  0  0  0  0
 18 19  1  0  0  0  0
 19 20  1  0  0  0  0
 20 21  1  0  0  0  0
 21 22  1  0  0  0  0
 22 23  1  0  0  0  0
 23 24  1  0  0  0  0
 15 24  1  0  0  0  0
 20 25  1  0  0  0  0
 20 26  1  0  0  0  0
  4 15  1  0  0  0  0
M  END
>  <cdx:groupId>
5145

>  <cdx:fragmentId>
5076

$$$$
