588328.cdx
  Mrv1902 05222410222D          

 94104  0  0  0  0            999 V2000
   10.7004  -11.4449    0.0000 C   0  0  0  0  0  0  0  0  0  0  0  0
   11.4148  -11.0324    0.0000 C   0  0  0  0  0  0  0  0  0  0  0  0
   12.1293  -11.4449    0.0000 C   0  0  0  0  0  0  0  0  0  0  0  0
   12.1293  -12.2699    0.0000 C   0  0  0  0  0  0  0  0  0  0  0  0
   11.4148  -12.6824    0.0000 C   0  0  2  0  0  0  0  0  0  0  0  0
   11.4148  -13.5074    0.0000 C   0  0  1  0  0  0  0  0  0  0  0  0
   10.7004  -13.9199    0.0000 C   0  0  0  0  0  0  0  0  0  0  0  0
    9.9859  -13.5074    0.0000 C   0  0  1  0  0  0  0  0  0  0  0  0
    9.2714  -13.9199    0.0000 C   0  0  2  0  0  0  0  0  0  0  0  0
    9.2714  -14.7449    0.0000 C   0  0  0  0  0  0  0  0  0  0  0  0
    8.5570  -15.1574    0.0000 C   0  0  0  0  0  0  0  0  0  0  0  0
    7.8425  -14.7449    0.0000 C   0  0  1  0  0  0  0  0  0  0  0  0
    7.1280  -15.1574    0.0000 C   0  0  0  0  0  0  0  0  0  0  0  0
    6.4135  -14.7449    0.0000 C   0  0  2  0  0  0  0  0  0  0  0  0
    6.4135  -13.9199    0.0000 C   0  0  0  0  0  0  0  0  0  0  0  0
    7.1280  -13.5074    0.0000 C   0  0  0  0  0  0  0  0  0  0  0  0
    7.8425  -13.9199    0.0000 C   0  0  2  0  0  0  0  0  0  0  0  0
    8.5570  -13.5074    0.0000 C   0  0  1  0  0  0  0  0  0  0  0  0
    8.5570  -12.6824    0.0000 C   0  0  0  0  0  0  0  0  0  0  0  0
    9.2714  -12.2699    0.0000 C   0  0  0  0  0  0  0  0  0  0  0  0
    9.9859  -12.6824    0.0000 C   0  0  0  0  0  0  0  0  0  0  0  0
   10.7004  -12.2699    0.0000 C   0  0  2  0  0  0  0  0  0  0  0  0
   12.1866  -13.1498    0.0000 C   0  0  0  0  0  0  0  0  0  0  0  0
   12.1866  -13.9748    0.0000 O   0  0  0  0  0  0  0  0  0  0  0  0
   12.9011  -12.7373    0.0000 O   0  0  0  0  0  0  0  0  0  0  0  0
    3.5648  -12.2631    0.0000 O   0  0  0  0  0  0  0  0  0  0  0  0
    4.2852  -11.0290    0.0000 O   0  0  0  0  0  0  0  0  0  0  0  0
    3.5687  -11.4381    0.0000 C   0  0  2  0  0  0  0  0  0  0  0  0
    2.8562  -11.0222    0.0000 C   0  0  1  0  0  0  0  0  0  0  0  0
    2.8602  -10.1972    0.0000 C   0  0  2  0  0  0  0  0  0  0  0  0
    3.5766   -9.7882    0.0000 C   0  0  2  0  0  0  0  0  0  0  0  0
    4.2891  -10.2041    0.0000 C   0  0  0  0  0  0  0  0  0  0  0  0
    3.5805   -8.9632    0.0000 O   0  0  0  0  0  0  0  0  0  0  0  0
    2.1477   -9.7813    0.0000 O   0  0  0  0  0  0  0  0  0  0  0  0
    2.1398  -11.4313    0.0000 O   0  0  0  0  0  0  0  0  0  0  0  0
    7.5405  -15.8719    0.0000 C   0  0  0  0  0  0  0  0  0  0  0  0
    6.7155  -15.8719    0.0000 C   0  0  0  0  0  0  0  0  0  0  0  0
   11.0023  -10.3179    0.0000 C   0  0  0  0  0  0  0  0  0  0  0  0
   11.8273  -10.3179    0.0000 C   0  0  0  0  0  0  0  0  0  0  0  0
   11.4416  -14.3875    0.0000 O   0  0  0  0  0  0  0  0  0  0  0  0
    7.8425  -15.5699    0.0000 H   0  0  0  0  0  0  0  0  0  0  0  0
   10.7004  -13.0949    0.0000 H   0  0  0  0  0  0  0  0  0  0  0  0
   13.6156  -13.9748    0.0000 O   0  0  0  0  0  0  0  0  0  0  0  0
   13.6156  -13.1498    0.0000 C   0  0  2  0  0  0  0  0  0  0  0  0
   14.3300  -12.7373    0.0000 C   0  0  1  0  0  0  0  0  0  0  0  0
   15.0445  -13.1498    0.0000 C   0  0  2  0  0  0  0  0  0  0  0  0
   15.0445  -13.9748    0.0000 C   0  0  1  0  0  0  0  0  0  0  0  0
   14.3300  -14.3873    0.0000 C   0  0  0  0  0  0  0  0  0  0  0  0
   15.7590  -14.3873    0.0000 O   0  0  0  0  0  0  0  0  0  0  0  0
   15.7590  -12.7373    0.0000 O   0  0  0  0  0  0  0  0  0  0  0  0
   14.3300  -11.9123    0.0000 O   0  0  0  0  0  0  0  0  0  0  0  0
   15.7590  -11.9123    0.0000 O   0  0  0  0  0  0  0  0  0  0  0  0
   15.0445  -11.4998    0.0000 C   0  0  2  0  0  0  0  0  0  0  0  0
   15.0445  -10.6748    0.0000 C   0  0  1  0  0  0  0  0  0  0  0  0
   15.7590  -10.2623    0.0000 C   0  0  1  0  0  0  0  0  0  0  0  0
   16.4735  -10.6748    0.0000 C   0  0  2  0  0  0  0  0  0  0  0  0
   16.4735  -11.4998    0.0000 C   0  0  2  0  0  0  0  0  0  0  0  0
   17.1879  -11.9123    0.0000 C   0  0  0  0  0  0  0  0  0  0  0  0
   15.7590   -9.4373    0.0000 O   0  0  0  0  0  0  0  0  0  0  0  0
   14.3300  -10.2623    0.0000 O   0  0  0  0  0  0  0  0  0  0  0  0
   17.1879  -10.2623    0.0000 O   0  0  0  0  0  0  0  0  0  0  0  0
   17.9024  -11.4998    0.0000 O   0  0  0  0  0  0  0  0  0  0  0  0
   17.9024  -10.6748    0.0000 C   0  0  2  0  0  0  0  0  0  0  0  0
   18.6169  -10.2623    0.0000 C   0  0  1  0  0  0  0  0  0  0  0  0
   19.3313  -10.6748    0.0000 C   0  0  2  0  0  0  0  0  0  0  0  0
   19.3313  -11.4998    0.0000 C   0  0  2  0  0  0  0  0  0  0  0  0
   18.6169  -11.9123    0.0000 C   0  0  0  0  0  0  0  0  0  0  0  0
   20.0458  -10.2623    0.0000 O   0  0  0  0  0  0  0  0  0  0  0  0
   20.7603  -11.4998    0.0000 O   0  0  0  0  0  0  0  0  0  0  0  0
   20.7603  -10.6748    0.0000 C   0  0  2  0  0  0  0  0  0  0  0  0
   21.4748  -10.2623    0.0000 C   0  0  1  0  0  0  0  0  0  0  0  0
   22.1892  -10.6748    0.0000 C   0  0  2  0  0  0  0  0  0  0  0  0
   22.1892  -11.4998    0.0000 C   0  0  1  0  0  0  0  0  0  0  0  0
   21.4748  -11.9123    0.0000 C   0  0  0  0  0  0  0  0  0  0  0  0
   22.9037  -11.9123    0.0000 O   0  0  0  0  0  0  0  0  0  0  0  0
   22.9037  -10.2623    0.0000 O   0  0  0  0  0  0  0  0  0  0  0  0
   21.4748   -9.4373    0.0000 O   0  0  0  0  0  0  0  0  0  0  0  0
   20.0458  -11.9123    0.0000 O   0  0  0  0  0  0  0  0  0  0  0  0
   18.6169   -9.4373    0.0000 O   0  0  0  0  0  0  0  0  0  0  0  0
    4.2675  -15.9779    0.0000 O   0  0  0  0  0  0  0  0  0  0  0  0
    2.8412  -15.1484    0.0000 O   0  0  0  0  0  0  0  0  0  0  0  0
    2.8464  -13.4984    0.0000 O   0  0  0  0  0  0  0  0  0  0  0  0
    4.2780  -12.6779    0.0000 C   0  0  0  0  0  0  0  0  0  0  0  0
    4.2753  -13.5029    0.0000 C   0  0  2  0  0  0  0  0  0  0  0  0
    3.5596  -13.9131    0.0000 C   0  0  2  0  0  0  0  0  0  0  0  0
    3.5570  -14.7381    0.0000 C   0  0  1  0  0  0  0  0  0  0  0  0
    4.2701  -15.1529    0.0000 C   0  0  2  0  0  0  0  0  0  0  0  0
    4.9859  -14.7426    0.0000 C   0  0  1  0  0  0  0  0  0  0  0  0
    4.9885  -13.9176    0.0000 O   0  0  0  0  0  0  0  0  0  0  0  0
    5.6991  -15.1574    0.0000 O   0  0  0  0  0  0  0  0  0  0  0  0
    7.8425  -13.0949    0.0000 C   0  0  0  0  0  0  0  0  0  0  0  0
    8.5570  -14.3324    0.0000 H   0  0  0  0  0  0  0  0  0  0  0  0
    9.2714  -13.0949    0.0000 C   0  0  0  0  0  0  0  0  0  0  0  0
    9.9859  -14.3324    0.0000 C   0  0  0  0  0  0  0  0  0  0  0  0
 88 90  1  1  0  0  0
 87 80  1  6  0  0  0
 86 81  1  1  0  0  0
 85 82  1  6  0  0  0
 84 83  1  1  0  0  0
 83 26  1  0  0  0  0
 89 84  1  0  0  0  0
 85 84  1  0  0  0  0
 86 85  1  0  0  0  0
 87 86  1  0  0  0  0
 88 87  1  0  0  0  0
  1  2  1  0  0  0  0
  2  3  1  0  0  0  0
  3  4  1  0  0  0  0
  4  5  1  0  0  0  0
  5  6  1  0  0  0  0
  6  7  1  0  0  0  0
  7  8  1  0  0  0  0
  8  9  1  0  0  0  0
  9 10  1  0  0  0  0
 10 11  1  0  0  0  0
 11 12  1  0  0  0  0
 12 13  1  0  0  0  0
 13 14  1  0  0  0  0
 14 15  1  0  0  0  0
 15 16  1  0  0  0  0
 16 17  1  0  0  0  0
 12 17  1  0  0  0  0
 17 18  1  0  0  0  0
  9 18  1  0  0  0  0
 18 19  1  0  0  0  0
 19 20  1  0  0  0  0
 20 21  2  0  0  0  0
  8 21  1  0  0  0  0
 21 22  1  0  0  0  0
  5 22  1  0  0  0  0
  1 22  1  0  0  0  0
 23 24  2  0  0  0  0
 23 25  1  0  0  0  0
  5 23  1  1  0  0  0
 89 88  1  0  0  0  0
 27 28  1  0  0  0  0
 28 29  1  0  0  0  0
 29 30  1  0  0  0  0
 30 31  1  0  0  0  0
 31 32  1  0  0  0  0
 27 32  1  0  0  0  0
 31 33  1  1  0  0  0
 30 34  1  1  0  0  0
 29 35  1  6  0  0  0
 28 26  1  1  0  0  0
 14 90  1  1  0  0  0
 13 36  1  0  0  0  0
 13 37  1  0  0  0  0
  2 38  1  0  0  0  0
  2 39  1  0  0  0  0
  6 40  1  6  0  0  0
 12 41  1  6  0  0  0
 22 42  1  1  0  0  0
 43 44  1  0  0  0  0
 44 45  1  0  0  0  0
 45 46  1  0  0  0  0
 46 47  1  0  0  0  0
 47 48  1  0  0  0  0
 43 48  1  0  0  0  0
 47 49  1  6  0  0  0
 46 50  1  1  0  0  0
 52 53  1  0  0  0  0
 53 54  1  0  0  0  0
 54 55  1  0  0  0  0
 55 56  1  0  0  0  0
 56 57  1  0  0  0  0
 52 57  1  0  0  0  0
 57 58  1  6  0  0  0
 55 59  1  6  0  0  0
 54 60  1  6  0  0  0
 62 63  1  0  0  0  0
 63 64  1  0  0  0  0
 64 65  1  0  0  0  0
 65 66  1  0  0  0  0
 66 67  1  0  0  0  0
 62 67  1  0  0  0  0
 69 70  1  0  0  0  0
 70 71  1  0  0  0  0
 71 72  1  0  0  0  0
 72 73  1  0  0  0  0
 73 74  1  0  0  0  0
 69 74  1  0  0  0  0
 73 75  1  6  0  0  0
 72 76  1  1  0  0  0
 71 77  1  6  0  0  0
 70 68  1  1  0  0  0
 65 68  1  1  0  0  0
 66 78  1  1  0  0  0
 64 79  1  6  0  0  0
 63 61  1  1  0  0  0
 56 61  1  1  0  0  0
 53 51  1  1  0  0  0
 45 51  1  6  0  0  0
 44 25  1  1  0  0  0
 17 91  1  1  0  0  0
 18 92  1  6  0  0  0
  9 93  1  1  0  0  0
  8 94  1  6  0  0  0
M  END
>  <cdx:fragmentId>
106953

$$$$
