588326.cdx
  Mrv1902 05222410252D          

 95105  0  0  0  0            999 V2000
   12.9375   -8.5107    0.0000 C   0  0  0  0  0  0  0  0  0  0  0  0
   13.6520   -8.0982    0.0000 C   0  0  0  0  0  0  0  0  0  0  0  0
   14.3664   -8.5107    0.0000 C   0  0  0  0  0  0  0  0  0  0  0  0
   14.3664   -9.3357    0.0000 C   0  0  0  0  0  0  0  0  0  0  0  0
   13.6520   -9.7482    0.0000 C   0  0  2  0  0  0  0  0  0  0  0  0
   13.6520  -10.5732    0.0000 C   0  0  1  0  0  0  0  0  0  0  0  0
   12.9375  -10.9857    0.0000 C   0  0  0  0  0  0  0  0  0  0  0  0
   12.2230  -10.5732    0.0000 C   0  0  1  0  0  0  0  0  0  0  0  0
   11.5085  -10.9857    0.0000 C   0  0  2  0  0  0  0  0  0  0  0  0
   11.5085  -11.8107    0.0000 C   0  0  0  0  0  0  0  0  0  0  0  0
   10.7941  -12.2232    0.0000 C   0  0  0  0  0  0  0  0  0  0  0  0
   10.0796  -11.8107    0.0000 C   0  0  1  0  0  0  0  0  0  0  0  0
    9.3651  -12.2232    0.0000 C   0  0  0  0  0  0  0  0  0  0  0  0
    8.6507  -11.8107    0.0000 C   0  0  2  0  0  0  0  0  0  0  0  0
    8.6507  -10.9857    0.0000 C   0  0  2  0  0  0  0  0  0  0  0  0
    9.3651  -10.5732    0.0000 C   0  0  0  0  0  0  0  0  0  0  0  0
   10.0796  -10.9857    0.0000 C   0  0  2  0  0  0  0  0  0  0  0  0
   10.7941  -10.5732    0.0000 C   0  0  1  0  0  0  0  0  0  0  0  0
   10.7941   -9.7482    0.0000 C   0  0  0  0  0  0  0  0  0  0  0  0
   11.5085   -9.3357    0.0000 C   0  0  0  0  0  0  0  0  0  0  0  0
   12.2230   -9.7482    0.0000 C   0  0  0  0  0  0  0  0  0  0  0  0
   12.9375   -9.3357    0.0000 C   0  0  2  0  0  0  0  0  0  0  0  0
   14.3689  -10.1882    0.0000 C   0  0  0  0  0  0  0  0  0  0  0  0
   14.3689  -11.0132    0.0000 O   0  0  0  0  0  0  0  0  0  0  0  0
   15.0833   -9.7757    0.0000 O   0  0  0  0  0  0  0  0  0  0  0  0
    7.9362  -12.2232    0.0000 O   0  0  0  0  0  0  0  0  0  0  0  0
    7.2217  -10.9857    0.0000 O   0  0  0  0  0  0  0  0  0  0  0  0
    7.2217  -11.8107    0.0000 C   0  0  2  0  0  0  0  0  0  0  0  0
    6.5072  -12.2232    0.0000 C   0  0  1  0  0  0  0  0  0  0  0  0
    5.7928  -11.8107    0.0000 C   0  0  2  0  0  0  0  0  0  0  0  0
    5.7928  -10.9857    0.0000 C   0  0  1  0  0  0  0  0  0  0  0  0
    6.5072  -10.5732    0.0000 C   0  0  1  0  0  0  0  0  0  0  0  0
    6.5072   -9.7482    0.0000 C   0  0  0  0  0  0  0  0  0  0  0  0
    5.7928   -9.3357    0.0000 O   0  0  0  0  0  0  0  0  0  0  0  0
    6.5072   -8.0982    0.0000 O   0  0  0  0  0  0  0  0  0  0  0  0
    5.7928   -8.5107    0.0000 C   0  0  2  0  0  0  0  0  0  0  0  0
    5.0783   -8.0982    0.0000 C   0  0  1  0  0  0  0  0  0  0  0  0
    5.0783   -7.2732    0.0000 C   0  0  2  0  0  0  0  0  0  0  0  0
    5.7928   -6.8607    0.0000 C   0  0  2  0  0  0  0  0  0  0  0  0
    6.5072   -7.2732    0.0000 C   0  0  0  0  0  0  0  0  0  0  0  0
    5.7928   -6.0357    0.0000 O   0  0  0  0  0  0  0  0  0  0  0  0
    4.3638   -6.8607    0.0000 O   0  0  0  0  0  0  0  0  0  0  0  0
    4.3638   -8.5107    0.0000 O   0  0  0  0  0  0  0  0  0  0  0  0
    5.0783  -10.5732    0.0000 O   0  0  0  0  0  0  0  0  0  0  0  0
    5.0783  -12.2232    0.0000 O   0  0  0  0  0  0  0  0  0  0  0  0
    6.5072  -13.0482    0.0000 O   0  0  0  0  0  0  0  0  0  0  0  0
    9.7776  -12.9376    0.0000 C   0  0  0  0  0  0  0  0  0  0  0  0
    8.9526  -12.9376    0.0000 C   0  0  0  0  0  0  0  0  0  0  0  0
   13.2395   -7.3837    0.0000 C   0  0  0  0  0  0  0  0  0  0  0  0
   14.0645   -7.3837    0.0000 C   0  0  0  0  0  0  0  0  0  0  0  0
    7.9362  -10.5732    0.0000 O   0  0  0  0  0  0  0  0  0  0  0  0
   13.6789  -11.3844    0.0000 O   0  0  0  0  0  0  0  0  0  0  0  0
   10.0796  -12.6357    0.0000 H   0  0  0  0  0  0  0  0  0  0  0  0
   12.9375  -10.1607    0.0000 H   0  0  0  0  0  0  0  0  0  0  0  0
   15.7978  -11.0132    0.0000 O   0  0  0  0  0  0  0  0  0  0  0  0
   15.7978  -10.1882    0.0000 C   0  0  2  0  0  0  0  0  0  0  0  0
   16.5123   -9.7757    0.0000 C   0  0  1  0  0  0  0  0  0  0  0  0
   17.2267  -10.1882    0.0000 C   0  0  2  0  0  0  0  0  0  0  0  0
   17.2267  -11.0132    0.0000 C   0  0  1  0  0  0  0  0  0  0  0  0
   16.5123  -11.4257    0.0000 C   0  0  0  0  0  0  0  0  0  0  0  0
   17.9412  -11.4257    0.0000 O   0  0  0  0  0  0  0  0  0  0  0  0
   17.9412   -9.7757    0.0000 O   0  0  0  0  0  0  0  0  0  0  0  0
   16.5123   -8.9507    0.0000 O   0  0  0  0  0  0  0  0  0  0  0  0
   17.9412   -8.9507    0.0000 O   0  0  0  0  0  0  0  0  0  0  0  0
   17.2267   -8.5382    0.0000 C   0  0  2  0  0  0  0  0  0  0  0  0
   17.2267   -7.7132    0.0000 C   0  0  1  0  0  0  0  0  0  0  0  0
   17.9412   -7.3007    0.0000 C   0  0  1  0  0  0  0  0  0  0  0  0
   18.6557   -7.7132    0.0000 C   0  0  2  0  0  0  0  0  0  0  0  0
   18.6557   -8.5382    0.0000 C   0  0  2  0  0  0  0  0  0  0  0  0
   19.3702   -8.9507    0.0000 C   0  0  0  0  0  0  0  0  0  0  0  0
   17.9412   -6.4757    0.0000 O   0  0  0  0  0  0  0  0  0  0  0  0
   16.5123   -7.3007    0.0000 O   0  0  0  0  0  0  0  0  0  0  0  0
   19.3702   -7.3007    0.0000 O   0  0  0  0  0  0  0  0  0  0  0  0
   20.0846   -8.5382    0.0000 O   0  0  0  0  0  0  0  0  0  0  0  0
   20.0846   -7.7132    0.0000 C   0  0  2  0  0  0  0  0  0  0  0  0
   20.7991   -7.3007    0.0000 C   0  0  1  0  0  0  0  0  0  0  0  0
   21.5136   -7.7132    0.0000 C   0  0  2  0  0  0  0  0  0  0  0  0
   21.5136   -8.5382    0.0000 C   0  0  2  0  0  0  0  0  0  0  0  0
   20.7991   -8.9507    0.0000 C   0  0  0  0  0  0  0  0  0  0  0  0
   22.2280   -7.3007    0.0000 O   0  0  0  0  0  0  0  0  0  0  0  0
   22.9425   -8.5382    0.0000 O   0  0  0  0  0  0  0  0  0  0  0  0
   22.9425   -7.7132    0.0000 C   0  0  2  0  0  0  0  0  0  0  0  0
   23.6570   -7.3007    0.0000 C   0  0  1  0  0  0  0  0  0  0  0  0
   24.3714   -7.7132    0.0000 C   0  0  2  0  0  0  0  0  0  0  0  0
   24.3714   -8.5382    0.0000 C   0  0  1  0  0  0  0  0  0  0  0  0
   23.6570   -8.9507    0.0000 C   0  0  0  0  0  0  0  0  0  0  0  0
   25.0859   -8.9507    0.0000 O   0  0  0  0  0  0  0  0  0  0  0  0
   25.0859   -7.3007    0.0000 O   0  0  0  0  0  0  0  0  0  0  0  0
   23.6570   -6.4757    0.0000 O   0  0  0  0  0  0  0  0  0  0  0  0
   22.2280   -8.9507    0.0000 O   0  0  0  0  0  0  0  0  0  0  0  0
   20.7991   -6.4757    0.0000 O   0  0  0  0  0  0  0  0  0  0  0  0
   10.0796  -10.1607    0.0000 C   0  0  0  0  0  0  0  0  0  0  0  0
   10.8078  -11.4262    0.0000 H   0  0  0  0  0  0  0  0  0  0  0  0
   11.5085  -10.1607    0.0000 C   0  0  0  0  0  0  0  0  0  0  0  0
   12.2230  -11.3982    0.0000 C   0  0  0  0  0  0  0  0  0  0  0  0
  1  2  1  0  0  0  0
  2  3  1  0  0  0  0
  3  4  1  0  0  0  0
  4  5  1  0  0  0  0
  5  6  1  0  0  0  0
  6  7  1  0  0  0  0
  7  8  1  0  0  0  0
  8  9  1  0  0  0  0
  9 10  1  0  0  0  0
 10 11  1  0  0  0  0
 11 12  1  0  0  0  0
 12 13  1  0  0  0  0
 13 14  1  0  0  0  0
 14 15  1  0  0  0  0
 15 16  1  0  0  0  0
 16 17  1  0  0  0  0
 12 17  1  0  0  0  0
 17 18  1  0  0  0  0
  9 18  1  0  0  0  0
 18 19  1  0  0  0  0
 19 20  1  0  0  0  0
 20 21  2  0  0  0  0
  8 21  1  0  0  0  0
 21 22  1  0  0  0  0
  5 22  1  0  0  0  0
  1 22  1  0  0  0  0
 23 24  2  0  0  0  0
 23 25  1  0  0  0  0
  5 23  1  1  0  0  0
 27 28  1  0  0  0  0
 28 29  1  0  0  0  0
 29 30  1  0  0  0  0
 30 31  1  0  0  0  0
 31 32  1  0  0  0  0
 27 32  1  0  0  0  0
 35 36  1  0  0  0  0
 36 37  1  0  0  0  0
 37 38  1  0  0  0  0
 38 39  1  0  0  0  0
 39 40  1  0  0  0  0
 35 40  1  0  0  0  0
 39 41  1  1  0  0  0
 38 42  1  1  0  0  0
 37 43  1  6  0  0  0
 36 34  1  1  0  0  0
 33 34  1  0  0  0  0
 32 33  1  1  0  0  0
 31 44  1  6  0  0  0
 30 45  1  1  0  0  0
 29 46  1  6  0  0  0
 28 26  1  1  0  0  0
 14 26  1  1  0  0  0
 13 47  1  0  0  0  0
 13 48  1  0  0  0  0
  2 49  1  0  0  0  0
  2 50  1  0  0  0  0
 15 51  1  1  0  0  0
  6 52  1  6  0  0  0
 12 53  1  6  0  0  0
 22 54  1  1  0  0  0
 55 56  1  0  0  0  0
 56 57  1  0  0  0  0
 57 58  1  0  0  0  0
 58 59  1  0  0  0  0
 59 60  1  0  0  0  0
 55 60  1  0  0  0  0
 59 61  1  6  0  0  0
 58 62  1  1  0  0  0
 64 65  1  0  0  0  0
 65 66  1  0  0  0  0
 66 67  1  0  0  0  0
 67 68  1  0  0  0  0
 68 69  1  0  0  0  0
 64 69  1  0  0  0  0
 69 70  1  6  0  0  0
 67 71  1  6  0  0  0
 66 72  1  6  0  0  0
 74 75  1  0  0  0  0
 75 76  1  0  0  0  0
 76 77  1  0  0  0  0
 77 78  1  0  0  0  0
 78 79  1  0  0  0  0
 74 79  1  0  0  0  0
 81 82  1  0  0  0  0
 82 83  1  0  0  0  0
 83 84  1  0  0  0  0
 84 85  1  0  0  0  0
 85 86  1  0  0  0  0
 81 86  1  0  0  0  0
 85 87  1  6  0  0  0
 84 88  1  1  0  0  0
 83 89  1  6  0  0  0
 82 80  1  1  0  0  0
 77 80  1  1  0  0  0
 78 90  1  1  0  0  0
 76 91  1  6  0  0  0
 75 73  1  1  0  0  0
 68 73  1  1  0  0  0
 65 63  1  1  0  0  0
 57 63  1  6  0  0  0
 56 25  1  1  0  0  0
 17 92  1  1  0  0  0
 18 93  1  6  0  0  0
  9 94  1  1  0  0  0
  8 95  1  6  0  0  0
M  END
>  <cdx:fragmentId>
106616

$$$$
