588778.cdx
  Mrv1902 05222410262D          

 12 13  0  0  0  0            999 V2000
   15.9292  -14.1596    0.0000 C   0  0  0  0  0  0  0  0  0  0  0  0
   16.4141  -13.4922    0.0000 C   0  0  0  0  0  0  0  0  0  0  0  0
   15.9292  -12.8248    0.0000 C   0  0  0  0  0  0  0  0  0  0  0  0
   15.1445  -13.0797    0.0000 C   0  0  0  0  0  0  0  0  0  0  0  0
   14.4301  -12.6672    0.0000 C   0  0  0  0  0  0  0  0  0  0  0  0
   13.7156  -13.0797    0.0000 C   0  0  0  0  0  0  0  0  0  0  0  0
   13.7156  -13.9047    0.0000 C   0  0  0  0  0  0  0  0  0  0  0  0
   14.4301  -14.3172    0.0000 C   0  0  0  0  0  0  0  0  0  0  0  0
   15.1445  -13.9047    0.0000 C   0  0  0  0  0  0  0  0  0  0  0  0
   16.1841  -12.0401    0.0000 C   0  0  0  0  0  0  0  0  0  0  0  0
   17.2391  -13.4922    0.0000 C   0  0  0  0  0  0  0  0  0  0  0  0
   16.1841  -14.9443    0.0000 C   0  0  0  0  0  0  0  0  0  0  0  0
  1  2  1  0  0  0  0
  2  3  2  0  0  0  0
  3  4  1  0  0  0  0
  4  5  1  0  0  0  0
  5  6  2  0  0  0  0
  6  7  1  0  0  0  0
  7  8  2  0  0  0  0
  8  9  1  0  0  0  0
  1  9  1  0  0  0  0
  4  9  2  0  0  0  0
  3 10  1  0  0  0  0
  2 11  1  0  0  0  0
  1 12  1  0  0  0  0
M  END
>  <cdx:groupId>
5238

>  <cdx:fragmentId>
5204

$$$$
