5892.cdx
  Mrv1902 05222410242D          

 34 37  0  0  0  0            999 V2000
    5.6339   -7.3219    0.0000 C   0  0  0  0  0  0  0  0  0  0  0  0
    5.6339   -8.1469    0.0000 C   0  0  0  0  0  0  0  0  0  0  0  0
    6.3484   -8.5594    0.0000 C   0  0  0  0  0  0  0  0  0  0  0  0
    7.0628   -8.1469    0.0000 C   0  0  0  0  0  0  0  0  0  0  0  0
    7.0628   -7.3219    0.0000 C   0  0  0  0  0  0  0  0  0  0  0  0
    6.3484   -6.9094    0.0000 C   0  0  0  0  0  0  0  0  0  0  0  0
    7.7773   -8.5594    0.0000 C   0  0  0  0  0  0  0  0  0  0  0  0
    8.4918   -8.1469    0.0000 C   0  0  0  0  0  0  0  0  0  0  0  0
    8.4918   -7.3219    0.0000 C   0  0  0  0  0  0  0  0  0  0  0  0
    7.7773   -6.9094    0.0000 O   0  0  0  0  0  0  0  0  0  0  0  0
    9.9207   -8.1469    0.0000 O   0  0  0  0  0  0  0  0  0  0  0  0
   10.6352   -6.9094    0.0000 C   0  0  0  0  0  0  0  0  0  0  0  0
   10.6352   -6.0844    0.0000 C   0  0  0  0  0  0  0  0  0  0  0  0
    9.9207   -5.6719    0.0000 C   0  0  0  0  0  0  0  0  0  0  0  0
    9.2063   -6.0844    0.0000 C   0  0  0  0  0  0  0  0  0  0  0  0
    7.7773   -9.3844    0.0000 O   0  0  0  0  0  0  0  0  0  0  0  0
    6.3484   -9.3844    0.0000 O   0  0  0  0  0  0  0  0  0  0  0  0
    4.9194   -6.9094    0.0000 O   0  0  0  0  0  0  0  0  0  0  0  0
    9.9207   -7.3219    0.0000 C   0  0  0  0  0  0  0  0  0  0  0  0
    9.2063   -6.9094    0.0000 C   0  0  0  0  0  0  0  0  0  0  0  0
    4.9194   -8.5594    0.0000 O   0  0  0  0  0  0  0  0  0  0  0  0
    5.6140   -4.8386    0.0000 C   0  0  2  0  0  0  0  0  0  0  0  0
    4.9010   -4.4235    0.0000 C   0  0  2  0  0  0  0  0  0  0  0  0
    4.1850   -4.8334    0.0000 C   0  0  1  0  0  0  0  0  0  0  0  0
    4.1820   -5.6584    0.0000 C   0  0  2  0  0  0  0  0  0  0  0  0
    4.8950   -6.0735    0.0000 C   0  0  1  0  0  0  0  0  0  0  0  0
    5.6110   -5.6636    0.0000 O   0  0  0  0  0  0  0  0  0  0  0  0
    6.3299   -4.4287    0.0000 C   0  0  0  0  0  0  0  0  0  0  0  0
    3.4721   -4.4183    0.0000 O   0  0  0  0  0  0  0  0  0  0  0  0
    3.4660   -6.0683    0.0000 O   0  0  0  0  0  0  0  0  0  0  0  0
    4.9040   -3.5985    0.0000 O   0  0  0  0  0  0  0  0  0  0  0  0
    6.3330   -3.6037    0.0000 O   0  0  0  0  0  0  0  0  0  0  0  0
    4.9194   -9.3844    0.0000 C   0  0  0  0  0  0  0  0  0  0  0  0
    7.0429   -4.8438    0.0000 O   0  0  0  0  0  0  0  0  0  0  0  0
  1  2  2  0  0  0  0
  2  3  1  0  0  0  0
  3  4  2  0  0  0  0
  4  5  1  0  0  0  0
  5  6  2  0  0  0  0
  6  1  1  0  0  0  0
  4  7  1  0  0  0  0
  7  8  1  0  0  0  0
  8  9  2  0  0  0  0
  9 10  1  0  0  0  0
 10  5  1  0  0  0  0
 19 11  1  0  0  0  0
  9 20  1  0  0  0  0
 12 19  2  0  0  0  0
 13 12  1  0  0  0  0
 14 13  2  0  0  0  0
 15 14  1  0  0  0  0
 20 15  2  0  0  0  0
 20 19  1  0  0  0  0
  7 16  2  0  0  0  0
  3 17  1  0  0  0  0
  1 18  1  0  0  0  0
  2 21  1  0  0  0  0
 22 23  1  0  0  0  0
 23 24  1  0  0  0  0
 24 25  1  0  0  0  0
 25 26  1  0  0  0  0
 26 27  1  0  0  0  0
 27 22  1  0  0  0  0
 22 28  1  1  0  0  0
 24 29  1  1  0  0  0
 25 30  1  6  0  0  0
 23 31  1  6  0  0  0
 28 32  1  0  0  0  0
 26 18  1  1  0  0  0
 21 33  1  0  0  0  0
 28 34  2  0  0  0  0
M  END
>  <cdx:fragmentId>
112

$$$$
