589433.cdx
  Mrv1902 05222410212D          

 19 21  0  0  0  0            999 V2000
    5.9066   -7.5037    0.0000 C   0  0  0  0  0  0  0  0  0  0  0  0
    5.4296   -8.1769    0.0000 C   0  0  0  0  0  0  0  0  0  0  0  0
    5.9224   -8.8385    0.0000 C   0  0  2  0  0  0  0  0  0  0  0  0
    6.7039   -8.5743    0.0000 C   0  0  1  0  0  0  0  0  0  0  0  0
    7.3550   -9.0810    0.0000 C   0  0  1  0  0  0  0  0  0  0  0  0
    8.1571   -8.8879    0.0000 C   0  0  1  0  0  0  0  0  0  0  0  0
    8.5062   -8.1404    0.0000 C   0  0  0  0  0  0  0  0  0  0  0  0
    8.1395   -7.4014    0.0000 C   0  0  0  0  0  0  0  0  0  0  0  0
    7.3330   -7.2274    0.0000 C   0  0  0  0  0  0  0  0  0  0  0  0
    6.6942   -7.7494    0.0000 C   0  0  2  0  0  0  0  0  0  0  0  0
    7.9232   -9.6791    0.0000 C   0  0  0  0  0  0  0  0  0  0  0  0
    7.1399   -6.4253    0.0000 C   0  0  0  0  0  0  0  0  0  0  0  0
    5.6767   -9.6261    0.0000 C   0  0  0  0  0  0  0  0  0  0  0  0
    8.4915  -10.2772    0.0000 C   0  0  0  0  0  0  0  0  0  0  0  0
    7.6894  -10.4703    0.0000 C   0  0  0  0  0  0  0  0  0  0  0  0
    8.9286   -9.1802    0.0000 H   0  0  0  0  0  0  0  0  0  0  0  0
    6.5372   -6.9394    0.0000 H   0  0  0  0  0  0  0  0  0  0  0  0
    6.5703   -9.3884    0.0000 H   0  0  0  0  0  0  0  0  0  0  0  0
    6.9156   -9.7793    0.0000 H   0  0  0  0  0  0  0  0  0  0  0  0
  1  2  1  0  0  0  0
  2  3  1  0  0  0  0
  3  4  1  0  0  0  0
  4  5  1  0  0  0  0
  5  6  1  0  0  0  0
  6  7  1  0  0  0  0
  7  8  1  0  0  0  0
  8  9  2  0  0  0  0
  9 10  1  0  0  0  0
  1 10  1  0  0  0  0
  4 10  1  0  0  0  0
 11  5  1  0  0  0  0
 11  6  1  0  0  0  0
  9 12  1  0  0  0  0
  3 13  1  6  0  0  0
 11 14  1  0  0  0  0
 11 15  1  0  0  0  0
  6 16  1  6  0  0  0
 10 17  1  6  0  0  0
  4 18  1  1  0  0  0
  5 19  1  6  0  0  0
M  END
>  <cdx:fragmentId>
5

$$$$
