102589620.cdx
  Mrv1902 05222410222D          

 74 82  0  0  0  0            999 V2000
    8.9009  -13.3793    0.0000 C   0  0  0  0  0  0  0  0  0  0  0  0
    8.1865  -12.9668    0.0000 C   0  0  0  0  0  0  0  0  0  0  0  0
    7.4720  -13.3793    0.0000 C   0  0  0  0  0  0  0  0  0  0  0  0
    6.7575  -12.9668    0.0000 C   0  0  0  0  0  0  0  0  0  0  0  0
    6.7575  -12.1418    0.0000 C   0  0  0  0  0  0  0  0  0  0  0  0
    7.4720  -11.7293    0.0000 C   0  0  0  0  0  0  0  0  0  0  0  0
    8.1865  -12.1418    0.0000 C   0  0  0  0  0  0  0  0  0  0  0  0
    8.9009  -14.2043    0.0000 O   0  0  0  0  0  0  0  0  0  0  0  0
    9.6154  -12.9668    0.0000 O   0  0  0  0  0  0  0  0  0  0  0  0
   11.4730  -14.8643    0.0000 C   0  0  2  0  0  0  0  0  0  0  0  0
   12.1875  -15.2768    0.0000 O   0  0  0  0  0  0  0  0  0  0  0  0
   12.1875  -14.4518    0.0000 C   0  0  1  0  0  0  0  0  0  0  0  0
   12.9721  -14.7067    0.0000 C   0  0  0  0  0  0  0  0  0  0  0  0
   13.4570  -14.0393    0.0000 C   0  0  0  0  0  0  0  0  0  0  0  0
   12.9721  -13.3719    0.0000 C   0  0  2  0  0  0  0  0  0  0  0  0
   12.1875  -13.6268    0.0000 C   0  0  1  0  0  0  0  0  0  0  0  0
   11.4730  -13.2143    0.0000 C   0  0  1  0  0  0  0  0  0  0  0  0
   10.7586  -13.6268    0.0000 C   0  0  2  0  0  0  0  0  0  0  0  0
   10.7586  -14.4518    0.0000 C   0  0  2  0  0  0  0  0  0  0  0  0
   10.0441  -14.8643    0.0000 C   0  0  1  0  0  0  0  0  0  0  0  0
    9.3296  -14.4518    0.0000 C   0  0  0  0  0  0  0  0  0  0  0  0
    8.6151  -14.8643    0.0000 C   0  0  0  0  0  0  0  0  0  0  0  0
    8.6151  -15.6893    0.0000 C   0  0  1  0  0  0  0  0  0  0  0  0
    9.3296  -16.1018    0.0000 C   0  0  0  0  0  0  0  0  0  0  0  0
   10.0441  -15.6893    0.0000 C   0  0  2  0  0  0  0  0  0  0  0  0
   10.7586  -16.1018    0.0000 C   0  0  0  0  0  0  0  0  0  0  0  0
   11.4730  -15.6893    0.0000 C   0  0  0  0  0  0  0  0  0  0  0  0
   11.4730  -12.3893    0.0000 O   0  0  0  0  0  0  0  0  0  0  0  0
   10.7586  -11.9768    0.0000 C   0  0  0  0  0  0  0  0  0  0  0  0
   10.7586  -11.1518    0.0000 C   0  0  0  0  0  0  0  0  0  0  0  0
   10.0441  -10.7393    0.0000 C   0  0  0  0  0  0  0  0  0  0  0  0
   10.0441   -9.9143    0.0000 C   0  0  0  0  0  0  0  0  0  0  0  0
   10.0441  -12.3893    0.0000 O   0  0  0  0  0  0  0  0  0  0  0  0
   11.4730  -10.7393    0.0000 C   0  0  0  0  0  0  0  0  0  0  0  0
   10.0441  -14.0393    0.0000 C   0  0  0  0  0  0  0  0  0  0  0  0
   12.2737  -12.8063    0.0000 C   0  0  0  0  0  0  0  0  0  0  0  0
    7.9007  -16.1018    0.0000 O   0  0  0  0  0  0  0  0  0  0  0  0
    7.1862  -14.8643    0.0000 O   0  0  0  0  0  0  0  0  0  0  0  0
    7.1862  -15.6893    0.0000 C   0  0  2  0  0  0  0  0  0  0  0  0
    6.4717  -16.1018    0.0000 C   0  0  0  0  0  0  0  0  0  0  0  0
    5.7573  -15.6893    0.0000 C   0  0  2  0  0  0  0  0  0  0  0  0
    5.7573  -14.8643    0.0000 C   0  0  1  0  0  0  0  0  0  0  0  0
    6.4717  -14.4518    0.0000 C   0  0  1  0  0  0  0  0  0  0  0  0
    6.4717  -13.6268    0.0000 C   0  0  0  0  0  0  0  0  0  0  0  0
    5.0428  -16.1018    0.0000 O   0  0  0  0  0  0  0  0  0  0  0  0
    5.0428  -16.9268    0.0000 C   0  0  0  0  0  0  0  0  0  0  0  0
    5.0428  -14.4518    0.0000 O   0  0  0  0  0  0  0  0  0  0  0  0
    4.3283  -15.6893    0.0000 O   0  0  0  0  0  0  0  0  0  0  0  0
    4.3283  -14.8643    0.0000 C   0  0  2  0  0  0  0  0  0  0  0  0
    3.6138  -14.4518    0.0000 C   0  0  1  0  0  0  0  0  0  0  0  0
    2.8994  -14.8643    0.0000 C   0  0  1  0  0  0  0  0  0  0  0  0
    2.8994  -15.6893    0.0000 C   0  0  1  0  0  0  0  0  0  0  0  0
    3.6138  -16.1018    0.0000 C   0  0  1  0  0  0  0  0  0  0  0  0
    2.1849  -16.1018    0.0000 O   0  0  0  0  0  0  0  0  0  0  0  0
    2.8994  -17.3393    0.0000 O   0  0  0  0  0  0  0  0  0  0  0  0
    2.1849  -16.9268    0.0000 C   0  0  2  0  0  0  0  0  0  0  0  0
    1.4704  -17.3393    0.0000 C   0  0  1  0  0  0  0  0  0  0  0  0
    1.4704  -18.1643    0.0000 C   0  0  2  0  0  0  0  0  0  0  0  0
    2.1849  -18.5768    0.0000 C   0  0  1  0  0  0  0  0  0  0  0  0
    2.8994  -18.1643    0.0000 C   0  0  1  0  0  0  0  0  0  0  0  0
    3.6138  -18.5768    0.0000 C   0  0  0  0  0  0  0  0  0  0  0  0
    4.3283  -18.1643    0.0000 O   0  0  0  0  0  0  0  0  0  0  0  0
    2.1849  -19.4018    0.0000 O   0  0  0  0  0  0  0  0  0  0  0  0
    0.7560  -18.5768    0.0000 O   0  0  0  0  0  0  0  0  0  0  0  0
    0.7560  -16.9268    0.0000 O   0  0  0  0  0  0  0  0  0  0  0  0
    3.6138  -16.9268    0.0000 C   0  0  0  0  0  0  0  0  0  0  0  0
    2.1849  -14.4518    0.0000 O   0  0  0  0  0  0  0  0  0  0  0  0
    1.4704  -14.8643    0.0000 C   0  0  0  0  0  0  0  0  0  0  0  0
    3.6138  -13.6268    0.0000 O   0  0  0  0  0  0  0  0  0  0  0  0
   13.2271  -12.5872    0.0000 C   0  0  0  0  0  0  0  0  0  0  0  0
   12.6750  -11.9741    0.0000 O   0  0  0  0  0  0  0  0  0  0  0  0
   14.0340  -12.4157    0.0000 C   0  0  0  0  0  0  0  0  0  0  0  0
   10.7586  -15.2768    0.0000 H   0  0  0  0  0  0  0  0  0  0  0  0
   10.0441  -16.5143    0.0000 H   0  0  0  0  0  0  0  0  0  0  0  0
  1  2  1  0  0  0  0
  2  3  1  0  0  0  0
  3  4  2  0  0  0  0
  4  5  1  0  0  0  0
  5  6  2  0  0  0  0
  6  7  1  0  0  0  0
  2  7  2  0  0  0  0
  1  8  2  0  0  0  0
  1  9  1  0  0  0  0
 10 11  1  1  0  0  0
 12 11  1  1  0  0  0
 12 13  1  0  0  0  0
 13 14  1  0  0  0  0
 14 15  1  0  0  0  0
 15 16  1  0  0  0  0
 16 17  1  0  0  0  0
 17 18  1  0  0  0  0
 18 19  1  0  0  0  0
 19 20  1  0  0  0  0
 20 21  1  0  0  0  0
 21 22  1  0  0  0  0
 22 23  1  0  0  0  0
 23 24  1  0  0  0  0
 24 25  1  0  0  0  0
 25 26  1  0  0  0  0
 26 27  1  0  0  0  0
 10 27  1  0  0  0  0
 10 19  1  0  0  0  0
 20 25  1  0  0  0  0
 12 16  1  0  0  0  0
 10 12  1  0  0  0  0
 29 30  1  0  0  0  0
 30 31  2  0  0  0  0
 31 32  1  0  0  0  0
 29 33  2  0  0  0  0
 30 34  1  0  0  0  0
 28 29  1  0  0  0  0
 17 28  1  1  0  0  0
 20 35  1  1  0  0  0
 16 36  1  1  0  0  0
 38 39  1  0  0  0  0
 39 40  1  0  0  0  0
 40 41  1  0  0  0  0
 41 42  1  0  0  0  0
 42 43  1  0  0  0  0
 38 43  1  0  0  0  0
 43 44  1  1  0  0  0
 45 46  1  0  0  0  0
 41 45  1  1  0  0  0
 48 49  1  0  0  0  0
 49 50  1  0  0  0  0
 50 51  1  0  0  0  0
 51 52  1  0  0  0  0
 52 53  1  0  0  0  0
 48 53  1  0  0  0  0
 55 56  1  0  0  0  0
 56 57  1  0  0  0  0
 57 58  1  0  0  0  0
 58 59  1  0  0  0  0
 59 60  1  0  0  0  0
 55 60  1  0  0  0  0
 61 62  1  0  0  0  0
 60 61  1  6  0  0  0
 59 63  1  1  0  0  0
 58 64  1  6  0  0  0
 57 65  1  1  0  0  0
 56 54  1  6  0  0  0
 52 54  1  1  0  0  0
 53 66  1  6  0  0  0
 67 68  1  0  0  0  0
 51 67  1  1  0  0  0
 50 69  1  1  0  0  0
 49 47  1  6  0  0  0
 42 47  1  6  0  0  0
 39 37  1  1  0  0  0
 23 37  1  1  0  0  0
 70 71  2  0  0  0  0
 70 72  1  0  0  0  0
 15 70  1  6  0  0  0
 18  9  1  6  0  0  0
 19 73  1  6  0  0  0
 25 74  1  6  0  0  0
M  END
>  <cdx:groupId>
41828

>  <cdx:fragmentId>
41709

$$$$
