102589619.cdx
  Mrv1902 05222410212D          

 72 79  0  0  0  0            999 V2000
    8.9009  -13.3793    0.0000 C   0  0  0  0  0  0  0  0  0  0  0  0
    8.1865  -12.9668    0.0000 C   0  0  0  0  0  0  0  0  0  0  0  0
    7.4720  -13.3793    0.0000 C   0  0  0  0  0  0  0  0  0  0  0  0
    6.7575  -12.9668    0.0000 C   0  0  0  0  0  0  0  0  0  0  0  0
    8.9009  -14.2043    0.0000 O   0  0  0  0  0  0  0  0  0  0  0  0
    9.6154  -12.9668    0.0000 O   0  0  0  0  0  0  0  0  0  0  0  0
    8.1865  -12.1418    0.0000 C   0  0  0  0  0  0  0  0  0  0  0  0
   11.4730  -14.8643    0.0000 C   0  0  2  0  0  0  0  0  0  0  0  0
   12.1875  -15.2768    0.0000 O   0  0  0  0  0  0  0  0  0  0  0  0
   12.1875  -14.4518    0.0000 C   0  0  1  0  0  0  0  0  0  0  0  0
   12.9721  -14.7067    0.0000 C   0  0  0  0  0  0  0  0  0  0  0  0
   13.4570  -14.0393    0.0000 C   0  0  0  0  0  0  0  0  0  0  0  0
   12.9721  -13.3719    0.0000 C   0  0  2  0  0  0  0  0  0  0  0  0
   12.1875  -13.6268    0.0000 C   0  0  1  0  0  0  0  0  0  0  0  0
   11.4730  -13.2143    0.0000 C   0  0  1  0  0  0  0  0  0  0  0  0
   10.7586  -13.6268    0.0000 C   0  0  2  0  0  0  0  0  0  0  0  0
   10.7586  -14.4518    0.0000 C   0  0  2  0  0  0  0  0  0  0  0  0
   10.0441  -14.8643    0.0000 C   0  0  1  0  0  0  0  0  0  0  0  0
    9.3296  -14.4518    0.0000 C   0  0  0  0  0  0  0  0  0  0  0  0
    8.6151  -14.8643    0.0000 C   0  0  0  0  0  0  0  0  0  0  0  0
    8.6151  -15.6893    0.0000 C   0  0  1  0  0  0  0  0  0  0  0  0
    9.3296  -16.1018    0.0000 C   0  0  0  0  0  0  0  0  0  0  0  0
   10.0441  -15.6893    0.0000 C   0  0  2  0  0  0  0  0  0  0  0  0
   10.7586  -16.1018    0.0000 C   0  0  0  0  0  0  0  0  0  0  0  0
   11.4730  -15.6893    0.0000 C   0  0  0  0  0  0  0  0  0  0  0  0
   11.4730  -12.3893    0.0000 O   0  0  0  0  0  0  0  0  0  0  0  0
   10.7586  -11.9768    0.0000 C   0  0  0  0  0  0  0  0  0  0  0  0
   10.7586  -11.1518    0.0000 C   0  0  0  0  0  0  0  0  0  0  0  0
   10.0441  -10.7393    0.0000 C   0  0  0  0  0  0  0  0  0  0  0  0
   10.0441   -9.9143    0.0000 C   0  0  0  0  0  0  0  0  0  0  0  0
   10.0441  -12.3893    0.0000 O   0  0  0  0  0  0  0  0  0  0  0  0
   11.4730  -10.7393    0.0000 C   0  0  0  0  0  0  0  0  0  0  0  0
   10.0441  -14.0393    0.0000 C   0  0  0  0  0  0  0  0  0  0  0  0
   12.2737  -12.8063    0.0000 C   0  0  0  0  0  0  0  0  0  0  0  0
    7.9007  -16.1018    0.0000 O   0  0  0  0  0  0  0  0  0  0  0  0
    7.1862  -14.8643    0.0000 O   0  0  0  0  0  0  0  0  0  0  0  0
    7.1862  -15.6893    0.0000 C   0  0  2  0  0  0  0  0  0  0  0  0
    6.4717  -16.1018    0.0000 C   0  0  0  0  0  0  0  0  0  0  0  0
    5.7573  -15.6893    0.0000 C   0  0  2  0  0  0  0  0  0  0  0  0
    5.7573  -14.8643    0.0000 C   0  0  1  0  0  0  0  0  0  0  0  0
    6.4717  -14.4518    0.0000 C   0  0  1  0  0  0  0  0  0  0  0  0
    6.4717  -13.6268    0.0000 C   0  0  0  0  0  0  0  0  0  0  0  0
    5.0428  -16.1018    0.0000 O   0  0  0  0  0  0  0  0  0  0  0  0
    5.0428  -16.9268    0.0000 C   0  0  0  0  0  0  0  0  0  0  0  0
    5.0428  -14.4518    0.0000 O   0  0  0  0  0  0  0  0  0  0  0  0
    4.3283  -15.6893    0.0000 O   0  0  0  0  0  0  0  0  0  0  0  0
    4.3283  -14.8643    0.0000 C   0  0  2  0  0  0  0  0  0  0  0  0
    3.6138  -14.4518    0.0000 C   0  0  1  0  0  0  0  0  0  0  0  0
    2.8994  -14.8643    0.0000 C   0  0  1  0  0  0  0  0  0  0  0  0
    2.8994  -15.6893    0.0000 C   0  0  1  0  0  0  0  0  0  0  0  0
    3.6138  -16.1018    0.0000 C   0  0  1  0  0  0  0  0  0  0  0  0
    2.1849  -16.1018    0.0000 O   0  0  0  0  0  0  0  0  0  0  0  0
    2.8994  -17.3393    0.0000 O   0  0  0  0  0  0  0  0  0  0  0  0
    2.1849  -16.9268    0.0000 C   0  0  2  0  0  0  0  0  0  0  0  0
    1.4704  -17.3393    0.0000 C   0  0  1  0  0  0  0  0  0  0  0  0
    1.4704  -18.1643    0.0000 C   0  0  2  0  0  0  0  0  0  0  0  0
    2.1849  -18.5768    0.0000 C   0  0  1  0  0  0  0  0  0  0  0  0
    2.8994  -18.1643    0.0000 C   0  0  1  0  0  0  0  0  0  0  0  0
    3.6138  -18.5768    0.0000 C   0  0  0  0  0  0  0  0  0  0  0  0
    4.3283  -18.1643    0.0000 O   0  0  0  0  0  0  0  0  0  0  0  0
    2.1849  -19.4018    0.0000 O   0  0  0  0  0  0  0  0  0  0  0  0
    0.7560  -18.5768    0.0000 O   0  0  0  0  0  0  0  0  0  0  0  0
    0.7560  -16.9268    0.0000 O   0  0  0  0  0  0  0  0  0  0  0  0
    3.6138  -16.9268    0.0000 C   0  0  0  0  0  0  0  0  0  0  0  0
    2.1849  -14.4518    0.0000 O   0  0  0  0  0  0  0  0  0  0  0  0
    1.4704  -14.8643    0.0000 C   0  0  0  0  0  0  0  0  0  0  0  0
    3.6138  -13.6268    0.0000 O   0  0  0  0  0  0  0  0  0  0  0  0
   13.2271  -12.5872    0.0000 C   0  0  0  0  0  0  0  0  0  0  0  0
   12.6750  -11.9741    0.0000 O   0  0  0  0  0  0  0  0  0  0  0  0
   14.0340  -12.4157    0.0000 C   0  0  0  0  0  0  0  0  0  0  0  0
   10.7586  -15.2768    0.0000 H   0  0  0  0  0  0  0  0  0  0  0  0
   10.0441  -16.5143    0.0000 H   0  0  0  0  0  0  0  0  0  0  0  0
  1  2  1  0  0  0  0
  2  3  1  0  0  0  0
  3  4  1  0  0  0  0
  1  5  2  0  0  0  0
  1  6  1  0  0  0  0
  2  7  1  0  0  0  0
  8  9  1  1  0  0  0
 10  9  1  1  0  0  0
 10 11  1  0  0  0  0
 11 12  1  0  0  0  0
 12 13  1  0  0  0  0
 13 14  1  0  0  0  0
 14 15  1  0  0  0  0
 15 16  1  0  0  0  0
 16 17  1  0  0  0  0
 17 18  1  0  0  0  0
 18 19  1  0  0  0  0
 19 20  1  0  0  0  0
 20 21  1  0  0  0  0
 21 22  1  0  0  0  0
 22 23  1  0  0  0  0
 23 24  1  0  0  0  0
 24 25  1  0  0  0  0
  8 25  1  0  0  0  0
  8 17  1  0  0  0  0
 18 23  1  0  0  0  0
 10 14  1  0  0  0  0
  8 10  1  0  0  0  0
 27 28  1  0  0  0  0
 28 29  2  0  0  0  0
 29 30  1  0  0  0  0
 27 31  2  0  0  0  0
 28 32  1  0  0  0  0
 26 27  1  0  0  0  0
 15 26  1  1  0  0  0
 18 33  1  1  0  0  0
 14 34  1  1  0  0  0
 36 37  1  0  0  0  0
 37 38  1  0  0  0  0
 38 39  1  0  0  0  0
 39 40  1  0  0  0  0
 40 41  1  0  0  0  0
 36 41  1  0  0  0  0
 41 42  1  1  0  0  0
 43 44  1  0  0  0  0
 39 43  1  1  0  0  0
 46 47  1  0  0  0  0
 47 48  1  0  0  0  0
 48 49  1  0  0  0  0
 49 50  1  0  0  0  0
 50 51  1  0  0  0  0
 46 51  1  0  0  0  0
 53 54  1  0  0  0  0
 54 55  1  0  0  0  0
 55 56  1  0  0  0  0
 56 57  1  0  0  0  0
 57 58  1  0  0  0  0
 53 58  1  0  0  0  0
 59 60  1  0  0  0  0
 58 59  1  6  0  0  0
 57 61  1  1  0  0  0
 56 62  1  6  0  0  0
 55 63  1  1  0  0  0
 54 52  1  6  0  0  0
 50 52  1  1  0  0  0
 51 64  1  6  0  0  0
 65 66  1  0  0  0  0
 49 65  1  1  0  0  0
 48 67  1  1  0  0  0
 47 45  1  6  0  0  0
 40 45  1  6  0  0  0
 37 35  1  1  0  0  0
 21 35  1  1  0  0  0
 68 69  2  0  0  0  0
 68 70  1  0  0  0  0
 13 68  1  6  0  0  0
 16  6  1  6  0  0  0
 17 71  1  6  0  0  0
 23 72  1  6  0  0  0
M  END
>  <cdx:groupId>
41576

>  <cdx:fragmentId>
41460

$$$$
