589787.cdx
  Mrv1902 05222410212D          

 28 29  0  0  0  0            999 V2000
    3.6252   -9.9565    0.0000 O   0  0  0  0  0  0  0  0  0  0  0  0
    4.3383  -10.3714    0.0000 C   0  0  2  0  0  0  0  0  0  0  0  0
    4.3356  -11.1964    0.0000 C   0  0  1  0  0  0  0  0  0  0  0  0
    3.6198  -11.6065    0.0000 C   0  0  2  0  0  0  0  0  0  0  0  0
    2.9067  -11.1917    0.0000 C   0  0  1  0  0  0  0  0  0  0  0  0
    2.9094  -10.3667    0.0000 C   0  0  1  0  0  0  0  0  0  0  0  0
    2.1963   -9.9519    0.0000 C   0  0  0  0  0  0  0  0  0  0  0  0
    1.4804  -10.3620    0.0000 O   0  0  0  0  0  0  0  0  0  0  0  0
    2.1909  -11.6018    0.0000 O   0  0  0  0  0  0  0  0  0  0  0  0
    3.6171  -12.4315    0.0000 O   0  0  0  0  0  0  0  0  0  0  0  0
    5.0487  -11.6112    0.0000 O   0  0  0  0  0  0  0  0  0  0  0  0
    6.4858   -9.1409    0.0000 O   0  0  0  0  0  0  0  0  0  0  0  0
    5.0541   -9.9612    0.0000 O   0  0  0  0  0  0  0  0  0  0  0  0
    5.0568   -9.1362    0.0000 C   0  0  0  0  0  0  0  0  0  0  0  0
    5.7727   -8.7261    0.0000 C   0  0  1  0  0  0  0  0  0  0  0  0
    5.7754   -7.9011    0.0000 C   0  0  0  0  0  0  0  0  0  0  0  0
   10.0757   -3.7902    0.0000 O   0  0  0  0  0  0  0  0  0  0  0  0
    7.9309   -4.1956    0.0000 C   0  0  0  0  0  0  0  0  0  0  0  0
    8.6468   -3.7855    0.0000 C   0  0  0  0  0  0  0  0  0  0  0  0
    9.3599   -4.2003    0.0000 C   0  0  0  0  0  0  0  0  0  0  0  0
    9.3572   -5.0253    0.0000 C   0  0  0  0  0  0  0  0  0  0  0  0
    8.6414   -5.4355    0.0000 C   0  0  0  0  0  0  0  0  0  0  0  0
    7.9282   -5.0206    0.0000 C   0  0  0  0  0  0  0  0  0  0  0  0
    6.4912   -7.4909    0.0000 O   0  0  0  0  0  0  0  0  0  0  0  0
    5.7808   -6.2511    0.0000 O   0  0  0  0  0  0  0  0  0  0  0  0
    7.2124   -5.4308    0.0000 C   0  0  0  0  0  0  0  0  0  0  0  0
    7.2097   -6.2558    0.0000 C   0  0  0  0  0  0  0  0  0  0  0  0
    6.4939   -6.6659    0.0000 C   0  0  0  0  0  0  0  0  0  0  0  0
 24 16  1  0  0  0  0
 15 12  1  1  0  0  0
 14 13  1  0  0  0  0
 15 14  1  0  0  0  0
 16 15  1  0  0  0  0
 26 23  1  0  0  0  0
 20 17  1  0  0  0  0
 23 18  2  0  0  0  0
 19 18  1  0  0  0  0
 20 19  2  0  0  0  0
 21 20  1  0  0  0  0
 22 21  2  0  0  0  0
 23 22  1  0  0  0  0
 28 24  1  0  0  0  0
 28 25  2  0  0  0  0
 27 26  2  0  0  0  0
 28 27  1  0  0  0  0
  1  2  1  0  0  0  0
  2  3  1  0  0  0  0
  3  4  1  0  0  0  0
  4  5  1  0  0  0  0
  5  6  1  0  0  0  0
  1  6  1  0  0  0  0
  7  8  1  0  0  0  0
  6  7  1  1  0  0  0
  5  9  1  6  0  0  0
  4 10  1  1  0  0  0
  3 11  1  6  0  0  0
  2 13  1  1  0  0  0
M  END
>  <cdx:fragmentId>
7796

$$$$
