589751.cdx
  Mrv1902 05222410212D          

 11 12  0  0  0  0            999 V2000
    8.3684   -6.9056    0.0000 N   0  0  0  0  0  0  0  0  0  0  0  0
    8.8533   -6.2381    0.0000 N   0  0  0  0  0  0  0  0  0  0  0  0
    8.3684   -5.5707    0.0000 C   0  0  0  0  0  0  0  0  0  0  0  0
    7.5837   -5.8256    0.0000 C   0  0  0  0  0  0  0  0  0  0  0  0
    6.8693   -5.4131    0.0000 C   0  0  0  0  0  0  0  0  0  0  0  0
    6.1548   -5.8256    0.0000 C   0  0  0  0  0  0  0  0  0  0  0  0
    6.1548   -6.6506    0.0000 C   0  0  0  0  0  0  0  0  0  0  0  0
    6.8693   -7.0631    0.0000 C   0  0  0  0  0  0  0  0  0  0  0  0
    7.5837   -6.6506    0.0000 C   0  0  0  0  0  0  0  0  0  0  0  0
    6.8693   -7.8881    0.0000 C   0  0  0  0  0  0  0  0  0  0  0  0
    5.4403   -5.4131    0.0000 C   0  0  0  0  0  0  0  0  0  0  0  0
  1  2  1  0  0  0  0
  2  3  2  0  0  0  0
  3  4  1  0  0  0  0
  4  5  1  0  0  0  0
  5  6  2  0  0  0  0
  6  7  1  0  0  0  0
  7  8  2  0  0  0  0
  8  9  1  0  0  0  0
  1  9  1  0  0  0  0
  4  9  2  0  0  0  0
  8 10  1  0  0  0  0
  6 11  1  0  0  0  0
M  END
>  <cdx:fragmentId>
5418

$$$$
