589741.cdx
  Mrv1902 05222410222D          

 11 12  0  0  0  0            999 V2000
    8.6709   -7.9339    0.0000 N   0  0  0  0  0  0  0  0  0  0  0  0
    9.1558   -7.2665    0.0000 N   0  0  0  0  0  0  0  0  0  0  0  0
    8.6709   -6.5990    0.0000 C   0  0  0  0  0  0  0  0  0  0  0  0
    7.8862   -6.8540    0.0000 C   0  0  0  0  0  0  0  0  0  0  0  0
    7.1718   -6.4415    0.0000 C   0  0  0  0  0  0  0  0  0  0  0  0
    6.4573   -6.8540    0.0000 C   0  0  0  0  0  0  0  0  0  0  0  0
    6.4573   -7.6790    0.0000 C   0  0  0  0  0  0  0  0  0  0  0  0
    7.1718   -8.0915    0.0000 C   0  0  0  0  0  0  0  0  0  0  0  0
    7.8862   -7.6790    0.0000 C   0  0  0  0  0  0  0  0  0  0  0  0
    5.7428   -8.0915    0.0000 C   0  0  0  0  0  0  0  0  0  0  0  0
    8.9258   -5.8144    0.0000 C   0  0  0  0  0  0  0  0  0  0  0  0
  1  2  1  0  0  0  0
  2  3  1  0  0  0  0
  3  4  2  0  0  0  0
  4  5  1  0  0  0  0
  5  6  2  0  0  0  0
  6  7  1  0  0  0  0
  7  8  2  0  0  0  0
  8  9  1  0  0  0  0
  1  9  2  0  0  0  0
  4  9  1  0  0  0  0
  7 10  1  0  0  0  0
  3 11  1  0  0  0  0
M  END
>  <cdx:fragmentId>
5295

$$$$
