589742.cdx
  Mrv1902 05222410232D          

 25 29  0  0  0  0            999 V2000
    7.2753   -8.6391    0.0000 C   0  0  0  0  0  0  0  0  0  0  0  0
    7.9898   -8.2266    0.0000 C   0  0  0  0  0  0  0  0  0  0  0  0
    8.1613   -7.4196    0.0000 O   0  0  0  0  0  0  0  0  0  0  0  0
    8.9818   -7.3334    0.0000 B   0  0  0  0  0  0  0  0  0  0  0  0
    9.3173   -8.0871    0.0000 O   0  0  0  0  0  0  0  0  0  0  0  0
    8.7042   -8.6391    0.0000 C   0  0  0  0  0  0  0  0  0  0  0  0
    8.7042   -9.4641    0.0000 O   0  0  0  0  0  0  0  0  0  0  0  0
    7.9898   -9.8766    0.0000 C   0  0  0  0  0  0  0  0  0  0  0  0
    7.2753   -9.4641    0.0000 C   0  0  0  0  0  0  0  0  0  0  0  0
    6.4907   -9.7190    0.0000 O   0  0  0  0  0  0  0  0  0  0  0  0
    6.0057   -9.0516    0.0000 B   0  0  0  0  0  0  0  0  0  0  0  0
    6.4907   -8.3842    0.0000 O   0  0  0  0  0  0  0  0  0  0  0  0
    5.1807   -9.0516    0.0000 C   0  0  0  0  0  0  0  0  0  0  0  0
    4.7682   -9.7661    0.0000 C   0  0  0  0  0  0  0  0  0  0  0  0
    3.9432   -9.7661    0.0000 C   0  0  0  0  0  0  0  0  0  0  0  0
    3.5307   -9.0516    0.0000 C   0  0  0  0  0  0  0  0  0  0  0  0
    3.9432   -8.3371    0.0000 C   0  0  0  0  0  0  0  0  0  0  0  0
    4.7682   -8.3371    0.0000 C   0  0  0  0  0  0  0  0  0  0  0  0
    9.3943   -6.6189    0.0000 C   0  0  0  0  0  0  0  0  0  0  0  0
    8.9818   -5.9044    0.0000 C   0  0  0  0  0  0  0  0  0  0  0  0
    9.3943   -5.1900    0.0000 C   0  0  0  0  0  0  0  0  0  0  0  0
   10.2193   -5.1900    0.0000 C   0  0  0  0  0  0  0  0  0  0  0  0
   10.6318   -5.9044    0.0000 C   0  0  0  0  0  0  0  0  0  0  0  0
   10.2193   -6.6189    0.0000 C   0  0  0  0  0  0  0  0  0  0  0  0
    7.9898  -10.7016    0.0000 C   0  0  0  0  0  0  0  0  0  0  0  0
  1  2  1  0  0  0  0
  2  3  1  0  0  0  0
  3  4  1  0  0  0  0
  4  5  1  0  0  0  0
  5  6  1  0  0  0  0
  6  7  1  0  0  0  0
  7  8  1  0  0  0  0
  8  9  1  0  0  0  0
  9 10  1  0  0  0  0
 10 11  1  0  0  0  0
 11 12  1  0  0  0  0
  1 12  1  0  0  0  0
  1  9  1  0  0  0  0
  2  6  1  0  0  0  0
 13 14  1  0  0  0  0
 14 15  2  0  0  0  0
 15 16  1  0  0  0  0
 16 17  2  0  0  0  0
 17 18  1  0  0  0  0
 13 18  2  0  0  0  0
 11 13  1  0  0  0  0
 19 20  1  0  0  0  0
 20 21  2  0  0  0  0
 21 22  1  0  0  0  0
 22 23  2  0  0  0  0
 23 24  1  0  0  0  0
 19 24  2  0  0  0  0
  4 19  1  0  0  0  0
  8 25  1  0  0  0  0
M  END
>  <cdx:groupId>
5409

>  <cdx:fragmentId>
5333

$$$$
