101059080.cdx
  Mrv1902 05222410212D          

 33 36  0  0  0  0            999 V2000
    5.6994  -13.4498    0.0000 C   0  0  0  0  0  0  0  0  0  0  0  0
    5.4172  -12.6746    0.0000 C   0  0  0  0  0  0  0  0  0  0  0  0
    6.5118  -13.5931    0.0000 O   0  0  0  0  0  0  0  0  0  0  0  0
    5.1691  -14.0818    0.0000 O   0  0  0  0  0  0  0  0  0  0  0  0
    6.5174  -14.9370    0.0000 C   0  0  1  0  0  0  0  0  0  0  0  0
    7.0318  -14.2920    0.0000 C   0  0  0  0  0  0  0  0  0  0  0  0
    7.8568  -14.2920    0.0000 C   0  0  2  0  0  0  0  0  0  0  0  0
    8.3712  -14.9370    0.0000 C   0  0  2  0  0  0  0  0  0  0  0  0
    9.1929  -14.8630    0.0000 C   0  0  0  0  0  0  0  0  0  0  0  0
    9.5171  -15.6216    0.0000 C   0  0  2  0  0  0  0  0  0  0  0  0
    8.8958  -16.1644    0.0000 C   0  0  1  0  0  0  0  0  0  0  0  0
    8.1876  -15.7413    0.0000 C   0  0  1  0  0  0  0  0  0  0  0  0
    7.4443  -16.0993    0.0000 C   0  0  2  0  0  0  0  0  0  0  0  0
    6.7010  -15.7413    0.0000 C   0  0  2  0  0  0  0  0  0  0  0  0
    6.1866  -16.3863    0.0000 C   0  0  0  0  0  0  0  0  0  0  0  0
    5.3616  -16.3863    0.0000 C   0  0  0  0  0  0  0  0  0  0  0  0
    4.8473  -15.7413    0.0000 C   0  0  1  0  0  0  0  0  0  0  0  0
    5.0308  -14.9370    0.0000 C   0  0  2  0  0  0  0  0  0  0  0  0
    5.7741  -14.5790    0.0000 C   0  0  0  0  0  0  0  0  0  0  0  0
    5.4512  -14.8571    0.0000 C   0  0  2  0  0  0  0  0  0  0  0  0
    4.7294  -14.1690    0.0000 C   0  0  0  0  0  0  0  0  0  0  0  0
    7.1622  -16.8745    0.0000 C   0  0  0  0  0  0  0  0  0  0  0  0
    9.1929  -14.0380    0.0000 C   0  0  0  0  0  0  0  0  0  0  0  0
    9.9074  -14.4505    0.0000 C   0  0  0  0  0  0  0  0  0  0  0  0
    4.2151  -14.8140    0.0000 O   0  0  0  0  0  0  0  0  0  0  0  0
    7.9175  -16.7751    0.0000 O   0  0  0  0  0  0  0  0  0  0  0  0
    8.9698  -16.9861    0.0000 O   0  0  0  0  0  0  0  0  0  0  0  0
   10.3214  -15.8052    0.0000 O   0  0  0  0  0  0  0  0  0  0  0  0
    8.6954  -14.1784    0.0000 O   0  0  0  0  0  0  0  0  0  0  0  0
    8.2693  -13.5775    0.0000 O   0  0  0  0  0  0  0  0  0  0  0  0
    7.5426  -15.2269    0.0000 H   0  0  0  0  0  0  0  0  0  0  0  0
    6.7421  -16.5653    0.0000 H   0  0  0  0  0  0  0  0  0  0  0  0
    4.0429  -15.9249    0.0000 H   0  0  0  0  0  0  0  0  0  0  0  0
  1  2  1  0  0  0  0
  1  3  2  0  0  0  0
  1  4  1  0  0  0  0
  5  6  1  0  0  0  0
  6  7  1  0  0  0  0
  7  8  1  0  0  0  0
  8  9  1  0  0  0  0
  9 10  1  0  0  0  0
 10 11  1  0  0  0  0
 11 12  1  0  0  0  0
 12 13  1  0  0  0  0
 13 14  1  0  0  0  0
 14 15  1  0  0  0  0
 15 16  1  0  0  0  0
 16 17  1  0  0  0  0
 17 18  1  0  0  0  0
 18 19  1  0  0  0  0
  5 19  1  1  0  0  0
  5 20  1  0  0  0  0
 20 17  1  0  0  0  0
  5 14  1  0  0  0  0
  8 12  1  0  0  0  0
 18 21  1  1  0  0  0
 13 22  1  1  0  0  0
  9 23  1  0  0  0  0
  9 24  1  0  0  0  0
 18 25  1  6  0  0  0
 13 26  1  6  0  0  0
 11 27  1  6  0  0  0
 10 28  1  1  0  0  0
  8 29  1  1  0  0  0
  7 30  1  1  0  0  0
 20  4  1  6  0  0  0
 12 31  1  6  0  0  0
 14 32  1  1  0  0  0
 17 33  1  6  0  0  0
M  END
>  <cdx:groupId>
228950

>  <cdx:fragmentId>
228859

$$$$
