21591149.cdx
  Mrv1902 05222410272D          

 27 28  0  0  0  0            999 V2000
    8.5477  -14.6514    0.0000 C   0  0  0  0  0  0  0  0  0  0  0  0
    7.8332  -15.0639    0.0000 C   0  0  0  0  0  0  0  0  0  0  0  0
    7.1188  -14.6514    0.0000 C   0  0  0  0  0  0  0  0  0  0  0  0
    6.4043  -15.0639    0.0000 C   0  0  0  0  0  0  0  0  0  0  0  0
    5.6898  -14.6514    0.0000 C   0  0  0  0  0  0  0  0  0  0  0  0
    5.6898  -13.8264    0.0000 C   0  0  0  0  0  0  0  0  0  0  0  0
    6.4043  -13.4139    0.0000 C   0  0  0  0  0  0  0  0  0  0  0  0
    7.1188  -13.8264    0.0000 C   0  0  0  0  0  0  0  0  0  0  0  0
    4.9754  -15.0639    0.0000 C   0  0  0  0  0  0  0  0  0  0  0  0
    4.2609  -14.6514    0.0000 C   0  0  0  0  0  0  0  0  0  0  0  0
    3.5464  -15.0639    0.0000 C   0  0  0  0  0  0  0  0  0  0  0  0
    3.5464  -15.8889    0.0000 C   0  0  0  0  0  0  0  0  0  0  0  0
    2.8319  -14.6514    0.0000 C   0  0  0  0  0  0  0  0  0  0  0  0
    4.9754  -13.4139    0.0000 O   0  0  0  0  0  0  0  0  0  0  0  0
    4.2609  -13.8264    0.0000 C   0  0  0  0  0  0  0  0  0  0  0  0
    6.4043  -15.8889    0.0000 O   0  0  0  0  0  0  0  0  0  0  0  0
    7.1188  -16.3014    0.0000 C   0  0  0  0  0  0  0  0  0  0  0  0
    7.8332  -13.4139    0.0000 O   0  0  0  0  0  0  0  0  0  0  0  0
    9.2622  -15.0639    0.0000 C   0  0  0  0  0  0  0  0  0  0  0  0
    9.2622  -15.8889    0.0000 C   0  0  0  0  0  0  0  0  0  0  0  0
    9.9766  -16.3014    0.0000 C   0  0  0  0  0  0  0  0  0  0  0  0
   10.6911  -15.8889    0.0000 C   0  0  0  0  0  0  0  0  0  0  0  0
   10.6911  -15.0639    0.0000 C   0  0  0  0  0  0  0  0  0  0  0  0
    9.9766  -14.6514    0.0000 C   0  0  0  0  0  0  0  0  0  0  0  0
   11.4056  -16.3014    0.0000 O   0  0  0  0  0  0  0  0  0  0  0  0
    8.5477  -16.3014    0.0000 O   0  0  0  0  0  0  0  0  0  0  0  0
    8.5477  -13.8264    0.0000 O   0  0  0  0  0  0  0  0  0  0  0  0
  1  2  1  0  0  0  0
  3  4  1  0  0  0  0
  4  5  2  0  0  0  0
  5  6  1  0  0  0  0
  6  7  2  0  0  0  0
  7  8  1  0  0  0  0
  3  8  2  0  0  0  0
  9 10  1  0  0  0  0
 10 11  2  0  0  0  0
 11 12  1  0  0  0  0
 11 13  1  0  0  0  0
  5  9  1  0  0  0  0
 14 15  1  0  0  0  0
  6 14  1  0  0  0  0
 16 17  1  0  0  0  0
  4 16  1  0  0  0  0
  8 18  1  0  0  0  0
  2  3  1  0  0  0  0
 19 20  1  0  0  0  0
 20 21  2  0  0  0  0
 21 22  1  0  0  0  0
 22 23  2  0  0  0  0
 23 24  1  0  0  0  0
 19 24  2  0  0  0  0
 22 25  1  0  0  0  0
 20 26  1  0  0  0  0
  1 19  1  0  0  0  0
  1 27  2  0  0  0  0
M  END
>  <cdx:fragmentId>
132368

$$$$
