591178.cdx
  Mrv1902 05222410192D          

 16 17  0  0  0  0            999 V2000
   13.3558  -13.4311    0.0000 C   0  0  0  0  0  0  0  0  0  0  0  0
   14.0702  -13.8436    0.0000 C   0  0  0  0  0  0  0  0  0  0  0  0
   14.7847  -13.4311    0.0000 C   0  0  0  0  0  0  0  0  0  0  0  0
   15.4992  -13.8436    0.0000 C   0  0  0  0  0  0  0  0  0  0  0  0
   13.3558  -12.6061    0.0000 O   0  0  0  0  0  0  0  0  0  0  0  0
   12.6413  -13.8436    0.0000 O   0  0  0  0  0  0  0  0  0  0  0  0
   15.4992  -14.6686    0.0000 O   0  0  0  0  0  0  0  0  0  0  0  0
   18.4272  -12.3511    0.0000 O   0  0  0  0  0  0  0  0  0  0  0  0
   18.9121  -13.0186    0.0000 C   0  0  0  0  0  0  0  0  0  0  0  0
   18.4272  -13.6860    0.0000 O   0  0  0  0  0  0  0  0  0  0  0  0
   17.6426  -13.4311    0.0000 C   0  0  0  0  0  0  0  0  0  0  0  0
   17.6426  -12.6061    0.0000 C   0  0  0  0  0  0  0  0  0  0  0  0
   16.9281  -13.8436    0.0000 C   0  0  0  0  0  0  0  0  0  0  0  0
   16.2137  -13.4311    0.0000 C   0  0  0  0  0  0  0  0  0  0  0  0
   16.2137  -12.6061    0.0000 C   0  0  0  0  0  0  0  0  0  0  0  0
   16.9281  -12.1936    0.0000 C   0  0  0  0  0  0  0  0  0  0  0  0
  1  2  1  0  0  0  0
  2  3  1  0  0  0  0
  3  4  1  0  0  0  0
  1  5  2  0  0  0  0
  1  6  1  0  0  0  0
  4  7  2  0  0  0  0
  8  9  1  0  0  0  0
  9 10  1  0  0  0  0
 10 11  1  0  0  0  0
 11 12  1  0  0  0  0
  8 12  1  0  0  0  0
 13 14  1  0  0  0  0
 14 15  2  0  0  0  0
 15 16  1  0  0  0  0
 16 12  2  0  0  0  0
 13 11  2  0  0  0  0
  4 14  1  0  0  0  0
M  END
>  <cdx:groupId>
5589

>  <cdx:fragmentId>
5557

$$$$
