21591148.cdx
  Mrv1902 05222410262D          

 31 33  0  0  0  0            999 V2000
    7.6255  -16.3014    0.0000 C   0  0  0  0  0  0  0  0  0  0  0  0
    7.6255  -15.4764    0.0000 C   0  0  0  0  0  0  0  0  0  0  0  0
    6.9110  -15.0639    0.0000 C   0  0  0  0  0  0  0  0  0  0  0  0
    6.1965  -15.4764    0.0000 C   0  0  0  0  0  0  0  0  0  0  0  0
    5.4821  -15.0639    0.0000 C   0  0  0  0  0  0  0  0  0  0  0  0
    4.7676  -15.4764    0.0000 C   0  0  0  0  0  0  0  0  0  0  0  0
    4.7676  -16.3014    0.0000 C   0  0  0  0  0  0  0  0  0  0  0  0
    5.4821  -16.7139    0.0000 C   0  0  0  0  0  0  0  0  0  0  0  0
    6.1965  -16.3014    0.0000 C   0  0  0  0  0  0  0  0  0  0  0  0
    6.9110  -16.7139    0.0000 O   0  0  0  0  0  0  0  0  0  0  0  0
    6.9110  -14.2389    0.0000 O   0  0  0  0  0  0  0  0  0  0  0  0
    4.0531  -15.0639    0.0000 C   0  0  0  0  0  0  0  0  0  0  0  0
    3.3387  -15.4764    0.0000 C   0  0  0  0  0  0  0  0  0  0  0  0
    2.6242  -15.0639    0.0000 C   0  0  0  0  0  0  0  0  0  0  0  0
    2.6242  -14.2389    0.0000 C   0  0  0  0  0  0  0  0  0  0  0  0
    1.9097  -15.4764    0.0000 C   0  0  0  0  0  0  0  0  0  0  0  0
    4.0531  -16.7139    0.0000 O   0  0  0  0  0  0  0  0  0  0  0  0
    5.4821  -14.2389    0.0000 O   0  0  0  0  0  0  0  0  0  0  0  0
    8.3400  -15.0639    0.0000 C   0  0  0  0  0  0  0  0  0  0  0  0
    8.3400  -14.2389    0.0000 C   0  0  0  0  0  0  0  0  0  0  0  0
    9.0544  -13.8264    0.0000 C   0  0  0  0  0  0  0  0  0  0  0  0
    9.7689  -14.2389    0.0000 C   0  0  0  0  0  0  0  0  0  0  0  0
    9.7689  -15.0639    0.0000 C   0  0  0  0  0  0  0  0  0  0  0  0
    9.0544  -15.4764    0.0000 C   0  0  0  0  0  0  0  0  0  0  0  0
   10.4834  -15.4764    0.0000 C   0  0  0  0  0  0  0  0  0  0  0  0
   11.1978  -15.0639    0.0000 C   0  0  0  0  0  0  0  0  0  0  0  0
   11.9123  -15.4764    0.0000 C   0  0  0  0  0  0  0  0  0  0  0  0
   11.9123  -16.3014    0.0000 C   0  0  0  0  0  0  0  0  0  0  0  0
   12.6268  -15.0639    0.0000 C   0  0  0  0  0  0  0  0  0  0  0  0
   10.4834  -13.8264    0.0000 O   0  0  0  0  0  0  0  0  0  0  0  0
    9.0544  -13.0014    0.0000 O   0  0  0  0  0  0  0  0  0  0  0  0
  1  2  2  0  0  0  0
  2  3  1  0  0  0  0
  3  4  1  0  0  0  0
  4  5  1  0  0  0  0
  5  6  2  0  0  0  0
  6  7  1  0  0  0  0
  7  8  2  0  0  0  0
  8  9  1  0  0  0  0
  4  9  2  0  0  0  0
  9 10  1  0  0  0  0
  1 10  1  0  0  0  0
  3 11  2  0  0  0  0
 12 13  1  0  0  0  0
 13 14  2  0  0  0  0
 14 15  1  0  0  0  0
 14 16  1  0  0  0  0
  6 12  1  0  0  0  0
  7 17  1  0  0  0  0
  5 18  1  0  0  0  0
 19 20  1  0  0  0  0
 20 21  2  0  0  0  0
 21 22  1  0  0  0  0
 22 23  2  0  0  0  0
 23 24  1  0  0  0  0
 19 24  2  0  0  0  0
 25 26  1  0  0  0  0
 26 27  2  0  0  0  0
 27 28  1  0  0  0  0
 27 29  1  0  0  0  0
 23 25  1  0  0  0  0
 22 30  1  0  0  0  0
 21 31  1  0  0  0  0
  2 19  1  0  0  0  0
M  END
>  <cdx:fragmentId>
132259

$$$$
