591249.cdx
  Mrv1902 05222410242D          

 15 16  0  0  0  0            999 V2000
   17.4293  -14.5089    0.0000 C   0  0  0  0  0  0  0  0  0  0  0  0
   16.6043  -14.5089    0.0000 C   0  0  0  0  0  0  0  0  0  0  0  0
   16.1918  -13.7944    0.0000 C   0  0  0  0  0  0  0  0  0  0  0  0
   15.3668  -13.7944    0.0000 C   0  0  0  0  0  0  0  0  0  0  0  0
   16.1918  -15.2233    0.0000 O   0  0  0  0  0  0  0  0  0  0  0  0
   14.9543  -13.0799    0.0000 C   0  0  0  0  0  0  0  0  0  0  0  0
   14.2398  -13.4924    0.0000 C   0  0  0  0  0  0  0  0  0  0  0  0
   13.5254  -13.0799    0.0000 C   0  0  0  0  0  0  0  0  0  0  0  0
   13.5254  -12.2549    0.0000 C   0  0  0  0  0  0  0  0  0  0  0  0
   14.2398  -11.8424    0.0000 C   0  0  0  0  0  0  0  0  0  0  0  0
   14.9543  -12.2549    0.0000 C   0  0  0  0  0  0  0  0  0  0  0  0
   15.6688  -12.6674    0.0000 C   0  0  0  0  0  0  0  0  0  0  0  0
   15.3668  -11.5405    0.0000 C   0  0  0  0  0  0  0  0  0  0  0  0
   14.6523  -14.2069    0.0000 C   0  0  0  0  0  0  0  0  0  0  0  0
   13.8273  -14.2069    0.0000 C   0  0  0  0  0  0  0  0  0  0  0  0
  1  2  1  0  0  0  0
  2  3  1  0  0  0  0
  3  4  1  0  0  0  0
  2  5  2  0  0  0  0
  6  7  1  0  0  0  0
  7  8  1  0  0  0  0
  8  9  1  0  0  0  0
  9 10  1  0  0  0  0
 10 11  1  0  0  0  0
 11 12  1  0  0  0  0
  6 12  1  0  0  0  0
  6 11  1  0  0  0  0
 11 13  1  0  0  0  0
  7 14  1  0  0  0  0
  7 15  1  0  0  0  0
  4  6  1  0  0  0  0
M  END
>  <cdx:groupId>
5638

>  <cdx:fragmentId>
5605

$$$$
