591604.cdx
  Mrv1902 05222410262D          

 11 11  0  0  0  0            999 V2000
    7.8077   -7.6940    0.0000 C   0  0  0  0  0  0  0  0  0  0  0  0
    7.0935   -8.1069    0.0000 O   0  0  0  0  0  0  0  0  0  0  0  0
    8.5228   -8.9312    0.0000 C   0  0  0  0  0  0  0  0  0  0  0  0
    5.6649   -8.9326    0.0000 C   0  0  0  0  0  0  0  0  0  0  0  0
    5.6657  -10.5826    0.0000 C   0  0  0  0  0  0  0  0  0  0  0  0
    7.8090  -10.1690    0.0000 C   0  0  0  0  0  0  0  0  0  0  0  0
    7.0947  -10.5819    0.0000 C   0  0  0  0  0  0  0  0  0  0  0  0
    6.3800  -10.1697    0.0000 C   0  0  0  0  0  0  0  0  0  0  0  0
    6.3796   -9.3447    0.0000 C   0  0  0  0  0  0  0  0  0  0  0  0
    7.0939   -8.9319    0.0000 C   0  0  0  0  0  0  0  0  0  0  0  0
    7.8085   -9.3440    0.0000 C   0  0  0  0  0  0  0  0  0  0  0  0
 10  2  1  0  0  0  0
  2  1  1  0  0  0  0
 11  3  1  0  0  0  0
  9  4  1  0  0  0  0
  8  5  1  0  0  0  0
 11  6  2  0  0  0  0
  7  6  1  0  0  0  0
  8  7  2  0  0  0  0
  9  8  1  0  0  0  0
 10  9  2  0  0  0  0
 11 10  1  0  0  0  0
M  END
>  <cdx:fragmentId>
5

$$$$
