5916.cdx
  Mrv1902 05222410232D          

 27 29  0  0  0  0            999 V2000
    2.6433   -6.6000    0.0000 C   0  0  0  0  0  0  0  0  0  0  0  0
    2.6433   -7.4250    0.0000 C   0  0  0  0  0  0  0  0  0  0  0  0
    3.3577   -7.8375    0.0000 C   0  0  0  0  0  0  0  0  0  0  0  0
    4.0722   -7.4250    0.0000 C   0  0  0  0  0  0  0  0  0  0  0  0
    4.0722   -6.6000    0.0000 C   0  0  0  0  0  0  0  0  0  0  0  0
    3.3577   -6.1875    0.0000 C   0  0  0  0  0  0  0  0  0  0  0  0
    4.7867   -7.8375    0.0000 C   0  0  0  0  0  0  0  0  0  0  0  0
    5.5012   -7.4250    0.0000 C   0  0  0  0  0  0  0  0  0  0  0  0
    5.5012   -6.6000    0.0000 C   0  0  0  0  0  0  0  0  0  0  0  0
    4.7867   -6.1875    0.0000 O   0  0  0  0  0  0  0  0  0  0  0  0
    6.2156   -7.8375    0.0000 C   0  0  0  0  0  0  0  0  0  0  0  0
    6.9301   -7.4250    0.0000 C   0  0  0  0  0  0  0  0  0  0  0  0
    6.9301   -6.6000    0.0000 C   0  0  0  0  0  0  0  0  0  0  0  0
    7.6446   -7.8375    0.0000 C   0  0  0  0  0  0  0  0  0  0  0  0
    8.3590   -7.4250    0.0000 C   0  0  0  0  0  0  0  0  0  0  0  0
    8.3590   -6.6000    0.0000 C   0  0  0  0  0  0  0  0  0  0  0  0
    7.6446   -6.1875    0.0000 C   0  0  0  0  0  0  0  0  0  0  0  0
    4.7867   -8.6625    0.0000 O   0  0  0  0  0  0  0  0  0  0  0  0
    3.3577   -5.3625    0.0000 C   0  0  0  0  0  0  0  0  0  0  0  0
    1.9288   -6.1875    0.0000 O   0  0  0  0  0  0  0  0  0  0  0  0
    1.9288   -7.8375    0.0000 C   0  0  0  0  0  0  0  0  0  0  0  0
    3.3577   -8.6625    0.0000 O   0  0  0  0  0  0  0  0  0  0  0  0
    9.0735   -6.1875    0.0000 O   0  0  0  0  0  0  0  0  0  0  0  0
    7.6446   -5.3625    0.0000 O   0  0  0  0  0  0  0  0  0  0  0  0
    9.0735   -7.8375    0.0000 O   0  0  0  0  0  0  0  0  0  0  0  0
    9.7880   -7.4250    0.0000 C   0  0  0  0  0  0  0  0  0  0  0  0
    8.3590   -4.9500    0.0000 C   0  0  0  0  0  0  0  0  0  0  0  0
  1  2  2  0  0  0  0
  2  3  1  0  0  0  0
  3  4  2  0  0  0  0
  4  5  1  0  0  0  0
  5  6  2  0  0  0  0
  6  1  1  0  0  0  0
  4  7  1  0  0  0  0
  7  8  1  0  0  0  0
  8  9  1  0  0  0  0
  9 10  1  0  0  0  0
 10  5  1  0  0  0  0
  8 11  1  0  0  0  0
 11 12  1  0  0  0  0
 12 13  1  0  0  0  0
 12 14  2  0  0  0  0
 14 15  1  0  0  0  0
 15 16  2  0  0  0  0
 16 17  1  0  0  0  0
 17 13  2  0  0  0  0
  7 18  2  0  0  0  0
  6 19  1  0  0  0  0
  1 20  1  0  0  0  0
  2 21  1  0  0  0  0
  3 22  1  0  0  0  0
 16 23  1  0  0  0  0
 17 24  1  0  0  0  0
 15 25  1  0  0  0  0
 25 26  1  0  0  0  0
 24 27  1  0  0  0  0
M  END
>  <cdx:fragmentId>
5

$$$$
