5918.cdx
  Mrv1902 05222410242D          

 25 27  0  0  0  0            999 V2000
    4.1695   -4.8194    0.0000 C   0  0  0  0  0  0  0  0  0  0  0  0
    4.1695   -5.6444    0.0000 C   0  0  0  0  0  0  0  0  0  0  0  0
    4.8840   -6.0569    0.0000 C   0  0  0  0  0  0  0  0  0  0  0  0
    5.5985   -5.6444    0.0000 C   0  0  0  0  0  0  0  0  0  0  0  0
    5.5985   -4.8194    0.0000 C   0  0  0  0  0  0  0  0  0  0  0  0
    4.8840   -4.4069    0.0000 C   0  0  0  0  0  0  0  0  0  0  0  0
    6.3129   -6.0569    0.0000 C   0  0  0  0  0  0  0  0  0  0  0  0
    7.0274   -5.6444    0.0000 C   0  0  0  0  0  0  0  0  0  0  0  0
    7.0274   -4.8194    0.0000 C   0  0  0  0  0  0  0  0  0  0  0  0
    6.3129   -4.4069    0.0000 O   0  0  0  0  0  0  0  0  0  0  0  0
    7.7419   -6.0569    0.0000 C   0  0  0  0  0  0  0  0  0  0  0  0
    8.4564   -5.6444    0.0000 C   0  0  0  0  0  0  0  0  0  0  0  0
    8.4564   -4.8194    0.0000 C   0  0  0  0  0  0  0  0  0  0  0  0
    9.1708   -6.0569    0.0000 C   0  0  0  0  0  0  0  0  0  0  0  0
    9.8853   -5.6444    0.0000 C   0  0  0  0  0  0  0  0  0  0  0  0
    9.8853   -4.8194    0.0000 C   0  0  0  0  0  0  0  0  0  0  0  0
    9.1708   -4.4069    0.0000 C   0  0  0  0  0  0  0  0  0  0  0  0
    4.8840   -3.5819    0.0000 C   0  0  0  0  0  0  0  0  0  0  0  0
    3.4551   -4.4069    0.0000 O   0  0  0  0  0  0  0  0  0  0  0  0
    3.4551   -6.0569    0.0000 C   0  0  0  0  0  0  0  0  0  0  0  0
    4.8840   -6.8819    0.0000 O   0  0  0  0  0  0  0  0  0  0  0  0
    6.3129   -6.8819    0.0000 O   0  0  0  0  0  0  0  0  0  0  0  0
   10.5998   -4.4069    0.0000 O   0  0  0  0  0  0  0  0  0  0  0  0
   10.5998   -6.0569    0.0000 O   0  0  0  0  0  0  0  0  0  0  0  0
   11.3142   -5.6444    0.0000 C   0  0  0  0  0  0  0  0  0  0  0  0
  1  2  2  0  0  0  0
  2  3  1  0  0  0  0
  3  4  2  0  0  0  0
  4  5  1  0  0  0  0
  5  6  2  0  0  0  0
  6  1  1  0  0  0  0
  4  7  1  0  0  0  0
  7  8  1  0  0  0  0
  8  9  1  0  0  0  0
  9 10  1  0  0  0  0
 10  5  1  0  0  0  0
  8 11  1  0  0  0  0
 11 12  1  0  0  0  0
 12 13  1  0  0  0  0
 12 14  2  0  0  0  0
 14 15  1  0  0  0  0
 15 16  2  0  0  0  0
 16 17  1  0  0  0  0
 17 13  2  0  0  0  0
  6 18  1  0  0  0  0
  1 19  1  0  0  0  0
  2 20  1  0  0  0  0
  3 21  1  0  0  0  0
  7 22  2  0  0  0  0
 16 23  1  0  0  0  0
 15 24  1  0  0  0  0
 24 25  1  0  0  0  0
M  END
>  <cdx:fragmentId>
5

$$$$
