591917.cdx
  Mrv1902 05222410212D          

 47 55  0  0  0  0            999 V2000
   11.2997   -7.8006    0.0000 H   0  0  0  0  0  0  0  0  0  0  0  0
   10.4148   -8.0172    0.0000 H   0  0  0  0  0  0  0  0  0  0  0  0
    5.1571   -8.0864    0.0000 C   0  0  0  0  0  0  0  0  0  0  0  0
    5.1504   -8.9114    0.0000 C   0  0  1  0  0  0  0  0  0  0  0  0
    5.8615   -9.3297    0.0000 C   0  0  2  0  0  0  0  0  0  0  0  0
    6.5793   -8.9231    0.0000 C   0  0  1  0  0  0  0  0  0  0  0  0
    6.5860   -8.0981    0.0000 C   0  0  2  0  0  0  0  0  0  0  0  0
    5.8749   -7.6798    0.0000 C   0  0  0  0  0  0  0  0  0  0  0  0
    7.2904   -9.3414    0.0000 C   0  0  0  0  0  0  0  0  0  0  0  0
    8.0082   -8.9347    0.0000 C   0  0  0  0  0  0  0  0  0  0  0  0
    8.0149   -8.1097    0.0000 C   0  0  0  0  0  0  0  0  0  0  0  0
    7.3038   -7.6914    0.0000 C   0  0  1  0  0  0  0  0  0  0  0  0
    8.7327   -7.7031    0.0000 C   0  0  1  0  0  0  0  0  0  0  0  0
    8.7394   -6.8781    0.0000 C   0  0  2  0  0  0  0  0  0  0  0  0
    8.0283   -6.4598    0.0000 C   0  0  0  0  0  0  0  0  0  0  0  0
    7.3105   -6.8664    0.0000 C   0  0  0  0  0  0  0  0  0  0  0  0
    9.5152   -7.9644    0.0000 C   0  0  0  0  0  0  0  0  0  0  0  0
   10.0056   -7.3009    0.0000 C   0  0  1  0  0  0  0  0  0  0  0  0
    9.5261   -6.6295    0.0000 C   0  0  2  0  0  0  0  0  0  0  0  0
    6.2681  -10.0475    0.0000 C   0  0  0  0  0  0  0  0  0  0  0  0
    4.4326   -9.3181    0.0000 O   0  0  0  0  0  0  0  0  0  0  0  0
    5.4432  -10.0408    0.0000 C   0  0  0  0  0  0  0  0  0  0  0  0
    6.5927   -7.2731    0.0000 C   0  0  0  0  0  0  0  0  0  0  0  0
    8.7461   -6.0531    0.0000 C   0  0  0  0  0  0  0  0  0  0  0  0
    8.7260   -8.5280    0.0000 C   0  0  0  0  0  0  0  0  0  0  0  0
    3.0381   -7.6482    0.0000 C   0  0  0  0  0  0  0  0  0  0  0  0
    2.3190   -8.0527    0.0000 C   0  0  2  0  0  0  0  0  0  0  0  0
    2.3098   -8.8777    0.0000 C   0  0  1  0  0  0  0  0  0  0  0  0
    3.0196   -9.2981    0.0000 C   0  0  2  0  0  0  0  0  0  0  0  0
    3.7387   -8.8936    0.0000 C   0  0  1  0  0  0  0  0  0  0  0  0
    3.7479   -8.0686    0.0000 O   0  0  0  0  0  0  0  0  0  0  0  0
    1.5908   -9.2822    0.0000 O   0  0  0  0  0  0  0  0  0  0  0  0
    1.6092   -7.6323    0.0000 O   0  0  0  0  0  0  0  0  0  0  0  0
    3.0104  -10.1230    0.0000 O   0  0  0  0  0  0  0  0  0  0  0  0
    9.1194   -5.9117    0.0000 H   0  0  0  0  0  0  0  0  0  0  0  0
    6.5726   -9.7480    0.0000 H   0  0  0  0  0  0  0  0  0  0  0  0
   10.8267   -7.2214    0.0000 O   0  0  0  0  0  0  0  0  0  0  0  0
   10.6889   -5.7991    0.0000 C   0  0  0  0  0  0  0  0  0  0  0  0
    9.8678   -5.8786    0.0000 C   0  0  1  0  0  0  0  0  0  0  0  0
   13.2543   -7.0199    0.0000 C   0  0  0  0  0  0  0  0  0  0  0  0
   12.4219   -7.5821    0.0000 O   0  0  0  0  0  0  0  0  0  0  0  0
    9.3883   -5.2073    0.0000 C   0  0  0  0  0  0  0  0  0  0  0  0
   11.7154   -7.0880    0.0000 C   0  0  1  0  0  0  0  0  0  0  0  0
   12.4718   -6.7586    0.0000 C   0  0  1  0  0  0  0  0  0  0  0  0
   12.3923   -5.9375    0.0000 C   0  0  0  0  0  0  0  0  0  0  0  0
   11.5867   -5.7594    0.0000 O   0  0  0  0  0  0  0  0  0  0  0  0
   11.1684   -6.4705    0.0000 C   0  0  1  0  0  0  0  0  0  0  0  0
 43  1  1  1  0  0  0
 18  2  1  6  0  0  0
  3  4  1  0  0  0  0
  4  5  1  0  0  0  0
  5  6  1  0  0  0  0
  6  7  1  0  0  0  0
  7  8  1  0  0  0  0
  8  3  1  0  0  0  0
  6  9  1  0  0  0  0
  9 10  1  0  0  0  0
 10 11  2  0  0  0  0
 11 12  1  0  0  0  0
 12  7  1  0  0  0  0
 11 13  1  0  0  0  0
 13 14  1  0  0  0  0
 14 15  1  0  0  0  0
 15 16  1  0  0  0  0
 16 12  1  0  0  0  0
 13 17  1  0  0  0  0
 17 18  1  0  0  0  0
 18 19  1  0  0  0  0
 19 14  1  0  0  0  0
  5 20  1  0  0  0  0
  4 21  1  1  0  0  0
  5 22  1  1  0  0  0
  7 23  1  1  0  0  0
 12 23  1  1  0  0  0
 14 24  1  1  0  0  0
 13 25  1  6  0  0  0
 26 27  1  0  0  0  0
 27 28  1  0  0  0  0
 28 29  1  0  0  0  0
 29 30  1  0  0  0  0
 30 31  1  0  0  0  0
 31 26  1  0  0  0  0
 28 32  1  1  0  0  0
 27 33  1  6  0  0  0
 29 34  1  6  0  0  0
 30 21  1  1  0  0  0
 19 35  1  6  0  0  0
  6 36  1  6  0  0  0
 41 43  1  0  0  0  0
 18 37  1  0  0  0  0
 47 37  1  6  0  0  0
 47 38  1  0  0  0  0
 38 39  1  0  0  0  0
 39 19  1  0  0  0  0
 44 40  1  1  0  0  0
 44 41  1  0  0  0  0
 43 47  1  0  0  0  0
 44 43  1  0  0  0  0
 45 44  1  0  0  0  0
 46 45  1  0  0  0  0
 47 46  1  0  0  0  0
 39 42  1  6  0  0  0
M  END
>  <cdx:fragmentId>
5

$$$$
