5920.cdx
  Mrv1902 05222410252D          

 26 28  0  0  0  0            999 V2000
    4.2177   -7.6106    0.0000 C   0  0  0  0  0  0  0  0  0  0  0  0
    4.2177   -8.4356    0.0000 C   0  0  0  0  0  0  0  0  0  0  0  0
    4.9321   -8.8481    0.0000 C   0  0  0  0  0  0  0  0  0  0  0  0
    5.6466   -8.4356    0.0000 C   0  0  0  0  0  0  0  0  0  0  0  0
    5.6466   -7.6106    0.0000 C   0  0  0  0  0  0  0  0  0  0  0  0
    4.9321   -7.1981    0.0000 C   0  0  0  0  0  0  0  0  0  0  0  0
    6.3611   -8.8481    0.0000 C   0  0  0  0  0  0  0  0  0  0  0  0
    7.0755   -8.4356    0.0000 C   0  0  0  0  0  0  0  0  0  0  0  0
    7.0755   -7.6106    0.0000 C   0  0  0  0  0  0  0  0  0  0  0  0
    6.3611   -7.1981    0.0000 O   0  0  0  0  0  0  0  0  0  0  0  0
    7.7900   -8.8481    0.0000 C   0  0  0  0  0  0  0  0  0  0  0  0
    8.5045   -8.4356    0.0000 C   0  0  0  0  0  0  0  0  0  0  0  0
    7.7900   -9.6731    0.0000 C   0  0  0  0  0  0  0  0  0  0  0  0
    8.5045  -10.0856    0.0000 C   0  0  0  0  0  0  0  0  0  0  0  0
    9.2190   -9.6731    0.0000 C   0  0  0  0  0  0  0  0  0  0  0  0
    9.2190   -8.8481    0.0000 C   0  0  0  0  0  0  0  0  0  0  0  0
    6.3611   -9.6731    0.0000 O   0  0  0  0  0  0  0  0  0  0  0  0
    4.9321   -9.6731    0.0000 O   0  0  0  0  0  0  0  0  0  0  0  0
    3.5032   -7.1981    0.0000 O   0  0  0  0  0  0  0  0  0  0  0  0
    9.9334  -10.0856    0.0000 O   0  0  0  0  0  0  0  0  0  0  0  0
    3.5032   -8.8481    0.0000 O   0  0  0  0  0  0  0  0  0  0  0  0
    9.9334   -8.4356    0.0000 O   0  0  0  0  0  0  0  0  0  0  0  0
    8.5045  -10.9106    0.0000 O   0  0  0  0  0  0  0  0  0  0  0  0
    2.7887   -8.4356    0.0000 C   0  0  0  0  0  0  0  0  0  0  0  0
   10.6479   -8.8481    0.0000 C   0  0  0  0  0  0  0  0  0  0  0  0
    7.7900  -11.3231    0.0000 C   0  0  0  0  0  0  0  0  0  0  0  0
  1  2  2  0  0  0  0
  2  3  1  0  0  0  0
  3  4  2  0  0  0  0
  4  5  1  0  0  0  0
  5  6  2  0  0  0  0
  6  1  1  0  0  0  0
  4  7  1  0  0  0  0
  7  8  1  0  0  0  0
  8  9  2  0  0  0  0
  9 10  1  0  0  0  0
 10  5  1  0  0  0  0
  8 11  1  0  0  0  0
 11 12  1  0  0  0  0
 11 13  2  0  0  0  0
 13 14  1  0  0  0  0
 14 15  2  0  0  0  0
 15 16  1  0  0  0  0
 16 12  2  0  0  0  0
  7 17  2  0  0  0  0
  3 18  1  0  0  0  0
  1 19  1  0  0  0  0
 15 20  1  0  0  0  0
  2 21  1  0  0  0  0
 16 22  1  0  0  0  0
 14 23  1  0  0  0  0
 21 24  1  0  0  0  0
 22 25  1  0  0  0  0
 23 26  1  0  0  0  0
M  END
>  <cdx:fragmentId>
5

$$$$
