5922.cdx
  Mrv1902 05222410252D          

  9  9  0  0  0  0            999 V2000
    3.3030   -6.0772    0.0000 C   0  0  0  0  0  0  0  0  0  0  0  0
    4.0175   -5.6647    0.0000 C   0  0  0  0  0  0  0  0  0  0  0  0
    4.0175   -4.8397    0.0000 C   0  0  0  0  0  0  0  0  0  0  0  0
    3.3030   -4.4272    0.0000 C   0  0  0  0  0  0  0  0  0  0  0  0
    2.5885   -4.8397    0.0000 C   0  0  0  0  0  0  0  0  0  0  0  0
    2.5885   -5.6647    0.0000 N   0  0  0  0  0  0  0  0  0  0  0  0
    4.7319   -4.4272    0.0000 C   0  0  0  0  0  0  0  0  0  0  0  0
    4.7319   -3.6022    0.0000 O   0  0  0  0  0  0  0  0  0  0  0  0
    5.4464   -4.8397    0.0000 O   0  0  0  0  0  0  0  0  0  0  0  0
  1  2  1  0  0  0  0
  2  3  2  0  0  0  0
  3  4  1  0  0  0  0
  4  5  2  0  0  0  0
  5  6  1  0  0  0  0
  1  6  2  0  0  0  0
  7  8  2  0  0  0  0
  7  9  1  0  0  0  0
  3  7  1  0  0  0  0
M  END
>  <cdx:groupId>
29

>  <cdx:fragmentId>
5

$$$$
