592506.cdx
  Mrv1902 05222410202D          

 23 24  0  0  0  0            999 V2000
    9.8726   -9.2067    0.0000 O   0  0  0  0  0  0  0  0  0  0  0  0
    8.4437   -9.2007    0.0000 O   0  0  0  0  0  0  0  0  0  0  0  0
    9.1564   -9.6162    0.0000 C   0  0  0  0  0  0  0  0  0  0  0  0
    9.1530  -10.4412    0.0000 C   0  0  1  0  0  0  0  0  0  0  0  0
    8.4368  -10.8507    0.0000 C   0  0  2  0  0  0  0  0  0  0  0  0
    7.7240  -10.4352    0.0000 C   0  0  1  0  0  0  0  0  0  0  0  0
    7.7275   -9.6102    0.0000 C   0  0  1  0  0  0  0  0  0  0  0  0
    7.0078  -10.8447    0.0000 O   0  0  0  0  0  0  0  0  0  0  0  0
    8.4333  -11.6757    0.0000 O   0  0  0  0  0  0  0  0  0  0  0  0
    9.8657  -10.8567    0.0000 O   0  0  0  0  0  0  0  0  0  0  0  0
    7.0148   -9.1947    0.0000 C   0  0  0  0  0  0  0  0  0  0  0  0
    6.2986   -9.6042    0.0000 O   0  0  0  0  0  0  0  0  0  0  0  0
    5.5859   -9.1887    0.0000 C   0  0  0  0  0  0  0  0  0  0  0  0
    4.8697   -9.5982    0.0000 C   0  0  0  0  0  0  0  0  0  0  0  0
    5.5893   -8.3637    0.0000 O   0  0  0  0  0  0  0  0  0  0  0  0
    4.1587   -9.1797    0.0000 C   0  0  0  0  0  0  0  0  0  0  0  0
    3.4408   -9.5982    0.0000 C   0  0  0  0  0  0  0  0  0  0  0  0
    3.4408  -10.4231    0.0000 C   0  0  0  0  0  0  0  0  0  0  0  0
    4.1587  -10.8416    0.0000 C   0  0  0  0  0  0  0  0  0  0  0  0
    4.8697  -10.4231    0.0000 C   0  0  0  0  0  0  0  0  0  0  0  0
    2.7254  -10.8341    0.0000 O   0  0  0  0  0  0  0  0  0  0  0  0
    2.7254   -9.1872    0.0000 O   0  0  0  0  0  0  0  0  0  0  0  0
    2.0118   -9.6012    0.0000 C   0  0  0  0  0  0  0  0  0  0  0  0
  2  3  1  0  0  0  0
  3  4  1  0  0  0  0
  4  5  1  0  0  0  0
  5  6  1  0  0  0  0
  6  7  1  0  0  0  0
  2  7  1  0  0  0  0
  6  8  1  6  0  0  0
  5  9  1  1  0  0  0
  4 10  1  6  0  0  0
 11 12  1  0  0  0  0
  7 11  1  1  0  0  0
  3  1  1  0  0  0  0
 12 13  1  0  0  0  0
 13 14  1  0  0  0  0
 13 15  2  0  0  0  0
 14 16  2  0  0  0  0
 16 17  1  0  0  0  0
 17 18  2  0  0  0  0
 18 19  1  0  0  0  0
 19 20  2  0  0  0  0
 20 14  1  0  0  0  0
 18 21  1  0  0  0  0
 17 22  1  0  0  0  0
 22 23  1  0  0  0  0
M  END
>  <cdx:groupId>
134802

>  <cdx:fragmentId>
134753

$$$$
