5927.cdx
  Mrv1902 05222410232D          

 46 49  0  0  0  0            999 V2000
    4.8639   -5.3419    0.0000 C   0  0  0  0  0  0  0  0  0  0  0  0
    4.8639   -6.1669    0.0000 C   0  0  0  0  0  0  0  0  0  0  0  0
    5.5784   -6.5794    0.0000 C   0  0  0  0  0  0  0  0  0  0  0  0
    6.2928   -6.1669    0.0000 C   0  0  0  0  0  0  0  0  0  0  0  0
    6.2928   -5.3419    0.0000 C   0  0  0  0  0  0  0  0  0  0  0  0
    5.5784   -4.9294    0.0000 C   0  0  0  0  0  0  0  0  0  0  0  0
    7.0073   -6.5794    0.0000 C   0  0  0  0  0  0  0  0  0  0  0  0
    7.7218   -6.1669    0.0000 C   0  0  0  0  0  0  0  0  0  0  0  0
    7.7218   -5.3419    0.0000 C   0  0  0  0  0  0  0  0  0  0  0  0
    7.0073   -4.9294    0.0000 O   0  0  0  0  0  0  0  0  0  0  0  0
    8.4363   -4.9294    0.0000 C   0  0  0  0  0  0  0  0  0  0  0  0
    9.1507   -5.3419    0.0000 C   0  0  0  0  0  0  0  0  0  0  0  0
    9.8652   -4.9294    0.0000 C   0  0  0  0  0  0  0  0  0  0  0  0
    9.8652   -4.1044    0.0000 C   0  0  0  0  0  0  0  0  0  0  0  0
    9.1507   -3.6919    0.0000 C   0  0  0  0  0  0  0  0  0  0  0  0
    8.4363   -4.1044    0.0000 C   0  0  0  0  0  0  0  0  0  0  0  0
    5.5769   -9.8781    0.0000 O   0  0  0  0  0  0  0  0  0  0  0  0
    5.3630  -10.7311    0.0000 C   0  0  0  0  0  0  0  0  0  0  0  0
    4.7792  -11.7413    0.0000 O   0  0  0  0  0  0  0  0  0  0  0  0
    4.1469  -12.3525    0.0000 O   0  0  0  0  0  0  0  0  0  0  0  0
    4.8608  -13.5903    0.0000 O   0  0  0  0  0  0  0  0  0  0  0  0
    4.8612  -12.7653    0.0000 C   0  0  0  0  0  0  0  0  0  0  0  0
    5.5758  -12.3531    0.0000 C   0  0  0  0  0  0  0  0  0  0  0  0
    5.5784   -4.1044    0.0000 O   0  0  0  0  0  0  0  0  0  0  0  0
    4.1494   -4.9294    0.0000 O   0  0  0  0  0  0  0  0  0  0  0  0
    5.5784   -7.4044    0.0000 O   0  0  0  0  0  0  0  0  0  0  0  0
    7.0073   -7.4044    0.0000 O   0  0  0  0  0  0  0  0  0  0  0  0
    9.1507   -2.8669    0.0000 O   0  0  0  0  0  0  0  0  0  0  0  0
   10.5797   -3.6919    0.0000 O   0  0  0  0  0  0  0  0  0  0  0  0
    5.5762  -11.5281    0.0000 C   0  0  0  0  0  0  0  0  0  0  0  0
    6.2909  -11.1159    0.0000 C   0  0  0  0  0  0  0  0  0  0  0  0
    6.2912  -10.2909    0.0000 C   0  0  0  0  0  0  0  0  0  0  0  0
    7.0059   -9.8787    0.0000 O   0  0  0  0  0  0  0  0  0  0  0  0
    7.0062   -9.0537    0.0000 C   0  0  0  0  0  0  0  0  0  0  0  0
    8.4348   -9.8794    0.0000 O   0  0  0  0  0  0  0  0  0  0  0  0
    9.8641   -9.0550    0.0000 O   0  0  0  0  0  0  0  0  0  0  0  0
    9.8648   -7.4050    0.0000 O   0  0  0  0  0  0  0  0  0  0  0  0
    7.7212   -7.8166    0.0000 O   0  0  0  0  0  0  0  0  0  0  0  0
    7.7209   -8.6416    0.0000 C   0  0  1  0  0  0  0  0  0  0  0  0
    8.4352   -9.0544    0.0000 C   0  0  2  0  0  0  0  0  0  0  0  0
    9.1498   -8.6422    0.0000 C   0  0  1  0  0  0  0  0  0  0  0  0
    9.1502   -7.8172    0.0000 C   0  0  2  0  0  0  0  0  0  0  0  0
    8.4359   -7.4044    0.0000 C   0  0  2  0  0  0  0  0  0  0  0  0
    8.4363   -6.5794    0.0000 O   0  0  0  0  0  0  0  0  0  0  0  0
    4.8639   -3.6919    0.0000 C   0  0  0  0  0  0  0  0  0  0  0  0
    8.4363   -2.4544    0.0000 C   0  0  0  0  0  0  0  0  0  0  0  0
  1  2  2  0  0  0  0
  2  3  1  0  0  0  0
  3  4  2  0  0  0  0
  4  5  1  0  0  0  0
  5  6  2  0  0  0  0
  6  1  1  0  0  0  0
  4  7  1  0  0  0  0
  7  8  1  0  0  0  0
  8  9  2  0  0  0  0
  9 10  1  0  0  0  0
 10  5  1  0  0  0  0
  9 11  1  0  0  0  0
 11 12  2  0  0  0  0
 12 13  1  0  0  0  0
 13 14  2  0  0  0  0
 14 15  1  0  0  0  0
 15 16  2  0  0  0  0
 16 11  1  0  0  0  0
 32 17  2  0  0  0  0
  8 44  1  0  0  0  0
 30 18  1  0  0  0  0
 30 19  1  0  0  0  0
 22 20  2  0  0  0  0
 22 21  1  0  0  0  0
 23 22  1  0  0  0  0
 30 23  1  0  0  0  0
  6 24  1  0  0  0  0
  1 25  1  0  0  0  0
  3 26  1  0  0  0  0
  7 27  2  0  0  0  0
 15 28  1  0  0  0  0
 14 29  1  0  0  0  0
 31 30  1  0  0  0  0
 32 31  1  0  0  0  0
 33 32  1  0  0  0  0
 34 33  1  0  0  0  0
 39 34  1  1  0  0  0
 40 35  1  6  0  0  0
 41 36  1  1  0  0  0
 42 37  1  6  0  0  0
 38 43  1  0  0  0  0
 39 38  1  0  0  0  0
 40 39  1  0  0  0  0
 41 40  1  0  0  0  0
 42 41  1  0  0  0  0
 43 42  1  0  0  0  0
 43 44  1  1  0  0  0
 24 45  1  0  0  0  0
 28 46  1  0  0  0  0
M  END
>  <cdx:fragmentId>
5

$$$$
