593061.cdx
  Mrv1902 05222410262D          

 26 28  0  0  0  0            999 V2000
    8.0484   -7.5044    0.0000 C   0  0  0  0  0  0  0  0  0  0  0  0
    7.3332   -7.9157    0.0000 C   0  0  0  0  0  0  0  0  0  0  0  0
    6.6194   -7.5020    0.0000 O   0  0  0  0  0  0  0  0  0  0  0  0
    7.3319   -8.7407    0.0000 C   0  0  2  0  0  0  0  0  0  0  0  0
    8.0457   -9.1544    0.0000 C   0  0  0  0  0  0  0  0  0  0  0  0
    8.0443   -9.9794    0.0000 C   0  0  0  0  0  0  0  0  0  0  0  0
    7.3292  -10.3907    0.0000 C   0  0  0  0  0  0  0  0  0  0  0  0
    6.6154   -9.9770    0.0000 C   0  0  2  0  0  0  0  0  0  0  0  0
    5.9003  -10.3884    0.0000 C   0  0  1  0  0  0  0  0  0  0  0  0
    5.1865   -9.9747    0.0000 C   0  0  1  0  0  0  0  0  0  0  0  0
    5.1878   -9.1497    0.0000 C   0  0  0  0  0  0  0  0  0  0  0  0
    5.9029   -8.7384    0.0000 C   0  0  0  0  0  0  0  0  0  0  0  0
    6.6167   -9.1520    0.0000 C   0  0  1  0  0  0  0  0  0  0  0  0
    8.7608   -8.7430    0.0000 C   0  0  0  0  0  0  0  0  0  0  0  0
    6.6181   -8.3270    0.0000 C   0  0  0  0  0  0  0  0  0  0  0  0
    5.4866  -11.1022    0.0000 C   0  0  0  0  0  0  0  0  0  0  0  0
    6.3116  -11.1035    0.0000 C   0  0  0  0  0  0  0  0  0  0  0  0
    4.4713  -10.3861    0.0000 O   0  0  0  0  0  0  0  0  0  0  0  0
    6.6141  -10.8020    0.0000 H   0  0  0  0  0  0  0  0  0  0  0  0
    9.5022   -6.4518    0.0000 O   0  0  0  0  0  0  0  0  0  0  0  0
    8.7179   -6.1955    0.0000 C   0  0  0  0  0  0  0  0  0  0  0  0
    8.0497   -6.6794    0.0000 C   0  0  0  0  0  0  0  0  0  0  0  0
    7.3831   -6.1934    0.0000 C   0  0  0  0  0  0  0  0  0  0  0  0
    7.6393   -5.4092    0.0000 C   0  0  0  0  0  0  0  0  0  0  0  0
    8.4643   -5.4105    0.0000 O   0  0  0  0  0  0  0  0  0  0  0  0
    5.8991  -11.8166    0.0000 O   0  0  0  0  0  0  0  0  0  0  0  0
 21 20  2  0  0  0  0
 25 21  1  0  0  0  0
 22 21  1  0  0  0  0
 23 22  2  0  0  0  0
 24 23  1  0  0  0  0
 25 24  1  0  0  0  0
  1  2  1  0  0  0  0
  2  3  2  0  0  0  0
  4  5  1  0  0  0  0
  5  6  1  0  0  0  0
  6  7  1  0  0  0  0
  7  8  1  0  0  0  0
  8  9  1  0  0  0  0
  9 10  1  0  0  0  0
 10 11  1  0  0  0  0
 11 12  1  0  0  0  0
 12 13  1  0  0  0  0
  4 13  1  0  0  0  0
  8 13  1  0  0  0  0
  5 14  2  0  0  0  0
 13 15  1  6  0  0  0
  9 16  1  6  0  0  0
  9 17  1  1  0  0  0
 10 18  1  6  0  0  0
  4  2  1  6  0  0  0
 22  1  1  0  0  0  0
  8 19  1  1  0  0  0
 16 26  1  0  0  0  0
M  END
>  <cdx:fragmentId>
23

$$$$
