593093.cdx
  Mrv1902 05222410202D          

 13 14  0  0  0  0            999 V2000
    7.9928   -6.2961    0.0000 C   0  0  0  0  0  0  0  0  0  0  0  0
    7.9928   -5.4711    0.0000 C   0  0  0  0  0  0  0  0  0  0  0  0
    7.2783   -5.0586    0.0000 C   0  0  0  0  0  0  0  0  0  0  0  0
    6.5638   -5.4711    0.0000 C   0  0  0  0  0  0  0  0  0  0  0  0
    5.8494   -5.0586    0.0000 C   0  0  0  0  0  0  0  0  0  0  0  0
    5.1349   -5.4711    0.0000 C   0  0  0  0  0  0  0  0  0  0  0  0
    5.1349   -6.2961    0.0000 C   0  0  0  0  0  0  0  0  0  0  0  0
    5.8494   -6.7086    0.0000 C   0  0  0  0  0  0  0  0  0  0  0  0
    6.5638   -6.2961    0.0000 C   0  0  0  0  0  0  0  0  0  0  0  0
    7.2783   -6.7086    0.0000 S   0  0  0  0  0  0  0  0  0  0  0  0
    8.7073   -5.0586    0.0000 C   0  0  0  0  0  0  0  0  0  0  0  0
    9.4217   -5.4711    0.0000 C   0  0  0  0  0  0  0  0  0  0  0  0
   10.1362   -5.0586    0.0000 C   0  0  0  0  0  0  0  0  0  0  0  0
  1  2  1  0  0  0  0
  2  3  1  0  0  0  0
  3  4  1  0  0  0  0
  4  5  1  0  0  0  0
  5  6  1  0  0  0  0
  6  7  1  0  0  0  0
  7  8  1  0  0  0  0
  8  9  1  0  0  0  0
  4  9  1  0  0  0  0
  9 10  1  0  0  0  0
  1 10  1  0  0  0  0
 11 12  1  0  0  0  0
 12 13  1  0  0  0  0
  2 11  1  0  0  0  0
M  END
>  <cdx:fragmentId>
5683

$$$$
