593158.cdx
  Mrv1902 05222410272D          

 40 46  0  0  0  0            999 V2000
    5.4910   -7.4961    0.0000 C   0  0  1  0  0  0  0  0  0  0  0  0
    4.7812   -7.9165    0.0000 C   0  0  0  0  0  0  0  0  0  0  0  0
    4.0622   -7.5121    0.0000 C   0  0  2  0  0  0  0  0  0  0  0  0
    4.0529   -6.6871    0.0000 C   0  0  0  0  0  0  0  0  0  0  0  0
    4.7628   -6.2666    0.0000 C   0  0  0  0  0  0  0  0  0  0  0  0
    5.4818   -6.6711    0.0000 C   0  0  1  0  0  0  0  0  0  0  0  0
    3.3524   -7.9325    0.0000 H   0  0  0  0  0  0  0  0  0  0  0  0
    5.2017   -8.6264    0.0000 C   0  0  0  0  0  0  0  0  0  0  0  0
    4.3767   -8.6356    0.0000 C   0  0  0  0  0  0  0  0  0  0  0  0
    5.5002   -8.3210    0.0000 H   0  0  0  0  0  0  0  0  0  0  0  0
    4.9388   -7.3294    0.0000 O   0  0  0  0  0  0  0  0  0  0  0  0
    6.1417   -8.0032    0.0000 C   0  0  0  0  0  0  0  0  0  0  0  0
    6.9440   -7.8107    0.0000 C   0  0  0  0  0  0  0  0  0  0  0  0
    7.2936   -7.0634    0.0000 C   0  0  0  0  0  0  0  0  0  0  0  0
    6.9273   -6.3242    0.0000 C   0  0  0  0  0  0  0  0  0  0  0  0
    6.1210   -6.1496    0.0000 C   0  0  0  0  0  0  0  0  0  0  0  0
    8.1169   -7.1159    0.0000 C   0  0  1  0  0  0  0  0  0  0  0  0
    8.5740   -6.4291    0.0000 C   0  0  2  0  0  0  0  0  0  0  0  0
    8.2078   -5.6898    0.0000 C   0  0  0  0  0  0  0  0  0  0  0  0
    7.3844   -5.6374    0.0000 C   0  0  0  0  0  0  0  0  0  0  0  0
    8.6288   -7.7628    0.0000 C   0  0  2  0  0  0  0  0  0  0  0  0
    9.4023   -7.4758    0.0000 C   0  0  2  0  0  0  0  0  0  0  0  0
    9.3684   -6.6515    0.0000 C   0  0  2  0  0  0  0  0  0  0  0  0
    9.4362   -8.3001    0.0000 O   0  0  0  0  0  0  0  0  0  0  0  0
   10.2307   -8.5226    0.0000 C   0  0  1  0  0  0  0  0  0  0  0  0
   10.6878   -7.8358    0.0000 C   0  0  2  0  0  0  0  0  0  0  0  0
   10.1758   -7.1889    0.0000 O   0  0  0  0  0  0  0  0  0  0  0  0
   10.2934   -6.1337    0.0000 C   0  0  1  0  0  0  0  0  0  0  0  0
   11.0274   -6.8009    0.0000 C   0  0  0  0  0  0  0  0  0  0  0  0
   10.2702   -5.3090    0.0000 C   0  0  0  0  0  0  0  0  0  0  0  0
    9.3566   -5.8266    0.0000 H   0  0  0  0  0  0  0  0  0  0  0  0
   11.4876   -8.0379    0.0000 H   0  0  0  0  0  0  0  0  0  0  0  0
   10.5176   -9.2961    0.0000 C   0  0  0  0  0  0  0  0  0  0  0  0
   11.3114   -9.0712    0.0000 C   0  0  0  0  0  0  0  0  0  0  0  0
    9.7239   -9.5211    0.0000 C   0  0  0  0  0  0  0  0  0  0  0  0
   10.7426  -10.0899    0.0000 O   0  0  0  0  0  0  0  0  0  0  0  0
    9.6557   -9.1143    0.0000 H   0  0  0  0  0  0  0  0  0  0  0  0
    8.9762   -5.7087    0.0000 C   0  0  0  0  0  0  0  0  0  0  0  0
    7.7147   -7.8362    0.0000 C   0  0  0  0  0  0  0  0  0  0  0  0
    8.4064   -8.5572    0.0000 O   0  0  0  0  0  0  0  0  0  0  0  0
  1  2  1  0  0  0  0
  2  3  1  0  0  0  0
  3  4  1  0  0  0  0
  4  5  1  0  0  0  0
  5  6  1  0  0  0  0
  1  6  1  0  0  0  0
  3  7  1  1  0  0  0
  2  8  1  0  0  0  0
  2  9  1  0  0  0  0
  1 10  1  6  0  0  0
  6 11  1  0  0  0  0
 11  3  1  0  0  0  0
  1 12  1  0  0  0  0
 12 13  1  0  0  0  0
 13 14  1  0  0  0  0
 14 15  2  0  0  0  0
 15 16  1  0  0  0  0
  6 16  1  1  0  0  0
 14 17  1  0  0  0  0
 17 18  1  0  0  0  0
 18 19  1  0  0  0  0
 19 20  1  0  0  0  0
 20 15  1  0  0  0  0
 17 21  1  0  0  0  0
 21 22  1  0  0  0  0
 22 23  1  0  0  0  0
 23 18  1  0  0  0  0
 22 24  1  6  0  0  0
 24 25  1  0  0  0  0
 25 26  1  0  0  0  0
 26 27  1  0  0  0  0
 27 22  1  0  0  0  0
 23 28  1  0  0  0  0
 28 29  1  0  0  0  0
 29 26  1  0  0  0  0
 28 30  1  6  0  0  0
 23 31  1  6  0  0  0
 26 32  1  1  0  0  0
 25 33  1  0  0  0  0
 33 34  1  0  0  0  0
 33 35  1  0  0  0  0
 33 36  1  0  0  0  0
 25 37  1  6  0  0  0
 18 38  1  1  0  0  0
 17 39  1  6  0  0  0
 21 40  1  6  0  0  0
M  END
>  <cdx:fragmentId>
426

$$$$
