593159.cdx
  Mrv1902 05222410272D          

 39 44  0  0  0  0            999 V2000
    2.3402   -8.5096    0.0000 H   0  0  0  0  0  0  0  0  0  0  0  0
    4.4652   -8.9390    0.0000 H   0  0  0  0  0  0  0  0  0  0  0  0
    8.3761   -8.9938    0.0000 H   0  0  0  0  0  0  0  0  0  0  0  0
    8.4014   -6.5195    0.0000 H   0  0  0  0  0  0  0  0  0  0  0  0
   10.5678   -9.3593    0.0000 O   0  0  0  0  0  0  0  0  0  0  0  0
   11.9603   -7.6783    0.0000 O   0  0  0  0  0  0  0  0  0  0  0  0
   11.6347   -8.8389    0.0000 C   0  0  0  0  0  0  0  0  0  0  0  0
   10.8754   -7.3739    0.0000 C   0  0  0  0  0  0  0  0  0  0  0  0
   11.2550   -8.1064    0.0000 C   0  0  0  0  0  0  0  0  0  0  0  0
   10.5498   -8.5345    0.0000 C   0  0  0  0  0  0  0  0  0  0  0  0
    8.0208   -6.4032    0.0000 C   0  0  0  0  0  0  0  0  0  0  0  0
    9.0669   -6.0914    0.0000 C   0  0  0  0  0  0  0  0  0  0  0  0
    6.6884   -8.4879    0.0000 C   0  0  0  0  0  0  0  0  0  0  0  0
    4.1759   -9.2388    0.0000 C   0  0  0  0  0  0  0  0  0  0  0  0
    3.3509   -9.2322    0.0000 C   0  0  0  0  0  0  0  0  0  0  0  0
    7.3695   -9.2275    0.0000 O   0  0  0  0  0  0  0  0  0  0  0  0
    3.6099   -7.4043    0.0000 O   0  0  0  0  0  0  0  0  0  0  0  0
    3.7823   -6.8711    0.0000 C   0  0  0  0  0  0  0  0  0  0  0  0
    3.0645   -7.2779    0.0000 C   0  0  0  0  0  0  0  0  0  0  0  0
    3.0579   -8.1029    0.0000 C   0  0  1  0  0  0  0  0  0  0  0  0
    3.7691   -8.5211    0.0000 C   0  0  0  0  0  0  0  0  0  0  0  0
    4.4868   -8.1143    0.0000 C   0  0  2  0  0  0  0  0  0  0  0  0
    5.1277   -8.6338    0.0000 C   0  0  0  0  0  0  0  0  0  0  0  0
    5.9335   -8.4567    0.0000 C   0  0  0  0  0  0  0  0  0  0  0  0
    6.2974   -7.7163    0.0000 C   0  0  0  0  0  0  0  0  0  0  0  0
    7.1195   -7.7845    0.0000 C   0  0  1  0  0  0  0  0  0  0  0  0
    7.6190   -8.4411    0.0000 C   0  0  0  0  0  0  0  0  0  0  0  0
    8.3978   -8.1691    0.0000 C   0  0  2  0  0  0  0  0  0  0  0  0
    9.1212   -8.5658    0.0000 O   0  0  0  0  0  0  0  0  0  0  0  0
    9.8264   -8.1377    0.0000 C   0  0  0  0  0  0  0  0  0  0  0  0
    9.8083   -7.3129    0.0000 C   0  0  0  0  0  0  0  0  0  0  0  0
    9.0850   -6.9162    0.0000 C   0  0  2  0  0  0  0  0  0  0  0  0
    8.3797   -7.3443    0.0000 C   0  0  2  0  0  0  0  0  0  0  0  0
    7.5897   -7.1066    0.0000 C   0  0  2  0  0  0  0  0  0  0  0  0
    7.2377   -6.3604    0.0000 C   0  0  0  0  0  0  0  0  0  0  0  0
    6.4155   -6.2922    0.0000 C   0  0  0  0  0  0  0  0  0  0  0  0
    5.9454   -6.9701    0.0000 C   0  0  0  0  0  0  0  0  0  0  0  0
    5.1425   -6.7801    0.0000 C   0  0  0  0  0  0  0  0  0  0  0  0
    4.4934   -7.2893    0.0000 C   0  0  2  0  0  0  0  0  0  0  0  0
 20  1  1  1  0  0  0
 22  2  1  6  0  0  0
 28  3  1  6  0  0  0
 33  4  1  6  0  0  0
 30 10  1  0  0  0  0
 10  5  1  0  0  0  0
  9  6  1  0  0  0  0
  9  7  1  0  0  0  0
  9  8  1  0  0  0  0
 10  9  1  0  0  0  0
 34 11  1  1  0  0  0
 32 12  1  6  0  0  0
 26 13  1  6  0  0  0
 21 14  1  0  0  0  0
 21 15  1  0  0  0  0
 27 16  2  0  0  0  0
 33 28  1  0  0  0  0
 34 26  1  0  0  0  0
 37 25  2  0  0  0  0
 39 22  1  0  0  0  0
 20 17  1  1  0  0  0
 39 17  1  1  0  0  0
 39 18  1  0  0  0  0
 19 18  1  0  0  0  0
 20 19  1  0  0  0  0
 21 20  1  0  0  0  0
 22 21  1  0  0  0  0
 23 22  1  0  0  0  0
 24 23  1  0  0  0  0
 25 24  1  0  0  0  0
 26 25  1  0  0  0  0
 27 26  1  0  0  0  0
 28 27  1  0  0  0  0
 29 28  1  0  0  0  0
 30 29  1  0  0  0  0
 31 30  1  0  0  0  0
 32 31  1  0  0  0  0
 33 32  1  0  0  0  0
 34 33  1  0  0  0  0
 35 34  1  0  0  0  0
 36 35  1  0  0  0  0
 37 36  1  0  0  0  0
 38 37  1  0  0  0  0
 39 38  1  0  0  0  0
M  END
>  <cdx:fragmentId>
251172

$$$$
