593379.cdx
  Mrv1902 05222410182D          

 38 42  0  0  0  0            999 V2000
    8.7583   -6.5915    0.0000 C   0  0  1  0  0  0  0  0  0  0  0  0
    9.4685   -6.1716    0.0000 C   0  0  1  0  0  0  0  0  0  0  0  0
   10.1872   -6.5766    0.0000 C   0  0  0  0  0  0  0  0  0  0  0  0
   10.1958   -7.4015    0.0000 C   0  0  0  0  0  0  0  0  0  0  0  0
    9.4857   -7.8215    0.0000 C   0  0  2  0  0  0  0  0  0  0  0  0
    9.4943   -8.6464    0.0000 C   0  0  0  0  0  0  0  0  0  0  0  0
    8.7842   -9.0664    0.0000 C   0  0  0  0  0  0  0  0  0  0  0  0
    8.0655   -8.6614    0.0000 C   0  0  1  0  0  0  0  0  0  0  0  0
    7.3553   -9.0813    0.0000 C   0  0  2  0  0  0  0  0  0  0  0  0
    7.3640   -9.9063    0.0000 C   0  0  0  0  0  0  0  0  0  0  0  0
    6.6538  -10.3262    0.0000 C   0  0  0  0  0  0  0  0  0  0  0  0
    5.9351   -9.9212    0.0000 C   0  0  1  0  0  0  0  0  0  0  0  0
    5.2250  -10.3411    0.0000 C   0  0  0  0  0  0  0  0  0  0  0  0
    4.5062   -9.9361    0.0000 C   0  0  2  0  0  0  0  0  0  0  0  0
    4.4976   -9.1112    0.0000 C   0  0  0  0  0  0  0  0  0  0  0  0
    5.2077   -8.6912    0.0000 C   0  0  0  0  0  0  0  0  0  0  0  0
    5.9265   -9.0962    0.0000 C   0  0  2  0  0  0  0  0  0  0  0  0
    6.6366   -8.6763    0.0000 C   0  0  1  0  0  0  0  0  0  0  0  0
    6.6280   -7.8513    0.0000 C   0  0  0  0  0  0  0  0  0  0  0  0
    7.3381   -7.4314    0.0000 C   0  0  0  0  0  0  0  0  0  0  0  0
    8.0568   -7.8364    0.0000 C   0  0  0  0  0  0  0  0  0  0  0  0
    8.7670   -7.4165    0.0000 C   0  0  2  0  0  0  0  0  0  0  0  0
   10.2045   -8.2265    0.0000 C   0  0  0  0  0  0  0  0  0  0  0  0
   10.2131   -9.0514    0.0000 O   0  0  0  0  0  0  0  0  0  0  0  0
   10.9146   -7.8065    0.0000 O   0  0  0  0  0  0  0  0  0  0  0  0
    3.7789   -8.7062    0.0000 O   0  0  0  0  0  0  0  0  0  0  0  0
    5.6449  -11.0513    0.0000 C   0  0  0  0  0  0  0  0  0  0  0  0
    4.8200  -11.0599    0.0000 C   0  0  0  0  0  0  0  0  0  0  0  0
    9.4598   -5.3466    0.0000 C   0  0  0  0  0  0  0  0  0  0  0  0
    8.3573   -5.8705    0.0000 C   0  0  0  0  0  0  0  0  0  0  0  0
    3.7961  -10.3561    0.0000 O   0  0  0  0  0  0  0  0  0  0  0  0
    7.9650   -6.3653    0.0000 O   0  0  0  0  0  0  0  0  0  0  0  0
    5.9437  -10.7461    0.0000 H   0  0  0  0  0  0  0  0  0  0  0  0
    8.7756   -8.2414    0.0000 H   0  0  0  0  0  0  0  0  0  0  0  0
    5.9179   -8.2713    0.0000 C   0  0  0  0  0  0  0  0  0  0  0  0
    7.3685   -8.2564    0.0000 C   0  0  0  0  0  0  0  0  0  0  0  0
    8.0523   -9.4863    0.0000 C   0  0  0  0  0  0  0  0  0  0  0  0
    6.6234   -9.5012    0.0000 H   0  0  0  0  0  0  0  0  0  0  0  0
  1  2  1  0  0  0  0
  2  3  1  0  0  0  0
  3  4  1  0  0  0  0
  4  5  1  0  0  0  0
  5  6  1  0  0  0  0
  6  7  1  0  0  0  0
  7  8  1  0  0  0  0
  8  9  1  0  0  0  0
  9 10  1  0  0  0  0
 10 11  1  0  0  0  0
 11 12  1  0  0  0  0
 12 13  1  0  0  0  0
 13 14  1  0  0  0  0
 14 15  1  0  0  0  0
 15 16  1  0  0  0  0
 16 17  1  0  0  0  0
 12 17  1  0  0  0  0
 17 18  1  0  0  0  0
  9 18  1  0  0  0  0
 18 19  1  0  0  0  0
 19 20  1  0  0  0  0
 20 21  2  0  0  0  0
  8 21  1  0  0  0  0
 21 22  1  0  0  0  0
  5 22  1  0  0  0  0
  1 22  1  0  0  0  0
 23 24  2  0  0  0  0
 23 25  1  0  0  0  0
  5 23  1  1  0  0  0
 15 26  2  0  0  0  0
 13 27  1  0  0  0  0
 13 28  1  0  0  0  0
  2 29  1  6  0  0  0
  1 30  1  1  0  0  0
 14 31  1  1  0  0  0
  1 32  1  6  0  0  0
 12 33  1  6  0  0  0
 22 34  1  1  0  0  0
 17 35  1  1  0  0  0
  9 36  1  1  0  0  0
  8 37  1  6  0  0  0
 18 38  1  6  0  0  0
M  END
>  <cdx:fragmentId>
171322

$$$$
