593361.cdx
  Mrv1902 05222410282D          

 46 50  0  0  0  0            999 V2000
    5.7380   -6.3599    0.0000 C   0  0  0  0  0  0  0  0  0  0  0  0
    5.0289   -6.7815    0.0000 C   0  0  0  0  0  0  0  0  0  0  0  0
    4.3092   -6.3782    0.0000 C   0  0  0  0  0  0  0  0  0  0  0  0
    5.7275   -5.5350    0.0000 O   0  0  0  0  0  0  0  0  0  0  0  0
    6.4577   -6.7632    0.0000 O   0  0  0  0  0  0  0  0  0  0  0  0
    3.6000   -6.7998    0.0000 C   0  0  0  0  0  0  0  0  0  0  0  0
    2.8804   -6.3964    0.0000 C   0  0  0  0  0  0  0  0  0  0  0  0
    2.1712   -6.8181    0.0000 C   0  0  0  0  0  0  0  0  0  0  0  0
    2.1818   -7.6430    0.0000 C   0  0  0  0  0  0  0  0  0  0  0  0
    2.9015   -8.0463    0.0000 C   0  0  0  0  0  0  0  0  0  0  0  0
    3.6106   -7.6247    0.0000 C   0  0  0  0  0  0  0  0  0  0  0  0
    1.4726   -8.0646    0.0000 O   0  0  0  0  0  0  0  0  0  0  0  0
    1.4515   -6.4147    0.0000 O   0  0  0  0  0  0  0  0  0  0  0  0
    9.2942   -5.0768    0.0000 O   0  0  0  0  0  0  0  0  0  0  0  0
    8.5851   -5.4984    0.0000 C   0  0  1  0  0  0  0  0  0  0  0  0
    8.5957   -6.3233    0.0000 C   0  0  1  0  0  0  0  0  0  0  0  0
    9.3153   -6.7266    0.0000 O   0  0  0  0  0  0  0  0  0  0  0  0
   10.0245   -6.3050    0.0000 C   0  0  0  0  0  0  0  0  0  0  0  0
   10.0139   -5.4801    0.0000 C   0  0  0  0  0  0  0  0  0  0  0  0
    7.8865   -6.7449    0.0000 C   0  0  2  0  0  0  0  0  0  0  0  0
    7.1668   -6.3416    0.0000 C   0  0  1  0  0  0  0  0  0  0  0  0
    7.1563   -5.5167    0.0000 C   0  0  2  0  0  0  0  0  0  0  0  0
    7.8654   -5.0951    0.0000 O   0  0  0  0  0  0  0  0  0  0  0  0
    7.8971   -7.5699    0.0000 O   0  0  0  0  0  0  0  0  0  0  0  0
    6.4683   -7.5881    0.0000 O   0  0  0  0  0  0  0  0  0  0  0  0
    7.1879   -7.9915    0.0000 C   0  0  2  0  0  0  0  0  0  0  0  0
    7.1985   -8.8164    0.0000 C   0  0  1  0  0  0  0  0  0  0  0  0
    6.4894   -9.2380    0.0000 C   0  0  1  0  0  0  0  0  0  0  0  0
    5.7697   -8.8347    0.0000 C   0  0  2  0  0  0  0  0  0  0  0  0
    5.7591   -8.0097    0.0000 C   0  0  2  0  0  0  0  0  0  0  0  0
    5.0394   -7.6064    0.0000 C   0  0  0  0  0  0  0  0  0  0  0  0
    5.0605   -9.2563    0.0000 O   0  0  0  0  0  0  0  0  0  0  0  0
    6.4999  -10.0629    0.0000 O   0  0  0  0  0  0  0  0  0  0  0  0
    7.9182   -9.2197    0.0000 O   0  0  0  0  0  0  0  0  0  0  0  0
    6.4366   -5.1133    0.0000 C   0  0  0  0  0  0  0  0  0  0  0  0
    6.4260   -4.2884    0.0000 O   0  0  0  0  0  0  0  0  0  0  0  0
   10.7442   -6.7084    0.0000 C   0  0  0  0  0  0  0  0  0  0  0  0
   11.4533   -6.2868    0.0000 C   0  0  0  0  0  0  0  0  0  0  0  0
   12.1730   -6.6901    0.0000 C   0  0  0  0  0  0  0  0  0  0  0  0
   12.1836   -7.5150    0.0000 C   0  0  0  0  0  0  0  0  0  0  0  0
   11.4744   -7.9366    0.0000 C   0  0  0  0  0  0  0  0  0  0  0  0
   10.7547   -7.5333    0.0000 C   0  0  0  0  0  0  0  0  0  0  0  0
   12.9032   -7.9183    0.0000 O   0  0  0  0  0  0  0  0  0  0  0  0
   12.8821   -6.2685    0.0000 O   0  0  0  0  0  0  0  0  0  0  0  0
    8.5745   -4.6735    0.0000 H   0  0  0  0  0  0  0  0  0  0  0  0
    8.6062   -7.1483    0.0000 H   0  0  0  0  0  0  0  0  0  0  0  0
  1  2  1  0  0  0  0
  2  3  2  0  0  0  0
  1  4  2  0  0  0  0
  1  5  1  0  0  0  0
  6  7  1  0  0  0  0
  7  8  2  0  0  0  0
  8  9  1  0  0  0  0
  9 10  2  0  0  0  0
 10 11  1  0  0  0  0
  6 11  2  0  0  0  0
  9 12  1  0  0  0  0
  8 13  1  0  0  0  0
  3  6  1  0  0  0  0
 14 15  1  0  0  0  0
 15 16  1  0  0  0  0
 16 17  1  0  0  0  0
 17 18  1  0  0  0  0
 18 19  1  0  0  0  0
 14 19  1  0  0  0  0
 20 21  1  0  0  0  0
 21 22  1  0  0  0  0
 22 23  1  0  0  0  0
 23 15  1  0  0  0  0
 20 16  1  0  0  0  0
 25 26  1  0  0  0  0
 26 27  1  0  0  0  0
 27 28  1  0  0  0  0
 28 29  1  0  0  0  0
 29 30  1  0  0  0  0
 25 30  1  0  0  0  0
 30 31  1  6  0  0  0
 29 32  1  1  0  0  0
 28 33  1  6  0  0  0
 27 34  1  6  0  0  0
 26 24  1  1  0  0  0
 20 24  1  1  0  0  0
 35 36  1  0  0  0  0
 22 35  1  1  0  0  0
 37 38  1  0  0  0  0
 38 39  2  0  0  0  0
 39 40  1  0  0  0  0
 40 41  2  0  0  0  0
 41 42  1  0  0  0  0
 37 42  2  0  0  0  0
 40 43  1  0  0  0  0
 39 44  1  0  0  0  0
 18 37  1  0  0  0  0
 21  5  1  6  0  0  0
 15 45  1  6  0  0  0
 16 46  1  6  0  0  0
M  END
>  <cdx:groupId>
144

>  <cdx:fragmentId>
53

$$$$
