593347.cdx
  Mrv1902 05222410192D          

 27 29  0  0  0  0            999 V2000
    6.1743   -6.5650    0.0000 C   0  0  1  0  0  0  0  0  0  0  0  0
    5.5398   -7.0922    0.0000 C   0  0  0  0  0  0  0  0  0  0  0  0
    5.5539   -7.9171    0.0000 C   0  0  0  0  0  0  0  0  0  0  0  0
    4.8465   -8.3418    0.0000 C   0  0  0  0  0  0  0  0  0  0  0  0
    4.8606   -9.1667    0.0000 C   0  0  0  0  0  0  0  0  0  0  0  0
    5.5821   -9.5669    0.0000 C   0  0  0  0  0  0  0  0  0  0  0  0
    6.2894   -9.1422    0.0000 C   0  0  0  0  0  0  0  0  0  0  0  0
    6.2753   -8.3174    0.0000 C   0  0  0  0  0  0  0  0  0  0  0  0
    4.1533   -9.5913    0.0000 O   0  0  0  0  0  0  0  0  0  0  0  0
    4.1674  -10.4162    0.0000 C   0  0  0  0  0  0  0  0  0  0  0  0
    5.5962  -10.3918    0.0000 O   0  0  0  0  0  0  0  0  0  0  0  0
    6.3136   -7.3782    0.0000 O   0  0  0  0  0  0  0  0  0  0  0  0
   10.6818   -5.6314    0.0000 O   0  0  0  0  0  0  0  0  0  0  0  0
   10.1360   -4.2642    0.0000 C   0  0  0  0  0  0  0  0  0  0  0  0
    9.3866   -4.6092    0.0000 O   0  0  0  0  0  0  0  0  0  0  0  0
    9.0301   -7.0584    0.0000 C   0  0  0  0  0  0  0  0  0  0  0  0
    9.7966   -6.7531    0.0000 C   0  0  0  0  0  0  0  0  0  0  0  0
    9.9154   -5.9367    0.0000 C   0  0  0  0  0  0  0  0  0  0  0  0
    9.2677   -5.4256    0.0000 C   0  0  0  0  0  0  0  0  0  0  0  0
    8.5013   -5.7309    0.0000 C   0  0  0  0  0  0  0  0  0  0  0  0
    8.3825   -6.5473    0.0000 C   0  0  0  0  0  0  0  0  0  0  0  0
    7.6161   -6.8526    0.0000 C   0  0  0  0  0  0  0  0  0  0  0  0
    4.8920   -5.8460    0.0000 O   0  0  0  0  0  0  0  0  0  0  0  0
    7.0013   -5.5172    0.0000 C   0  0  0  0  0  0  0  0  0  0  0  0
    6.9685   -6.3415    0.0000 C   0  0  2  0  0  0  0  0  0  0  0  0
    5.7163   -5.8788    0.0000 C   0  0  0  0  0  0  0  0  0  0  0  0
    6.2274   -5.2312    0.0000 O   0  0  0  0  0  0  0  0  0  0  0  0
 25 22  1  1  0  0  0
 22 21  1  0  0  0  0
 18 13  1  0  0  0  0
 19 15  1  0  0  0  0
 15 14  1  0  0  0  0
 21 16  2  0  0  0  0
 17 16  1  0  0  0  0
 18 17  2  0  0  0  0
 19 18  1  0  0  0  0
 20 19  2  0  0  0  0
 21 20  1  0  0  0  0
 26 23  2  0  0  0  0
 27 24  1  0  0  0  0
 25 24  1  0  0  0  0
  1 25  1  0  0  0  0
 26  1  1  0  0  0  0
 27 26  1  0  0  0  0
  3  4  1  0  0  0  0
  4  5  2  0  0  0  0
  5  6  1  0  0  0  0
  6  7  2  0  0  0  0
  7  8  1  0  0  0  0
  3  8  2  0  0  0  0
  9 10  1  0  0  0  0
  5  9  1  0  0  0  0
  6 11  1  0  0  0  0
  2  3  1  0  0  0  0
  1  2  1  0  0  0  0
  1 12  1  1  0  0  0
M  END
>  <cdx:groupId>
432

>  <cdx:fragmentId>
366

$$$$
