44593449.cdx
  Mrv1902 05222410232D          

 32 34  0  0  0  0            999 V2000
    5.9888  -14.4728    0.0000 C   0  0  2  0  0  0  0  0  0  0  0  0
    5.9888  -13.6478    0.0000 C   0  0  0  0  0  0  0  0  0  0  0  0
    6.7033  -13.2353    0.0000 C   0  0  0  0  0  0  0  0  0  0  0  0
    7.4177  -13.6478    0.0000 C   0  0  0  0  0  0  0  0  0  0  0  0
    8.1322  -13.2353    0.0000 C   0  0  0  0  0  0  0  0  0  0  0  0
    8.8467  -13.6478    0.0000 C   0  0  0  0  0  0  0  0  0  0  0  0
    8.8467  -14.4728    0.0000 C   0  0  0  0  0  0  0  0  0  0  0  0
    8.1322  -14.8853    0.0000 C   0  0  0  0  0  0  0  0  0  0  0  0
    7.4177  -14.4728    0.0000 C   0  0  0  0  0  0  0  0  0  0  0  0
    6.7033  -14.8853    0.0000 O   0  0  0  0  0  0  0  0  0  0  0  0
    6.7033  -12.4103    0.0000 O   0  0  0  0  0  0  0  0  0  0  0  0
    8.1322  -15.7103    0.0000 C   0  0  0  0  0  0  0  0  0  0  0  0
    8.8467  -16.1228    0.0000 C   0  0  1  0  0  0  0  0  0  0  0  0
    9.5611  -15.7103    0.0000 C   0  0  0  0  0  0  0  0  0  0  0  0
   10.2756  -16.1228    0.0000 C   0  0  0  0  0  0  0  0  0  0  0  0
   10.9901  -15.7103    0.0000 C   0  0  0  0  0  0  0  0  0  0  0  0
   10.9901  -14.8853    0.0000 C   0  0  0  0  0  0  0  0  0  0  0  0
    9.5611  -17.3603    0.0000 C   0  0  0  0  0  0  0  0  0  0  0  0
    8.8467  -16.9478    0.0000 C   0  0  0  0  0  0  0  0  0  0  0  0
    8.1322  -17.3603    0.0000 C   0  0  0  0  0  0  0  0  0  0  0  0
   11.7046  -16.1228    0.0000 C   0  0  0  0  0  0  0  0  0  0  0  0
    5.2743  -14.8853    0.0000 C   0  0  0  0  0  0  0  0  0  0  0  0
    5.2743  -15.7103    0.0000 C   0  0  0  0  0  0  0  0  0  0  0  0
    4.5599  -16.1228    0.0000 C   0  0  0  0  0  0  0  0  0  0  0  0
    3.8454  -15.7103    0.0000 C   0  0  0  0  0  0  0  0  0  0  0  0
    3.8454  -14.8853    0.0000 C   0  0  0  0  0  0  0  0  0  0  0  0
    4.5599  -14.4728    0.0000 C   0  0  0  0  0  0  0  0  0  0  0  0
    5.9888  -16.1228    0.0000 O   0  0  0  0  0  0  0  0  0  0  0  0
    6.7033  -15.7103    0.0000 C   0  0  0  0  0  0  0  0  0  0  0  0
    3.1309  -16.1228    0.0000 O   0  0  0  0  0  0  0  0  0  0  0  0
    9.5611  -14.8853    0.0000 O   0  0  0  0  0  0  0  0  0  0  0  0
    8.1322  -12.4103    0.0000 O   0  0  0  0  0  0  0  0  0  0  0  0
  1  2  1  0  0  0  0
  2  3  1  0  0  0  0
  3  4  1  0  0  0  0
  4  5  1  0  0  0  0
  5  6  2  0  0  0  0
  6  7  1  0  0  0  0
  7  8  2  0  0  0  0
  8  9  1  0  0  0  0
  4  9  2  0  0  0  0
  9 10  1  0  0  0  0
  1 10  1  0  0  0  0
  3 11  2  0  0  0  0
 12 13  1  0  0  0  0
 13 14  1  0  0  0  0
 14 15  1  0  0  0  0
 15 16  2  0  0  0  0
 16 17  1  0  0  0  0
 18 19  2  0  0  0  0
 19 20  1  0  0  0  0
 13 19  1  1  0  0  0
 16 21  1  0  0  0  0
  8 12  1  0  0  0  0
 22 23  1  0  0  0  0
 23 24  2  0  0  0  0
 24 25  1  0  0  0  0
 25 26  2  0  0  0  0
 26 27  1  0  0  0  0
 22 27  2  0  0  0  0
 28 29  1  0  0  0  0
 23 28  1  0  0  0  0
 25 30  1  0  0  0  0
  1 22  1  6  0  0  0
  7 31  1  0  0  0  0
  5 32  1  0  0  0  0
M  END
>  <cdx:groupId>
171549

>  <cdx:fragmentId>
171454

$$$$
