21593586.cdx
  Mrv1902 05222410192D          

 21 23  0  0  0  0            999 V2000
    9.1683   -6.5413    0.0000 C   0  0  0  0  0  0  0  0  0  0  0  0
    9.1683   -5.7163    0.0000 C   0  0  0  0  0  0  0  0  0  0  0  0
    8.4538   -5.3038    0.0000 C   0  0  1  0  0  0  0  0  0  0  0  0
    7.7393   -5.7163    0.0000 C   0  0  0  0  0  0  0  0  0  0  0  0
    7.7393   -6.5413    0.0000 C   0  0  2  0  0  0  0  0  0  0  0  0
    7.0248   -6.9538    0.0000 C   0  0  1  0  0  0  0  0  0  0  0  0
    6.3104   -6.5413    0.0000 C   0  0  0  0  0  0  0  0  0  0  0  0
    5.5959   -6.9538    0.0000 C   0  0  0  0  0  0  0  0  0  0  0  0
    5.5959   -7.7788    0.0000 C   0  0  0  0  0  0  0  0  0  0  0  0
    6.3104   -8.1913    0.0000 C   0  0  0  0  0  0  0  0  0  0  0  0
    7.0248   -7.7788    0.0000 C   0  0  2  0  0  0  0  0  0  0  0  0
    7.7393   -8.1913    0.0000 C   0  0  0  0  0  0  0  0  0  0  0  0
    8.4538   -7.7788    0.0000 C   0  0  0  0  0  0  0  0  0  0  0  0
    8.4538   -6.9538    0.0000 C   0  0  1  0  0  0  0  0  0  0  0  0
    8.4538   -4.4788    0.0000 O   0  0  0  0  0  0  0  0  0  0  0  0
    6.7229   -8.9057    0.0000 C   0  0  0  0  0  0  0  0  0  0  0  0
    5.8979   -8.9057    0.0000 C   0  0  0  0  0  0  0  0  0  0  0  0
    7.0248   -6.1288    0.0000 C   0  0  0  0  0  0  0  0  0  0  0  0
    7.7393   -7.3663    0.0000 H   0  0  0  0  0  0  0  0  0  0  0  0
    7.0248   -8.6038    0.0000 H   0  0  0  0  0  0  0  0  0  0  0  0
    9.1683   -7.3663    0.0000 H   0  0  0  0  0  0  0  0  0  0  0  0
  1  2  1  0  0  0  0
  2  3  1  0  0  0  0
  3  4  1  0  0  0  0
  4  5  1  0  0  0  0
  5  6  1  0  0  0  0
  6  7  1  0  0  0  0
  7  8  1  0  0  0  0
  8  9  1  0  0  0  0
  9 10  1  0  0  0  0
 10 11  1  0  0  0  0
  6 11  1  0  0  0  0
 11 12  1  0  0  0  0
 12 13  1  0  0  0  0
 13 14  1  0  0  0  0
  1 14  1  0  0  0  0
  5 14  1  0  0  0  0
  3 15  1  1  0  0  0
 10 16  1  0  0  0  0
 10 17  1  0  0  0  0
  6 18  1  1  0  0  0
  5 19  1  6  0  0  0
 11 20  1  6  0  0  0
 14 21  1  1  0  0  0
M  END
>  <cdx:groupId>
67

>  <cdx:fragmentId>
5

$$$$
