11593597.cdx
  Mrv1902 05222410182D          

 15 16  0  0  0  0            999 V2000
    6.9347  -15.8132    0.0000 C   0  0  0  0  0  0  0  0  0  0  0  0
    6.2202  -15.4007    0.0000 C   0  0  1  0  0  0  0  0  0  0  0  0
    6.2202  -14.5757    0.0000 C   0  0  0  0  0  0  0  0  0  0  0  0
    6.9347  -14.1632    0.0000 C   0  0  0  0  0  0  0  0  0  0  0  0
    7.6491  -14.5757    0.0000 C   0  0  2  0  0  0  0  0  0  0  0  0
    8.3636  -14.1632    0.0000 C   0  0  0  0  0  0  0  0  0  0  0  0
    9.0781  -14.5757    0.0000 C   0  0  0  0  0  0  0  0  0  0  0  0
    9.0781  -15.4007    0.0000 C   0  0  0  0  0  0  0  0  0  0  0  0
    8.3636  -15.8132    0.0000 C   0  0  0  0  0  0  0  0  0  0  0  0
    7.6491  -15.4007    0.0000 C   0  0  0  0  0  0  0  0  0  0  0  0
    5.8077  -16.1152    0.0000 O   0  0  0  0  0  0  0  0  0  0  0  0
    7.9511  -13.4487    0.0000 C   0  0  0  0  0  0  0  0  0  0  0  0
    8.7761  -13.4487    0.0000 C   0  0  0  0  0  0  0  0  0  0  0  0
    5.3952  -15.4007    0.0000 C   0  0  0  0  0  0  0  0  0  0  0  0
    7.6491  -13.7507    0.0000 H   0  0  0  0  0  0  0  0  0  0  0  0
  1  2  1  0  0  0  0
  2  3  1  0  0  0  0
  3  4  1  0  0  0  0
  4  5  1  0  0  0  0
  5  6  1  0  0  0  0
  6  7  1  0  0  0  0
  7  8  1  0  0  0  0
  8  9  1  0  0  0  0
  9 10  2  0  0  0  0
  1 10  1  0  0  0  0
  5 10  1  0  0  0  0
  2 11  1  6  0  0  0
  6 12  1  0  0  0  0
  6 13  1  0  0  0  0
  2 14  1  1  0  0  0
  5 15  1  1  0  0  0
M  END
>  <cdx:groupId>
75439

>  <cdx:fragmentId>
75396

$$$$
