593548.cdx
  Mrv1902 05222410272D          

 38 42  0  0  0  0            999 V2000
    6.2222   -8.0025    0.0000 C   0  0  2  0  0  0  0  0  0  0  0  0
    6.2222   -8.8275    0.0000 C   0  0  1  0  0  0  0  0  0  0  0  0
    6.8672   -9.3419    0.0000 C   0  0  1  0  0  0  0  0  0  0  0  0
    7.6715   -9.1583    0.0000 C   0  0  1  0  0  0  0  0  0  0  0  0
    8.0295   -8.4150    0.0000 C   0  0  2  0  0  0  0  0  0  0  0  0
    7.6715   -7.6717    0.0000 C   0  0  2  0  0  0  0  0  0  0  0  0
    6.8672   -7.4881    0.0000 C   0  0  2  0  0  0  0  0  0  0  0  0
    8.2327   -7.0669    0.0000 C   0  0  2  0  0  0  0  0  0  0  0  0
    7.9895   -6.2786    0.0000 C   0  0  2  0  0  0  0  0  0  0  0  0
    7.1852   -6.0950    0.0000 C   0  0  0  0  0  0  0  0  0  0  0  0
    6.6240   -6.6998    0.0000 C   0  0  1  0  0  0  0  0  0  0  0  0
    9.0576   -7.0669    0.0000 O   0  0  0  0  0  0  0  0  0  0  0  0
    8.6641   -5.7837    0.0000 O   0  0  0  0  0  0  0  0  0  0  0  0
    5.4376   -7.7476    0.0000 C   0  0  0  0  0  0  0  0  0  0  0  0
    4.9527   -8.4150    0.0000 C   0  0  1  0  0  0  0  0  0  0  0  0
    5.4376   -9.0824    0.0000 C   0  0  2  0  0  0  0  0  0  0  0  0
    4.1277   -8.4150    0.0000 C   0  0  0  0  0  0  0  0  0  0  0  0
    5.1826   -9.8671    0.0000 O   0  0  0  0  0  0  0  0  0  0  0  0
    6.6836  -10.1462    0.0000 O   0  0  0  0  0  0  0  0  0  0  0  0
    7.8851   -9.9552    0.0000 O   0  0  0  0  0  0  0  0  0  0  0  0
    8.4684   -7.8852    0.0000 H   0  0  0  0  0  0  0  0  0  0  0  0
    6.0087   -7.2056    0.0000 H   0  0  0  0  0  0  0  0  0  0  0  0
    7.4506   -6.9048    0.0000 O   0  0  0  0  0  0  0  0  0  0  0  0
    5.8197   -6.5162    0.0000 C   0  0  0  0  0  0  0  0  0  0  0  0
    7.0400   -8.1950    0.0000 O   0  0  0  0  0  0  0  0  0  0  0  0
    8.4684   -9.3718    0.0000 C   0  0  0  0  0  0  0  0  0  0  0  0
    8.8809  -10.0863    0.0000 O   0  0  0  0  0  0  0  0  0  0  0  0
    9.7059  -10.0863    0.0000 C   0  0  0  0  0  0  0  0  0  0  0  0
   10.1184  -10.8008    0.0000 C   0  0  0  0  0  0  0  0  0  0  0  0
   10.1184   -9.3718    0.0000 O   0  0  0  0  0  0  0  0  0  0  0  0
    9.7059  -11.5152    0.0000 C   0  0  0  0  0  0  0  0  0  0  0  0
   10.1184  -12.2297    0.0000 C   0  0  0  0  0  0  0  0  0  0  0  0
   10.9434  -12.2297    0.0000 C   0  0  0  0  0  0  0  0  0  0  0  0
   11.3559  -11.5152    0.0000 C   0  0  0  0  0  0  0  0  0  0  0  0
   10.9434  -10.8008    0.0000 C   0  0  0  0  0  0  0  0  0  0  0  0
    7.9895   -5.4536    0.0000 C   0  0  0  0  0  0  0  0  0  0  0  0
    7.2750   -5.0411    0.0000 C   0  0  0  0  0  0  0  0  0  0  0  0
    8.7040   -5.0411    0.0000 C   0  0  0  0  0  0  0  0  0  0  0  0
  1  2  1  0  0  0  0
  2  3  1  0  0  0  0
  3  4  1  0  0  0  0
  4  5  1  0  0  0  0
  5  6  1  0  0  0  0
  6  7  1  0  0  0  0
  7  1  1  0  0  0  0
  6  8  1  0  0  0  0
  8  9  1  0  0  0  0
  9 10  1  0  0  0  0
 10 11  1  0  0  0  0
 11  7  1  0  0  0  0
  8 12  1  6  0  0  0
  9 13  1  6  0  0  0
  1 14  1  0  0  0  0
 14 15  1  0  0  0  0
 15 16  1  0  0  0  0
 16  2  1  0  0  0  0
 15 17  1  1  0  0  0
 16 18  1  1  0  0  0
  3 19  1  1  0  0  0
  4 20  1  1  0  0  0
  6 21  1  1  0  0  0
  1 22  1  6  0  0  0
  7 23  1  6  0  0  0
 11 24  1  6  0  0  0
  5 25  1  6  0  0  0
  4 26  1  6  0  0  0
 26 27  1  0  0  0  0
  2 25  1  6  0  0  0
 27 28  1  0  0  0  0
 28 29  1  0  0  0  0
 28 30  2  0  0  0  0
 29 31  2  0  0  0  0
 31 32  1  0  0  0  0
 32 33  2  0  0  0  0
 33 34  1  0  0  0  0
 34 35  2  0  0  0  0
 35 29  1  0  0  0  0
  9 36  1  0  0  0  0
 36 37  1  0  0  0  0
 36 38  2  0  0  0  0
M  END
>  <cdx:fragmentId>
364

$$$$
