15593817.cdx
  Mrv1902 05222410202D          

 17 18  0  0  0  0            999 V2000
    9.2039  -14.4369    0.0000 C   0  0  0  0  0  0  0  0  0  0  0  0
    9.2039  -15.2619    0.0000 C   0  0  0  0  0  0  0  0  0  0  0  0
    8.4894  -15.6744    0.0000 C   0  0  0  0  0  0  0  0  0  0  0  0
    7.7750  -15.2619    0.0000 C   0  0  0  0  0  0  0  0  0  0  0  0
    7.7750  -14.4369    0.0000 C   0  0  0  0  0  0  0  0  0  0  0  0
    8.4894  -14.0244    0.0000 C   0  0  0  0  0  0  0  0  0  0  0  0
    9.9184  -14.0244    0.0000 O   0  0  0  0  0  0  0  0  0  0  0  0
    9.9184  -15.6744    0.0000 O   0  0  0  0  0  0  0  0  0  0  0  0
   10.6329  -15.2619    0.0000 C   0  0  0  0  0  0  0  0  0  0  0  0
    7.0605  -15.6744    0.0000 C   0  0  0  0  0  0  0  0  0  0  0  0
    6.3460  -15.2619    0.0000 C   0  0  0  0  0  0  0  0  0  0  0  0
    5.6316  -15.6744    0.0000 C   0  0  0  0  0  0  0  0  0  0  0  0
    4.9171  -15.2619    0.0000 C   0  0  0  0  0  0  0  0  0  0  0  0
    4.9171  -14.4369    0.0000 C   0  0  0  0  0  0  0  0  0  0  0  0
    5.6316  -14.0244    0.0000 C   0  0  0  0  0  0  0  0  0  0  0  0
    6.3460  -14.4369    0.0000 C   0  0  0  0  0  0  0  0  0  0  0  0
    4.2026  -14.0244    0.0000 O   0  0  0  0  0  0  0  0  0  0  0  0
  1  2  1  0  0  0  0
  2  3  2  0  0  0  0
  3  4  1  0  0  0  0
  4  5  2  0  0  0  0
  5  6  1  0  0  0  0
  1  6  2  0  0  0  0
  1  7  1  0  0  0  0
  8  9  1  0  0  0  0
  2  8  1  0  0  0  0
 11 12  1  0  0  0  0
 12 13  2  0  0  0  0
 13 14  1  0  0  0  0
 14 15  2  0  0  0  0
 15 16  1  0  0  0  0
 11 16  2  0  0  0  0
 14 17  1  0  0  0  0
 10 11  1  0  0  0  0
  4 10  1  0  0  0  0
M  END
>  <cdx:groupId>
114920

>  <cdx:fragmentId>
114871

$$$$
