593889.cdx
  Mrv1902 05222410222D          

 15 16  0  0  0  0            999 V2000
    5.5177   -8.9610    0.0000 C   0  0  0  0  0  0  0  0  0  0  0  0
    6.9466   -8.9610    0.0000 C   0  0  0  0  0  0  0  0  0  0  0  0
    6.2321   -8.5485    0.0000 C   0  0  0  0  0  0  0  0  0  0  0  0
    9.0900   -7.7235    0.0000 C   0  0  0  0  0  0  0  0  0  0  0  0
    6.2321   -5.2485    0.0000 C   0  0  0  0  0  0  0  0  0  0  0  0
    6.9466   -7.3110    0.0000 C   0  0  0  0  0  0  0  0  0  0  0  0
    6.2321   -7.7235    0.0000 C   0  0  0  0  0  0  0  0  0  0  0  0
    5.5177   -7.3110    0.0000 C   0  0  0  0  0  0  0  0  0  0  0  0
    5.5177   -6.4860    0.0000 C   0  0  0  0  0  0  0  0  0  0  0  0
    6.2321   -6.0735    0.0000 C   0  0  0  0  0  0  0  0  0  0  0  0
    6.9466   -6.4860    0.0000 C   0  0  0  0  0  0  0  0  0  0  0  0
    7.6611   -6.0735    0.0000 C   0  0  0  0  0  0  0  0  0  0  0  0
    8.3755   -6.4860    0.0000 C   0  0  0  0  0  0  0  0  0  0  0  0
    8.3755   -7.3110    0.0000 C   0  0  0  0  0  0  0  0  0  0  0  0
    7.6611   -7.7235    0.0000 C   0  0  0  0  0  0  0  0  0  0  0  0
  7  3  1  0  0  0  0
  3  1  1  0  0  0  0
  3  2  1  0  0  0  0
 14  4  1  0  0  0  0
 10  5  1  0  0  0  0
 11  6  1  0  0  0  0
 15  6  1  0  0  0  0
  7  6  1  0  0  0  0
  8  7  1  0  0  0  0
  9  8  2  0  0  0  0
 10  9  1  0  0  0  0
 11 10  2  0  0  0  0
 12 11  1  0  0  0  0
 13 12  2  0  0  0  0
 14 13  1  0  0  0  0
 15 14  1  0  0  0  0
M  END
>  <cdx:fragmentId>
5729

$$$$
