593820.cdx
  Mrv1902 05222410272D          

 37 42  0  0  0  0            999 V2000
    4.6741   -8.8710    0.0000 C   0  0  0  0  0  0  0  0  0  0  0  0
    4.6838   -9.6959    0.0000 C   0  0  1  0  0  0  0  0  0  0  0  0
    5.4030  -10.1000    0.0000 C   0  0  0  0  0  0  0  0  0  0  0  0
    6.1126   -9.6792    0.0000 C   0  0  1  0  0  0  0  0  0  0  0  0
    6.1030   -8.8542    0.0000 C   0  0  2  0  0  0  0  0  0  0  0  0
    5.3837   -8.4501    0.0000 C   0  0  0  0  0  0  0  0  0  0  0  0
    6.8319  -10.0833    0.0000 C   0  0  0  0  0  0  0  0  0  0  0  0
    7.5415   -9.6625    0.0000 C   0  0  0  0  0  0  0  0  0  0  0  0
    7.5318   -8.8375    0.0000 C   0  0  2  0  0  0  0  0  0  0  0  0
    6.8126   -8.4334    0.0000 C   0  0  2  0  0  0  0  0  0  0  0  0
    8.2414   -8.4167    0.0000 C   0  0  0  0  0  0  0  0  0  0  0  0
    8.2318   -7.5918    0.0000 C   0  0  1  0  0  0  0  0  0  0  0  0
    7.5125   -7.1876    0.0000 C   0  0  2  0  0  0  0  0  0  0  0  0
    6.8029   -7.6085    0.0000 C   0  0  0  0  0  0  0  0  0  0  0  0
    8.9607   -8.8208    0.0000 C   0  0  0  0  0  0  0  0  0  0  0  0
    9.6703   -8.4000    0.0000 C   0  0  0  0  0  0  0  0  0  0  0  0
    9.6606   -7.5750    0.0000 C   0  0  2  0  0  0  0  0  0  0  0  0
    8.9414   -7.1709    0.0000 C   0  0  1  0  0  0  0  0  0  0  0  0
   10.3702   -7.1542    0.0000 C   0  0  0  0  0  0  0  0  0  0  0  0
   10.3606   -6.3293    0.0000 C   0  0  0  0  0  0  0  0  0  0  0  0
    9.6413   -5.9252    0.0000 C   0  0  0  0  0  0  0  0  0  0  0  0
    8.9317   -6.3460    0.0000 C   0  0  0  0  0  0  0  0  0  0  0  0
    4.9989  -10.8193    0.0000 C   0  0  0  0  0  0  0  0  0  0  0  0
    5.8239  -10.8096    0.0000 C   0  0  0  0  0  0  0  0  0  0  0  0
    3.9742  -10.1167    0.0000 O   0  0  0  0  0  0  0  0  0  0  0  0
    6.0933   -8.0293    0.0000 C   0  0  0  0  0  0  0  0  0  0  0  0
    6.1223  -10.5041    0.0000 H   0  0  0  0  0  0  0  0  0  0  0  0
    6.8222   -9.2584    0.0000 H   0  0  0  0  0  0  0  0  0  0  0  0
    7.5222   -8.0126    0.0000 C   0  0  0  0  0  0  0  0  0  0  0  0
    8.2221   -6.7668    0.0000 C   0  0  0  0  0  0  0  0  0  0  0  0
    7.5029   -6.3627    0.0000 H   0  0  0  0  0  0  0  0  0  0  0  0
    8.9510   -7.9959    0.0000 H   0  0  0  0  0  0  0  0  0  0  0  0
   10.3799   -7.9792    0.0000 C   0  0  0  0  0  0  0  0  0  0  0  0
   11.0895   -7.5583    0.0000 O   0  0  0  0  0  0  0  0  0  0  0  0
   10.3895   -8.8041    0.0000 O   0  0  0  0  0  0  0  0  0  0  0  0
    9.2205   -5.2156    0.0000 C   0  0  0  0  0  0  0  0  0  0  0  0
   10.0454   -5.2059    0.0000 C   0  0  0  0  0  0  0  0  0  0  0  0
  1  2  1  0  0  0  0
  2  3  1  0  0  0  0
  3  4  1  0  0  0  0
  4  5  1  0  0  0  0
  5  6  1  0  0  0  0
  6  1  1  0  0  0  0
  4  7  1  0  0  0  0
  7  8  1  0  0  0  0
  8  9  1  0  0  0  0
  9 10  1  0  0  0  0
 10  5  1  0  0  0  0
  9 11  1  0  0  0  0
 11 12  1  0  0  0  0
 12 13  1  0  0  0  0
 13 14  1  0  0  0  0
 14 10  1  0  0  0  0
 11 15  2  0  0  0  0
 15 16  1  0  0  0  0
 16 17  1  0  0  0  0
 17 18  1  0  0  0  0
 18 12  1  0  0  0  0
 17 19  1  0  0  0  0
 19 20  1  0  0  0  0
 20 21  1  0  0  0  0
 21 22  1  0  0  0  0
 22 18  1  0  0  0  0
  3 23  1  0  0  0  0
  3 24  1  0  0  0  0
  2 25  1  1  0  0  0
  5 26  1  1  0  0  0
  4 27  1  6  0  0  0
 10 28  1  6  0  0  0
  9 29  1  1  0  0  0
 12 30  1  6  0  0  0
 30 13  1  0  0  0  0
 13 31  1  1  0  0  0
 18 32  1  1  0  0  0
 17 33  1  1  0  0  0
 33 34  1  0  0  0  0
 33 35  2  0  0  0  0
 21 36  1  0  0  0  0
 21 37  1  0  0  0  0
M  END
>  <cdx:fragmentId>
395

$$$$
