101594133.cdx
  Mrv1902 05222410242D          

 15 16  0  0  0  0            999 V2000
    5.6635  -11.0403    0.0000 C   0  0  1  0  0  0  0  0  0  0  0  0
    5.1786  -10.3729    0.0000 C   0  0  0  0  0  0  0  0  0  0  0  0
    5.6635   -9.7054    0.0000 C   0  0  0  0  0  0  0  0  0  0  0  0
    6.4481   -9.9604    0.0000 C   0  0  0  0  0  0  0  0  0  0  0  0
    7.0932   -9.4460    0.0000 C   0  0  0  0  0  0  0  0  0  0  0  0
    7.8975   -9.6296    0.0000 C   0  0  0  0  0  0  0  0  0  0  0  0
    8.2554  -10.3729    0.0000 C   0  0  0  0  0  0  0  0  0  0  0  0
    7.8975  -11.1162    0.0000 C   0  0  0  0  0  0  0  0  0  0  0  0
    7.0932  -11.2998    0.0000 C   0  0  0  0  0  0  0  0  0  0  0  0
    6.4481  -10.7854    0.0000 C   0  0  0  0  0  0  0  0  0  0  0  0
    8.1104  -12.5292    0.0000 C   0  0  0  0  0  0  0  0  0  0  0  0
    8.4119  -11.7612    0.0000 C   0  0  0  0  0  0  0  0  0  0  0  0
    9.2276  -11.6382    0.0000 C   0  0  0  0  0  0  0  0  0  0  0  0
    6.9096   -8.6417    0.0000 C   0  0  0  0  0  0  0  0  0  0  0  0
    5.4086  -11.8249    0.0000 C   0  0  0  0  0  0  0  0  0  0  0  0
  1  2  1  0  0  0  0
  2  3  1  0  0  0  0
  3  4  1  0  0  0  0
  4  5  1  0  0  0  0
  5  6  2  0  0  0  0
  6  7  1  0  0  0  0
  7  8  1  0  0  0  0
  8  9  2  0  0  0  0
  9 10  1  0  0  0  0
  1 10  1  0  0  0  0
  4 10  1  0  0  0  0
 11 12  1  0  0  0  0
 12 13  1  0  0  0  0
  8 12  1  0  0  0  0
  5 14  1  0  0  0  0
  1 15  1  1  0  0  0
M  END
>  <cdx:groupId>
424

>  <cdx:fragmentId>
381

$$$$
