21594228.cdx
  Mrv1902 05222410202D          

 41 45  0  0  0  0            999 V2000
    8.6972  -13.4618    0.0000 C   0  0  0  0  0  0  0  0  0  0  0  0
    9.4117  -13.0493    0.0000 C   0  0  1  0  0  0  0  0  0  0  0  0
   10.1261  -13.4618    0.0000 C   0  0  0  0  0  0  0  0  0  0  0  0
   10.1261  -14.2868    0.0000 C   0  0  0  0  0  0  0  0  0  0  0  0
    9.4117  -14.6993    0.0000 C   0  0  2  0  0  0  0  0  0  0  0  0
    9.4117  -15.5243    0.0000 C   0  0  0  0  0  0  0  0  0  0  0  0
    8.6972  -15.9368    0.0000 C   0  0  0  0  0  0  0  0  0  0  0  0
    7.9827  -15.5243    0.0000 C   0  0  1  0  0  0  0  0  0  0  0  0
    7.2682  -15.9368    0.0000 C   0  0  2  0  0  0  0  0  0  0  0  0
    7.2682  -16.7618    0.0000 C   0  0  0  0  0  0  0  0  0  0  0  0
    6.5538  -17.1743    0.0000 C   0  0  0  0  0  0  0  0  0  0  0  0
    5.8393  -16.7618    0.0000 C   0  0  1  0  0  0  0  0  0  0  0  0
    5.1248  -17.1743    0.0000 C   0  0  2  0  0  0  0  0  0  0  0  0
    4.4104  -16.7618    0.0000 C   0  0  2  0  0  0  0  0  0  0  0  0
    4.4104  -15.9368    0.0000 C   0  0  2  0  0  0  0  0  0  0  0  0
    5.1248  -15.5243    0.0000 C   0  0  0  0  0  0  0  0  0  0  0  0
    5.8393  -15.9368    0.0000 C   0  0  2  0  0  0  0  0  0  0  0  0
    6.5538  -15.5243    0.0000 C   0  0  1  0  0  0  0  0  0  0  0  0
    6.5538  -14.6993    0.0000 C   0  0  0  0  0  0  0  0  0  0  0  0
    7.2682  -14.2868    0.0000 C   0  0  0  0  0  0  0  0  0  0  0  0
    7.9827  -14.6993    0.0000 C   0  0  0  0  0  0  0  0  0  0  0  0
    8.6972  -14.2868    0.0000 C   0  0  2  0  0  0  0  0  0  0  0  0
   10.1261  -15.1118    0.0000 C   0  0  0  0  0  0  0  0  0  0  0  0
   10.1261  -15.9368    0.0000 O   0  0  0  0  0  0  0  0  0  0  0  0
   10.8406  -14.6993    0.0000 O   0  0  0  0  0  0  0  0  0  0  0  0
    4.7123  -17.8887    0.0000 C   0  0  0  0  0  0  0  0  0  0  0  0
   10.1261  -12.6368    0.0000 C   0  0  0  0  0  0  0  0  0  0  0  0
    9.4117  -12.2243    0.0000 C   0  0  0  0  0  0  0  0  0  0  0  0
    8.6972  -11.8118    0.0000 O   0  0  0  0  0  0  0  0  0  0  0  0
   10.1261  -11.8118    0.0000 O   0  0  0  0  0  0  0  0  0  0  0  0
   10.1261  -10.9868    0.0000 C   0  0  0  0  0  0  0  0  0  0  0  0
    5.5373  -17.8887    0.0000 C   0  0  0  0  0  0  0  0  0  0  0  0
    5.1248  -18.6032    0.0000 O   0  0  0  0  0  0  0  0  0  0  0  0
    3.6959  -15.5243    0.0000 O   0  0  0  0  0  0  0  0  0  0  0  0
    3.6959  -17.1743    0.0000 O   0  0  0  0  0  0  0  0  0  0  0  0
    5.8393  -17.5868    0.0000 H   0  0  0  0  0  0  0  0  0  0  0  0
    8.6972  -15.1118    0.0000 H   0  0  0  0  0  0  0  0  0  0  0  0
    5.8393  -15.1118    0.0000 C   0  0  0  0  0  0  0  0  0  0  0  0
    7.8516  -16.5201    0.0000 C   0  0  0  0  0  0  0  0  0  0  0  0
    8.1962  -16.3212    0.0000 C   0  0  0  0  0  0  0  0  0  0  0  0
    5.9704  -14.9409    0.0000 H   0  0  0  0  0  0  0  0  0  0  0  0
  1  2  1  0  0  0  0
  2  3  1  0  0  0  0
  3  4  1  0  0  0  0
  4  5  1  0  0  0  0
  5  6  1  0  0  0  0
  6  7  1  0  0  0  0
  7  8  1  0  0  0  0
  8  9  1  0  0  0  0
  9 10  1  0  0  0  0
 10 11  1  0  0  0  0
 11 12  1  0  0  0  0
 12 13  1  0  0  0  0
 13 14  1  0  0  0  0
 14 15  1  0  0  0  0
 15 16  1  0  0  0  0
 16 17  1  0  0  0  0
 12 17  1  0  0  0  0
 17 18  1  0  0  0  0
  9 18  1  0  0  0  0
 18 19  1  0  0  0  0
 19 20  1  0  0  0  0
 20 21  2  0  0  0  0
  8 21  1  0  0  0  0
 21 22  1  0  0  0  0
  5 22  1  0  0  0  0
  1 22  1  0  0  0  0
 23 24  2  0  0  0  0
 23 25  1  0  0  0  0
  5 23  1  1  0  0  0
 13 26  1  1  0  0  0
  2 27  1  6  0  0  0
 28 29  2  0  0  0  0
 30 31  1  0  0  0  0
 28 30  1  0  0  0  0
  2 28  1  0  0  0  0
 32 33  1  0  0  0  0
 13 32  1  6  0  0  0
 15 34  1  1  0  0  0
 14 35  1  1  0  0  0
 12 36  1  6  0  0  0
 22 37  1  1  0  0  0
 17 38  1  1  0  0  0
  9 39  1  1  0  0  0
  8 40  1  6  0  0  0
 18 41  1  6  0  0  0
M  END
>  <cdx:groupId>
133016

>  <cdx:fragmentId>
132895

$$$$
