594416.cdx
  Mrv1902 05222410182D          

 26 28  0  0  0  0            999 V2000
    8.1072  -10.3410    0.0000 O   0  0  0  0  0  0  0  0  0  0  0  0
    9.5365   -9.5167    0.0000 O   0  0  0  0  0  0  0  0  0  0  0  0
   11.6806   -8.2803    0.0000 C   0  0  0  0  0  0  0  0  0  0  0  0
   10.9668   -7.0424    0.0000 C   0  0  0  0  0  0  0  0  0  0  0  0
   10.9663   -7.8674    0.0000 C   0  0  0  0  0  0  0  0  0  0  0  0
   10.2516   -8.2796    0.0000 C   0  0  0  0  0  0  0  0  0  0  0  0
    9.5374   -7.8667    0.0000 C   0  0  0  0  0  0  0  0  0  0  0  0
    8.1084   -7.8660    0.0000 C   0  0  0  0  0  0  0  0  0  0  0  0
    8.8227   -8.2788    0.0000 C   0  0  0  0  0  0  0  0  0  0  0  0
    8.8223   -9.1038    0.0000 C   0  0  0  0  0  0  0  0  0  0  0  0
    8.1076   -9.5160    0.0000 C   0  0  0  0  0  0  0  0  0  0  0  0
    7.3933   -9.1031    0.0000 C   0  0  0  0  0  0  0  0  0  0  0  0
    7.3938   -8.2781    0.0000 C   0  0  0  0  0  0  0  0  0  0  0  0
    4.5355   -9.1016    0.0000 O   0  0  0  0  0  0  0  0  0  0  0  0
    3.1078   -6.6259    0.0000 O   0  0  0  0  0  0  0  0  0  0  0  0
    5.9644   -9.1024    0.0000 O   0  0  0  0  0  0  0  0  0  0  0  0
    5.9657   -6.6274    0.0000 O   0  0  0  0  0  0  0  0  0  0  0  0
    5.2510   -7.0395    0.0000 C   0  0  0  0  0  0  0  0  0  0  0  0
    4.5367   -6.6266    0.0000 C   0  0  0  0  0  0  0  0  0  0  0  0
    3.8220   -7.0388    0.0000 C   0  0  0  0  0  0  0  0  0  0  0  0
    3.8216   -7.8638    0.0000 C   0  0  0  0  0  0  0  0  0  0  0  0
    4.5359   -8.2766    0.0000 C   0  0  0  0  0  0  0  0  0  0  0  0
    5.2506   -7.8645    0.0000 C   0  0  0  0  0  0  0  0  0  0  0  0
    5.9648   -8.2774    0.0000 C   0  0  0  0  0  0  0  0  0  0  0  0
    6.6795   -7.8652    0.0000 C   0  0  0  0  0  0  0  0  0  0  0  0
    6.6799   -7.0402    0.0000 C   0  0  0  0  0  0  0  0  0  0  0  0
 25 13  1  0  0  0  0
 11  1  1  0  0  0  0
 10  2  1  0  0  0  0
  9  7  1  0  0  0  0
  5  3  1  0  0  0  0
  5  4  1  0  0  0  0
  6  5  2  0  0  0  0
  7  6  1  0  0  0  0
 13  8  2  0  0  0  0
  9  8  1  0  0  0  0
 10  9  2  0  0  0  0
 11 10  1  0  0  0  0
 12 11  2  0  0  0  0
 13 12  1  0  0  0  0
 22 14  1  0  0  0  0
 20 15  1  0  0  0  0
 24 16  2  0  0  0  0
 26 17  1  0  0  0  0
 18 17  1  0  0  0  0
 23 18  2  0  0  0  0
 19 18  1  0  0  0  0
 20 19  2  0  0  0  0
 21 20  1  0  0  0  0
 22 21  2  0  0  0  0
 23 22  1  0  0  0  0
 24 23  1  0  0  0  0
 25 24  1  0  0  0  0
 26 25  1  0  0  0  0
M  END
>  <cdx:groupId>
55576

>  <cdx:fragmentId>
55499

$$$$
