594489.cdx
  Mrv1902 05222410212D          

 33 38  0  0  0  0            999 V2000
    6.2221   -8.2784    0.0000 C   0  0  0  0  0  0  0  0  0  0  0  0
    6.2221   -9.1012    0.0000 C   0  0  2  0  0  0  0  0  0  0  0  0
    7.0175   -9.3480    0.0000 C   0  0  2  0  0  0  0  0  0  0  0  0
    7.4563   -8.6898    0.0000 C   0  0  2  0  0  0  0  0  0  0  0  0
    7.0175   -7.9767    0.0000 C   0  0  1  0  0  0  0  0  0  0  0  0
    5.4268   -7.9767    0.0000 C   0  0  0  0  0  0  0  0  0  0  0  0
    4.9606   -8.6898    0.0000 C   0  0  0  0  0  0  0  0  0  0  0  0
    5.4268   -9.3480    0.0000 O   0  0  0  0  0  0  0  0  0  0  0  0
    8.2516   -8.3881    0.0000 C   0  0  2  0  0  0  0  0  0  0  0  0
    8.2516   -7.6202    0.0000 C   0  0  2  0  0  0  0  0  0  0  0  0
    7.4563   -7.3734    0.0000 O   0  0  0  0  0  0  0  0  0  0  0  0
    9.0469   -8.6898    0.0000 C   0  0  2  0  0  0  0  0  0  0  0  0
    9.5132   -7.9767    0.0000 C   0  0  0  0  0  0  0  0  0  0  0  0
    9.0469   -7.3734    0.0000 O   0  0  0  0  0  0  0  0  0  0  0  0
    7.4563   -9.4577    0.0000 C   0  0  1  0  0  0  0  0  0  0  0  0
    8.2516   -9.7594    0.0000 C   0  0  0  0  0  0  0  0  0  0  0  0
    8.7452   -9.1012    0.0000 C   0  0  1  0  0  0  0  0  0  0  0  0
   10.3359   -7.9767    0.0000 O   0  0  0  0  0  0  0  0  0  0  0  0
    4.1104   -8.6898    0.0000 O   0  0  0  0  0  0  0  0  0  0  0  0
    5.1525   -7.2088    0.0000 C   0  0  0  0  0  0  0  0  0  0  0  0
    8.2516   -6.7974    0.0000 H   0  0  0  0  0  0  0  0  0  0  0  0
    9.8719   -8.6898    0.0000 O   0  0  0  0  0  0  0  0  0  0  0  0
    6.2221   -9.8965    0.0000 H   0  0  0  0  0  0  0  0  0  0  0  0
    6.6550   -9.5700    0.0000 O   0  0  0  0  0  0  0  0  0  0  0  0
    6.6275   -8.6625    0.0000 C   0  0  0  0  0  0  0  0  0  0  0  0
    5.8025   -8.6625    0.0000 O   0  0  0  0  0  0  0  0  0  0  0  0
    7.6698  -10.2546    0.0000 H   0  0  0  0  0  0  0  0  0  0  0  0
    9.4597   -9.5137    0.0000 C   0  0  0  0  0  0  0  0  0  0  0  0
    8.9587   -9.8980    0.0000 H   0  0  0  0  0  0  0  0  0  0  0  0
   10.1742   -9.1012    0.0000 C   0  0  0  0  0  0  0  0  0  0  0  0
    9.4597  -10.3387    0.0000 C   0  0  0  0  0  0  0  0  0  0  0  0
   10.1742   -9.9262    0.0000 C   0  0  0  0  0  0  0  0  0  0  0  0
    7.0175  -10.1730    0.0000 O   0  0  0  0  0  0  0  0  0  0  0  0
  1  2  1  0  0  0  0
  2  3  1  0  0  0  0
  4  3  1  6  0  0  0
  4  5  1  0  0  0  0
  1  5  1  0  0  0  0
  1  6  2  0  0  0  0
  6  7  1  0  0  0  0
  7  8  1  0  0  0  0
  2  8  1  0  0  0  0
  4  9  1  0  0  0  0
  9 10  1  0  0  0  0
 10 11  1  0  0  0  0
  5 11  1  1  0  0  0
  9 12  1  6  0  0  0
 12 13  1  0  0  0  0
 13 14  1  0  0  0  0
 10 14  1  0  0  0  0
  4 15  1  0  0  0  0
 15 16  1  0  0  0  0
 16 17  1  0  0  0  0
  9 17  1  0  0  0  0
 13 18  2  0  0  0  0
  7 19  2  0  0  0  0
  6 20  1  1  0  0  0
 10 21  1  1  0  0  0
 12 22  1  6  0  0  0
  2 23  1  1  0  0  0
 15 24  1  0  0  0  0
  5 25  1  0  0  0  0
 24 25  1  0  0  0  0
 25 26  2  0  0  0  0
 15 27  1  6  0  0  0
 17 28  1  0  0  0  0
 17 29  1  1  0  0  0
 28 30  1  0  0  0  0
 28 31  1  0  0  0  0
 28 32  1  0  0  0  0
  3 33  1  6  0  0  0
M  END
>  <cdx:fragmentId>
435

$$$$
