102594497.cdx
  Mrv1902 05222410232D          

 69 75  0  0  0  0            999 V2000
   12.6366  -10.3956    0.0000 O   0  0  0  0  0  0  0  0  0  0  0  0
   11.8296  -10.5671    0.0000 C   0  0  0  0  0  0  0  0  0  0  0  0
   11.5747  -11.3518    0.0000 C   0  0  1  0  0  0  0  0  0  0  0  0
   12.1267  -11.9649    0.0000 C   0  0  2  0  0  0  0  0  0  0  0  0
   12.9337  -11.7933    0.0000 C   0  0  1  0  0  0  0  0  0  0  0  0
   13.1886  -11.0087    0.0000 C   0  0  1  0  0  0  0  0  0  0  0  0
   10.7677  -11.5233    0.0000 O   0  0  0  0  0  0  0  0  0  0  0  0
   11.8718  -12.7495    0.0000 O   0  0  0  0  0  0  0  0  0  0  0  0
   13.4857  -12.4064    0.0000 O   0  0  0  0  0  0  0  0  0  0  0  0
   13.9956  -10.8372    0.0000 C   0  0  0  0  0  0  0  0  0  0  0  0
   14.5476  -11.4503    0.0000 O   0  0  0  0  0  0  0  0  0  0  0  0
   11.2776   -9.9540    0.0000 O   0  0  0  0  0  0  0  0  0  0  0  0
   10.4706  -10.1256    0.0000 C   0  0  0  0  0  0  0  0  0  0  0  0
    9.1116   -9.6840    0.0000 O   0  0  0  0  0  0  0  0  0  0  0  0
    9.9186   -9.5125    0.0000 C   0  0  1  0  0  0  0  0  0  0  0  0
   10.1735   -8.7279    0.0000 C   0  0  2  0  0  0  0  0  0  0  0  0
    9.6215   -8.1148    0.0000 C   0  0  1  0  0  0  0  0  0  0  0  0
    8.8145   -8.2863    0.0000 C   0  0  2  0  0  0  0  0  0  0  0  0
    8.5596   -9.0709    0.0000 C   0  0  2  0  0  0  0  0  0  0  0  0
    8.2625   -7.6732    0.0000 O   0  0  0  0  0  0  0  0  0  0  0  0
    9.3244   -6.7170    0.0000 O   0  0  0  0  0  0  0  0  0  0  0  0
    8.5174   -6.8886    0.0000 C   0  0  2  0  0  0  0  0  0  0  0  0
    7.9654   -6.2755    0.0000 C   0  0  1  0  0  0  0  0  0  0  0  0
    8.2203   -5.4909    0.0000 C   0  0  2  0  0  0  0  0  0  0  0  0
    9.0273   -5.3193    0.0000 C   0  0  1  0  0  0  0  0  0  0  0  0
    9.5793   -5.9324    0.0000 C   0  0  1  0  0  0  0  0  0  0  0  0
   10.3863   -5.7609    0.0000 C   0  0  0  0  0  0  0  0  0  0  0  0
   10.9383   -6.3740    0.0000 O   0  0  0  0  0  0  0  0  0  0  0  0
    9.2822   -4.5347    0.0000 O   0  0  0  0  0  0  0  0  0  0  0  0
    7.6683   -4.8778    0.0000 O   0  0  0  0  0  0  0  0  0  0  0  0
    7.1584   -6.4470    0.0000 O   0  0  0  0  0  0  0  0  0  0  0  0
    9.8764   -7.3301    0.0000 O   0  0  0  0  0  0  0  0  0  0  0  0
   10.9805   -8.5563    0.0000 O   0  0  0  0  0  0  0  0  0  0  0  0
    7.7526   -9.2424    0.0000 O   0  0  0  0  0  0  0  0  0  0  0  0
    8.8567  -10.4686    0.0000 C   0  0  0  0  0  0  0  0  0  0  0  0
    8.0497  -10.6402    0.0000 C   0  0  0  0  0  0  0  0  0  0  0  0
    7.4977  -10.0271    0.0000 C   0  0  1  0  0  0  0  0  0  0  0  0
    6.6907  -10.1986    0.0000 C   0  0  0  0  0  0  0  0  0  0  0  0
    6.4357  -10.9832    0.0000 C   0  0  0  0  0  0  0  0  0  0  0  0
    5.6288  -11.1547    0.0000 C   0  0  1  0  0  0  0  0  0  0  0  0
    5.0767  -10.5416    0.0000 C   0  0  0  0  0  0  0  0  0  0  0  0
    7.7947  -11.4248    0.0000 C   0  0  0  0  0  0  0  0  0  0  0  0
    8.6017  -11.2533    0.0000 O   0  0  0  0  0  0  0  0  0  0  0  0
    1.7313  -13.0193    0.0000 C   0  0  0  0  0  0  0  0  0  0  0  0
    1.0169  -13.4318    0.0000 C   0  0  0  0  0  0  0  0  0  0  0  0
    1.0169  -14.2568    0.0000 C   0  0  1  0  0  0  0  0  0  0  0  0
    1.7313  -14.6693    0.0000 C   0  0  0  0  0  0  0  0  0  0  0  0
    2.4458  -14.2568    0.0000 C   0  0  0  0  0  0  0  0  0  0  0  0
    3.1603  -14.6693    0.0000 C   0  0  0  0  0  0  0  0  0  0  0  0
    3.8747  -14.2568    0.0000 C   0  0  0  0  0  0  0  0  0  0  0  0
    3.8747  -13.4318    0.0000 C   0  0  1  0  0  0  0  0  0  0  0  0
    4.5892  -13.0193    0.0000 C   0  0  2  0  0  0  0  0  0  0  0  0
    5.3738  -13.2742    0.0000 C   0  0  0  0  0  0  0  0  0  0  0  0
    5.8588  -12.6068    0.0000 C   0  0  0  0  0  0  0  0  0  0  0  0
    5.3738  -11.9394    0.0000 C   0  0  0  0  0  0  0  0  0  0  0  0
    4.5892  -12.1943    0.0000 C   0  0  1  0  0  0  0  0  0  0  0  0
    3.8747  -11.7818    0.0000 C   0  0  0  0  0  0  0  0  0  0  0  0
    3.1603  -12.1943    0.0000 C   0  0  2  0  0  0  0  0  0  0  0  0
    3.1603  -13.0193    0.0000 C   0  0  1  0  0  0  0  0  0  0  0  0
    2.4458  -13.4318    0.0000 C   0  0  2  0  0  0  0  0  0  0  0  0
    4.5892  -13.8443    0.0000 C   0  0  0  0  0  0  0  0  0  0  0  0
    4.6754  -11.3738    0.0000 C   0  0  0  0  0  0  0  0  0  0  0  0
    3.1603  -13.8443    0.0000 C   0  0  0  0  0  0  0  0  0  0  0  0
    2.1438  -15.3838    0.0000 C   0  0  0  0  0  0  0  0  0  0  0  0
    1.3188  -15.3838    0.0000 C   0  0  0  0  0  0  0  0  0  0  0  0
    2.4458  -11.7818    0.0000 O   0  0  0  0  0  0  0  0  0  0  0  0
    0.3024  -14.6693    0.0000 O   0  0  0  0  0  0  0  0  0  0  0  0
    3.8747  -12.6068    0.0000 H   0  0  0  0  0  0  0  0  0  0  0  0
    2.4458  -12.6068    0.0000 H   0  0  0  0  0  0  0  0  0  0  0  0
  1  2  1  0  0  0  0
  2  3  1  0  0  0  0
  3  4  1  0  0  0  0
  4  5  1  0  0  0  0
  5  6  1  0  0  0  0
  1  6  1  0  0  0  0
  3  7  1  1  0  0  0
  4  8  1  6  0  0  0
  5  9  1  1  0  0  0
 10 11  1  0  0  0  0
  6 10  1  6  0  0  0
 12 13  1  0  0  0  0
 14 15  1  0  0  0  0
 15 16  1  0  0  0  0
 16 17  1  0  0  0  0
 17 18  1  0  0  0  0
 18 19  1  0  0  0  0
 14 19  1  0  0  0  0
 21 22  1  0  0  0  0
 22 23  1  0  0  0  0
 23 24  1  0  0  0  0
 24 25  1  0  0  0  0
 25 26  1  0  0  0  0
 21 26  1  0  0  0  0
 27 28  1  0  0  0  0
 26 27  1  1  0  0  0
 25 29  1  6  0  0  0
 24 30  1  1  0  0  0
 23 31  1  6  0  0  0
 22 20  1  1  0  0  0
 18 20  1  6  0  0  0
 17 32  1  1  0  0  0
 16 33  1  6  0  0  0
 35 36  1  0  0  0  0
 36 37  1  0  0  0  0
 37 38  1  0  0  0  0
 38 39  1  0  0  0  0
 39 40  1  0  0  0  0
 40 41  1  6  0  0  0
 36 42  1  0  0  0  0
 36 43  1  0  0  0  0
 44 45  1  0  0  0  0
 45 46  1  0  0  0  0
 46 47  1  0  0  0  0
 47 48  1  0  0  0  0
 48 49  2  0  0  0  0
 49 50  1  0  0  0  0
 50 51  1  0  0  0  0
 51 52  1  0  0  0  0
 52 53  1  0  0  0  0
 53 54  1  0  0  0  0
 54 55  1  0  0  0  0
 55 56  1  0  0  0  0
 52 56  1  0  0  0  0
 56 57  1  0  0  0  0
 57 58  1  0  0  0  0
 58 59  1  0  0  0  0
 51 59  1  0  0  0  0
 59 60  1  0  0  0  0
 48 60  1  0  0  0  0
 44 60  1  0  0  0  0
 52 61  1  6  0  0  0
 56 62  1  1  0  0  0
 59 63  1  1  0  0  0
 47 64  1  0  0  0  0
 47 65  1  0  0  0  0
 58 66  1  6  0  0  0
 46 67  1  1  0  0  0
 40 55  1  0  0  0  0
 37 34  1  1  0  0  0
 19 34  1  1  0  0  0
 15 13  1  1  0  0  0
  2 12  1  0  0  0  0
 51 68  1  1  0  0  0
 60 69  1  6  0  0  0
M  END
>  <cdx:groupId>
2333

>  <cdx:fragmentId>
2209

$$$$
