102594496.cdx
  Mrv1902 05222410232D          

 69 75  0  0  0  0            999 V2000
    2.2946  -14.6693    0.0000 O   0  0  0  0  0  0  0  0  0  0  0  0
    3.0091  -14.2568    0.0000 C   0  0  2  0  0  0  0  0  0  0  0  0
    3.0091  -13.4318    0.0000 C   0  0  1  0  0  0  0  0  0  0  0  0
    2.2946  -13.0193    0.0000 C   0  0  2  0  0  0  0  0  0  0  0  0
    1.5802  -13.4318    0.0000 C   0  0  1  0  0  0  0  0  0  0  0  0
    1.5802  -14.2568    0.0000 C   0  0  1  0  0  0  0  0  0  0  0  0
    3.7236  -13.0193    0.0000 O   0  0  0  0  0  0  0  0  0  0  0  0
    2.2946  -12.1943    0.0000 O   0  0  0  0  0  0  0  0  0  0  0  0
    0.8657  -13.0193    0.0000 O   0  0  0  0  0  0  0  0  0  0  0  0
    0.8657  -14.6693    0.0000 C   0  0  0  0  0  0  0  0  0  0  0  0
    0.1512  -14.2568    0.0000 O   0  0  0  0  0  0  0  0  0  0  0  0
    3.7236  -14.6693    0.0000 O   0  0  0  0  0  0  0  0  0  0  0  0
    5.1525  -13.0193    0.0000 C   0  0  0  0  0  0  0  0  0  0  0  0
    4.4381  -13.4318    0.0000 C   0  0  0  0  0  0  0  0  0  0  0  0
    4.4381  -14.2568    0.0000 C   0  0  1  0  0  0  0  0  0  0  0  0
    5.1525  -14.6693    0.0000 C   0  0  0  0  0  0  0  0  0  0  0  0
    5.8670  -14.2568    0.0000 C   0  0  0  0  0  0  0  0  0  0  0  0
    6.5815  -14.6693    0.0000 C   0  0  0  0  0  0  0  0  0  0  0  0
    7.2959  -14.2568    0.0000 C   0  0  0  0  0  0  0  0  0  0  0  0
    7.2959  -13.4318    0.0000 C   0  0  1  0  0  0  0  0  0  0  0  0
    8.0104  -13.0193    0.0000 C   0  0  2  0  0  0  0  0  0  0  0  0
    8.7950  -13.2742    0.0000 C   0  0  0  0  0  0  0  0  0  0  0  0
    9.2800  -12.6068    0.0000 C   0  0  0  0  0  0  0  0  0  0  0  0
    8.7950  -11.9394    0.0000 C   0  0  1  0  0  0  0  0  0  0  0  0
    8.0104  -12.1943    0.0000 C   0  0  1  0  0  0  0  0  0  0  0  0
    7.2959  -11.7818    0.0000 C   0  0  0  0  0  0  0  0  0  0  0  0
    6.5815  -12.1943    0.0000 C   0  0  2  0  0  0  0  0  0  0  0  0
    6.5815  -13.0193    0.0000 C   0  0  1  0  0  0  0  0  0  0  0  0
    5.8670  -13.4318    0.0000 C   0  0  1  0  0  0  0  0  0  0  0  0
    8.0104  -13.8443    0.0000 C   0  0  0  0  0  0  0  0  0  0  0  0
    8.0966  -11.3738    0.0000 C   0  0  0  0  0  0  0  0  0  0  0  0
    6.5815  -13.8443    0.0000 C   0  0  0  0  0  0  0  0  0  0  0  0
    5.5650  -15.3838    0.0000 C   0  0  0  0  0  0  0  0  0  0  0  0
    4.7400  -15.3838    0.0000 C   0  0  0  0  0  0  0  0  0  0  0  0
    5.8670  -11.7818    0.0000 O   0  0  0  0  0  0  0  0  0  0  0  0
    8.4979  -10.5416    0.0000 C   0  0  0  0  0  0  0  0  0  0  0  0
    9.0500  -11.1547    0.0000 C   0  0  2  0  0  0  0  0  0  0  0  0
    9.8569  -10.9832    0.0000 C   0  0  0  0  0  0  0  0  0  0  0  0
   10.1119  -10.1986    0.0000 C   0  0  0  0  0  0  0  0  0  0  0  0
   10.9189  -10.0271    0.0000 C   0  0  2  0  0  0  0  0  0  0  0  0
   11.4709  -10.6402    0.0000 C   0  0  0  0  0  0  0  0  0  0  0  0
   12.2779  -10.4686    0.0000 C   0  0  0  0  0  0  0  0  0  0  0  0
   11.2159  -11.4248    0.0000 C   0  0  0  0  0  0  0  0  0  0  0  0
   12.0229  -11.2533    0.0000 O   0  0  0  0  0  0  0  0  0  0  0  0
   11.1738   -9.2424    0.0000 O   0  0  0  0  0  0  0  0  0  0  0  0
   12.5328   -9.6840    0.0000 O   0  0  0  0  0  0  0  0  0  0  0  0
   11.9808   -9.0709    0.0000 C   0  0  2  0  0  0  0  0  0  0  0  0
   12.2357   -8.2863    0.0000 C   0  0  1  0  0  0  0  0  0  0  0  0
   13.0427   -8.1148    0.0000 C   0  0  2  0  0  0  0  0  0  0  0  0
   13.5947   -8.7279    0.0000 C   0  0  1  0  0  0  0  0  0  0  0  0
   13.3398   -9.5125    0.0000 C   0  0  1  0  0  0  0  0  0  0  0  0
   11.6837   -7.6732    0.0000 O   0  0  0  0  0  0  0  0  0  0  0  0
   12.7456   -6.7170    0.0000 O   0  0  0  0  0  0  0  0  0  0  0  0
   11.9386   -6.8886    0.0000 C   0  0  2  0  0  0  0  0  0  0  0  0
   11.3866   -6.2755    0.0000 C   0  0  1  0  0  0  0  0  0  0  0  0
   11.6415   -5.4909    0.0000 C   0  0  2  0  0  0  0  0  0  0  0  0
   12.4485   -5.3193    0.0000 C   0  0  1  0  0  0  0  0  0  0  0  0
   13.0005   -5.9324    0.0000 C   0  0  1  0  0  0  0  0  0  0  0  0
   13.8075   -5.7609    0.0000 C   0  0  0  0  0  0  0  0  0  0  0  0
   14.3909   -6.3443    0.0000 O   0  0  0  0  0  0  0  0  0  0  0  0
   12.7034   -4.5347    0.0000 O   0  0  0  0  0  0  0  0  0  0  0  0
   11.0895   -4.8778    0.0000 O   0  0  0  0  0  0  0  0  0  0  0  0
   10.5796   -6.4470    0.0000 O   0  0  0  0  0  0  0  0  0  0  0  0
   13.8918  -10.1256    0.0000 C   0  0  0  0  0  0  0  0  0  0  0  0
   14.6988   -9.9540    0.0000 O   0  0  0  0  0  0  0  0  0  0  0  0
   14.4017   -8.5563    0.0000 O   0  0  0  0  0  0  0  0  0  0  0  0
   13.2976   -7.3301    0.0000 O   0  0  0  0  0  0  0  0  0  0  0  0
    7.2959  -12.6068    0.0000 H   0  0  0  0  0  0  0  0  0  0  0  0
    5.8670  -12.6068    0.0000 H   0  0  0  0  0  0  0  0  0  0  0  0
  1  2  1  0  0  0  0
  2  3  1  0  0  0  0
  3  4  1  0  0  0  0
  4  5  1  0  0  0  0
  5  6  1  0  0  0  0
  1  6  1  0  0  0  0
  3  7  1  1  0  0  0
  4  8  1  6  0  0  0
  5  9  1  1  0  0  0
 10 11  1  0  0  0  0
  6 10  1  6  0  0  0
 13 14  1  0  0  0  0
 14 15  1  0  0  0  0
 15 16  1  0  0  0  0
 16 17  1  0  0  0  0
 17 18  2  0  0  0  0
 18 19  1  0  0  0  0
 19 20  1  0  0  0  0
 20 21  1  0  0  0  0
 21 22  1  0  0  0  0
 22 23  1  0  0  0  0
 24 23  1  1  0  0  0
 24 25  1  0  0  0  0
 21 25  1  0  0  0  0
 25 26  1  0  0  0  0
 26 27  1  0  0  0  0
 27 28  1  0  0  0  0
 20 28  1  0  0  0  0
 28 29  1  0  0  0  0
 17 29  1  0  0  0  0
 13 29  1  0  0  0  0
 21 30  1  6  0  0  0
 25 31  1  1  0  0  0
 28 32  1  1  0  0  0
 16 33  1  0  0  0  0
 16 34  1  0  0  0  0
 27 35  1  6  0  0  0
 37 36  1  6  0  0  0
 37 38  1  0  0  0  0
 38 39  1  0  0  0  0
 39 40  1  0  0  0  0
 40 41  1  0  0  0  0
 41 42  1  0  0  0  0
 41 43  1  0  0  0  0
 41 44  1  0  0  0  0
 46 47  1  0  0  0  0
 47 48  1  0  0  0  0
 48 49  1  0  0  0  0
 49 50  1  0  0  0  0
 50 51  1  0  0  0  0
 46 51  1  0  0  0  0
 53 54  1  0  0  0  0
 54 55  1  0  0  0  0
 55 56  1  0  0  0  0
 56 57  1  0  0  0  0
 57 58  1  0  0  0  0
 53 58  1  0  0  0  0
 59 60  1  0  0  0  0
 58 59  1  1  0  0  0
 57 61  1  6  0  0  0
 56 62  1  1  0  0  0
 55 63  1  6  0  0  0
 54 52  1  1  0  0  0
 48 52  1  6  0  0  0
 64 65  1  0  0  0  0
 51 64  1  1  0  0  0
 50 66  1  6  0  0  0
 49 67  1  1  0  0  0
 47 45  1  1  0  0  0
 40 45  1  1  0  0  0
 24 37  1  0  0  0  0
 15 12  1  1  0  0  0
  2 12  1  6  0  0  0
 20 68  1  1  0  0  0
 29 69  1  1  0  0  0
M  END
>  <cdx:groupId>
1694

>  <cdx:fragmentId>
1588

$$$$
