5946.cdx
  Mrv1902 05222410272D          

 10  8  0  0  0  0            999 V2000
    6.7952   -3.8019    0.0000 N   0  3  0  0  0  0  0  0  0  0  0  0
    7.5097   -4.2144    0.0000 C   0  0  0  0  0  0  0  0  0  0  0  0
    7.2077   -3.0874    0.0000 C   0  0  0  0  0  0  0  0  0  0  0  0
    8.0327   -3.0874    0.0000 C   0  0  0  0  0  0  0  0  0  0  0  0
    6.0808   -3.3894    0.0000 C   0  0  0  0  0  0  0  0  0  0  0  0
    6.3827   -4.5164    0.0000 C   0  0  0  0  0  0  0  0  0  0  0  0
    5.5577   -4.5164    0.0000 C   0  0  0  0  0  0  0  0  0  0  0  0
    7.5097   -5.0394    0.0000 C   0  0  0  0  0  0  0  0  0  0  0  0
    6.0808   -2.5644    0.0000 C   0  0  0  0  0  0  0  0  0  0  0  0
    6.8163   -5.2038    0.0000 Cl  0  5  0  0  0  0  0  0  0  0  0  0
  1  2  1  0  0  0  0
  3  4  1  0  0  0  0
  1  3  1  0  0  0  0
  1  5  1  0  0  0  0
  6  7  1  0  0  0  0
  1  6  1  0  0  0  0
  2  8  1  0  0  0  0
  5  9  1  0  0  0  0
M  CHG  2   1   1  10  -1
M  END
>  <cdx:groupId>
30

>  <cdx:fragmentId>
21

$$$$
