594790.cdx
  Mrv1902 05222410272D          

 34 38  0  0  0  0            999 V2000
    6.1872   -9.2121    0.0000 C   0  0  2  0  0  0  0  0  0  0  0  0
    5.4728   -8.7996    0.0000 C   0  0  0  0  0  0  0  0  0  0  0  0
    5.4728   -9.6246    0.0000 C   0  0  1  0  0  0  0  0  0  0  0  0
    4.7583   -9.2121    0.0000 C   0  0  0  0  0  0  0  0  0  0  0  0
    4.0438   -9.6246    0.0000 C   0  0  0  0  0  0  0  0  0  0  0  0
    4.0438  -10.4496    0.0000 C   0  0  0  0  0  0  0  0  0  0  0  0
    4.7583  -10.8621    0.0000 C   0  0  2  0  0  0  0  0  0  0  0  0
    5.4728  -10.4496    0.0000 C   0  0  2  0  0  0  0  0  0  0  0  0
    6.1872  -10.8621    0.0000 C   0  0  0  0  0  0  0  0  0  0  0  0
    6.9017  -10.4496    0.0000 C   0  0  0  0  0  0  0  0  0  0  0  0
    6.9017   -9.6246    0.0000 C   0  0  1  0  0  0  0  0  0  0  0  0
    7.6162   -9.2121    0.0000 C   0  0  2  0  0  0  0  0  0  0  0  0
    8.4008   -9.4670    0.0000 C   0  0  0  0  0  0  0  0  0  0  0  0
    8.8857   -8.7996    0.0000 C   0  0  0  0  0  0  0  0  0  0  0  0
    8.4008   -8.1321    0.0000 C   0  0  1  0  0  0  0  0  0  0  0  0
    7.6162   -8.3871    0.0000 C   0  0  1  0  0  0  0  0  0  0  0  0
    6.9017   -7.9746    0.0000 C   0  0  0  0  0  0  0  0  0  0  0  0
    6.1872   -8.3871    0.0000 C   0  0  0  0  0  0  0  0  0  0  0  0
    3.3294  -10.8621    0.0000 O   0  0  0  0  0  0  0  0  0  0  0  0
    8.1037   -6.7344    0.0000 C   0  0  0  0  0  0  0  0  0  0  0  0
    8.6557   -7.3475    0.0000 C   0  0  2  0  0  0  0  0  0  0  0  0
    9.4627   -7.1760    0.0000 C   0  0  0  0  0  0  0  0  0  0  0  0
    9.7177   -6.3914    0.0000 C   0  0  0  0  0  0  0  0  0  0  0  0
   10.5246   -6.2198    0.0000 C   0  0  0  0  0  0  0  0  0  0  0  0
   10.7796   -5.4352    0.0000 C   0  0  0  0  0  0  0  0  0  0  0  0
   10.2275   -4.8221    0.0000 C   0  0  0  0  0  0  0  0  0  0  0  0
   11.0767   -6.8329    0.0000 C   0  0  0  0  0  0  0  0  0  0  0  0
   11.5865   -5.2637    0.0000 C   0  0  0  0  0  0  0  0  0  0  0  0
    7.7024   -7.5666    0.0000 C   0  0  0  0  0  0  0  0  0  0  0  0
    7.6162  -10.0371    0.0000 C   0  0  0  0  0  0  0  0  0  0  0  0
    4.7583  -11.6871    0.0000 C   0  0  0  0  0  0  0  0  0  0  0  0
    5.4728  -11.2746    0.0000 H   0  0  0  0  0  0  0  0  0  0  0  0
    6.9017   -8.7996    0.0000 H   0  0  0  0  0  0  0  0  0  0  0  0
    9.1854   -7.8772    0.0000 H   0  0  0  0  0  0  0  0  0  0  0  0
  1  2  1  1  0  0  0
  3  2  1  1  0  0  0
  3  4  1  0  0  0  0
  4  5  1  0  0  0  0
  5  6  1  0  0  0  0
  6  7  1  0  0  0  0
  7  8  1  0  0  0  0
  8  9  1  0  0  0  0
  9 10  1  0  0  0  0
 10 11  1  0  0  0  0
 11 12  1  0  0  0  0
 12 13  1  0  0  0  0
 13 14  1  0  0  0  0
 15 14  1  0  0  0  0
 15 16  1  0  0  0  0
 16 17  1  0  0  0  0
 17 18  1  0  0  0  0
  1 18  1  0  0  0  0
  1 11  1  0  0  0  0
 12 16  1  0  0  0  0
  3  8  1  0  0  0  0
  1  3  1  0  0  0  0
  6 19  2  0  0  0  0
 21 20  1  6  0  0  0
 21 22  1  0  0  0  0
 22 23  1  0  0  0  0
 23 24  1  0  0  0  0
 24 25  1  0  0  0  0
 25 26  1  0  0  0  0
 24 27  2  0  0  0  0
 25 28  1  0  0  0  0
 15 21  1  0  0  0  0
 16 29  1  1  0  0  0
 12 30  1  6  0  0  0
  7 31  1  6  0  0  0
  8 32  1  6  0  0  0
 11 33  1  1  0  0  0
 15 34  1  6  0  0  0
M  END
>  <cdx:fragmentId>
133260

$$$$
