595178.cdx
  Mrv1902 05222410212D          

 27 30  0  0  0  0            999 V2000
    6.9839   -9.6034    0.0000 C   0  0  0  0  0  0  0  0  0  0  0  0
    6.9839   -8.7784    0.0000 C   0  0  0  0  0  0  0  0  0  0  0  0
    6.2695   -8.3659    0.0000 C   0  0  0  0  0  0  0  0  0  0  0  0
    5.5550   -8.7784    0.0000 C   0  0  0  0  0  0  0  0  0  0  0  0
    4.8405   -8.3659    0.0000 C   0  0  0  0  0  0  0  0  0  0  0  0
    4.1260   -8.7784    0.0000 C   0  0  0  0  0  0  0  0  0  0  0  0
    4.1260   -9.6034    0.0000 C   0  0  0  0  0  0  0  0  0  0  0  0
    4.8405  -10.0159    0.0000 C   0  0  0  0  0  0  0  0  0  0  0  0
    5.5550   -9.6034    0.0000 C   0  0  0  0  0  0  0  0  0  0  0  0
    6.2695  -10.0159    0.0000 O   0  0  0  0  0  0  0  0  0  0  0  0
    6.2695   -7.5409    0.0000 O   0  0  0  0  0  0  0  0  0  0  0  0
   10.5563   -7.5409    0.0000 C   0  0  0  0  0  0  0  0  0  0  0  0
   10.5563   -8.3659    0.0000 C   0  0  0  0  0  0  0  0  0  0  0  0
    9.8418   -8.7784    0.0000 C   0  0  0  0  0  0  0  0  0  0  0  0
    9.1273   -8.3659    0.0000 C   0  0  0  0  0  0  0  0  0  0  0  0
    8.4129   -8.7784    0.0000 C   0  0  0  0  0  0  0  0  0  0  0  0
    7.6984   -8.3659    0.0000 C   0  0  0  0  0  0  0  0  0  0  0  0
    7.6984   -7.5409    0.0000 C   0  0  0  0  0  0  0  0  0  0  0  0
    8.4129   -7.1284    0.0000 C   0  0  0  0  0  0  0  0  0  0  0  0
    9.1273   -7.5409    0.0000 C   0  0  0  0  0  0  0  0  0  0  0  0
    9.8418   -7.1284    0.0000 O   0  0  0  0  0  0  0  0  0  0  0  0
   10.9688   -6.8265    0.0000 C   0  0  0  0  0  0  0  0  0  0  0  0
   11.3813   -7.5409    0.0000 C   0  0  0  0  0  0  0  0  0  0  0  0
    8.4129   -9.6034    0.0000 O   0  0  0  0  0  0  0  0  0  0  0  0
    9.1273  -10.0159    0.0000 C   0  0  0  0  0  0  0  0  0  0  0  0
    6.9839   -7.1284    0.0000 O   0  0  0  0  0  0  0  0  0  0  0  0
    3.4116  -10.0159    0.0000 O   0  0  0  0  0  0  0  0  0  0  0  0
  1  2  2  0  0  0  0
  2  3  1  0  0  0  0
  3  4  1  0  0  0  0
  4  5  1  0  0  0  0
  5  6  2  0  0  0  0
  6  7  1  0  0  0  0
  7  8  2  0  0  0  0
  8  9  1  0  0  0  0
  4  9  2  0  0  0  0
  9 10  1  0  0  0  0
  1 10  1  0  0  0  0
  3 11  2  0  0  0  0
 12 13  1  0  0  0  0
 13 14  1  0  0  0  0
 14 15  1  0  0  0  0
 15 16  1  0  0  0  0
 16 17  2  0  0  0  0
 17 18  1  0  0  0  0
 18 19  2  0  0  0  0
 19 20  1  0  0  0  0
 15 20  2  0  0  0  0
 20 21  1  0  0  0  0
 12 21  1  0  0  0  0
 12 22  1  0  0  0  0
 12 23  1  0  0  0  0
 24 25  1  0  0  0  0
 16 24  1  0  0  0  0
 18 26  1  0  0  0  0
  2 17  1  0  0  0  0
  7 27  1  0  0  0  0
M  END
>  <cdx:fragmentId>
55610

$$$$
