595131.cdx
  Mrv1902 05222410182D          

 14 13  0  0  0  0            999 V2000
   12.2536  -13.9047    0.0000 C   0  0  0  0  0  0  0  0  0  0  0  0
   12.9681  -14.3172    0.0000 C   0  0  0  0  0  0  0  0  0  0  0  0
   13.6826  -13.9047    0.0000 C   0  0  0  0  0  0  0  0  0  0  0  0
   14.3970  -13.4922    0.0000 C   0  0  0  0  0  0  0  0  0  0  0  0
   15.1115  -13.0797    0.0000 C   0  0  0  0  0  0  0  0  0  0  0  0
   15.8260  -13.4922    0.0000 C   0  0  0  0  0  0  0  0  0  0  0  0
   16.5405  -13.9047    0.0000 C   0  0  0  0  0  0  0  0  0  0  0  0
   17.2549  -13.4922    0.0000 C   0  0  0  0  0  0  0  0  0  0  0  0
   17.9694  -13.9047    0.0000 C   0  0  0  0  0  0  0  0  0  0  0  0
   18.6839  -13.4922    0.0000 C   0  0  0  0  0  0  0  0  0  0  0  0
   16.5405  -14.7297    0.0000 C   0  0  0  0  0  0  0  0  0  0  0  0
   17.2549  -15.1422    0.0000 C   0  0  0  0  0  0  0  0  0  0  0  0
   15.1115  -12.2547    0.0000 C   0  0  0  0  0  0  0  0  0  0  0  0
   14.3970  -11.8422    0.0000 C   0  0  0  0  0  0  0  0  0  0  0  0
  1  2  1  0  0  0  0
  2  3  1  0  0  0  0
  3  4  3  0  0  0  0
  4  5  1  0  0  0  0
  5  6  2  0  0  0  0
  6  7  2  0  0  0  0
  7  8  1  0  0  0  0
  8  9  1  0  0  0  0
  9 10  1  0  0  0  0
 11 12  1  0  0  0  0
  7 11  1  0  0  0  0
 13 14  1  0  0  0  0
  5 13  1  0  0  0  0
M  END
>  <cdx:groupId>
6035

>  <cdx:fragmentId>
5997

$$$$
