595133.cdx
  Mrv1902 05222410182D          

 15 17  0  0  0  0            999 V2000
    8.1706   -7.1301    0.0000 C   0  0  0  0  0  0  0  0  0  0  0  0
    7.5872   -7.7135    0.0000 C   0  0  0  0  0  0  0  0  0  0  0  0
    7.8007   -8.5104    0.0000 C   0  0  0  0  0  0  0  0  0  0  0  0
    8.5976   -8.7239    0.0000 C   0  0  0  0  0  0  0  0  0  0  0  0
    9.1810   -8.1406    0.0000 C   0  0  0  0  0  0  0  0  0  0  0  0
    8.9674   -7.3437    0.0000 C   0  0  0  0  0  0  0  0  0  0  0  0
    7.7960   -6.3951    0.0000 C   0  0  0  0  0  0  0  0  0  0  0  0
    6.9812   -6.5241    0.0000 C   0  0  0  0  0  0  0  0  0  0  0  0
    6.8521   -7.3390    0.0000 C   0  0  0  0  0  0  0  0  0  0  0  0
    6.4776   -8.0740    0.0000 C   0  0  0  0  0  0  0  0  0  0  0  0
    7.2127   -8.4486    0.0000 C   0  0  0  0  0  0  0  0  0  0  0  0
    5.7631   -7.6615    0.0000 C   0  0  0  0  0  0  0  0  0  0  0  0
    6.0651   -8.7885    0.0000 C   0  0  0  0  0  0  0  0  0  0  0  0
    7.2174   -9.0938    0.0000 C   0  0  0  0  0  0  0  0  0  0  0  0
    8.7539   -6.5468    0.0000 C   0  0  0  0  0  0  0  0  0  0  0  0
  1  2  1  0  0  0  0
  2  3  1  0  0  0  0
  3  4  1  0  0  0  0
  4  5  1  0  0  0  0
  5  6  1  0  0  0  0
  6  1  1  0  0  0  0
  1  7  1  0  0  0  0
  7  8  1  0  0  0  0
  8  9  1  0  0  0  0
  9  2  1  0  0  0  0
  9 10  1  0  0  0  0
 10 11  1  0  0  0  0
 11  2  1  0  0  0  0
 10 12  1  0  0  0  0
 10 13  1  0  0  0  0
  3 14  2  0  0  0  0
  1 15  1  0  0  0  0
M  END
>  <cdx:fragmentId>
6062

$$$$
