595275.cdx
  Mrv1902 05222410282D          

 19 21  0  0  0  0            999 V2000
    6.1837   -6.4038    0.0000 C   0  0  0  0  0  0  0  0  0  0  0  0
    5.8702   -7.1669    0.0000 C   0  0  0  0  0  0  0  0  0  0  0  0
    6.1882   -7.9282    0.0000 C   0  0  0  0  0  0  0  0  0  0  0  0
    6.9513   -8.2417    0.0000 C   0  0  0  0  0  0  0  0  0  0  0  0
    7.7126   -7.9237    0.0000 C   0  0  0  0  0  0  0  0  0  0  0  0
    8.0261   -7.1606    0.0000 C   0  0  0  0  0  0  0  0  0  0  0  0
    7.7081   -6.3993    0.0000 C   0  0  0  0  0  0  0  0  0  0  0  0
    6.9450   -6.0858    0.0000 C   0  0  0  0  0  0  0  0  0  0  0  0
    6.9425   -5.2608    0.0000 C   0  0  0  0  0  0  0  0  0  0  0  0
    8.2897   -5.8142    0.0000 O   0  0  0  0  0  0  0  0  0  0  0  0
    9.0866   -6.0278    0.0000 C   0  0  0  0  0  0  0  0  0  0  0  0
    9.6700   -5.4444    0.0000 C   0  0  0  0  0  0  0  0  0  0  0  0
    9.3002   -6.8246    0.0000 O   0  0  0  0  0  0  0  0  0  0  0  0
    5.6543   -8.5571    0.0000 C   0  0  0  0  0  0  0  0  0  0  0  0
    6.0874   -9.2593    0.0000 C   0  0  0  0  0  0  0  0  0  0  0  0
    6.8890   -9.0643    0.0000 C   0  0  0  0  0  0  0  0  0  0  0  0
    4.8316   -8.4948    0.0000 C   0  0  0  0  0  0  0  0  0  0  0  0
    5.7739  -10.0224    0.0000 C   0  0  0  0  0  0  0  0  0  0  0  0
    6.5389   -7.1440    0.0000 C   0  0  0  0  0  0  0  0  0  0  0  0
  1  2  1  0  0  0  0
  2  3  1  0  0  0  0
  3  4  1  0  0  0  0
  4  5  1  0  0  0  0
  5  6  1  0  0  0  0
  6  7  1  0  0  0  0
  7  8  1  0  0  0  0
  8  1  1  0  0  0  0
  8  9  1  0  0  0  0
  7 10  1  0  0  0  0
 10 11  1  0  0  0  0
 11 12  1  0  0  0  0
 11 13  2  0  0  0  0
  3 14  1  0  0  0  0
 14 15  2  0  0  0  0
 15 16  1  0  0  0  0
 16  4  1  0  0  0  0
 14 17  1  0  0  0  0
 15 18  1  0  0  0  0
  8 19  1  0  0  0  0
  4 19  1  0  0  0  0
M  END
>  <cdx:fragmentId>
63

$$$$
