595385.cdx
  Mrv1902 05222410212D          

 15 16  0  0  0  0            999 V2000
   16.5362  -14.5309    0.0000 C   0  0  0  0  0  0  0  0  0  0  0  0
   17.2506  -14.1184    0.0000 C   0  0  0  0  0  0  0  0  0  0  0  0
   17.2506  -13.2934    0.0000 C   0  0  0  0  0  0  0  0  0  0  0  0
   16.5362  -12.8809    0.0000 C   0  0  0  0  0  0  0  0  0  0  0  0
   15.8217  -13.2934    0.0000 C   0  0  0  0  0  0  0  0  0  0  0  0
   15.1072  -12.8809    0.0000 C   0  0  0  0  0  0  0  0  0  0  0  0
   14.3928  -13.2934    0.0000 C   0  0  0  0  0  0  0  0  0  0  0  0
   14.3928  -14.1184    0.0000 C   0  0  0  0  0  0  0  0  0  0  0  0
   15.1072  -14.5309    0.0000 C   0  0  0  0  0  0  0  0  0  0  0  0
   15.8217  -14.1184    0.0000 C   0  0  0  0  0  0  0  0  0  0  0  0
   15.8217  -11.6434    0.0000 C   0  0  0  0  0  0  0  0  0  0  0  0
   16.5362  -12.0559    0.0000 C   0  0  0  0  0  0  0  0  0  0  0  0
   17.2506  -11.6434    0.0000 C   0  0  0  0  0  0  0  0  0  0  0  0
   13.6783  -12.8809    0.0000 C   0  0  0  0  0  0  0  0  0  0  0  0
   16.5362  -15.3559    0.0000 C   0  0  0  0  0  0  0  0  0  0  0  0
  1  2  1  0  0  0  0
  2  3  1  0  0  0  0
  3  4  1  0  0  0  0
  4  5  2  0  0  0  0
  5  6  1  0  0  0  0
  6  7  2  0  0  0  0
  7  8  1  0  0  0  0
  8  9  1  0  0  0  0
  9 10  1  0  0  0  0
  1 10  1  0  0  0  0
  5 10  1  0  0  0  0
 11 12  1  0  0  0  0
 12 13  1  0  0  0  0
  4 12  1  0  0  0  0
  7 14  1  0  0  0  0
  1 15  1  0  0  0  0
M  END
>  <cdx:groupId>
6387

>  <cdx:fragmentId>
6344

$$$$
