5,7-dihydroxy-3',4'-dimethoxyflavonol.cdx
  Mrv1902 05222410282D          

 24 26  0  0  0  0            999 V2000
    2.9733   -8.7037    0.0000 C   0  0  0  0  0  0  0  0  0  0  0  0
    2.9733   -9.5287    0.0000 C   0  0  0  0  0  0  0  0  0  0  0  0
    3.6877   -9.9413    0.0000 C   0  0  0  0  0  0  0  0  0  0  0  0
    4.4022   -9.5287    0.0000 C   0  0  0  0  0  0  0  0  0  0  0  0
    4.4022   -8.7037    0.0000 C   0  0  0  0  0  0  0  0  0  0  0  0
    3.6877   -8.2912    0.0000 C   0  0  0  0  0  0  0  0  0  0  0  0
    5.1167   -9.9413    0.0000 C   0  0  0  0  0  0  0  0  0  0  0  0
    5.8312   -9.5287    0.0000 C   0  0  0  0  0  0  0  0  0  0  0  0
    5.8312   -8.7037    0.0000 C   0  0  0  0  0  0  0  0  0  0  0  0
    5.1167   -8.2912    0.0000 O   0  0  0  0  0  0  0  0  0  0  0  0
    6.5456   -8.2912    0.0000 C   0  0  0  0  0  0  0  0  0  0  0  0
    7.2601   -8.7037    0.0000 C   0  0  0  0  0  0  0  0  0  0  0  0
    7.9746   -8.2912    0.0000 C   0  0  0  0  0  0  0  0  0  0  0  0
    7.9746   -7.4663    0.0000 C   0  0  0  0  0  0  0  0  0  0  0  0
    7.2601   -7.0537    0.0000 C   0  0  0  0  0  0  0  0  0  0  0  0
    6.5456   -7.4663    0.0000 C   0  0  0  0  0  0  0  0  0  0  0  0
    2.2588   -8.2912    0.0000 O   0  0  0  0  0  0  0  0  0  0  0  0
    3.6877  -10.7663    0.0000 O   0  0  0  0  0  0  0  0  0  0  0  0
    5.1167  -10.7663    0.0000 O   0  0  0  0  0  0  0  0  0  0  0  0
    6.5456   -9.9413    0.0000 O   0  0  0  0  0  0  0  0  0  0  0  0
    7.2601   -6.2287    0.0000 O   0  0  0  0  0  0  0  0  0  0  0  0
    7.2601   -5.4038    0.0000 C   0  0  0  0  0  0  0  0  0  0  0  0
    8.6890   -7.0537    0.0000 O   0  0  0  0  0  0  0  0  0  0  0  0
    9.4035   -6.6412    0.0000 C   0  0  0  0  0  0  0  0  0  0  0  0
  1  2  1  0  0  0  0
  2  3  2  0  0  0  0
  3  4  1  0  0  0  0
  4  5  2  0  0  0  0
  5  6  1  0  0  0  0
  6  1  2  0  0  0  0
  4  7  1  0  0  0  0
  7  8  1  0  0  0  0
  8  9  2  0  0  0  0
  9 10  1  0  0  0  0
 10  5  1  0  0  0  0
  9 11  1  0  0  0  0
 11 12  2  0  0  0  0
 12 13  1  0  0  0  0
 13 14  2  0  0  0  0
 14 15  1  0  0  0  0
 15 16  2  0  0  0  0
 16 11  1  0  0  0  0
  1 17  1  0  0  0  0
  3 18  1  0  0  0  0
  7 19  2  0  0  0  0
  8 20  1  0  0  0  0
 15 21  1  0  0  0  0
 14 23  1  0  0  0  0
 21 22  1  0  0  0  0
 23 24  1  0  0  0  0
M  STY  2   1 SUP   2 SUP
M  SAL   1  2  21  22
M  SBL   1  1  23
M  SMT   1 OCH3
M  SAP   1  1  21  15  1
M  SAL   2  2  23  24
M  SBL   2  1  24
M  SMT   2 OCH3
M  SAP   2  1  23  14  1
M  END
>  <cdx:fragmentId>
5

$$$$
