5958.cdx
  Mrv1902 05222410182D          

 12 13  0  0  0  0            999 V2000
    7.8379   -8.3970    0.0000 C   0  0  0  0  0  0  0  0  0  0  0  0
    8.5328   -7.9984    0.0000 C   0  0  0  0  0  0  0  0  0  0  0  0
    7.9065   -7.5006    0.0000 C   0  0  0  0  0  0  0  0  0  0  0  0
    5.8730   -8.3970    0.0000 C   0  0  0  0  0  0  0  0  0  0  0  0
    6.4963   -7.5079    0.0000 C   0  0  1  0  0  0  0  0  0  0  0  0
    7.1168   -8.0495    0.0000 C   0  0  2  0  0  0  0  0  0  0  0  0
    6.7489   -6.7225    0.0000 C   0  0  0  0  0  0  0  0  0  0  0  0
    7.8379   -9.2220    0.0000 C   0  0  0  0  0  0  0  0  0  0  0  0
    5.4605   -9.1114    0.0000 C   0  0  0  0  0  0  0  0  0  0  0  0
    5.0761   -8.1834    0.0000 C   0  0  0  0  0  0  0  0  0  0  0  0
    7.1168   -8.8745    0.0000 H   0  0  0  0  0  0  0  0  0  0  0  0
    5.9130   -6.9246    0.0000 H   0  0  0  0  0  0  0  0  0  0  0  0
  6  1  1  0  0  0  0
  1  2  1  0  0  0  0
  2  3  1  0  0  0  0
  5  7  1  0  0  0  0
  6  4  1  0  0  0  0
  5  4  1  0  0  0  0
  5  3  1  0  0  0  0
  6  7  1  0  0  0  0
  1  8  2  0  0  0  0
  4  9  1  0  0  0  0
  4 10  1  0  0  0  0
  6 11  1  1  0  0  0
  5 12  1  6  0  0  0
M  END
>  <cdx:fragmentId>
871

$$$$
