595941.cdx
  Mrv1902 05222410252D          

 13 14  0  0  0  0            999 V2000
   14.3461  -14.0600    0.0000 C   0  0  0  0  0  0  0  0  0  0  0  0
   15.0606  -13.6475    0.0000 C   0  0  0  0  0  0  0  0  0  0  0  0
   15.0606  -12.8225    0.0000 C   0  0  0  0  0  0  0  0  0  0  0  0
   14.3461  -12.4100    0.0000 C   0  0  0  0  0  0  0  0  0  0  0  0
   13.6316  -12.8225    0.0000 C   0  0  0  0  0  0  0  0  0  0  0  0
   13.6316  -13.6475    0.0000 C   0  0  0  0  0  0  0  0  0  0  0  0
   15.7750  -14.0600    0.0000 C   0  0  0  0  0  0  0  0  0  0  0  0
   16.6000  -14.0600    0.0000 C   0  0  0  0  0  0  0  0  0  0  0  0
   16.1875  -14.7744    0.0000 C   0  0  0  0  0  0  0  0  0  0  0  0
   17.3145  -13.6475    0.0000 C   0  0  0  0  0  0  0  0  0  0  0  0
   15.4731  -12.1080    0.0000 C   0  0  0  0  0  0  0  0  0  0  0  0
   15.8856  -12.8225    0.0000 C   0  0  0  0  0  0  0  0  0  0  0  0
   14.3461  -14.8850    0.0000 C   0  0  0  0  0  0  0  0  0  0  0  0
  1  2  2  0  0  0  0
  2  3  1  0  0  0  0
  3  4  1  0  0  0  0
  4  5  1  0  0  0  0
  5  6  1  0  0  0  0
  1  6  1  0  0  0  0
  7  8  1  0  0  0  0
  8  9  1  0  0  0  0
  7  9  1  0  0  0  0
  8 10  1  0  0  0  0
  2  7  1  0  0  0  0
  3 11  1  0  0  0  0
  3 12  1  0  0  0  0
  1 13  1  0  0  0  0
M  END
>  <cdx:groupId>
6432

>  <cdx:fragmentId>
6395

$$$$
