5959.cdx
  Mrv1902 05222410182D          

 12 13  0  0  0  0            999 V2000
    5.7918   -8.3970    0.0000 C   0  0  0  0  0  0  0  0  0  0  0  0
    5.0969   -7.9984    0.0000 C   0  0  0  0  0  0  0  0  0  0  0  0
    5.7232   -7.5006    0.0000 C   0  0  0  0  0  0  0  0  0  0  0  0
    7.7568   -8.3970    0.0000 C   0  0  0  0  0  0  0  0  0  0  0  0
    7.1334   -7.5079    0.0000 C   0  0  2  0  0  0  0  0  0  0  0  0
    6.5130   -8.0495    0.0000 C   0  0  1  0  0  0  0  0  0  0  0  0
    6.8809   -6.7225    0.0000 C   0  0  0  0  0  0  0  0  0  0  0  0
    5.7918   -9.2220    0.0000 C   0  0  0  0  0  0  0  0  0  0  0  0
    8.1693   -9.1114    0.0000 C   0  0  0  0  0  0  0  0  0  0  0  0
    8.5537   -8.1834    0.0000 C   0  0  0  0  0  0  0  0  0  0  0  0
    6.5130   -8.8745    0.0000 H   0  0  0  0  0  0  0  0  0  0  0  0
    7.7168   -6.9246    0.0000 H   0  0  0  0  0  0  0  0  0  0  0  0
  6  1  1  0  0  0  0
  1  2  1  0  0  0  0
  2  3  1  0  0  0  0
  5  7  1  0  0  0  0
  6  4  1  0  0  0  0
  5  4  1  0  0  0  0
  5  3  1  0  0  0  0
  6  7  1  0  0  0  0
  1  8  2  0  0  0  0
  4  9  1  0  0  0  0
  4 10  1  0  0  0  0
  6 11  1  1  0  0  0
  5 12  1  6  0  0  0
M  END
>  <cdx:fragmentId>
841

$$$$
