596027.cdx
  Mrv1902 05222410282D          

 21 21  0  0  0  0            999 V2000
    6.9145   -9.8060    0.0000 C   0  0  0  0  0  0  0  0  0  0  0  0
    6.9145  -10.6310    0.0000 C   0  0  0  0  0  0  0  0  0  0  0  0
    7.6290  -11.0435    0.0000 C   0  0  0  0  0  0  0  0  0  0  0  0
    8.3434  -10.6310    0.0000 C   0  0  0  0  0  0  0  0  0  0  0  0
    8.3434   -9.8060    0.0000 C   0  0  0  0  0  0  0  0  0  0  0  0
    7.6290   -9.3935    0.0000 C   0  0  0  0  0  0  0  0  0  0  0  0
    6.2000   -9.3935    0.0000 C   0  0  0  0  0  0  0  0  0  0  0  0
    6.2000   -8.5685    0.0000 O   0  0  0  0  0  0  0  0  0  0  0  0
    5.4855   -9.8060    0.0000 O   0  0  0  0  0  0  0  0  0  0  0  0
    4.7711   -9.3935    0.0000 C   0  0  0  0  0  0  0  0  0  0  0  0
    7.6290   -8.5685    0.0000 C   0  0  0  0  0  0  0  0  0  0  0  0
    6.9145   -8.1560    0.0000 O   0  0  0  0  0  0  0  0  0  0  0  0
    8.3434   -8.1560    0.0000 O   0  0  0  0  0  0  0  0  0  0  0  0
    8.3434   -7.3310    0.0000 C   0  0  0  0  0  0  0  0  0  0  0  0
    9.0579   -6.9185    0.0000 C   0  0  0  0  0  0  0  0  0  0  0  0
    9.0579   -6.0935    0.0000 C   0  0  0  0  0  0  0  0  0  0  0  0
    9.7724   -5.6810    0.0000 C   0  0  0  0  0  0  0  0  0  0  0  0
    9.7724   -4.8560    0.0000 C   0  0  0  0  0  0  0  0  0  0  0  0
   10.4868   -4.4435    0.0000 C   0  0  0  0  0  0  0  0  0  0  0  0
    9.7724   -7.3310    0.0000 C   0  0  0  0  0  0  0  0  0  0  0  0
   10.4868   -6.9185    0.0000 C   0  0  0  0  0  0  0  0  0  0  0  0
  1  2  2  0  0  0  0
  2  3  1  0  0  0  0
  3  4  2  0  0  0  0
  4  5  1  0  0  0  0
  5  6  2  0  0  0  0
  6  1  1  0  0  0  0
  1  7  1  0  0  0  0
  7  8  2  0  0  0  0
  7  9  1  0  0  0  0
  9 10  1  0  0  0  0
  6 11  1  0  0  0  0
 11 12  2  0  0  0  0
 11 13  1  0  0  0  0
 13 14  1  0  0  0  0
 14 15  1  0  0  0  0
 15 16  1  0  0  0  0
 16 17  1  0  0  0  0
 17 18  1  0  0  0  0
 18 19  1  0  0  0  0
 15 20  1  0  0  0  0
 20 21  1  0  0  0  0
M  END
>  <cdx:fragmentId>
6440

$$$$
