596097.cdx
  Mrv1902 05222410232D          

 34 36  0  0  0  0            999 V2000
   10.1458  -12.0638    0.0000 C   0  0  0  0  0  0  0  0  0  0  0  0
    7.5899  -12.3658    0.0000 C   0  0  0  0  0  0  0  0  0  0  0  0
    7.1774  -11.6513    0.0000 C   0  0  0  0  0  0  0  0  0  0  0  0
    9.4314  -14.1263    0.0000 O   0  0  0  0  0  0  0  0  0  0  0  0
    9.4314  -15.7763    0.0000 O   0  0  0  0  0  0  0  0  0  0  0  0
    8.0024  -16.6013    0.0000 O   0  0  0  0  0  0  0  0  0  0  0  0
    6.5735  -18.2513    0.0000 O   0  0  0  0  0  0  0  0  0  0  0  0
    5.1445  -19.0763    0.0000 O   0  0  0  0  0  0  0  0  0  0  0  0
    3.7156  -18.2513    0.0000 O   0  0  0  0  0  0  0  0  0  0  0  0
    3.0011  -17.0138    0.0000 O   0  0  0  0  0  0  0  0  0  0  0  0
    3.7156  -16.6013    0.0000 C   0  0  0  0  0  0  0  0  0  0  0  0
    4.4301  -17.0138    0.0000 C   0  0  2  0  0  0  0  0  0  0  0  0
    4.4301  -17.8388    0.0000 C   0  0  2  0  0  0  0  0  0  0  0  0
    5.1445  -18.2513    0.0000 C   0  0  1  0  0  0  0  0  0  0  0  0
    5.8590  -17.8388    0.0000 C   0  0  2  0  0  0  0  0  0  0  0  0
    5.8590  -17.0138    0.0000 C   0  0  1  0  0  0  0  0  0  0  0  0
    5.1445  -16.6013    0.0000 O   0  0  0  0  0  0  0  0  0  0  0  0
    6.5735  -16.6013    0.0000 O   0  0  0  0  0  0  0  0  0  0  0  0
    6.5735  -15.7763    0.0000 C   0  0  0  0  0  0  0  0  0  0  0  0
    7.2880  -15.3638    0.0000 C   0  0  2  0  0  0  0  0  0  0  0  0
    8.0024  -15.7763    0.0000 C   0  0  2  0  0  0  0  0  0  0  0  0
    8.7169  -15.3638    0.0000 C   0  0  1  0  0  0  0  0  0  0  0  0
    8.7169  -14.5388    0.0000 C   0  0  2  0  0  0  0  0  0  0  0  0
    8.0024  -14.1263    0.0000 C   0  0  1  0  0  0  0  0  0  0  0  0
    7.2880  -14.5388    0.0000 O   0  0  0  0  0  0  0  0  0  0  0  0
    8.0024  -13.3013    0.0000 O   0  0  0  0  0  0  0  0  0  0  0  0
    8.7169  -12.8888    0.0000 C   0  0  0  0  0  0  0  0  0  0  0  0
   10.1458  -10.4138    0.0000 O   0  0  0  0  0  0  0  0  0  0  0  0
    8.7169  -10.4138    0.0000 C   0  0  0  0  0  0  0  0  0  0  0  0
    8.0024  -10.8263    0.0000 C   0  0  0  0  0  0  0  0  0  0  0  0
    8.0024  -11.6513    0.0000 C   0  0  0  0  0  0  0  0  0  0  0  0
    8.7169  -12.0638    0.0000 C   0  0  0  0  0  0  0  0  0  0  0  0
    9.4314  -11.6513    0.0000 C   0  0  0  0  0  0  0  0  0  0  0  0
    9.4314  -10.8263    0.0000 C   0  0  0  0  0  0  0  0  0  0  0  0
 33  1  1  0  0  0  0
 31  2  1  0  0  0  0
 31  3  1  0  0  0  0
 32 27  1  0  0  0  0
 27 26  1  0  0  0  0
 24 26  1  1  0  0  0
 23  4  1  6  0  0  0
 22  5  1  1  0  0  0
 21  6  1  6  0  0  0
 20 19  1  1  0  0  0
 19 18  1  0  0  0  0
 16 18  1  1  0  0  0
 15  7  1  6  0  0  0
 14  8  1  1  0  0  0
 13  9  1  6  0  0  0
 12 11  1  1  0  0  0
 11 10  1  0  0  0  0
 17 12  1  0  0  0  0
 13 12  1  0  0  0  0
 14 13  1  0  0  0  0
 15 14  1  0  0  0  0
 16 15  1  0  0  0  0
 17 16  1  0  0  0  0
 25 20  1  0  0  0  0
 21 20  1  0  0  0  0
 22 21  1  0  0  0  0
 23 22  1  0  0  0  0
 24 23  1  0  0  0  0
 25 24  1  0  0  0  0
 34 28  2  0  0  0  0
 34 29  1  0  0  0  0
 30 29  1  0  0  0  0
 31 30  1  0  0  0  0
 32 31  1  0  0  0  0
 33 32  2  0  0  0  0
 34 33  1  0  0  0  0
M  END
>  <cdx:fragmentId>
41889

$$$$
