596186.cdx
  Mrv1902 05222410272D          

 17 19  0  0  0  0            999 V2000
   16.0128  -17.1520    0.0000 C   0  0  0  0  0  0  0  0  0  0  0  0
   16.7974  -17.4069    0.0000 C   0  0  0  0  0  0  0  0  0  0  0  0
   17.2824  -16.7395    0.0000 C   0  0  0  0  0  0  0  0  0  0  0  0
   16.7974  -16.0720    0.0000 C   0  0  0  0  0  0  0  0  0  0  0  0
   16.0128  -16.3270    0.0000 C   0  0  0  0  0  0  0  0  0  0  0  0
   15.2983  -15.9145    0.0000 C   0  0  0  0  0  0  0  0  0  0  0  0
   14.5839  -16.3270    0.0000 C   0  0  0  0  0  0  0  0  0  0  0  0
   14.5839  -17.1520    0.0000 C   0  0  0  0  0  0  0  0  0  0  0  0
   14.5996  -17.9562    0.0000 C   0  0  0  0  0  0  0  0  0  0  0  0
   15.2987  -18.3541    0.0000 C   0  0  0  0  0  0  0  0  0  0  0  0
   15.9978  -17.9562    0.0000 C   0  0  0  0  0  0  0  0  0  0  0  0
   15.2983  -17.5645    0.0000 C   0  0  0  0  0  0  0  0  0  0  0  0
   17.0524  -18.1915    0.0000 O   0  0  0  0  0  0  0  0  0  0  0  0
   13.8851  -18.3687    0.0000 O   0  0  0  0  0  0  0  0  0  0  0  0
   13.7589  -17.1520    0.0000 C   0  0  0  0  0  0  0  0  0  0  0  0
   16.6259  -15.2651    0.0000 C   0  0  0  0  0  0  0  0  0  0  0  0
   17.4105  -15.5200    0.0000 C   0  0  0  0  0  0  0  0  0  0  0  0
  1  2  1  0  0  0  0
  2  3  1  0  0  0  0
  3  4  1  0  0  0  0
  4  5  1  0  0  0  0
  5  6  1  0  0  0  0
  6  7  1  0  0  0  0
  7  8  1  0  0  0  0
  8  9  1  0  0  0  0
  9 10  1  0  0  0  0
 10 11  1  0  0  0  0
  1 11  1  0  0  0  0
  1 12  1  0  0  0  0
 12  8  1  0  0  0  0
  1  5  1  0  0  0  0
  2 13  1  0  0  0  0
  9 14  1  0  0  0  0
  8 15  1  0  0  0  0
  4 16  1  0  0  0  0
  4 17  1  0  0  0  0
M  END
>  <cdx:groupId>
6554

>  <cdx:fragmentId>
6504

$$$$
