596130.cdx
  Mrv1902 05222410252D          

 21 23  0  0  0  0            999 V2000
    7.4487   -5.8251    0.0000 O   0  0  0  0  0  0  0  0  0  0  0  0
   10.3066   -5.8072    0.0000 O   0  0  0  0  0  0  0  0  0  0  0  0
    8.8880   -7.4661    0.0000 C   0  0  0  0  0  0  0  0  0  0  0  0
    9.5999   -7.0491    0.0000 C   0  0  0  0  0  0  0  0  0  0  0  0
    9.5947   -6.2242    0.0000 C   0  0  0  0  0  0  0  0  0  0  0  0
    8.8776   -5.8161    0.0000 C   0  0  0  0  0  0  0  0  0  0  0  0
    8.1658   -6.2331    0.0000 C   0  0  0  0  0  0  0  0  0  0  0  0
    8.1709   -7.0581    0.0000 C   0  0  0  0  0  0  0  0  0  0  0  0
    5.3286   -9.5509    0.0000 O   0  0  0  0  0  0  0  0  0  0  0  0
    3.8842   -7.0849    0.0000 O   0  0  0  0  0  0  0  0  0  0  0  0
    6.7575   -9.5420    0.0000 O   0  0  0  0  0  0  0  0  0  0  0  0
    6.7420   -7.0670    0.0000 O   0  0  0  0  0  0  0  0  0  0  0  0
    6.0301   -7.4840    0.0000 C   0  0  0  0  0  0  0  0  0  0  0  0
    5.3131   -7.0760    0.0000 C   0  0  0  0  0  0  0  0  0  0  0  0
    4.6012   -7.4929    0.0000 C   0  0  0  0  0  0  0  0  0  0  0  0
    4.6064   -8.3179    0.0000 C   0  0  0  0  0  0  0  0  0  0  0  0
    5.3234   -8.7259    0.0000 C   0  0  0  0  0  0  0  0  0  0  0  0
    6.0353   -8.3090    0.0000 C   0  0  0  0  0  0  0  0  0  0  0  0
    6.7524   -8.7170    0.0000 C   0  0  0  0  0  0  0  0  0  0  0  0
    7.4642   -8.3000    0.0000 C   0  0  0  0  0  0  0  0  0  0  0  0
    7.4591   -7.4751    0.0000 C   0  0  0  0  0  0  0  0  0  0  0  0
 21  8  1  0  0  0  0
  7  1  1  0  0  0  0
  5  2  1  0  0  0  0
  8  3  2  0  0  0  0
  4  3  1  0  0  0  0
  5  4  2  0  0  0  0
  6  5  1  0  0  0  0
  7  6  2  0  0  0  0
  8  7  1  0  0  0  0
 17  9  1  0  0  0  0
 15 10  1  0  0  0  0
 19 11  2  0  0  0  0
 21 12  1  0  0  0  0
 13 12  1  0  0  0  0
 18 13  2  0  0  0  0
 14 13  1  0  0  0  0
 15 14  2  0  0  0  0
 16 15  1  0  0  0  0
 17 16  2  0  0  0  0
 18 17  1  0  0  0  0
 19 18  1  0  0  0  0
 20 19  1  0  0  0  0
 21 20  1  0  0  0  0
M  END
>  <cdx:fragmentId>
133445

$$$$
