596274.cdx
  Mrv1902 05222410212D          

 12 13  0  0  0  0            999 V2000
    7.2271   -7.1333    0.0000 O   0  0  0  0  0  0  0  0  0  0  0  0
    8.0314   -7.3168    0.0000 C   0  0  0  0  0  0  0  0  0  0  0  0
    8.3894   -8.0601    0.0000 C   0  0  0  0  0  0  0  0  0  0  0  0
    8.0314   -8.8034    0.0000 C   0  0  0  0  0  0  0  0  0  0  0  0
    7.2271   -8.9870    0.0000 C   0  0  0  0  0  0  0  0  0  0  0  0
    6.5821   -8.4726    0.0000 C   0  0  0  0  0  0  0  0  0  0  0  0
    6.5821   -7.6476    0.0000 C   0  0  0  0  0  0  0  0  0  0  0  0
    5.8676   -7.2351    0.0000 C   0  0  0  0  0  0  0  0  0  0  0  0
    5.1531   -7.6476    0.0000 C   0  0  0  0  0  0  0  0  0  0  0  0
    5.1531   -8.4726    0.0000 C   0  0  0  0  0  0  0  0  0  0  0  0
    5.8676   -8.8851    0.0000 C   0  0  0  0  0  0  0  0  0  0  0  0
    9.2144   -8.0601    0.0000 O   0  0  0  0  0  0  0  0  0  0  0  0
  1  2  1  0  0  0  0
  2  3  1  0  0  0  0
  3  4  1  0  0  0  0
  4  5  1  0  0  0  0
  5  6  1  0  0  0  0
  6  7  1  0  0  0  0
  1  7  1  0  0  0  0
  8  9  1  0  0  0  0
  9 10  2  0  0  0  0
 10 11  1  0  0  0  0
 11  6  2  0  0  0  0
  8  7  2  0  0  0  0
  3 12  1  0  0  0  0
M  END
>  <cdx:groupId>
6596

>  <cdx:fragmentId>
6562

$$$$
