596309.cdx
  Mrv1902 05222410242D          

 29 31  0  0  0  0            999 V2000
    6.8600   -9.5442    0.0000 C   0  0  2  0  0  0  0  0  0  0  0  0
    6.8600   -8.7192    0.0000 C   0  0  0  0  0  0  0  0  0  0  0  0
    6.1455   -8.3067    0.0000 C   0  0  0  0  0  0  0  0  0  0  0  0
    5.4311   -8.7192    0.0000 C   0  0  0  0  0  0  0  0  0  0  0  0
    4.7166   -8.3067    0.0000 C   0  0  0  0  0  0  0  0  0  0  0  0
    4.0021   -8.7192    0.0000 C   0  0  0  0  0  0  0  0  0  0  0  0
    4.0021   -9.5442    0.0000 C   0  0  0  0  0  0  0  0  0  0  0  0
    4.7166   -9.9567    0.0000 C   0  0  0  0  0  0  0  0  0  0  0  0
    5.4311   -9.5442    0.0000 C   0  0  0  0  0  0  0  0  0  0  0  0
    6.1455   -9.9567    0.0000 O   0  0  0  0  0  0  0  0  0  0  0  0
    6.1455   -7.4817    0.0000 O   0  0  0  0  0  0  0  0  0  0  0  0
    4.7166  -10.7817    0.0000 C   0  0  0  0  0  0  0  0  0  0  0  0
    4.0021  -11.1942    0.0000 C   0  0  0  0  0  0  0  0  0  0  0  0
    4.0021  -12.0192    0.0000 C   0  0  0  0  0  0  0  0  0  0  0  0
    4.7166  -12.4317    0.0000 C   0  0  0  0  0  0  0  0  0  0  0  0
    3.2877  -12.4317    0.0000 C   0  0  0  0  0  0  0  0  0  0  0  0
    7.5745   -9.9567    0.0000 C   0  0  0  0  0  0  0  0  0  0  0  0
    8.2890   -9.5442    0.0000 C   0  0  0  0  0  0  0  0  0  0  0  0
    9.0034   -9.9567    0.0000 C   0  0  0  0  0  0  0  0  0  0  0  0
    9.0034  -10.7817    0.0000 C   0  0  0  0  0  0  0  0  0  0  0  0
    8.2890  -11.1942    0.0000 C   0  0  0  0  0  0  0  0  0  0  0  0
    7.5745  -10.7817    0.0000 C   0  0  0  0  0  0  0  0  0  0  0  0
    9.7179   -9.5442    0.0000 C   0  0  0  0  0  0  0  0  0  0  0  0
   10.4324   -9.9567    0.0000 C   0  0  0  0  0  0  0  0  0  0  0  0
   11.1468   -9.5442    0.0000 C   0  0  0  0  0  0  0  0  0  0  0  0
   11.1468   -8.7192    0.0000 C   0  0  0  0  0  0  0  0  0  0  0  0
   11.8613   -9.9567    0.0000 C   0  0  0  0  0  0  0  0  0  0  0  0
    9.7179  -11.1942    0.0000 O   0  0  0  0  0  0  0  0  0  0  0  0
    3.2877   -9.9567    0.0000 O   0  0  0  0  0  0  0  0  0  0  0  0
  1  2  1  0  0  0  0
  2  3  1  0  0  0  0
  3  4  1  0  0  0  0
  4  5  1  0  0  0  0
  5  6  2  0  0  0  0
  6  7  1  0  0  0  0
  7  8  2  0  0  0  0
  8  9  1  0  0  0  0
  4  9  2  0  0  0  0
  9 10  1  0  0  0  0
  1 10  1  0  0  0  0
  3 11  2  0  0  0  0
 12 13  1  0  0  0  0
 13 14  2  0  0  0  0
 14 15  1  0  0  0  0
 14 16  1  0  0  0  0
  8 12  1  0  0  0  0
 17 18  1  0  0  0  0
 18 19  2  0  0  0  0
 19 20  1  0  0  0  0
 20 21  2  0  0  0  0
 21 22  1  0  0  0  0
 17 22  2  0  0  0  0
 23 24  1  0  0  0  0
 24 25  2  0  0  0  0
 25 26  1  0  0  0  0
 25 27  1  0  0  0  0
 19 23  1  0  0  0  0
 20 28  1  0  0  0  0
  1 17  1  1  0  0  0
  7 29  1  0  0  0  0
M  END
>  <cdx:fragmentId>
3216

$$$$
