596375.cdx
  Mrv1902 05222410182D          

 12 12  0  0  0  0            999 V2000
    6.5595   -9.8569    0.0000 C   0  0  0  0  0  0  0  0  0  0  0  0
    6.5595   -9.0319    0.0000 C   0  0  0  0  0  0  0  0  0  0  0  0
    7.2740   -8.6194    0.0000 C   0  0  0  0  0  0  0  0  0  0  0  0
    7.9885   -9.0319    0.0000 C   0  0  0  0  0  0  0  0  0  0  0  0
    7.9885   -9.8569    0.0000 C   0  0  0  0  0  0  0  0  0  0  0  0
    7.2740  -10.2694    0.0000 C   0  0  0  0  0  0  0  0  0  0  0  0
    5.8451  -10.2694    0.0000 O   0  0  0  0  0  0  0  0  0  0  0  0
    5.8451   -8.6194    0.0000 O   0  0  0  0  0  0  0  0  0  0  0  0
    5.1306   -9.0319    0.0000 C   0  0  0  0  0  0  0  0  0  0  0  0
    8.7030  -10.2694    0.0000 C   0  0  0  0  0  0  0  0  0  0  0  0
    9.4174   -9.8569    0.0000 C   0  0  0  0  0  0  0  0  0  0  0  0
   10.1319  -10.2694    0.0000 C   0  0  0  0  0  0  0  0  0  0  0  0
  1  2  1  0  0  0  0
  2  3  2  0  0  0  0
  3  4  1  0  0  0  0
  4  5  2  0  0  0  0
  5  6  1  0  0  0  0
  1  6  2  0  0  0  0
  1  7  1  0  0  0  0
  8  9  1  0  0  0  0
  2  8  1  0  0  0  0
 10 11  1  0  0  0  0
 11 12  2  0  0  0  0
  5 10  1  0  0  0  0
M  END
>  <cdx:fragmentId>
6645

$$$$
