5963.cdx
  Mrv1902 05222410192D          

 12 11  0  0  0  0            999 V2000
    8.1316   -5.9686    0.0000 Cl  0  5  0  0  0  0  0  0  0  0  0  0
    6.7022   -5.0886    0.0000 C   0  0  0  0  0  0  0  0  0  0  0  0
    6.7022   -5.9136    0.0000 C   0  0  0  0  0  0  0  0  0  0  0  0
    7.4166   -6.3261    0.0000 C   0  0  0  0  0  0  0  0  0  0  0  0
    7.4166   -7.1511    0.0000 C   0  0  0  0  0  0  0  0  0  0  0  0
    6.7022   -7.5636    0.0000 C   0  0  0  0  0  0  0  0  0  0  0  0
    5.9877   -7.1511    0.0000 C   0  0  0  0  0  0  0  0  0  0  0  0
    5.9877   -6.3261    0.0000 C   0  0  0  0  0  0  0  0  0  0  0  0
    8.1311   -4.2636    0.0000 C   0  0  0  0  0  0  0  0  0  0  0  0
    7.0041   -3.9616    0.0000 C   0  0  0  0  0  0  0  0  0  0  0  0
    7.8291   -5.3905    0.0000 C   0  0  0  0  0  0  0  0  0  0  0  0
    7.4166   -4.6761    0.0000 N   0  3  0  0  0  0  0  0  0  0  0  0
 12  2  1  0  0  0  0
 12  9  1  0  0  0  0
 12 10  1  0  0  0  0
 12 11  1  0  0  0  0
  2  3  1  0  0  0  0
  3  4  1  0  0  0  0
  4  5  2  0  0  0  0
  5  6  1  0  0  0  0
  6  7  2  0  0  0  0
  7  8  1  0  0  0  0
  3  8  2  0  0  0  0
M  CHG  2   1  -1  12   1
M  END
>  <cdx:groupId>
37

>  <cdx:fragmentId>
13

$$$$
