596372.cdx
  Mrv1902 05222410192D          

 12 13  0  0  0  0            999 V2000
   15.1849  -17.2811    0.0000 C   0  0  0  0  0  0  0  0  0  0  0  0
   15.8994  -16.8686    0.0000 C   0  0  0  0  0  0  0  0  0  0  0  0
   15.8994  -16.0436    0.0000 C   0  0  0  0  0  0  0  0  0  0  0  0
   15.1849  -15.6311    0.0000 C   0  0  0  0  0  0  0  0  0  0  0  0
   14.4704  -16.0436    0.0000 C   0  0  0  0  0  0  0  0  0  0  0  0
   14.4704  -16.8686    0.0000 O   0  0  0  0  0  0  0  0  0  0  0  0
   16.6840  -15.7886    0.0000 O   0  0  0  0  0  0  0  0  0  0  0  0
   16.6840  -17.1235    0.0000 C   0  0  0  0  0  0  0  0  0  0  0  0
   17.1689  -16.4561    0.0000 C   0  0  0  0  0  0  0  0  0  0  0  0
   15.1849  -18.1061    0.0000 O   0  0  0  0  0  0  0  0  0  0  0  0
   13.7560  -15.6311    0.0000 C   0  0  0  0  0  0  0  0  0  0  0  0
   16.9389  -17.9081    0.0000 C   0  0  0  0  0  0  0  0  0  0  0  0
  1  2  1  0  0  0  0
  2  3  2  0  0  0  0
  3  4  1  0  0  0  0
  4  5  2  0  0  0  0
  5  6  1  0  0  0  0
  1  6  1  0  0  0  0
  8  9  2  0  0  0  0
  7  9  1  0  0  0  0
  8  2  1  0  0  0  0
  7  3  1  0  0  0  0
  1 10  2  0  0  0  0
  5 11  1  0  0  0  0
  8 12  1  0  0  0  0
M  END
>  <cdx:groupId>
6637

>  <cdx:fragmentId>
6603

$$$$
