596430.cdx
  Mrv1902 05222410272D          

 24 25  0  0  0  0            999 V2000
    6.7245  -12.4380    0.0000 C   0  0  0  0  0  0  0  0  0  0  0  0
    7.4390  -12.0255    0.0000 O   0  0  0  0  0  0  0  0  0  0  0  0
    8.1535   -9.9630    0.0000 C   0  0  0  0  0  0  0  0  0  0  0  0
    8.1535  -10.7880    0.0000 C   0  0  0  0  0  0  0  0  0  0  0  0
    7.4390  -11.2005    0.0000 C   0  0  0  0  0  0  0  0  0  0  0  0
    6.7245  -10.7880    0.0000 C   0  0  0  0  0  0  0  0  0  0  0  0
    6.7245   -9.9630    0.0000 C   0  0  0  0  0  0  0  0  0  0  0  0
    7.4390   -9.5505    0.0000 C   0  0  0  0  0  0  0  0  0  0  0  0
    8.8680   -4.6005    0.0000 C   0  0  0  0  0  0  0  0  0  0  0  0
    8.1535   -5.0130    0.0000 O   0  0  0  0  0  0  0  0  0  0  0  0
    7.4390   -7.0755    0.0000 C   0  0  0  0  0  0  0  0  0  0  0  0
    7.4390   -6.2505    0.0000 C   0  0  0  0  0  0  0  0  0  0  0  0
    8.1535   -5.8380    0.0000 C   0  0  0  0  0  0  0  0  0  0  0  0
    8.8680   -6.2505    0.0000 C   0  0  0  0  0  0  0  0  0  0  0  0
    8.8680   -7.0755    0.0000 C   0  0  0  0  0  0  0  0  0  0  0  0
    8.1535   -7.4880    0.0000 C   0  0  0  0  0  0  0  0  0  0  0  0
    6.0101   -8.7255    0.0000 C   0  0  0  0  0  0  0  0  0  0  0  0
    6.7245   -7.4880    0.0000 C   0  0  0  0  0  0  0  0  0  0  0  0
    9.5824   -8.3130    0.0000 C   0  0  0  0  0  0  0  0  0  0  0  0
    8.8680   -9.5505    0.0000 C   0  0  0  0  0  0  0  0  0  0  0  0
    8.8680   -8.7255    0.0000 N   0  0  0  0  0  0  0  0  0  0  0  0
    6.7245   -8.3130    0.0000 N   0  0  0  0  0  0  0  0  0  0  0  0
    8.1535   -8.3130    0.0000 C   0  0  0  0  0  0  0  0  0  0  0  0
    7.4390   -8.7255    0.0000 C   0  0  0  0  0  0  0  0  0  0  0  0
 24  8  1  0  0  0  0
  5  2  1  0  0  0  0
  2  1  1  0  0  0  0
  8  3  2  0  0  0  0
  4  3  1  0  0  0  0
  5  4  2  0  0  0  0
  6  5  1  0  0  0  0
  7  6  2  0  0  0  0
  8  7  1  0  0  0  0
 23 16  1  0  0  0  0
 13 10  1  0  0  0  0
 10  9  1  0  0  0  0
 16 11  2  0  0  0  0
 12 11  1  0  0  0  0
 13 12  2  0  0  0  0
 14 13  1  0  0  0  0
 15 14  2  0  0  0  0
 16 15  1  0  0  0  0
 22 17  1  0  0  0  0
 22 18  1  0  0  0  0
 21 19  1  0  0  0  0
 21 20  1  0  0  0  0
 23 21  1  0  0  0  0
 24 22  1  0  0  0  0
 24 23  1  0  0  0  0
M  END
>  <cdx:fragmentId>
6702

$$$$
