5965.cdx
  Mrv1902 05222410182D          

 25 27  0  0  0  0            999 V2000
    5.6339   -7.3219    0.0000 C   0  0  0  0  0  0  0  0  0  0  0  0
    5.6339   -8.1469    0.0000 C   0  0  0  0  0  0  0  0  0  0  0  0
    6.3484   -8.5594    0.0000 C   0  0  0  0  0  0  0  0  0  0  0  0
    7.0628   -8.1469    0.0000 C   0  0  0  0  0  0  0  0  0  0  0  0
    7.0628   -7.3219    0.0000 C   0  0  0  0  0  0  0  0  0  0  0  0
    6.3484   -6.9094    0.0000 C   0  0  0  0  0  0  0  0  0  0  0  0
    7.7773   -8.5594    0.0000 C   0  0  0  0  0  0  0  0  0  0  0  0
    8.4918   -8.1469    0.0000 C   0  0  0  0  0  0  0  0  0  0  0  0
    8.4918   -7.3219    0.0000 C   0  0  0  0  0  0  0  0  0  0  0  0
    7.7773   -6.9094    0.0000 O   0  0  0  0  0  0  0  0  0  0  0  0
    9.2063   -6.9094    0.0000 C   0  0  0  0  0  0  0  0  0  0  0  0
    9.2063   -6.0844    0.0000 C   0  0  0  0  0  0  0  0  0  0  0  0
    9.9207   -7.3219    0.0000 C   0  0  0  0  0  0  0  0  0  0  0  0
   10.6352   -6.9094    0.0000 C   0  0  0  0  0  0  0  0  0  0  0  0
   10.6352   -6.0844    0.0000 C   0  0  0  0  0  0  0  0  0  0  0  0
    9.9207   -5.6719    0.0000 C   0  0  0  0  0  0  0  0  0  0  0  0
    7.7773   -9.3844    0.0000 O   0  0  0  0  0  0  0  0  0  0  0  0
    6.3484   -9.3844    0.0000 O   0  0  0  0  0  0  0  0  0  0  0  0
    4.9194   -6.9094    0.0000 O   0  0  0  0  0  0  0  0  0  0  0  0
    9.9207   -4.8469    0.0000 O   0  0  0  0  0  0  0  0  0  0  0  0
   11.3497   -5.6719    0.0000 O   0  0  0  0  0  0  0  0  0  0  0  0
    4.9194   -8.5594    0.0000 O   0  0  0  0  0  0  0  0  0  0  0  0
    4.2050   -8.1469    0.0000 C   0  0  0  0  0  0  0  0  0  0  0  0
    9.2063   -4.4344    0.0000 C   0  0  0  0  0  0  0  0  0  0  0  0
   12.0641   -6.0844    0.0000 C   0  0  0  0  0  0  0  0  0  0  0  0
  1  2  2  0  0  0  0
  2  3  1  0  0  0  0
  3  4  2  0  0  0  0
  4  5  1  0  0  0  0
  5  6  2  0  0  0  0
  6  1  1  0  0  0  0
  4  7  1  0  0  0  0
  7  8  1  0  0  0  0
  8  9  2  0  0  0  0
  9 10  1  0  0  0  0
 10  5  1  0  0  0  0
  9 11  1  0  0  0  0
 11 12  1  0  0  0  0
 11 13  2  0  0  0  0
 13 14  1  0  0  0  0
 14 15  2  0  0  0  0
 15 16  1  0  0  0  0
 16 12  2  0  0  0  0
  7 17  2  0  0  0  0
  3 18  1  0  0  0  0
  1 19  1  0  0  0  0
 16 20  1  0  0  0  0
 15 21  1  0  0  0  0
  2 22  1  0  0  0  0
 22 23  1  0  0  0  0
 20 24  1  0  0  0  0
 21 25  1  0  0  0  0
M  END
>  <cdx:fragmentId>
112

$$$$
