11596696.cdx
  Mrv1902 05222410242D          

 30 32  0  0  0  0            999 V2000
   10.6525  -15.4459    0.0000 O   0  0  0  0  0  0  0  0  0  0  0  0
   11.1374  -14.7785    0.0000 C   0  0  0  0  0  0  0  0  0  0  0  0
   10.6525  -14.1111    0.0000 C   0  0  0  0  0  0  0  0  0  0  0  0
    9.8679  -14.3660    0.0000 C   0  0  0  0  0  0  0  0  0  0  0  0
    9.1534  -13.9535    0.0000 C   0  0  0  0  0  0  0  0  0  0  0  0
    8.4389  -14.3660    0.0000 C   0  0  2  0  0  0  0  0  0  0  0  0
    8.4389  -15.1910    0.0000 C   0  0  2  0  0  0  0  0  0  0  0  0
    9.1534  -15.6035    0.0000 C   0  0  0  0  0  0  0  0  0  0  0  0
    9.8679  -15.1910    0.0000 C   0  0  2  0  0  0  0  0  0  0  0  0
   11.9624  -14.7785    0.0000 O   0  0  0  0  0  0  0  0  0  0  0  0
    7.7245  -13.1285    0.0000 C   0  0  0  0  0  0  0  0  0  0  0  0
    7.7245  -13.9535    0.0000 C   0  0  0  0  0  0  0  0  0  0  0  0
    7.0100  -14.3660    0.0000 C   0  0  0  0  0  0  0  0  0  0  0  0
    6.2955  -13.9535    0.0000 O   0  0  0  0  0  0  0  0  0  0  0  0
    4.8666  -13.9535    0.0000 O   0  0  0  0  0  0  0  0  0  0  0  0
    5.5811  -14.3660    0.0000 C   0  0  2  0  0  0  0  0  0  0  0  0
    5.5811  -15.1910    0.0000 C   0  0  1  0  0  0  0  0  0  0  0  0
    4.8666  -15.6035    0.0000 C   0  0  2  0  0  0  0  0  0  0  0  0
    4.1521  -15.1910    0.0000 C   0  0  1  0  0  0  0  0  0  0  0  0
    4.1521  -14.3660    0.0000 C   0  0  1  0  0  0  0  0  0  0  0  0
    3.4376  -13.9535    0.0000 C   0  0  0  0  0  0  0  0  0  0  0  0
    2.7232  -14.3660    0.0000 O   0  0  0  0  0  0  0  0  0  0  0  0
    3.4376  -15.6035    0.0000 O   0  0  0  0  0  0  0  0  0  0  0  0
    4.8666  -16.4285    0.0000 O   0  0  0  0  0  0  0  0  0  0  0  0
    6.2955  -15.6035    0.0000 O   0  0  0  0  0  0  0  0  0  0  0  0
    8.0264  -15.9055    0.0000 C   0  0  0  0  0  0  0  0  0  0  0  0
   10.9074  -13.3264    0.0000 C   0  0  0  0  0  0  0  0  0  0  0  0
    7.6139  -15.1910    0.0000 C   0  0  0  0  0  0  0  0  0  0  0  0
    7.2014  -15.9055    0.0000 C   0  0  0  0  0  0  0  0  0  0  0  0
    9.9541  -16.0115    0.0000 H   0  0  0  0  0  0  0  0  0  0  0  0
  1  2  1  0  0  0  0
  2  3  1  0  0  0  0
  3  4  2  0  0  0  0
  4  5  1  0  0  0  0
  5  6  1  0  0  0  0
  6  7  1  0  0  0  0
  7  8  1  0  0  0  0
  8  9  1  0  0  0  0
  4  9  1  0  0  0  0
  1  9  1  0  0  0  0
  2 10  2  0  0  0  0
 11 12  2  0  0  0  0
 12 13  1  0  0  0  0
 15 16  1  0  0  0  0
 16 17  1  0  0  0  0
 17 18  1  0  0  0  0
 18 19  1  0  0  0  0
 19 20  1  0  0  0  0
 15 20  1  0  0  0  0
 21 22  1  0  0  0  0
 20 21  1  1  0  0  0
 19 23  1  6  0  0  0
 18 24  1  1  0  0  0
 17 25  1  6  0  0  0
 16 14  1  1  0  0  0
 13 14  1  0  0  0  0
  6 12  1  6  0  0  0
  7 26  1  6  0  0  0
  3 27  1  0  0  0  0
 28 29  2  0  0  0  0
  7 28  1  1  0  0  0
  9 30  1  6  0  0  0
M  END
>  <cdx:groupId>
75535

>  <cdx:fragmentId>
75474

$$$$
