596791.cdx
  Mrv1902 05222410272D          

 42 47  0  0  0  0            999 V2000
   11.6390   -8.7153    0.0000 C   0  0  0  0  0  0  0  0  0  0  0  0
   10.9456   -9.9648    0.0000 O   0  0  0  0  0  0  0  0  0  0  0  0
   10.9316   -9.1399    0.0000 C   0  0  0  0  0  0  0  0  0  0  0  0
    1.9869   -7.8496    0.0000 H   0  0  0  0  0  0  0  0  0  0  0  0
    4.1274   -8.2897    0.0000 H   0  0  0  0  0  0  0  0  0  0  0  0
    8.0381   -8.3637    0.0000 H   0  0  0  0  0  0  0  0  0  0  0  0
    8.0635   -5.8895    0.0000 H   0  0  0  0  0  0  0  0  0  0  0  0
   10.2102   -8.7396    0.0000 O   0  0  0  0  0  0  0  0  0  0  0  0
   11.6109   -7.0656    0.0000 O   0  0  0  0  0  0  0  0  0  0  0  0
   11.2796   -8.2245    0.0000 C   0  0  0  0  0  0  0  0  0  0  0  0
   10.5275   -6.7559    0.0000 C   0  0  0  0  0  0  0  0  0  0  0  0
   10.9035   -7.4902    0.0000 C   0  0  0  0  0  0  0  0  0  0  0  0
   10.1962   -7.9148    0.0000 C   0  0  0  0  0  0  0  0  0  0  0  0
    7.6827   -5.7741    0.0000 C   0  0  0  0  0  0  0  0  0  0  0  0
    8.7254   -5.4644    0.0000 C   0  0  0  0  0  0  0  0  0  0  0  0
    6.3302   -7.8461    0.0000 C   0  0  0  0  0  0  0  0  0  0  0  0
    3.8189   -8.5878    0.0000 C   0  0  0  0  0  0  0  0  0  0  0  0
    2.9940   -8.5771    0.0000 C   0  0  0  0  0  0  0  0  0  0  0  0
    7.0126   -8.5922    0.0000 O   0  0  0  0  0  0  0  0  0  0  0  0
    3.2620   -6.7505    0.0000 O   0  0  0  0  0  0  0  0  0  0  0  0
    3.4370   -6.2182    0.0000 C   0  0  0  0  0  0  0  0  0  0  0  0
    2.7172   -6.6214    0.0000 C   0  0  0  0  0  0  0  0  0  0  0  0
    2.7066   -7.4463    0.0000 C   0  0  1  0  0  0  0  0  0  0  0  0
    3.4157   -7.8680    0.0000 C   0  0  0  0  0  0  0  0  0  0  0  0
    4.1354   -7.4648    0.0000 C   0  0  2  0  0  0  0  0  0  0  0  0
    4.7737   -7.9874    0.0000 C   0  0  0  0  0  0  0  0  0  0  0  0
    5.5803   -7.8143    0.0000 C   0  0  0  0  0  0  0  0  0  0  0  0
    5.9479   -7.0756    0.0000 C   0  0  0  0  0  0  0  0  0  0  0  0
    6.7697   -7.1479    0.0000 C   0  0  1  0  0  0  0  0  0  0  0  0
    7.2659   -7.8070    0.0000 C   0  0  0  0  0  0  0  0  0  0  0  0
    8.0461   -7.5388    0.0000 C   0  0  2  0  0  0  0  0  0  0  0  0
    8.7675   -7.9391    0.0000 O   0  0  0  0  0  0  0  0  0  0  0  0
    9.4748   -7.5145    0.0000 C   0  0  0  0  0  0  0  0  0  0  0  0
    9.4608   -6.6896    0.0000 C   0  0  0  0  0  0  0  0  0  0  0  0
    8.7394   -6.2893    0.0000 C   0  0  2  0  0  0  0  0  0  0  0  0
    8.0320   -6.7139    0.0000 C   0  0  2  0  0  0  0  0  0  0  0  0
    7.2432   -6.4723    0.0000 C   0  0  2  0  0  0  0  0  0  0  0  0
    6.8949   -5.7245    0.0000 C   0  0  0  0  0  0  0  0  0  0  0  0
    6.0730   -5.6522    0.0000 C   0  0  0  0  0  0  0  0  0  0  0  0
    5.5995   -6.3278    0.0000 C   0  0  0  0  0  0  0  0  0  0  0  0
    4.7977   -6.1338    0.0000 C   0  0  0  0  0  0  0  0  0  0  0  0
    4.1461   -6.6398    0.0000 C   0  0  2  0  0  0  0  0  0  0  0  0
  3  1  1  0  0  0  0
  3  2  2  0  0  0  0
  8  3  1  0  0  0  0
 23  4  1  1  0  0  0
 25  5  1  6  0  0  0
 31  6  1  6  0  0  0
 36  7  1  6  0  0  0
 33 13  1  0  0  0  0
 13  8  1  0  0  0  0
 12  9  1  0  0  0  0
 12 10  1  0  0  0  0
 12 11  1  0  0  0  0
 13 12  1  0  0  0  0
 37 14  1  1  0  0  0
 35 15  1  6  0  0  0
 29 16  1  6  0  0  0
 24 17  1  0  0  0  0
 24 18  1  0  0  0  0
 30 19  2  0  0  0  0
 36 31  1  0  0  0  0
 37 29  1  0  0  0  0
 40 28  2  0  0  0  0
 42 25  1  0  0  0  0
 23 20  1  1  0  0  0
 42 20  1  1  0  0  0
 42 21  1  0  0  0  0
 22 21  1  0  0  0  0
 23 22  1  0  0  0  0
 24 23  1  0  0  0  0
 25 24  1  0  0  0  0
 26 25  1  0  0  0  0
 27 26  1  0  0  0  0
 28 27  1  0  0  0  0
 29 28  1  0  0  0  0
 30 29  1  0  0  0  0
 31 30  1  0  0  0  0
 32 31  1  0  0  0  0
 33 32  1  0  0  0  0
 34 33  1  0  0  0  0
 35 34  1  0  0  0  0
 36 35  1  0  0  0  0
 37 36  1  0  0  0  0
 38 37  1  0  0  0  0
 39 38  1  0  0  0  0
 40 39  1  0  0  0  0
 41 40  1  0  0  0  0
 42 41  1  0  0  0  0
M  END
>  <cdx:fragmentId>
251172

$$$$
