596894.cdx
  Mrv1902 05222410222D          

 14 15  0  0  0  0            999 V2000
   14.4704  -16.7869    0.0000 C   0  0  0  0  0  0  0  0  0  0  0  0
   13.7560  -16.3744    0.0000 C   0  0  0  0  0  0  0  0  0  0  0  0
   13.0415  -16.7869    0.0000 C   0  0  0  0  0  0  0  0  0  0  0  0
   14.4704  -17.6119    0.0000 O   0  0  0  0  0  0  0  0  0  0  0  0
   17.3985  -15.2945    0.0000 O   0  0  0  0  0  0  0  0  0  0  0  0
   17.8834  -15.9619    0.0000 C   0  0  0  0  0  0  0  0  0  0  0  0
   17.3985  -16.6294    0.0000 O   0  0  0  0  0  0  0  0  0  0  0  0
   16.6138  -16.3744    0.0000 C   0  0  0  0  0  0  0  0  0  0  0  0
   16.6138  -15.5494    0.0000 C   0  0  0  0  0  0  0  0  0  0  0  0
   15.8994  -16.7869    0.0000 C   0  0  0  0  0  0  0  0  0  0  0  0
   15.1849  -16.3744    0.0000 C   0  0  0  0  0  0  0  0  0  0  0  0
   15.1849  -15.5494    0.0000 C   0  0  0  0  0  0  0  0  0  0  0  0
   15.8994  -15.1369    0.0000 C   0  0  0  0  0  0  0  0  0  0  0  0
   14.4704  -15.1369    0.0000 O   0  0  0  0  0  0  0  0  0  0  0  0
  1  2  1  0  0  0  0
  2  3  1  0  0  0  0
  1  4  2  0  0  0  0
  5  6  1  0  0  0  0
  6  7  1  0  0  0  0
  7  8  1  0  0  0  0
  8  9  1  0  0  0  0
  5  9  1  0  0  0  0
 10 11  1  0  0  0  0
 11 12  2  0  0  0  0
 12 13  1  0  0  0  0
 13  9  2  0  0  0  0
 10  8  2  0  0  0  0
 12 14  1  0  0  0  0
  1 11  1  0  0  0  0
M  END
>  <cdx:groupId>
6808

>  <cdx:fragmentId>
6776

$$$$
