596924.cdx
  Mrv1902 05222410232D          

 15 15  0  0  0  0            999 V2000
    7.9882   -6.9969    0.0000 C   0  0  0  0  0  0  0  0  0  0  0  0
    7.9882   -7.8219    0.0000 C   0  0  0  0  0  0  0  0  0  0  0  0
    7.2738   -8.2344    0.0000 C   0  0  0  0  0  0  0  0  0  0  0  0
    6.5593   -7.8219    0.0000 C   0  0  0  0  0  0  0  0  0  0  0  0
    6.5593   -6.9969    0.0000 C   0  0  0  0  0  0  0  0  0  0  0  0
    7.2738   -6.5844    0.0000 C   0  0  0  0  0  0  0  0  0  0  0  0
    8.7027   -6.5844    0.0000 O   0  0  0  0  0  0  0  0  0  0  0  0
    5.8448   -8.2344    0.0000 O   0  0  0  0  0  0  0  0  0  0  0  0
    5.1303   -7.8219    0.0000 C   0  0  0  0  0  0  0  0  0  0  0  0
    5.8448   -6.5844    0.0000 O   0  0  0  0  0  0  0  0  0  0  0  0
    5.1303   -6.9969    0.0000 C   0  0  0  0  0  0  0  0  0  0  0  0
    4.4159   -6.5844    0.0000 C   0  0  0  0  0  0  0  0  0  0  0  0
    8.7027   -8.2344    0.0000 C   0  0  0  0  0  0  0  0  0  0  0  0
    9.4172   -7.8219    0.0000 C   0  0  0  0  0  0  0  0  0  0  0  0
   10.1316   -8.2344    0.0000 C   0  0  0  0  0  0  0  0  0  0  0  0
  1  2  1  0  0  0  0
  2  3  2  0  0  0  0
  3  4  1  0  0  0  0
  4  5  2  0  0  0  0
  5  6  1  0  0  0  0
  1  6  2  0  0  0  0
  1  7  1  0  0  0  0
  8  9  1  0  0  0  0
  4  8  1  0  0  0  0
 11 12  1  0  0  0  0
 10 11  1  0  0  0  0
  5 10  1  0  0  0  0
 13 14  1  0  0  0  0
 14 15  2  0  0  0  0
  2 13  1  0  0  0  0
M  END
>  <cdx:fragmentId>
6818

$$$$
