596917.cdx
  Mrv1902 05222410242D          

 17 19  0  0  0  0            999 V2000
    7.1250   -8.4625    0.0000 H   0  0  0  0  0  0  0  0  0  0  0  0
    9.0666   -7.3178    0.0000 H   0  0  0  0  0  0  0  0  0  0  0  0
    8.9673   -8.5563    0.0000 C   0  0  0  0  0  0  0  0  0  0  0  0
    8.2566   -8.9753    0.0000 C   0  0  0  0  0  0  0  0  0  0  0  0
    6.7978   -5.6883    0.0000 C   0  0  0  0  0  0  0  0  0  0  0  0
    6.1096   -8.5822    0.0000 C   0  0  0  0  0  0  0  0  0  0  0  0
    8.2491   -8.1503    0.0000 C   0  0  0  0  0  0  0  0  0  0  0  0
    6.8128   -7.3383    0.0000 C   0  0  0  0  0  0  0  0  0  0  0  0
    6.1021   -7.7572    0.0000 C   0  0  0  0  0  0  0  0  0  0  0  0
    5.3839   -7.3512    0.0000 C   0  0  0  0  0  0  0  0  0  0  0  0
    5.3764   -6.5263    0.0000 C   0  0  0  0  0  0  0  0  0  0  0  0
    6.0871   -6.1073    0.0000 C   0  0  0  0  0  0  0  0  0  0  0  0
    6.8053   -6.5133    0.0000 C   0  0  1  0  0  0  0  0  0  0  0  0
    7.5160   -6.0944    0.0000 C   0  0  0  0  0  0  0  0  0  0  0  0
    8.2342   -6.5004    0.0000 C   0  0  0  0  0  0  0  0  0  0  0  0
    8.2417   -7.3253    0.0000 C   0  0  1  0  0  0  0  0  0  0  0  0
    7.5310   -7.7443    0.0000 C   0  0  2  0  0  0  0  0  0  0  0  0
 17  1  1  1  0  0  0
 16  2  1  1  0  0  0
  7  3  1  0  0  0  0
  7  4  1  0  0  0  0
 13  5  1  1  0  0  0
  9  6  1  0  0  0  0
  7 16  1  0  0  0  0
  7 17  1  0  0  0  0
 13  8  1  0  0  0  0
 17  8  1  0  0  0  0
  9  8  2  0  0  0  0
 10  9  1  0  0  0  0
 11 10  1  0  0  0  0
 12 11  1  0  0  0  0
 13 12  1  0  0  0  0
 14 13  1  0  0  0  0
 15 14  1  0  0  0  0
 16 15  1  0  0  0  0
 17 16  1  0  0  0  0
M  END
>  <cdx:fragmentId>
6

$$$$
