597.cdx
  Mrv1902 05222410232D          

  8  8  0  0  0  0            999 V2000
    3.9982   -2.5810    0.0000 C   0  0  0  0  0  0  0  0  0  0  0  0
    3.9982   -3.4060    0.0000 N   0  0  0  0  0  0  0  0  0  0  0  0
    3.2837   -3.8185    0.0000 C   0  0  0  0  0  0  0  0  0  0  0  0
    2.5692   -3.4060    0.0000 C   0  0  0  0  0  0  0  0  0  0  0  0
    2.5692   -2.5810    0.0000 C   0  0  0  0  0  0  0  0  0  0  0  0
    3.2837   -2.1685    0.0000 N   0  0  0  0  0  0  0  0  0  0  0  0
    4.7126   -2.1685    0.0000 O   0  0  0  0  0  0  0  0  0  0  0  0
    1.8548   -2.1685    0.0000 N   0  0  0  0  0  0  0  0  0  0  0  0
  1  2  1  0  0  0  0
  2  3  2  0  0  0  0
  3  4  1  0  0  0  0
  4  5  2  0  0  0  0
  5  6  1  0  0  0  0
  1  6  1  0  0  0  0
  1  7  2  0  0  0  0
  5  8  1  0  0  0  0
M  END
>  <cdx:groupId>
26

>  <cdx:fragmentId>
5

$$$$
