597086.cdx
  Mrv1902 05222410192D          

 18 18  0  0  0  0            999 V2000
   16.1832  -14.4775    0.0000 C   0  0  0  0  0  0  0  0  0  0  0  0
   16.1832  -15.3025    0.0000 C   0  0  0  0  0  0  0  0  0  0  0  0
   15.4688  -15.7150    0.0000 C   0  0  0  0  0  0  0  0  0  0  0  0
   14.7543  -15.3025    0.0000 C   0  0  0  0  0  0  0  0  0  0  0  0
   14.0398  -15.7150    0.0000 C   0  0  0  0  0  0  0  0  0  0  0  0
   15.4688  -14.0650    0.0000 O   0  0  0  0  0  0  0  0  0  0  0  0
   16.8977  -14.0650    0.0000 O   0  0  0  0  0  0  0  0  0  0  0  0
   14.7543  -14.4775    0.0000 O   0  0  0  0  0  0  0  0  0  0  0  0
   15.4688  -16.5400    0.0000 C   0  0  0  0  0  0  0  0  0  0  0  0
   14.7543  -16.9525    0.0000 C   0  0  0  0  0  0  0  0  0  0  0  0
   14.7543  -17.7775    0.0000 C   0  0  0  0  0  0  0  0  0  0  0  0
   15.4688  -18.1900    0.0000 C   0  0  0  0  0  0  0  0  0  0  0  0
   16.1832  -17.7775    0.0000 C   0  0  0  0  0  0  0  0  0  0  0  0
   16.1832  -16.9525    0.0000 C   0  0  0  0  0  0  0  0  0  0  0  0
   16.8977  -16.5400    0.0000 O   0  0  0  0  0  0  0  0  0  0  0  0
   15.0563  -18.9045    0.0000 C   0  0  0  0  0  0  0  0  0  0  0  0
   15.8813  -18.9045    0.0000 C   0  0  0  0  0  0  0  0  0  0  0  0
   14.0398  -16.5400    0.0000 O   0  0  0  0  0  0  0  0  0  0  0  0
  1  2  1  0  0  0  0
  2  3  1  0  0  0  0
  3  4  1  0  0  0  0
  4  5  1  0  0  0  0
  1  6  2  0  0  0  0
  1  7  1  0  0  0  0
  4  8  2  0  0  0  0
  9 10  2  0  0  0  0
 10 11  1  0  0  0  0
 11 12  1  0  0  0  0
 12 13  1  0  0  0  0
 13 14  1  0  0  0  0
  9 14  1  0  0  0  0
 14 15  2  0  0  0  0
 12 16  1  0  0  0  0
 12 17  1  0  0  0  0
 10 18  1  0  0  0  0
  3  9  1  0  0  0  0
M  END
>  <cdx:groupId>
6919

>  <cdx:fragmentId>
6884

$$$$
