5970.cdx
  Mrv1902 05222410182D          

 35 38  0  0  0  0            999 V2000
    7.0089   -6.7994    0.0000 C   0  0  0  0  0  0  0  0  0  0  0  0
    7.0089   -7.6244    0.0000 C   0  0  0  0  0  0  0  0  0  0  0  0
    7.7234   -8.0369    0.0000 C   0  0  0  0  0  0  0  0  0  0  0  0
    8.4378   -7.6244    0.0000 C   0  0  0  0  0  0  0  0  0  0  0  0
    8.4378   -6.7994    0.0000 C   0  0  0  0  0  0  0  0  0  0  0  0
    7.7234   -6.3869    0.0000 C   0  0  0  0  0  0  0  0  0  0  0  0
    9.1523   -8.0369    0.0000 C   0  0  0  0  0  0  0  0  0  0  0  0
    9.8668   -7.6244    0.0000 C   0  0  0  0  0  0  0  0  0  0  0  0
    9.8668   -6.7994    0.0000 C   0  0  0  0  0  0  0  0  0  0  0  0
    9.1523   -6.3869    0.0000 O   0  0  0  0  0  0  0  0  0  0  0  0
   12.0102   -8.0369    0.0000 C   0  0  0  0  0  0  0  0  0  0  0  0
   11.2957   -7.6244    0.0000 O   0  0  0  0  0  0  0  0  0  0  0  0
   12.0102   -6.3869    0.0000 C   0  0  0  0  0  0  0  0  0  0  0  0
   12.0102   -5.5619    0.0000 C   0  0  0  0  0  0  0  0  0  0  0  0
   11.2957   -5.1494    0.0000 C   0  0  0  0  0  0  0  0  0  0  0  0
    9.1523   -8.8619    0.0000 O   0  0  0  0  0  0  0  0  0  0  0  0
    7.7234   -8.8619    0.0000 O   0  0  0  0  0  0  0  0  0  0  0  0
    6.2944   -6.3869    0.0000 O   0  0  0  0  0  0  0  0  0  0  0  0
    7.7234   -5.5619    0.0000 O   0  0  0  0  0  0  0  0  0  0  0  0
   10.5813   -5.5619    0.0000 C   0  0  0  0  0  0  0  0  0  0  0  0
    4.1627   -6.7994    0.0000 C   0  0  2  0  0  0  0  0  0  0  0  0
    4.1627   -7.6244    0.0000 C   0  0  2  0  0  0  0  0  0  0  0  0
    4.8771   -8.0369    0.0000 C   0  0  1  0  0  0  0  0  0  0  0  0
    5.5916   -7.6244    0.0000 C   0  0  2  0  0  0  0  0  0  0  0  0
    5.5916   -6.7994    0.0000 C   0  0  1  0  0  0  0  0  0  0  0  0
    4.8771   -6.3869    0.0000 O   0  0  0  0  0  0  0  0  0  0  0  0
    3.4482   -6.3869    0.0000 C   0  0  0  0  0  0  0  0  0  0  0  0
    4.8771   -8.8619    0.0000 O   0  0  0  0  0  0  0  0  0  0  0  0
    6.3061   -8.0369    0.0000 O   0  0  0  0  0  0  0  0  0  0  0  0
    3.4482   -8.0369    0.0000 O   0  0  0  0  0  0  0  0  0  0  0  0
    2.7337   -6.7994    0.0000 O   0  0  0  0  0  0  0  0  0  0  0  0
    3.4482   -5.5619    0.0000 O   0  0  0  0  0  0  0  0  0  0  0  0
    7.0089   -5.1494    0.0000 C   0  0  0  0  0  0  0  0  0  0  0  0
   11.2957   -6.7994    0.0000 C   0  0  0  0  0  0  0  0  0  0  0  0
   10.5813   -6.3869    0.0000 C   0  0  0  0  0  0  0  0  0  0  0  0
  1  2  2  0  0  0  0
  2  3  1  0  0  0  0
  3  4  2  0  0  0  0
  4  5  1  0  0  0  0
  5  6  2  0  0  0  0
  6  1  1  0  0  0  0
  4  7  1  0  0  0  0
  7  8  1  0  0  0  0
  8  9  2  0  0  0  0
  9 10  1  0  0  0  0
 10  5  1  0  0  0  0
 12 11  1  0  0  0  0
  9 35  1  0  0  0  0
 34 12  1  0  0  0  0
 13 34  2  0  0  0  0
 14 13  1  0  0  0  0
 15 14  2  0  0  0  0
 20 15  1  0  0  0  0
 35 20  2  0  0  0  0
  7 16  2  0  0  0  0
  3 17  1  0  0  0  0
  1 18  1  0  0  0  0
  6 19  1  0  0  0  0
 35 34  1  0  0  0  0
 21 22  1  0  0  0  0
 22 23  1  0  0  0  0
 23 24  1  0  0  0  0
 24 25  1  0  0  0  0
 25 26  1  0  0  0  0
 26 21  1  0  0  0  0
 21 27  1  1  0  0  0
 23 28  1  1  0  0  0
 24 29  1  6  0  0  0
 22 30  1  6  0  0  0
 27 31  1  0  0  0  0
 27 32  2  0  0  0  0
 25 18  1  1  0  0  0
 19 33  1  0  0  0  0
M  END
>  <cdx:fragmentId>
112

$$$$
