5972.cdx
  Mrv1902 05222410182D          

 26 29  0  0  0  0            999 V2000
    3.3445   -6.8888    0.0000 C   0  0  0  0  0  0  0  0  0  0  0  0
    3.3445   -7.7138    0.0000 C   0  0  0  0  0  0  0  0  0  0  0  0
    4.0590   -8.1263    0.0000 C   0  0  0  0  0  0  0  0  0  0  0  0
    4.7735   -7.7138    0.0000 C   0  0  0  0  0  0  0  0  0  0  0  0
    4.7735   -6.8888    0.0000 C   0  0  0  0  0  0  0  0  0  0  0  0
    4.0590   -6.4763    0.0000 C   0  0  0  0  0  0  0  0  0  0  0  0
    5.4879   -8.1263    0.0000 C   0  0  0  0  0  0  0  0  0  0  0  0
    6.2024   -7.7138    0.0000 C   0  0  0  0  0  0  0  0  0  0  0  0
    6.2024   -6.8888    0.0000 C   0  0  0  0  0  0  0  0  0  0  0  0
    5.4879   -6.4763    0.0000 O   0  0  0  0  0  0  0  0  0  0  0  0
    6.9169   -8.1263    0.0000 C   0  0  0  0  0  0  0  0  0  0  0  0
    7.6314   -7.7138    0.0000 C   0  0  0  0  0  0  0  0  0  0  0  0
    7.6314   -6.8888    0.0000 C   0  0  0  0  0  0  0  0  0  0  0  0
    8.3458   -8.1263    0.0000 C   0  0  0  0  0  0  0  0  0  0  0  0
    9.0603   -7.7138    0.0000 C   0  0  0  0  0  0  0  0  0  0  0  0
    9.0603   -6.8888    0.0000 C   0  0  0  0  0  0  0  0  0  0  0  0
    8.3458   -6.4763    0.0000 C   0  0  0  0  0  0  0  0  0  0  0  0
    9.8449   -7.9687    0.0000 O   0  0  0  0  0  0  0  0  0  0  0  0
   10.3298   -7.3012    0.0000 C   0  0  0  0  0  0  0  0  0  0  0  0
    9.8449   -6.6338    0.0000 O   0  0  0  0  0  0  0  0  0  0  0  0
    4.0590   -5.6512    0.0000 O   0  0  0  0  0  0  0  0  0  0  0  0
    2.6301   -6.4763    0.0000 O   0  0  0  0  0  0  0  0  0  0  0  0
    2.6301   -8.1263    0.0000 C   0  0  0  0  0  0  0  0  0  0  0  0
    4.0590   -8.9513    0.0000 O   0  0  0  0  0  0  0  0  0  0  0  0
    5.4879   -8.9513    0.0000 O   0  0  0  0  0  0  0  0  0  0  0  0
    3.3445   -5.2387    0.0000 C   0  0  0  0  0  0  0  0  0  0  0  0
  1  2  2  0  0  0  0
  2  3  1  0  0  0  0
  3  4  2  0  0  0  0
  4  5  1  0  0  0  0
  5  6  2  0  0  0  0
  6  1  1  0  0  0  0
  4  7  1  0  0  0  0
  7  8  1  0  0  0  0
  8  9  1  0  0  0  0
  9 10  1  0  0  0  0
 10  5  1  0  0  0  0
  8 11  1  0  0  0  0
 11 12  1  0  0  0  0
 12 13  1  0  0  0  0
 12 14  2  0  0  0  0
 14 15  1  0  0  0  0
 15 16  2  0  0  0  0
 16 17  1  0  0  0  0
 17 13  2  0  0  0  0
 15 18  1  0  0  0  0
 18 19  1  0  0  0  0
 19 20  1  0  0  0  0
 20 16  1  0  0  0  0
  6 21  1  0  0  0  0
  1 22  1  0  0  0  0
  2 23  1  0  0  0  0
  3 24  1  0  0  0  0
  7 25  2  0  0  0  0
 21 26  1  0  0  0  0
M  END
>  <cdx:fragmentId>
5

$$$$
