597354.cdx
  Mrv1902 05222410212D          

 57 62  0  0  0  0            999 V2000
   14.3928   -7.9472    0.0000 C   0  0  0  0  0  0  0  0  0  0  0  0
   14.3903   -8.7722    0.0000 C   0  0  0  0  0  0  0  0  0  0  0  0
   13.6746   -9.1824    0.0000 C   0  0  0  0  0  0  0  0  0  0  0  0
   12.9614   -8.7677    0.0000 C   0  0  0  0  0  0  0  0  0  0  0  0
   12.2456   -9.1780    0.0000 C   0  0  0  0  0  0  0  0  0  0  0  0
   11.5324   -8.7633    0.0000 C   0  0  0  0  0  0  0  0  0  0  0  0
   11.5350   -7.9383    0.0000 C   0  0  0  0  0  0  0  0  0  0  0  0
   12.2507   -7.5280    0.0000 C   0  0  0  0  0  0  0  0  0  0  0  0
   12.9639   -7.9427    0.0000 C   0  0  0  0  0  0  0  0  0  0  0  0
   13.6797   -7.5325    0.0000 O   0  0  0  0  0  0  0  0  0  0  0  0
   13.6720  -10.0074    0.0000 O   0  0  0  0  0  0  0  0  0  0  0  0
   10.8218   -7.5236    0.0000 O   0  0  0  0  0  0  0  0  0  0  0  0
   10.1073   -7.9361    0.0000 C   0  0  0  0  0  0  0  0  0  0  0  0
   15.1086   -7.5369    0.0000 C   0  0  0  0  0  0  0  0  0  0  0  0
   15.1111   -6.7119    0.0000 C   0  0  0  0  0  0  0  0  0  0  0  0
   15.8269   -6.3016    0.0000 C   0  0  0  0  0  0  0  0  0  0  0  0
   16.5401   -6.7163    0.0000 C   0  0  0  0  0  0  0  0  0  0  0  0
   16.5375   -7.5413    0.0000 C   0  0  0  0  0  0  0  0  0  0  0  0
   15.8218   -7.9516    0.0000 C   0  0  0  0  0  0  0  0  0  0  0  0
   17.2558   -6.3060    0.0000 O   0  0  0  0  0  0  0  0  0  0  0  0
   12.2431  -10.0030    0.0000 O   0  0  0  0  0  0  0  0  0  0  0  0
   10.7998  -11.6486    0.0000 O   0  0  0  0  0  0  0  0  0  0  0  0
   10.7941  -12.4735    0.0000 C   0  0  1  0  0  0  0  0  0  0  0  0
   11.5058  -12.8909    0.0000 C   0  0  2  0  0  0  0  0  0  0  0  0
   12.2231  -12.4833    0.0000 C   0  0  1  0  0  0  0  0  0  0  0  0
   12.2287  -11.6583    0.0000 C   0  0  2  0  0  0  0  0  0  0  0  0
   11.5171  -11.2410    0.0000 C   0  0  2  0  0  0  0  0  0  0  0  0
   12.9460  -11.2507    0.0000 O   0  0  0  0  0  0  0  0  0  0  0  0
   12.9347  -12.9007    0.0000 O   0  0  0  0  0  0  0  0  0  0  0  0
   11.5001  -13.7159    0.0000 O   0  0  0  0  0  0  0  0  0  0  0  0
   11.5227  -10.4160    0.0000 O   0  0  0  0  0  0  0  0  0  0  0  0
   10.1050   -8.7562    0.0000 O   0  0  0  0  0  0  0  0  0  0  0  0
   10.8167   -9.1736    0.0000 C   0  0  2  0  0  0  0  0  0  0  0  0
   10.8110   -9.9986    0.0000 C   0  0  1  0  0  0  0  0  0  0  0  0
   10.0938  -10.4062    0.0000 C   0  0  2  0  0  0  0  0  0  0  0  0
    9.3821   -9.9888    0.0000 C   0  0  1  0  0  0  0  0  0  0  0  0
    9.3878   -9.1639    0.0000 C   0  0  1  0  0  0  0  0  0  0  0  0
    8.6761   -8.7465    0.0000 C   0  0  0  0  0  0  0  0  0  0  0  0
    7.9589   -9.1541    0.0000 O   0  0  0  0  0  0  0  0  0  0  0  0
    8.6649  -10.3964    0.0000 O   0  0  0  0  0  0  0  0  0  0  0  0
   10.0881  -11.2312    0.0000 O   0  0  0  0  0  0  0  0  0  0  0  0
   10.0769  -12.8812    0.0000 C   0  0  0  0  0  0  0  0  0  0  0  0
   10.0769  -13.7062    0.0000 O   0  0  0  0  0  0  0  0  0  0  0  0
   10.8167   -8.3486    0.0000 H   0  0  0  0  0  0  0  0  0  0  0  0
    7.2472   -8.7367    0.0000 C   0  0  0  0  0  0  0  0  0  0  0  0
    6.5300   -9.1443    0.0000 C   0  0  0  0  0  0  0  0  0  0  0  0
    7.2529   -7.9117    0.0000 O   0  0  0  0  0  0  0  0  0  0  0  0
    5.8183   -8.7270    0.0000 C   0  0  0  0  0  0  0  0  0  0  0  0
    5.1011   -9.1346    0.0000 C   0  0  0  0  0  0  0  0  0  0  0  0
    4.3923   -8.7123    0.0000 C   0  0  0  0  0  0  0  0  0  0  0  0
    3.6722   -9.1346    0.0000 C   0  0  0  0  0  0  0  0  0  0  0  0
    3.6722   -9.9595    0.0000 C   0  0  0  0  0  0  0  0  0  0  0  0
    4.3923  -10.3817    0.0000 C   0  0  0  0  0  0  0  0  0  0  0  0
    5.1011   -9.9595    0.0000 C   0  0  0  0  0  0  0  0  0  0  0  0
    2.9564  -10.3696    0.0000 O   0  0  0  0  0  0  0  0  0  0  0  0
    2.9564   -8.7245    0.0000 O   0  0  0  0  0  0  0  0  0  0  0  0
    2.2433   -9.1394    0.0000 C   0  0  0  0  0  0  0  0  0  0  0  0
 43 42  1  0  0  0  0
 33  6  1  0  0  0  0
  1  2  2  0  0  0  0
  2  3  1  0  0  0  0
  3  4  1  0  0  0  0
  4  5  1  0  0  0  0
  5  6  2  0  0  0  0
  6  7  1  0  0  0  0
  7  8  2  0  0  0  0
  8  9  1  0  0  0  0
  4  9  2  0  0  0  0
  9 10  1  0  0  0  0
  1 10  1  0  0  0  0
  3 11  2  0  0  0  0
 12 13  1  0  0  0  0
  7 12  1  0  0  0  0
 14 15  1  0  0  0  0
 15 16  2  0  0  0  0
 16 17  1  0  0  0  0
 17 18  2  0  0  0  0
 18 19  1  0  0  0  0
 14 19  2  0  0  0  0
 17 20  1  0  0  0  0
  1 14  1  0  0  0  0
  5 21  1  0  0  0  0
 22 23  1  0  0  0  0
 23 24  1  0  0  0  0
 24 25  1  0  0  0  0
 25 26  1  0  0  0  0
 26 27  1  0  0  0  0
 22 27  1  0  0  0  0
 26 28  1  6  0  0  0
 25 29  1  1  0  0  0
 24 30  1  6  0  0  0
 32 33  1  0  0  0  0
 33 34  1  0  0  0  0
 34 35  1  0  0  0  0
 35 36  1  0  0  0  0
 36 37  1  0  0  0  0
 32 37  1  0  0  0  0
 38 39  1  0  0  0  0
 37 38  1  1  0  0  0
 36 40  1  6  0  0  0
 35 41  1  1  0  0  0
 34 31  1  6  0  0  0
 27 31  1  1  0  0  0
 23 42  1  1  0  0  0
 33 44  1  6  0  0  0
 39 45  1  0  0  0  0
 45 46  1  0  0  0  0
 45 47  2  0  0  0  0
 46 48  2  0  0  0  0
 48 49  1  0  0  0  0
 49 50  2  0  0  0  0
 50 51  1  0  0  0  0
 51 52  2  0  0  0  0
 52 53  1  0  0  0  0
 53 54  2  0  0  0  0
 54 49  1  0  0  0  0
 52 55  1  0  0  0  0
 51 56  1  0  0  0  0
 56 57  1  0  0  0  0
M  END
>  <cdx:fragmentId>
133584

$$$$
