5973.cdx
  Mrv1902 05222410192D          

  6  5  0  0  0  0            999 V2000
    8.6031   -3.1441    0.0000 C   0  0  0  0  0  0  0  0  0  0  0  0
    7.8886   -3.5566    0.0000 C   0  0  0  0  0  0  0  0  0  0  0  0
    7.1741   -3.1441    0.0000 C   0  0  0  0  0  0  0  0  0  0  0  0
    6.4597   -3.5566    0.0000 S   0  0  0  0  0  0  0  0  0  0  0  0
    5.7452   -3.1441    0.0000 C   0  0  0  0  0  0  0  0  0  0  0  0
    5.0307   -2.7316    0.0000 N   0  0  0  0  0  0  0  0  0  0  0  0
  1  2  2  0  0  0  0
  2  3  1  0  0  0  0
  4  5  1  0  0  0  0
  5  6  3  0  0  0  0
  3  4  1  0  0  0  0
M  END
>  <cdx:groupId>
19

>  <cdx:fragmentId>
11

$$$$
