597495.cdx
  Mrv1902 05222410202D          

 21 23  0  0  0  0            999 V2000
    8.9033   -7.9138    0.0000 C   0  0  0  0  0  0  0  0  0  0  0  0
    8.9022   -7.0888    0.0000 C   0  0  0  0  0  0  0  0  0  0  0  0
    9.6160   -6.6752    0.0000 C   0  0  0  0  0  0  0  0  0  0  0  0
    8.1895   -8.3273    0.0000 O   0  0  0  0  0  0  0  0  0  0  0  0
    9.6184   -8.3252    0.0000 O   0  0  0  0  0  0  0  0  0  0  0  0
    6.7570   -5.8543    0.0000 C   0  0  1  0  0  0  0  0  0  0  0  0
    5.9720   -5.6005    0.0000 C   0  0  1  0  0  0  0  0  0  0  0  0
    5.1514   -5.5155    0.0000 C   0  0  0  0  0  0  0  0  0  0  0  0
    5.4880   -6.2687    0.0000 C   0  0  1  0  0  0  0  0  0  0  0  0
    5.9739   -6.9354    0.0000 C   0  0  0  0  0  0  0  0  0  0  0  0
    6.7582   -6.6793    0.0000 C   0  0  0  0  0  0  0  0  0  0  0  0
    7.4732   -7.0908    0.0000 C   0  0  0  0  0  0  0  0  0  0  0  0
    8.1871   -6.6773    0.0000 C   0  0  0  0  0  0  0  0  0  0  0  0
    8.1859   -5.8523    0.0000 C   0  0  0  0  0  0  0  0  0  0  0  0
    7.4708   -5.4408    0.0000 O   0  0  0  0  0  0  0  0  0  0  0  0
    8.8998   -5.4388    0.0000 O   0  0  0  0  0  0  0  0  0  0  0  0
    6.1466   -7.7421    0.0000 C   0  0  0  0  0  0  0  0  0  0  0  0
    5.3616   -7.4883    0.0000 C   0  0  0  0  0  0  0  0  0  0  0  0
    6.7558   -5.0293    0.0000 C   0  0  0  0  0  0  0  0  0  0  0  0
    6.1423   -4.7933    0.0000 H   0  0  0  0  0  0  0  0  0  0  0  0
    4.7741   -6.6822    0.0000 H   0  0  0  0  0  0  0  0  0  0  0  0
  1  2  1  0  0  0  0
  2  3  1  0  0  0  0
  1  4  2  0  0  0  0
  1  5  1  0  0  0  0
  6  7  1  0  0  0  0
  7  8  1  0  0  0  0
  8  9  1  0  0  0  0
  9 10  1  0  0  0  0
 10 11  1  0  0  0  0
 11 12  2  0  0  0  0
 12 13  1  0  0  0  0
 13 14  1  0  0  0  0
 14 15  1  0  0  0  0
  6 15  1  0  0  0  0
  6 11  1  0  0  0  0
  7  9  1  0  0  0  0
 14 16  2  0  0  0  0
 10 17  1  0  0  0  0
 10 18  1  0  0  0  0
  6 19  1  1  0  0  0
  2 13  2  0  0  0  0
  7 20  1  1  0  0  0
  9 21  1  1  0  0  0
M  END
>  <cdx:fragmentId>
41981

$$$$
