5975.cdx
  Mrv1902 05222410202D          

  2  1  0  0  0  0            999 V2000
    4.5810   -2.9117    0.0000 C   0  5  0  0  0  0  0  0  0  0  0  0
    3.7560   -2.9117    0.0000 N   0  0  0  0  0  0  0  0  0  0  0  0
  1  2  3  0  0  0  0
M  CHG  1   1  -1
M  END
>  <cdx:groupId>
7

>  <cdx:fragmentId>
5

$$$$
