56597779.cdx
  Mrv1902 05222410212D          

 13 13  0  0  0  0            999 V2000
    8.6594  -15.6316    0.0000 C   0  0  0  0  0  0  0  0  0  0  0  0
    9.3739  -16.0441    0.0000 O   0  0  0  0  0  0  0  0  0  0  0  0
    7.9449  -16.0441    0.0000 O   0  0  0  0  0  0  0  0  0  0  0  0
    7.2304  -15.6316    0.0000 C   0  0  0  0  0  0  0  0  0  0  0  0
    7.2304  -14.8066    0.0000 C   0  0  0  0  0  0  0  0  0  0  0  0
    6.5160  -14.3941    0.0000 C   0  0  0  0  0  0  0  0  0  0  0  0
    5.8015  -14.8066    0.0000 C   0  0  0  0  0  0  0  0  0  0  0  0
    5.8015  -15.6316    0.0000 C   0  0  0  0  0  0  0  0  0  0  0  0
    6.5160  -16.0441    0.0000 C   0  0  0  0  0  0  0  0  0  0  0  0
    7.9449  -13.5691    0.0000 C   0  0  0  0  0  0  0  0  0  0  0  0
    7.9449  -14.3941    0.0000 C   0  0  0  0  0  0  0  0  0  0  0  0
    8.6594  -14.8066    0.0000 C   0  0  0  0  0  0  0  0  0  0  0  0
    5.0870  -16.0441    0.0000 C   0  0  0  0  0  0  0  0  0  0  0  0
  1  2  2  0  0  0  0
  1  3  1  0  0  0  0
  4  5  1  0  0  0  0
  5  6  2  0  0  0  0
  6  7  1  0  0  0  0
  7  8  2  0  0  0  0
  8  9  1  0  0  0  0
  4  9  2  0  0  0  0
 10 11  1  0  0  0  0
 11 12  1  0  0  0  0
  5 11  1  0  0  0  0
  8 13  1  0  0  0  0
  3  4  1  0  0  0  0
M  END
>  <cdx:groupId>
189045

>  <cdx:fragmentId>
189015

$$$$
