59806.cdx
  Mrv1902 05222410202D          

 17 18  0  0  0  0            999 V2000
    9.4969   -8.0679    0.0000 C   0  0  0  0  0  0  0  0  0  0  0  0
    9.4969   -7.2429    0.0000 C   0  0  0  0  0  0  0  0  0  0  0  0
    8.7824   -6.8304    0.0000 C   0  0  0  0  0  0  0  0  0  0  0  0
    8.0680   -7.2429    0.0000 C   0  0  0  0  0  0  0  0  0  0  0  0
    8.0680   -8.0679    0.0000 C   0  0  0  0  0  0  0  0  0  0  0  0
    8.7824   -8.4804    0.0000 C   0  0  0  0  0  0  0  0  0  0  0  0
   10.2114   -8.4804    0.0000 O   0  0  0  0  0  0  0  0  0  0  0  0
   10.2114   -6.8304    0.0000 O   0  0  0  0  0  0  0  0  0  0  0  0
    7.3535   -6.8304    0.0000 C   0  0  0  0  0  0  0  0  0  0  0  0
    6.6390   -7.2429    0.0000 C   0  0  0  0  0  0  0  0  0  0  0  0
    5.9246   -6.8304    0.0000 C   0  0  0  0  0  0  0  0  0  0  0  0
    5.2101   -7.2429    0.0000 C   0  0  0  0  0  0  0  0  0  0  0  0
    5.2101   -8.0679    0.0000 C   0  0  0  0  0  0  0  0  0  0  0  0
    5.9246   -8.4804    0.0000 C   0  0  0  0  0  0  0  0  0  0  0  0
    6.6390   -8.0679    0.0000 C   0  0  0  0  0  0  0  0  0  0  0  0
    4.4956   -8.4804    0.0000 O   0  0  0  0  0  0  0  0  0  0  0  0
    4.4956   -6.8304    0.0000 O   0  0  0  0  0  0  0  0  0  0  0  0
  1  2  1  0  0  0  0
  2  3  2  0  0  0  0
  3  4  1  0  0  0  0
  4  5  2  0  0  0  0
  5  6  1  0  0  0  0
  1  6  2  0  0  0  0
  1  7  1  0  0  0  0
  2  8  1  0  0  0  0
 10 11  1  0  0  0  0
 11 12  2  0  0  0  0
 12 13  1  0  0  0  0
 13 14  2  0  0  0  0
 14 15  1  0  0  0  0
 10 15  2  0  0  0  0
 13 16  1  0  0  0  0
 12 17  1  0  0  0  0
  9 10  1  0  0  0  0
  4  9  1  0  0  0  0
M  END
>  <cdx:fragmentId>
38516

$$$$
