598266.cdx
  Mrv1902 05222410212D          

 38 43  0  0  0  0            999 V2000
    3.1042   -9.4351    0.0000 C   0  0  0  0  0  0  0  0  0  0  0  0
    2.3872   -9.8432    0.0000 C   0  0  0  0  0  0  0  0  0  0  0  0
    3.1092   -8.6101    0.0000 O   0  0  0  0  0  0  0  0  0  0  0  0
    8.8348   -7.8197    0.0000 H   0  0  0  0  0  0  0  0  0  0  0  0
    5.9570  -10.2773    0.0000 H   0  0  0  0  0  0  0  0  0  0  0  0
    6.6839   -9.0442    0.0000 H   0  0  0  0  0  0  0  0  0  0  0  0
    8.1178   -6.5779    0.0000 C   0  0  0  0  0  0  0  0  0  0  0  0
    5.9670   -7.8024    0.0000 C   0  0  0  0  0  0  0  0  0  0  0  0
    5.6532  -10.5775    0.0000 C   0  0  0  0  0  0  0  0  0  0  0  0
    4.8282  -10.5725    0.0000 C   0  0  0  0  0  0  0  0  0  0  0  0
    7.3959   -7.8110    0.0000 C   0  0  0  0  0  0  0  0  0  0  0  0
   10.2587   -7.8283    0.0000 C   0  0  0  0  0  0  0  0  0  0  0  0
    9.1486   -5.0446    0.0000 C   0  0  0  0  0  0  0  0  0  0  0  0
    9.9736   -5.0496    0.0000 C   0  0  0  0  0  0  0  0  0  0  0  0
    8.8348   -6.9947    0.0000 C   0  0  2  0  0  0  0  0  0  0  0  0
    8.8398   -6.1697    0.0000 C   0  0  0  0  0  0  0  0  0  0  0  0
    9.5567   -5.7615    0.0000 C   0  0  0  0  0  0  0  0  0  0  0  0
   10.2687   -6.1783    0.0000 C   0  0  0  0  0  0  0  0  0  0  0  0
   10.2637   -7.0033    0.0000 C   0  0  0  0  0  0  0  0  0  0  0  0
    9.5468   -7.4115    0.0000 C   0  0  1  0  0  0  0  0  0  0  0  0
    9.5418   -8.2365    0.0000 C   0  0  0  0  0  0  0  0  0  0  0  0
    8.8248   -8.6447    0.0000 C   0  0  0  0  0  0  0  0  0  0  0  0
    8.1129   -8.2278    0.0000 C   0  0  0  0  0  0  0  0  0  0  0  0
    7.3959   -8.6360    0.0000 C   0  0  1  0  0  0  0  0  0  0  0  0
    7.3909   -9.4610    0.0000 C   0  0  0  0  0  0  0  0  0  0  0  0
    6.6740   -9.8692    0.0000 C   0  0  0  0  0  0  0  0  0  0  0  0
    5.9620   -9.4524    0.0000 C   0  0  1  0  0  0  0  0  0  0  0  0
    5.2450   -9.8605    0.0000 C   0  0  0  0  0  0  0  0  0  0  0  0
    4.5331   -9.4437    0.0000 C   0  0  2  0  0  0  0  0  0  0  0  0
    4.5381   -8.6187    0.0000 C   0  0  0  0  0  0  0  0  0  0  0  0
    5.2550   -8.2106    0.0000 C   0  0  0  0  0  0  0  0  0  0  0  0
    5.9670   -8.6274    0.0000 C   0  0  1  0  0  0  0  0  0  0  0  0
    6.6839   -8.2192    0.0000 C   0  0  1  0  0  0  0  0  0  0  0  0
    6.6889   -7.3942    0.0000 C   0  0  2  0  0  0  0  0  0  0  0  0
    6.6939   -6.5692    0.0000 O   0  0  0  0  0  0  0  0  0  0  0  0
    7.4059   -6.9860    0.0000 C   0  0  2  0  0  0  0  0  0  0  0  0
    8.1178   -7.4029    0.0000 C   0  0  2  0  0  0  0  0  0  0  0  0
    3.8161   -9.8519    0.0000 O   0  0  0  0  0  0  0  0  0  0  0  0
 15  4  1  1  0  0  0
 27  5  1  6  0  0  0
 33  6  1  6  0  0  0
 29 38  1  1  0  0  0
 37  7  1  6  0  0  0
 32  8  1  1  0  0  0
 28  9  1  0  0  0  0
 28 10  1  0  0  0  0
 24 11  1  1  0  0  0
 20 12  1  1  0  0  0
 17 13  1  0  0  0  0
 17 14  1  0  0  0  0
 20 15  1  0  0  0  0
 36 34  1  0  0  0  0
 32 27  1  0  0  0  0
 33 24  1  0  0  0  0
 37 23  1  0  0  0  0
 37 15  1  0  0  0  0
 16 15  1  0  0  0  0
 17 16  1  0  0  0  0
 18 17  1  0  0  0  0
 19 18  1  0  0  0  0
 20 19  1  0  0  0  0
 21 20  1  0  0  0  0
 22 21  1  0  0  0  0
 23 22  2  0  0  0  0
 24 23  1  0  0  0  0
 25 24  1  0  0  0  0
 26 25  1  0  0  0  0
 27 26  1  0  0  0  0
 28 27  1  0  0  0  0
 29 28  1  0  0  0  0
 30 29  1  0  0  0  0
 31 30  1  0  0  0  0
 32 31  1  0  0  0  0
 33 32  1  0  0  0  0
 34 33  1  0  0  0  0
 34 35  1  6  0  0  0
 36 35  1  6  0  0  0
 37 36  1  0  0  0  0
  1  2  1  0  0  0  0
  1  3  2  0  0  0  0
  1 38  1  0  0  0  0
M  END
>  <cdx:fragmentId>
13

$$$$
