598300.cdx
  Mrv1902 05222410222D          

 68 75  0  0  0  0            999 V2000
    4.7772   -7.3372    0.0000 O   0  0  0  0  0  0  0  0  0  0  0  0
    4.0628   -7.7497    0.0000 C   0  0  2  0  0  0  0  0  0  0  0  0
    3.3483   -7.3372    0.0000 C   0  0  1  0  0  0  0  0  0  0  0  0
    3.3483   -6.5122    0.0000 C   0  0  1  0  0  0  0  0  0  0  0  0
    4.0628   -6.0997    0.0000 C   0  0  2  0  0  0  0  0  0  0  0  0
    4.7772   -6.5122    0.0000 C   0  0  2  0  0  0  0  0  0  0  0  0
    2.6338   -7.7497    0.0000 O   0  0  0  0  0  0  0  0  0  0  0  0
    2.6338   -6.0997    0.0000 O   0  0  0  0  0  0  0  0  0  0  0  0
    4.0628   -5.2747    0.0000 O   0  0  0  0  0  0  0  0  0  0  0  0
    5.4917   -6.0997    0.0000 C   0  0  0  0  0  0  0  0  0  0  0  0
    4.0628   -8.5747    0.0000 O   0  0  0  0  0  0  0  0  0  0  0  0
    5.4917  -10.2247    0.0000 O   0  0  0  0  0  0  0  0  0  0  0  0
    4.7772   -9.8122    0.0000 C   0  0  1  0  0  0  0  0  0  0  0  0
    4.7772   -8.9872    0.0000 C   0  0  2  0  0  0  0  0  0  0  0  0
    5.4917   -8.5747    0.0000 C   0  0  1  0  0  0  0  0  0  0  0  0
    6.2062   -8.9872    0.0000 C   0  0  2  0  0  0  0  0  0  0  0  0
    6.2062   -9.8122    0.0000 C   0  0  2  0  0  0  0  0  0  0  0  0
    4.0628  -10.2247    0.0000 C   0  0  0  0  0  0  0  0  0  0  0  0
    3.3483   -9.8122    0.0000 O   0  0  0  0  0  0  0  0  0  0  0  0
    1.9194   -9.8122    0.0000 O   0  0  0  0  0  0  0  0  0  0  0  0
    2.6338  -10.2247    0.0000 C   0  0  2  0  0  0  0  0  0  0  0  0
    2.6338  -11.0497    0.0000 C   0  0  1  0  0  0  0  0  0  0  0  0
    1.9194  -11.4622    0.0000 C   0  0  2  0  0  0  0  0  0  0  0  0
    1.2049  -11.0497    0.0000 C   0  0  1  0  0  0  0  0  0  0  0  0
    1.2049  -10.2247    0.0000 C   0  0  1  0  0  0  0  0  0  0  0  0
    0.4904   -9.8122    0.0000 C   0  0  0  0  0  0  0  0  0  0  0  0
    0.4904  -11.4622    0.0000 O   0  0  0  0  0  0  0  0  0  0  0  0
    1.9194  -12.2872    0.0000 O   0  0  0  0  0  0  0  0  0  0  0  0
    3.3483  -11.4622    0.0000 O   0  0  0  0  0  0  0  0  0  0  0  0
    6.9206   -8.5747    0.0000 O   0  0  0  0  0  0  0  0  0  0  0  0
    5.4917   -7.7497    0.0000 O   0  0  0  0  0  0  0  0  0  0  0  0
    6.9206  -10.2247    0.0000 O   0  0  0  0  0  0  0  0  0  0  0  0
    8.3496   -8.5747    0.0000 C   0  0  0  0  0  0  0  0  0  0  0  0
    7.6351   -8.9872    0.0000 C   0  0  0  0  0  0  0  0  0  0  0  0
    7.6351   -9.8122    0.0000 C   0  0  1  0  0  0  0  0  0  0  0  0
    8.3496  -10.2247    0.0000 C   0  0  2  0  0  0  0  0  0  0  0  0
    9.0641   -9.8122    0.0000 C   0  0  2  0  0  0  0  0  0  0  0  0
    9.7785  -10.2247    0.0000 C   0  0  0  0  0  0  0  0  0  0  0  0
   10.4930   -9.8122    0.0000 C   0  0  0  0  0  0  0  0  0  0  0  0
   10.4930   -8.9872    0.0000 C   0  0  1  0  0  0  0  0  0  0  0  0
   11.2075   -8.5747    0.0000 C   0  0  2  0  0  0  0  0  0  0  0  0
   11.9219   -8.9872    0.0000 C   0  0  0  0  0  0  0  0  0  0  0  0
   12.6364   -8.5747    0.0000 C   0  0  1  0  0  0  0  0  0  0  0  0
   12.6364   -7.7497    0.0000 C   0  0  1  0  0  0  0  0  0  0  0  0
   13.3509   -7.3372    0.0000 C   0  0  0  0  0  0  0  0  0  0  0  0
   13.3509   -6.5122    0.0000 C   0  0  0  0  0  0  0  0  0  0  0  0
   12.6364   -6.0997    0.0000 C   0  0  1  0  0  0  0  0  0  0  0  0
   11.9219   -6.5122    0.0000 C   0  0  0  0  0  0  0  0  0  0  0  0
   11.9219   -7.3372    0.0000 C   0  0  1  0  0  0  0  0  0  0  0  0
   11.2075   -7.7497    0.0000 C   0  0  0  0  0  0  0  0  0  0  0  0
   10.4930   -7.3372    0.0000 C   0  0  0  0  0  0  0  0  0  0  0  0
    9.7785   -7.7497    0.0000 C   0  0  0  0  0  0  0  0  0  0  0  0
    9.7785   -8.5747    0.0000 C   0  0  2  0  0  0  0  0  0  0  0  0
    9.0641   -8.9872    0.0000 C   0  0  1  0  0  0  0  0  0  0  0  0
    9.0641   -8.1622    0.0000 C   0  0  0  0  0  0  0  0  0  0  0  0
   12.2239   -5.3853    0.0000 C   0  0  0  0  0  0  0  0  0  0  0  0
   13.0489   -5.3853    0.0000 C   0  0  0  0  0  0  0  0  0  0  0  0
   11.2075   -9.3997    0.0000 C   0  0  0  0  0  0  0  0  0  0  0  0
   10.4930   -8.1622    0.0000 C   0  0  0  0  0  0  0  0  0  0  0  0
    8.7621  -10.9392    0.0000 C   0  0  0  0  0  0  0  0  0  0  0  0
    7.9371  -10.9392    0.0000 C   0  0  0  0  0  0  0  0  0  0  0  0
   13.3509   -8.1622    0.0000 C   0  0  0  0  0  0  0  0  0  0  0  0
   14.0654   -7.7497    0.0000 O   0  0  0  0  0  0  0  0  0  0  0  0
   13.3509   -8.9872    0.0000 O   0  0  0  0  0  0  0  0  0  0  0  0
   11.9219   -8.1622    0.0000 H   0  0  0  0  0  0  0  0  0  0  0  0
    0.4904   -8.9872    0.0000 O   0  0  0  0  0  0  0  0  0  0  0  0
    9.0641  -10.6372    0.0000 H   0  0  0  0  0  0  0  0  0  0  0  0
    9.7785   -9.3997    0.0000 H   0  0  0  0  0  0  0  0  0  0  0  0
  1  2  1  0  0  0  0
  2  3  1  0  0  0  0
  3  4  1  0  0  0  0
  4  5  1  0  0  0  0
  5  6  1  0  0  0  0
  1  6  1  0  0  0  0
  3  7  1  6  0  0  0
  4  8  1  6  0  0  0
  5  9  1  1  0  0  0
  6 10  1  6  0  0  0
 12 13  1  0  0  0  0
 13 14  1  0  0  0  0
 14 15  1  0  0  0  0
 15 16  1  0  0  0  0
 16 17  1  0  0  0  0
 12 17  1  0  0  0  0
 20 21  1  0  0  0  0
 21 22  1  0  0  0  0
 22 23  1  0  0  0  0
 23 24  1  0  0  0  0
 24 25  1  0  0  0  0
 20 25  1  0  0  0  0
 25 26  1  1  0  0  0
 24 27  1  6  0  0  0
 23 28  1  1  0  0  0
 22 29  1  6  0  0  0
 21 19  1  1  0  0  0
 18 19  1  0  0  0  0
 13 18  1  6  0  0  0
 16 30  1  1  0  0  0
 15 31  1  6  0  0  0
 33 34  1  0  0  0  0
 34 35  1  0  0  0  0
 35 36  1  0  0  0  0
 36 37  1  0  0  0  0
 37 38  1  0  0  0  0
 38 39  1  0  0  0  0
 39 40  1  0  0  0  0
 40 41  1  0  0  0  0
 41 42  1  0  0  0  0
 42 43  1  0  0  0  0
 43 44  1  0  0  0  0
 44 45  1  0  0  0  0
 45 46  1  0  0  0  0
 46 47  1  0  0  0  0
 47 48  1  0  0  0  0
 48 49  1  0  0  0  0
 44 49  1  0  0  0  0
 49 50  1  0  0  0  0
 41 50  1  0  0  0  0
 50 51  2  0  0  0  0
 51 52  1  0  0  0  0
 52 53  1  0  0  0  0
 40 53  1  0  0  0  0
 53 54  1  0  0  0  0
 37 54  1  0  0  0  0
 33 54  1  0  0  0  0
 54 55  1  1  0  0  0
 47 56  1  1  0  0  0
 47 57  1  6  0  0  0
 41 58  1  6  0  0  0
 40 59  1  1  0  0  0
 36 60  1  6  0  0  0
 36 61  1  1  0  0  0
 62 63  1  0  0  0  0
 44 62  1  1  0  0  0
 43 64  1  1  0  0  0
 35 32  1  1  0  0  0
 17 32  1  6  0  0  0
 14 11  1  1  0  0  0
  2 11  1  1  0  0  0
 49 65  1  1  0  0  0
 26 66  1  0  0  0  0
 37 67  1  6  0  0  0
 53 68  1  6  0  0  0
M  END
>  <cdx:fragmentId>
71

$$$$
