5988.cdx
  Mrv1902 05222410192D          

 23 24  0  0  0  0            999 V2000
    6.9589   -6.5845    0.0000 O   0  0  0  0  0  0  0  0  0  0  0  0
    7.6734   -6.9970    0.0000 C   0  0  1  0  0  0  0  0  0  0  0  0
    7.6734   -7.8220    0.0000 C   0  0  1  0  0  0  0  0  0  0  0  0
    6.9589   -8.2345    0.0000 C   0  0  2  0  0  0  0  0  0  0  0  0
    6.2444   -7.8220    0.0000 C   0  0  1  0  0  0  0  0  0  0  0  0
    6.2444   -6.9970    0.0000 C   0  0  1  0  0  0  0  0  0  0  0  0
    8.3878   -8.2345    0.0000 O   0  0  0  0  0  0  0  0  0  0  0  0
    6.9589   -9.0595    0.0000 O   0  0  0  0  0  0  0  0  0  0  0  0
    5.5300   -8.2345    0.0000 O   0  0  0  0  0  0  0  0  0  0  0  0
    5.5300   -6.5845    0.0000 C   0  0  0  0  0  0  0  0  0  0  0  0
    4.8155   -6.9970    0.0000 O   0  0  0  0  0  0  0  0  0  0  0  0
    8.3878   -6.5845    0.0000 O   0  0  0  0  0  0  0  0  0  0  0  0
    7.5997   -4.7850    0.0000 C   0  0  1  0  0  0  0  0  0  0  0  0
    7.5997   -5.6100    0.0000 O   0  0  0  0  0  0  0  0  0  0  0  0
    8.3844   -5.8649    0.0000 C   0  0  2  0  0  0  0  0  0  0  0  0
    8.8693   -5.1975    0.0000 C   0  0  2  0  0  0  0  0  0  0  0  0
    8.3844   -4.5301    0.0000 C   0  0  2  0  0  0  0  0  0  0  0  0
    9.6943   -4.9775    0.0000 O   0  0  0  0  0  0  0  0  0  0  0  0
    6.9323   -4.3001    0.0000 C   0  0  0  0  0  0  0  0  0  0  0  0
    8.6393   -3.7454    0.0000 O   0  0  0  0  0  0  0  0  0  0  0  0
    9.1696   -6.1180    0.0000 C   0  0  0  0  0  0  0  0  0  0  0  0
    9.7814   -5.5645    0.0000 O   0  0  0  0  0  0  0  0  0  0  0  0
    6.9360   -3.5346    0.0000 O   0  0  0  0  0  0  0  0  0  0  0  0
  1  2  1  0  0  0  0
  2  3  1  0  0  0  0
  3  4  1  0  0  0  0
  4  5  1  0  0  0  0
  5  6  1  0  0  0  0
  1  6  1  0  0  0  0
  3  7  1  6  0  0  0
  4  8  1  1  0  0  0
  5  9  1  6  0  0  0
 10 11  1  0  0  0  0
  6 10  1  1  0  0  0
  2 12  1  6  0  0  0
 13 14  1  0  0  0  0
 14 15  1  0  0  0  0
 15 16  1  0  0  0  0
 16 17  1  0  0  0  0
 17 13  1  0  0  0  0
 15 12  1  6  0  0  0
 16 18  1  6  0  0  0
 13 19  1  6  0  0  0
 17 20  1  1  0  0  0
 15 21  1  0  0  0  0
 21 22  1  0  0  0  0
 19 23  1  0  0  0  0
M  END
>  <cdx:fragmentId>
82

$$$$
