5990.cdx
  Mrv1902 05222410262D          

 12 13  0  0  0  0            999 V2000
    5.9227   -7.6931    0.0000 C   0  0  0  0  0  0  0  0  0  0  0  0
    5.9227   -8.5181    0.0000 C   0  0  0  0  0  0  0  0  0  0  0  0
    6.6371   -8.9306    0.0000 C   0  0  0  0  0  0  0  0  0  0  0  0
    7.3516   -8.5181    0.0000 C   0  0  0  0  0  0  0  0  0  0  0  0
    7.3516   -7.6931    0.0000 C   0  0  0  0  0  0  0  0  0  0  0  0
    6.6371   -7.2806    0.0000 C   0  0  0  0  0  0  0  0  0  0  0  0
    5.1380   -7.4382    0.0000 O   0  0  0  0  0  0  0  0  0  0  0  0
    4.6531   -8.1056    0.0000 C   0  0  0  0  0  0  0  0  0  0  0  0
    5.1380   -8.7731    0.0000 O   0  0  0  0  0  0  0  0  0  0  0  0
    8.0661   -8.9306    0.0000 C   0  0  0  0  0  0  0  0  0  0  0  0
    8.7805   -8.5181    0.0000 C   0  0  0  0  0  0  0  0  0  0  0  0
    8.7805   -7.6931    0.0000 C   0  0  0  0  0  0  0  0  0  0  0  0
  1  2  2  0  0  0  0
  2  3  1  0  0  0  0
  3  4  2  0  0  0  0
  4  5  1  0  0  0  0
  5  6  2  0  0  0  0
  6  1  1  0  0  0  0
  1  7  1  0  0  0  0
  7  8  1  0  0  0  0
  8  9  1  0  0  0  0
  9  2  1  0  0  0  0
  4 10  1  0  0  0  0
 10 11  2  0  0  0  0
 11 12  1  0  0  0  0
M  END
>  <cdx:fragmentId>
5

$$$$
