102059900.cdx
  Mrv1902 05222410202D          

 19 21  0  0  0  0            999 V2000
    6.9997  -14.2805    0.0000 C   0  0  1  0  0  0  0  0  0  0  0  0
    6.3547  -14.7949    0.0000 C   0  0  2  0  0  0  0  0  0  0  0  0
    5.5297  -14.7949    0.0000 C   0  0  0  0  0  0  0  0  0  0  0  0
    5.5297  -15.6199    0.0000 C   0  0  0  0  0  0  0  0  0  0  0  0
    6.3547  -15.6199    0.0000 C   0  0  2  0  0  0  0  0  0  0  0  0
    6.9997  -16.1343    0.0000 C   0  0  0  0  0  0  0  0  0  0  0  0
    7.8041  -15.9507    0.0000 C   0  0  0  0  0  0  0  0  0  0  0  0
    8.1620  -15.2074    0.0000 C   0  0  2  0  0  0  0  0  0  0  0  0
    8.6325  -14.5551    0.0000 C   0  0  1  0  0  0  0  0  0  0  0  0
    8.3259  -13.8115    0.0000 C   0  0  0  0  0  0  0  0  0  0  0  0
    7.5327  -13.6781    0.0000 C   0  0  0  0  0  0  0  0  0  0  0  0
    7.8041  -14.4641    0.0000 C   0  0  0  0  0  0  0  0  0  0  0  0
    6.4315  -13.6825    0.0000 O   0  0  0  0  0  0  0  0  0  0  0  0
    9.4519  -14.6514    0.0000 O   0  0  0  0  0  0  0  0  0  0  0  0
    8.8765  -15.6199    0.0000 C   0  0  0  0  0  0  0  0  0  0  0  0
    5.3162  -16.4168    0.0000 C   0  0  0  0  0  0  0  0  0  0  0  0
    4.7328  -15.8334    0.0000 C   0  0  0  0  0  0  0  0  0  0  0  0
    6.0823  -14.0162    0.0000 H   0  0  0  0  0  0  0  0  0  0  0  0
    6.0823  -16.3986    0.0000 H   0  0  0  0  0  0  0  0  0  0  0  0
  1  2  1  0  0  0  0
  2  3  1  0  0  0  0
  3  4  1  0  0  0  0
  4  5  1  0  0  0  0
  5  6  1  0  0  0  0
  6  7  1  0  0  0  0
  7  8  1  0  0  0  0
  8  9  1  0  0  0  0
  9 10  1  0  0  0  0
 10 11  1  0  0  0  0
  1 11  1  0  0  0  0
  1 12  1  6  0  0  0
  8 12  1  6  0  0  0
  2  5  1  0  0  0  0
  1 13  1  0  0  0  0
  9 14  1  1  0  0  0
  8 15  1  0  0  0  0
  4 16  1  0  0  0  0
  4 17  1  0  0  0  0
  2 18  1  6  0  0  0
  5 19  1  6  0  0  0
M  END
>  <cdx:groupId>
15100

>  <cdx:fragmentId>
15044

$$$$
