5991.cdx
  Mrv1902 05222410272D          

 65 68  0  0  0  0            999 V2000
    5.2539   -8.2895    0.0000 O   0  0  0  0  0  0  0  0  0  0  0  0
    5.9684   -8.7020    0.0000 C   0  0  1  0  0  0  0  0  0  0  0  0
    5.9684   -9.5270    0.0000 C   0  0  1  0  0  0  0  0  0  0  0  0
    5.2539   -9.9395    0.0000 C   0  0  2  0  0  0  0  0  0  0  0  0
    4.5394   -9.5270    0.0000 C   0  0  1  0  0  0  0  0  0  0  0  0
    4.5394   -8.7020    0.0000 C   0  0  1  0  0  0  0  0  0  0  0  0
    6.6828   -9.9395    0.0000 O   0  0  0  0  0  0  0  0  0  0  0  0
    5.2539  -10.7645    0.0000 O   0  0  0  0  0  0  0  0  0  0  0  0
    3.8250   -9.9395    0.0000 O   0  0  0  0  0  0  0  0  0  0  0  0
    3.8250   -8.2895    0.0000 C   0  0  0  0  0  0  0  0  0  0  0  0
    3.1105   -8.7020    0.0000 O   0  0  0  0  0  0  0  0  0  0  0  0
    6.6828   -8.2895    0.0000 O   0  0  0  0  0  0  0  0  0  0  0  0
    5.8947   -6.4900    0.0000 C   0  0  1  0  0  0  0  0  0  0  0  0
    5.8947   -7.3150    0.0000 O   0  0  0  0  0  0  0  0  0  0  0  0
    6.6794   -7.5699    0.0000 C   0  0  2  0  0  0  0  0  0  0  0  0
    7.1643   -6.9025    0.0000 C   0  0  2  0  0  0  0  0  0  0  0  0
    6.6794   -6.2351    0.0000 C   0  0  2  0  0  0  0  0  0  0  0  0
    7.9893   -6.6825    0.0000 O   0  0  0  0  0  0  0  0  0  0  0  0
    5.2273   -6.0051    0.0000 C   0  0  0  0  0  0  0  0  0  0  0  0
    7.4646   -7.8230    0.0000 C   0  0  0  0  0  0  0  0  0  0  0  0
    8.0764   -7.2695    0.0000 O   0  0  0  0  0  0  0  0  0  0  0  0
    5.2310   -5.2396    0.0000 O   0  0  0  0  0  0  0  0  0  0  0  0
    7.3973   -9.5270    0.0000 C   0  0  0  0  0  0  0  0  0  0  0  0
    8.1118   -9.9395    0.0000 C   0  0  0  0  0  0  0  0  0  0  0  0
    7.3973   -8.7020    0.0000 O   0  0  0  0  0  0  0  0  0  0  0  0
    5.9684  -11.1770    0.0000 C   0  0  0  0  0  0  0  0  0  0  0  0
    5.9684  -12.0020    0.0000 O   0  0  0  0  0  0  0  0  0  0  0  0
    6.6828  -10.7645    0.0000 C   0  0  0  0  0  0  0  0  0  0  0  0
    3.8250  -10.7645    0.0000 C   0  0  0  0  0  0  0  0  0  0  0  0
    4.5394  -11.1770    0.0000 O   0  0  0  0  0  0  0  0  0  0  0  0
    3.1105  -11.1770    0.0000 C   0  0  0  0  0  0  0  0  0  0  0  0
    2.3960  -10.7645    0.0000 C   0  0  0  0  0  0  0  0  0  0  0  0
    1.6815  -11.1770    0.0000 C   0  0  0  0  0  0  0  0  0  0  0  0
    1.6815  -12.0020    0.0000 C   0  0  0  0  0  0  0  0  0  0  0  0
    2.3960  -12.4145    0.0000 C   0  0  0  0  0  0  0  0  0  0  0  0
    3.1105  -12.0020    0.0000 C   0  0  0  0  0  0  0  0  0  0  0  0
    2.3960   -8.2895    0.0000 C   0  0  0  0  0  0  0  0  0  0  0  0
    1.6815   -8.7020    0.0000 C   0  0  0  0  0  0  0  0  0  0  0  0
    2.3960   -7.4645    0.0000 O   0  0  0  0  0  0  0  0  0  0  0  0
    8.8616   -7.5225    0.0000 C   0  0  0  0  0  0  0  0  0  0  0  0
    9.4734   -6.9690    0.0000 C   0  0  0  0  0  0  0  0  0  0  0  0
    9.0351   -8.3291    0.0000 O   0  0  0  0  0  0  0  0  0  0  0  0
    5.6003   -4.9384    0.0000 C   0  0  0  0  0  0  0  0  0  0  0  0
    6.7108   -4.0391    0.0000 O   0  0  0  0  0  0  0  0  0  0  0  0
    6.4151   -4.8093    0.0000 C   0  0  0  0  0  0  0  0  0  0  0  0
    6.9343   -5.4504    0.0000 O   0  0  0  0  0  0  0  0  0  0  0  0
    4.5186   -4.8236    0.0000 C   0  0  0  0  0  0  0  0  0  0  0  0
    4.5226   -3.9986    0.0000 O   0  0  0  0  0  0  0  0  0  0  0  0
    3.8021   -5.2326    0.0000 C   0  0  0  0  0  0  0  0  0  0  0  0
    8.2028   -5.8856    0.0000 C   0  0  0  0  0  0  0  0  0  0  0  0
    8.9997   -5.6721    0.0000 C   0  0  0  0  0  0  0  0  0  0  0  0
    7.6194   -5.3022    0.0000 O   0  0  0  0  0  0  0  0  0  0  0  0
    9.2132   -4.8752    0.0000 C   0  0  0  0  0  0  0  0  0  0  0  0
   10.0101   -4.6617    0.0000 C   0  0  0  0  0  0  0  0  0  0  0  0
   10.5935   -5.2450    0.0000 C   0  0  0  0  0  0  0  0  0  0  0  0
   11.3904   -5.0315    0.0000 C   0  0  0  0  0  0  0  0  0  0  0  0
   11.6039   -4.2346    0.0000 C   0  0  0  0  0  0  0  0  0  0  0  0
   11.0205   -3.6513    0.0000 C   0  0  0  0  0  0  0  0  0  0  0  0
   10.2236   -3.8648    0.0000 C   0  0  0  0  0  0  0  0  0  0  0  0
   11.2341   -2.8544    0.0000 O   0  0  0  0  0  0  0  0  0  0  0  0
   12.4008   -4.0211    0.0000 O   0  0  0  0  0  0  0  0  0  0  0  0
   11.9737   -5.6149    0.0000 O   0  0  0  0  0  0  0  0  0  0  0  0
   12.0309   -2.6408    0.0000 C   0  0  0  0  0  0  0  0  0  0  0  0
   12.9841   -4.6045    0.0000 C   0  0  0  0  0  0  0  0  0  0  0  0
   11.7602   -6.4118    0.0000 C   0  0  0  0  0  0  0  0  0  0  0  0
  1  2  1  0  0  0  0
  2  3  1  0  0  0  0
  3  4  1  0  0  0  0
  4  5  1  0  0  0  0
  5  6  1  0  0  0  0
  1  6  1  0  0  0  0
  3  7  1  6  0  0  0
  4  8  1  1  0  0  0
  5  9  1  6  0  0  0
 10 11  1  0  0  0  0
  6 10  1  1  0  0  0
  2 12  1  6  0  0  0
 13 14  1  0  0  0  0
 14 15  1  0  0  0  0
 15 16  1  0  0  0  0
 16 17  1  0  0  0  0
 17 13  1  0  0  0  0
 15 12  1  6  0  0  0
 16 18  1  6  0  0  0
 13 19  1  6  0  0  0
 45 43  1  0  0  0  0
 17 46  1  1  0  0  0
 15 20  1  0  0  0  0
 20 21  1  0  0  0  0
 19 22  1  0  0  0  0
  7 23  1  0  0  0  0
 23 24  1  0  0  0  0
 23 25  2  0  0  0  0
  8 26  1  0  0  0  0
 26 27  2  0  0  0  0
 26 28  1  0  0  0  0
  9 29  1  0  0  0  0
 29 30  2  0  0  0  0
 29 31  1  0  0  0  0
 31 32  2  0  0  0  0
 32 33  1  0  0  0  0
 33 34  2  0  0  0  0
 34 35  1  0  0  0  0
 35 36  2  0  0  0  0
 36 31  1  0  0  0  0
 11 37  1  0  0  0  0
 37 38  1  0  0  0  0
 37 39  2  0  0  0  0
 21 40  1  0  0  0  0
 40 41  1  0  0  0  0
 40 42  2  0  0  0  0
 45 44  2  0  0  0  0
 46 45  1  0  0  0  0
 22 47  1  0  0  0  0
 47 48  2  0  0  0  0
 47 49  1  0  0  0  0
 18 50  1  0  0  0  0
 50 51  1  0  0  0  0
 50 52  2  0  0  0  0
 51 53  2  0  0  0  0
 53 54  1  0  0  0  0
 54 55  2  0  0  0  0
 55 56  1  0  0  0  0
 56 57  2  0  0  0  0
 57 58  1  0  0  0  0
 58 59  2  0  0  0  0
 59 54  1  0  0  0  0
 58 60  1  0  0  0  0
 57 61  1  0  0  0  0
 56 62  1  0  0  0  0
 60 63  1  0  0  0  0
 61 64  1  0  0  0  0
 62 65  1  0  0  0  0
M  END
>  <cdx:fragmentId>
82

$$$$
