599265.cdx
  Mrv1902 05222410262D          

 29 30  0  0  0  0            999 V2000
    5.4703   -5.7997    0.0000 C   0  0  0  0  0  0  0  0  0  0  0  0
    4.7577   -5.3840    0.0000 C   0  0  0  0  0  0  0  0  0  0  0  0
    6.1866   -5.3905    0.0000 O   0  0  0  0  0  0  0  0  0  0  0  0
    5.4665   -6.6247    0.0000 O   0  0  0  0  0  0  0  0  0  0  0  0
    6.1790   -7.0405    0.0000 C   0  0  2  0  0  0  0  0  0  0  0  0
    5.4551   -9.0997    0.0000 C   0  0  0  0  0  0  0  0  0  0  0  0
    4.7387   -9.5089    0.0000 C   0  0  0  0  0  0  0  0  0  0  0  0
    4.7349  -10.3339    0.0000 C   0  0  0  0  0  0  0  0  0  0  0  0
    5.4475  -10.7497    0.0000 C   0  0  0  0  0  0  0  0  0  0  0  0
    6.1638  -10.3405    0.0000 C   0  0  0  0  0  0  0  0  0  0  0  0
    6.1676   -9.5155    0.0000 C   0  0  0  0  0  0  0  0  0  0  0  0
    5.4437  -11.5747    0.0000 C   0  0  0  0  0  0  0  0  0  0  0  0
    6.1563  -11.9905    0.0000 C   0  0  0  0  0  0  0  0  0  0  0  0
    6.8726  -11.5813    0.0000 C   0  0  0  0  0  0  0  0  0  0  0  0
    4.0262   -9.0931    0.0000 O   0  0  0  0  0  0  0  0  0  0  0  0
    3.3098   -9.5024    0.0000 C   0  0  0  0  0  0  0  0  0  0  0  0
    6.8954   -6.6313    0.0000 C   0  0  0  0  0  0  0  0  0  0  0  0
    6.8992   -5.8063    0.0000 C   0  0  0  0  0  0  0  0  0  0  0  0
    7.6155   -5.3971    0.0000 C   0  0  0  0  0  0  0  0  0  0  0  0
    8.3281   -5.8129    0.0000 C   0  0  0  0  0  0  0  0  0  0  0  0
    8.3243   -6.6379    0.0000 C   0  0  0  0  0  0  0  0  0  0  0  0
    7.6080   -7.0471    0.0000 C   0  0  0  0  0  0  0  0  0  0  0  0
    9.0445   -5.4037    0.0000 O   0  0  0  0  0  0  0  0  0  0  0  0
    9.0483   -4.5787    0.0000 C   0  0  0  0  0  0  0  0  0  0  0  0
    5.4589   -8.2747    0.0000 O   0  0  0  0  0  0  0  0  0  0  0  0
    6.8878   -8.2813    0.0000 C   0  0  0  0  0  0  0  0  0  0  0  0
    6.1752   -7.8655    0.0000 C   0  0  2  0  0  0  0  0  0  0  0  0
    9.0369   -7.0537    0.0000 O   0  0  0  0  0  0  0  0  0  0  0  0
    9.7532   -6.6445    0.0000 C   0  0  0  0  0  0  0  0  0  0  0  0
 27 25  1  1  0  0  0
 25  6  1  0  0  0  0
 27 26  1  0  0  0  0
  1  2  1  0  0  0  0
  1  3  2  0  0  0  0
  1  4  1  0  0  0  0
  5 27  1  0  0  0  0
  6  7  1  0  0  0  0
  7  8  2  0  0  0  0
  8  9  1  0  0  0  0
  9 10  2  0  0  0  0
 10 11  1  0  0  0  0
  6 11  2  0  0  0  0
 12 13  2  0  0  0  0
 13 14  1  0  0  0  0
  9 12  1  0  0  0  0
 15 16  1  0  0  0  0
  7 15  1  0  0  0  0
 17 18  1  0  0  0  0
 18 19  2  0  0  0  0
 19 20  1  0  0  0  0
 20 21  2  0  0  0  0
 21 22  1  0  0  0  0
 17 22  2  0  0  0  0
 23 24  1  0  0  0  0
 20 23  1  0  0  0  0
  5 17  1  0  0  0  0
  5  4  1  6  0  0  0
 21 28  1  0  0  0  0
 28 29  1  0  0  0  0
M  END
>  <cdx:fragmentId>
189068

$$$$
