5992.cdx
  Mrv1902 05222410262D          

 26 28  0  0  0  0            999 V2000
    7.4121  -10.1294    0.0000 C   0  0  2  0  0  0  0  0  0  0  0  0
    8.1266   -9.7169    0.0000 C   0  0  0  0  0  0  0  0  0  0  0  0
    8.8411  -10.1294    0.0000 C   0  0  0  0  0  0  0  0  0  0  0  0
    9.5556   -9.7169    0.0000 C   0  0  0  0  0  0  0  0  0  0  0  0
   10.2700  -10.1294    0.0000 C   0  0  0  0  0  0  0  0  0  0  0  0
   10.9845   -9.7169    0.0000 C   0  0  0  0  0  0  0  0  0  0  0  0
   10.9845   -8.8919    0.0000 C   0  0  0  0  0  0  0  0  0  0  0  0
   10.2700   -8.4794    0.0000 C   0  0  0  0  0  0  0  0  0  0  0  0
    9.5556   -8.8919    0.0000 C   0  0  0  0  0  0  0  0  0  0  0  0
   11.6990   -8.4794    0.0000 O   0  0  0  0  0  0  0  0  0  0  0  0
    3.8560   -8.8938    0.0000 C   0  0  0  0  0  0  0  0  0  0  0  0
    3.8560   -9.7188    0.0000 C   0  0  0  0  0  0  0  0  0  0  0  0
    4.5704  -10.1313    0.0000 C   0  0  0  0  0  0  0  0  0  0  0  0
    5.2849   -9.7188    0.0000 C   0  0  0  0  0  0  0  0  0  0  0  0
    5.2849   -8.8938    0.0000 C   0  0  0  0  0  0  0  0  0  0  0  0
    4.5704   -8.4813    0.0000 C   0  0  0  0  0  0  0  0  0  0  0  0
    3.1415   -8.4813    0.0000 O   0  0  0  0  0  0  0  0  0  0  0  0
    4.5704   -7.6563    0.0000 O   0  0  0  0  0  0  0  0  0  0  0  0
    3.1415  -10.1313    0.0000 O   0  0  0  0  0  0  0  0  0  0  0  0
    6.0027  -10.1420    0.0000 C   0  0  1  0  0  0  0  0  0  0  0  0
    2.4270   -9.7188    0.0000 C   0  0  0  0  0  0  0  0  0  0  0  0
    6.6977   -9.7169    0.0000 O   0  0  0  0  0  0  0  0  0  0  0  0
    5.9832  -10.9544    0.0000 C   0  0  0  0  0  0  0  0  0  0  0  0
    6.6977  -11.3669    0.0000 C   0  0  1  0  0  0  0  0  0  0  0  0
    7.4121  -10.9544    0.0000 C   0  0  0  0  0  0  0  0  0  0  0  0
    6.6977  -12.1919    0.0000 O   0  0  0  0  0  0  0  0  0  0  0  0
  1  2  1  1  0  0  0
  2  3  1  0  0  0  0
  3  4  1  0  0  0  0
  4  5  2  0  0  0  0
  5  6  1  0  0  0  0
  6  7  2  0  0  0  0
  7  8  1  0  0  0  0
  8  9  2  0  0  0  0
  9  4  1  0  0  0  0
  7 10  1  0  0  0  0
 11 12  2  0  0  0  0
 12 13  1  0  0  0  0
 13 14  2  0  0  0  0
 14 15  1  0  0  0  0
 15 16  2  0  0  0  0
 16 11  1  0  0  0  0
 11 17  1  0  0  0  0
 16 18  1  0  0  0  0
 12 19  1  0  0  0  0
 20 14  1  1  0  0  0
 19 21  1  0  0  0  0
  1 22  1  0  0  0  0
 23 24  1  0  0  0  0
 24 25  1  0  0  0  0
 25  1  1  0  0  0  0
 24 26  1  1  0  0  0
 20 22  1  0  0  0  0
 20 23  1  0  0  0  0
M  END
>  <cdx:fragmentId>
5

$$$$
