599266.cdx
  Mrv1902 05222410262D          

 27 28  0  0  0  0            999 V2000
    7.6649   -6.9020    0.0000 C   0  0  0  0  0  0  0  0  0  0  0  0
    6.9469   -6.4957    0.0000 C   0  0  2  0  0  0  0  0  0  0  0  0
    6.9396   -5.6708    0.0000 C   0  0  0  0  0  0  0  0  0  0  0  0
    8.3758   -6.4832    0.0000 O   0  0  0  0  0  0  0  0  0  0  0  0
    6.2360   -6.9145    0.0000 O   0  0  0  0  0  0  0  0  0  0  0  0
    6.2433   -7.7394    0.0000 C   0  0  0  0  0  0  0  0  0  0  0  0
    6.9613   -8.1457    0.0000 C   0  0  0  0  0  0  0  0  0  0  0  0
    6.9685   -8.9706    0.0000 C   0  0  0  0  0  0  0  0  0  0  0  0
    6.2577   -9.3894    0.0000 C   0  0  0  0  0  0  0  0  0  0  0  0
    5.5397   -8.9831    0.0000 C   0  0  0  0  0  0  0  0  0  0  0  0
    5.5324   -8.1582    0.0000 C   0  0  0  0  0  0  0  0  0  0  0  0
    7.7083  -11.8518    0.0000 O   0  0  0  0  0  0  0  0  0  0  0  0
    7.6505   -5.2520    0.0000 C   0  0  0  0  0  0  0  0  0  0  0  0
    7.6433   -4.4270    0.0000 C   0  0  0  0  0  0  0  0  0  0  0  0
    8.3541   -4.0083    0.0000 C   0  0  0  0  0  0  0  0  0  0  0  0
    9.0721   -4.4145    0.0000 C   0  0  0  0  0  0  0  0  0  0  0  0
    9.0794   -5.2395    0.0000 C   0  0  0  0  0  0  0  0  0  0  0  0
    8.3685   -5.6582    0.0000 C   0  0  0  0  0  0  0  0  0  0  0  0
    9.7830   -3.9958    0.0000 O   0  0  0  0  0  0  0  0  0  0  0  0
    9.7830   -3.1708    0.0000 C   0  0  0  0  0  0  0  0  0  0  0  0
    6.9902  -11.4455    0.0000 C   0  0  0  0  0  0  0  0  0  0  0  0
    6.9830  -10.6206    0.0000 C   0  0  0  0  0  0  0  0  0  0  0  0
    6.2649  -10.2143    0.0000 C   0  0  0  0  0  0  0  0  0  0  0  0
    4.8144   -7.7519    0.0000 O   0  0  0  0  0  0  0  0  0  0  0  0
    4.0999   -8.1644    0.0000 C   0  0  0  0  0  0  0  0  0  0  0  0
    9.7974   -5.6457    0.0000 O   0  0  0  0  0  0  0  0  0  0  0  0
   10.5083   -5.2270    0.0000 C   0  0  0  0  0  0  0  0  0  0  0  0
 21 12  1  0  0  0  0
 22 21  1  0  0  0  0
 23 22  1  0  0  0  0
  2  1  1  0  0  0  0
  2  3  1  0  0  0  0
  1  4  1  0  0  0  0
  6  7  1  0  0  0  0
  7  8  2  0  0  0  0
  8  9  1  0  0  0  0
  9 10  2  0  0  0  0
 10 11  1  0  0  0  0
  6 11  2  0  0  0  0
  5  6  1  0  0  0  0
  9 23  1  0  0  0  0
  2  5  1  1  0  0  0
 13 14  1  0  0  0  0
 14 15  2  0  0  0  0
 15 16  1  0  0  0  0
 16 17  2  0  0  0  0
 17 18  1  0  0  0  0
 13 18  2  0  0  0  0
 19 20  1  0  0  0  0
 16 19  1  0  0  0  0
  3 13  1  0  0  0  0
 11 24  1  0  0  0  0
 24 25  1  0  0  0  0
 17 26  1  0  0  0  0
 26 27  1  0  0  0  0
M  END
>  <cdx:fragmentId>
189159

$$$$
