10599228.cdx
  Mrv1902 05222410242D          

 32 34  0  0  0  0            999 V2000
   13.0920   -9.5228    0.0000 C   0  0  2  0  0  0  0  0  0  0  0  0
   13.0920   -8.6978    0.0000 C   0  0  2  0  0  0  0  0  0  0  0  0
   13.8065   -8.2853    0.0000 C   0  0  0  0  0  0  0  0  0  0  0  0
   14.5210   -8.6978    0.0000 C   0  0  0  0  0  0  0  0  0  0  0  0
   15.2355   -8.2853    0.0000 C   0  0  0  0  0  0  0  0  0  0  0  0
   15.9499   -8.6978    0.0000 C   0  0  0  0  0  0  0  0  0  0  0  0
   15.9499   -9.5228    0.0000 C   0  0  0  0  0  0  0  0  0  0  0  0
   15.2355   -9.9353    0.0000 C   0  0  0  0  0  0  0  0  0  0  0  0
   14.5210   -9.5228    0.0000 C   0  0  0  0  0  0  0  0  0  0  0  0
   13.8065   -9.9353    0.0000 O   0  0  0  0  0  0  0  0  0  0  0  0
   13.8065   -7.4603    0.0000 O   0  0  0  0  0  0  0  0  0  0  0  0
   15.2355  -10.7603    0.0000 C   0  0  0  0  0  0  0  0  0  0  0  0
   15.9499  -11.1728    0.0000 C   0  0  0  0  0  0  0  0  0  0  0  0
   16.6644  -10.7603    0.0000 C   0  0  0  0  0  0  0  0  0  0  0  0
   17.3789  -11.1728    0.0000 C   0  0  0  0  0  0  0  0  0  0  0  0
   18.0933  -10.7603    0.0000 C   0  0  0  0  0  0  0  0  0  0  0  0
   18.0933   -9.9353    0.0000 C   0  0  0  0  0  0  0  0  0  0  0  0
   16.6644  -12.4103    0.0000 C   0  0  0  0  0  0  0  0  0  0  0  0
   15.9499  -11.9978    0.0000 C   0  0  0  0  0  0  0  0  0  0  0  0
   15.2355  -12.4103    0.0000 C   0  0  0  0  0  0  0  0  0  0  0  0
   18.8078  -11.1728    0.0000 C   0  0  0  0  0  0  0  0  0  0  0  0
   16.6644   -9.9353    0.0000 O   0  0  0  0  0  0  0  0  0  0  0  0
   15.2355   -7.4603    0.0000 O   0  0  0  0  0  0  0  0  0  0  0  0
   12.3776   -8.2853    0.0000 O   0  0  0  0  0  0  0  0  0  0  0  0
   12.3776   -9.9353    0.0000 C   0  0  0  0  0  0  0  0  0  0  0  0
   12.3776  -10.7603    0.0000 C   0  0  0  0  0  0  0  0  0  0  0  0
   11.6631  -11.1728    0.0000 C   0  0  0  0  0  0  0  0  0  0  0  0
   10.9486  -10.7603    0.0000 C   0  0  0  0  0  0  0  0  0  0  0  0
   10.9486   -9.9353    0.0000 C   0  0  0  0  0  0  0  0  0  0  0  0
   11.6631   -9.5228    0.0000 C   0  0  0  0  0  0  0  0  0  0  0  0
   10.2342  -11.1728    0.0000 O   0  0  0  0  0  0  0  0  0  0  0  0
   13.0920  -11.1728    0.0000 O   0  0  0  0  0  0  0  0  0  0  0  0
  1  2  1  0  0  0  0
  2  3  1  0  0  0  0
  3  4  1  0  0  0  0
  4  5  1  0  0  0  0
  5  6  2  0  0  0  0
  6  7  1  0  0  0  0
  7  8  2  0  0  0  0
  8  9  1  0  0  0  0
  4  9  2  0  0  0  0
  9 10  1  0  0  0  0
  1 10  1  0  0  0  0
  3 11  2  0  0  0  0
 12 13  1  0  0  0  0
 13 14  1  0  0  0  0
 14 15  1  0  0  0  0
 15 16  2  0  0  0  0
 16 17  1  0  0  0  0
 18 19  2  0  0  0  0
 19 20  1  0  0  0  0
 13 19  1  0  0  0  0
 16 21  1  0  0  0  0
  8 12  1  0  0  0  0
  7 22  1  0  0  0  0
  5 23  1  0  0  0  0
  2 24  1  1  0  0  0
 25 26  1  0  0  0  0
 26 27  2  0  0  0  0
 27 28  1  0  0  0  0
 28 29  2  0  0  0  0
 29 30  1  0  0  0  0
 25 30  2  0  0  0  0
 28 31  1  0  0  0  0
 26 32  1  0  0  0  0
  1 25  1  6  0  0  0
M  END
>  <cdx:groupId>
9937

>  <cdx:fragmentId>
9842

$$$$
