59933.cdx
  Mrv1902 05222410242D          

 27 29  0  0  0  0            999 V2000
    5.9012   -8.0744    0.0000 C   0  0  1  0  0  0  0  0  0  0  0  0
    5.9189   -8.8993    0.0000 C   0  0  2  0  0  0  0  0  0  0  0  0
    6.5749   -9.3996    0.0000 C   0  0  1  0  0  0  0  0  0  0  0  0
    7.3750   -9.1988    0.0000 C   0  0  2  0  0  0  0  0  0  0  0  0
    7.7169   -8.4479    0.0000 C   0  0  2  0  0  0  0  0  0  0  0  0
    7.3430   -7.7125    0.0000 C   0  0  0  0  0  0  0  0  0  0  0  0
    6.5349   -7.5463    0.0000 C   0  0  0  0  0  0  0  0  0  0  0  0
    6.5186  -10.2227    0.0000 C   0  0  0  0  0  0  0  0  0  0  0  0
    7.2841  -10.5305    0.0000 C   0  0  0  0  0  0  0  0  0  0  0  0
    7.8133   -9.8977    0.0000 C   0  0  0  0  0  0  0  0  0  0  0  0
    5.1112   -7.8365    0.0000 C   0  0  0  0  0  0  0  0  0  0  0  0
    4.6408   -8.5142    0.0000 C   0  0  0  0  0  0  0  0  0  0  0  0
    5.1400   -9.1710    0.0000 O   0  0  0  0  0  0  0  0  0  0  0  0
    8.1880   -9.0583    0.0000 O   0  0  0  0  0  0  0  0  0  0  0  0
    5.7828   -9.6303    0.0000 C   0  0  0  0  0  0  0  0  0  0  0  0
    5.8197  -10.6610    0.0000 O   0  0  0  0  0  0  0  0  0  0  0  0
    3.8160   -8.5320    0.0000 O   0  0  0  0  0  0  0  0  0  0  0  0
    4.8394   -7.0575    0.0000 C   0  0  0  0  0  0  0  0  0  0  0  0
    5.8834   -7.2496    0.0000 H   0  0  0  0  0  0  0  0  0  0  0  0
    6.6244   -8.4715    0.0000 H   0  0  0  0  0  0  0  0  0  0  0  0
    8.5417   -8.4301    0.0000 C   0  0  0  0  0  0  0  0  0  0  0  0
    8.9387   -7.7070    0.0000 O   0  0  0  0  0  0  0  0  0  0  0  0
   10.1605   -6.9660    0.0000 C   0  0  0  0  0  0  0  0  0  0  0  0
   10.1913   -8.3946    0.0000 O   0  0  0  0  0  0  0  0  0  0  0  0
    9.7635   -7.6892    0.0000 C   0  0  0  0  0  0  0  0  0  0  0  0
    9.7328   -6.2606    0.0000 C   0  0  0  0  0  0  0  0  0  0  0  0
   10.9854   -6.9482    0.0000 C   0  0  0  0  0  0  0  0  0  0  0  0
  1  2  1  0  0  0  0
  2  3  1  0  0  0  0
  3  4  1  0  0  0  0
  4  5  1  0  0  0  0
  5  6  1  0  0  0  0
  6  7  1  0  0  0  0
  7  1  1  0  0  0  0
  3  8  1  0  0  0  0
  8  9  1  0  0  0  0
  9 10  1  0  0  0  0
 10  4  1  0  0  0  0
  1 11  1  0  0  0  0
 11 12  1  0  0  0  0
 12 13  1  0  0  0  0
 13  2  1  0  0  0  0
  4 14  1  1  0  0  0
  3 15  1  6  0  0  0
  8 16  2  0  0  0  0
 12 17  2  0  0  0  0
 11 18  2  0  0  0  0
  1 19  1  1  0  0  0
  2 20  1  1  0  0  0
  5 21  1  6  0  0  0
 21 22  1  0  0  0  0
 25 23  1  0  0  0  0
 22 25  1  0  0  0  0
 25 24  2  0  0  0  0
 23 26  1  0  0  0  0
 23 27  1  0  0  0  0
M  END
>  <cdx:fragmentId>
53

$$$$
