59935.cdx
  Mrv1902 05222410232D          

 22 24  0  0  0  0            999 V2000
    3.6855   -8.4425    0.0000 C   0  0  0  0  0  0  0  0  0  0  0  0
    3.6855   -9.2675    0.0000 C   0  0  0  0  0  0  0  0  0  0  0  0
    4.4000   -9.6800    0.0000 C   0  0  0  0  0  0  0  0  0  0  0  0
    5.1145   -9.2675    0.0000 C   0  0  1  0  0  0  0  0  0  0  0  0
    5.1145   -8.4425    0.0000 C   0  0  2  0  0  0  0  0  0  0  0  0
    4.4000   -8.0300    0.0000 C   0  0  0  0  0  0  0  0  0  0  0  0
    5.8289   -9.6800    0.0000 C   0  0  0  0  0  0  0  0  0  0  0  0
    6.5434   -9.2675    0.0000 C   0  0  0  0  0  0  0  0  0  0  0  0
    6.5434   -8.4425    0.0000 C   0  0  0  0  0  0  0  0  0  0  0  0
    5.8289   -8.0300    0.0000 C   0  0  2  0  0  0  0  0  0  0  0  0
    7.2579   -8.0300    0.0000 C   0  0  0  0  0  0  0  0  0  0  0  0
    7.2579   -7.2050    0.0000 C   0  0  2  0  0  0  0  0  0  0  0  0
    6.5434   -6.7925    0.0000 C   0  0  0  0  0  0  0  0  0  0  0  0
    5.8289   -7.2050    0.0000 C   0  0  0  0  0  0  0  0  0  0  0  0
    7.6704   -6.4905    0.0000 C   0  0  0  0  0  0  0  0  0  0  0  0
    8.0829   -7.2050    0.0000 C   0  0  0  0  0  0  0  0  0  0  0  0
    5.8289   -8.8550    0.0000 H   0  0  0  0  0  0  0  0  0  0  0  0
    5.1145   -7.6175    0.0000 C   0  0  0  0  0  0  0  0  0  0  0  0
    5.1145  -10.0925    0.0000 H   0  0  0  0  0  0  0  0  0  0  0  0
    4.8125  -10.3945    0.0000 C   0  0  0  0  0  0  0  0  0  0  0  0
    3.9875  -10.3945    0.0000 C   0  0  0  0  0  0  0  0  0  0  0  0
    7.2579   -5.7761    0.0000 C   0  0  0  0  0  0  0  0  0  0  0  0
  1  2  1  0  0  0  0
  2  3  1  0  0  0  0
  3  4  1  0  0  0  0
  4  5  1  0  0  0  0
  5  6  1  0  0  0  0
  6  1  1  0  0  0  0
  4  7  1  0  0  0  0
  7  8  1  0  0  0  0
  8  9  1  0  0  0  0
  9 10  1  0  0  0  0
 10  5  1  0  0  0  0
  9 11  2  0  0  0  0
 11 12  1  0  0  0  0
 12 13  1  0  0  0  0
 13 14  1  0  0  0  0
 14 10  1  0  0  0  0
 12 15  1  0  0  0  0
 12 16  1  1  0  0  0
 10 17  1  6  0  0  0
  5 18  1  1  0  0  0
  4 19  1  6  0  0  0
  3 20  1  0  0  0  0
  3 21  1  0  0  0  0
 15 22  2  0  0  0  0
M  END
>  <cdx:fragmentId>
196

$$$$
