59934.cdx
  Mrv1902 05222410242D          

 12 12  0  0  0  0            999 V2000
    6.4355   -8.8825    0.0000 C   0  0  2  0  0  0  0  0  0  0  0  0
    6.4355   -9.7075    0.0000 C   0  0  0  0  0  0  0  0  0  0  0  0
    7.1500  -10.1200    0.0000 C   0  0  0  0  0  0  0  0  0  0  0  0
    7.8645   -9.7075    0.0000 C   0  0  0  0  0  0  0  0  0  0  0  0
    7.8645   -8.8825    0.0000 C   0  0  0  0  0  0  0  0  0  0  0  0
    7.1500   -8.4700    0.0000 C   0  0  2  0  0  0  0  0  0  0  0  0
    6.7375   -7.7555    0.0000 C   0  0  0  0  0  0  0  0  0  0  0  0
    5.7211   -8.4700    0.0000 C   0  0  0  0  0  0  0  0  0  0  0  0
    5.0066   -8.8825    0.0000 C   0  0  0  0  0  0  0  0  0  0  0  0
    5.7211   -7.6450    0.0000 C   0  0  0  0  0  0  0  0  0  0  0  0
    7.5625   -7.7555    0.0000 C   0  0  0  0  0  0  0  0  0  0  0  0
    8.3875   -7.7555    0.0000 C   0  0  0  0  0  0  0  0  0  0  0  0
  1  2  1  0  0  0  0
  2  3  2  0  0  0  0
  3  4  1  0  0  0  0
  4  5  1  0  0  0  0
  5  6  1  0  0  0  0
  6  1  1  0  0  0  0
  6  7  1  1  0  0  0
  1  8  1  1  0  0  0
  8  9  1  0  0  0  0
  8 10  2  0  0  0  0
  6 11  1  0  0  0  0
 11 12  2  0  0  0  0
M  END
>  <cdx:fragmentId>
153

$$$$
