5994.cdx
  Mrv1902 05222410272D          

 26 29  0  0  0  0            999 V2000
    5.7253   -6.8978    0.0000 C   0  0  0  0  0  0  0  0  0  0  0  0
    5.0109   -7.3103    0.0000 C   0  0  0  0  0  0  0  0  0  0  0  0
    5.0109   -8.1353    0.0000 C   0  0  0  0  0  0  0  0  0  0  0  0
    5.7253   -8.5478    0.0000 C   0  0  0  0  0  0  0  0  0  0  0  0
    6.4398   -8.1353    0.0000 C   0  0  0  0  0  0  0  0  0  0  0  0
    7.1543   -8.5478    0.0000 C   0  0  0  0  0  0  0  0  0  0  0  0
    7.8687   -8.1353    0.0000 C   0  0  0  0  0  0  0  0  0  0  0  0
    7.8687   -7.3103    0.0000 C   0  0  1  0  0  0  0  0  0  0  0  0
    8.5832   -6.8978    0.0000 C   0  0  2  0  0  0  0  0  0  0  0  0
    9.3678   -7.1527    0.0000 C   0  0  0  0  0  0  0  0  0  0  0  0
    9.8528   -6.4853    0.0000 C   0  0  0  0  0  0  0  0  0  0  0  0
    9.3678   -5.8178    0.0000 C   0  0  1  0  0  0  0  0  0  0  0  0
    8.5832   -6.0728    0.0000 C   0  0  1  0  0  0  0  0  0  0  0  0
    7.8687   -5.6603    0.0000 C   0  0  0  0  0  0  0  0  0  0  0  0
    7.1543   -6.0728    0.0000 C   0  0  0  0  0  0  0  0  0  0  0  0
    7.1543   -6.8978    0.0000 C   0  0  2  0  0  0  0  0  0  0  0  0
    6.4398   -7.3103    0.0000 C   0  0  1  0  0  0  0  0  0  0  0  0
    4.2964   -8.5478    0.0000 O   0  0  0  0  0  0  0  0  0  0  0  0
    8.6695   -5.2523    0.0000 C   0  0  0  0  0  0  0  0  0  0  0  0
    6.4398   -6.4853    0.0000 C   0  0  0  0  0  0  0  0  0  0  0  0
    9.6228   -5.0332    0.0000 C   0  0  0  0  0  0  0  0  0  0  0  0
    9.0707   -4.4201    0.0000 O   0  0  0  0  0  0  0  0  0  0  0  0
   10.4297   -4.8617    0.0000 C   0  0  0  0  0  0  0  0  0  0  0  0
    7.8687   -6.4853    0.0000 H   0  0  0  0  0  0  0  0  0  0  0  0
    7.1543   -7.7228    0.0000 H   0  0  0  0  0  0  0  0  0  0  0  0
    8.5832   -7.7228    0.0000 H   0  0  0  0  0  0  0  0  0  0  0  0
  1  2  1  0  0  0  0
  2  3  1  0  0  0  0
  3  4  1  0  0  0  0
  4  5  2  0  0  0  0
  5  6  1  0  0  0  0
  6  7  1  0  0  0  0
  7  8  1  0  0  0  0
  8  9  1  0  0  0  0
  9 10  1  0  0  0  0
 10 11  1  0  0  0  0
 11 12  1  0  0  0  0
 12 13  1  0  0  0  0
  9 13  1  0  0  0  0
 13 14  1  0  0  0  0
 14 15  1  0  0  0  0
 15 16  1  0  0  0  0
  8 16  1  0  0  0  0
 16 17  1  0  0  0  0
  5 17  1  0  0  0  0
  1 17  1  0  0  0  0
  3 18  2  0  0  0  0
 13 19  1  1  0  0  0
 17 20  1  1  0  0  0
 21 22  2  0  0  0  0
 21 23  1  0  0  0  0
 12 21  1  1  0  0  0
  8 24  1  1  0  0  0
 16 25  1  6  0  0  0
  9 26  1  6  0  0  0
M  END
>  <cdx:fragmentId>
5

$$$$
