599564.cdx
  Mrv1902 05222410262D          

 38 40  0  0  0  0            999 V2000
    8.9829   -9.3245    0.0000 N   0  0  0  0  0  0  0  0  0  0  0  0
    8.2684   -8.9120    0.0000 C   0  0  0  0  0  0  0  0  0  0  0  0
    8.2684   -8.0870    0.0000 C   0  0  1  0  0  0  0  0  0  0  0  0
    7.5539   -7.6745    0.0000 N   0  0  0  0  0  0  0  0  0  0  0  0
    7.5539   -6.8495    0.0000 C   0  0  0  0  0  0  0  0  0  0  0  0
    6.8394   -6.4370    0.0000 C   0  0  0  0  0  0  0  0  0  0  0  0
    6.1250   -6.8495    0.0000 C   0  0  1  0  0  0  0  0  0  0  0  0
    6.1250   -7.6745    0.0000 N   0  0  0  0  0  0  0  0  0  0  0  0
    5.4105   -8.0870    0.0000 C   0  0  0  0  0  0  0  0  0  0  0  0
    5.4105   -8.9120    0.0000 C   0  0  1  0  0  0  0  0  0  0  0  0
    6.1250   -9.3245    0.0000 N   0  0  0  0  0  0  0  0  0  0  0  0
    6.1250  -10.1495    0.0000 C   0  0  0  0  0  0  0  0  0  0  0  0
    6.8394  -10.5620    0.0000 C   0  0  1  0  0  0  0  0  0  0  0  0
    7.5539  -10.1495    0.0000 N   0  0  0  0  0  0  0  0  0  0  0  0
    8.2684  -10.5620    0.0000 C   0  0  0  0  0  0  0  0  0  0  0  0
    8.9829  -10.1495    0.0000 C   0  0  2  0  0  0  0  0  0  0  0  0
    9.7675  -10.4044    0.0000 C   0  0  0  0  0  0  0  0  0  0  0  0
   10.2524   -9.7370    0.0000 C   0  0  0  0  0  0  0  0  0  0  0  0
    9.7675   -9.0695    0.0000 C   0  0  0  0  0  0  0  0  0  0  0  0
    7.5539   -9.3245    0.0000 O   0  0  0  0  0  0  0  0  0  0  0  0
    8.2684   -6.4370    0.0000 O   0  0  0  0  0  0  0  0  0  0  0  0
    4.6960   -7.6745    0.0000 O   0  0  0  0  0  0  0  0  0  0  0  0
    5.4105  -10.5620    0.0000 O   0  0  0  0  0  0  0  0  0  0  0  0
    8.2684  -11.3870    0.0000 O   0  0  0  0  0  0  0  0  0  0  0  0
    5.4105   -6.4370    0.0000 C   0  0  0  0  0  0  0  0  0  0  0  0
    4.6960   -6.8495    0.0000 C   0  0  0  0  0  0  0  0  0  0  0  0
    3.9816   -6.4370    0.0000 C   0  0  0  0  0  0  0  0  0  0  0  0
    3.9816   -5.6120    0.0000 C   0  0  0  0  0  0  0  0  0  0  0  0
    4.6960   -5.1995    0.0000 C   0  0  0  0  0  0  0  0  0  0  0  0
    5.4105   -5.6120    0.0000 C   0  0  0  0  0  0  0  0  0  0  0  0
    4.6960   -9.3245    0.0000 C   0  0  0  0  0  0  0  0  0  0  0  0
    3.9816   -8.9120    0.0000 O   0  0  0  0  0  0  0  0  0  0  0  0
    6.8394  -11.3870    0.0000 C   0  0  0  0  0  0  0  0  0  0  0  0
    6.1250  -11.7995    0.0000 C   0  0  0  0  0  0  0  0  0  0  0  0
    8.9829   -7.6745    0.0000 C   0  0  0  0  0  0  0  0  0  0  0  0
    9.6973   -8.0870    0.0000 C   0  0  0  0  0  0  0  0  0  0  0  0
   11.0774   -9.7370    0.0000 Cl  0  0  0  0  0  0  0  0  0  0  0  0
    9.0691  -10.9700    0.0000 H   0  0  0  0  0  0  0  0  0  0  0  0
  1  2  1  0  0  0  0
  2  3  1  0  0  0  0
  3  4  1  0  0  0  0
  4  5  1  0  0  0  0
  5  6  1  0  0  0  0
  6  7  1  0  0  0  0
  7  8  1  0  0  0  0
  8  9  1  0  0  0  0
  9 10  1  0  0  0  0
 10 11  1  0  0  0  0
 11 12  1  0  0  0  0
 12 13  1  0  0  0  0
 13 14  1  0  0  0  0
 14 15  1  0  0  0  0
 15 16  1  0  0  0  0
 16 17  1  0  0  0  0
 17 18  1  0  0  0  0
 18 19  2  0  0  0  0
  1 19  1  0  0  0  0
  1 16  1  0  0  0  0
  2 20  2  0  0  0  0
  5 21  2  0  0  0  0
  9 22  2  0  0  0  0
 12 23  2  0  0  0  0
 15 24  2  0  0  0  0
 25 26  1  0  0  0  0
 26 27  2  0  0  0  0
 27 28  1  0  0  0  0
 28 29  2  0  0  0  0
 29 30  1  0  0  0  0
 25 30  2  0  0  0  0
  7 25  1  1  0  0  0
 31 32  1  0  0  0  0
 10 31  1  1  0  0  0
 33 34  1  0  0  0  0
 13 33  1  1  0  0  0
 35 36  1  0  0  0  0
  3 35  1  1  0  0  0
 18 37  1  1  0  0  0
 16 38  1  6  0  0  0
M  END
>  <cdx:fragmentId>
42224

$$$$
