599563.cdx
  Mrv1902 05222410242D          

 26 28  0  0  0  0            999 V2000
    8.1996   -8.5105    0.0000 N   0  0  0  0  0  0  0  0  0  0  0  0
    8.1997   -9.3355    0.0000 C   0  0  2  0  0  0  0  0  0  0  0  0
    7.4853   -9.7481    0.0000 C   0  0  0  0  0  0  0  0  0  0  0  0
    6.7708   -9.3358    0.0000 N   0  0  0  0  0  0  0  0  0  0  0  0
    6.0564   -9.7484    0.0000 C   0  0  2  0  0  0  0  0  0  0  0  0
    5.3418   -9.3360    0.0000 C   0  0  0  0  0  0  0  0  0  0  0  0
    5.3417   -8.5110    0.0000 N   0  0  0  0  0  0  0  0  0  0  0  0
    6.0561   -8.0984    0.0000 C   0  0  2  0  0  0  0  0  0  0  0  0
    6.7706   -8.5108    0.0000 C   0  0  0  0  0  0  0  0  0  0  0  0
    7.4850   -8.0981    0.0000 C   0  0  0  0  0  0  0  0  0  0  0  0
    8.9844   -9.5902    0.0000 C   0  0  0  0  0  0  0  0  0  0  0  0
    9.4692   -8.9227    0.0000 C   0  0  0  0  0  0  0  0  0  0  0  0
    8.9841   -8.2554    0.0000 C   0  0  0  0  0  0  0  0  0  0  0  0
    7.4855  -10.5731    0.0000 O   0  0  0  0  0  0  0  0  0  0  0  0
    4.6275   -9.7487    0.0000 O   0  0  0  0  0  0  0  0  0  0  0  0
    7.4848   -7.2731    0.0000 O   0  0  0  0  0  0  0  0  0  0  0  0
    6.0559   -7.2734    0.0000 C   0  0  0  0  0  0  0  0  0  0  0  0
    5.3413   -6.8610    0.0000 C   0  0  0  0  0  0  0  0  0  0  0  0
    5.3412   -6.0360    0.0000 C   0  0  0  0  0  0  0  0  0  0  0  0
    6.0556   -5.6234    0.0000 C   0  0  0  0  0  0  0  0  0  0  0  0
    6.7701   -6.0358    0.0000 C   0  0  0  0  0  0  0  0  0  0  0  0
    6.7703   -6.8608    0.0000 C   0  0  0  0  0  0  0  0  0  0  0  0
    6.0566  -10.5734    0.0000 C   0  0  0  0  0  0  0  0  0  0  0  0
    5.3422  -10.9860    0.0000 O   0  0  0  0  0  0  0  0  0  0  0  0
    9.2389   -7.4707    0.0000 Cl  0  0  0  0  0  0  0  0  0  0  0  0
    8.2861  -10.1559    0.0000 H   0  0  0  0  0  0  0  0  0  0  0  0
  1  2  1  0  0  0  0
  2  3  1  0  0  0  0
  3  4  1  0  0  0  0
  4  5  1  0  0  0  0
  5  6  1  0  0  0  0
  6  7  1  0  0  0  0
  7  8  1  0  0  0  0
  8  9  1  0  0  0  0
  9 10  1  0  0  0  0
  1 10  1  0  0  0  0
 11 12  1  0  0  0  0
 12 13  2  0  0  0  0
 13  1  1  0  0  0  0
 11  2  1  0  0  0  0
  3 14  2  0  0  0  0
  6 15  2  0  0  0  0
 10 16  2  0  0  0  0
 17 18  1  0  0  0  0
 18 19  2  0  0  0  0
 19 20  1  0  0  0  0
 20 21  2  0  0  0  0
 21 22  1  0  0  0  0
 17 22  2  0  0  0  0
  8 17  1  1  0  0  0
 23 24  1  0  0  0  0
  5 23  1  1  0  0  0
 13 25  1  0  0  0  0
  2 26  1  6  0  0  0
M  END
>  <cdx:fragmentId>
42135

$$$$
