6000.cdx
  Mrv1902 05222410212D          

 47 53  0  0  0  0            999 V2000
    3.4284   -3.5240    0.0000 C   0  0  2  0  0  0  0  0  0  0  0  0
    3.7106   -2.7488    0.0000 C   0  0  0  0  0  0  0  0  0  0  0  0
    4.2409   -2.1168    0.0000 C   0  0  0  0  0  0  0  0  0  0  0  0
    5.0534   -2.2597    0.0000 C   0  0  0  0  0  0  0  0  0  0  0  0
    5.8659   -2.1164    0.0000 C   0  0  0  0  0  0  0  0  0  0  0  0
    6.5803   -1.7043    0.0000 C   0  0  0  0  0  0  0  0  0  0  0  0
    7.2948   -2.1168    0.0000 O   0  0  0  0  0  0  0  0  0  0  0  0
    7.8251   -2.7488    0.0000 C   0  0  0  0  0  0  0  0  0  0  0  0
    8.3554   -2.1168    0.0000 C   0  0  0  0  0  0  0  0  0  0  0  0
    9.1678   -2.2600    0.0000 C   0  0  0  0  0  0  0  0  0  0  0  0
    9.4500   -3.0353    0.0000 C   0  0  0  0  0  0  0  0  0  0  0  0
    8.9197   -3.6673    0.0000 C   0  0  0  0  0  0  0  0  0  0  0  0
    9.5606   -4.1870    0.0000 C   0  0  0  0  0  0  0  0  0  0  0  0
    9.3282   -4.9785    0.0000 C   0  0  0  0  0  0  0  0  0  0  0  0
    8.5083   -5.0700    0.0000 N   0  3  0  0  0  0  0  0  0  0  0  0
    8.1072   -4.3490    0.0000 C   0  0  2  0  0  0  0  0  0  0  0  0
    7.8251   -5.1243    0.0000 C   0  0  0  0  0  0  0  0  0  0  0  0
    7.2948   -5.7563    0.0000 C   0  0  0  0  0  0  0  0  0  0  0  0
    6.9358   -5.0135    0.0000 C   0  0  0  0  0  0  0  0  0  0  0  0
    6.1190   -4.8977    0.0000 C   0  0  0  0  0  0  0  0  0  0  0  0
    5.5677   -5.5114    0.0000 C   0  0  0  0  0  0  0  0  0  0  0  0
    5.7678   -6.3120    0.0000 C   0  0  0  0  0  0  0  0  0  0  0  0
    4.9554   -6.1688    0.0000 O   0  0  0  0  0  0  0  0  0  0  0  0
    4.2409   -5.7563    0.0000 C   0  0  0  0  0  0  0  0  0  0  0  0
    3.4634   -6.0348    0.0000 C   0  0  0  0  0  0  0  0  0  0  0  0
    2.7721   -5.5845    0.0000 C   0  0  0  0  0  0  0  0  0  0  0  0
    2.7140   -4.7615    0.0000 C   0  0  0  0  0  0  0  0  0  0  0  0
    1.9995   -4.3490    0.0000 C   0  0  0  0  0  0  0  0  0  0  0  0
    1.9995   -3.5240    0.0000 C   0  0  0  0  0  0  0  0  0  0  0  0
    2.7140   -3.1115    0.0000 N   0  0  0  0  0  0  0  0  0  0  0  0
    3.4284   -4.3490    0.0000 C   0  0  0  0  0  0  0  0  0  0  0  0
    3.7106   -5.1243    0.0000 C   0  0  0  0  0  0  0  0  0  0  0  0
    6.5803   -6.1688    0.0000 C   0  0  0  0  0  0  0  0  0  0  0  0
    8.1072   -3.5240    0.0000 C   0  0  0  0  0  0  0  0  0  0  0  0
    5.7678   -1.5610    0.0000 C   0  0  0  0  0  0  0  0  0  0  0  0
    4.9554   -1.7043    0.0000 C   0  0  0  0  0  0  0  0  0  0  0  0
    8.0732   -1.3415    0.0000 O   0  0  0  0  0  0  0  0  0  0  0  0
    4.7670   -5.3126    0.0000 O   0  0  0  0  0  0  0  0  0  0  0  0
    2.7140   -2.2865    0.0000 C   0  0  0  0  0  0  0  0  0  0  0  0
    7.8763   -5.6003    0.0000 C   0  0  0  0  0  0  0  0  0  0  0  0
    8.5802   -5.8918    0.0000 C   0  0  0  0  0  0  0  0  0  0  0  0
    3.3673   -6.8542    0.0000 O   0  0  0  0  0  0  0  0  0  0  0  0
    2.6097   -7.1807    0.0000 C   0  0  0  0  0  0  0  0  0  0  0  0
    9.6981   -1.6281    0.0000 O   0  0  0  0  0  0  0  0  0  0  0  0
   10.5106   -1.7713    0.0000 C   0  0  0  0  0  0  0  0  0  0  0  0
    3.1463   -2.7488    0.0000 H   0  0  0  0  0  0  0  0  0  0  0  0
    7.2948   -4.2058    0.0000 H   0  0  0  0  0  0  0  0  0  0  0  0
  1  2  1  0  0  0  0
  2  3  1  0  0  0  0
  3  4  1  0  0  0  0
  4  5  2  0  0  0  0
  5  6  1  0  0  0  0
  6  7  1  0  0  0  0
  7  8  1  0  0  0  0
  8  9  1  0  0  0  0
  9 10  2  0  0  0  0
 10 11  1  0  0  0  0
 11 12  2  0  0  0  0
 12 13  1  0  0  0  0
 13 14  1  0  0  0  0
 14 15  1  0  0  0  0
 15 16  1  0  0  0  0
 16 17  1  0  0  0  0
 17 18  1  0  0  0  0
 18 19  1  0  0  0  0
 19 20  2  0  0  0  0
 20 21  1  0  0  0  0
 21 22  2  0  0  0  0
 22 23  1  0  0  0  0
 23 24  1  0  0  0  0
 24 25  2  0  0  0  0
 25 26  1  0  0  0  0
 26 27  2  0  0  0  0
 27 28  1  0  0  0  0
 28 29  1  0  0  0  0
 29 30  1  0  0  0  0
 31 32  2  0  0  0  0
 35 36  1  0  0  0  0
  1 30  1  0  0  0  0
  1 31  1  0  0  0  0
 32 24  1  0  0  0  0
 27 31  1  0  0  0  0
 22 33  1  0  0  0  0
 33 18  2  0  0  0  0
 12 34  1  0  0  0  0
 34  8  2  0  0  0  0
  6 35  2  0  0  0  0
 36  3  2  0  0  0  0
 16 34  1  0  0  0  0
  9 37  1  0  0  0  0
 21 38  1  0  0  0  0
 30 39  1  0  0  0  0
 15 40  1  0  0  0  0
 15 41  1  0  0  0  0
 42 43  1  0  0  0  0
 25 42  1  0  0  0  0
 44 45  1  0  0  0  0
 10 44  1  0  0  0  0
  1 46  1  6  0  0  0
 16 47  1  1  0  0  0
M  CHG  1  15   1
M  END
>  <cdx:groupId>
149

>  <cdx:fragmentId>
5

$$$$
