60002.cdx
  Mrv1902 05222410222D          

 11 12  0  0  0  0            999 V2000
    6.0756  -10.2839    0.0000 C   0  0  0  0  0  0  0  0  0  0  0  0
    6.0756  -11.1089    0.0000 C   0  0  0  0  0  0  0  0  0  0  0  0
    6.7900  -11.5214    0.0000 C   0  0  0  0  0  0  0  0  0  0  0  0
    7.5045  -11.1089    0.0000 C   0  0  0  0  0  0  0  0  0  0  0  0
    7.5045  -10.2839    0.0000 C   0  0  0  0  0  0  0  0  0  0  0  0
    6.7900   -9.8714    0.0000 C   0  0  0  0  0  0  0  0  0  0  0  0
    6.7900   -9.0464    0.0000 C   0  0  0  0  0  0  0  0  0  0  0  0
    7.4575   -8.5615    0.0000 C   0  0  0  0  0  0  0  0  0  0  0  0
    7.2025   -7.7769    0.0000 C   0  0  0  0  0  0  0  0  0  0  0  0
    6.3775   -7.7769    0.0000 C   0  0  0  0  0  0  0  0  0  0  0  0
    6.1226   -8.5615    0.0000 O   0  0  0  0  0  0  0  0  0  0  0  0
  1  2  2  0  0  0  0
  2  3  1  0  0  0  0
  3  4  2  0  0  0  0
  4  5  1  0  0  0  0
  5  6  2  0  0  0  0
  6  1  1  0  0  0  0
  6  7  1  0  0  0  0
  7  8  2  0  0  0  0
  8  9  1  0  0  0  0
  9 10  2  0  0  0  0
 10 11  1  0  0  0  0
 11  7  1  0  0  0  0
M  END
>  <cdx:fragmentId>
5

$$$$
