600080.cdx
  Mrv1902 05222410222D          

 39 42  0  0  0  0            999 V2000
    7.7210   -8.7796    0.0000 C   0  0  0  0  0  0  0  0  0  0  0  0
    7.1690   -8.1665    0.0000 C   0  0  0  0  0  0  0  0  0  0  0  0
    9.2928   -6.2542    0.0000 C   0  0  0  0  0  0  0  0  0  0  0  0
    3.8236  -10.6442    0.0000 C   0  0  0  0  0  0  0  0  0  0  0  0
    3.1091  -11.0567    0.0000 C   0  0  0  0  0  0  0  0  0  0  0  0
    3.1091  -11.8817    0.0000 C   0  0  0  0  0  0  0  0  0  0  0  0
    3.8236  -12.2942    0.0000 C   0  0  0  0  0  0  0  0  0  0  0  0
    4.5381  -11.8817    0.0000 C   0  0  2  0  0  0  0  0  0  0  0  0
    5.2525  -12.2942    0.0000 C   0  0  0  0  0  0  0  0  0  0  0  0
    5.9670  -11.8817    0.0000 C   0  0  1  0  0  0  0  0  0  0  0  0
    5.9670  -11.0567    0.0000 C   0  0  0  0  0  0  0  0  0  0  0  0
    6.6815  -10.6442    0.0000 C   0  0  2  0  0  0  0  0  0  0  0  0
    7.4661  -10.8991    0.0000 C   0  0  0  0  0  0  0  0  0  0  0  0
    7.9510  -10.2317    0.0000 C   0  0  0  0  0  0  0  0  0  0  0  0
    7.4661   -9.5642    0.0000 C   0  0  1  0  0  0  0  0  0  0  0  0
    6.6815   -9.8192    0.0000 C   0  0  1  0  0  0  0  0  0  0  0  0
    5.9670   -9.4067    0.0000 C   0  0  0  0  0  0  0  0  0  0  0  0
    5.2525   -9.8192    0.0000 C   0  0  0  0  0  0  0  0  0  0  0  0
    5.2525  -10.6442    0.0000 C   0  0  0  0  0  0  0  0  0  0  0  0
    4.5381  -11.0567    0.0000 C   0  0  1  0  0  0  0  0  0  0  0  0
    7.7210  -11.6837    0.0000 O   0  0  0  0  0  0  0  0  0  0  0  0
    4.5381   -9.4067    0.0000 O   0  0  0  0  0  0  0  0  0  0  0  0
    2.3947  -12.2942    0.0000 O   0  0  0  0  0  0  0  0  0  0  0  0
    6.6815  -11.3855    0.0000 C   0  0  0  0  0  0  0  0  0  0  0  0
    6.6815   -8.9650    0.0000 C   0  0  0  0  0  0  0  0  0  0  0  0
    4.5381  -10.2317    0.0000 C   0  0  0  0  0  0  0  0  0  0  0  0
    4.2361  -13.0086    0.0000 C   0  0  0  0  0  0  0  0  0  0  0  0
    3.4111  -13.0086    0.0000 C   0  0  0  0  0  0  0  0  0  0  0  0
    6.6815  -12.2942    0.0000 O   0  0  0  0  0  0  0  0  0  0  0  0
    4.5381  -12.7067    0.0000 H   0  0  0  0  0  0  0  0  0  0  0  0
    8.2309   -7.2104    0.0000 O   0  0  0  0  0  0  0  0  0  0  0  0
   10.9068   -5.9111    0.0000 O   0  0  0  0  0  0  0  0  0  0  0  0
   11.2039   -7.3089    0.0000 O   0  0  0  0  0  0  0  0  0  0  0  0
    8.5280   -8.6081    0.0000 C   0  0  0  0  0  0  0  0  0  0  0  0
    8.7829   -7.8234    0.0000 C   0  0  0  0  0  0  0  0  0  0  0  0
    9.5899   -7.6519    0.0000 C   0  0  0  0  0  0  0  0  0  0  0  0
    9.8449   -6.8673    0.0000 C   0  0  0  0  0  0  0  0  0  0  0  0
   10.6518   -6.6958    0.0000 C   0  0  0  0  0  0  0  0  0  0  0  0
    8.2507   -9.3093    0.0000 H   0  0  0  0  0  0  0  0  0  0  0  0
 37  3  1  0  0  0  0
 35 31  2  0  0  0  0
 38 32  1  0  0  0  0
 38 33  2  0  0  0  0
 35 34  1  0  0  0  0
 36 35  1  0  0  0  0
 37 36  1  0  0  0  0
 38 37  1  0  0  0  0
 34  1  2  0  0  0  0
  1  2  1  0  0  0  0
  4  5  1  0  0  0  0
  5  6  1  0  0  0  0
  6  7  1  0  0  0  0
  7  8  1  0  0  0  0
  8  9  1  0  0  0  0
  9 10  1  0  0  0  0
 10 11  1  0  0  0  0
 11 12  1  0  0  0  0
 12 13  1  0  0  0  0
 13 14  1  0  0  0  0
 14 15  1  0  0  0  0
 15 16  1  0  0  0  0
 12 16  1  0  0  0  0
 16 17  1  0  0  0  0
 17 18  1  0  0  0  0
 18 19  1  0  0  0  0
 11 19  2  0  0  0  0
 19 20  1  0  0  0  0
  8 20  1  0  0  0  0
  4 20  1  0  0  0  0
 13 21  2  0  0  0  0
 18 22  2  0  0  0  0
  6 23  2  0  0  0  0
 12 24  1  6  0  0  0
 16 25  1  1  0  0  0
 20 26  1  1  0  0  0
  7 27  1  0  0  0  0
  7 28  1  0  0  0  0
 10 29  1  1  0  0  0
 15  1  1  0  0  0  0
  8 30  1  6  0  0  0
 15 39  1  6  0  0  0
M  END
>  <cdx:fragmentId>
972

$$$$
