60006.cdx
  Mrv1902 05222410212D          

 48 51  0  0  0  0            999 V2000
    7.4966   -8.7132    0.0000 C   0  0  2  0  0  0  0  0  0  0  0  0
    7.4966   -8.0532    0.0000 C   0  0  0  0  0  0  0  0  0  0  0  0
    6.9250   -7.7232    0.0000 C   0  0  0  0  0  0  0  0  0  0  0  0
    6.3534   -8.0532    0.0000 C   0  0  0  0  0  0  0  0  0  0  0  0
    6.3534   -8.7132    0.0000 C   0  0  2  0  0  0  0  0  0  0  0  0
    6.9250   -9.0432    0.0000 C   0  0  1  0  0  0  0  0  0  0  0  0
    6.9250   -7.0632    0.0000 C   0  0  0  0  0  0  0  0  0  0  0  0
    6.3534   -6.7332    0.0000 O   0  0  0  0  0  0  0  0  0  0  0  0
    7.4966   -6.7332    0.0000 O   0  0  0  0  0  0  0  0  0  0  0  0
    6.9250   -9.7032    0.0000 O   0  0  0  0  0  0  0  0  0  0  0  0
    5.7818   -9.0432    0.0000 O   0  0  0  0  0  0  0  0  0  0  0  0
    2.9223   -8.7710    0.0000 C   0  0  0  0  0  0  0  0  0  0  0  0
    2.3565   -9.1108    0.0000 C   0  0  0  0  0  0  0  0  0  0  0  0
    2.3679   -9.7707    0.0000 C   0  0  0  0  0  0  0  0  0  0  0  0
    2.9450  -10.0908    0.0000 C   0  0  0  0  0  0  0  0  0  0  0  0
    3.5108   -9.7510    0.0000 C   0  0  0  0  0  0  0  0  0  0  0  0
    3.4995   -9.0911    0.0000 C   0  0  0  0  0  0  0  0  0  0  0  0
    1.8020  -10.1105    0.0000 O   0  0  0  0  0  0  0  0  0  0  0  0
    1.7793   -8.7907    0.0000 O   0  0  0  0  0  0  0  0  0  0  0  0
    4.0653   -8.7513    0.0000 C   0  0  0  0  0  0  0  0  0  0  0  0
    4.6425   -9.0715    0.0000 C   0  0  0  0  0  0  0  0  0  0  0  0
    5.2083   -8.7317    0.0000 C   0  0  0  0  0  0  0  0  0  0  0  0
    5.1969   -8.0718    0.0000 O   0  0  0  0  0  0  0  0  0  0  0  0
    5.2177  -12.0143    0.0000 C   0  0  0  0  0  0  0  0  0  0  0  0
    5.2177  -12.6743    0.0000 C   0  0  0  0  0  0  0  0  0  0  0  0
    5.7892  -13.0043    0.0000 C   0  0  0  0  0  0  0  0  0  0  0  0
    6.3608  -12.6743    0.0000 C   0  0  0  0  0  0  0  0  0  0  0  0
    6.3608  -12.0143    0.0000 C   0  0  0  0  0  0  0  0  0  0  0  0
    5.7892  -11.6843    0.0000 C   0  0  0  0  0  0  0  0  0  0  0  0
    5.7892  -13.6643    0.0000 O   0  0  0  0  0  0  0  0  0  0  0  0
    4.6461  -13.0043    0.0000 O   0  0  0  0  0  0  0  0  0  0  0  0
    5.7892  -11.0243    0.0000 C   0  0  0  0  0  0  0  0  0  0  0  0
    6.3608  -10.6943    0.0000 C   0  0  0  0  0  0  0  0  0  0  0  0
    6.3608  -10.0343    0.0000 C   0  0  0  0  0  0  0  0  0  0  0  0
    5.7892   -9.7043    0.0000 O   0  0  0  0  0  0  0  0  0  0  0  0
   10.9334   -9.3693    0.0000 C   0  0  0  0  0  0  0  0  0  0  0  0
   11.5047   -9.0389    0.0000 C   0  0  0  0  0  0  0  0  0  0  0  0
   11.5042   -8.3789    0.0000 C   0  0  0  0  0  0  0  0  0  0  0  0
   10.9323   -8.0494    0.0000 C   0  0  0  0  0  0  0  0  0  0  0  0
   10.3610   -8.3798    0.0000 C   0  0  0  0  0  0  0  0  0  0  0  0
   10.3616   -9.0398    0.0000 C   0  0  0  0  0  0  0  0  0  0  0  0
   12.0755   -8.0484    0.0000 O   0  0  0  0  0  0  0  0  0  0  0  0
   12.0766   -9.3684    0.0000 O   0  0  0  0  0  0  0  0  0  0  0  0
    9.7903   -9.3703    0.0000 C   0  0  0  0  0  0  0  0  0  0  0  0
    9.2184   -9.0408    0.0000 C   0  0  0  0  0  0  0  0  0  0  0  0
    8.6471   -9.3712    0.0000 C   0  0  0  0  0  0  0  0  0  0  0  0
    8.0753   -9.0417    0.0000 O   0  0  0  0  0  0  0  0  0  0  0  0
    8.6477  -10.0312    0.0000 O   0  0  0  0  0  0  0  0  0  0  0  0
  1  2  1  0  0  0  0
  2  3  1  0  0  0  0
  3  4  2  0  0  0  0
  4  5  1  0  0  0  0
  5  6  1  0  0  0  0
  6  1  1  0  0  0  0
  3  7  1  0  0  0  0
  7  8  2  0  0  0  0
  7  9  1  0  0  0  0
  6 10  1  6  0  0  0
  5 11  1  6  0  0  0
 12 13  2  0  0  0  0
 13 14  1  0  0  0  0
 14 15  2  0  0  0  0
 15 16  1  0  0  0  0
 16 17  2  0  0  0  0
 17 12  1  0  0  0  0
 14 18  1  0  0  0  0
 13 19  1  0  0  0  0
 17 20  1  0  0  0  0
 20 21  2  0  0  0  0
 21 22  1  0  0  0  0
 22 23  2  0  0  0  0
 24 25  2  0  0  0  0
 25 26  1  0  0  0  0
 26 27  2  0  0  0  0
 27 28  1  0  0  0  0
 28 29  2  0  0  0  0
 29 24  1  0  0  0  0
 26 30  1  0  0  0  0
 25 31  1  0  0  0  0
 29 32  1  0  0  0  0
 32 33  2  0  0  0  0
 33 34  1  0  0  0  0
 34 35  2  0  0  0  0
 36 37  2  0  0  0  0
 37 38  1  0  0  0  0
 38 39  2  0  0  0  0
 39 40  1  0  0  0  0
 40 41  2  0  0  0  0
 41 36  1  0  0  0  0
 38 42  1  0  0  0  0
 37 43  1  0  0  0  0
 41 44  1  0  0  0  0
 44 45  2  0  0  0  0
 45 46  1  0  0  0  0
 46 47  1  0  0  0  0
 46 48  2  0  0  0  0
 22 11  1  0  0  0  0
 34 10  1  0  0  0  0
  1 47  1  1  0  0  0
M  END
>  <cdx:fragmentId>
5

$$$$
