60012.cdx
  Mrv1902 05222410212D          

 39 41  0  0  0  0            999 V2000
    6.7631   -7.6851    0.0000 C   0  0  0  0  0  0  0  0  0  0  0  0
    6.7631   -8.5101    0.0000 C   0  0  2  0  0  0  0  0  0  0  0  0
    7.4775   -8.9226    0.0000 C   0  0  1  0  0  0  0  0  0  0  0  0
    8.1920   -8.5101    0.0000 C   0  0  1  0  0  0  0  0  0  0  0  0
    8.1920   -7.6851    0.0000 C   0  0  0  0  0  0  0  0  0  0  0  0
    7.4775   -7.2726    0.0000 C   0  0  2  0  0  0  0  0  0  0  0  0
    7.0650   -6.5582    0.0000 O   0  0  0  0  0  0  0  0  0  0  0  0
    7.8900   -6.5582    0.0000 C   0  0  0  0  0  0  0  0  0  0  0  0
    7.4775   -5.8437    0.0000 O   0  0  0  0  0  0  0  0  0  0  0  0
    8.7150   -6.5582    0.0000 O   0  0  0  0  0  0  0  0  0  0  0  0
    6.0486   -8.9226    0.0000 O   0  0  0  0  0  0  0  0  0  0  0  0
    5.3341   -8.5101    0.0000 C   0  0  0  0  0  0  0  0  0  0  0  0
    4.6196   -8.9226    0.0000 C   0  0  0  0  0  0  0  0  0  0  0  0
    3.9052   -8.5101    0.0000 C   0  0  0  0  0  0  0  0  0  0  0  0
    3.1907   -8.9226    0.0000 C   0  0  0  0  0  0  0  0  0  0  0  0
    5.3341   -7.6851    0.0000 O   0  0  0  0  0  0  0  0  0  0  0  0
    2.4762   -8.5101    0.0000 C   0  0  0  0  0  0  0  0  0  0  0  0
    1.7618   -8.9226    0.0000 C   0  0  0  0  0  0  0  0  0  0  0  0
    1.7618   -9.7476    0.0000 C   0  0  0  0  0  0  0  0  0  0  0  0
    2.4762  -10.1601    0.0000 C   0  0  0  0  0  0  0  0  0  0  0  0
    3.1907   -9.7476    0.0000 C   0  0  0  0  0  0  0  0  0  0  0  0
    1.0473  -10.1601    0.0000 O   0  0  0  0  0  0  0  0  0  0  0  0
    1.0473   -8.5101    0.0000 O   0  0  0  0  0  0  0  0  0  0  0  0
    1.0473   -7.6851    0.0000 C   0  0  0  0  0  0  0  0  0  0  0  0
    7.4775   -9.7476    0.0000 O   0  0  0  0  0  0  0  0  0  0  0  0
    8.9065   -8.9226    0.0000 O   0  0  0  0  0  0  0  0  0  0  0  0
    9.6269   -9.3388    0.0000 C   0  0  0  0  0  0  0  0  0  0  0  0
   10.3411   -8.9259    0.0000 C   0  0  0  0  0  0  0  0  0  0  0  0
   11.0558   -9.3379    0.0000 C   0  0  0  0  0  0  0  0  0  0  0  0
   11.7700   -8.9250    0.0000 C   0  0  0  0  0  0  0  0  0  0  0  0
    9.6274  -10.1638    0.0000 O   0  0  0  0  0  0  0  0  0  0  0  0
   12.4848   -9.3370    0.0000 C   0  0  0  0  0  0  0  0  0  0  0  0
   13.1990   -8.9241    0.0000 C   0  0  0  0  0  0  0  0  0  0  0  0
   13.1984   -8.0991    0.0000 C   0  0  0  0  0  0  0  0  0  0  0  0
   12.4837   -7.6870    0.0000 C   0  0  0  0  0  0  0  0  0  0  0  0
   11.7695   -8.1000    0.0000 C   0  0  0  0  0  0  0  0  0  0  0  0
   13.9127   -7.6861    0.0000 O   0  0  0  0  0  0  0  0  0  0  0  0
   13.9137   -9.3361    0.0000 O   0  0  0  0  0  0  0  0  0  0  0  0
   13.9142  -10.1611    0.0000 C   0  0  0  0  0  0  0  0  0  0  0  0
  1  2  1  0  0  0  0
  2  3  1  0  0  0  0
  3  4  1  0  0  0  0
  4  5  1  0  0  0  0
  5  6  1  0  0  0  0
  6  1  1  0  0  0  0
  6  7  1  1  0  0  0
  6  8  1  0  0  0  0
  8  9  2  0  0  0  0
  8 10  1  0  0  0  0
  2 11  1  6  0  0  0
 11 12  1  0  0  0  0
 12 13  1  0  0  0  0
 13 14  2  0  0  0  0
 14 15  1  0  0  0  0
 12 16  2  0  0  0  0
 15 17  2  0  0  0  0
 17 18  1  0  0  0  0
 18 19  2  0  0  0  0
 19 20  1  0  0  0  0
 20 21  2  0  0  0  0
 21 15  1  0  0  0  0
 19 22  1  0  0  0  0
 18 23  1  0  0  0  0
 23 24  1  0  0  0  0
  3 25  1  1  0  0  0
  4 26  1  1  0  0  0
 27 28  1  0  0  0  0
 28 29  2  0  0  0  0
 29 30  1  0  0  0  0
 27 31  2  0  0  0  0
 30 32  2  0  0  0  0
 32 33  1  0  0  0  0
 33 34  2  0  0  0  0
 34 35  1  0  0  0  0
 35 36  2  0  0  0  0
 36 30  1  0  0  0  0
 34 37  1  0  0  0  0
 33 38  1  0  0  0  0
 38 39  1  0  0  0  0
 27 26  1  0  0  0  0
M  END
>  <cdx:fragmentId>
5

$$$$
