60019.cdx
  Mrv1902 05222410232D          

 44 50  0  0  0  0            999 V2000
    7.4995  -10.2126    0.0000 C   0  0  2  0  0  0  0  0  0  0  0  0
    6.7237  -10.4976    0.0000 C   0  0  2  0  0  0  0  0  0  0  0  0
    7.9083   -9.4972    0.0000 C   0  0  0  0  0  0  0  0  0  0  0  0
    7.7640   -8.6831    0.0000 C   0  0  0  0  0  0  0  0  0  0  0  0
    7.1296   -8.1575    0.0000 C   0  0  1  0  0  0  0  0  0  0  0  0
    6.3046   -8.1510    0.0000 C   0  0  2  0  0  0  0  0  0  0  0  0
    5.6707   -8.6801    0.0000 C   0  0  1  0  0  0  0  0  0  0  0  0
    5.5298   -9.4925    0.0000 C   0  0  0  0  0  0  0  0  0  0  0  0
    5.9525  -10.2004    0.0000 C   0  0  1  0  0  0  0  0  0  0  0  0
    7.5478   -7.4464    0.0000 C   0  0  2  0  0  0  0  0  0  0  0  0
    7.1296   -6.7287    0.0000 C   0  0  0  0  0  0  0  0  0  0  0  0
    6.3046   -6.7287    0.0000 C   0  0  0  0  0  0  0  0  0  0  0  0
    5.8865   -7.4464    0.0000 C   0  0  1  0  0  0  0  0  0  0  0  0
    8.3784   -7.4464    0.0000 C   0  0  0  0  0  0  0  0  0  0  0  0
    8.7909   -6.7287    0.0000 C   0  0  0  0  0  0  0  0  0  0  0  0
    8.3784   -6.0109    0.0000 C   0  0  0  0  0  0  0  0  0  0  0  0
    7.5478   -6.0109    0.0000 C   0  0  0  0  0  0  0  0  0  0  0  0
    8.7916   -8.1604    0.0000 O   0  0  0  0  0  0  0  0  0  0  0  0
    4.7329   -9.2789    0.0000 O   0  0  0  0  0  0  0  0  0  0  0  0
    6.3799  -11.1984    0.0000 C   0  0  2  0  0  0  0  0  0  0  0  0
    5.2656  -10.3451    0.0000 C   0  0  2  0  0  0  0  0  0  0  0  0
    5.5693  -11.4256    0.0000 C   0  0  1  0  0  0  0  0  0  0  0  0
    4.9081  -10.9771    0.0000 C   0  0  0  0  0  0  0  0  0  0  0  0
    4.3587  -10.6274    0.0000 C   0  0  0  0  0  0  0  0  0  0  0  0
    4.5799  -11.7079    0.0000 O   0  0  0  0  0  0  0  0  0  0  0  0
    4.2075  -11.2044    0.0000 C   0  0  0  0  0  0  0  0  0  0  0  0
    3.8565   -9.9729    0.0000 C   0  0  0  0  0  0  0  0  0  0  0  0
    3.3513  -11.3741    0.0000 O   0  0  0  0  0  0  0  0  0  0  0  0
    8.0829  -10.7959    0.0000 C   0  0  0  0  0  0  0  0  0  0  0  0
    7.3144  -11.7621    0.0000 O   0  0  0  0  0  0  0  0  0  0  0  0
    8.9070  -10.8355    0.0000 O   0  0  0  0  0  0  0  0  0  0  0  0
    5.0615   -7.4497    0.0000 O   0  0  0  0  0  0  0  0  0  0  0  0
    7.9265   -8.3711    0.0000 H   0  0  0  0  0  0  0  0  0  0  0  0
    4.9562   -8.2676    0.0000 O   0  0  0  0  0  0  0  0  0  0  0  0
    7.3287  -11.0471    0.0000 O   0  0  0  0  0  0  0  0  0  0  0  0
    6.7924  -11.9128    0.0000 C   0  0  0  0  0  0  0  0  0  0  0  0
    8.1311   -8.0297    0.0000 C   0  0  0  0  0  0  0  0  0  0  0  0
    5.5078   -8.3645    0.0000 H   0  0  0  0  0  0  0  0  0  0  0  0
    5.1556   -9.9868    0.0000 H   0  0  0  0  0  0  0  0  0  0  0  0
    4.5511   -9.9326    0.0000 C   0  0  0  0  0  0  0  0  0  0  0  0
    5.3558  -12.2225    0.0000 H   0  0  0  0  0  0  0  0  0  0  0  0
    8.2964   -9.9990    0.0000 O   0  0  0  0  0  0  0  0  0  0  0  0
    7.1367   -5.2956    0.0000 O   0  0  0  0  0  0  0  0  0  0  0  0
    6.3117   -5.2956    0.0000 C   0  0  0  0  0  0  0  0  0  0  0  0
  1  2  1  0  0  0  0
  1  3  1  0  0  0  0
  3  4  1  0  0  0  0
  4  5  1  0  0  0  0
  5  6  1  0  0  0  0
  6  7  1  0  0  0  0
  7  8  1  0  0  0  0
  8  9  1  0  0  0  0
  2  9  1  0  0  0  0
  5 10  1  0  0  0  0
 10 11  1  0  0  0  0
 11 12  2  0  0  0  0
 12 13  1  0  0  0  0
 13  6  1  0  0  0  0
 10 14  1  0  0  0  0
 14 15  1  0  0  0  0
 15 16  2  0  0  0  0
 16 17  1  0  0  0  0
 17 11  1  0  0  0  0
 14 18  2  0  0  0  0
  8 19  2  0  0  0  0
  2 20  1  0  0  0  0
  9 21  1  0  0  0  0
 20 22  1  0  0  0  0
 21 23  1  0  0  0  0
 22 23  1  0  0  0  0
 21 24  1  0  0  0  0
 22 25  1  0  0  0  0
 24 26  1  0  0  0  0
 25 26  1  0  0  0  0
 24 27  2  0  0  0  0
 26 28  2  0  0  0  0
  1 29  1  0  0  0  0
 20 30  1  0  0  0  0
 30 29  1  0  0  0  0
 29 31  2  0  0  0  0
 13 32  1  6  0  0  0
  5 33  1  6  0  0  0
  7 34  1  6  0  0  0
  2 35  1  6  0  0  0
 20 36  1  6  0  0  0
 10 37  1  1  0  0  0
  6 38  1  1  0  0  0
  9 39  1  1  0  0  0
 21 40  1  1  0  0  0
 22 41  1  1  0  0  0
  1 42  1  1  0  0  0
  7 35  1  0  0  0  0
 17 43  1  0  0  0  0
 43 44  1  0  0  0  0
M  END
>  <cdx:groupId>
738

>  <cdx:fragmentId>
739

$$$$
