60015.cdx
  Mrv1902 05222410232D          

 13 13  0  0  0  0            999 V2000
    6.3093   -6.4064    0.0000 C   0  0  0  0  0  0  0  0  0  0  0  0
    6.3093   -7.2314    0.0000 C   0  0  0  0  0  0  0  0  0  0  0  0
    7.0238   -7.6439    0.0000 C   0  0  0  0  0  0  0  0  0  0  0  0
    7.7382   -7.2314    0.0000 C   0  0  0  0  0  0  0  0  0  0  0  0
    7.7382   -6.4064    0.0000 C   0  0  0  0  0  0  0  0  0  0  0  0
    7.0238   -5.9939    0.0000 C   0  0  0  0  0  0  0  0  0  0  0  0
    8.4527   -5.9939    0.0000 C   0  0  0  0  0  0  0  0  0  0  0  0
    9.1672   -6.4064    0.0000 O   0  0  0  0  0  0  0  0  0  0  0  0
    8.4527   -5.1689    0.0000 O   0  0  0  0  0  0  0  0  0  0  0  0
    7.0238   -8.4689    0.0000 O   0  0  0  0  0  0  0  0  0  0  0  0
    8.4527   -7.6439    0.0000 C   0  0  0  0  0  0  0  0  0  0  0  0
    6.6113   -5.2794    0.0000 C   0  0  0  0  0  0  0  0  0  0  0  0
    7.4363   -5.2794    0.0000 C   0  0  0  0  0  0  0  0  0  0  0  0
  1  2  1  0  0  0  0
  2  3  1  0  0  0  0
  3  4  1  0  0  0  0
  4  5  2  0  0  0  0
  5  6  1  0  0  0  0
  6  1  1  0  0  0  0
  5  7  1  0  0  0  0
  7  8  1  0  0  0  0
  7  9  2  0  0  0  0
  3 10  1  0  0  0  0
  4 11  1  0  0  0  0
  6 12  1  0  0  0  0
  6 13  1  0  0  0  0
M  END
>  <cdx:fragmentId>
5

$$$$
