60014.cdx
  Mrv1902 05222410222D          

 20 22  0  0  0  0            999 V2000
    5.5434   -8.8478    0.0000 C   0  0  0  0  0  0  0  0  0  0  0  0
    5.5317   -8.0229    0.0000 O   0  0  0  0  0  0  0  0  0  0  0  0
    6.2050   -5.1255    0.0000 C   0  0  0  0  0  0  0  0  0  0  0  0
    6.9253   -5.5278    0.0000 O   0  0  0  0  0  0  0  0  0  0  0  0
    7.6338   -5.1052    0.0000 O   0  0  0  0  0  0  0  0  0  0  0  0
    5.5082   -6.3731    0.0000 O   0  0  0  0  0  0  0  0  0  0  0  0
    7.6690   -7.5800    0.0000 C   0  0  0  0  0  0  0  0  0  0  0  0
    8.3893   -7.9822    0.0000 C   0  0  0  0  0  0  0  0  0  0  0  0
    9.0978   -7.5596    0.0000 C   0  0  0  0  0  0  0  0  0  0  0  0
    9.0861   -6.7347    0.0000 C   0  0  0  0  0  0  0  0  0  0  0  0
    9.7946   -6.3121    0.0000 C   0  0  0  0  0  0  0  0  0  0  0  0
    9.7829   -5.4872    0.0000 C   0  0  0  0  0  0  0  0  0  0  0  0
    9.0626   -5.0849    0.0000 C   0  0  0  0  0  0  0  0  0  0  0  0
    8.3541   -5.5075    0.0000 C   0  0  0  0  0  0  0  0  0  0  0  0
    8.3658   -6.3324    0.0000 C   0  0  0  0  0  0  0  0  0  0  0  0
    7.6573   -6.7550    0.0000 C   0  0  0  0  0  0  0  0  0  0  0  0
    6.9370   -6.3527    0.0000 C   0  0  0  0  0  0  0  0  0  0  0  0
    6.2285   -6.7754    0.0000 C   0  0  0  0  0  0  0  0  0  0  0  0
    6.2402   -7.6003    0.0000 C   0  0  0  0  0  0  0  0  0  0  0  0
    6.9605   -8.0026    0.0000 C   0  0  0  0  0  0  0  0  0  0  0  0
 19  2  1  0  0  0  0
  2  1  1  0  0  0  0
 17  4  1  0  0  0  0
  4  3  1  0  0  0  0
 14  5  1  0  0  0  0
 18  6  1  0  0  0  0
 16  7  1  0  0  0  0
 20  7  2  0  0  0  0
  8  7  1  0  0  0  0
  9  8  2  0  0  0  0
 10  9  1  0  0  0  0
 15 10  1  0  0  0  0
 11 10  2  0  0  0  0
 12 11  1  0  0  0  0
 13 12  2  0  0  0  0
 14 13  1  0  0  0  0
 15 14  2  0  0  0  0
 16 15  1  0  0  0  0
 17 16  2  0  0  0  0
 18 17  1  0  0  0  0
 19 18  2  0  0  0  0
 20 19  1  0  0  0  0
M  END
>  <cdx:fragmentId>
163125

$$$$
