60018.cdx
  Mrv1902 05222410232D          

 43 45  0  0  0  0            999 V2000
    2.5318   -6.2139    0.0000 O   0  0  0  0  0  0  0  0  0  0  0  0
    3.9607   -6.2139    0.0000 O   0  0  0  0  0  0  0  0  0  0  0  0
    1.8173   -7.4514    0.0000 O   0  0  0  0  0  0  0  0  0  0  0  0
    2.5318   -7.0389    0.0000 C   0  0  0  0  0  0  0  0  0  0  0  0
    3.2462   -7.4514    0.0000 C   0  0  0  0  0  0  0  0  0  0  0  0
    3.9607   -7.0389    0.0000 C   0  0  0  0  0  0  0  0  0  0  0  0
    4.6752   -7.4514    0.0000 O   0  0  0  0  0  0  0  0  0  0  0  0
    6.1041   -5.8014    0.0000 C   0  0  2  0  0  0  0  0  0  0  0  0
    6.5166   -5.0869    0.0000 C   0  0  0  0  0  0  0  0  0  0  0  0
    7.3416   -5.0869    0.0000 O   0  0  0  0  0  0  0  0  0  0  0  0
    6.1041   -4.3725    0.0000 O   0  0  0  0  0  0  0  0  0  0  0  0
    5.6916   -5.0869    0.0000 O   0  0  0  0  0  0  0  0  0  0  0  0
    8.9620  -12.4014    0.0000 O   0  0  0  0  0  0  0  0  0  0  0  0
    7.5331  -13.2264    0.0000 O   0  0  0  0  0  0  0  0  0  0  0  0
    8.2475   -6.2139    0.0000 O   0  0  0  0  0  0  0  0  0  0  0  0
   12.5344   -8.6889    0.0000 O   0  0  0  0  0  0  0  0  0  0  0  0
   12.5344   -7.0389    0.0000 O   0  0  0  0  0  0  0  0  0  0  0  0
    6.8186  -11.9889    0.0000 C   0  0  0  0  0  0  0  0  0  0  0  0
    7.5331  -12.4014    0.0000 C   0  0  0  0  0  0  0  0  0  0  0  0
    8.2475  -11.9889    0.0000 C   0  0  0  0  0  0  0  0  0  0  0  0
    8.2475  -11.1639    0.0000 C   0  0  0  0  0  0  0  0  0  0  0  0
    6.8186  -11.1639    0.0000 C   0  0  0  0  0  0  0  0  0  0  0  0
    7.5331  -10.7514    0.0000 C   0  0  0  0  0  0  0  0  0  0  0  0
    6.8186   -9.5139    0.0000 C   0  0  0  0  0  0  0  0  0  0  0  0
    7.5331   -9.9264    0.0000 C   0  0  0  0  0  0  0  0  0  0  0  0
   11.1054   -8.6889    0.0000 C   0  0  0  0  0  0  0  0  0  0  0  0
   11.8199   -8.2764    0.0000 C   0  0  0  0  0  0  0  0  0  0  0  0
   11.8199   -7.4514    0.0000 C   0  0  0  0  0  0  0  0  0  0  0  0
   11.1054   -7.0389    0.0000 C   0  0  0  0  0  0  0  0  0  0  0  0
   10.3909   -8.2764    0.0000 C   0  0  0  0  0  0  0  0  0  0  0  0
   10.3909   -7.4514    0.0000 C   0  0  0  0  0  0  0  0  0  0  0  0
    9.6765   -7.0389    0.0000 C   0  0  0  0  0  0  0  0  0  0  0  0
    8.9620   -7.4514    0.0000 C   0  0  0  0  0  0  0  0  0  0  0  0
    8.2475   -7.0389    0.0000 C   0  0  0  0  0  0  0  0  0  0  0  0
    6.1041   -8.2764    0.0000 O   0  0  0  0  0  0  0  0  0  0  0  0
    6.8186   -8.6889    0.0000 C   0  0  0  0  0  0  0  0  0  0  0  0
    7.5331   -8.2764    0.0000 O   0  0  0  0  0  0  0  0  0  0  0  0
    7.5331   -7.4514    0.0000 O   0  0  0  0  0  0  0  0  0  0  0  0
    5.3896   -6.2139    0.0000 C   0  0  0  0  0  0  0  0  0  0  0  0
    5.3896   -7.0389    0.0000 C   0  0  2  0  0  0  0  0  0  0  0  0
    6.1041   -7.4514    0.0000 C   0  0  2  0  0  0  0  0  0  0  0  0
    6.8186   -7.0389    0.0000 C   0  0  1  0  0  0  0  0  0  0  0  0
    6.8186   -6.2139    0.0000 C   0  0  0  0  0  0  0  0  0  0  0  0
  4  1  2  0  0  0  0
  6  2  2  0  0  0  0
  4  3  1  0  0  0  0
  5  4  1  0  0  0  0
  6  5  1  0  0  0  0
  7  6  1  0  0  0  0
 40  7  1  6  0  0  0
  8  9  1  0  0  0  0
  9 10  1  0  0  0  0
  9 11  2  0  0  0  0
 20 13  1  0  0  0  0
 19 14  1  0  0  0  0
 34 15  2  0  0  0  0
 27 16  1  0  0  0  0
 28 17  1  0  0  0  0
 18 22  2  0  0  0  0
 19 18  1  0  0  0  0
 20 19  2  0  0  0  0
 21 20  1  0  0  0  0
 23 21  2  0  0  0  0
 23 22  1  0  0  0  0
 25 23  1  0  0  0  0
 24 36  1  0  0  0  0
 25 24  2  0  0  0  0
 26 30  2  0  0  0  0
 27 26  1  0  0  0  0
 28 27  2  0  0  0  0
 29 28  1  0  0  0  0
 31 29  2  0  0  0  0
 31 30  1  0  0  0  0
 32 31  1  0  0  0  0
 33 32  2  0  0  0  0
 34 33  1  0  0  0  0
 38 34  1  0  0  0  0
 41 35  1  6  0  0  0
 36 35  1  0  0  0  0
 37 36  2  0  0  0  0
 42 38  1  1  0  0  0
  8 43  1  0  0  0  0
 39  8  1  0  0  0  0
 40 39  1  0  0  0  0
 41 40  1  0  0  0  0
 42 41  1  0  0  0  0
 43 42  1  0  0  0  0
  8 12  1  6  0  0  0
M  END
>  <cdx:fragmentId>
5

$$$$
