60010.cdx
  Mrv1902 05222410212D          

 39 42  0  0  0  0            999 V2000
    1.6756   -6.9701    0.0000 C   0  0  0  0  0  0  0  0  0  0  0  0
    1.6756   -7.7951    0.0000 C   0  0  0  0  0  0  0  0  0  0  0  0
    2.3900   -8.2076    0.0000 C   0  0  0  0  0  0  0  0  0  0  0  0
    3.1045   -7.7951    0.0000 C   0  0  0  0  0  0  0  0  0  0  0  0
    3.1045   -6.9701    0.0000 C   0  0  0  0  0  0  0  0  0  0  0  0
    2.3900   -6.5576    0.0000 C   0  0  0  0  0  0  0  0  0  0  0  0
    2.3900   -9.0326    0.0000 O   0  0  0  0  0  0  0  0  0  0  0  0
    2.3900   -5.7326    0.0000 C   0  0  0  0  0  0  0  0  0  0  0  0
    3.1045   -5.3201    0.0000 C   0  0  0  0  0  0  0  0  0  0  0  0
    3.8190   -5.7326    0.0000 C   0  0  0  0  0  0  0  0  0  0  0  0
    3.8190   -6.5576    0.0000 C   0  0  0  0  0  0  0  0  0  0  0  0
    4.5334   -6.9701    0.0000 C   0  0  0  0  0  0  0  0  0  0  0  0
    5.2479   -6.5576    0.0000 C   0  0  0  0  0  0  0  0  0  0  0  0
    5.2479   -5.7326    0.0000 C   0  0  0  0  0  0  0  0  0  0  0  0
    4.5334   -5.3201    0.0000 C   0  0  0  0  0  0  0  0  0  0  0  0
    4.5334   -7.7951    0.0000 O   0  0  0  0  0  0  0  0  0  0  0  0
    5.9624   -5.3201    0.0000 O   0  0  0  0  0  0  0  0  0  0  0  0
    8.0244   -6.0025    0.0000 C   0  0  2  0  0  0  0  0  0  0  0  0
    8.4321   -5.2852    0.0000 C   0  0  2  0  0  0  0  0  0  0  0  0
    8.0147   -4.5736    0.0000 C   0  0  1  0  0  0  0  0  0  0  0  0
    7.1897   -4.5792    0.0000 C   0  0  2  0  0  0  0  0  0  0  0  0
    6.7821   -5.2965    0.0000 C   0  0  1  0  0  0  0  0  0  0  0  0
    7.1994   -6.0081    0.0000 O   0  0  0  0  0  0  0  0  0  0  0  0
    8.4418   -6.7141    0.0000 C   0  0  0  0  0  0  0  0  0  0  0  0
    8.4223   -3.8563    0.0000 O   0  0  0  0  0  0  0  0  0  0  0  0
    6.7724   -3.8676    0.0000 O   0  0  0  0  0  0  0  0  0  0  0  0
    9.2570   -5.2796    0.0000 O   0  0  0  0  0  0  0  0  0  0  0  0
    9.2668   -6.7085    0.0000 O   0  0  0  0  0  0  0  0  0  0  0  0
    9.6841   -7.4202    0.0000 C   0  0  0  0  0  0  0  0  0  0  0  0
   10.5091   -7.4146    0.0000 O   0  0  0  0  0  0  0  0  0  0  0  0
    9.2765   -8.1374    0.0000 C   0  0  0  0  0  0  0  0  0  0  0  0
    8.4515   -8.1431    0.0000 C   0  0  0  0  0  0  0  0  0  0  0  0
    8.0439   -8.8603    0.0000 C   0  0  0  0  0  0  0  0  0  0  0  0
    8.4612   -9.5720    0.0000 C   0  0  0  0  0  0  0  0  0  0  0  0
    9.2862   -9.5664    0.0000 C   0  0  0  0  0  0  0  0  0  0  0  0
    9.6938   -8.8491    0.0000 C   0  0  0  0  0  0  0  0  0  0  0  0
    9.7035  -10.2780    0.0000 O   0  0  0  0  0  0  0  0  0  0  0  0
    8.0536  -10.2892    0.0000 O   0  0  0  0  0  0  0  0  0  0  0  0
    7.2189   -8.8659    0.0000 O   0  0  0  0  0  0  0  0  0  0  0  0
  1  2  2  0  0  0  0
  2  3  1  0  0  0  0
  3  4  2  0  0  0  0
  4  5  1  0  0  0  0
  5  6  2  0  0  0  0
  6  1  1  0  0  0  0
  3  7  1  0  0  0  0
  6  8  1  0  0  0  0
  8  9  2  0  0  0  0
  9 10  1  0  0  0  0
 10 11  2  0  0  0  0
 11 12  1  0  0  0  0
 12 13  2  0  0  0  0
 13 14  1  0  0  0  0
 14 15  2  0  0  0  0
 15 10  1  0  0  0  0
 12 16  1  0  0  0  0
 14 17  1  0  0  0  0
 18 19  1  0  0  0  0
 19 20  1  0  0  0  0
 20 21  1  0  0  0  0
 21 22  1  0  0  0  0
 22 23  1  0  0  0  0
 23 18  1  0  0  0  0
 18 24  1  1  0  0  0
 20 25  1  1  0  0  0
 21 26  1  6  0  0  0
 19 27  1  6  0  0  0
 24 28  1  0  0  0  0
 28 29  1  0  0  0  0
 29 30  2  0  0  0  0
 29 31  1  0  0  0  0
 31 32  2  0  0  0  0
 32 33  1  0  0  0  0
 33 34  2  0  0  0  0
 34 35  1  0  0  0  0
 35 36  2  0  0  0  0
 36 31  1  0  0  0  0
 35 37  1  0  0  0  0
 34 38  1  0  0  0  0
 33 39  1  0  0  0  0
 22 17  1  1  0  0  0
M  END
>  <cdx:fragmentId>
116

$$$$
