60011.cdx
  Mrv1902 05222410202D          

 35 38  0  0  0  0            999 V2000
    4.7556   -5.4439    0.0000 C   0  0  0  0  0  0  0  0  0  0  0  0
    4.7556   -6.2689    0.0000 C   0  0  0  0  0  0  0  0  0  0  0  0
    5.4700   -6.6814    0.0000 C   0  0  0  0  0  0  0  0  0  0  0  0
    6.1845   -6.2689    0.0000 C   0  0  0  0  0  0  0  0  0  0  0  0
    6.1845   -5.4439    0.0000 C   0  0  0  0  0  0  0  0  0  0  0  0
    5.4700   -5.0314    0.0000 C   0  0  0  0  0  0  0  0  0  0  0  0
    6.8990   -6.6814    0.0000 C   0  0  0  0  0  0  0  0  0  0  0  0
    7.6134   -6.2689    0.0000 C   0  0  0  0  0  0  0  0  0  0  0  0
    7.6134   -5.4439    0.0000 C   0  0  0  0  0  0  0  0  0  0  0  0
    6.8990   -5.0314    0.0000 O   0  0  0  0  0  0  0  0  0  0  0  0
    9.0424   -5.4439    0.0000 C   0  0  0  0  0  0  0  0  0  0  0  0
    8.3279   -5.0314    0.0000 C   0  0  0  0  0  0  0  0  0  0  0  0
    9.7569   -5.0314    0.0000 C   0  0  0  0  0  0  0  0  0  0  0  0
    9.7569   -4.2064    0.0000 C   0  0  0  0  0  0  0  0  0  0  0  0
    9.0424   -3.7939    0.0000 C   0  0  0  0  0  0  0  0  0  0  0  0
    8.3279   -4.2064    0.0000 C   0  0  0  0  0  0  0  0  0  0  0  0
    6.8990   -7.5064    0.0000 O   0  0  0  0  0  0  0  0  0  0  0  0
    8.3279   -6.6814    0.0000 O   0  0  0  0  0  0  0  0  0  0  0  0
    5.4700   -7.5064    0.0000 O   0  0  0  0  0  0  0  0  0  0  0  0
   10.4713   -3.7939    0.0000 O   0  0  0  0  0  0  0  0  0  0  0  0
    9.0424   -2.9689    0.0000 O   0  0  0  0  0  0  0  0  0  0  0  0
    9.7569   -2.5564    0.0000 C   0  0  0  0  0  0  0  0  0  0  0  0
    4.0411   -5.0314    0.0000 O   0  0  0  0  0  0  0  0  0  0  0  0
    3.3266   -5.4439    0.0000 C   0  0  0  0  0  0  0  0  0  0  0  0
    8.3279   -7.5064    0.0000 C   0  0  2  0  0  0  0  0  0  0  0  0
    7.6134   -7.9189    0.0000 O   0  0  0  0  0  0  0  0  0  0  0  0
    7.6134   -8.7439    0.0000 C   0  0  1  0  0  0  0  0  0  0  0  0
    8.3279   -9.1564    0.0000 C   0  0  2  0  0  0  0  0  0  0  0  0
    9.0424   -8.7439    0.0000 C   0  0  1  0  0  0  0  0  0  0  0  0
    9.0424   -7.9189    0.0000 C   0  0  1  0  0  0  0  0  0  0  0  0
    6.8990   -9.1564    0.0000 C   0  0  0  0  0  0  0  0  0  0  0  0
    9.7569   -9.1564    0.0000 O   0  0  0  0  0  0  0  0  0  0  0  0
    9.7569   -7.5064    0.0000 O   0  0  0  0  0  0  0  0  0  0  0  0
    8.3279   -9.9814    0.0000 O   0  0  0  0  0  0  0  0  0  0  0  0
    6.8990   -9.9814    0.0000 O   0  0  0  0  0  0  0  0  0  0  0  0
  1  2  2  0  0  0  0
  2  3  1  0  0  0  0
  3  4  2  0  0  0  0
  4  5  1  0  0  0  0
  5  6  2  0  0  0  0
  6  1  1  0  0  0  0
  4  7  1  0  0  0  0
  7  8  1  0  0  0  0
  8  9  1  0  0  0  0
  9 10  1  0  0  0  0
 10  5  1  0  0  0  0
 11 12  2  0  0  0  0
 12  9  1  0  0  0  0
 11 13  1  0  0  0  0
 13 14  2  0  0  0  0
 14 15  1  0  0  0  0
 15 16  2  0  0  0  0
 16 12  1  0  0  0  0
  7 17  2  0  0  0  0
  8 18  1  0  0  0  0
  3 19  1  0  0  0  0
 14 20  1  0  0  0  0
 15 21  1  0  0  0  0
 21 22  1  0  0  0  0
  1 23  1  0  0  0  0
 23 24  1  0  0  0  0
 25 18  1  1  0  0  0
 25 26  1  0  0  0  0
 26 27  1  0  0  0  0
 27 28  1  0  0  0  0
 28 29  1  0  0  0  0
 29 30  1  0  0  0  0
 30 25  1  0  0  0  0
 27 31  1  1  0  0  0
 29 32  1  1  0  0  0
 30 33  1  6  0  0  0
 28 34  1  6  0  0  0
 31 35  1  0  0  0  0
M  END
>  <cdx:fragmentId>
5

$$$$
