15060135.cdx
  Mrv1902 05222410232D          

 26 28  0  0  0  0            999 V2000
    6.3740  -16.1721    0.0000 O   0  0  0  0  0  0  0  0  0  0  0  0
    6.8589  -15.5047    0.0000 C   0  0  0  0  0  0  0  0  0  0  0  0
    6.3740  -14.8372    0.0000 C   0  0  0  0  0  0  0  0  0  0  0  0
    5.5894  -15.0922    0.0000 C   0  0  0  0  0  0  0  0  0  0  0  0
    4.8749  -14.6797    0.0000 C   0  0  0  0  0  0  0  0  0  0  0  0
    4.1604  -15.0922    0.0000 C   0  0  0  0  0  0  0  0  0  0  0  0
    4.1604  -15.9172    0.0000 C   0  0  0  0  0  0  0  0  0  0  0  0
    4.8749  -16.3297    0.0000 C   0  0  0  0  0  0  0  0  0  0  0  0
    5.5894  -15.9172    0.0000 C   0  0  0  0  0  0  0  0  0  0  0  0
    6.6289  -14.0526    0.0000 O   0  0  0  0  0  0  0  0  0  0  0  0
    3.4459  -16.3297    0.0000 O   0  0  0  0  0  0  0  0  0  0  0  0
    7.6839  -15.5047    0.0000 C   0  0  0  0  0  0  0  0  0  0  0  0
    8.0964  -14.7902    0.0000 C   0  0  0  0  0  0  0  0  0  0  0  0
    8.9214  -14.7902    0.0000 C   0  0  0  0  0  0  0  0  0  0  0  0
    9.3339  -15.5047    0.0000 C   0  0  0  0  0  0  0  0  0  0  0  0
    8.9214  -16.2191    0.0000 C   0  0  0  0  0  0  0  0  0  0  0  0
    8.0964  -16.2191    0.0000 C   0  0  0  0  0  0  0  0  0  0  0  0
    9.3339  -14.0757    0.0000 C   0  0  0  0  0  0  0  0  0  0  0  0
   10.1589  -14.0757    0.0000 C   0  0  0  0  0  0  0  0  0  0  0  0
   10.5714  -13.3612    0.0000 C   0  0  0  0  0  0  0  0  0  0  0  0
   10.1589  -12.6468    0.0000 C   0  0  0  0  0  0  0  0  0  0  0  0
   11.3964  -13.3612    0.0000 C   0  0  0  0  0  0  0  0  0  0  0  0
    7.6839  -14.0757    0.0000 O   0  0  0  0  0  0  0  0  0  0  0  0
    8.0964  -13.3612    0.0000 C   0  0  0  0  0  0  0  0  0  0  0  0
    7.6839  -16.9336    0.0000 O   0  0  0  0  0  0  0  0  0  0  0  0
   10.1589  -15.5047    0.0000 O   0  0  0  0  0  0  0  0  0  0  0  0
  1  2  1  0  0  0  0
  2  3  1  0  0  0  0
  3  4  1  0  0  0  0
  4  5  1  0  0  0  0
  5  6  2  0  0  0  0
  6  7  1  0  0  0  0
  7  8  2  0  0  0  0
  8  9  1  0  0  0  0
  4  9  2  0  0  0  0
  1  9  1  0  0  0  0
  3 10  2  0  0  0  0
  7 11  1  0  0  0  0
 12 13  1  0  0  0  0
 13 14  2  0  0  0  0
 14 15  1  0  0  0  0
 15 16  2  0  0  0  0
 16 17  1  0  0  0  0
 12 17  2  0  0  0  0
 18 19  1  0  0  0  0
 19 20  2  0  0  0  0
 20 21  1  0  0  0  0
 20 22  1  0  0  0  0
 14 18  1  0  0  0  0
 23 24  1  0  0  0  0
 13 23  1  0  0  0  0
 17 25  1  0  0  0  0
 15 26  1  0  0  0  0
  2 12  1  0  0  0  0
M  END
>  <cdx:fragmentId>
110615

$$$$
