60029.cdx
  Mrv1902 05222410232D          

 11 11  0  0  0  0            999 V2000
    6.1443   -7.5614    0.0000 C   0  0  0  0  0  0  0  0  0  0  0  0
    6.1443   -8.3864    0.0000 C   0  0  0  0  0  0  0  0  0  0  0  0
    6.8588   -8.7989    0.0000 C   0  0  0  0  0  0  0  0  0  0  0  0
    7.5732   -8.3864    0.0000 C   0  0  0  0  0  0  0  0  0  0  0  0
    7.5732   -7.5614    0.0000 C   0  0  0  0  0  0  0  0  0  0  0  0
    6.8588   -7.1489    0.0000 C   0  0  0  0  0  0  0  0  0  0  0  0
    6.8588   -6.3239    0.0000 O   0  0  0  0  0  0  0  0  0  0  0  0
    8.2877   -7.1489    0.0000 O   0  0  0  0  0  0  0  0  0  0  0  0
    6.8588   -9.6239    0.0000 C   0  0  0  0  0  0  0  0  0  0  0  0
    7.5732  -10.0364    0.0000 O   0  0  0  0  0  0  0  0  0  0  0  0
    7.5732  -10.8614    0.0000 C   0  0  0  0  0  0  0  0  0  0  0  0
  1  2  2  0  0  0  0
  2  3  1  0  0  0  0
  3  4  2  0  0  0  0
  4  5  1  0  0  0  0
  5  6  2  0  0  0  0
  6  1  1  0  0  0  0
  6  7  1  0  0  0  0
  5  8  1  0  0  0  0
  3  9  1  0  0  0  0
  9 10  1  0  0  0  0
 10 11  1  0  0  0  0
M  END
>  <cdx:fragmentId>
5

$$$$
