60022.cdx
  Mrv1902 05222410252D          

 24 25  0  0  0  0            999 V2000
    5.7868   -5.4989    0.0000 C   0  0  2  0  0  0  0  0  0  0  0  0
    5.7868   -6.3239    0.0000 C   0  0  2  0  0  0  0  0  0  0  0  0
    6.5013   -6.7364    0.0000 C   0  0  1  0  0  0  0  0  0  0  0  0
    7.2157   -6.3239    0.0000 C   0  0  2  0  0  0  0  0  0  0  0  0
    7.2157   -5.4989    0.0000 C   0  0  2  0  0  0  0  0  0  0  0  0
    6.5013   -5.0864    0.0000 O   0  0  0  0  0  0  0  0  0  0  0  0
    5.0723   -5.0864    0.0000 C   0  0  0  0  0  0  0  0  0  0  0  0
    7.9302   -5.0864    0.0000 O   0  0  0  0  0  0  0  0  0  0  0  0
    6.5013   -7.5614    0.0000 O   0  0  0  0  0  0  0  0  0  0  0  0
    7.9302   -6.7364    0.0000 O   0  0  0  0  0  0  0  0  0  0  0  0
    5.0723   -6.7364    0.0000 O   0  0  0  0  0  0  0  0  0  0  0  0
    4.3579   -5.4989    0.0000 O   0  0  0  0  0  0  0  0  0  0  0  0
    8.5982  -10.4882    0.0000 C   0  0  0  0  0  0  0  0  0  0  0  0
    7.8906  -10.0640    0.0000 C   0  0  0  0  0  0  0  0  0  0  0  0
    7.1695  -10.4647    0.0000 C   0  0  0  0  0  0  0  0  0  0  0  0
    7.1559  -11.2896    0.0000 C   0  0  0  0  0  0  0  0  0  0  0  0
    7.8636  -11.7138    0.0000 C   0  0  0  0  0  0  0  0  0  0  0  0
    8.5847  -11.3130    0.0000 C   0  0  0  0  0  0  0  0  0  0  0  0
    7.8501  -12.5387    0.0000 O   0  0  0  0  0  0  0  0  0  0  0  0
    6.4348  -11.6904    0.0000 O   0  0  0  0  0  0  0  0  0  0  0  0
    7.9041   -9.2391    0.0000 C   0  0  0  0  0  0  0  0  0  0  0  0
    7.1965   -8.8150    0.0000 C   0  0  0  0  0  0  0  0  0  0  0  0
    7.2100   -7.9901    0.0000 C   0  0  0  0  0  0  0  0  0  0  0  0
    7.9311   -7.5893    0.0000 O   0  0  0  0  0  0  0  0  0  0  0  0
  1  2  1  0  0  0  0
  2  3  1  0  0  0  0
  3  4  1  0  0  0  0
  4  5  1  0  0  0  0
  5  6  1  0  0  0  0
  6  1  1  0  0  0  0
  1  7  1  1  0  0  0
  5  8  1  6  0  0  0
  4 10  1  6  0  0  0
  2 11  1  6  0  0  0
  7 12  1  0  0  0  0
 13 14  2  0  0  0  0
 14 15  1  0  0  0  0
 15 16  2  0  0  0  0
 16 17  1  0  0  0  0
 17 18  2  0  0  0  0
 18 13  1  0  0  0  0
 17 19  1  0  0  0  0
 16 20  1  0  0  0  0
 14 21  1  0  0  0  0
 21 22  2  0  0  0  0
 22 23  1  0  0  0  0
 23 24  2  0  0  0  0
  3  9  1  1  0  0  0
 23  9  1  0  0  0  0
M  END
>  <cdx:fragmentId>
5

$$$$
