600221.cdx
  Mrv1902 05222410202D          

 15 15  0  0  0  0            999 V2000
    7.3563   -6.8143    0.0000 C   0  0  0  0  0  0  0  0  0  0  0  0
    8.0707   -6.4018    0.0000 C   0  0  0  0  0  0  0  0  0  0  0  0
    8.0707   -5.5768    0.0000 C   0  0  0  0  0  0  0  0  0  0  0  0
    7.3563   -5.1643    0.0000 C   0  0  0  0  0  0  0  0  0  0  0  0
    8.7852   -6.8143    0.0000 C   0  0  0  0  0  0  0  0  0  0  0  0
    9.4997   -6.4018    0.0000 C   0  0  0  0  0  0  0  0  0  0  0  0
   10.2141   -6.8143    0.0000 C   0  0  0  0  0  0  0  0  0  0  0  0
    5.2128   -8.0518    0.0000 C   0  0  0  0  0  0  0  0  0  0  0  0
    5.2128   -3.9268    0.0000 C   0  0  0  0  0  0  0  0  0  0  0  0
    5.9273   -7.6393    0.0000 C   0  0  0  0  0  0  0  0  0  0  0  0
    5.9273   -6.8143    0.0000 C   0  0  0  0  0  0  0  0  0  0  0  0
    6.6418   -6.4018    0.0000 C   0  0  0  0  0  0  0  0  0  0  0  0
    5.9273   -4.3393    0.0000 C   0  0  0  0  0  0  0  0  0  0  0  0
    5.9273   -5.1643    0.0000 C   0  0  0  0  0  0  0  0  0  0  0  0
    6.6418   -5.5768    0.0000 C   0  0  0  0  0  0  0  0  0  0  0  0
 15 14  1  0  0  0  0
 12 11  1  0  0  0  0
 10  8  1  0  0  0  0
 11 10  1  0  0  0  0
 13  9  1  0  0  0  0
 14 13  1  0  0  0  0
 15 12  1  0  0  0  0
 12  1  2  0  0  0  0
  1  2  1  0  0  0  0
  2  3  2  0  0  0  0
  3  4  1  0  0  0  0
 15  4  2  0  0  0  0
  5  6  1  0  0  0  0
  6  7  1  0  0  0  0
  2  5  1  0  0  0  0
M  END
>  <cdx:fragmentId>
6993

$$$$
