60026.cdx
  Mrv1902 05222410242D          

 35 39  0  0  0  0            999 V2000
    4.4494  -10.1409    0.0000 C   0  0  1  0  0  0  0  0  0  0  0  0
    4.4494   -9.3159    0.0000 C   0  0  0  0  0  0  0  0  0  0  0  0
    5.1639   -8.9034    0.0000 C   0  0  0  0  0  0  0  0  0  0  0  0
    5.1639  -10.5534    0.0000 C   0  0  0  0  0  0  0  0  0  0  0  0
    5.5764  -11.2679    0.0000 C   0  0  0  0  0  0  0  0  0  0  0  0
    4.7514  -11.2679    0.0000 C   0  0  0  0  0  0  0  0  0  0  0  0
    5.8784  -10.1409    0.0000 C   0  0  2  0  0  0  0  0  0  0  0  0
    5.8784  -10.9659    0.0000 H   0  0  0  0  0  0  0  0  0  0  0  0
    6.5929  -10.5534    0.0000 C   0  0  0  0  0  0  0  0  0  0  0  0
    7.3073  -10.1409    0.0000 C   0  0  0  0  0  0  0  0  0  0  0  0
    7.3073   -9.3159    0.0000 C   0  0  1  0  0  0  0  0  0  0  0  0
    7.3073   -8.4909    0.0000 C   0  0  0  0  0  0  0  0  0  0  0  0
    8.0218   -8.9034    0.0000 C   0  0  2  0  0  0  0  0  0  0  0  0
    8.0218   -9.7284    0.0000 C   0  0  0  0  0  0  0  0  0  0  0  0
    8.7363   -9.3159    0.0000 C   0  0  0  0  0  0  0  0  0  0  0  0
    9.4507   -8.9034    0.0000 C   0  0  0  0  0  0  0  0  0  0  0  0
    9.4507   -8.0784    0.0000 C   0  0  1  0  0  0  0  0  0  0  0  0
   10.1652   -8.4909    0.0000 C   0  0  0  0  0  0  0  0  0  0  0  0
   10.1652   -7.6659    0.0000 C   0  0  0  0  0  0  0  0  0  0  0  0
   10.1652   -6.8409    0.0000 C   0  0  0  0  0  0  0  0  0  0  0  0
    9.4507   -6.4284    0.0000 C   0  0  1  0  0  0  0  0  0  0  0  0
    9.4507   -5.6034    0.0000 C   0  0  0  0  0  0  0  0  0  0  0  0
    8.7363   -6.8409    0.0000 C   0  0  2  0  0  0  0  0  0  0  0  0
    8.0218   -6.4284    0.0000 C   0  0  0  0  0  0  0  0  0  0  0  0
    8.7363   -7.6659    0.0000 C   0  0  1  0  0  0  0  0  0  0  0  0
    8.7363   -8.4909    0.0000 H   0  0  0  0  0  0  0  0  0  0  0  0
    8.0218   -8.0784    0.0000 C   0  0  0  0  0  0  0  0  0  0  0  0
    7.3073   -7.6659    0.0000 C   0  0  0  0  0  0  0  0  0  0  0  0
    6.5929   -8.0784    0.0000 C   0  0  0  0  0  0  0  0  0  0  0  0
    6.5929   -8.9034    0.0000 C   0  0  2  0  0  0  0  0  0  0  0  0
    5.8784   -9.3159    0.0000 C   0  0  1  0  0  0  0  0  0  0  0  0
    5.8784   -8.4909    0.0000 C   0  0  0  0  0  0  0  0  0  0  0  0
   10.1652   -9.3159    0.0000 O   0  0  0  0  0  0  0  0  0  0  0  0
    3.7350  -10.5534    0.0000 O   0  0  0  0  0  0  0  0  0  0  0  0
    6.5929   -9.7284    0.0000 H   0  0  0  0  0  0  0  0  0  0  0  0
  1  2  1  0  0  0  0
  2  3  1  0  0  0  0
  1  4  1  0  0  0  0
  4  5  1  0  0  0  0
  4  6  1  0  0  0  0
  4  7  1  0  0  0  0
  7  8  1  6  0  0  0
  7  9  1  0  0  0  0
  9 10  1  0  0  0  0
 10 11  1  0  0  0  0
 11 12  1  1  0  0  0
 11 13  1  0  0  0  0
 13 14  1  6  0  0  0
 13 15  1  0  0  0  0
 15 16  1  0  0  0  0
 16 17  1  0  0  0  0
 17 18  1  1  0  0  0
 17 19  1  0  0  0  0
 19 20  1  0  0  0  0
 20 21  1  0  0  0  0
 21 22  1  6  0  0  0
 21 23  1  0  0  0  0
 23 24  1  1  0  0  0
 23 25  1  0  0  0  0
 25 26  1  1  0  0  0
 17 25  1  0  0  0  0
 25 27  1  0  0  0  0
 13 27  1  0  0  0  0
 27 28  2  0  0  0  0
 28 29  1  0  0  0  0
 29 30  1  0  0  0  0
 11 30  1  0  0  0  0
 30 31  1  0  0  0  0
  3 31  1  0  0  0  0
  7 31  1  0  0  0  0
 31 32  1  1  0  0  0
 18 33  2  0  0  0  0
  1 34  1  1  0  0  0
 30 35  1  6  0  0  0
M  END
>  <cdx:fragmentId>
5

$$$$
