60033.cdx
  Mrv1902 05222410242D          

 13 13  0  0  0  0            999 V2000
    5.3778   -7.2336    0.0000 C   0  0  0  0  0  0  0  0  0  0  0  0
    4.6634   -7.6461    0.0000 C   0  0  0  0  0  0  0  0  0  0  0  0
    5.3778   -6.4086    0.0000 O   0  0  0  0  0  0  0  0  0  0  0  0
    6.0923   -7.6461    0.0000 O   0  0  0  0  0  0  0  0  0  0  0  0
    6.8068   -7.2336    0.0000 C   0  0  0  0  0  0  0  0  0  0  0  0
    6.8068   -6.4086    0.0000 C   0  0  0  0  0  0  0  0  0  0  0  0
    7.5213   -5.9961    0.0000 C   0  0  0  0  0  0  0  0  0  0  0  0
    8.2357   -6.4086    0.0000 C   0  0  0  0  0  0  0  0  0  0  0  0
    8.2357   -7.2336    0.0000 C   0  0  0  0  0  0  0  0  0  0  0  0
    7.5213   -7.6461    0.0000 C   0  0  0  0  0  0  0  0  0  0  0  0
    8.9502   -5.9961    0.0000 C   0  0  0  0  0  0  0  0  0  0  0  0
    9.6647   -6.4086    0.0000 C   0  0  0  0  0  0  0  0  0  0  0  0
   10.3791   -5.9961    0.0000 C   0  0  0  0  0  0  0  0  0  0  0  0
  1  2  1  0  0  0  0
  1  3  2  0  0  0  0
  1  4  1  0  0  0  0
  5  6  1  0  0  0  0
  6  7  2  0  0  0  0
  7  8  1  0  0  0  0
  8  9  2  0  0  0  0
  9 10  1  0  0  0  0
  5 10  2  0  0  0  0
 11 12  1  0  0  0  0
 12 13  2  0  0  0  0
  8 11  1  0  0  0  0
  4  5  1  0  0  0  0
M  END
>  <cdx:fragmentId>
27744

$$$$
