60032.cdx
  Mrv1902 05222410242D          

 23 24  0  0  0  0            999 V2000
    3.3806  -10.2289    0.0000 O   0  0  0  0  0  0  0  0  0  0  0  0
    4.0950  -11.4664    0.0000 O   0  0  0  0  0  0  0  0  0  0  0  0
    4.8095  -11.0539    0.0000 C   0  0  2  0  0  0  0  0  0  0  0  0
    4.8095  -10.2289    0.0000 C   0  0  1  0  0  0  0  0  0  0  0  0
    4.0950   -9.8164    0.0000 C   0  0  0  0  0  0  0  0  0  0  0  0
    5.5240  -11.4664    0.0000 C   0  0  1  0  0  0  0  0  0  0  0  0
    6.2384  -11.0539    0.0000 C   0  0  2  0  0  0  0  0  0  0  0  0
    6.2384  -10.2289    0.0000 C   0  0  1  0  0  0  0  0  0  0  0  0
    5.5240   -9.8164    0.0000 O   0  0  0  0  0  0  0  0  0  0  0  0
    6.9529   -9.8164    0.0000 O   0  0  0  0  0  0  0  0  0  0  0  0
    6.9529   -8.9914    0.0000 C   0  0  0  0  0  0  0  0  0  0  0  0
    6.2384   -8.5789    0.0000 C   0  0  0  0  0  0  0  0  0  0  0  0
    7.6674   -8.5789    0.0000 C   0  0  0  0  0  0  0  0  0  0  0  0
    7.6674   -7.7539    0.0000 C   0  0  0  0  0  0  0  0  0  0  0  0
    6.9529   -7.3414    0.0000 C   0  0  0  0  0  0  0  0  0  0  0  0
    6.2384   -7.7539    0.0000 C   0  0  0  0  0  0  0  0  0  0  0  0
    8.3819   -8.9914    0.0000 O   0  0  0  0  0  0  0  0  0  0  0  0
    9.0963   -8.5789    0.0000 C   0  0  0  0  0  0  0  0  0  0  0  0
    5.5240  -12.2914    0.0000 O   0  0  0  0  0  0  0  0  0  0  0  0
    6.9529  -11.4664    0.0000 O   0  0  0  0  0  0  0  0  0  0  0  0
    6.9529   -6.5164    0.0000 C   0  0  0  0  0  0  0  0  0  0  0  0
    7.6674   -6.1039    0.0000 C   0  0  0  0  0  0  0  0  0  0  0  0
    7.6674   -5.2789    0.0000 O   0  0  0  0  0  0  0  0  0  0  0  0
  3  2  1  6  0  0  0
  3  4  1  0  0  0  0
  4  5  1  1  0  0  0
  5  1  1  0  0  0  0
  3  6  1  0  0  0  0
  6  7  1  0  0  0  0
  7  8  1  0  0  0  0
  8  9  1  0  0  0  0
  9  4  1  0  0  0  0
  8 10  1  1  0  0  0
 10 11  1  0  0  0  0
 11 12  2  0  0  0  0
 11 13  1  0  0  0  0
 13 14  2  0  0  0  0
 14 15  1  0  0  0  0
 15 16  2  0  0  0  0
 16 12  1  0  0  0  0
 13 17  1  0  0  0  0
 17 18  1  0  0  0  0
  6 19  1  1  0  0  0
  7 20  1  6  0  0  0
 15 21  1  0  0  0  0
 21 22  1  0  0  0  0
 22 23  1  0  0  0  0
M  END
>  <cdx:fragmentId>
5

$$$$
