60038.cdx
  Mrv1902 05222410212D          

 27 29  0  0  0  0            999 V2000
    4.3431   -8.8951    0.0000 C   0  0  0  0  0  0  0  0  0  0  0  0
    4.3431   -9.7201    0.0000 C   0  0  0  0  0  0  0  0  0  0  0  0
    5.0575  -10.1326    0.0000 C   0  0  0  0  0  0  0  0  0  0  0  0
    5.7720   -9.7201    0.0000 C   0  0  0  0  0  0  0  0  0  0  0  0
    5.7720   -8.8951    0.0000 C   0  0  0  0  0  0  0  0  0  0  0  0
    5.0575   -8.4826    0.0000 C   0  0  0  0  0  0  0  0  0  0  0  0
    6.4865  -10.1326    0.0000 C   0  0  0  0  0  0  0  0  0  0  0  0
    7.2009   -9.7201    0.0000 C   0  0  0  0  0  0  0  0  0  0  0  0
    7.2009   -8.8951    0.0000 C   0  0  0  0  0  0  0  0  0  0  0  0
    6.4865   -8.4826    0.0000 O   0  0  0  0  0  0  0  0  0  0  0  0
    8.6299   -8.8951    0.0000 C   0  0  0  0  0  0  0  0  0  0  0  0
    7.9154   -8.4826    0.0000 C   0  0  0  0  0  0  0  0  0  0  0  0
    9.3444   -8.4826    0.0000 C   0  0  0  0  0  0  0  0  0  0  0  0
    9.3444   -7.6576    0.0000 C   0  0  0  0  0  0  0  0  0  0  0  0
    8.6299   -7.2451    0.0000 C   0  0  0  0  0  0  0  0  0  0  0  0
    7.9154   -7.6576    0.0000 C   0  0  0  0  0  0  0  0  0  0  0  0
    6.4865  -10.9576    0.0000 O   0  0  0  0  0  0  0  0  0  0  0  0
    7.9154  -10.1326    0.0000 O   0  0  0  0  0  0  0  0  0  0  0  0
    8.6299   -6.4201    0.0000 O   0  0  0  0  0  0  0  0  0  0  0  0
    9.3444   -6.0076    0.0000 C   0  0  0  0  0  0  0  0  0  0  0  0
   10.0588   -8.8951    0.0000 O   0  0  0  0  0  0  0  0  0  0  0  0
   10.7733   -8.4826    0.0000 C   0  0  0  0  0  0  0  0  0  0  0  0
    7.9154  -10.9576    0.0000 C   0  0  0  0  0  0  0  0  0  0  0  0
   10.0588   -7.2451    0.0000 O   0  0  0  0  0  0  0  0  0  0  0  0
    5.0575  -10.9576    0.0000 O   0  0  0  0  0  0  0  0  0  0  0  0
    3.6286  -10.1326    0.0000 O   0  0  0  0  0  0  0  0  0  0  0  0
    3.6286   -8.4826    0.0000 O   0  0  0  0  0  0  0  0  0  0  0  0
  1  2  2  0  0  0  0
  2  3  1  0  0  0  0
  3  4  2  0  0  0  0
  4  5  1  0  0  0  0
  5  6  2  0  0  0  0
  6  1  1  0  0  0  0
  4  7  1  0  0  0  0
  7  8  1  0  0  0  0
  8  9  2  0  0  0  0
  9 10  1  0  0  0  0
 10  5  1  0  0  0  0
 11 12  2  0  0  0  0
 12  9  1  0  0  0  0
 11 13  1  0  0  0  0
 13 14  2  0  0  0  0
 14 15  1  0  0  0  0
 15 16  2  0  0  0  0
 16 12  1  0  0  0  0
  7 17  2  0  0  0  0
  8 18  1  0  0  0  0
 15 19  1  0  0  0  0
 19 20  1  0  0  0  0
 13 21  1  0  0  0  0
 21 22  1  0  0  0  0
 18 23  1  0  0  0  0
 14 24  1  0  0  0  0
  3 25  1  0  0  0  0
  2 26  1  0  0  0  0
  1 27  1  0  0  0  0
M  END
>  <cdx:fragmentId>
5

$$$$
