60037.cdx
  Mrv1902 05222410252D          

 34 37  0  0  0  0            999 V2000
    3.7793  -10.6001    0.0000 C   0  0  0  0  0  0  0  0  0  0  0  0
    3.7793  -11.4251    0.0000 C   0  0  0  0  0  0  0  0  0  0  0  0
    4.4938  -11.8376    0.0000 C   0  0  0  0  0  0  0  0  0  0  0  0
    5.2082  -11.4251    0.0000 C   0  0  1  0  0  0  0  0  0  0  0  0
    5.2082  -10.6001    0.0000 C   0  0  2  0  0  0  0  0  0  0  0  0
    4.4938  -10.1876    0.0000 C   0  0  0  0  0  0  0  0  0  0  0  0
    5.9227  -11.8376    0.0000 C   0  0  0  0  0  0  0  0  0  0  0  0
    6.6372  -11.4251    0.0000 C   0  0  0  0  0  0  0  0  0  0  0  0
    6.6372  -10.6001    0.0000 C   0  0  0  0  0  0  0  0  0  0  0  0
    5.9227  -10.1876    0.0000 C   0  0  2  0  0  0  0  0  0  0  0  0
    7.3517  -10.1876    0.0000 C   0  0  1  0  0  0  0  0  0  0  0  0
    7.3517   -9.3626    0.0000 C   0  0  2  0  0  0  0  0  0  0  0  0
    6.6372   -8.9501    0.0000 C   0  0  0  0  0  0  0  0  0  0  0  0
    5.9227   -9.3626    0.0000 C   0  0  0  0  0  0  0  0  0  0  0  0
    8.1363  -10.4426    0.0000 C   0  0  0  0  0  0  0  0  0  0  0  0
    8.6212   -9.7751    0.0000 C   0  0  0  0  0  0  0  0  0  0  0  0
    8.1363   -9.1077    0.0000 C   0  0  2  0  0  0  0  0  0  0  0  0
    3.0648  -11.8376    0.0000 O   0  0  0  0  0  0  0  0  0  0  0  0
    4.0813  -12.5521    0.0000 C   0  0  0  0  0  0  0  0  0  0  0  0
    4.9063  -12.5521    0.0000 C   0  0  0  0  0  0  0  0  0  0  0  0
    8.3912   -8.3231    0.0000 C   0  0  1  0  0  0  0  0  0  0  0  0
    9.1881   -8.1096    0.0000 C   0  0  0  0  0  0  0  0  0  0  0  0
    9.4016   -7.3127    0.0000 C   0  0  0  0  0  0  0  0  0  0  0  0
   10.1985   -7.0991    0.0000 C   0  0  0  0  0  0  0  0  0  0  0  0
   10.4120   -6.3023    0.0000 C   0  0  0  0  0  0  0  0  0  0  0  0
    5.2082   -9.7751    0.0000 C   0  0  0  0  0  0  0  0  0  0  0  0
   11.2089   -6.0887    0.0000 C   0  0  0  0  0  0  0  0  0  0  0  0
    9.8287   -5.7189    0.0000 C   0  0  0  0  0  0  0  0  0  0  0  0
    7.3517   -8.5376    0.0000 C   0  0  0  0  0  0  0  0  0  0  0  0
    5.2082  -12.2501    0.0000 H   0  0  0  0  0  0  0  0  0  0  0  0
    5.9227  -11.0126    0.0000 H   0  0  0  0  0  0  0  0  0  0  0  0
    7.3517  -11.0126    0.0000 H   0  0  0  0  0  0  0  0  0  0  0  0
    7.8233   -7.7247    0.0000 C   0  0  0  0  0  0  0  0  0  0  0  0
    8.9332   -8.8942    0.0000 H   0  0  0  0  0  0  0  0  0  0  0  0
  1  2  1  0  0  0  0
  2  3  1  0  0  0  0
  3  4  1  0  0  0  0
  4  5  1  0  0  0  0
  5  6  1  0  0  0  0
  6  1  1  0  0  0  0
  4  7  1  0  0  0  0
  7  8  1  0  0  0  0
  8  9  2  0  0  0  0
  9 10  1  0  0  0  0
 10  5  1  0  0  0  0
  9 11  1  0  0  0  0
 11 12  1  0  0  0  0
 12 13  1  0  0  0  0
 13 14  1  0  0  0  0
 14 10  1  0  0  0  0
 11 15  1  0  0  0  0
 15 16  1  0  0  0  0
 16 17  1  0  0  0  0
 17 12  1  0  0  0  0
  2 18  2  0  0  0  0
  3 19  1  0  0  0  0
  3 20  1  0  0  0  0
 17 21  1  0  0  0  0
 21 22  1  0  0  0  0
 22 23  1  0  0  0  0
 23 24  1  0  0  0  0
 24 25  1  0  0  0  0
  5 26  1  1  0  0  0
 25 27  1  0  0  0  0
 25 28  1  0  0  0  0
 12 29  1  1  0  0  0
  4 30  1  6  0  0  0
 10 31  1  6  0  0  0
 11 32  1  6  0  0  0
 21 33  1  6  0  0  0
 17 34  1  6  0  0  0
M  END
>  <cdx:fragmentId>
5

$$$$
