60035.cdx
  Mrv1902 05222410252D          

 21 22  0  0  0  0            999 V2000
    8.2068   -5.6914    0.0000 C   0  0  0  0  0  0  0  0  0  0  0  0
    8.2068   -6.5164    0.0000 C   0  0  0  0  0  0  0  0  0  0  0  0
    8.9213   -6.9289    0.0000 C   0  0  0  0  0  0  0  0  0  0  0  0
    9.6357   -6.5164    0.0000 C   0  0  0  0  0  0  0  0  0  0  0  0
    9.6357   -5.6914    0.0000 C   0  0  0  0  0  0  0  0  0  0  0  0
    8.9213   -5.2789    0.0000 C   0  0  0  0  0  0  0  0  0  0  0  0
    8.9213   -7.7539    0.0000 O   0  0  0  0  0  0  0  0  0  0  0  0
    8.2068   -8.1664    0.0000 C   0  0  2  0  0  0  0  0  0  0  0  0
    7.4923   -7.7539    0.0000 O   0  0  0  0  0  0  0  0  0  0  0  0
    6.7779   -8.1664    0.0000 C   0  0  1  0  0  0  0  0  0  0  0  0
    6.7779   -8.9914    0.0000 C   0  0  2  0  0  0  0  0  0  0  0  0
    7.4923   -9.4039    0.0000 C   0  0  1  0  0  0  0  0  0  0  0  0
    8.2068   -8.9914    0.0000 C   0  0  1  0  0  0  0  0  0  0  0  0
    6.0634   -7.7539    0.0000 C   0  0  0  0  0  0  0  0  0  0  0  0
    7.4923  -10.2289    0.0000 O   0  0  0  0  0  0  0  0  0  0  0  0
    8.9213   -9.4039    0.0000 O   0  0  0  0  0  0  0  0  0  0  0  0
    6.0634   -9.4039    0.0000 O   0  0  0  0  0  0  0  0  0  0  0  0
    5.3489   -8.1664    0.0000 O   0  0  0  0  0  0  0  0  0  0  0  0
    8.9213   -4.4539    0.0000 C   0  0  0  0  0  0  0  0  0  0  0  0
    9.6357   -4.0414    0.0000 O   0  0  0  0  0  0  0  0  0  0  0  0
    9.6357   -3.2164    0.0000 C   0  0  0  0  0  0  0  0  0  0  0  0
  1  2  2  0  0  0  0
  2  3  1  0  0  0  0
  3  4  2  0  0  0  0
  4  5  1  0  0  0  0
  5  6  2  0  0  0  0
  6  1  1  0  0  0  0
  3  7  1  0  0  0  0
  8  7  1  1  0  0  0
  8  9  1  0  0  0  0
  9 10  1  0  0  0  0
 10 11  1  0  0  0  0
 11 12  1  0  0  0  0
 12 13  1  0  0  0  0
 13  8  1  0  0  0  0
 10 14  1  1  0  0  0
 12 15  1  1  0  0  0
 13 16  1  6  0  0  0
 11 17  1  6  0  0  0
 14 18  1  0  0  0  0
  6 19  1  0  0  0  0
 19 20  1  0  0  0  0
 20 21  1  0  0  0  0
M  END
>  <cdx:fragmentId>
5

$$$$
