60036.cdx
  Mrv1902 05222410242D          

 16 17  0  0  0  0            999 V2000
    2.2800   -4.0007    0.0000 C   0  0  0  0  0  0  0  0  0  0  0  0
    1.8675   -4.7151    0.0000 C   0  0  0  0  0  0  0  0  0  0  0  0
    2.2800   -5.4296    0.0000 C   0  0  0  0  0  0  0  0  0  0  0  0
    3.1050   -5.4296    0.0000 C   0  0  0  0  0  0  0  0  0  0  0  0
    3.5175   -4.7151    0.0000 C   0  0  0  0  0  0  0  0  0  0  0  0
    3.1050   -4.0007    0.0000 C   0  0  0  0  0  0  0  0  0  0  0  0
    3.5175   -6.1441    0.0000 C   0  0  0  0  0  0  0  0  0  0  0  0
    3.9300   -6.8586    0.0000 C   0  0  0  0  0  0  0  0  0  0  0  0
    4.3425   -7.5730    0.0000 C   0  0  0  0  0  0  0  0  0  0  0  0
    3.9300   -8.2875    0.0000 C   0  0  0  0  0  0  0  0  0  0  0  0
    4.3425   -9.0020    0.0000 C   0  0  0  0  0  0  0  0  0  0  0  0
    5.1675   -9.0020    0.0000 C   0  0  0  0  0  0  0  0  0  0  0  0
    5.5800   -8.2875    0.0000 C   0  0  0  0  0  0  0  0  0  0  0  0
    5.1675   -7.5730    0.0000 C   0  0  0  0  0  0  0  0  0  0  0  0
    5.5800   -9.7164    0.0000 O   0  0  0  0  0  0  0  0  0  0  0  0
    6.4050   -9.7164    0.0000 C   0  0  0  0  0  0  0  0  0  0  0  0
  1  2  2  0  0  0  0
  2  3  1  0  0  0  0
  3  4  2  0  0  0  0
  4  5  1  0  0  0  0
  5  6  2  0  0  0  0
  6  1  1  0  0  0  0
  4  7  1  0  0  0  0
  7  8  3  0  0  0  0
  8  9  1  0  0  0  0
  9 10  2  0  0  0  0
 10 11  1  0  0  0  0
 11 12  2  0  0  0  0
 12 13  1  0  0  0  0
 13 14  2  0  0  0  0
 14  9  1  0  0  0  0
 12 15  1  0  0  0  0
 15 16  1  0  0  0  0
M  END
>  <cdx:fragmentId>
5

$$$$
