60047.cdx
  Mrv1902 05222410262D          

 27 28  0  0  0  0            999 V2000
    1.7168   -9.3885    0.0000 C   0  0  0  0  0  0  0  0  0  0  0  0
    2.4387   -8.9717    0.0000 O   0  0  0  0  0  0  0  0  0  0  0  0
    3.1474   -9.3942    0.0000 C   0  0  0  0  0  0  0  0  0  0  0  0
    3.1359  -10.2191    0.0000 C   0  0  0  0  0  0  0  0  0  0  0  0
    2.4157  -10.6216    0.0000 O   0  0  0  0  0  0  0  0  0  0  0  0
    3.8676   -8.9917    0.0000 C   0  0  0  0  0  0  0  0  0  0  0  0
    4.5762   -9.4141    0.0000 C   0  0  0  0  0  0  0  0  0  0  0  0
    4.5647  -10.2390    0.0000 C   0  0  0  0  0  0  0  0  0  0  0  0
    3.8445  -10.6415    0.0000 C   0  0  0  0  0  0  0  0  0  0  0  0
    5.2964   -9.0116    0.0000 C   0  0  0  0  0  0  0  0  0  0  0  0
    6.0050   -9.4341    0.0000 C   0  0  0  0  0  0  0  0  0  0  0  0
    5.9935  -10.2590    0.0000 C   0  0  0  0  0  0  0  0  0  0  0  0
    5.2733  -10.6615    0.0000 O   0  0  0  0  0  0  0  0  0  0  0  0
    6.7252   -9.0316    0.0000 O   0  0  0  0  0  0  0  0  0  0  0  0
    7.4396   -9.4441    0.0000 C   0  0  0  0  0  0  0  0  0  0  0  0
    7.4396  -10.2691    0.0000 C   0  0  0  0  0  0  0  0  0  0  0  0
    8.1541   -9.0316    0.0000 C   0  0  0  0  0  0  0  0  0  0  0  0
    8.8686   -9.4441    0.0000 C   0  0  0  0  0  0  0  0  0  0  0  0
    8.8686  -10.2691    0.0000 C   0  0  0  0  0  0  0  0  0  0  0  0
    8.1541  -10.6816    0.0000 C   0  0  0  0  0  0  0  0  0  0  0  0
    9.5830  -10.6816    0.0000 C   0  0  0  0  0  0  0  0  0  0  0  0
   10.2975  -10.2691    0.0000 C   0  0  0  0  0  0  0  0  0  0  0  0
   11.0120  -10.6816    0.0000 C   0  0  0  0  0  0  0  0  0  0  0  0
   11.7265  -10.2691    0.0000 O   0  0  0  0  0  0  0  0  0  0  0  0
    8.1541   -8.2066    0.0000 O   0  0  0  0  0  0  0  0  0  0  0  0
    7.4396   -7.7941    0.0000 C   0  0  0  0  0  0  0  0  0  0  0  0
    5.3079   -8.1867    0.0000 O   0  0  0  0  0  0  0  0  0  0  0  0
  1  2  1  0  0  0  0
  2  3  1  0  0  0  0
  3  4  2  0  0  0  0
  4  5  1  0  0  0  0
  3  6  1  0  0  0  0
  6  7  2  0  0  0  0
  7  8  1  0  0  0  0
  8  9  2  0  0  0  0
  9  4  1  0  0  0  0
  7 10  1  0  0  0  0
 10 11  1  0  0  0  0
 11 12  1  0  0  0  0
 12 13  1  0  0  0  0
 11 14  1  0  0  0  0
 14 15  1  0  0  0  0
 15 16  1  0  0  0  0
 15 17  2  0  0  0  0
 17 18  1  0  0  0  0
 18 19  2  0  0  0  0
 19 20  1  0  0  0  0
 20 16  2  0  0  0  0
 19 21  1  0  0  0  0
 21 22  1  0  0  0  0
 22 23  1  0  0  0  0
 23 24  1  0  0  0  0
 17 25  1  0  0  0  0
 25 26  1  0  0  0  0
 10 27  1  0  0  0  0
M  END
>  <cdx:fragmentId>
5

$$$$
