600416.cdx
  Mrv1902 05222410262D          

 16 18  0  0  0  0            999 V2000
    7.4938   -6.9700    0.0000 C   0  0  0  0  0  0  0  0  0  0  0  0
    8.2082   -6.5575    0.0000 C   0  0  0  0  0  0  0  0  0  0  0  0
    8.9227   -6.9700    0.0000 C   0  0  0  0  0  0  0  0  0  0  0  0
    8.9227   -7.7950    0.0000 C   0  0  0  0  0  0  0  0  0  0  0  0
    8.2082   -8.2075    0.0000 C   0  0  0  0  0  0  0  0  0  0  0  0
    7.4938   -7.7950    0.0000 C   0  0  0  0  0  0  0  0  0  0  0  0
    6.7793   -8.2075    0.0000 C   0  0  0  0  0  0  0  0  0  0  0  0
    6.0648   -7.7950    0.0000 C   0  0  0  0  0  0  0  0  0  0  0  0
    6.0648   -6.9700    0.0000 C   0  0  0  0  0  0  0  0  0  0  0  0
    6.7793   -6.5575    0.0000 C   0  0  0  0  0  0  0  0  0  0  0  0
    6.6112   -7.0920    0.0000 C   0  0  0  0  0  0  0  0  0  0  0  0
    6.7793   -5.7325    0.0000 O   0  0  0  0  0  0  0  0  0  0  0  0
    7.1918   -8.9220    0.0000 C   0  0  0  0  0  0  0  0  0  0  0  0
    6.3668   -8.9220    0.0000 C   0  0  0  0  0  0  0  0  0  0  0  0
    7.7957   -5.8430    0.0000 C   0  0  0  0  0  0  0  0  0  0  0  0
    8.6207   -5.8430    0.0000 C   0  0  0  0  0  0  0  0  0  0  0  0
  1  2  1  0  0  0  0
  2  3  1  0  0  0  0
  3  4  1  0  0  0  0
  4  5  1  0  0  0  0
  5  6  2  0  0  0  0
  6  7  1  0  0  0  0
  7  8  1  0  0  0  0
  8  9  1  0  0  0  0
  9 10  1  0  0  0  0
  1 10  1  0  0  0  0
  1 11  1  0  0  0  0
 11  8  1  0  0  0  0
  1  6  1  0  0  0  0
 10 12  2  0  0  0  0
  7 13  1  0  0  0  0
  7 14  1  0  0  0  0
  2 15  1  0  0  0  0
  2 16  1  0  0  0  0
M  END
>  <cdx:fragmentId>
7045

$$$$
