60049.cdx
  Mrv1902 05222410192D          

 33 36  0  0  0  0            999 V2000
    5.6356   -6.2826    0.0000 C   0  0  0  0  0  0  0  0  0  0  0  0
    5.6356   -7.1076    0.0000 C   0  0  0  0  0  0  0  0  0  0  0  0
    6.3500   -7.5201    0.0000 C   0  0  0  0  0  0  0  0  0  0  0  0
    7.0645   -7.1076    0.0000 C   0  0  0  0  0  0  0  0  0  0  0  0
    7.0645   -6.2826    0.0000 C   0  0  0  0  0  0  0  0  0  0  0  0
    6.3500   -5.8701    0.0000 C   0  0  0  0  0  0  0  0  0  0  0  0
    7.7790   -7.5201    0.0000 C   0  0  0  0  0  0  0  0  0  0  0  0
    8.4934   -7.1076    0.0000 C   0  0  0  0  0  0  0  0  0  0  0  0
    8.4934   -6.2826    0.0000 C   0  0  0  0  0  0  0  0  0  0  0  0
    7.7790   -5.8701    0.0000 O   0  0  0  0  0  0  0  0  0  0  0  0
    7.7790   -8.3451    0.0000 O   0  0  0  0  0  0  0  0  0  0  0  0
    9.2079   -8.3451    0.0000 C   0  0  0  0  0  0  0  0  0  0  0  0
    9.2079   -7.5201    0.0000 C   0  0  0  0  0  0  0  0  0  0  0  0
    9.9224   -8.7576    0.0000 C   0  0  0  0  0  0  0  0  0  0  0  0
   10.6369   -8.3451    0.0000 C   0  0  0  0  0  0  0  0  0  0  0  0
   10.6369   -7.5201    0.0000 C   0  0  0  0  0  0  0  0  0  0  0  0
    9.9224   -7.1076    0.0000 C   0  0  0  0  0  0  0  0  0  0  0  0
    6.3500   -5.0451    0.0000 O   0  0  0  0  0  0  0  0  0  0  0  0
   11.3513   -8.7576    0.0000 O   0  0  0  0  0  0  0  0  0  0  0  0
    5.6356   -4.6326    0.0000 C   0  0  0  0  0  0  0  0  0  0  0  0
   11.3513   -9.5826    0.0000 C   0  0  0  0  0  0  0  0  0  0  0  0
    4.9211   -7.5201    0.0000 O   0  0  0  0  0  0  0  0  0  0  0  0
    4.2066   -7.9326    0.0000 C   0  0  2  0  0  0  0  0  0  0  0  0
    3.4921   -7.5201    0.0000 O   0  0  0  0  0  0  0  0  0  0  0  0
    2.7777   -7.9326    0.0000 C   0  0  1  0  0  0  0  0  0  0  0  0
    2.7777   -8.7576    0.0000 C   0  0  2  0  0  0  0  0  0  0  0  0
    3.4921   -9.1701    0.0000 C   0  0  1  0  0  0  0  0  0  0  0  0
    4.2066   -8.7576    0.0000 C   0  0  1  0  0  0  0  0  0  0  0  0
    2.0632   -7.5201    0.0000 C   0  0  0  0  0  0  0  0  0  0  0  0
    3.4921   -9.9951    0.0000 O   0  0  0  0  0  0  0  0  0  0  0  0
    4.9211   -9.1701    0.0000 O   0  0  0  0  0  0  0  0  0  0  0  0
    2.0632   -9.1701    0.0000 O   0  0  0  0  0  0  0  0  0  0  0  0
    1.3487   -7.9326    0.0000 O   0  0  0  0  0  0  0  0  0  0  0  0
  1  2  2  0  0  0  0
  2  3  1  0  0  0  0
  3  4  2  0  0  0  0
  4  5  1  0  0  0  0
  5  6  2  0  0  0  0
  6  1  1  0  0  0  0
  4  7  1  0  0  0  0
  7  8  1  0  0  0  0
  8  9  2  0  0  0  0
  9 10  1  0  0  0  0
 10  5  1  0  0  0  0
  7 11  2  0  0  0  0
 12 13  2  0  0  0  0
 13  8  1  0  0  0  0
 12 14  1  0  0  0  0
 14 15  2  0  0  0  0
 15 16  1  0  0  0  0
 16 17  2  0  0  0  0
 17 13  1  0  0  0  0
  6 18  1  0  0  0  0
 15 19  1  0  0  0  0
 18 20  1  0  0  0  0
 19 21  1  0  0  0  0
  2 22  1  0  0  0  0
 23 22  1  1  0  0  0
 23 24  1  0  0  0  0
 24 25  1  0  0  0  0
 25 26  1  0  0  0  0
 26 27  1  0  0  0  0
 27 28  1  0  0  0  0
 28 23  1  0  0  0  0
 25 29  1  1  0  0  0
 27 30  1  1  0  0  0
 28 31  1  6  0  0  0
 26 32  1  6  0  0  0
 29 33  1  0  0  0  0
M  END
>  <cdx:fragmentId>
5

$$$$
