60041.cdx
  Mrv1902 05222410272D          

 22 24  0  0  0  0            999 V2000
    3.5593   -8.1389    0.0000 C   0  0  0  0  0  0  0  0  0  0  0  0
    3.5593   -8.9639    0.0000 C   0  0  0  0  0  0  0  0  0  0  0  0
    4.2738   -9.3764    0.0000 C   0  0  0  0  0  0  0  0  0  0  0  0
    4.9882   -8.9639    0.0000 C   0  0  0  0  0  0  0  0  0  0  0  0
    4.9882   -8.1389    0.0000 C   0  0  0  0  0  0  0  0  0  0  0  0
    4.2738   -7.7264    0.0000 C   0  0  0  0  0  0  0  0  0  0  0  0
    5.7027   -9.3764    0.0000 C   0  0  0  0  0  0  0  0  0  0  0  0
    6.4172   -8.9639    0.0000 C   0  0  0  0  0  0  0  0  0  0  0  0
    6.4172   -8.1389    0.0000 C   0  0  0  0  0  0  0  0  0  0  0  0
    5.7027   -7.7264    0.0000 O   0  0  0  0  0  0  0  0  0  0  0  0
    7.1317   -9.3764    0.0000 C   0  0  0  0  0  0  0  0  0  0  0  0
    7.8461   -8.9639    0.0000 C   0  0  0  0  0  0  0  0  0  0  0  0
    7.1317  -10.2014    0.0000 C   0  0  0  0  0  0  0  0  0  0  0  0
    7.8461  -10.6139    0.0000 C   0  0  0  0  0  0  0  0  0  0  0  0
    8.5606  -10.2014    0.0000 C   0  0  0  0  0  0  0  0  0  0  0  0
    8.5606   -9.3764    0.0000 C   0  0  0  0  0  0  0  0  0  0  0  0
    5.7027  -10.2014    0.0000 O   0  0  0  0  0  0  0  0  0  0  0  0
    2.8448   -7.7264    0.0000 O   0  0  0  0  0  0  0  0  0  0  0  0
    2.1304   -8.1389    0.0000 C   0  0  0  0  0  0  0  0  0  0  0  0
    9.2751  -10.6139    0.0000 O   0  0  0  0  0  0  0  0  0  0  0  0
    4.2738   -6.9014    0.0000 O   0  0  0  0  0  0  0  0  0  0  0  0
    4.2738  -10.2014    0.0000 O   0  0  0  0  0  0  0  0  0  0  0  0
  1  2  2  0  0  0  0
  2  3  1  0  0  0  0
  3  4  2  0  0  0  0
  4  5  1  0  0  0  0
  5  6  2  0  0  0  0
  6  1  1  0  0  0  0
  4  7  1  0  0  0  0
  7  8  1  0  0  0  0
  8  9  2  0  0  0  0
  9 10  1  0  0  0  0
 10  5  1  0  0  0  0
  8 11  1  0  0  0  0
 11 12  1  0  0  0  0
 11 13  2  0  0  0  0
 13 14  1  0  0  0  0
 14 15  2  0  0  0  0
 15 16  1  0  0  0  0
 16 12  2  0  0  0  0
  7 17  2  0  0  0  0
  1 18  1  0  0  0  0
 18 19  1  0  0  0  0
 15 20  1  0  0  0  0
  6 21  1  0  0  0  0
  3 22  1  0  0  0  0
M  END
>  <cdx:fragmentId>
5

$$$$
