60046.cdx
  Mrv1902 05222410262D          

 32 35  0  0  0  0            999 V2000
    4.7338   -8.7858    0.0000 C   0  0  0  0  0  0  0  0  0  0  0  0
    4.0194   -9.1983    0.0000 C   0  0  0  0  0  0  0  0  0  0  0  0
    4.0194  -10.0233    0.0000 C   0  0  0  0  0  0  0  0  0  0  0  0
    4.7338  -10.4358    0.0000 C   0  0  0  0  0  0  0  0  0  0  0  0
    5.4483  -10.0233    0.0000 C   0  0  0  0  0  0  0  0  0  0  0  0
    6.1628  -10.4358    0.0000 C   0  0  0  0  0  0  0  0  0  0  0  0
    6.8773  -10.0233    0.0000 C   0  0  0  0  0  0  0  0  0  0  0  0
    6.8773   -9.1983    0.0000 C   0  0  1  0  0  0  0  0  0  0  0  0
    7.5917   -8.7858    0.0000 C   0  0  2  0  0  0  0  0  0  0  0  0
    8.3764   -9.0408    0.0000 C   0  0  0  0  0  0  0  0  0  0  0  0
    8.8613   -8.3733    0.0000 C   0  0  0  0  0  0  0  0  0  0  0  0
    8.3764   -7.7059    0.0000 C   0  0  1  0  0  0  0  0  0  0  0  0
    7.5917   -7.9608    0.0000 C   0  0  1  0  0  0  0  0  0  0  0  0
    6.8773   -7.5483    0.0000 C   0  0  0  0  0  0  0  0  0  0  0  0
    6.1628   -7.9608    0.0000 C   0  0  0  0  0  0  0  0  0  0  0  0
    6.1628   -8.7858    0.0000 C   0  0  2  0  0  0  0  0  0  0  0  0
    5.4483   -9.1983    0.0000 C   0  0  1  0  0  0  0  0  0  0  0  0
    3.3049  -10.4358    0.0000 O   0  0  0  0  0  0  0  0  0  0  0  0
    8.0793   -6.3082    0.0000 C   0  0  0  0  0  0  0  0  0  0  0  0
    8.6313   -6.9213    0.0000 C   0  0  2  0  0  0  0  0  0  0  0  0
    9.4383   -6.7497    0.0000 C   0  0  0  0  0  0  0  0  0  0  0  0
    9.6932   -5.9651    0.0000 C   0  0  0  0  0  0  0  0  0  0  0  0
   10.5002   -5.7936    0.0000 C   0  0  0  0  0  0  0  0  0  0  0  0
   10.7551   -5.0090    0.0000 C   0  0  0  0  0  0  0  0  0  0  0  0
   10.2031   -4.3959    0.0000 C   0  0  0  0  0  0  0  0  0  0  0  0
   11.5621   -4.8374    0.0000 C   0  0  0  0  0  0  0  0  0  0  0  0
    7.5917   -7.1358    0.0000 C   0  0  0  0  0  0  0  0  0  0  0  0
    5.4483   -8.3733    0.0000 C   0  0  0  0  0  0  0  0  0  0  0  0
    6.8773   -8.3733    0.0000 H   0  0  0  0  0  0  0  0  0  0  0  0
    6.1628   -9.6108    0.0000 H   0  0  0  0  0  0  0  0  0  0  0  0
    7.5917   -9.6108    0.0000 H   0  0  0  0  0  0  0  0  0  0  0  0
    9.1610   -7.4509    0.0000 H   0  0  0  0  0  0  0  0  0  0  0  0
  1  2  1  0  0  0  0
  2  3  1  0  0  0  0
  3  4  1  0  0  0  0
  4  5  2  0  0  0  0
  5  6  1  0  0  0  0
  6  7  2  0  0  0  0
  7  8  1  0  0  0  0
  8  9  1  0  0  0  0
  9 10  1  0  0  0  0
 10 11  1  0  0  0  0
 12 11  1  0  0  0  0
 12 13  1  0  0  0  0
  9 13  1  0  0  0  0
 13 14  1  0  0  0  0
 14 15  1  0  0  0  0
 15 16  1  0  0  0  0
  8 16  1  0  0  0  0
 16 17  1  0  0  0  0
  5 17  1  0  0  0  0
  1 17  1  0  0  0  0
  3 18  1  0  0  0  0
 20 19  1  6  0  0  0
 20 21  1  0  0  0  0
 21 22  1  0  0  0  0
 22 23  1  0  0  0  0
 23 24  1  0  0  0  0
 24 25  1  0  0  0  0
 24 26  1  0  0  0  0
 12 20  1  0  0  0  0
 13 27  1  1  0  0  0
 17 28  1  1  0  0  0
  8 29  1  1  0  0  0
 16 30  1  6  0  0  0
  9 31  1  6  0  0  0
 12 32  1  6  0  0  0
M  END
>  <cdx:fragmentId>
34

$$$$
