60042.cdx
  Mrv1902 05222410282D          

 23 25  0  0  0  0            999 V2000
    5.1406   -5.8976    0.0000 C   0  0  0  0  0  0  0  0  0  0  0  0
    5.1406   -6.7226    0.0000 C   0  0  0  0  0  0  0  0  0  0  0  0
    5.8550   -7.1351    0.0000 C   0  0  0  0  0  0  0  0  0  0  0  0
    6.5695   -6.7226    0.0000 C   0  0  0  0  0  0  0  0  0  0  0  0
    6.5695   -5.8976    0.0000 C   0  0  0  0  0  0  0  0  0  0  0  0
    5.8550   -5.4851    0.0000 C   0  0  0  0  0  0  0  0  0  0  0  0
    7.2840   -7.1351    0.0000 C   0  0  0  0  0  0  0  0  0  0  0  0
    7.9984   -6.7226    0.0000 C   0  0  0  0  0  0  0  0  0  0  0  0
    7.9984   -5.8976    0.0000 C   0  0  0  0  0  0  0  0  0  0  0  0
    7.2840   -5.4851    0.0000 O   0  0  0  0  0  0  0  0  0  0  0  0
    9.4274   -5.8976    0.0000 C   0  0  0  0  0  0  0  0  0  0  0  0
    8.7129   -5.4851    0.0000 C   0  0  0  0  0  0  0  0  0  0  0  0
   10.1419   -5.4851    0.0000 C   0  0  0  0  0  0  0  0  0  0  0  0
   10.1419   -4.6601    0.0000 C   0  0  0  0  0  0  0  0  0  0  0  0
    9.4274   -4.2476    0.0000 C   0  0  0  0  0  0  0  0  0  0  0  0
    8.7129   -4.6601    0.0000 C   0  0  0  0  0  0  0  0  0  0  0  0
    7.2840   -7.9601    0.0000 O   0  0  0  0  0  0  0  0  0  0  0  0
   10.8563   -4.2476    0.0000 O   0  0  0  0  0  0  0  0  0  0  0  0
    5.8550   -7.9601    0.0000 O   0  0  0  0  0  0  0  0  0  0  0  0
    9.4274   -3.4226    0.0000 O   0  0  0  0  0  0  0  0  0  0  0  0
   10.1419   -3.0101    0.0000 C   0  0  0  0  0  0  0  0  0  0  0  0
    4.4261   -5.4851    0.0000 O   0  0  0  0  0  0  0  0  0  0  0  0
    3.7116   -5.8976    0.0000 C   0  0  0  0  0  0  0  0  0  0  0  0
  1  2  2  0  0  0  0
  2  3  1  0  0  0  0
  3  4  2  0  0  0  0
  4  5  1  0  0  0  0
  5  6  2  0  0  0  0
  6  1  1  0  0  0  0
  4  7  1  0  0  0  0
  7  8  1  0  0  0  0
  8  9  2  0  0  0  0
  9 10  1  0  0  0  0
 10  5  1  0  0  0  0
 11 12  2  0  0  0  0
 12  9  1  0  0  0  0
 11 13  1  0  0  0  0
 13 14  2  0  0  0  0
 14 15  1  0  0  0  0
 15 16  2  0  0  0  0
 16 12  1  0  0  0  0
  7 17  2  0  0  0  0
 14 18  1  0  0  0  0
  3 19  1  0  0  0  0
 15 20  1  0  0  0  0
 20 21  1  0  0  0  0
  1 22  1  0  0  0  0
 22 23  1  0  0  0  0
M  END
>  <cdx:fragmentId>
5

$$$$
