60053.cdx
  Mrv1902 05222410262D          

 13 13  0  0  0  0            999 V2000
    4.6318   -7.1901    0.0000 C   0  0  0  0  0  0  0  0  0  0  0  0
    4.6318   -8.0151    0.0000 C   0  0  0  0  0  0  0  0  0  0  0  0
    5.3463   -8.4276    0.0000 C   0  0  0  0  0  0  0  0  0  0  0  0
    6.0607   -8.0151    0.0000 C   0  0  0  0  0  0  0  0  0  0  0  0
    6.0607   -7.1901    0.0000 C   0  0  0  0  0  0  0  0  0  0  0  0
    5.3463   -6.7776    0.0000 C   0  0  0  0  0  0  0  0  0  0  0  0
    3.9173   -8.4276    0.0000 O   0  0  0  0  0  0  0  0  0  0  0  0
    6.7752   -6.7776    0.0000 C   0  0  0  0  0  0  0  0  0  0  0  0
    7.4897   -7.1901    0.0000 C   0  0  0  0  0  0  0  0  0  0  0  0
    8.2042   -6.7776    0.0000 C   0  0  0  0  0  0  0  0  0  0  0  0
    8.9186   -7.1901    0.0000 O   0  0  0  0  0  0  0  0  0  0  0  0
    9.6331   -6.7776    0.0000 C   0  0  0  0  0  0  0  0  0  0  0  0
    8.2042   -5.9526    0.0000 O   0  0  0  0  0  0  0  0  0  0  0  0
  1  2  2  0  0  0  0
  2  3  1  0  0  0  0
  3  4  2  0  0  0  0
  4  5  1  0  0  0  0
  5  6  2  0  0  0  0
  6  1  1  0  0  0  0
  2  7  1  0  0  0  0
  5  8  1  0  0  0  0
  8  9  2  0  0  0  0
  9 10  1  0  0  0  0
 10 11  1  0  0  0  0
 11 12  1  0  0  0  0
 10 13  2  0  0  0  0
M  END
>  <cdx:fragmentId>
5

$$$$
