60051.cdx
  Mrv1902 05222410272D          

 25 26  0  0  0  0            999 V2000
    5.2164  -11.6722    0.0000 C   0  0  0  0  0  0  0  0  0  0  0  0
    4.5100  -12.0983    0.0000 C   0  0  0  0  0  0  0  0  0  0  0  0
    4.5259  -12.9232    0.0000 C   0  0  0  0  0  0  0  0  0  0  0  0
    5.2481  -13.3219    0.0000 C   0  0  0  0  0  0  0  0  0  0  0  0
    5.9545  -12.8957    0.0000 C   0  0  0  0  0  0  0  0  0  0  0  0
    5.9387  -12.0708    0.0000 C   0  0  0  0  0  0  0  0  0  0  0  0
    5.2640  -14.1467    0.0000 O   0  0  0  0  0  0  0  0  0  0  0  0
    3.8195  -13.3493    0.0000 O   0  0  0  0  0  0  0  0  0  0  0  0
    5.1688   -9.1976    0.0000 O   0  0  0  0  0  0  0  0  0  0  0  0
    5.2006  -10.8473    0.0000 C   0  0  0  0  0  0  0  0  0  0  0  0
    5.9070  -10.4212    0.0000 C   0  0  0  0  0  0  0  0  0  0  0  0
    5.8911   -9.5963    0.0000 C   0  0  0  0  0  0  0  0  0  0  0  0
    6.5975   -9.1701    0.0000 O   0  0  0  0  0  0  0  0  0  0  0  0
    5.8755   -7.0735    0.0000 C   0  0  0  0  0  0  0  0  0  0  0  0
    5.8650   -7.8984    0.0000 C   0  0  2  0  0  0  0  0  0  0  0  0
    6.5741   -8.3200    0.0000 C   0  0  0  0  0  0  0  0  0  0  0  0
    7.2938   -7.9166    0.0000 C   0  0  1  0  0  0  0  0  0  0  0  0
    7.3043   -7.0917    0.0000 C   0  0  0  0  0  0  0  0  0  0  0  0
    6.5951   -6.6701    0.0000 C   0  0  0  0  0  0  0  0  0  0  0  0
    7.0167   -5.9609    0.0000 C   0  0  0  0  0  0  0  0  0  0  0  0
    6.1918   -5.9504    0.0000 O   0  0  0  0  0  0  0  0  0  0  0  0
    7.8416   -5.9714    0.0000 O   0  0  0  0  0  0  0  0  0  0  0  0
    6.6133   -5.2413    0.0000 O   0  0  0  0  0  0  0  0  0  0  0  0
    8.0029   -8.3382    0.0000 O   0  0  0  0  0  0  0  0  0  0  0  0
    5.1453   -8.3018    0.0000 O   0  0  0  0  0  0  0  0  0  0  0  0
  1  2  2  0  0  0  0
  2  3  1  0  0  0  0
  3  4  2  0  0  0  0
  4  5  1  0  0  0  0
  5  6  2  0  0  0  0
  6  1  1  0  0  0  0
  4  7  1  0  0  0  0
 12  9  2  0  0  0  0
 10  1  1  0  0  0  0
  3  8  1  0  0  0  0
 11 10  2  0  0  0  0
 12 11  1  0  0  0  0
 13 12  1  0  0  0  0
 14 15  1  0  0  0  0
 15 16  1  0  0  0  0
 16 17  1  0  0  0  0
 17 18  1  0  0  0  0
 18 19  1  0  0  0  0
 19 14  1  0  0  0  0
 19 20  1  0  0  0  0
 19 21  1  0  0  0  0
 20 22  1  0  0  0  0
 20 23  2  0  0  0  0
 17 24  1  1  0  0  0
 15 25  1  6  0  0  0
 16 13  1  0  0  0  0
M  END
>  <cdx:fragmentId>
5

$$$$
