60050.cdx
  Mrv1902 05222410262D          

 12 13  0  0  0  0            999 V2000
    4.9481   -8.3314    0.0000 C   0  0  0  0  0  0  0  0  0  0  0  0
    4.9481   -9.1564    0.0000 C   0  0  0  0  0  0  0  0  0  0  0  0
    5.6625   -9.5689    0.0000 C   0  0  0  0  0  0  0  0  0  0  0  0
    6.3770   -9.1564    0.0000 C   0  0  0  0  0  0  0  0  0  0  0  0
    6.3770   -8.3314    0.0000 C   0  0  0  0  0  0  0  0  0  0  0  0
    5.6625   -7.9189    0.0000 C   0  0  0  0  0  0  0  0  0  0  0  0
    7.0915   -9.5689    0.0000 C   0  0  0  0  0  0  0  0  0  0  0  0
    7.8059   -9.1564    0.0000 C   0  0  0  0  0  0  0  0  0  0  0  0
    7.8059   -8.3314    0.0000 C   0  0  0  0  0  0  0  0  0  0  0  0
    7.0915   -7.9189    0.0000 C   0  0  0  0  0  0  0  0  0  0  0  0
    5.6625  -10.3939    0.0000 N   0  0  0  0  0  0  0  0  0  0  0  0
    5.6625   -7.0939    0.0000 Br  0  0  0  0  0  0  0  0  0  0  0  0
  1  2  1  0  0  0  0
  2  3  2  0  0  0  0
  3  4  1  0  0  0  0
  4  5  1  0  0  0  0
  5  6  1  0  0  0  0
  6  1  2  0  0  0  0
  4  7  2  0  0  0  0
  7  8  1  0  0  0  0
  8  9  2  0  0  0  0
  9 10  1  0  0  0  0
 10  5  2  0  0  0  0
  3 11  1  0  0  0  0
  6 12  1  0  0  0  0
M  END
>  <cdx:fragmentId>
5

$$$$
