60052.cdx
  Mrv1902 05222410262D          

 10 11  0  0  0  0            999 V2000
    5.4981   -8.2076    0.0000 C   0  0  0  0  0  0  0  0  0  0  0  0
    5.4981   -9.0326    0.0000 C   0  0  0  0  0  0  0  0  0  0  0  0
    6.2125   -9.4451    0.0000 C   0  0  0  0  0  0  0  0  0  0  0  0
    6.9270   -9.0326    0.0000 C   0  0  0  0  0  0  0  0  0  0  0  0
    6.9270   -8.2076    0.0000 C   0  0  0  0  0  0  0  0  0  0  0  0
    6.2125   -7.7951    0.0000 C   0  0  0  0  0  0  0  0  0  0  0  0
    7.7116   -9.2876    0.0000 S   0  0  0  0  0  0  0  0  0  0  0  0
    8.1965   -8.6201    0.0000 C   0  0  0  0  0  0  0  0  0  0  0  0
    7.7116   -7.9527    0.0000 C   0  0  0  0  0  0  0  0  0  0  0  0
    6.2125   -6.9701    0.0000 O   0  0  0  0  0  0  0  0  0  0  0  0
  1  2  2  0  0  0  0
  2  3  1  0  0  0  0
  3  4  2  0  0  0  0
  4  5  1  0  0  0  0
  5  6  2  0  0  0  0
  6  1  1  0  0  0  0
  4  7  1  0  0  0  0
  7  8  1  0  0  0  0
  8  9  2  0  0  0  0
  9  5  1  0  0  0  0
  6 10  1  0  0  0  0
M  END
>  <cdx:fragmentId>
5

$$$$
