60054.cdx
  Mrv1902 05222410272D          

 53 57  0  0  0  0            999 V2000
    4.7281  -11.3289    0.0000 C   0  0  0  0  0  0  0  0  0  0  0  0
    4.7281  -12.1539    0.0000 C   0  0  0  0  0  0  0  0  0  0  0  0
    5.4425  -12.5664    0.0000 C   0  0  0  0  0  0  0  0  0  0  0  0
    6.1570  -12.1539    0.0000 C   0  0  0  0  0  0  0  0  0  0  0  0
    6.1570  -11.3289    0.0000 C   0  0  0  0  0  0  0  0  0  0  0  0
    5.4425  -10.9164    0.0000 C   0  0  0  0  0  0  0  0  0  0  0  0
    6.9416  -12.4088    0.0000 O   0  0  0  0  0  0  0  0  0  0  0  0
    7.4265  -11.7414    0.0000 C   0  0  1  0  0  0  0  0  0  0  0  0
    6.9416  -11.0740    0.0000 C   0  0  1  0  0  0  0  0  0  0  0  0
    8.2515  -11.7414    0.0000 C   0  0  0  0  0  0  0  0  0  0  0  0
    8.6640  -12.4559    0.0000 C   0  0  0  0  0  0  0  0  0  0  0  0
    9.4890  -12.4559    0.0000 C   0  0  0  0  0  0  0  0  0  0  0  0
    9.9015  -11.7414    0.0000 C   0  0  0  0  0  0  0  0  0  0  0  0
    9.4890  -11.0269    0.0000 C   0  0  0  0  0  0  0  0  0  0  0  0
    8.6640  -11.0269    0.0000 C   0  0  0  0  0  0  0  0  0  0  0  0
   10.7265  -11.7414    0.0000 O   0  0  0  0  0  0  0  0  0  0  0  0
    9.9015  -13.1703    0.0000 O   0  0  0  0  0  0  0  0  0  0  0  0
    5.4425  -13.3914    0.0000 O   0  0  0  0  0  0  0  0  0  0  0  0
    5.4425  -10.0914    0.0000 C   0  0  0  0  0  0  0  0  0  0  0  0
    4.7281   -9.6789    0.0000 C   0  0  0  0  0  0  0  0  0  0  0  0
    4.7281   -8.8539    0.0000 C   0  0  0  0  0  0  0  0  0  0  0  0
    4.0136   -8.4414    0.0000 O   0  0  0  0  0  0  0  0  0  0  0  0
    5.4425   -8.4414    0.0000 O   0  0  0  0  0  0  0  0  0  0  0  0
    4.0136   -7.6164    0.0000 C   0  0  2  0  0  0  0  0  0  0  0  0
    3.2991   -7.2039    0.0000 C   0  0  0  0  0  0  0  0  0  0  0  0
    4.7281   -7.2039    0.0000 C   0  0  0  0  0  0  0  0  0  0  0  0
    4.7281   -6.3789    0.0000 O   0  0  0  0  0  0  0  0  0  0  0  0
    5.4425   -7.6164    0.0000 O   0  0  0  0  0  0  0  0  0  0  0  0
    3.2991   -6.3789    0.0000 C   0  0  0  0  0  0  0  0  0  0  0  0
    4.0136   -5.9664    0.0000 C   0  0  0  0  0  0  0  0  0  0  0  0
    4.0136   -5.1414    0.0000 C   0  0  0  0  0  0  0  0  0  0  0  0
    3.2991   -4.7289    0.0000 C   0  0  0  0  0  0  0  0  0  0  0  0
    2.5846   -5.1414    0.0000 C   0  0  0  0  0  0  0  0  0  0  0  0
    2.5846   -5.9664    0.0000 C   0  0  0  0  0  0  0  0  0  0  0  0
    3.2991   -3.9039    0.0000 O   0  0  0  0  0  0  0  0  0  0  0  0
    4.7281   -4.7289    0.0000 O   0  0  0  0  0  0  0  0  0  0  0  0
    7.1966  -10.2893    0.0000 C   0  0  0  0  0  0  0  0  0  0  0  0
    6.6445   -9.6762    0.0000 O   0  0  0  0  0  0  0  0  0  0  0  0
    8.0035  -10.1178    0.0000 O   0  0  0  0  0  0  0  0  0  0  0  0
    7.0570   -8.9618    0.0000 C   0  0  2  0  0  0  0  0  0  0  0  0
    6.6445   -8.2473    0.0000 C   0  0  0  0  0  0  0  0  0  0  0  0
    7.8820   -8.9618    0.0000 C   0  0  0  0  0  0  0  0  0  0  0  0
    8.2945   -8.2473    0.0000 O   0  0  0  0  0  0  0  0  0  0  0  0
    8.2945   -9.6762    0.0000 O   0  0  0  0  0  0  0  0  0  0  0  0
    7.0570   -7.5328    0.0000 C   0  0  0  0  0  0  0  0  0  0  0  0
    7.8820   -7.5328    0.0000 C   0  0  0  0  0  0  0  0  0  0  0  0
    8.2945   -6.8184    0.0000 C   0  0  0  0  0  0  0  0  0  0  0  0
    7.8820   -6.1039    0.0000 C   0  0  0  0  0  0  0  0  0  0  0  0
    7.0570   -6.1039    0.0000 C   0  0  0  0  0  0  0  0  0  0  0  0
    6.6445   -6.8184    0.0000 C   0  0  0  0  0  0  0  0  0  0  0  0
    8.2945   -5.3894    0.0000 O   0  0  0  0  0  0  0  0  0  0  0  0
    9.1195   -6.8184    0.0000 O   0  0  0  0  0  0  0  0  0  0  0  0
    6.1570  -13.8039    0.0000 C   0  0  0  0  0  0  0  0  0  0  0  0
  1  2  2  0  0  0  0
  2  3  1  0  0  0  0
  3  4  2  0  0  0  0
  4  5  1  0  0  0  0
  5  6  2  0  0  0  0
  6  1  1  0  0  0  0
  4  7  1  0  0  0  0
  7  8  1  0  0  0  0
  8  9  1  0  0  0  0
  9  5  1  0  0  0  0
  8 10  1  1  0  0  0
 10 11  2  0  0  0  0
 11 12  1  0  0  0  0
 12 13  2  0  0  0  0
 13 14  1  0  0  0  0
 14 15  2  0  0  0  0
 15 10  1  0  0  0  0
 13 16  1  0  0  0  0
 12 17  1  0  0  0  0
  3 18  1  0  0  0  0
  6 19  1  0  0  0  0
 19 20  2  0  0  0  0
 20 21  1  0  0  0  0
 21 22  1  0  0  0  0
 21 23  2  0  0  0  0
 24 22  1  6  0  0  0
 24 25  1  0  0  0  0
 24 26  1  0  0  0  0
 26 27  1  0  0  0  0
 26 28  2  0  0  0  0
 25 29  1  0  0  0  0
 29 30  2  0  0  0  0
 30 31  1  0  0  0  0
 31 32  2  0  0  0  0
 32 33  1  0  0  0  0
 33 34  2  0  0  0  0
 34 29  1  0  0  0  0
 32 35  1  0  0  0  0
 31 36  1  0  0  0  0
  9 37  1  6  0  0  0
 37 38  1  0  0  0  0
 37 39  2  0  0  0  0
 40 38  1  6  0  0  0
 40 41  1  0  0  0  0
 40 42  1  0  0  0  0
 42 43  1  0  0  0  0
 42 44  2  0  0  0  0
 41 45  1  0  0  0  0
 45 46  2  0  0  0  0
 46 47  1  0  0  0  0
 47 48  2  0  0  0  0
 48 49  1  0  0  0  0
 49 50  2  0  0  0  0
 50 45  1  0  0  0  0
 48 51  1  0  0  0  0
 47 52  1  0  0  0  0
 18 53  1  0  0  0  0
M  END
>  <cdx:fragmentId>
5

$$$$
