60059.cdx
  Mrv1902 05222410182D          

 32 35  0  0  0  0            999 V2000
    3.1331   -7.2589    0.0000 C   0  0  0  0  0  0  0  0  0  0  0  0
    3.1331   -8.0839    0.0000 C   0  0  0  0  0  0  0  0  0  0  0  0
    3.8475   -8.4964    0.0000 C   0  0  0  0  0  0  0  0  0  0  0  0
    4.5620   -8.0839    0.0000 C   0  0  0  0  0  0  0  0  0  0  0  0
    4.5620   -7.2589    0.0000 C   0  0  0  0  0  0  0  0  0  0  0  0
    3.8475   -6.8464    0.0000 C   0  0  0  0  0  0  0  0  0  0  0  0
    5.2765   -8.4964    0.0000 C   0  0  0  0  0  0  0  0  0  0  0  0
    5.9909   -8.0839    0.0000 C   0  0  0  0  0  0  0  0  0  0  0  0
    5.9909   -7.2589    0.0000 C   0  0  0  0  0  0  0  0  0  0  0  0
    5.2765   -6.8464    0.0000 O   0  0  0  0  0  0  0  0  0  0  0  0
    7.4199   -7.2589    0.0000 C   0  0  0  0  0  0  0  0  0  0  0  0
    6.7054   -6.8464    0.0000 C   0  0  0  0  0  0  0  0  0  0  0  0
    8.1344   -6.8464    0.0000 C   0  0  0  0  0  0  0  0  0  0  0  0
    8.1344   -6.0214    0.0000 C   0  0  0  0  0  0  0  0  0  0  0  0
    7.4199   -5.6089    0.0000 C   0  0  0  0  0  0  0  0  0  0  0  0
    6.7054   -6.0214    0.0000 C   0  0  0  0  0  0  0  0  0  0  0  0
    5.2765   -9.3214    0.0000 O   0  0  0  0  0  0  0  0  0  0  0  0
    5.9909   -5.6089    0.0000 O   0  0  0  0  0  0  0  0  0  0  0  0
    3.8475   -9.3214    0.0000 O   0  0  0  0  0  0  0  0  0  0  0  0
    2.4186   -6.8464    0.0000 O   0  0  0  0  0  0  0  0  0  0  0  0
    8.8488   -5.6089    0.0000 O   0  0  0  0  0  0  0  0  0  0  0  0
   10.2734   -7.2781    0.0000 C   0  0  2  0  0  0  0  0  0  0  0  0
   10.9898   -6.8689    0.0000 C   0  0  2  0  0  0  0  0  0  0  0  0
   10.9937   -6.0439    0.0000 C   0  0  1  0  0  0  0  0  0  0  0  0
   10.2812   -5.6281    0.0000 C   0  0  2  0  0  0  0  0  0  0  0  0
    9.5648   -6.0372    0.0000 C   0  0  1  0  0  0  0  0  0  0  0  0
    9.5609   -6.8622    0.0000 O   0  0  0  0  0  0  0  0  0  0  0  0
   10.2695   -8.1031    0.0000 C   0  0  0  0  0  0  0  0  0  0  0  0
   11.7101   -5.6348    0.0000 O   0  0  0  0  0  0  0  0  0  0  0  0
   10.2850   -4.8031    0.0000 O   0  0  0  0  0  0  0  0  0  0  0  0
   11.7023   -7.2848    0.0000 O   0  0  0  0  0  0  0  0  0  0  0  0
   10.9821   -8.5189    0.0000 O   0  0  0  0  0  0  0  0  0  0  0  0
  1  2  2  0  0  0  0
  2  3  1  0  0  0  0
  3  4  2  0  0  0  0
  4  5  1  0  0  0  0
  5  6  2  0  0  0  0
  6  1  1  0  0  0  0
  4  7  1  0  0  0  0
  7  8  1  0  0  0  0
  8  9  1  0  0  0  0
  9 10  1  0  0  0  0
 10  5  1  0  0  0  0
 11 12  2  0  0  0  0
 12  9  1  0  0  0  0
 11 13  1  0  0  0  0
 13 14  2  0  0  0  0
 14 15  1  0  0  0  0
 15 16  2  0  0  0  0
 16 12  1  0  0  0  0
  7 17  2  0  0  0  0
 16 18  1  0  0  0  0
  3 19  1  0  0  0  0
  1 20  1  0  0  0  0
 14 21  1  0  0  0  0
 22 23  1  0  0  0  0
 23 24  1  0  0  0  0
 24 25  1  0  0  0  0
 25 26  1  0  0  0  0
 26 27  1  0  0  0  0
 27 22  1  0  0  0  0
 22 28  1  1  0  0  0
 24 29  1  1  0  0  0
 25 30  1  6  0  0  0
 23 31  1  6  0  0  0
 28 32  1  0  0  0  0
 26 21  1  1  0  0  0
M  END
>  <cdx:fragmentId>
5

$$$$
