60055.cdx
  Mrv1902 05222410272D          

 40 45  0  0  0  0            999 V2000
    8.2505   -6.2425    0.0000 C   0  0  2  0  0  0  0  0  0  0  0  0
    8.2505   -7.0675    0.0000 C   0  0  0  0  0  0  0  0  0  0  0  0
    8.9650   -7.4800    0.0000 C   0  0  1  0  0  0  0  0  0  0  0  0
    9.6795   -7.0675    0.0000 C   0  0  1  0  0  0  0  0  0  0  0  0
    9.6795   -6.2425    0.0000 C   0  0  0  0  0  0  0  0  0  0  0  0
    8.9650   -5.8300    0.0000 C   0  0  1  0  0  0  0  0  0  0  0  0
    8.9650   -5.0050    0.0000 C   0  0  0  0  0  0  0  0  0  0  0  0
   10.3125   -5.8575    0.0000 O   0  0  0  0  0  0  0  0  0  0  0  0
    8.9650   -6.6550    0.0000 C   0  0  2  0  0  0  0  0  0  0  0  0
    7.5361   -5.8300    0.0000 O   0  0  0  0  0  0  0  0  0  0  0  0
   10.3125   -7.4525    0.0000 O   0  0  0  0  0  0  0  0  0  0  0  0
    9.6795   -7.8925    0.0000 O   0  0  0  0  0  0  0  0  0  0  0  0
    8.3600   -7.4250    0.0000 C   0  0  0  0  0  0  0  0  0  0  0  0
    8.3600   -8.2500    0.0000 O   0  0  0  0  0  0  0  0  0  0  0  0
   10.3125   -6.6550    0.0000 C   0  0  1  0  0  0  0  0  0  0  0  0
    7.6415   -8.6555    0.0000 C   0  0  0  0  0  0  0  0  0  0  0  0
    6.9311   -8.2360    0.0000 O   0  0  0  0  0  0  0  0  0  0  0  0
    7.6334   -9.4804    0.0000 C   0  0  0  0  0  0  0  0  0  0  0  0
    8.3438   -9.8999    0.0000 C   0  0  0  0  0  0  0  0  0  0  0  0
    8.3357  -10.7249    0.0000 C   0  0  0  0  0  0  0  0  0  0  0  0
    7.6173  -11.1304    0.0000 C   0  0  0  0  0  0  0  0  0  0  0  0
    6.9069  -10.7109    0.0000 C   0  0  0  0  0  0  0  0  0  0  0  0
    6.9150   -9.8859    0.0000 C   0  0  0  0  0  0  0  0  0  0  0  0
    6.8216   -6.2425    0.0000 C   0  0  2  0  0  0  0  0  0  0  0  0
    6.1071   -5.8300    0.0000 O   0  0  0  0  0  0  0  0  0  0  0  0
    5.3926   -6.2425    0.0000 C   0  0  1  0  0  0  0  0  0  0  0  0
    5.3926   -7.0675    0.0000 C   0  0  2  0  0  0  0  0  0  0  0  0
    6.1071   -7.4800    0.0000 C   0  0  1  0  0  0  0  0  0  0  0  0
    6.8216   -7.0675    0.0000 C   0  0  1  0  0  0  0  0  0  0  0  0
    4.6782   -5.8300    0.0000 C   0  0  0  0  0  0  0  0  0  0  0  0
    6.1071   -8.3050    0.0000 O   0  0  0  0  0  0  0  0  0  0  0  0
    7.5361   -7.4800    0.0000 O   0  0  0  0  0  0  0  0  0  0  0  0
    4.6782   -7.4800    0.0000 O   0  0  0  0  0  0  0  0  0  0  0  0
    3.9637   -6.2425    0.0000 O   0  0  0  0  0  0  0  0  0  0  0  0
    8.9650   -8.3050    0.0000 H   0  0  0  0  0  0  0  0  0  0  0  0
   11.2200   -6.6275    0.0000 H   0  0  0  0  0  0  0  0  0  0  0  0
    7.6092  -11.9553    0.0000 O   0  0  0  0  0  0  0  0  0  0  0  0
    6.1884  -11.1164    0.0000 O   0  0  0  0  0  0  0  0  0  0  0  0
    5.4780  -10.6969    0.0000 C   0  0  0  0  0  0  0  0  0  0  0  0
   10.3939   -8.3050    0.0000 C   0  0  0  0  0  0  0  0  0  0  0  0
  1  2  1  0  0  0  0
  2  3  1  0  0  0  0
  3  4  1  0  0  0  0
  4  5  1  0  0  0  0
  5  6  1  0  0  0  0
  6  1  1  0  0  0  0
  6  7  1  6  0  0  0
  6  8  1  0  0  0  0
  3  9  1  0  0  0  0
  1 10  1  1  0  0  0
  4 11  1  0  0  0  0
  4 12  1  6  0  0  0
  9  1  1  0  0  0  0
  9 13  1  1  0  0  0
 13 14  1  0  0  0  0
 11 15  1  0  0  0  0
  8 15  1  0  0  0  0
  9 15  1  0  0  0  0
 14 16  1  0  0  0  0
 16 17  2  0  0  0  0
 16 18  1  0  0  0  0
 18 19  2  0  0  0  0
 19 20  1  0  0  0  0
 20 21  2  0  0  0  0
 21 22  1  0  0  0  0
 22 23  2  0  0  0  0
 23 18  1  0  0  0  0
 24 10  1  1  0  0  0
 24 25  1  0  0  0  0
 25 26  1  0  0  0  0
 26 27  1  0  0  0  0
 27 28  1  0  0  0  0
 28 29  1  0  0  0  0
 29 24  1  0  0  0  0
 26 30  1  1  0  0  0
 28 31  1  1  0  0  0
 29 32  1  6  0  0  0
 27 33  1  6  0  0  0
 30 34  1  0  0  0  0
  3 35  1  1  0  0  0
 15 36  1  1  0  0  0
 21 37  1  0  0  0  0
 22 38  1  0  0  0  0
 38 39  1  0  0  0  0
 12 40  1  0  0  0  0
M  END
>  <cdx:fragmentId>
197

$$$$
