60057.cdx
  Mrv1902 05222410282D          

 31 35  0  0  0  0            999 V2000
    5.8966   -6.8061    0.0000 O   0  0  0  0  0  0  0  0  0  0  0  0
    4.4677   -6.8002    0.0000 O   0  0  0  0  0  0  0  0  0  0  0  0
    5.1805   -7.2157    0.0000 C   0  0  2  0  0  0  0  0  0  0  0  0
    3.7516   -7.2098    0.0000 C   0  0  0  0  0  0  0  0  0  0  0  0
    6.5860   -9.6997    0.0000 O   0  0  0  0  0  0  0  0  0  0  0  0
   10.1833   -6.8434    0.0000 O   0  0  0  0  0  0  0  0  0  0  0  0
    9.4366  -10.5495    0.0000 O   0  0  0  0  0  0  0  0  0  0  0  0
   10.8726   -9.7370    0.0000 O   0  0  0  0  0  0  0  0  0  0  0  0
    3.7482   -8.0348    0.0000 C   0  0  2  0  0  0  0  0  0  0  0  0
    4.4610   -8.4502    0.0000 C   0  0  1  0  0  0  0  0  0  0  0  0
    5.1771   -8.0407    0.0000 C   0  0  1  0  0  0  0  0  0  0  0  0
    4.4576   -9.2752    0.0000 O   0  0  0  0  0  0  0  0  0  0  0  0
    5.8899   -8.4561    0.0000 O   0  0  0  0  0  0  0  0  0  0  0  0
    3.0320   -8.4444    0.0000 O   0  0  0  0  0  0  0  0  0  0  0  0
    7.3327   -5.9936    0.0000 O   0  0  0  0  0  0  0  0  0  0  0  0
    7.3255   -6.8185    0.0000 C   0  0  0  0  0  0  0  0  0  0  0  0
    6.6075   -7.2248    0.0000 C   0  0  0  0  0  0  0  0  0  0  0  0
    6.6003   -8.0498    0.0000 C   0  0  0  0  0  0  0  0  0  0  0  0
    9.4437   -9.7246    0.0000 C   0  0  0  0  0  0  0  0  0  0  0  0
   10.1618   -9.3183    0.0000 C   0  0  0  0  0  0  0  0  0  0  0  0
   10.1689   -8.4933    0.0000 C   0  0  0  0  0  0  0  0  0  0  0  0
    7.3112   -8.4685    0.0000 C   0  0  0  0  0  0  0  0  0  0  0  0
    7.3040   -9.2934    0.0000 C   0  0  0  0  0  0  0  0  0  0  0  0
    8.0148   -9.7121    0.0000 O   0  0  0  0  0  0  0  0  0  0  0  0
    8.7329   -9.3059    0.0000 C   0  0  0  0  0  0  0  0  0  0  0  0
    8.0364   -7.2372    0.0000 C   0  0  0  0  0  0  0  0  0  0  0  0
    8.0292   -8.0622    0.0000 C   0  0  0  0  0  0  0  0  0  0  0  0
    8.7401   -8.4809    0.0000 C   0  0  0  0  0  0  0  0  0  0  0  0
    9.4581   -8.0746    0.0000 C   0  0  0  0  0  0  0  0  0  0  0  0
    9.4653   -7.2497    0.0000 C   0  0  0  0  0  0  0  0  0  0  0  0
    8.7544   -6.8310    0.0000 O   0  0  0  0  0  0  0  0  0  0  0  0
  2  3  1  0  0  0  0
  3  1  1  1  0  0  0
 23  5  2  0  0  0  0
 30  6  2  0  0  0  0
  7 19  1  0  0  0  0
 20  8  1  0  0  0  0
  2  4  1  0  0  0  0
  4  9  1  0  0  0  0
  9 10  1  0  0  0  0
 10 11  1  0  0  0  0
 11  3  1  0  0  0  0
 10 12  1  1  0  0  0
 11 13  1  6  0  0  0
 15 16  1  0  0  0  0
 17  1  1  0  0  0  0
  9 14  1  6  0  0  0
 16 26  1  0  0  0  0
 17 16  2  0  0  0  0
 18 17  1  0  0  0  0
 22 18  2  0  0  0  0
 19 25  1  0  0  0  0
 20 19  2  0  0  0  0
 21 20  1  0  0  0  0
 29 21  2  0  0  0  0
 22 27  1  0  0  0  0
 23 22  1  0  0  0  0
 24 23  1  0  0  0  0
 25 24  1  0  0  0  0
 28 25  2  0  0  0  0
 26 31  1  0  0  0  0
 27 26  2  0  0  0  0
 28 27  1  0  0  0  0
 29 28  1  0  0  0  0
 30 29  1  0  0  0  0
 31 30  1  0  0  0  0
M  END
>  <cdx:fragmentId>
5

$$$$
