60056.cdx
  Mrv1902 05222410282D          

 39 41  0  0  0  0            999 V2000
    6.7356   -6.9564    0.0000 C   0  0  0  0  0  0  0  0  0  0  0  0
    6.7356   -7.7814    0.0000 C   0  0  2  0  0  0  0  0  0  0  0  0
    7.4500   -8.1939    0.0000 C   0  0  1  0  0  0  0  0  0  0  0  0
    8.1645   -7.7814    0.0000 C   0  0  1  0  0  0  0  0  0  0  0  0
    8.1645   -6.9564    0.0000 C   0  0  0  0  0  0  0  0  0  0  0  0
    7.4500   -6.5439    0.0000 C   0  0  2  0  0  0  0  0  0  0  0  0
    6.0211   -8.1939    0.0000 O   0  0  0  0  0  0  0  0  0  0  0  0
    5.3066   -7.7814    0.0000 C   0  0  0  0  0  0  0  0  0  0  0  0
    4.5921   -8.1939    0.0000 C   0  0  0  0  0  0  0  0  0  0  0  0
    3.8777   -7.7814    0.0000 C   0  0  0  0  0  0  0  0  0  0  0  0
    3.1632   -8.1939    0.0000 C   0  0  0  0  0  0  0  0  0  0  0  0
    5.3066   -6.9564    0.0000 O   0  0  0  0  0  0  0  0  0  0  0  0
    2.4487   -7.7814    0.0000 C   0  0  0  0  0  0  0  0  0  0  0  0
    1.7343   -8.1939    0.0000 C   0  0  0  0  0  0  0  0  0  0  0  0
    1.7343   -9.0189    0.0000 C   0  0  0  0  0  0  0  0  0  0  0  0
    2.4487   -9.4314    0.0000 C   0  0  0  0  0  0  0  0  0  0  0  0
    3.1632   -9.0189    0.0000 C   0  0  0  0  0  0  0  0  0  0  0  0
    1.0198   -9.4314    0.0000 O   0  0  0  0  0  0  0  0  0  0  0  0
    7.0375   -5.8294    0.0000 O   0  0  0  0  0  0  0  0  0  0  0  0
    7.8625   -5.8294    0.0000 C   0  0  0  0  0  0  0  0  0  0  0  0
    7.4500   -5.1150    0.0000 O   0  0  0  0  0  0  0  0  0  0  0  0
    8.6875   -5.8294    0.0000 O   0  0  0  0  0  0  0  0  0  0  0  0
    7.4500   -9.0189    0.0000 O   0  0  0  0  0  0  0  0  0  0  0  0
    8.8790   -8.1939    0.0000 O   0  0  0  0  0  0  0  0  0  0  0  0
    7.4638   -9.8576    0.0000 C   0  0  0  0  0  0  0  0  0  0  0  0
    8.1782  -10.2701    0.0000 C   0  0  0  0  0  0  0  0  0  0  0  0
    6.7493  -10.2701    0.0000 O   0  0  0  0  0  0  0  0  0  0  0  0
    8.1782  -11.0951    0.0000 C   0  0  0  0  0  0  0  0  0  0  0  0
    8.8927  -11.5076    0.0000 C   0  0  0  0  0  0  0  0  0  0  0  0
    8.8927  -12.3326    0.0000 C   0  0  0  0  0  0  0  0  0  0  0  0
    9.6072  -12.7451    0.0000 C   0  0  0  0  0  0  0  0  0  0  0  0
   10.3217  -12.3326    0.0000 C   0  0  0  0  0  0  0  0  0  0  0  0
   10.3217  -11.5076    0.0000 C   0  0  0  0  0  0  0  0  0  0  0  0
    9.6072  -11.0951    0.0000 C   0  0  0  0  0  0  0  0  0  0  0  0
   11.0361  -12.7451    0.0000 O   0  0  0  0  0  0  0  0  0  0  0  0
    9.6072  -13.5701    0.0000 O   0  0  0  0  0  0  0  0  0  0  0  0
    8.8927  -13.9826    0.0000 C   0  0  0  0  0  0  0  0  0  0  0  0
   11.0361  -11.0951    0.0000 O   0  0  0  0  0  0  0  0  0  0  0  0
   11.0361  -10.2701    0.0000 C   0  0  0  0  0  0  0  0  0  0  0  0
  1  2  1  0  0  0  0
  2  3  1  0  0  0  0
  3  4  1  0  0  0  0
  4  5  1  0  0  0  0
  5  6  1  0  0  0  0
  6  1  1  0  0  0  0
  2  7  1  6  0  0  0
  7  8  1  0  0  0  0
  8  9  1  0  0  0  0
  9 10  2  0  0  0  0
 10 11  1  0  0  0  0
  8 12  2  0  0  0  0
 11 13  2  0  0  0  0
 13 14  1  0  0  0  0
 14 15  2  0  0  0  0
 15 16  1  0  0  0  0
 16 17  2  0  0  0  0
 17 11  1  0  0  0  0
 15 18  1  0  0  0  0
  6 19  1  1  0  0  0
  6 20  1  0  0  0  0
 20 21  2  0  0  0  0
 20 22  1  0  0  0  0
  3 23  1  1  0  0  0
  4 24  1  1  0  0  0
 25 26  1  0  0  0  0
 25 27  2  0  0  0  0
 26 28  2  0  0  0  0
 28 29  1  0  0  0  0
 29 30  2  0  0  0  0
 30 31  1  0  0  0  0
 31 32  2  0  0  0  0
 32 33  1  0  0  0  0
 33 34  2  0  0  0  0
 34 29  1  0  0  0  0
 32 35  1  0  0  0  0
 31 36  1  0  0  0  0
 36 37  1  0  0  0  0
 33 38  1  0  0  0  0
 38 39  1  0  0  0  0
 25 23  1  0  0  0  0
M  END
>  <cdx:fragmentId>
5

$$$$
