60058.cdx
  Mrv1902 05222410192D          

 32 35  0  0  0  0            999 V2000
    5.9931   -8.2076    0.0000 C   0  0  0  0  0  0  0  0  0  0  0  0
    5.9931   -9.0326    0.0000 C   0  0  0  0  0  0  0  0  0  0  0  0
    6.7075   -9.4451    0.0000 C   0  0  0  0  0  0  0  0  0  0  0  0
    7.4220   -9.0326    0.0000 C   0  0  0  0  0  0  0  0  0  0  0  0
    7.4220   -8.2076    0.0000 C   0  0  0  0  0  0  0  0  0  0  0  0
    6.7075   -7.7951    0.0000 C   0  0  0  0  0  0  0  0  0  0  0  0
    8.1365   -9.4451    0.0000 C   0  0  0  0  0  0  0  0  0  0  0  0
    8.8509   -9.0326    0.0000 C   0  0  0  0  0  0  0  0  0  0  0  0
    8.8509   -8.2076    0.0000 C   0  0  0  0  0  0  0  0  0  0  0  0
    8.1365   -7.7951    0.0000 O   0  0  0  0  0  0  0  0  0  0  0  0
   10.2799   -8.2076    0.0000 C   0  0  0  0  0  0  0  0  0  0  0  0
    9.5654   -7.7951    0.0000 C   0  0  0  0  0  0  0  0  0  0  0  0
   10.9944   -7.7951    0.0000 C   0  0  0  0  0  0  0  0  0  0  0  0
   10.9944   -6.9701    0.0000 C   0  0  0  0  0  0  0  0  0  0  0  0
   10.2799   -6.5576    0.0000 C   0  0  0  0  0  0  0  0  0  0  0  0
    9.5654   -6.9701    0.0000 C   0  0  0  0  0  0  0  0  0  0  0  0
    8.1365  -10.2701    0.0000 O   0  0  0  0  0  0  0  0  0  0  0  0
    6.7075  -10.2701    0.0000 O   0  0  0  0  0  0  0  0  0  0  0  0
    5.2786   -9.4451    0.0000 O   0  0  0  0  0  0  0  0  0  0  0  0
    5.2786   -7.7951    0.0000 O   0  0  0  0  0  0  0  0  0  0  0  0
    4.4536   -7.7951    0.0000 C   0  0  2  0  0  0  0  0  0  0  0  0
    4.0411   -7.0807    0.0000 O   0  0  0  0  0  0  0  0  0  0  0  0
    3.2161   -7.0807    0.0000 C   0  0  1  0  0  0  0  0  0  0  0  0
    2.8036   -7.7951    0.0000 C   0  0  2  0  0  0  0  0  0  0  0  0
    3.2161   -8.5096    0.0000 C   0  0  1  0  0  0  0  0  0  0  0  0
    4.0411   -8.5096    0.0000 C   0  0  1  0  0  0  0  0  0  0  0  0
    2.8036   -9.2241    0.0000 O   0  0  0  0  0  0  0  0  0  0  0  0
    2.8036   -6.3662    0.0000 C   0  0  0  0  0  0  0  0  0  0  0  0
    4.4536   -9.2241    0.0000 O   0  0  0  0  0  0  0  0  0  0  0  0
    1.9786   -7.7951    0.0000 O   0  0  0  0  0  0  0  0  0  0  0  0
    3.2161   -5.6517    0.0000 O   0  0  0  0  0  0  0  0  0  0  0  0
    1.9786   -6.3662    0.0000 O   0  0  0  0  0  0  0  0  0  0  0  0
  1  2  2  0  0  0  0
  2  3  1  0  0  0  0
  3  4  2  0  0  0  0
  4  5  1  0  0  0  0
  5  6  2  0  0  0  0
  6  1  1  0  0  0  0
  4  7  1  0  0  0  0
  7  8  1  0  0  0  0
  8  9  1  0  0  0  0
  9 10  1  0  0  0  0
 10  5  1  0  0  0  0
 11 12  2  0  0  0  0
 12  9  1  0  0  0  0
 11 13  1  0  0  0  0
 13 14  2  0  0  0  0
 14 15  1  0  0  0  0
 15 16  2  0  0  0  0
 16 12  1  0  0  0  0
  7 17  2  0  0  0  0
  3 18  1  0  0  0  0
  2 19  1  0  0  0  0
  1 20  1  0  0  0  0
 21 20  1  1  0  0  0
 21 22  1  0  0  0  0
 22 23  1  0  0  0  0
 23 24  1  0  0  0  0
 24 25  1  0  0  0  0
 25 26  1  0  0  0  0
 26 21  1  0  0  0  0
 25 27  1  1  0  0  0
 23 28  1  1  0  0  0
 26 29  1  6  0  0  0
 24 30  1  6  0  0  0
 28 31  2  0  0  0  0
 28 32  1  0  0  0  0
M  END
>  <cdx:fragmentId>
5

$$$$
