60060.cdx
  Mrv1902 05222410192D          

 32 35  0  0  0  0            999 V2000
    4.5631   -8.3176    0.0000 C   0  0  0  0  0  0  0  0  0  0  0  0
    4.5631   -9.1426    0.0000 C   0  0  0  0  0  0  0  0  0  0  0  0
    5.2775   -9.5551    0.0000 C   0  0  0  0  0  0  0  0  0  0  0  0
    5.9920   -9.1426    0.0000 C   0  0  0  0  0  0  0  0  0  0  0  0
    5.9920   -8.3176    0.0000 C   0  0  0  0  0  0  0  0  0  0  0  0
    5.2775   -7.9051    0.0000 C   0  0  0  0  0  0  0  0  0  0  0  0
    6.7065   -9.5551    0.0000 C   0  0  0  0  0  0  0  0  0  0  0  0
    7.4209   -9.1426    0.0000 C   0  0  0  0  0  0  0  0  0  0  0  0
    7.4209   -8.3176    0.0000 C   0  0  0  0  0  0  0  0  0  0  0  0
    6.7065   -7.9051    0.0000 O   0  0  0  0  0  0  0  0  0  0  0  0
    8.8499   -8.3176    0.0000 C   0  0  0  0  0  0  0  0  0  0  0  0
    8.1354   -7.9051    0.0000 C   0  0  0  0  0  0  0  0  0  0  0  0
    9.5644   -7.9051    0.0000 C   0  0  0  0  0  0  0  0  0  0  0  0
    9.5644   -7.0801    0.0000 C   0  0  0  0  0  0  0  0  0  0  0  0
    8.8499   -6.6676    0.0000 C   0  0  0  0  0  0  0  0  0  0  0  0
    8.1354   -7.0801    0.0000 C   0  0  0  0  0  0  0  0  0  0  0  0
    6.7065  -10.3801    0.0000 O   0  0  0  0  0  0  0  0  0  0  0  0
    5.2775  -10.3801    0.0000 O   0  0  0  0  0  0  0  0  0  0  0  0
    3.8486   -7.9051    0.0000 O   0  0  0  0  0  0  0  0  0  0  0  0
    8.8499   -5.8426    0.0000 O   0  0  0  0  0  0  0  0  0  0  0  0
   10.2788   -6.6676    0.0000 O   0  0  0  0  0  0  0  0  0  0  0  0
    3.8486   -9.5551    0.0000 C   0  0  2  0  0  0  0  0  0  0  0  0
    3.1341   -9.1426    0.0000 O   0  0  0  0  0  0  0  0  0  0  0  0
    2.4196   -9.5551    0.0000 C   0  0  1  0  0  0  0  0  0  0  0  0
    2.4196  -10.3801    0.0000 C   0  0  2  0  0  0  0  0  0  0  0  0
    3.1341  -10.7926    0.0000 C   0  0  1  0  0  0  0  0  0  0  0  0
    3.8486  -10.3801    0.0000 C   0  0  1  0  0  0  0  0  0  0  0  0
    1.7052   -9.1426    0.0000 C   0  0  0  0  0  0  0  0  0  0  0  0
    3.1341  -11.6176    0.0000 O   0  0  0  0  0  0  0  0  0  0  0  0
    4.5631  -10.7926    0.0000 O   0  0  0  0  0  0  0  0  0  0  0  0
    1.7052  -10.7926    0.0000 O   0  0  0  0  0  0  0  0  0  0  0  0
    0.9907   -9.5551    0.0000 O   0  0  0  0  0  0  0  0  0  0  0  0
  1  2  2  0  0  0  0
  2  3  1  0  0  0  0
  3  4  2  0  0  0  0
  4  5  1  0  0  0  0
  5  6  2  0  0  0  0
  6  1  1  0  0  0  0
  4  7  1  0  0  0  0
  7  8  1  0  0  0  0
  8  9  1  0  0  0  0
  9 10  1  0  0  0  0
 10  5  1  0  0  0  0
 11 12  2  0  0  0  0
 12  9  1  0  0  0  0
 11 13  1  0  0  0  0
 13 14  2  0  0  0  0
 14 15  1  0  0  0  0
 15 16  2  0  0  0  0
 16 12  1  0  0  0  0
  7 17  2  0  0  0  0
  3 18  1  0  0  0  0
  1 19  1  0  0  0  0
 15 20  1  0  0  0  0
 14 21  1  0  0  0  0
 22  2  1  1  0  0  0
 22 23  1  0  0  0  0
 23 24  1  0  0  0  0
 24 25  1  0  0  0  0
 25 26  1  0  0  0  0
 26 27  1  0  0  0  0
 27 22  1  0  0  0  0
 24 28  1  1  0  0  0
 26 29  1  1  0  0  0
 27 30  1  6  0  0  0
 25 31  1  6  0  0  0
 28 32  1  0  0  0  0
M  END
>  <cdx:fragmentId>
5

$$$$
