600601.cdx
  Mrv1902 05222410262D          

 13 14  0  0  0  0            999 V2000
   15.7155  -17.4836    0.0000 O   0  0  0  0  0  0  0  0  0  0  0  0
   16.2004  -16.8162    0.0000 C   0  0  0  0  0  0  0  0  0  0  0  0
   15.7155  -16.1488    0.0000 C   0  0  0  0  0  0  0  0  0  0  0  0
   14.9309  -16.4037    0.0000 C   0  0  0  0  0  0  0  0  0  0  0  0
   14.9309  -17.2287    0.0000 C   0  0  0  0  0  0  0  0  0  0  0  0
   14.2164  -15.9912    0.0000 C   0  0  0  0  0  0  0  0  0  0  0  0
   13.5019  -16.4037    0.0000 C   0  0  0  0  0  0  0  0  0  0  0  0
   13.5019  -17.2287    0.0000 C   0  0  0  0  0  0  0  0  0  0  0  0
   14.2164  -17.6412    0.0000 C   0  0  0  0  0  0  0  0  0  0  0  0
   15.9704  -15.3641    0.0000 C   0  0  0  0  0  0  0  0  0  0  0  0
   16.7774  -15.1926    0.0000 O   0  0  0  0  0  0  0  0  0  0  0  0
   17.0254  -16.8162    0.0000 O   0  0  0  0  0  0  0  0  0  0  0  0
   17.4379  -16.1017    0.0000 C   0  0  0  0  0  0  0  0  0  0  0  0
  1  2  1  0  0  0  0
  2  3  2  0  0  0  0
  3  4  1  0  0  0  0
  4  5  1  0  0  0  0
  1  5  1  0  0  0  0
  6  7  1  0  0  0  0
  7  8  2  0  0  0  0
  8  9  1  0  0  0  0
  9  5  2  0  0  0  0
  6  4  2  0  0  0  0
 10 11  2  0  0  0  0
  3 10  1  0  0  0  0
 12 13  1  0  0  0  0
  2 12  1  0  0  0  0
M  END
>  <cdx:groupId>
7137

>  <cdx:fragmentId>
7100

$$$$
