60061.cdx
  Mrv1902 05222410192D          

 13 13  0  0  0  0            999 V2000
    8.3773   -9.7701    0.0000 C   0  0  0  0  0  0  0  0  0  0  0  0
    8.1136   -8.9884    0.0000 C   0  0  0  0  0  0  0  0  0  0  0  0
    7.2886   -8.9976    0.0000 C   0  0  0  0  0  0  0  0  0  0  0  0
    7.0425   -9.7850    0.0000 C   0  0  0  0  0  0  0  0  0  0  0  0
    7.7153  -10.2625    0.0000 O   0  0  0  0  0  0  0  0  0  0  0  0
    9.1647  -10.0163    0.0000 C   0  0  0  0  0  0  0  0  0  0  0  0
    9.7716   -9.4574    0.0000 O   0  0  0  0  0  0  0  0  0  0  0  0
    6.2608  -10.0487    0.0000 C   0  0  0  0  0  0  0  0  0  0  0  0
    5.6774   -9.4653    0.0000 O   0  0  0  0  0  0  0  0  0  0  0  0
    4.8805   -9.6789    0.0000 C   0  0  0  0  0  0  0  0  0  0  0  0
    4.2971   -9.0955    0.0000 C   0  0  0  0  0  0  0  0  0  0  0  0
    3.5002   -9.3090    0.0000 C   0  0  0  0  0  0  0  0  0  0  0  0
    2.9169   -8.7257    0.0000 C   0  0  0  0  0  0  0  0  0  0  0  0
  1  2  2  0  0  0  0
  2  3  1  0  0  0  0
  3  4  2  0  0  0  0
  4  5  1  0  0  0  0
  5  1  1  0  0  0  0
  1  6  1  0  0  0  0
  6  7  2  0  0  0  0
  4  8  1  0  0  0  0
  8  9  1  0  0  0  0
  9 10  1  0  0  0  0
 10 11  1  0  0  0  0
 11 12  1  0  0  0  0
 12 13  1  0  0  0  0
M  END
>  <cdx:fragmentId>
5

$$$$
