60062.cdx
  Mrv1902 05222410202D          

 24 25  0  0  0  0            999 V2000
    8.6606   -6.4751    0.0000 C   0  0  0  0  0  0  0  0  0  0  0  0
    8.6606   -7.3001    0.0000 C   0  0  2  0  0  0  0  0  0  0  0  0
    9.3750   -7.7126    0.0000 C   0  0  1  0  0  0  0  0  0  0  0  0
   10.0895   -7.3001    0.0000 C   0  0  1  0  0  0  0  0  0  0  0  0
   10.0895   -6.4751    0.0000 C   0  0  0  0  0  0  0  0  0  0  0  0
    9.3750   -6.0626    0.0000 C   0  0  2  0  0  0  0  0  0  0  0  0
    7.9461   -7.7126    0.0000 O   0  0  0  0  0  0  0  0  0  0  0  0
    7.2316   -7.3001    0.0000 C   0  0  0  0  0  0  0  0  0  0  0  0
    6.5171   -7.7126    0.0000 C   0  0  0  0  0  0  0  0  0  0  0  0
    7.2316   -6.4751    0.0000 O   0  0  0  0  0  0  0  0  0  0  0  0
    5.8027   -7.3001    0.0000 C   0  0  0  0  0  0  0  0  0  0  0  0
    5.0882   -7.7126    0.0000 C   0  0  0  0  0  0  0  0  0  0  0  0
    4.3737   -7.3001    0.0000 C   0  0  0  0  0  0  0  0  0  0  0  0
    3.6593   -7.7126    0.0000 C   0  0  0  0  0  0  0  0  0  0  0  0
    3.6593   -8.5376    0.0000 C   0  0  0  0  0  0  0  0  0  0  0  0
    4.3737   -8.9501    0.0000 C   0  0  0  0  0  0  0  0  0  0  0  0
    5.0882   -8.5376    0.0000 C   0  0  0  0  0  0  0  0  0  0  0  0
    2.9448   -8.9501    0.0000 O   0  0  0  0  0  0  0  0  0  0  0  0
    8.9625   -5.3482    0.0000 O   0  0  0  0  0  0  0  0  0  0  0  0
    9.3750   -8.5376    0.0000 O   0  0  0  0  0  0  0  0  0  0  0  0
   10.8040   -7.7126    0.0000 O   0  0  0  0  0  0  0  0  0  0  0  0
    9.8773   -5.4081    0.0000 C   0  0  0  0  0  0  0  0  0  0  0  0
    9.5615   -4.6459    0.0000 O   0  0  0  0  0  0  0  0  0  0  0  0
   10.6952   -5.5158    0.0000 O   0  0  0  0  0  0  0  0  0  0  0  0
  1  2  1  0  0  0  0
  2  3  1  0  0  0  0
  3  4  1  0  0  0  0
  4  5  1  0  0  0  0
  5  6  1  0  0  0  0
  6  1  1  0  0  0  0
  2  7  1  6  0  0  0
  7  8  1  0  0  0  0
  8  9  1  0  0  0  0
  8 10  2  0  0  0  0
  9 11  2  0  0  0  0
 11 12  1  0  0  0  0
 12 13  2  0  0  0  0
 13 14  1  0  0  0  0
 14 15  2  0  0  0  0
 15 16  1  0  0  0  0
 16 17  2  0  0  0  0
 17 12  1  0  0  0  0
 15 18  1  0  0  0  0
  6 19  1  1  0  0  0
  3 20  1  1  0  0  0
  4 21  1  1  0  0  0
  6 22  1  0  0  0  0
 22 23  2  0  0  0  0
 22 24  1  0  0  0  0
M  END
>  <cdx:fragmentId>
5

$$$$
