60064.cdx
  Mrv1902 05222410192D          

 31 34  0  0  0  0            999 V2000
    7.6293   -7.7676    0.0000 C   0  0  0  0  0  0  0  0  0  0  0  0
    7.6293   -8.5926    0.0000 C   0  0  0  0  0  0  0  0  0  0  0  0
    8.3438   -9.0051    0.0000 C   0  0  0  0  0  0  0  0  0  0  0  0
    9.0582   -8.5926    0.0000 C   0  0  0  0  0  0  0  0  0  0  0  0
    9.0582   -7.7676    0.0000 C   0  0  0  0  0  0  0  0  0  0  0  0
    8.3438   -7.3551    0.0000 C   0  0  0  0  0  0  0  0  0  0  0  0
    9.7727   -9.0051    0.0000 C   0  0  0  0  0  0  0  0  0  0  0  0
   10.4872   -8.5926    0.0000 C   0  0  0  0  0  0  0  0  0  0  0  0
   10.4872   -7.7676    0.0000 C   0  0  0  0  0  0  0  0  0  0  0  0
    9.7727   -7.3551    0.0000 O   0  0  0  0  0  0  0  0  0  0  0  0
   11.9161   -7.7676    0.0000 C   0  0  0  0  0  0  0  0  0  0  0  0
   11.2017   -7.3551    0.0000 C   0  0  0  0  0  0  0  0  0  0  0  0
   12.6306   -7.3551    0.0000 C   0  0  0  0  0  0  0  0  0  0  0  0
   12.6306   -6.5301    0.0000 C   0  0  0  0  0  0  0  0  0  0  0  0
   11.9161   -6.1176    0.0000 C   0  0  0  0  0  0  0  0  0  0  0  0
   11.2017   -6.5301    0.0000 C   0  0  0  0  0  0  0  0  0  0  0  0
    9.7727   -9.8301    0.0000 O   0  0  0  0  0  0  0  0  0  0  0  0
    8.3438   -9.8301    0.0000 O   0  0  0  0  0  0  0  0  0  0  0  0
    6.9148   -9.0051    0.0000 C   0  0  0  0  0  0  0  0  0  0  0  0
    6.9148   -7.3551    0.0000 O   0  0  0  0  0  0  0  0  0  0  0  0
    6.0898   -7.3551    0.0000 C   0  0  1  0  0  0  0  0  0  0  0  0
    5.6773   -6.6407    0.0000 O   0  0  0  0  0  0  0  0  0  0  0  0
    4.8523   -6.6407    0.0000 C   0  0  1  0  0  0  0  0  0  0  0  0
    4.4398   -7.3551    0.0000 C   0  0  1  0  0  0  0  0  0  0  0  0
    4.8523   -8.0696    0.0000 C   0  0  1  0  0  0  0  0  0  0  0  0
    5.6773   -8.0696    0.0000 C   0  0  1  0  0  0  0  0  0  0  0  0
    6.0898   -8.7841    0.0000 O   0  0  0  0  0  0  0  0  0  0  0  0
    4.4398   -8.7841    0.0000 O   0  0  0  0  0  0  0  0  0  0  0  0
    3.6148   -7.3551    0.0000 O   0  0  0  0  0  0  0  0  0  0  0  0
    4.4398   -5.9262    0.0000 C   0  0  0  0  0  0  0  0  0  0  0  0
    3.6148   -5.9262    0.0000 O   0  0  0  0  0  0  0  0  0  0  0  0
  1  2  2  0  0  0  0
  2  3  1  0  0  0  0
  3  4  2  0  0  0  0
  4  5  1  0  0  0  0
  5  6  2  0  0  0  0
  6  1  1  0  0  0  0
  4  7  1  0  0  0  0
  7  8  1  0  0  0  0
  8  9  1  0  0  0  0
  9 10  1  0  0  0  0
 10  5  1  0  0  0  0
 11 12  2  0  0  0  0
 12  9  1  0  0  0  0
 11 13  1  0  0  0  0
 13 14  2  0  0  0  0
 14 15  1  0  0  0  0
 15 16  2  0  0  0  0
 16 12  1  0  0  0  0
  7 17  2  0  0  0  0
  3 18  1  0  0  0  0
  2 19  1  0  0  0  0
  1 20  1  0  0  0  0
 21 20  1  6  0  0  0
 21 22  1  0  0  0  0
 22 23  1  0  0  0  0
 23 24  1  0  0  0  0
 24 25  1  0  0  0  0
 25 26  1  0  0  0  0
 26 21  1  0  0  0  0
 26 27  1  6  0  0  0
 25 28  1  1  0  0  0
 24 29  1  1  0  0  0
 23 30  1  1  0  0  0
 30 31  1  0  0  0  0
M  END
>  <cdx:fragmentId>
5

$$$$
