60069.cdx
  Mrv1902 05222410272D          

 40 46  0  0  0  0            999 V2000
    3.3256   -8.8126    0.0000 C   0  0  0  0  0  0  0  0  0  0  0  0
    3.3256   -9.6376    0.0000 C   0  0  0  0  0  0  0  0  0  0  0  0
    4.0400  -10.0501    0.0000 C   0  0  0  0  0  0  0  0  0  0  0  0
    4.7545   -9.6376    0.0000 C   0  0  0  0  0  0  0  0  0  0  0  0
    4.7545   -8.8126    0.0000 C   0  0  2  0  0  0  0  0  0  0  0  0
    4.0400   -8.4001    0.0000 C   0  0  0  0  0  0  0  0  0  0  0  0
    5.4690  -10.0501    0.0000 C   0  0  0  0  0  0  0  0  0  0  0  0
    6.1834   -9.6376    0.0000 C   0  0  1  0  0  0  0  0  0  0  0  0
    6.1834   -8.8126    0.0000 C   0  0  0  0  0  0  0  0  0  0  0  0
    5.4690   -8.4001    0.0000 C   0  0  2  0  0  0  0  0  0  0  0  0
    6.8979   -8.4001    0.0000 C   0  0  2  0  0  0  0  0  0  0  0  0
    6.8979   -7.5751    0.0000 C   0  0  2  0  0  0  0  0  0  0  0  0
    6.1834   -7.1626    0.0000 C   0  0  0  0  0  0  0  0  0  0  0  0
    5.4690   -7.5751    0.0000 C   0  0  0  0  0  0  0  0  0  0  0  0
    7.6825   -8.6551    0.0000 C   0  0  0  0  0  0  0  0  0  0  0  0
    8.1675   -7.9876    0.0000 C   0  0  0  0  0  0  0  0  0  0  0  0
    7.6825   -7.3202    0.0000 C   0  0  2  0  0  0  0  0  0  0  0  0
    4.0400   -7.5751    0.0000 O   0  0  0  0  0  0  0  0  0  0  0  0
    7.9375   -9.4397    0.0000 O   0  0  0  0  0  0  0  0  0  0  0  0
    6.4854   -6.8607    0.0000 C   0  0  0  0  0  0  0  0  0  0  0  0
    6.8979   -6.1462    0.0000 O   0  0  0  0  0  0  0  0  0  0  0  0
    8.0950   -6.6057    0.0000 C   0  0  1  0  0  0  0  0  0  0  0  0
    9.0850   -6.6057    0.0000 C   0  0  1  0  0  0  0  0  0  0  0  0
    9.1575   -7.9876    0.0000 C   0  0  2  0  0  0  0  0  0  0  0  0
    9.4975   -7.3202    0.0000 C   0  0  0  0  0  0  0  0  0  0  0  0
    9.9100   -6.6057    0.0000 O   0  0  0  0  0  0  0  0  0  0  0  0
   10.3225   -7.3202    0.0000 C   0  0  0  0  0  0  0  0  0  0  0  0
    9.9825   -7.9876    0.0000 C   0  0  0  0  0  0  0  0  0  0  0  0
   10.4135   -8.6911    0.0000 C   0  0  0  0  0  0  0  0  0  0  0  0
   11.1472   -7.2986    0.0000 O   0  0  0  0  0  0  0  0  0  0  0  0
    6.8979  -10.0501    0.0000 O   0  0  0  0  0  0  0  0  0  0  0  0
    6.8979   -9.2251    0.0000 O   0  0  0  0  0  0  0  0  0  0  0  0
    9.5700   -8.7021    0.0000 C   0  0  0  0  0  0  0  0  0  0  0  0
    9.0850   -5.7807    0.0000 H   0  0  0  0  0  0  0  0  0  0  0  0
    4.7545   -7.9876    0.0000 C   0  0  0  0  0  0  0  0  0  0  0  0
    5.4690   -9.2251    0.0000 H   0  0  0  0  0  0  0  0  0  0  0  0
    7.6948   -8.1866    0.0000 O   0  0  0  0  0  0  0  0  0  0  0  0
    6.0729   -7.5751    0.0000 O   0  0  0  0  0  0  0  0  0  0  0  0
    7.8815   -5.8089    0.0000 C   0  0  0  0  0  0  0  0  0  0  0  0
    5.6885   -6.6472    0.0000 O   0  0  0  0  0  0  0  0  0  0  0  0
  1  2  2  0  0  0  0
  2  3  1  0  0  0  0
  3  4  1  0  0  0  0
  4  5  1  0  0  0  0
  5  6  1  0  0  0  0
  6  1  1  0  0  0  0
  4  7  2  0  0  0  0
  7  8  1  0  0  0  0
  8  9  1  0  0  0  0
  9 10  1  0  0  0  0
 10  5  1  0  0  0  0
  9 11  1  0  0  0  0
 12 13  1  0  0  0  0
 13 14  1  0  0  0  0
 14 10  1  0  0  0  0
 11 15  1  0  0  0  0
 15 16  1  0  0  0  0
 16 17  1  0  0  0  0
 17 12  1  0  0  0  0
  6 18  2  0  0  0  0
 15 19  2  0  0  0  0
 12 20  1  1  0  0  0
 20 21  1  0  0  0  0
 17 22  1  0  0  0  0
 21 22  1  0  0  0  0
 22 23  1  0  0  0  0
 16 24  1  0  0  0  0
 23 25  1  1  0  0  0
 24 25  1  1  0  0  0
 23 26  1  0  0  0  0
 26 27  1  0  0  0  0
 24 28  1  0  0  0  0
 28 27  1  0  0  0  0
 28 29  2  0  0  0  0
 27 30  2  0  0  0  0
  8 31  1  1  0  0  0
 11 32  1  1  0  0  0
 24 33  1  1  0  0  0
 23 34  1  1  0  0  0
  5 35  1  1  0  0  0
 10 36  1  6  0  0  0
 11 37  1  6  0  0  0
 17 37  1  6  0  0  0
 12 38  1  6  0  0  0
 22 39  1  6  0  0  0
 20 40  2  0  0  0  0
M  END
>  <cdx:fragmentId>
5

$$$$
