60065.cdx
  Mrv1902 05222410182D          

 25 26  0  0  0  0            999 V2000
    5.2006  -10.8473    0.0000 C   0  0  0  0  0  0  0  0  0  0  0  0
    4.4783  -10.4486    0.0000 C   0  0  0  0  0  0  0  0  0  0  0  0
    4.4624   -9.6238    0.0000 C   0  0  0  0  0  0  0  0  0  0  0  0
    3.7402   -9.2251    0.0000 C   0  0  0  0  0  0  0  0  0  0  0  0
    3.0338   -9.6512    0.0000 C   0  0  0  0  0  0  0  0  0  0  0  0
    3.0496  -10.4761    0.0000 C   0  0  0  0  0  0  0  0  0  0  0  0
    3.7719  -10.8748    0.0000 C   0  0  0  0  0  0  0  0  0  0  0  0
    2.3115   -9.2525    0.0000 O   0  0  0  0  0  0  0  0  0  0  0  0
    5.1688   -9.1976    0.0000 O   0  0  0  0  0  0  0  0  0  0  0  0
    3.7243   -8.4002    0.0000 O   0  0  0  0  0  0  0  0  0  0  0  0
    5.9070  -10.4212    0.0000 C   0  0  0  0  0  0  0  0  0  0  0  0
    5.8911   -9.5963    0.0000 C   0  0  0  0  0  0  0  0  0  0  0  0
    6.5975   -9.1701    0.0000 O   0  0  0  0  0  0  0  0  0  0  0  0
    5.9131   -7.0609    0.0000 C   0  0  0  0  0  0  0  0  0  0  0  0
    5.8879   -7.8855    0.0000 C   0  0  2  0  0  0  0  0  0  0  0  0
    6.5894   -8.3197    0.0000 C   0  0  0  0  0  0  0  0  0  0  0  0
    7.3161   -7.9293    0.0000 C   0  0  1  0  0  0  0  0  0  0  0  0
    7.3414   -7.1047    0.0000 C   0  0  0  0  0  0  0  0  0  0  0  0
    6.6399   -6.6704    0.0000 C   0  0  0  0  0  0  0  0  0  0  0  0
    7.0741   -5.9690    0.0000 C   0  0  0  0  0  0  0  0  0  0  0  0
    6.2495   -5.9437    0.0000 O   0  0  0  0  0  0  0  0  0  0  0  0
    7.8987   -5.9942    0.0000 O   0  0  0  0  0  0  0  0  0  0  0  0
    6.6837   -5.2422    0.0000 O   0  0  0  0  0  0  0  0  0  0  0  0
    8.0176   -8.3635    0.0000 O   0  0  0  0  0  0  0  0  0  0  0  0
    5.1611   -8.2759    0.0000 O   0  0  0  0  0  0  0  0  0  0  0  0
  1  2  1  0  0  0  0
  2  3  2  0  0  0  0
  3  4  1  0  0  0  0
  4  5  2  0  0  0  0
  5  6  1  0  0  0  0
  6  7  2  0  0  0  0
  7  2  1  0  0  0  0
 12  9  2  0  0  0  0
  5  8  1  0  0  0  0
 11  1  2  0  0  0  0
  4 10  1  0  0  0  0
 12 11  1  0  0  0  0
 13 12  1  0  0  0  0
 14 15  1  0  0  0  0
 15 16  1  0  0  0  0
 16 17  1  0  0  0  0
 17 18  1  0  0  0  0
 18 19  1  0  0  0  0
 19 14  1  0  0  0  0
 19 20  1  0  0  0  0
 19 21  1  0  0  0  0
 20 22  1  0  0  0  0
 20 23  2  0  0  0  0
 17 24  1  1  0  0  0
 15 25  1  6  0  0  0
 16 13  1  0  0  0  0
M  END
>  <cdx:fragmentId>
5

$$$$
