60063.cdx
  Mrv1902 05222410202D          

 27 29  0  0  0  0            999 V2000
    4.2468   -8.2351    0.0000 C   0  0  0  0  0  0  0  0  0  0  0  0
    4.2468   -9.0601    0.0000 C   0  0  0  0  0  0  0  0  0  0  0  0
    4.9613   -9.4726    0.0000 C   0  0  0  0  0  0  0  0  0  0  0  0
    5.6757   -9.0601    0.0000 C   0  0  0  0  0  0  0  0  0  0  0  0
    5.6757   -8.2351    0.0000 C   0  0  0  0  0  0  0  0  0  0  0  0
    4.9613   -7.8226    0.0000 C   0  0  0  0  0  0  0  0  0  0  0  0
    6.3902   -9.4726    0.0000 C   0  0  0  0  0  0  0  0  0  0  0  0
    7.1047   -9.0601    0.0000 C   0  0  0  0  0  0  0  0  0  0  0  0
    7.1047   -8.2351    0.0000 C   0  0  0  0  0  0  0  0  0  0  0  0
    6.3902   -7.8226    0.0000 O   0  0  0  0  0  0  0  0  0  0  0  0
    6.3902  -10.2976    0.0000 O   0  0  0  0  0  0  0  0  0  0  0  0
    7.8192   -9.4726    0.0000 O   0  0  0  0  0  0  0  0  0  0  0  0
    8.5336   -8.2351    0.0000 C   0  0  0  0  0  0  0  0  0  0  0  0
    7.8192   -7.8226    0.0000 C   0  0  0  0  0  0  0  0  0  0  0  0
    9.2481   -7.8226    0.0000 C   0  0  0  0  0  0  0  0  0  0  0  0
    9.2481   -6.9976    0.0000 C   0  0  0  0  0  0  0  0  0  0  0  0
    8.5336   -6.5851    0.0000 C   0  0  0  0  0  0  0  0  0  0  0  0
    7.8192   -6.9976    0.0000 C   0  0  0  0  0  0  0  0  0  0  0  0
    4.9613  -10.2976    0.0000 O   0  0  0  0  0  0  0  0  0  0  0  0
    3.5323   -9.4726    0.0000 O   0  0  0  0  0  0  0  0  0  0  0  0
    3.5323  -10.2976    0.0000 C   0  0  0  0  0  0  0  0  0  0  0  0
    3.5323   -7.8226    0.0000 O   0  0  0  0  0  0  0  0  0  0  0  0
    2.8179   -8.2351    0.0000 C   0  0  0  0  0  0  0  0  0  0  0  0
    8.5336   -5.7601    0.0000 O   0  0  0  0  0  0  0  0  0  0  0  0
    9.2481   -5.3476    0.0000 C   0  0  0  0  0  0  0  0  0  0  0  0
    9.9626   -6.5851    0.0000 O   0  0  0  0  0  0  0  0  0  0  0  0
   10.6770   -6.9976    0.0000 C   0  0  0  0  0  0  0  0  0  0  0  0
  1  2  2  0  0  0  0
  2  3  1  0  0  0  0
  3  4  2  0  0  0  0
  4  5  1  0  0  0  0
  5  6  2  0  0  0  0
  6  1  1  0  0  0  0
  4  7  1  0  0  0  0
  7  8  1  0  0  0  0
  8  9  2  0  0  0  0
  9 10  1  0  0  0  0
 10  5  1  0  0  0  0
  7 11  2  0  0  0  0
 12  8  1  0  0  0  0
 13 14  2  0  0  0  0
 14  9  1  0  0  0  0
 13 15  1  0  0  0  0
 15 16  2  0  0  0  0
 16 17  1  0  0  0  0
 17 18  2  0  0  0  0
 18 14  1  0  0  0  0
  3 19  1  0  0  0  0
  2 20  1  0  0  0  0
 20 21  1  0  0  0  0
  1 22  1  0  0  0  0
 22 23  1  0  0  0  0
 17 24  1  0  0  0  0
 24 25  1  0  0  0  0
 16 26  1  0  0  0  0
 26 27  1  0  0  0  0
M  END
>  <cdx:fragmentId>
5

$$$$
