60073.cdx
  Mrv1902 05222410182D          

 41 48  0  0  0  0            999 V2000
    3.1468   -9.7889    0.0000 C   0  0  0  0  0  0  0  0  0  0  0  0
    3.1468  -10.6139    0.0000 C   0  0  0  0  0  0  0  0  0  0  0  0
    3.8613  -11.0264    0.0000 C   0  0  0  0  0  0  0  0  0  0  0  0
    4.5757  -10.6139    0.0000 C   0  0  1  0  0  0  0  0  0  0  0  0
    4.5757   -9.7889    0.0000 C   0  0  2  0  0  0  0  0  0  0  0  0
    3.8613   -9.3764    0.0000 C   0  0  0  0  0  0  0  0  0  0  0  0
    5.2902  -11.0264    0.0000 C   0  0  2  0  0  0  0  0  0  0  0  0
    6.0047  -10.6139    0.0000 C   0  0  0  0  0  0  0  0  0  0  0  0
    6.0047   -9.7889    0.0000 C   0  0  0  0  0  0  0  0  0  0  0  0
    5.2902   -9.3764    0.0000 C   0  0  0  0  0  0  0  0  0  0  0  0
    6.7192   -9.3764    0.0000 C   0  0  1  0  0  0  0  0  0  0  0  0
    6.7192   -8.5514    0.0000 C   0  0  2  0  0  0  0  0  0  0  0  0
    6.0047   -8.1389    0.0000 C   0  0  0  0  0  0  0  0  0  0  0  0
    5.2902   -8.5514    0.0000 C   0  0  0  0  0  0  0  0  0  0  0  0
    7.5038   -9.6313    0.0000 C   0  0  0  0  0  0  0  0  0  0  0  0
    7.9887   -8.9639    0.0000 C   0  0  2  0  0  0  0  0  0  0  0  0
    7.5038   -8.2965    0.0000 C   0  0  2  0  0  0  0  0  0  0  0  0
    3.8613   -8.5514    0.0000 O   0  0  0  0  0  0  0  0  0  0  0  0
    6.5056   -7.7545    0.0000 C   0  0  0  0  0  0  0  0  0  0  0  0
    6.7192   -6.9576    0.0000 O   0  0  0  0  0  0  0  0  0  0  0  0
    7.5160   -7.1711    0.0000 C   0  0  1  0  0  0  0  0  0  0  0  0
    8.2305   -6.7586    0.0000 C   0  0  2  0  0  0  0  0  0  0  0  0
    8.7032   -8.5514    0.0000 C   0  0  1  0  0  0  0  0  0  0  0  0
    8.9450   -6.3461    0.0000 O   0  0  0  0  0  0  0  0  0  0  0  0
    9.7419   -6.5597    0.0000 C   0  0  0  0  0  0  0  0  0  0  0  0
    9.7419   -7.3847    0.0000 C   0  0  2  0  0  0  0  0  0  0  0  0
    8.8139   -7.3420    0.0000 C   0  0  0  0  0  0  0  0  0  0  0  0
    8.2305   -5.9336    0.0000 H   0  0  0  0  0  0  0  0  0  0  0  0
    9.5282   -8.5514    0.0000 C   0  0  0  0  0  0  0  0  0  0  0  0
    7.9887   -8.1389    0.0000 H   0  0  0  0  0  0  0  0  0  0  0  0
    4.3622   -8.9920    0.0000 C   0  0  0  0  0  0  0  0  0  0  0  0
    4.3622  -11.4108    0.0000 O   0  0  0  0  0  0  0  0  0  0  0  0
    5.2902  -11.8514    0.0000 O   0  0  0  0  0  0  0  0  0  0  0  0
   10.3964   -6.0574    0.0000 O   0  0  0  0  0  0  0  0  0  0  0  0
    7.7587  -10.4160    0.0000 O   0  0  0  0  0  0  0  0  0  0  0  0
    6.7604  -11.3564    0.0000 O   0  0  0  0  0  0  0  0  0  0  0  0
   10.2392  -11.3564    0.0000 C   0  0  0  0  0  0  0  0  0  0  0  0
    7.5160   -6.3461    0.0000 C   0  0  0  0  0  0  0  0  0  0  0  0
    7.3865   -9.0108    0.0000 O   0  0  0  0  0  0  0  0  0  0  0  0
    5.9223   -8.7649    0.0000 O   0  0  0  0  0  0  0  0  0  0  0  0
    5.7087   -7.5410    0.0000 O   0  0  0  0  0  0  0  0  0  0  0  0
  1  2  2  0  0  0  0
  2  3  1  0  0  0  0
  3  4  1  0  0  0  0
  4  5  1  0  0  0  0
  5  6  1  0  0  0  0
  6  1  1  0  0  0  0
  4  7  1  0  0  0  0
  7  8  1  0  0  0  0
  8  9  1  0  0  0  0
  9 10  1  0  0  0  0
 10  5  1  0  0  0  0
  9 11  1  0  0  0  0
 12 13  1  0  0  0  0
 13 14  1  0  0  0  0
 14 10  1  0  0  0  0
 11 15  1  0  0  0  0
 15 16  1  0  0  0  0
 16 17  1  0  0  0  0
 17 12  1  0  0  0  0
  6 18  2  0  0  0  0
 12 19  1  1  0  0  0
 19 20  1  0  0  0  0
 20 21  1  0  0  0  0
 21 17  1  0  0  0  0
 21 22  1  0  0  0  0
 16 23  1  0  0  0  0
 22 24  1  0  0  0  0
 24 25  1  0  0  0  0
 25 26  1  0  0  0  0
 23 26  1  0  0  0  0
 22 27  1  1  0  0  0
 23 27  1  1  0  0  0
 22 28  1  1  0  0  0
 23 29  1  1  0  0  0
 16 30  1  1  0  0  0
  5 31  1  1  0  0  0
  4 32  1  6  0  0  0
  7 33  1  6  0  0  0
 25 34  2  0  0  0  0
 15 35  2  0  0  0  0
 11 36  1  0  0  0  0
 36 37  1  0  0  0  0
 26 37  1  6  0  0  0
 21 38  1  6  0  0  0
 17 39  1  6  0  0  0
 11 39  1  6  0  0  0
 12 40  1  6  0  0  0
 19 41  2  0  0  0  0
M  END
>  <cdx:fragmentId>
5

$$$$
