60085.cdx
  Mrv1902 05222410262D          

 41 48  0  0  0  0            999 V2000
    3.0231  -10.9301    0.0000 C   0  0  0  0  0  0  0  0  0  0  0  0
    3.0231  -11.7551    0.0000 C   0  0  0  0  0  0  0  0  0  0  0  0
    3.7375  -12.1676    0.0000 C   0  0  0  0  0  0  0  0  0  0  0  0
    4.4520  -11.7551    0.0000 C   0  0  0  0  0  0  0  0  0  0  0  0
    4.4520  -10.9301    0.0000 C   0  0  2  0  0  0  0  0  0  0  0  0
    3.7375  -10.5176    0.0000 C   0  0  0  0  0  0  0  0  0  0  0  0
    5.1665  -12.1676    0.0000 C   0  0  0  0  0  0  0  0  0  0  0  0
    5.8809  -11.7551    0.0000 C   0  0  0  0  0  0  0  0  0  0  0  0
    5.8809  -10.9301    0.0000 C   0  0  0  0  0  0  0  0  0  0  0  0
    5.1665  -10.5176    0.0000 C   0  0  0  0  0  0  0  0  0  0  0  0
    6.5954   -9.6926    0.0000 C   0  0  2  0  0  0  0  0  0  0  0  0
    5.8809   -9.2801    0.0000 C   0  0  0  0  0  0  0  0  0  0  0  0
    5.1665   -9.6926    0.0000 C   0  0  0  0  0  0  0  0  0  0  0  0
    8.0244   -9.6926    0.0000 C   0  0  2  0  0  0  0  0  0  0  0  0
    7.3099   -9.2801    0.0000 C   0  0  2  0  0  0  0  0  0  0  0  0
    6.5954  -10.5176    0.0000 C   0  0  2  0  0  0  0  0  0  0  0  0
    6.5954  -12.1126    0.0000 O   0  0  0  0  0  0  0  0  0  0  0  0
    9.4417  -12.1126    0.0000 C   0  0  0  0  0  0  0  0  0  0  0  0
    7.3099   -8.4551    0.0000 C   0  0  1  0  0  0  0  0  0  0  0  0
    6.5954   -8.0426    0.0000 O   0  0  0  0  0  0  0  0  0  0  0  0
    6.1829   -8.7571    0.0000 C   0  0  0  0  0  0  0  0  0  0  0  0
    5.3591   -8.7125    0.0000 O   0  0  0  0  0  0  0  0  0  0  0  0
    8.0244   -8.0426    0.0000 C   0  0  1  0  0  0  0  0  0  0  0  0
    8.7388   -8.4551    0.0000 C   0  0  0  0  0  0  0  0  0  0  0  0
    8.7388   -9.2801    0.0000 C   0  0  2  0  0  0  0  0  0  0  0  0
    8.7388   -7.6301    0.0000 O   0  0  0  0  0  0  0  0  0  0  0  0
    9.4533   -8.0426    0.0000 C   0  0  0  0  0  0  0  0  0  0  0  0
    9.4533   -8.8676    0.0000 C   0  0  2  0  0  0  0  0  0  0  0  0
   10.1678   -7.6301    0.0000 O   0  0  0  0  0  0  0  0  0  0  0  0
    7.0964   -7.6583    0.0000 C   0  0  0  0  0  0  0  0  0  0  0  0
    5.7704   -9.6926    0.0000 O   0  0  0  0  0  0  0  0  0  0  0  0
    3.7375   -9.6926    0.0000 O   0  0  0  0  0  0  0  0  0  0  0  0
    2.3086  -12.1676    0.0000 O   0  0  0  0  0  0  0  0  0  0  0  0
    1.5941  -12.5801    0.0000 C   0  0  0  0  0  0  0  0  0  0  0  0
    4.4520  -10.1051    0.0000 C   0  0  0  0  0  0  0  0  0  0  0  0
    8.9523  -10.0770    0.0000 C   0  0  0  0  0  0  0  0  0  0  0  0
    7.6119   -7.3282    0.0000 H   0  0  0  0  0  0  0  0  0  0  0  0
    7.6123  -10.5387    0.0000 C   0  0  0  0  0  0  0  0  0  0  0  0
    8.0424  -11.2427    0.0000 O   0  0  0  0  0  0  0  0  0  0  0  0
    7.3099  -10.1051    0.0000 O   0  0  0  0  0  0  0  0  0  0  0  0
    8.0244   -8.8676    0.0000 H   0  0  0  0  0  0  0  0  0  0  0  0
  1  2  1  0  0  0  0
  2  3  1  0  0  0  0
  3  4  1  0  0  0  0
  4  5  1  0  0  0  0
  5  6  1  0  0  0  0
  6  1  1  0  0  0  0
  4  7  1  0  0  0  0
  7  8  2  0  0  0  0
  8  9  1  0  0  0  0
  9 10  1  0  0  0  0
 10  5  1  0  0  0  0
 11 12  1  0  0  0  0
 12 13  1  0  0  0  0
 13 10  2  0  0  0  0
 14 15  1  0  0  0  0
 15 11  1  0  0  0  0
  9 16  1  0  0  0  0
 16 17  1  0  0  0  0
 17 18  1  0  0  0  0
 15 19  1  0  0  0  0
 19 20  1  0  0  0  0
 20 21  1  0  0  0  0
 11 21  1  1  0  0  0
 21 22  2  0  0  0  0
 19 23  1  0  0  0  0
 23 24  1  1  0  0  0
 25 24  1  1  0  0  0
 14 25  1  0  0  0  0
 23 26  1  0  0  0  0
 26 27  1  0  0  0  0
 27 28  1  0  0  0  0
 25 28  1  0  0  0  0
 27 29  2  0  0  0  0
 19 30  1  6  0  0  0
 11 31  1  6  0  0  0
 28 18  1  6  0  0  0
  6 32  2  0  0  0  0
  2 33  1  0  0  0  0
  5 35  1  1  0  0  0
 25 36  1  1  0  0  0
 23 37  1  1  0  0  0
 16 38  1  0  0  0  0
 38 14  1  0  0  0  0
 38 39  2  0  0  0  0
 16 40  1  6  0  0  0
 15 40  1  6  0  0  0
 14 41  1  1  0  0  0
 33 34  1  0  0  0  0
M  STY  1   1 SUP
M  SAL   1  2  33  34
M  SBL   1  1  38
M  SMT   1 OCH3
M  SAP   1  1  33   2  1
M  END
>  <cdx:fragmentId>
5

$$$$
