60081.cdx
  Mrv1902 05222410282D          

 39 45  0  0  0  0            999 V2000
    3.1468   -9.7889    0.0000 C   0  0  0  0  0  0  0  0  0  0  0  0
    3.1468  -10.6139    0.0000 C   0  0  0  0  0  0  0  0  0  0  0  0
    3.8613  -11.0264    0.0000 C   0  0  0  0  0  0  0  0  0  0  0  0
    4.5757  -10.6139    0.0000 C   0  0  0  0  0  0  0  0  0  0  0  0
    4.5757   -9.7889    0.0000 C   0  0  2  0  0  0  0  0  0  0  0  0
    3.8613   -9.3764    0.0000 C   0  0  0  0  0  0  0  0  0  0  0  0
    5.2902  -11.0264    0.0000 C   0  0  0  0  0  0  0  0  0  0  0  0
    6.0047  -10.6139    0.0000 C   0  0  0  0  0  0  0  0  0  0  0  0
    6.0047   -9.7889    0.0000 C   0  0  0  0  0  0  0  0  0  0  0  0
    5.2902   -9.3764    0.0000 C   0  0  2  0  0  0  0  0  0  0  0  0
    6.7192   -9.3764    0.0000 C   0  0  1  0  0  0  0  0  0  0  0  0
    6.7192   -8.5514    0.0000 C   0  0  2  0  0  0  0  0  0  0  0  0
    6.0047   -8.1389    0.0000 C   0  0  0  0  0  0  0  0  0  0  0  0
    5.2902   -8.5514    0.0000 C   0  0  0  0  0  0  0  0  0  0  0  0
    7.7513   -9.6451    0.0000 C   0  0  0  0  0  0  0  0  0  0  0  0
    8.3737   -8.6201    0.0000 C   0  0  0  0  0  0  0  0  0  0  0  0
    7.5038   -8.2965    0.0000 C   0  0  2  0  0  0  0  0  0  0  0  0
    3.8613   -8.5514    0.0000 O   0  0  0  0  0  0  0  0  0  0  0  0
    6.5056   -7.7545    0.0000 C   0  0  0  0  0  0  0  0  0  0  0  0
    6.7192   -6.9576    0.0000 O   0  0  0  0  0  0  0  0  0  0  0  0
    7.5160   -7.1711    0.0000 C   0  0  1  0  0  0  0  0  0  0  0  0
    8.2305   -6.7586    0.0000 C   0  0  2  0  0  0  0  0  0  0  0  0
    8.9507   -7.7814    0.0000 C   0  0  1  0  0  0  0  0  0  0  0  0
    8.9450   -6.3461    0.0000 O   0  0  0  0  0  0  0  0  0  0  0  0
    9.7419   -6.5597    0.0000 C   0  0  0  0  0  0  0  0  0  0  0  0
    9.7419   -7.3847    0.0000 C   0  0  1  0  0  0  0  0  0  0  0  0
    8.8139   -7.1083    0.0000 C   0  0  0  0  0  0  0  0  0  0  0  0
    8.2305   -5.9336    0.0000 H   0  0  0  0  0  0  0  0  0  0  0  0
    9.5282   -8.5514    0.0000 C   0  0  0  0  0  0  0  0  0  0  0  0
   10.3964   -6.0574    0.0000 O   0  0  0  0  0  0  0  0  0  0  0  0
    8.0062  -10.4297    0.0000 O   0  0  0  0  0  0  0  0  0  0  0  0
    7.5160   -6.3461    0.0000 C   0  0  0  0  0  0  0  0  0  0  0  0
    5.9635   -8.5724    0.0000 O   0  0  0  0  0  0  0  0  0  0  0  0
    5.7087   -7.5410    0.0000 O   0  0  0  0  0  0  0  0  0  0  0  0
    5.2902  -10.2014    0.0000 H   0  0  0  0  0  0  0  0  0  0  0  0
    4.5757   -8.9639    0.0000 C   0  0  0  0  0  0  0  0  0  0  0  0
    7.5160   -9.1629    0.0000 O   0  0  0  0  0  0  0  0  0  0  0  0
    6.7192  -10.2014    0.0000 O   0  0  0  0  0  0  0  0  0  0  0  0
   10.4439   -7.8180    0.0000 C   0  0  0  0  0  0  0  0  0  0  0  0
  1  2  2  0  0  0  0
  2  3  1  0  0  0  0
  3  4  2  0  0  0  0
  4  5  1  0  0  0  0
  5  6  1  0  0  0  0
  6  1  1  0  0  0  0
  4  7  1  0  0  0  0
  7  8  2  0  0  0  0
  8  9  1  0  0  0  0
  9 10  1  0  0  0  0
 10  5  1  0  0  0  0
  9 11  1  0  0  0  0
 12 13  1  0  0  0  0
 13 14  1  0  0  0  0
 14 10  1  0  0  0  0
 11 15  1  0  0  0  0
 16 17  1  0  0  0  0
 17 12  1  0  0  0  0
  6 18  2  0  0  0  0
 12 19  1  1  0  0  0
 19 20  1  0  0  0  0
 20 21  1  0  0  0  0
 21 17  1  0  0  0  0
 21 22  1  0  0  0  0
 16 23  1  0  0  0  0
 22 24  1  0  0  0  0
 24 25  1  0  0  0  0
 25 26  1  0  0  0  0
 23 26  1  0  0  0  0
 22 27  1  1  0  0  0
 23 27  1  1  0  0  0
 22 28  1  1  0  0  0
 23 29  1  1  0  0  0
 25 30  2  0  0  0  0
 15 31  2  0  0  0  0
 21 32  1  6  0  0  0
 12 33  1  6  0  0  0
 19 34  2  0  0  0  0
 10 35  1  6  0  0  0
  5 36  1  1  0  0  0
 15 16  1  0  0  0  0
 11 37  1  6  0  0  0
 17 37  1  6  0  0  0
 11 38  1  1  0  0  0
 26 39  1  1  0  0  0
M  END
>  <cdx:fragmentId>
5

$$$$
