60087.cdx
  Mrv1902 05222410262D          

 40 47  0  0  0  0            999 V2000
    3.0231  -10.9301    0.0000 C   0  0  0  0  0  0  0  0  0  0  0  0
    3.0231  -11.7551    0.0000 C   0  0  0  0  0  0  0  0  0  0  0  0
    3.7375  -12.1676    0.0000 C   0  0  0  0  0  0  0  0  0  0  0  0
    4.4520  -11.7551    0.0000 C   0  0  2  0  0  0  0  0  0  0  0  0
    4.4520  -10.9301    0.0000 C   0  0  2  0  0  0  0  0  0  0  0  0
    3.7375  -10.5176    0.0000 C   0  0  0  0  0  0  0  0  0  0  0  0
    5.1665  -12.1676    0.0000 C   0  0  1  0  0  0  0  0  0  0  0  0
    5.8809  -11.7551    0.0000 C   0  0  0  0  0  0  0  0  0  0  0  0
    5.8809  -10.9301    0.0000 C   0  0  0  0  0  0  0  0  0  0  0  0
    5.1665  -10.5176    0.0000 C   0  0  0  0  0  0  0  0  0  0  0  0
    6.5954   -9.6926    0.0000 C   0  0  2  0  0  0  0  0  0  0  0  0
    5.8809   -9.2801    0.0000 C   0  0  0  0  0  0  0  0  0  0  0  0
    5.1665   -9.6926    0.0000 C   0  0  0  0  0  0  0  0  0  0  0  0
    8.0244   -9.6926    0.0000 C   0  0  2  0  0  0  0  0  0  0  0  0
    7.3099   -9.2801    0.0000 C   0  0  2  0  0  0  0  0  0  0  0  0
    6.5954  -10.5176    0.0000 C   0  0  1  0  0  0  0  0  0  0  0  0
    7.3099   -8.4551    0.0000 C   0  0  1  0  0  0  0  0  0  0  0  0
    6.5954   -8.0426    0.0000 O   0  0  0  0  0  0  0  0  0  0  0  0
    6.1829   -8.7571    0.0000 C   0  0  0  0  0  0  0  0  0  0  0  0
    5.3591   -8.7125    0.0000 O   0  0  0  0  0  0  0  0  0  0  0  0
    8.0244   -8.0426    0.0000 C   0  0  1  0  0  0  0  0  0  0  0  0
    8.7388   -8.4551    0.0000 C   0  0  0  0  0  0  0  0  0  0  0  0
    8.7388   -9.2801    0.0000 C   0  0  2  0  0  0  0  0  0  0  0  0
    8.7388   -7.6301    0.0000 O   0  0  0  0  0  0  0  0  0  0  0  0
    9.4533   -8.0426    0.0000 C   0  0  0  0  0  0  0  0  0  0  0  0
    9.4533   -8.8676    0.0000 C   0  0  0  0  0  0  0  0  0  0  0  0
   10.1678   -7.6301    0.0000 O   0  0  0  0  0  0  0  0  0  0  0  0
    7.0964   -7.6583    0.0000 C   0  0  0  0  0  0  0  0  0  0  0  0
    5.7704   -9.6926    0.0000 O   0  0  0  0  0  0  0  0  0  0  0  0
    3.7375   -9.6926    0.0000 O   0  0  0  0  0  0  0  0  0  0  0  0
    4.4520  -10.1051    0.0000 C   0  0  0  0  0  0  0  0  0  0  0  0
    8.9523  -10.0770    0.0000 C   0  0  0  0  0  0  0  0  0  0  0  0
    7.6119   -7.3282    0.0000 H   0  0  0  0  0  0  0  0  0  0  0  0
    7.6123  -10.5387    0.0000 C   0  0  0  0  0  0  0  0  0  0  0  0
    8.0424  -11.2427    0.0000 O   0  0  0  0  0  0  0  0  0  0  0  0
    7.3099  -10.1051    0.0000 O   0  0  0  0  0  0  0  0  0  0  0  0
    8.0244   -8.8676    0.0000 H   0  0  0  0  0  0  0  0  0  0  0  0
    4.4520  -12.5801    0.0000 O   0  0  0  0  0  0  0  0  0  0  0  0
    6.5954  -11.3426    0.0000 O   0  0  0  0  0  0  0  0  0  0  0  0
   10.1678   -9.2801    0.0000 C   0  0  0  0  0  0  0  0  0  0  0  0
  1  2  2  0  0  0  0
  2  3  1  0  0  0  0
  3  4  1  0  0  0  0
  4  5  1  0  0  0  0
  5  6  1  0  0  0  0
  6  1  1  0  0  0  0
  4  7  1  0  0  0  0
  7  8  1  0  0  0  0
  8  9  1  0  0  0  0
  9 10  1  0  0  0  0
 10  5  1  0  0  0  0
 11 12  1  0  0  0  0
 12 13  1  0  0  0  0
 13 10  1  0  0  0  0
 14 15  1  0  0  0  0
 15 11  1  0  0  0  0
  9 16  1  0  0  0  0
 15 17  1  0  0  0  0
 17 18  1  0  0  0  0
 18 19  1  0  0  0  0
 11 19  1  1  0  0  0
 19 20  2  0  0  0  0
 17 21  1  0  0  0  0
 21 22  1  1  0  0  0
 23 22  1  1  0  0  0
 14 23  1  0  0  0  0
 21 24  1  0  0  0  0
 24 25  1  0  0  0  0
 25 26  1  0  0  0  0
 23 26  1  0  0  0  0
 25 27  2  0  0  0  0
 17 28  1  6  0  0  0
 11 29  1  6  0  0  0
  6 30  2  0  0  0  0
  5 31  1  1  0  0  0
 23 32  1  1  0  0  0
 21 33  1  1  0  0  0
 16 34  1  0  0  0  0
 34 14  1  0  0  0  0
 34 35  2  0  0  0  0
 16 36  1  6  0  0  0
 15 36  1  6  0  0  0
 14 37  1  1  0  0  0
  4 38  1  1  0  0  0
  7 38  1  1  0  0  0
 16 39  1  1  0  0  0
 26 40  2  0  0  0  0
M  END
>  <cdx:fragmentId>
5

$$$$
