60096.cdx
  Mrv1902 05222410272D          

 20 21  0  0  0  0            999 V2000
    7.7601   -7.8801    0.0000 C   0  0  0  0  0  0  0  0  0  0  0  0
    8.4750   -8.2919    0.0000 C   0  0  0  0  0  0  0  0  0  0  0  0
    9.1890   -7.8787    0.0000 C   0  0  0  0  0  0  0  0  0  0  0  0
    9.1882   -7.0537    0.0000 C   0  0  0  0  0  0  0  0  0  0  0  0
    8.4734   -6.6419    0.0000 C   0  0  0  0  0  0  0  0  0  0  0  0
    7.7593   -7.0551    0.0000 C   0  0  0  0  0  0  0  0  0  0  0  0
    8.4758   -9.1169    0.0000 O   0  0  0  0  0  0  0  0  0  0  0  0
    7.7617   -9.5301    0.0000 C   0  0  2  0  0  0  0  0  0  0  0  0
    7.0468   -9.1183    0.0000 O   0  0  0  0  0  0  0  0  0  0  0  0
    6.3328   -9.5315    0.0000 C   0  0  1  0  0  0  0  0  0  0  0  0
    6.3336  -10.3565    0.0000 C   0  0  2  0  0  0  0  0  0  0  0  0
    7.0484  -10.7683    0.0000 C   0  0  1  0  0  0  0  0  0  0  0  0
    7.7625  -10.3551    0.0000 C   0  0  1  0  0  0  0  0  0  0  0  0
    5.6179   -9.1197    0.0000 C   0  0  0  0  0  0  0  0  0  0  0  0
    7.0493  -11.5933    0.0000 O   0  0  0  0  0  0  0  0  0  0  0  0
    8.4774  -10.7669    0.0000 O   0  0  0  0  0  0  0  0  0  0  0  0
    5.6195  -10.7697    0.0000 O   0  0  0  0  0  0  0  0  0  0  0  0
    4.9038   -9.5329    0.0000 O   0  0  0  0  0  0  0  0  0  0  0  0
    9.1866   -5.4037    0.0000 O   0  0  0  0  0  0  0  0  0  0  0  0
    8.4725   -5.8169    0.0000 C   0  0  0  0  0  0  0  0  0  0  0  0
  1  2  2  0  0  0  0
  2  3  1  0  0  0  0
  3  4  2  0  0  0  0
  4  5  1  0  0  0  0
  5  6  2  0  0  0  0
  6  1  1  0  0  0  0
  2  7  1  0  0  0  0
  8  7  1  1  0  0  0
  8  9  1  0  0  0  0
  9 10  1  0  0  0  0
 10 11  1  0  0  0  0
 11 12  1  0  0  0  0
 12 13  1  0  0  0  0
 13  8  1  0  0  0  0
 10 14  1  1  0  0  0
 12 15  1  1  0  0  0
 13 16  1  6  0  0  0
 11 17  1  6  0  0  0
 14 18  1  0  0  0  0
 20 19  1  0  0  0  0
  5 20  1  0  0  0  0
M  END
>  <cdx:fragmentId>
5

$$$$
