101600989.cdx
  Mrv1902 05222410202D          

 47 50  0  0  0  0            999 V2000
    6.0266   -7.3012    0.0000 C   0  0  0  0  0  0  0  0  0  0  0  0
    5.3121   -7.7137    0.0000 C   0  0  0  0  0  0  0  0  0  0  0  0
    5.3121   -8.5387    0.0000 C   0  0  0  0  0  0  0  0  0  0  0  0
    4.5976   -8.9512    0.0000 C   0  0  0  0  0  0  0  0  0  0  0  0
    3.8832   -8.5387    0.0000 C   0  0  0  0  0  0  0  0  0  0  0  0
    3.8832   -7.7137    0.0000 C   0  0  0  0  0  0  0  0  0  0  0  0
    4.5976   -7.3012    0.0000 C   0  0  0  0  0  0  0  0  0  0  0  0
    6.0266   -6.4762    0.0000 O   0  0  0  0  0  0  0  0  0  0  0  0
    6.7410   -7.7137    0.0000 O   0  0  0  0  0  0  0  0  0  0  0  0
    3.1687   -8.9512    0.0000 O   0  0  0  0  0  0  0  0  0  0  0  0
    2.4542   -7.7137    0.0000 O   0  0  0  0  0  0  0  0  0  0  0  0
    2.4542   -8.5387    0.0000 C   0  0  2  0  0  0  0  0  0  0  0  0
    1.7397   -8.9512    0.0000 C   0  0  1  0  0  0  0  0  0  0  0  0
    1.0253   -8.5387    0.0000 C   0  0  1  0  0  0  0  0  0  0  0  0
    1.0253   -7.7137    0.0000 C   0  0  2  0  0  0  0  0  0  0  0  0
    1.7397   -7.3012    0.0000 C   0  0  2  0  0  0  0  0  0  0  0  0
    1.7397   -6.4762    0.0000 C   0  0  0  0  0  0  0  0  0  0  0  0
    0.3108   -7.3012    0.0000 O   0  0  0  0  0  0  0  0  0  0  0  0
    0.3108   -8.9512    0.0000 O   0  0  0  0  0  0  0  0  0  0  0  0
    1.7397   -9.7762    0.0000 O   0  0  0  0  0  0  0  0  0  0  0  0
    3.1687   -7.3012    0.0000 O   0  0  0  0  0  0  0  0  0  0  0  0
    3.1687   -6.4762    0.0000 C   0  0  0  0  0  0  0  0  0  0  0  0
    4.5976   -9.7762    0.0000 O   0  0  0  0  0  0  0  0  0  0  0  0
    3.8832  -10.1887    0.0000 C   0  0  0  0  0  0  0  0  0  0  0  0
    7.4555   -7.3012    0.0000 C   0  0  0  0  0  0  0  0  0  0  0  0
    8.8845   -7.3012    0.0000 O   0  0  0  0  0  0  0  0  0  0  0  0
    8.1700   -7.7137    0.0000 C   0  0  1  0  0  0  0  0  0  0  0  0
    8.1700   -8.5387    0.0000 C   0  0  2  0  0  0  0  0  0  0  0  0
    8.8845   -8.9512    0.0000 C   0  0  1  0  0  0  0  0  0  0  0  0
    9.5989   -8.5388    0.0000 C   0  0  2  0  0  0  0  0  0  0  0  0
    9.5989   -7.7138    0.0000 C   0  0  2  0  0  0  0  0  0  0  0  0
   10.3134   -7.3012    0.0000 O   0  0  0  0  0  0  0  0  0  0  0  0
   11.0279   -7.7138    0.0000 C   0  0  0  0  0  0  0  0  0  0  0  0
   11.7423   -7.3012    0.0000 C   0  0  0  0  0  0  0  0  0  0  0  0
   12.4568   -7.7138    0.0000 C   0  0  0  0  0  0  0  0  0  0  0  0
   12.4568   -8.5388    0.0000 C   0  0  0  0  0  0  0  0  0  0  0  0
   11.7423   -8.9513    0.0000 C   0  0  0  0  0  0  0  0  0  0  0  0
   11.0279   -8.5388    0.0000 C   0  0  0  0  0  0  0  0  0  0  0  0
   11.7423   -6.4763    0.0000 O   0  0  0  0  0  0  0  0  0  0  0  0
   12.4568   -6.0638    0.0000 C   0  0  0  0  0  0  0  0  0  0  0  0
   13.1713   -8.9513    0.0000 C   0  0  0  0  0  0  0  0  0  0  0  0
   13.8858   -8.5388    0.0000 C   0  0  0  0  0  0  0  0  0  0  0  0
   14.6002   -8.9513    0.0000 C   0  0  0  0  0  0  0  0  0  0  0  0
   15.3147   -8.5388    0.0000 O   0  0  0  0  0  0  0  0  0  0  0  0
   10.3134   -8.9513    0.0000 O   0  0  0  0  0  0  0  0  0  0  0  0
    8.8845   -9.7763    0.0000 O   0  0  0  0  0  0  0  0  0  0  0  0
    7.4555   -8.9512    0.0000 O   0  0  0  0  0  0  0  0  0  0  0  0
  1  2  1  0  0  0  0
  2  3  1  0  0  0  0
  3  4  2  0  0  0  0
  4  5  1  0  0  0  0
  5  6  2  0  0  0  0
  6  7  1  0  0  0  0
  2  7  2  0  0  0  0
  1  8  2  0  0  0  0
  1  9  1  0  0  0  0
 11 12  1  0  0  0  0
 12 13  1  0  0  0  0
 13 14  1  0  0  0  0
 14 15  1  0  0  0  0
 15 16  1  0  0  0  0
 11 16  1  0  0  0  0
 16 17  1  6  0  0  0
 15 18  1  1  0  0  0
 14 19  1  6  0  0  0
 13 20  1  6  0  0  0
 12 10  1  1  0  0  0
  5 10  1  0  0  0  0
 21 22  1  0  0  0  0
  6 21  1  0  0  0  0
 23 24  1  0  0  0  0
  4 23  1  0  0  0  0
 26 27  1  0  0  0  0
 27 28  1  0  0  0  0
 28 29  1  0  0  0  0
 29 30  1  0  0  0  0
 30 31  1  0  0  0  0
 26 31  1  0  0  0  0
 33 34  1  0  0  0  0
 34 35  2  0  0  0  0
 35 36  1  0  0  0  0
 36 37  2  0  0  0  0
 37 38  1  0  0  0  0
 33 38  2  0  0  0  0
 32 33  1  0  0  0  0
 39 40  1  0  0  0  0
 34 39  1  0  0  0  0
 41 42  2  0  0  0  0
 42 43  1  0  0  0  0
 43 44  1  0  0  0  0
 36 41  1  0  0  0  0
 31 32  1  1  0  0  0
 30 45  1  6  0  0  0
 29 46  1  1  0  0  0
 28 47  1  6  0  0  0
 27 25  1  1  0  0  0
  9 25  1  0  0  0  0
M  END
>  <cdx:groupId>
251849

>  <cdx:fragmentId>
251728

$$$$
