60092.cdx
  Mrv1902 05222410272D          

 23 25  0  0  0  0            999 V2000
    4.2743   -7.0939    0.0000 C   0  0  0  0  0  0  0  0  0  0  0  0
    4.2743   -7.9189    0.0000 C   0  0  0  0  0  0  0  0  0  0  0  0
    4.9888   -8.3314    0.0000 C   0  0  0  0  0  0  0  0  0  0  0  0
    5.7032   -7.9189    0.0000 C   0  0  0  0  0  0  0  0  0  0  0  0
    5.7032   -7.0939    0.0000 C   0  0  0  0  0  0  0  0  0  0  0  0
    4.9888   -6.6814    0.0000 C   0  0  0  0  0  0  0  0  0  0  0  0
    6.4177   -8.3314    0.0000 C   0  0  0  0  0  0  0  0  0  0  0  0
    7.1322   -7.9189    0.0000 C   0  0  0  0  0  0  0  0  0  0  0  0
    7.1322   -7.0939    0.0000 C   0  0  0  0  0  0  0  0  0  0  0  0
    6.4177   -6.6814    0.0000 O   0  0  0  0  0  0  0  0  0  0  0  0
    4.9888   -9.1564    0.0000 O   0  0  0  0  0  0  0  0  0  0  0  0
    6.4177   -9.1564    0.0000 O   0  0  0  0  0  0  0  0  0  0  0  0
    7.8467   -8.3314    0.0000 O   0  0  0  0  0  0  0  0  0  0  0  0
    8.5611   -7.0939    0.0000 C   0  0  0  0  0  0  0  0  0  0  0  0
    7.8467   -6.6814    0.0000 C   0  0  0  0  0  0  0  0  0  0  0  0
    9.2756   -6.6814    0.0000 C   0  0  0  0  0  0  0  0  0  0  0  0
    9.2756   -5.8564    0.0000 C   0  0  0  0  0  0  0  0  0  0  0  0
    8.5611   -5.4439    0.0000 C   0  0  0  0  0  0  0  0  0  0  0  0
    7.8467   -5.8564    0.0000 C   0  0  0  0  0  0  0  0  0  0  0  0
    3.5598   -6.6814    0.0000 O   0  0  0  0  0  0  0  0  0  0  0  0
    2.8454   -7.0939    0.0000 C   0  0  0  0  0  0  0  0  0  0  0  0
    9.9901   -5.4439    0.0000 O   0  0  0  0  0  0  0  0  0  0  0  0
   10.7045   -5.8564    0.0000 C   0  0  0  0  0  0  0  0  0  0  0  0
  1  2  2  0  0  0  0
  2  3  1  0  0  0  0
  3  4  2  0  0  0  0
  4  5  1  0  0  0  0
  5  6  2  0  0  0  0
  6  1  1  0  0  0  0
  4  7  1  0  0  0  0
  7  8  1  0  0  0  0
  8  9  2  0  0  0  0
  9 10  1  0  0  0  0
 10  5  1  0  0  0  0
  3 11  1  0  0  0  0
 12  7  2  0  0  0  0
 13  8  1  0  0  0  0
 14 15  2  0  0  0  0
 15  9  1  0  0  0  0
 14 16  1  0  0  0  0
 16 17  2  0  0  0  0
 17 18  1  0  0  0  0
 18 19  2  0  0  0  0
 19 15  1  0  0  0  0
  1 20  1  0  0  0  0
 20 21  1  0  0  0  0
 17 22  1  0  0  0  0
 22 23  1  0  0  0  0
M  END
>  <cdx:fragmentId>
5

$$$$
