56601077.cdx
  Mrv1902 05222410202D          

 22 23  0  0  0  0            999 V2000
    9.9149  -15.3032    0.0000 C   0  0  0  0  0  0  0  0  0  0  0  0
    9.2005  -14.8907    0.0000 C   0  0  0  0  0  0  0  0  0  0  0  0
    8.4860  -15.3032    0.0000 C   0  0  2  0  0  0  0  0  0  0  0  0
    7.7715  -14.8907    0.0000 C   0  0  0  0  0  0  0  0  0  0  0  0
    7.0571  -15.3032    0.0000 C   0  0  2  0  0  0  0  0  0  0  0  0
    6.3426  -14.8907    0.0000 C   0  0  0  0  0  0  0  0  0  0  0  0
    5.6281  -15.3032    0.0000 C   0  0  0  0  0  0  0  0  0  0  0  0
    8.4860  -16.1282    0.0000 O   0  0  0  0  0  0  0  0  0  0  0  0
    7.0571  -16.1282    0.0000 O   0  0  0  0  0  0  0  0  0  0  0  0
   10.6294  -14.8907    0.0000 C   0  0  0  0  0  0  0  0  0  0  0  0
   10.6294  -14.0657    0.0000 C   0  0  0  0  0  0  0  0  0  0  0  0
   11.3439  -13.6532    0.0000 C   0  0  0  0  0  0  0  0  0  0  0  0
   12.0584  -14.0657    0.0000 C   0  0  0  0  0  0  0  0  0  0  0  0
   12.0584  -14.8907    0.0000 C   0  0  0  0  0  0  0  0  0  0  0  0
   11.3439  -15.3032    0.0000 C   0  0  0  0  0  0  0  0  0  0  0  0
    4.9136  -14.8907    0.0000 C   0  0  0  0  0  0  0  0  0  0  0  0
    4.1992  -15.3032    0.0000 C   0  0  0  0  0  0  0  0  0  0  0  0
    3.4847  -14.8907    0.0000 C   0  0  0  0  0  0  0  0  0  0  0  0
    3.4847  -14.0657    0.0000 C   0  0  0  0  0  0  0  0  0  0  0  0
    4.1992  -13.6532    0.0000 C   0  0  0  0  0  0  0  0  0  0  0  0
    4.9136  -14.0657    0.0000 C   0  0  0  0  0  0  0  0  0  0  0  0
    2.7702  -13.6532    0.0000 O   0  0  0  0  0  0  0  0  0  0  0  0
  1  2  2  0  0  0  0
  2  3  1  0  0  0  0
  3  4  1  0  0  0  0
  4  5  1  0  0  0  0
  5  6  1  0  0  0  0
  6  7  1  0  0  0  0
  3  8  1  1  0  0  0
  5  9  1  1  0  0  0
 10 11  1  0  0  0  0
 11 12  2  0  0  0  0
 12 13  1  0  0  0  0
 13 14  2  0  0  0  0
 14 15  1  0  0  0  0
 10 15  2  0  0  0  0
  1 10  1  0  0  0  0
 16 17  1  0  0  0  0
 17 18  2  0  0  0  0
 18 19  1  0  0  0  0
 19 20  2  0  0  0  0
 20 21  1  0  0  0  0
 16 21  2  0  0  0  0
 19 22  1  0  0  0  0
  7 16  1  0  0  0  0
M  END
>  <cdx:groupId>
189305

>  <cdx:fragmentId>
189241

$$$$
