60106.cdx
  Mrv1902 05222410182D          

 34 37  0  0  0  0            999 V2000
    6.0206   -8.6476    0.0000 C   0  0  0  0  0  0  0  0  0  0  0  0
    6.0206   -9.4726    0.0000 C   0  0  0  0  0  0  0  0  0  0  0  0
    6.7350   -9.8851    0.0000 C   0  0  0  0  0  0  0  0  0  0  0  0
    7.4495   -9.4726    0.0000 C   0  0  0  0  0  0  0  0  0  0  0  0
    7.4495   -8.6476    0.0000 C   0  0  0  0  0  0  0  0  0  0  0  0
    6.7350   -8.2351    0.0000 C   0  0  0  0  0  0  0  0  0  0  0  0
    8.1640   -9.8851    0.0000 C   0  0  0  0  0  0  0  0  0  0  0  0
    8.8784   -9.4726    0.0000 C   0  0  0  0  0  0  0  0  0  0  0  0
    8.8784   -8.6476    0.0000 C   0  0  0  0  0  0  0  0  0  0  0  0
    8.1640   -8.2351    0.0000 O   0  0  0  0  0  0  0  0  0  0  0  0
   10.3074   -8.6476    0.0000 C   0  0  0  0  0  0  0  0  0  0  0  0
    9.5929   -8.2351    0.0000 C   0  0  0  0  0  0  0  0  0  0  0  0
   11.0219   -8.2351    0.0000 C   0  0  0  0  0  0  0  0  0  0  0  0
   11.0219   -7.4101    0.0000 C   0  0  0  0  0  0  0  0  0  0  0  0
   10.3074   -6.9976    0.0000 C   0  0  0  0  0  0  0  0  0  0  0  0
    9.5929   -7.4101    0.0000 C   0  0  0  0  0  0  0  0  0  0  0  0
    8.1640  -10.7101    0.0000 O   0  0  0  0  0  0  0  0  0  0  0  0
    6.7350  -10.7101    0.0000 O   0  0  0  0  0  0  0  0  0  0  0  0
    8.8784   -6.9976    0.0000 O   0  0  0  0  0  0  0  0  0  0  0  0
   10.3074   -9.4726    0.0000 O   0  0  0  0  0  0  0  0  0  0  0  0
   11.0219   -9.8851    0.0000 C   0  0  0  0  0  0  0  0  0  0  0  0
    5.3061   -8.2351    0.0000 O   0  0  0  0  0  0  0  0  0  0  0  0
    4.5916   -8.6476    0.0000 C   0  0  2  0  0  0  0  0  0  0  0  0
    3.8771   -8.2351    0.0000 O   0  0  0  0  0  0  0  0  0  0  0  0
    3.1627   -8.6476    0.0000 C   0  0  1  0  0  0  0  0  0  0  0  0
    3.1627   -9.4726    0.0000 C   0  0  2  0  0  0  0  0  0  0  0  0
    3.8771   -9.8851    0.0000 C   0  0  1  0  0  0  0  0  0  0  0  0
    4.5916   -9.4726    0.0000 C   0  0  1  0  0  0  0  0  0  0  0  0
    2.4482   -8.2351    0.0000 C   0  0  0  0  0  0  0  0  0  0  0  0
    3.8771  -10.7101    0.0000 O   0  0  0  0  0  0  0  0  0  0  0  0
    5.3061   -9.8851    0.0000 O   0  0  0  0  0  0  0  0  0  0  0  0
    2.4482   -9.8851    0.0000 O   0  0  0  0  0  0  0  0  0  0  0  0
    2.4482   -7.4101    0.0000 O   0  0  0  0  0  0  0  0  0  0  0  0
    1.7337   -8.6476    0.0000 O   0  0  0  0  0  0  0  0  0  0  0  0
  1  2  2  0  0  0  0
  2  3  1  0  0  0  0
  3  4  2  0  0  0  0
  4  5  1  0  0  0  0
  5  6  2  0  0  0  0
  6  1  1  0  0  0  0
  4  7  1  0  0  0  0
  7  8  1  0  0  0  0
  8  9  2  0  0  0  0
  9 10  1  0  0  0  0
 10  5  1  0  0  0  0
 11 12  2  0  0  0  0
 12  9  1  0  0  0  0
 11 13  1  0  0  0  0
 13 14  2  0  0  0  0
 14 15  1  0  0  0  0
 15 16  2  0  0  0  0
 16 12  1  0  0  0  0
  7 17  2  0  0  0  0
  3 18  1  0  0  0  0
 16 19  1  0  0  0  0
 11 20  1  0  0  0  0
 20 21  1  0  0  0  0
  1 22  1  0  0  0  0
 23 22  1  1  0  0  0
 23 24  1  0  0  0  0
 24 25  1  0  0  0  0
 25 26  1  0  0  0  0
 26 27  1  0  0  0  0
 27 28  1  0  0  0  0
 28 23  1  0  0  0  0
 25 29  1  1  0  0  0
 27 30  1  1  0  0  0
 28 31  1  6  0  0  0
 26 32  1  6  0  0  0
 29 33  1  0  0  0  0
 29 34  2  0  0  0  0
M  END
>  <cdx:fragmentId>
5

$$$$
