60101.cdx
  Mrv1902 05222410192D          

 21 22  0  0  0  0            999 V2000
    8.0556   -7.4926    0.0000 C   0  0  2  0  0  0  0  0  0  0  0  0
    8.0556   -8.3176    0.0000 C   0  0  2  0  0  0  0  0  0  0  0  0
    8.7700   -8.7301    0.0000 C   0  0  1  0  0  0  0  0  0  0  0  0
    9.4845   -8.3176    0.0000 C   0  0  0  0  0  0  0  0  0  0  0  0
    9.4845   -7.4926    0.0000 C   0  0  0  0  0  0  0  0  0  0  0  0
    8.7700   -7.0801    0.0000 N   0  0  0  0  0  0  0  0  0  0  0  0
    8.7700   -9.5551    0.0000 O   0  0  0  0  0  0  0  0  0  0  0  0
    7.3411   -7.0801    0.0000 C   0  0  0  0  0  0  0  0  0  0  0  0
    7.3411   -8.7301    0.0000 O   0  0  0  0  0  0  0  0  0  0  0  0
    6.6266   -7.4926    0.0000 O   0  0  0  0  0  0  0  0  0  0  0  0
    6.9377   -9.4498    0.0000 C   0  0  2  0  0  0  0  0  0  0  0  0
    6.1128   -9.4603    0.0000 O   0  0  0  0  0  0  0  0  0  0  0  0
    5.7094  -10.1800    0.0000 C   0  0  1  0  0  0  0  0  0  0  0  0
    6.1310  -10.8892    0.0000 C   0  0  2  0  0  0  0  0  0  0  0  0
    6.9559  -10.8786    0.0000 C   0  0  1  0  0  0  0  0  0  0  0  0
    7.3593  -10.1590    0.0000 C   0  0  1  0  0  0  0  0  0  0  0  0
    8.1842  -10.1485    0.0000 O   0  0  0  0  0  0  0  0  0  0  0  0
    5.7276  -11.6088    0.0000 O   0  0  0  0  0  0  0  0  0  0  0  0
    7.3775  -11.5878    0.0000 O   0  0  0  0  0  0  0  0  0  0  0  0
    4.8845  -10.1905    0.0000 C   0  0  0  0  0  0  0  0  0  0  0  0
    4.4720  -10.9050    0.0000 O   0  0  0  0  0  0  0  0  0  0  0  0
  1  2  1  0  0  0  0
  2  3  1  0  0  0  0
  3  4  1  0  0  0  0
  4  5  1  0  0  0  0
  5  6  1  0  0  0  0
  6  1  1  0  0  0  0
  3  7  1  1  0  0  0
  1  8  1  1  0  0  0
  2  9  1  6  0  0  0
  8 10  1  0  0  0  0
 11  9  1  1  0  0  0
 11 12  1  0  0  0  0
 12 13  1  0  0  0  0
 13 14  1  0  0  0  0
 14 15  1  0  0  0  0
 15 16  1  0  0  0  0
 16 11  1  0  0  0  0
 16 17  1  6  0  0  0
 14 18  1  6  0  0  0
 15 19  1  1  0  0  0
 13 20  1  1  0  0  0
 20 21  1  0  0  0  0
M  END
>  <cdx:fragmentId>
80

$$$$
