56601079.cdx
  Mrv1902 05222410272D          

 42 45  0  0  0  0            999 V2000
    9.9149  -13.3902    0.0000 C   0  0  0  0  0  0  0  0  0  0  0  0
   10.6294  -13.8027    0.0000 C   0  0  0  0  0  0  0  0  0  0  0  0
   11.3439  -13.3902    0.0000 C   0  0  0  0  0  0  0  0  0  0  0  0
    9.9149  -12.5652    0.0000 O   0  0  0  0  0  0  0  0  0  0  0  0
   12.0584  -13.8027    0.0000 C   0  0  0  0  0  0  0  0  0  0  0  0
   12.7728  -13.3902    0.0000 C   0  0  0  0  0  0  0  0  0  0  0  0
   13.4873  -13.8027    0.0000 C   0  0  0  0  0  0  0  0  0  0  0  0
   13.4873  -14.6277    0.0000 C   0  0  0  0  0  0  0  0  0  0  0  0
   12.7728  -15.0402    0.0000 C   0  0  0  0  0  0  0  0  0  0  0  0
   12.0584  -14.6277    0.0000 C   0  0  0  0  0  0  0  0  0  0  0  0
    9.2005  -13.8027    0.0000 C   0  0  0  0  0  0  0  0  0  0  0  0
    9.2005  -14.6277    0.0000 C   0  0  0  0  0  0  0  0  0  0  0  0
    8.4860  -15.0402    0.0000 C   0  0  0  0  0  0  0  0  0  0  0  0
    7.7715  -14.6277    0.0000 C   0  0  0  0  0  0  0  0  0  0  0  0
    7.7715  -13.8027    0.0000 C   0  0  0  0  0  0  0  0  0  0  0  0
    8.4860  -13.3902    0.0000 C   0  0  0  0  0  0  0  0  0  0  0  0
    8.4860  -12.5652    0.0000 O   0  0  0  0  0  0  0  0  0  0  0  0
    9.2005  -12.1527    0.0000 C   0  0  0  0  0  0  0  0  0  0  0  0
    8.4860  -15.8652    0.0000 C   0  0  1  0  0  0  0  0  0  0  0  0
    7.7715  -16.2777    0.0000 C   0  0  0  0  0  0  0  0  0  0  0  0
    7.0571  -15.8652    0.0000 C   0  0  0  0  0  0  0  0  0  0  0  0
    6.3426  -16.2777    0.0000 C   0  0  0  0  0  0  0  0  0  0  0  0
    5.6281  -15.8652    0.0000 C   0  0  1  0  0  0  0  0  0  0  0  0
    4.9136  -16.2777    0.0000 C   0  0  0  0  0  0  0  0  0  0  0  0
    4.1992  -15.8652    0.0000 C   0  0  0  0  0  0  0  0  0  0  0  0
    3.4847  -16.2777    0.0000 C   0  0  0  0  0  0  0  0  0  0  0  0
    3.4847  -17.1027    0.0000 C   0  0  0  0  0  0  0  0  0  0  0  0
    2.7702  -17.5152    0.0000 C   0  0  0  0  0  0  0  0  0  0  0  0
    2.0558  -17.1027    0.0000 C   0  0  0  0  0  0  0  0  0  0  0  0
    2.0558  -16.2777    0.0000 C   0  0  0  0  0  0  0  0  0  0  0  0
    2.7702  -15.8652    0.0000 C   0  0  0  0  0  0  0  0  0  0  0  0
    1.3413  -17.5152    0.0000 O   0  0  0  0  0  0  0  0  0  0  0  0
    9.2005  -16.2777    0.0000 C   0  0  0  0  0  0  0  0  0  0  0  0
    9.9149  -15.8652    0.0000 C   0  0  0  0  0  0  0  0  0  0  0  0
   10.6294  -16.2777    0.0000 C   0  0  0  0  0  0  0  0  0  0  0  0
   10.6294  -17.1027    0.0000 C   0  0  0  0  0  0  0  0  0  0  0  0
    9.9149  -17.5152    0.0000 C   0  0  0  0  0  0  0  0  0  0  0  0
    9.2005  -17.1027    0.0000 C   0  0  0  0  0  0  0  0  0  0  0  0
   11.3439  -17.5152    0.0000 O   0  0  0  0  0  0  0  0  0  0  0  0
    5.6281  -15.0402    0.0000 O   0  0  0  0  0  0  0  0  0  0  0  0
    7.0571  -15.0402    0.0000 O   0  0  0  0  0  0  0  0  0  0  0  0
    9.9149  -15.0402    0.0000 O   0  0  0  0  0  0  0  0  0  0  0  0
  1  2  1  0  0  0  0
  2  3  2  0  0  0  0
  1  4  2  0  0  0  0
  5  6  1  0  0  0  0
  6  7  2  0  0  0  0
  7  8  1  0  0  0  0
  8  9  2  0  0  0  0
  9 10  1  0  0  0  0
  5 10  2  0  0  0  0
  3  5  1  0  0  0  0
 11 12  1  0  0  0  0
 12 13  2  0  0  0  0
 13 14  1  0  0  0  0
 14 15  2  0  0  0  0
 15 16  1  0  0  0  0
 11 16  2  0  0  0  0
 17 18  1  0  0  0  0
 16 17  1  0  0  0  0
 19 20  1  0  0  0  0
 20 21  2  0  0  0  0
 21 22  1  0  0  0  0
 22 23  1  0  0  0  0
 23 24  1  0  0  0  0
 24 25  1  0  0  0  0
 26 27  1  0  0  0  0
 27 28  2  0  0  0  0
 28 29  1  0  0  0  0
 29 30  2  0  0  0  0
 30 31  1  0  0  0  0
 26 31  2  0  0  0  0
 29 32  1  0  0  0  0
 25 26  1  0  0  0  0
 33 34  1  0  0  0  0
 34 35  2  0  0  0  0
 35 36  1  0  0  0  0
 36 37  2  0  0  0  0
 37 38  1  0  0  0  0
 33 38  2  0  0  0  0
 36 39  1  0  0  0  0
 19 33  1  0  0  0  0
 23 40  1  1  0  0  0
 19 13  1  6  0  0  0
 14 41  1  0  0  0  0
 12 42  1  0  0  0  0
  1 11  1  0  0  0  0
M  END
>  <cdx:groupId>
189581

>  <cdx:fragmentId>
189505

$$$$
