60109.cdx
  Mrv1902 05222410272D          

 11 11  0  0  0  0            999 V2000
    6.6393   -8.5651    0.0000 C   0  0  0  0  0  0  0  0  0  0  0  0
    6.6393   -9.3901    0.0000 C   0  0  0  0  0  0  0  0  0  0  0  0
    7.3538   -9.8026    0.0000 C   0  0  0  0  0  0  0  0  0  0  0  0
    8.0682   -9.3901    0.0000 C   0  0  0  0  0  0  0  0  0  0  0  0
    8.0682   -8.5651    0.0000 C   0  0  0  0  0  0  0  0  0  0  0  0
    7.3538   -8.1526    0.0000 C   0  0  0  0  0  0  0  0  0  0  0  0
    8.7827   -8.1526    0.0000 C   0  0  0  0  0  0  0  0  0  0  0  0
    7.3538   -7.3276    0.0000 C   0  0  0  0  0  0  0  0  0  0  0  0
    8.0682   -6.9151    0.0000 C   0  0  0  0  0  0  0  0  0  0  0  0
    5.9248   -8.1526    0.0000 C   0  0  0  0  0  0  0  0  0  0  0  0
    5.2104   -8.5651    0.0000 C   0  0  0  0  0  0  0  0  0  0  0  0
  1  2  1  0  0  0  0
  2  3  1  0  0  0  0
  3  4  1  0  0  0  0
  4  5  2  0  0  0  0
  5  6  1  0  0  0  0
  6  1  1  0  0  0  0
  5  7  1  0  0  0  0
  6  8  1  0  0  0  0
  8  9  2  0  0  0  0
  1 10  1  0  0  0  0
 10 11  2  0  0  0  0
M  END
>  <cdx:fragmentId>
5

$$$$
