60110.cdx
  Mrv1902 05222410192D          

 42 46  0  0  0  0            999 V2000
    5.1818   -8.0289    0.0000 C   0  0  0  0  0  0  0  0  0  0  0  0
    5.1818   -8.8539    0.0000 C   0  0  0  0  0  0  0  0  0  0  0  0
    5.8963   -9.2664    0.0000 C   0  0  0  0  0  0  0  0  0  0  0  0
    6.6107   -8.8539    0.0000 C   0  0  0  0  0  0  0  0  0  0  0  0
    6.6107   -8.0289    0.0000 C   0  0  0  0  0  0  0  0  0  0  0  0
    5.8963   -7.6164    0.0000 C   0  0  0  0  0  0  0  0  0  0  0  0
    7.3252   -9.2664    0.0000 C   0  0  0  0  0  0  0  0  0  0  0  0
    8.0397   -8.8539    0.0000 C   0  0  0  0  0  0  0  0  0  0  0  0
    8.0397   -8.0289    0.0000 C   0  0  0  0  0  0  0  0  0  0  0  0
    7.3252   -7.6164    0.0000 O   0  0  0  0  0  0  0  0  0  0  0  0
    9.4686   -8.0289    0.0000 C   0  0  0  0  0  0  0  0  0  0  0  0
    8.7542   -7.6164    0.0000 C   0  0  0  0  0  0  0  0  0  0  0  0
   10.1831   -7.6164    0.0000 C   0  0  0  0  0  0  0  0  0  0  0  0
   10.1831   -6.7914    0.0000 C   0  0  0  0  0  0  0  0  0  0  0  0
    9.4686   -6.3789    0.0000 C   0  0  0  0  0  0  0  0  0  0  0  0
    8.7542   -6.7914    0.0000 C   0  0  0  0  0  0  0  0  0  0  0  0
    7.3252  -10.0914    0.0000 O   0  0  0  0  0  0  0  0  0  0  0  0
    5.8963  -10.0914    0.0000 O   0  0  0  0  0  0  0  0  0  0  0  0
    4.4673   -7.6164    0.0000 O   0  0  0  0  0  0  0  0  0  0  0  0
   10.8976   -6.3789    0.0000 O   0  0  0  0  0  0  0  0  0  0  0  0
    5.1818  -10.5039    0.0000 C   0  0  2  0  0  0  0  0  0  0  0  0
    4.4673  -10.0914    0.0000 O   0  0  0  0  0  0  0  0  0  0  0  0
    3.7529  -10.5039    0.0000 C   0  0  1  0  0  0  0  0  0  0  0  0
    3.7529  -11.3289    0.0000 C   0  0  2  0  0  0  0  0  0  0  0  0
    4.4673  -11.7414    0.0000 C   0  0  1  0  0  0  0  0  0  0  0  0
    5.1818  -11.3289    0.0000 C   0  0  1  0  0  0  0  0  0  0  0  0
    3.0384  -10.0914    0.0000 C   0  0  0  0  0  0  0  0  0  0  0  0
    4.4673  -12.5664    0.0000 O   0  0  0  0  0  0  0  0  0  0  0  0
    5.8963  -11.7414    0.0000 O   0  0  0  0  0  0  0  0  0  0  0  0
    3.0384  -11.7414    0.0000 O   0  0  0  0  0  0  0  0  0  0  0  0
    2.3239  -10.5039    0.0000 O   0  0  0  0  0  0  0  0  0  0  0  0
    3.7529   -7.2039    0.0000 C   0  0  2  0  0  0  0  0  0  0  0  0
    3.7529   -6.3789    0.0000 O   0  0  0  0  0  0  0  0  0  0  0  0
    3.0384   -5.9664    0.0000 C   0  0  1  0  0  0  0  0  0  0  0  0
    2.3239   -6.3789    0.0000 C   0  0  2  0  0  0  0  0  0  0  0  0
    2.3239   -7.2039    0.0000 C   0  0  1  0  0  0  0  0  0  0  0  0
    3.0384   -7.6164    0.0000 C   0  0  1  0  0  0  0  0  0  0  0  0
    3.0384   -5.1414    0.0000 C   0  0  0  0  0  0  0  0  0  0  0  0
    1.6094   -7.6164    0.0000 O   0  0  0  0  0  0  0  0  0  0  0  0
    3.0384   -8.4414    0.0000 O   0  0  0  0  0  0  0  0  0  0  0  0
    1.6094   -5.9664    0.0000 O   0  0  0  0  0  0  0  0  0  0  0  0
    2.3239   -4.7289    0.0000 O   0  0  0  0  0  0  0  0  0  0  0  0
  1  2  2  0  0  0  0
  2  3  1  0  0  0  0
  3  4  1  0  0  0  0
  4  5  1  0  0  0  0
  5  6  2  0  0  0  0
  6  1  1  0  0  0  0
  4  7  1  0  0  0  0
  7  8  1  0  0  0  0
  8  9  1  0  0  0  0
  9 10  1  0  0  0  0
 10  5  1  0  0  0  0
 11 12  1  0  0  0  0
 12  9  1  0  0  0  0
 11 13  2  0  0  0  0
 13 14  1  0  0  0  0
 14 15  2  0  0  0  0
 15 16  1  0  0  0  0
 16 12  2  0  0  0  0
  7 17  2  0  0  0  0
  3 18  1  0  0  0  0
  1 19  1  0  0  0  0
 14 20  1  0  0  0  0
 21 18  1  1  0  0  0
 21 22  1  0  0  0  0
 22 23  1  0  0  0  0
 23 24  1  0  0  0  0
 24 25  1  0  0  0  0
 25 26  1  0  0  0  0
 26 21  1  0  0  0  0
 23 27  1  1  0  0  0
 25 28  1  1  0  0  0
 26 29  1  6  0  0  0
 24 30  1  6  0  0  0
 27 31  1  0  0  0  0
 32 19  1  1  0  0  0
 32 33  1  0  0  0  0
 33 34  1  0  0  0  0
 34 35  1  0  0  0  0
 35 36  1  0  0  0  0
 36 37  1  0  0  0  0
 37 32  1  0  0  0  0
 34 38  1  1  0  0  0
 36 39  1  1  0  0  0
 37 40  1  6  0  0  0
 35 41  1  6  0  0  0
 38 42  1  0  0  0  0
M  END
>  <cdx:fragmentId>
5

$$$$
