60114.cdx
  Mrv1902 05222410192D          

 33 36  0  0  0  0            999 V2000
    3.4493  -10.0226    0.0000 C   0  0  1  0  0  0  0  0  0  0  0  0
    3.4493  -10.8476    0.0000 C   0  0  0  0  0  0  0  0  0  0  0  0
    4.1638  -11.2601    0.0000 C   0  0  0  0  0  0  0  0  0  0  0  0
    4.8782  -10.8476    0.0000 C   0  0  1  0  0  0  0  0  0  0  0  0
    4.8782  -10.0226    0.0000 C   0  0  2  0  0  0  0  0  0  0  0  0
    4.1638   -9.6101    0.0000 C   0  0  0  0  0  0  0  0  0  0  0  0
    5.5927  -11.2601    0.0000 C   0  0  0  0  0  0  0  0  0  0  0  0
    6.3072  -10.8476    0.0000 C   0  0  0  0  0  0  0  0  0  0  0  0
    6.3072  -10.0226    0.0000 C   0  0  2  0  0  0  0  0  0  0  0  0
    5.5927   -9.6101    0.0000 C   0  0  2  0  0  0  0  0  0  0  0  0
    7.0217   -9.6101    0.0000 C   0  0  1  0  0  0  0  0  0  0  0  0
    7.0217   -8.7851    0.0000 C   0  0  2  0  0  0  0  0  0  0  0  0
    6.3072   -8.3726    0.0000 C   0  0  0  0  0  0  0  0  0  0  0  0
    5.5927   -8.7851    0.0000 C   0  0  0  0  0  0  0  0  0  0  0  0
    7.8063   -9.8651    0.0000 C   0  0  0  0  0  0  0  0  0  0  0  0
    8.2912   -9.1976    0.0000 C   0  0  0  0  0  0  0  0  0  0  0  0
    7.8063   -8.5302    0.0000 C   0  0  2  0  0  0  0  0  0  0  0  0
    8.0612   -7.7456    0.0000 C   0  0  1  0  0  0  0  0  0  0  0  0
    8.8581   -7.5321    0.0000 C   0  0  0  0  0  0  0  0  0  0  0  0
    9.0716   -6.7352    0.0000 C   0  0  0  0  0  0  0  0  0  0  0  0
    9.8685   -6.5216    0.0000 C   0  0  0  0  0  0  0  0  0  0  0  0
   10.0820   -5.7248    0.0000 C   0  0  0  0  0  0  0  0  0  0  0  0
    9.4987   -5.1414    0.0000 C   0  0  0  0  0  0  0  0  0  0  0  0
   10.8789   -5.5112    0.0000 C   0  0  0  0  0  0  0  0  0  0  0  0
    2.7348   -9.6101    0.0000 C   0  0  0  0  0  0  0  0  0  0  0  0
    4.8782  -11.6726    0.0000 H   0  0  0  0  0  0  0  0  0  0  0  0
    5.5927  -10.4351    0.0000 H   0  0  0  0  0  0  0  0  0  0  0  0
    7.0217  -10.4351    0.0000 H   0  0  0  0  0  0  0  0  0  0  0  0
    8.6032   -8.3167    0.0000 H   0  0  0  0  0  0  0  0  0  0  0  0
    7.4933   -7.1472    0.0000 C   0  0  0  0  0  0  0  0  0  0  0  0
    4.8782   -9.1976    0.0000 C   0  0  0  0  0  0  0  0  0  0  0  0
    6.3072   -9.1976    0.0000 H   0  0  0  0  0  0  0  0  0  0  0  0
    7.0217   -7.9601    0.0000 C   0  0  0  0  0  0  0  0  0  0  0  0
  1  2  1  0  0  0  0
  2  3  2  0  0  0  0
  3  4  1  0  0  0  0
  4  5  1  0  0  0  0
  5  6  1  0  0  0  0
  6  1  1  0  0  0  0
  4  7  1  0  0  0  0
  7  8  1  0  0  0  0
  8  9  1  0  0  0  0
  9 10  1  0  0  0  0
 10  5  1  0  0  0  0
  9 11  1  0  0  0  0
 11 12  1  0  0  0  0
 12 13  1  0  0  0  0
 13 14  1  0  0  0  0
 14 10  1  0  0  0  0
 11 15  1  0  0  0  0
 15 16  1  0  0  0  0
 16 17  1  0  0  0  0
 17 12  1  0  0  0  0
 17 18  1  0  0  0  0
 18 19  1  0  0  0  0
 19 20  1  0  0  0  0
 20 21  1  0  0  0  0
 21 22  1  0  0  0  0
 22 23  1  0  0  0  0
 22 24  1  0  0  0  0
  1 25  1  6  0  0  0
  4 26  1  6  0  0  0
 10 27  1  6  0  0  0
 11 28  1  6  0  0  0
 17 29  1  6  0  0  0
 18 30  1  6  0  0  0
  5 31  1  1  0  0  0
  9 32  1  1  0  0  0
 12 33  1  1  0  0  0
M  END
>  <cdx:fragmentId>
5

$$$$
