601115.cdx
  Mrv1902 05222410192D          

 27 28  0  0  0  0            999 V2000
    7.9112   -7.5681    0.0000 C   0  0  0  0  0  0  0  0  0  0  0  0
    7.9119   -6.7431    0.0000 C   0  0  0  0  0  0  0  0  0  0  0  0
    7.1977   -6.3300    0.0000 C   0  0  0  0  0  0  0  0  0  0  0  0
    7.1984   -5.5050    0.0000 C   0  0  0  0  0  0  0  0  0  0  0  0
    7.9132   -5.0931    0.0000 C   0  0  0  0  0  0  0  0  0  0  0  0
    8.6273   -5.5062    0.0000 C   0  0  0  0  0  0  0  0  0  0  0  0
    8.6267   -6.3312    0.0000 C   0  0  0  0  0  0  0  0  0  0  0  0
    7.9139   -4.2681    0.0000 O   0  0  0  0  0  0  0  0  0  0  0  0
    7.1944  -10.4550    0.0000 O   0  0  0  0  0  0  0  0  0  0  0  0
    5.7648  -11.2788    0.0000 O   0  0  0  0  0  0  0  0  0  0  0  0
    4.3365  -10.4527    0.0000 O   0  0  0  0  0  0  0  0  0  0  0  0
    3.6230   -9.2146    0.0000 O   0  0  0  0  0  0  0  0  0  0  0  0
    4.3378   -8.8027    0.0000 C   0  0  0  0  0  0  0  0  0  0  0  0
    5.0520   -9.2158    0.0000 C   0  0  2  0  0  0  0  0  0  0  0  0
    5.0513  -10.0408    0.0000 C   0  0  2  0  0  0  0  0  0  0  0  0
    5.7654  -10.4538    0.0000 C   0  0  1  0  0  0  0  0  0  0  0  0
    6.4802  -10.0419    0.0000 C   0  0  2  0  0  0  0  0  0  0  0  0
    6.4809   -9.2169    0.0000 C   0  0  1  0  0  0  0  0  0  0  0  0
    5.7668   -8.8038    0.0000 O   0  0  0  0  0  0  0  0  0  0  0  0
    5.0546   -5.9158    0.0000 O   0  0  0  0  0  0  0  0  0  0  0  0
    5.3557   -7.0430    0.0000 O   0  0  0  0  0  0  0  0  0  0  0  0
    6.1819   -5.6147    0.0000 O   0  0  0  0  0  0  0  0  0  0  0  0
    5.7688   -6.3289    0.0000 S   0  0  0  0  0  0  0  0  0  0  0  0
    6.4829   -6.7419    0.0000 O   0  0  0  0  0  0  0  0  0  0  0  0
    6.4823   -7.5669    0.0000 N   0  0  0  0  0  0  0  0  0  0  0  0
    7.1957   -8.8050    0.0000 S   0  0  0  0  0  0  0  0  0  0  0  0
    7.1964   -7.9800    0.0000 C   0  0  0  0  0  0  0  0  0  0  0  0
 18 26  1  1  0  0  0
 17  9  1  6  0  0  0
 16 10  1  1  0  0  0
 15 11  1  6  0  0  0
 14 13  1  1  0  0  0
 13 12  1  0  0  0  0
 19 14  1  0  0  0  0
 15 14  1  0  0  0  0
 16 15  1  0  0  0  0
 17 16  1  0  0  0  0
 18 17  1  0  0  0  0
 19 18  1  0  0  0  0
 25 24  1  0  0  0  0
 24 23  1  0  0  0  0
 23 20  1  0  0  0  0
 23 21  2  0  0  0  0
 23 22  2  0  0  0  0
 27 25  2  0  0  0  0
 27 26  1  0  0  0  0
 27  1  1  0  0  0  0
  2  3  1  0  0  0  0
  3  4  2  0  0  0  0
  4  5  1  0  0  0  0
  5  6  2  0  0  0  0
  6  7  1  0  0  0  0
  2  7  2  0  0  0  0
  5  8  1  0  0  0  0
  1  2  1  0  0  0  0
M  END
>  <cdx:fragmentId>
15

$$$$
