60117.cdx
  Mrv1902 05222410202D          

 21 23  0  0  0  0            999 V2000
    4.9756   -8.2214    0.0000 C   0  0  0  0  0  0  0  0  0  0  0  0
    4.9756   -9.0464    0.0000 C   0  0  0  0  0  0  0  0  0  0  0  0
    5.6900   -9.4589    0.0000 C   0  0  0  0  0  0  0  0  0  0  0  0
    6.4045   -9.0464    0.0000 C   0  0  0  0  0  0  0  0  0  0  0  0
    6.4045   -8.2214    0.0000 C   0  0  0  0  0  0  0  0  0  0  0  0
    5.6900   -7.8089    0.0000 C   0  0  0  0  0  0  0  0  0  0  0  0
    7.1891   -9.3013    0.0000 C   0  0  0  0  0  0  0  0  0  0  0  0
    7.6740   -8.6339    0.0000 C   0  0  0  0  0  0  0  0  0  0  0  0
    7.1891   -7.9665    0.0000 O   0  0  0  0  0  0  0  0  0  0  0  0
    4.2611   -9.4589    0.0000 O   0  0  0  0  0  0  0  0  0  0  0  0
    4.2611   -7.8089    0.0000 O   0  0  0  0  0  0  0  0  0  0  0  0
    8.4990   -8.6339    0.0000 C   0  0  0  0  0  0  0  0  0  0  0  0
    8.9115   -9.3484    0.0000 C   0  0  0  0  0  0  0  0  0  0  0  0
    9.7365   -9.3484    0.0000 C   0  0  0  0  0  0  0  0  0  0  0  0
   10.1490   -8.6339    0.0000 C   0  0  0  0  0  0  0  0  0  0  0  0
    9.7365   -7.9194    0.0000 C   0  0  0  0  0  0  0  0  0  0  0  0
    8.9115   -7.9194    0.0000 C   0  0  0  0  0  0  0  0  0  0  0  0
    3.5466   -8.2214    0.0000 C   0  0  0  0  0  0  0  0  0  0  0  0
    8.4990   -7.2050    0.0000 O   0  0  0  0  0  0  0  0  0  0  0  0
   10.9740   -8.6339    0.0000 O   0  0  0  0  0  0  0  0  0  0  0  0
   11.3865   -9.3484    0.0000 C   0  0  0  0  0  0  0  0  0  0  0  0
  1  2  2  0  0  0  0
  2  3  1  0  0  0  0
  3  4  2  0  0  0  0
  4  5  1  0  0  0  0
  5  6  2  0  0  0  0
  6  1  1  0  0  0  0
  4  7  1  0  0  0  0
  7  8  2  0  0  0  0
  8  9  1  0  0  0  0
  9  5  1  0  0  0  0
  2 10  1  0  0  0  0
  1 11  1  0  0  0  0
  8 12  1  0  0  0  0
 12 13  2  0  0  0  0
 13 14  1  0  0  0  0
 14 15  2  0  0  0  0
 15 16  1  0  0  0  0
 16 17  2  0  0  0  0
 17 12  1  0  0  0  0
 11 18  1  0  0  0  0
 17 19  1  0  0  0  0
 15 20  1  0  0  0  0
 20 21  1  0  0  0  0
M  END
>  <cdx:fragmentId>
5

$$$$
