60112.cdx
  Mrv1902 05222410182D          

 17 18  0  0  0  0            999 V2000
    7.4368   -7.7539    0.0000 C   0  0  0  0  0  0  0  0  0  0  0  0
    7.4368   -8.5789    0.0000 C   0  0  0  0  0  0  0  0  0  0  0  0
    8.1513   -8.9914    0.0000 C   0  0  0  0  0  0  0  0  0  0  0  0
    8.8657   -8.5789    0.0000 C   0  0  0  0  0  0  0  0  0  0  0  0
    8.8657   -7.7539    0.0000 C   0  0  0  0  0  0  0  0  0  0  0  0
    8.1513   -7.3414    0.0000 C   0  0  0  0  0  0  0  0  0  0  0  0
    9.6504   -8.8338    0.0000 C   0  0  0  0  0  0  0  0  0  0  0  0
   10.1353   -8.1664    0.0000 O   0  0  0  0  0  0  0  0  0  0  0  0
    9.6504   -7.4990    0.0000 C   0  0  0  0  0  0  0  0  0  0  0  0
    9.9053   -6.7143    0.0000 O   0  0  0  0  0  0  0  0  0  0  0  0
    6.7223   -8.9914    0.0000 O   0  0  0  0  0  0  0  0  0  0  0  0
    8.1513   -6.5164    0.0000 O   0  0  0  0  0  0  0  0  0  0  0  0
    6.7223   -7.3414    0.0000 C   0  0  0  0  0  0  0  0  0  0  0  0
    6.0079   -7.7539    0.0000 C   0  0  0  0  0  0  0  0  0  0  0  0
    5.2934   -7.3414    0.0000 C   0  0  0  0  0  0  0  0  0  0  0  0
    4.5789   -7.7539    0.0000 C   0  0  0  0  0  0  0  0  0  0  0  0
    5.2934   -6.5164    0.0000 C   0  0  0  0  0  0  0  0  0  0  0  0
  1  2  2  0  0  0  0
  2  3  1  0  0  0  0
  3  4  2  0  0  0  0
  4  5  1  0  0  0  0
  5  6  2  0  0  0  0
  6  1  1  0  0  0  0
  4  7  1  0  0  0  0
  7  8  1  0  0  0  0
  8  9  1  0  0  0  0
  9  5  1  0  0  0  0
  9 10  2  0  0  0  0
  2 11  1  0  0  0  0
  6 12  1  0  0  0  0
  1 13  1  0  0  0  0
 13 14  1  0  0  0  0
 14 15  2  0  0  0  0
 15 16  1  0  0  0  0
 15 17  1  0  0  0  0
M  END
>  <cdx:fragmentId>
5

$$$$
