60116.cdx
  Mrv1902 05222410202D          

 10 10  0  0  0  0            999 V2000
    5.5760   -8.7026    0.0000 C   0  0  0  0  0  0  0  0  0  0  0  0
    5.5760   -9.5276    0.0000 C   0  0  0  0  0  0  0  0  0  0  0  0
    6.2210  -10.0420    0.0000 C   0  0  0  0  0  0  0  0  0  0  0  0
    7.0253   -9.8584    0.0000 C   0  0  0  0  0  0  0  0  0  0  0  0
    7.3832   -9.1151    0.0000 C   0  0  0  0  0  0  0  0  0  0  0  0
    7.0253   -8.3719    0.0000 C   0  0  0  0  0  0  0  0  0  0  0  0
    6.2210   -8.1883    0.0000 C   0  0  0  0  0  0  0  0  0  0  0  0
    4.8327   -9.8856    0.0000 C   0  0  0  0  0  0  0  0  0  0  0  0
    8.2082   -9.1151    0.0000 C   0  0  0  0  0  0  0  0  0  0  0  0
    8.6207   -8.4007    0.0000 C   0  0  0  0  0  0  0  0  0  0  0  0
  1  2  2  0  0  0  0
  2  3  1  0  0  0  0
  3  4  1  0  0  0  0
  4  5  1  0  0  0  0
  5  6  1  0  0  0  0
  6  7  1  0  0  0  0
  7  1  1  0  0  0  0
  2  8  1  0  0  0  0
  5  9  2  0  0  0  0
  9 10  1  0  0  0  0
M  END
>  <cdx:fragmentId>
5

$$$$
