60115.cdx
  Mrv1902 05222410192D          

 17 18  0  0  0  0            999 V2000
    5.6218   -6.0626    0.0000 C   0  0  0  0  0  0  0  0  0  0  0  0
    5.6218   -6.8876    0.0000 C   0  0  0  0  0  0  0  0  0  0  0  0
    6.3363   -7.3001    0.0000 C   0  0  0  0  0  0  0  0  0  0  0  0
    7.0507   -6.8876    0.0000 C   0  0  0  0  0  0  0  0  0  0  0  0
    7.0507   -6.0626    0.0000 C   0  0  0  0  0  0  0  0  0  0  0  0
    6.3363   -5.6501    0.0000 C   0  0  0  0  0  0  0  0  0  0  0  0
    7.7652   -7.3001    0.0000 C   0  0  0  0  0  0  0  0  0  0  0  0
    8.4797   -6.8876    0.0000 C   0  0  0  0  0  0  0  0  0  0  0  0
    8.4797   -6.0626    0.0000 C   0  0  0  0  0  0  0  0  0  0  0  0
    7.7652   -5.6501    0.0000 O   0  0  0  0  0  0  0  0  0  0  0  0
    4.9073   -5.6501    0.0000 O   0  0  0  0  0  0  0  0  0  0  0  0
    9.1942   -5.6501    0.0000 C   0  0  0  0  0  0  0  0  0  0  0  0
    7.7652   -8.1251    0.0000 O   0  0  0  0  0  0  0  0  0  0  0  0
    6.3363   -8.1251    0.0000 C   0  0  0  0  0  0  0  0  0  0  0  0
    5.6218   -8.5376    0.0000 C   0  0  0  0  0  0  0  0  0  0  0  0
    4.9073   -8.1251    0.0000 O   0  0  0  0  0  0  0  0  0  0  0  0
    5.6218   -9.3626    0.0000 O   0  0  0  0  0  0  0  0  0  0  0  0
  1  2  2  0  0  0  0
  2  3  1  0  0  0  0
  3  4  2  0  0  0  0
  4  5  1  0  0  0  0
  5  6  2  0  0  0  0
  6  1  1  0  0  0  0
  4  7  1  0  0  0  0
  7  8  1  0  0  0  0
  8  9  2  0  0  0  0
  9 10  1  0  0  0  0
 10  5  1  0  0  0  0
  1 11  1  0  0  0  0
  9 12  1  0  0  0  0
  7 13  2  0  0  0  0
  3 14  1  0  0  0  0
 14 15  1  0  0  0  0
 15 16  2  0  0  0  0
 15 17  1  0  0  0  0
M  END
>  <cdx:fragmentId>
5

$$$$
