601272.cdx
  Mrv1902 05222410192D          

 42 45  0  0  0  0            999 V2000
    7.0033   -6.1979    0.0000 C   0  0  0  0  0  0  0  0  0  0  0  0
    6.2891   -5.7850    0.0000 C   0  0  0  0  0  0  0  0  0  0  0  0
    6.2896   -4.9600    0.0000 C   0  0  1  0  0  0  0  0  0  0  0  0
    5.5754   -4.5471    0.0000 C   0  0  0  0  0  0  0  0  0  0  0  0
    5.5759   -3.7221    0.0000 C   0  0  0  0  0  0  0  0  0  0  0  0
    4.8616   -3.3091    0.0000 C   0  0  0  0  0  0  0  0  0  0  0  0
    4.1469   -3.7212    0.0000 C   0  0  0  0  0  0  0  0  0  0  0  0
    3.4327   -3.3083    0.0000 C   0  0  0  0  0  0  0  0  0  0  0  0
    3.4332   -2.4833    0.0000 C   0  0  0  0  0  0  0  0  0  0  0  0
    4.1479   -2.0712    0.0000 C   0  0  0  0  0  0  0  0  0  0  0  0
    4.8621   -2.4841    0.0000 C   0  0  0  0  0  0  0  0  0  0  0  0
    7.0041   -9.4979    0.0000 C   0  0  0  0  0  0  0  0  0  0  0  0
    7.0037   -8.6729    0.0000 C   0  0  0  0  0  0  0  0  0  0  0  0
    7.7179   -8.2600    0.0000 C   0  0  0  0  0  0  0  0  0  0  0  0
    8.4326   -8.6722    0.0000 C   0  0  0  0  0  0  0  0  0  0  0  0
    8.4330   -9.4972    0.0000 C   0  0  0  0  0  0  0  0  0  0  0  0
    7.7188   -9.9100    0.0000 C   0  0  0  0  0  0  0  0  0  0  0  0
    7.0043   -4.5479    0.0000 O   0  0  0  0  0  0  0  0  0  0  0  0
    8.4338  -11.1472    0.0000 C   0  0  0  0  0  0  0  0  0  0  0  0
    9.1469   -8.2593    0.0000 O   0  0  0  0  0  0  0  0  0  0  0  0
    6.2890   -8.2608    0.0000 O   0  0  0  0  0  0  0  0  0  0  0  0
    6.2910  -12.3857    0.0000 C   0  0  0  0  0  0  0  0  0  0  0  0
    6.2915  -13.2107    0.0000 C   0  0  0  0  0  0  0  0  0  0  0  0
    5.5772  -13.6236    0.0000 C   0  0  0  0  0  0  0  0  0  0  0  0
   10.5746   -5.7836    0.0000 O   0  0  0  0  0  0  0  0  0  0  0  0
    8.4314   -6.1972    0.0000 C   0  0  0  0  0  0  0  0  0  0  0  0
    9.1457   -5.7843    0.0000 C   0  0  0  0  0  0  0  0  0  0  0  0
    9.8603   -6.1965    0.0000 C   0  0  0  0  0  0  0  0  0  0  0  0
    9.8607   -7.0215    0.0000 C   0  0  0  0  0  0  0  0  0  0  0  0
    9.1465   -7.4343    0.0000 C   0  0  0  0  0  0  0  0  0  0  0  0
    8.4318   -7.0222    0.0000 C   0  0  0  0  0  0  0  0  0  0  0  0
    7.0029   -7.0229    0.0000 C   0  0  0  0  0  0  0  0  0  0  0  0
    7.7175   -7.4350    0.0000 C   0  0  1  0  0  0  0  0  0  0  0  0
    4.8625  -13.2115    0.0000 C   0  0  0  0  0  0  0  0  0  0  0  0
    4.8621  -12.3865    0.0000 C   0  0  0  0  0  0  0  0  0  0  0  0
    5.5764  -11.9736    0.0000 C   0  0  0  0  0  0  0  0  0  0  0  0
    5.5751   -9.4986    0.0000 O   0  0  0  0  0  0  0  0  0  0  0  0
    5.5760  -11.1486    0.0000 C   0  0  0  0  0  0  0  0  0  0  0  0
    6.2902  -10.7357    0.0000 C   0  0  0  0  0  0  0  0  0  0  0  0
    6.2898   -9.9107    0.0000 C   0  0  0  0  0  0  0  0  0  0  0  0
    7.7192  -10.7350    0.0000 O   0  0  0  0  0  0  0  0  0  0  0  0
    5.5776  -14.4486    0.0000 O   0  0  0  0  0  0  0  0  0  0  0  0
 38 36  1  0  0  0  0
 36 22  2  0  0  0  0
 23 22  1  0  0  0  0
 33 14  1  0  0  0  0
 33 31  1  0  0  0  0
 28 25  1  0  0  0  0
 31 26  2  0  0  0  0
 27 26  1  0  0  0  0
 28 27  2  0  0  0  0
 29 28  1  0  0  0  0
 30 29  2  0  0  0  0
 31 30  1  0  0  0  0
 33 32  1  6  0  0  0
 24 23  2  0  0  0  0
 34 24  1  0  0  0  0
 35 34  2  0  0  0  0
 36 35  1  0  0  0  0
 40 37  2  0  0  0  0
 39 38  2  0  0  0  0
 40 39  1  0  0  0  0
 41 19  1  0  0  0  0
 32  1  2  0  0  0  0
  1  2  1  0  0  0  0
  2  3  1  0  0  0  0
  3  4  1  0  0  0  0
  4  5  1  0  0  0  0
  6  7  1  0  0  0  0
  7  8  2  0  0  0  0
  8  9  1  0  0  0  0
  9 10  2  0  0  0  0
 10 11  1  0  0  0  0
  6 11  2  0  0  0  0
  5  6  1  0  0  0  0
 12 13  1  0  0  0  0
 13 14  2  0  0  0  0
 14 15  1  0  0  0  0
 15 16  2  0  0  0  0
 16 17  1  0  0  0  0
 12 17  2  0  0  0  0
  3 18  1  1  0  0  0
 17 41  1  0  0  0  0
 15 20  1  0  0  0  0
 13 21  1  0  0  0  0
 40 12  1  0  0  0  0
 24 42  1  0  0  0  0
M  END
>  <cdx:fragmentId>
41

$$$$
