60122.cdx
  Mrv1902 05222410282D          

 17 19  0  0  0  0            999 V2000
    7.4627   -9.9080    0.0000 C   0  0  0  0  0  0  0  0  0  0  0  0
    6.7482   -9.4955    0.0000 O   0  0  0  0  0  0  0  0  0  0  0  0
    6.7482   -6.1955    0.0000 O   0  0  0  0  0  0  0  0  0  0  0  0
    3.8903   -7.0205    0.0000 O   0  0  0  0  0  0  0  0  0  0  0  0
    8.2473   -8.5130    0.0000 C   0  0  0  0  0  0  0  0  0  0  0  0
    8.7322   -7.8455    0.0000 C   0  0  0  0  0  0  0  0  0  0  0  0
    8.2473   -7.1781    0.0000 O   0  0  0  0  0  0  0  0  0  0  0  0
    6.7482   -8.6705    0.0000 C   0  0  0  0  0  0  0  0  0  0  0  0
    7.4627   -8.2580    0.0000 C   0  0  0  0  0  0  0  0  0  0  0  0
    7.4627   -7.4330    0.0000 C   0  0  0  0  0  0  0  0  0  0  0  0
    6.7482   -7.0205    0.0000 C   0  0  0  0  0  0  0  0  0  0  0  0
    5.3192   -8.6705    0.0000 C   0  0  0  0  0  0  0  0  0  0  0  0
    6.0337   -8.2580    0.0000 C   0  0  0  0  0  0  0  0  0  0  0  0
    6.0337   -7.4330    0.0000 C   0  0  0  0  0  0  0  0  0  0  0  0
    5.3192   -7.0205    0.0000 O   0  0  0  0  0  0  0  0  0  0  0  0
    4.6048   -7.4330    0.0000 C   0  0  0  0  0  0  0  0  0  0  0  0
    4.6048   -8.2580    0.0000 C   0  0  0  0  0  0  0  0  0  0  0  0
  2  1  1  0  0  0  0
  8  2  1  0  0  0  0
 11  3  1  0  0  0  0
 16  4  2  0  0  0  0
  5  9  1  0  0  0  0
  6  5  2  0  0  0  0
  7  6  1  0  0  0  0
 10  7  1  0  0  0  0
  8 13  1  0  0  0  0
  9  8  2  0  0  0  0
 10  9  1  0  0  0  0
 11 10  2  0  0  0  0
 14 11  1  0  0  0  0
 12 17  2  0  0  0  0
 13 12  1  0  0  0  0
 14 13  2  0  0  0  0
 15 14  1  0  0  0  0
 16 15  1  0  0  0  0
 17 16  1  0  0  0  0
M  END
>  <cdx:fragmentId>
5

$$$$
