60123.cdx
  Mrv1902 05222410282D          

 25 27  0  0  0  0            999 V2000
    4.8793  -10.0501    0.0000 C   0  0  0  0  0  0  0  0  0  0  0  0
    4.8793  -10.8751    0.0000 C   0  0  0  0  0  0  0  0  0  0  0  0
    5.5938  -11.2876    0.0000 C   0  0  0  0  0  0  0  0  0  0  0  0
    6.3082  -10.8751    0.0000 C   0  0  0  0  0  0  0  0  0  0  0  0
    6.3082  -10.0501    0.0000 C   0  0  0  0  0  0  0  0  0  0  0  0
    5.5938   -9.6376    0.0000 C   0  0  0  0  0  0  0  0  0  0  0  0
    7.0227  -11.2876    0.0000 C   0  0  0  0  0  0  0  0  0  0  0  0
    7.7372  -10.8751    0.0000 O   0  0  0  0  0  0  0  0  0  0  0  0
    7.7372  -10.0501    0.0000 C   0  0  2  0  0  0  0  0  0  0  0  0
    7.0227   -9.6376    0.0000 C   0  0  2  0  0  0  0  0  0  0  0  0
    8.4517   -9.6376    0.0000 C   0  0  1  0  0  0  0  0  0  0  0  0
    8.4517   -8.8126    0.0000 C   0  0  2  0  0  0  0  0  0  0  0  0
    7.7372   -8.4001    0.0000 C   0  0  1  0  0  0  0  0  0  0  0  0
    7.0227   -8.8126    0.0000 O   0  0  0  0  0  0  0  0  0  0  0  0
    5.5938   -8.8126    0.0000 O   0  0  0  0  0  0  0  0  0  0  0  0
    4.1648   -9.6376    0.0000 O   0  0  0  0  0  0  0  0  0  0  0  0
    4.1648  -11.2876    0.0000 O   0  0  0  0  0  0  0  0  0  0  0  0
    7.0227  -12.1126    0.0000 O   0  0  0  0  0  0  0  0  0  0  0  0
    7.7372   -7.5751    0.0000 C   0  0  0  0  0  0  0  0  0  0  0  0
    8.4517   -7.1626    0.0000 O   0  0  0  0  0  0  0  0  0  0  0  0
    9.1661   -8.4001    0.0000 O   0  0  0  0  0  0  0  0  0  0  0  0
    7.7372   -9.2251    0.0000 H   0  0  0  0  0  0  0  0  0  0  0  0
    8.4517  -10.4626    0.0000 H   0  0  0  0  0  0  0  0  0  0  0  0
    9.1661  -10.0501    0.0000 O   0  0  0  0  0  0  0  0  0  0  0  0
    4.1648  -12.1126    0.0000 C   0  0  0  0  0  0  0  0  0  0  0  0
  1  2  2  0  0  0  0
  2  3  1  0  0  0  0
  3  4  2  0  0  0  0
  4  5  1  0  0  0  0
  5  6  2  0  0  0  0
  6  1  1  0  0  0  0
  4  7  1  0  0  0  0
  7  8  1  0  0  0  0
  8  9  1  0  0  0  0
  9 10  1  0  0  0  0
 10  5  1  0  0  0  0
  9 11  1  0  0  0  0
 11 12  1  0  0  0  0
 12 13  1  0  0  0  0
 13 14  1  0  0  0  0
 14 10  1  0  0  0  0
  6 15  1  0  0  0  0
  1 16  1  0  0  0  0
  2 17  1  0  0  0  0
  7 18  2  0  0  0  0
 13 19  1  1  0  0  0
 19 20  1  0  0  0  0
 12 21  1  6  0  0  0
 10 22  1  6  0  0  0
  9 23  1  1  0  0  0
 11 24  1  1  0  0  0
 17 25  1  0  0  0  0
M  END
>  <cdx:fragmentId>
5

$$$$
