60128.cdx
  Mrv1902 05222410192D          

 18 17  0  0  0  0            999 V2000
    2.1700   -7.3276    0.0000 C   0  0  0  0  0  0  0  0  0  0  0  0
    2.8845   -7.7401    0.0000 C   0  0  0  0  0  0  0  0  0  0  0  0
    3.5990   -7.3276    0.0000 C   0  0  0  0  0  0  0  0  0  0  0  0
    4.3134   -7.7401    0.0000 C   0  0  0  0  0  0  0  0  0  0  0  0
    5.0279   -7.3276    0.0000 C   0  0  0  0  0  0  0  0  0  0  0  0
    5.7424   -7.7401    0.0000 C   0  0  0  0  0  0  0  0  0  0  0  0
    6.4569   -7.3276    0.0000 C   0  0  0  0  0  0  0  0  0  0  0  0
    7.1713   -7.7401    0.0000 C   0  0  0  0  0  0  0  0  0  0  0  0
    7.8858   -7.3276    0.0000 C   0  0  0  0  0  0  0  0  0  0  0  0
    8.6003   -7.7401    0.0000 C   0  0  0  0  0  0  0  0  0  0  0  0
    9.3147   -7.3276    0.0000 C   0  0  0  0  0  0  0  0  0  0  0  0
   10.0292   -7.7401    0.0000 C   0  0  0  0  0  0  0  0  0  0  0  0
   10.7437   -7.3276    0.0000 C   0  0  0  0  0  0  0  0  0  0  0  0
   11.4581   -7.7401    0.0000 C   0  0  0  0  0  0  0  0  0  0  0  0
   12.1726   -7.3276    0.0000 C   0  0  0  0  0  0  0  0  0  0  0  0
    5.7424   -8.5651    0.0000 C   0  0  0  0  0  0  0  0  0  0  0  0
    8.6003   -8.5651    0.0000 C   0  0  0  0  0  0  0  0  0  0  0  0
   11.4581   -8.5651    0.0000 O   0  0  0  0  0  0  0  0  0  0  0  0
  1  2  1  0  0  0  0
  2  3  1  0  0  0  0
  3  4  1  0  0  0  0
  4  5  1  0  0  0  0
  5  6  1  0  0  0  0
  6  7  1  0  0  0  0
  7  8  1  0  0  0  0
  8  9  1  0  0  0  0
  9 10  1  0  0  0  0
 10 11  1  0  0  0  0
 11 12  1  0  0  0  0
 12 13  1  0  0  0  0
 13 14  1  0  0  0  0
 14 15  1  0  0  0  0
  6 16  1  0  0  0  0
 10 17  1  0  0  0  0
 14 18  2  0  0  0  0
M  END
>  <cdx:fragmentId>
3

$$$$
