60124.cdx
  Mrv1902 05222410262D          

 20 21  0  0  0  0            999 V2000
    7.2030   -7.3913    0.0000 C   0  0  0  0  0  0  0  0  0  0  0  0
    7.9224   -7.7952    0.0000 C   0  0  0  0  0  0  0  0  0  0  0  0
    8.6318   -7.3741    0.0000 C   0  0  0  0  0  0  0  0  0  0  0  0
    8.6219   -6.5492    0.0000 C   0  0  0  0  0  0  0  0  0  0  0  0
    7.9025   -6.1453    0.0000 C   0  0  0  0  0  0  0  0  0  0  0  0
    7.1931   -6.5664    0.0000 C   0  0  0  0  0  0  0  0  0  0  0  0
    7.9323   -8.6201    0.0000 O   0  0  0  0  0  0  0  0  0  0  0  0
    7.8926   -5.3204    0.0000 O   0  0  0  0  0  0  0  0  0  0  0  0
    9.3313   -6.1281    0.0000 C   0  0  0  0  0  0  0  0  0  0  0  0
    9.3214   -5.3032    0.0000 O   0  0  0  0  0  0  0  0  0  0  0  0
   10.0507   -6.5320    0.0000 O   0  0  0  0  0  0  0  0  0  0  0  0
    7.2179   -9.0326    0.0000 C   0  0  2  0  0  0  0  0  0  0  0  0
    6.5034   -8.6201    0.0000 O   0  0  0  0  0  0  0  0  0  0  0  0
    5.7889   -9.0326    0.0000 C   0  0  0  0  0  0  0  0  0  0  0  0
    5.7889   -9.8576    0.0000 C   0  0  2  0  0  0  0  0  0  0  0  0
    6.5034  -10.2701    0.0000 C   0  0  1  0  0  0  0  0  0  0  0  0
    7.2179   -9.8576    0.0000 C   0  0  1  0  0  0  0  0  0  0  0  0
    6.5034  -11.0951    0.0000 O   0  0  0  0  0  0  0  0  0  0  0  0
    7.9323  -10.2701    0.0000 O   0  0  0  0  0  0  0  0  0  0  0  0
    5.0744  -10.2701    0.0000 O   0  0  0  0  0  0  0  0  0  0  0  0
  1  2  2  0  0  0  0
  2  3  1  0  0  0  0
  3  4  2  0  0  0  0
  4  5  1  0  0  0  0
  5  6  2  0  0  0  0
  6  1  1  0  0  0  0
  2  7  1  0  0  0  0
  5  8  1  0  0  0  0
  4  9  1  0  0  0  0
  9 10  2  0  0  0  0
  9 11  1  0  0  0  0
 12  7  1  1  0  0  0
 12 13  1  0  0  0  0
 13 14  1  0  0  0  0
 14 15  1  0  0  0  0
 15 16  1  0  0  0  0
 16 17  1  0  0  0  0
 17 12  1  0  0  0  0
 16 18  1  1  0  0  0
 17 19  1  6  0  0  0
 15 20  1  6  0  0  0
M  END
>  <cdx:fragmentId>
5

$$$$
