60125.cdx
  Mrv1902 05222410272D          

 18 19  0  0  0  0            999 V2000
    9.2822   -8.1738    0.0000 C   0  0  0  0  0  0  0  0  0  0  0  0
    9.2772   -7.3488    0.0000 C   0  0  0  0  0  0  0  0  0  0  0  0
    8.5602   -6.9407    0.0000 C   0  0  0  0  0  0  0  0  0  0  0  0
    7.8483   -7.3576    0.0000 C   0  0  1  0  0  0  0  0  0  0  0  0
    7.8533   -8.1826    0.0000 C   0  0  2  0  0  0  0  0  0  0  0  0
    8.5703   -8.5907    0.0000 C   0  0  0  0  0  0  0  0  0  0  0  0
    7.1313   -6.9495    0.0000 C   0  0  0  0  0  0  0  0  0  0  0  0
    6.4193   -7.3664    0.0000 C   0  0  1  0  0  0  0  0  0  0  0  0
    6.4244   -8.1914    0.0000 C   0  0  0  0  0  0  0  0  0  0  0  0
    7.1414   -8.5995    0.0000 C   0  0  0  0  0  0  0  0  0  0  0  0
    8.5551   -6.1157    0.0000 C   0  0  0  0  0  0  0  0  0  0  0  0
    5.7024   -6.9583    0.0000 C   0  0  0  0  0  0  0  0  0  0  0  0
    4.9904   -7.3752    0.0000 C   0  0  0  0  0  0  0  0  0  0  0  0
    5.6973   -6.1333    0.0000 C   0  0  0  0  0  0  0  0  0  0  0  0
    4.2734   -6.9671    0.0000 O   0  0  0  0  0  0  0  0  0  0  0  0
    4.9955   -8.2002    0.0000 O   0  0  0  0  0  0  0  0  0  0  0  0
    7.8584   -9.0076    0.0000 C   0  0  0  0  0  0  0  0  0  0  0  0
    7.8432   -6.5326    0.0000 O   0  0  0  0  0  0  0  0  0  0  0  0
  1  2  1  0  0  0  0
  2  3  1  0  0  0  0
  3  4  1  0  0  0  0
  4  5  1  0  0  0  0
  5  6  1  0  0  0  0
  6  1  1  0  0  0  0
  4  7  1  0  0  0  0
  7  8  1  0  0  0  0
  8  9  1  0  0  0  0
  9 10  1  0  0  0  0
 10  5  1  0  0  0  0
  3 11  2  0  0  0  0
  8 12  1  1  0  0  0
 12 13  1  0  0  0  0
 12 14  2  0  0  0  0
 13 15  1  0  0  0  0
 13 16  2  0  0  0  0
  5 17  1  1  0  0  0
  4 18  1  6  0  0  0
M  END
>  <cdx:fragmentId>
5

$$$$
