60133.cdx
  Mrv1902 05222410262D          

 16 17  0  0  0  0            999 V2000
    4.7968   -7.6851    0.0000 C   0  0  0  0  0  0  0  0  0  0  0  0
    4.7968   -8.5101    0.0000 C   0  0  0  0  0  0  0  0  0  0  0  0
    5.5113   -8.9226    0.0000 C   0  0  0  0  0  0  0  0  0  0  0  0
    6.2257   -8.5101    0.0000 C   0  0  0  0  0  0  0  0  0  0  0  0
    6.2257   -7.6851    0.0000 C   0  0  0  0  0  0  0  0  0  0  0  0
    5.5113   -7.2726    0.0000 C   0  0  0  0  0  0  0  0  0  0  0  0
    6.9402   -8.9226    0.0000 O   0  0  0  0  0  0  0  0  0  0  0  0
    7.6547   -8.5101    0.0000 C   0  0  0  0  0  0  0  0  0  0  0  0
    7.6547   -7.6851    0.0000 C   0  0  0  0  0  0  0  0  0  0  0  0
    6.9402   -7.2726    0.0000 C   0  0  0  0  0  0  0  0  0  0  0  0
    4.0823   -8.9226    0.0000 O   0  0  0  0  0  0  0  0  0  0  0  0
    3.3679   -8.5101    0.0000 C   0  0  0  0  0  0  0  0  0  0  0  0
    8.3692   -8.9226    0.0000 O   0  0  0  0  0  0  0  0  0  0  0  0
    4.0823   -7.2726    0.0000 C   0  0  0  0  0  0  0  0  0  0  0  0
    4.0823   -6.4476    0.0000 O   0  0  0  0  0  0  0  0  0  0  0  0
    3.3679   -7.6851    0.0000 C   0  0  0  0  0  0  0  0  0  0  0  0
  1  2  2  0  0  0  0
  2  3  1  0  0  0  0
  3  4  2  0  0  0  0
  4  5  1  0  0  0  0
  5  6  2  0  0  0  0
  6  1  1  0  0  0  0
  4  7  1  0  0  0  0
  7  8  1  0  0  0  0
  8  9  1  0  0  0  0
  9 10  2  0  0  0  0
 10  5  1  0  0  0  0
  2 11  1  0  0  0  0
 11 12  1  0  0  0  0
  8 13  2  0  0  0  0
  1 14  1  0  0  0  0
 14 15  2  0  0  0  0
 14 16  1  0  0  0  0
M  END
>  <cdx:fragmentId>
5

$$$$
