60135.cdx
  Mrv1902 05222410272D          

 26 29  0  0  0  0            999 V2000
    2.4318   -7.9464    0.0000 O   0  0  0  0  0  0  0  0  0  0  0  0
    3.1463   -8.3589    0.0000 C   0  0  0  0  0  0  0  0  0  0  0  0
    3.8607   -7.9464    0.0000 C   0  0  0  0  0  0  0  0  0  0  0  0
    3.8607   -7.1214    0.0000 C   0  0  0  0  0  0  0  0  0  0  0  0
    3.1463   -6.7089    0.0000 O   0  0  0  0  0  0  0  0  0  0  0  0
    4.5752   -8.3589    0.0000 C   0  0  0  0  0  0  0  0  0  0  0  0
    5.2897   -7.9464    0.0000 C   0  0  0  0  0  0  0  0  0  0  0  0
    5.2897   -7.1214    0.0000 C   0  0  0  0  0  0  0  0  0  0  0  0
    4.5752   -6.7089    0.0000 C   0  0  0  0  0  0  0  0  0  0  0  0
    6.0042   -8.3589    0.0000 C   0  0  0  0  0  0  0  0  0  0  0  0
    6.7186   -7.9464    0.0000 C   0  0  0  0  0  0  0  0  0  0  0  0
    6.7186   -7.1214    0.0000 C   0  0  0  0  0  0  0  0  0  0  0  0
    6.0042   -6.7089    0.0000 O   0  0  0  0  0  0  0  0  0  0  0  0
    7.4331   -8.3589    0.0000 C   0  0  0  0  0  0  0  0  0  0  0  0
    8.1476   -7.9464    0.0000 C   0  0  0  0  0  0  0  0  0  0  0  0
    8.1476   -7.1214    0.0000 C   0  0  0  0  0  0  0  0  0  0  0  0
    8.8620   -8.3589    0.0000 C   0  0  0  0  0  0  0  0  0  0  0  0
    9.5765   -7.9464    0.0000 C   0  0  0  0  0  0  0  0  0  0  0  0
    9.5765   -7.1214    0.0000 C   0  0  0  0  0  0  0  0  0  0  0  0
    8.8620   -6.7089    0.0000 C   0  0  0  0  0  0  0  0  0  0  0  0
   10.3611   -8.2013    0.0000 O   0  0  0  0  0  0  0  0  0  0  0  0
   10.8461   -7.5339    0.0000 C   0  0  0  0  0  0  0  0  0  0  0  0
   10.3611   -6.8665    0.0000 O   0  0  0  0  0  0  0  0  0  0  0  0
    4.5752   -9.1839    0.0000 O   0  0  0  0  0  0  0  0  0  0  0  0
    4.5752   -5.8839    0.0000 C   0  0  0  0  0  0  0  0  0  0  0  0
    6.0042   -9.1839    0.0000 O   0  0  0  0  0  0  0  0  0  0  0  0
  1  2  2  0  0  0  0
  2  3  1  0  0  0  0
  3  4  2  0  0  0  0
  4  5  1  0  0  0  0
  3  6  1  0  0  0  0
  6  7  2  0  0  0  0
  7  8  1  0  0  0  0
  8  9  2  0  0  0  0
  9  4  1  0  0  0  0
  7 10  1  0  0  0  0
 10 11  1  0  0  0  0
 11 12  1  0  0  0  0
 12 13  1  0  0  0  0
 13  8  1  0  0  0  0
 11 14  1  0  0  0  0
 14 15  1  0  0  0  0
 15 16  2  0  0  0  0
 15 17  1  0  0  0  0
 17 18  2  0  0  0  0
 18 19  1  0  0  0  0
 19 20  2  0  0  0  0
 20 16  1  0  0  0  0
 18 21  1  0  0  0  0
 21 22  1  0  0  0  0
 22 23  1  0  0  0  0
 23 19  1  0  0  0  0
  6 24  1  0  0  0  0
  9 25  1  0  0  0  0
 10 26  2  0  0  0  0
M  END
>  <cdx:fragmentId>
5

$$$$
