60136.cdx
  Mrv1902 05222410282D          

 30 32  0  0  0  0            999 V2000
    1.4281   -7.7951    0.0000 C   0  0  0  0  0  0  0  0  0  0  0  0
    2.8570   -7.7951    0.0000 C   0  0  0  0  0  0  0  0  0  0  0  0
    2.1425   -8.2076    0.0000 C   0  0  0  0  0  0  0  0  0  0  0  0
    4.2859   -7.7951    0.0000 C   0  0  0  0  0  0  0  0  0  0  0  0
    3.5715   -8.2076    0.0000 C   0  0  0  0  0  0  0  0  0  0  0  0
    5.7149   -7.7951    0.0000 C   0  0  0  0  0  0  0  0  0  0  0  0
    5.0004   -8.2076    0.0000 C   0  0  0  0  0  0  0  0  0  0  0  0
    6.4294   -6.5576    0.0000 O   0  0  0  0  0  0  0  0  0  0  0  0
    7.1438   -6.9701    0.0000 C   0  0  0  0  0  0  0  0  0  0  0  0
    7.1438   -7.7951    0.0000 C   0  0  0  0  0  0  0  0  0  0  0  0
    6.4294   -8.2076    0.0000 C   0  0  0  0  0  0  0  0  0  0  0  0
    7.8583   -6.5576    0.0000 C   0  0  0  0  0  0  0  0  0  0  0  0
    8.5728   -6.9701    0.0000 C   0  0  0  0  0  0  0  0  0  0  0  0
    8.5728   -7.7951    0.0000 C   0  0  0  0  0  0  0  0  0  0  0  0
    7.8583   -8.2076    0.0000 C   0  0  0  0  0  0  0  0  0  0  0  0
    9.2872   -6.5576    0.0000 O   0  0  0  0  0  0  0  0  0  0  0  0
   10.0017   -6.9701    0.0000 C   0  0  0  0  0  0  0  0  0  0  0  0
   10.0017   -7.7951    0.0000 C   0  0  0  0  0  0  0  0  0  0  0  0
    9.2872   -8.2076    0.0000 C   0  0  0  0  0  0  0  0  0  0  0  0
   10.7162   -5.7326    0.0000 C   0  0  0  0  0  0  0  0  0  0  0  0
   10.7162   -6.5576    0.0000 C   0  0  0  0  0  0  0  0  0  0  0  0
   11.4306   -5.3201    0.0000 C   0  0  0  0  0  0  0  0  0  0  0  0
   12.1451   -5.7326    0.0000 C   0  0  0  0  0  0  0  0  0  0  0  0
   12.1451   -6.5576    0.0000 C   0  0  0  0  0  0  0  0  0  0  0  0
   11.4306   -6.9701    0.0000 C   0  0  0  0  0  0  0  0  0  0  0  0
    2.1425   -9.0326    0.0000 C   0  0  0  0  0  0  0  0  0  0  0  0
    5.0004   -9.0326    0.0000 C   0  0  0  0  0  0  0  0  0  0  0  0
    7.8583   -9.0326    0.0000 O   0  0  0  0  0  0  0  0  0  0  0  0
    9.2872   -9.0326    0.0000 O   0  0  0  0  0  0  0  0  0  0  0  0
   12.8596   -5.3201    0.0000 O   0  0  0  0  0  0  0  0  0  0  0  0
  2  3  2  0  0  0  0
  3  1  1  0  0  0  0
  4  5  1  0  0  0  0
  5  2  1  0  0  0  0
  6  7  2  0  0  0  0
  7  4  1  0  0  0  0
  8  9  1  0  0  0  0
  9 10  1  0  0  0  0
 10 11  1  0  0  0  0
 11  6  1  0  0  0  0
  9 12  2  0  0  0  0
 12 13  1  0  0  0  0
 13 14  2  0  0  0  0
 14 15  1  0  0  0  0
 15 10  2  0  0  0  0
 13 16  1  0  0  0  0
 16 17  1  0  0  0  0
 17 18  2  0  0  0  0
 18 19  1  0  0  0  0
 19 14  1  0  0  0  0
 20 21  2  0  0  0  0
 21 17  1  0  0  0  0
 20 22  1  0  0  0  0
 22 23  2  0  0  0  0
 23 24  1  0  0  0  0
 24 25  2  0  0  0  0
 25 21  1  0  0  0  0
  3 26  1  0  0  0  0
  7 27  1  0  0  0  0
 15 28  1  0  0  0  0
 19 29  2  0  0  0  0
 23 30  1  0  0  0  0
M  END
>  <cdx:fragmentId>
5

$$$$
