60139.cdx
  Mrv1902 05222410182D          

 56 61  0  0  0  0            999 V2000
    6.2681   -7.4514    0.0000 C   0  0  0  0  0  0  0  0  0  0  0  0
    6.2681   -8.2764    0.0000 C   0  0  0  0  0  0  0  0  0  0  0  0
    6.9825   -8.6889    0.0000 C   0  0  0  0  0  0  0  0  0  0  0  0
    7.6970   -8.2764    0.0000 C   0  0  0  0  0  0  0  0  0  0  0  0
    7.6970   -7.4514    0.0000 C   0  0  0  0  0  0  0  0  0  0  0  0
    6.9825   -7.0389    0.0000 C   0  0  0  0  0  0  0  0  0  0  0  0
    8.4115   -8.6889    0.0000 C   0  0  0  0  0  0  0  0  0  0  0  0
    9.1259   -8.2764    0.0000 C   0  0  0  0  0  0  0  0  0  0  0  0
    9.1259   -7.4514    0.0000 C   0  0  0  0  0  0  0  0  0  0  0  0
    8.4115   -7.0389    0.0000 O   0  0  0  0  0  0  0  0  0  0  0  0
    9.8404   -8.6889    0.0000 O   0  0  0  0  0  0  0  0  0  0  0  0
   10.5549   -7.4514    0.0000 C   0  0  0  0  0  0  0  0  0  0  0  0
    9.8404   -7.0389    0.0000 C   0  0  0  0  0  0  0  0  0  0  0  0
   11.2694   -7.0389    0.0000 C   0  0  0  0  0  0  0  0  0  0  0  0
   11.2694   -6.2139    0.0000 C   0  0  0  0  0  0  0  0  0  0  0  0
   10.5549   -5.8014    0.0000 C   0  0  0  0  0  0  0  0  0  0  0  0
    9.8404   -6.2139    0.0000 C   0  0  0  0  0  0  0  0  0  0  0  0
    5.5536   -7.0389    0.0000 O   0  0  0  0  0  0  0  0  0  0  0  0
    5.5536   -8.6889    0.0000 O   0  0  0  0  0  0  0  0  0  0  0  0
    6.9825   -9.5139    0.0000 O   0  0  0  0  0  0  0  0  0  0  0  0
    8.4115   -9.5139    0.0000 O   0  0  0  0  0  0  0  0  0  0  0  0
   11.9838   -5.8014    0.0000 O   0  0  0  0  0  0  0  0  0  0  0  0
    4.7291   -8.6593    0.0000 C   0  0  2  0  0  0  0  0  0  0  0  0
    4.3425   -7.9305    0.0000 O   0  0  0  0  0  0  0  0  0  0  0  0
    3.5180   -7.9009    0.0000 C   0  0  1  0  0  0  0  0  0  0  0  0
    3.0802   -8.6001    0.0000 C   0  0  2  0  0  0  0  0  0  0  0  0
    3.4668   -9.3289    0.0000 C   0  0  1  0  0  0  0  0  0  0  0  0
    4.2913   -9.3585    0.0000 C   0  0  1  0  0  0  0  0  0  0  0  0
    3.1314   -7.1721    0.0000 C   0  0  0  0  0  0  0  0  0  0  0  0
    3.0289  -10.0282    0.0000 O   0  0  0  0  0  0  0  0  0  0  0  0
    2.3070   -7.1425    0.0000 O   0  0  0  0  0  0  0  0  0  0  0  0
    2.2557   -8.5706    0.0000 O   0  0  0  0  0  0  0  0  0  0  0  0
    4.6779  -10.0873    0.0000 O   0  0  0  0  0  0  0  0  0  0  0  0
    5.5536   -6.2139    0.0000 C   0  0  2  0  0  0  0  0  0  0  0  0
    6.2681   -5.8014    0.0000 O   0  0  0  0  0  0  0  0  0  0  0  0
    6.2681   -4.9764    0.0000 C   0  0  1  0  0  0  0  0  0  0  0  0
    5.5536   -4.5639    0.0000 C   0  0  2  0  0  0  0  0  0  0  0  0
    4.8391   -4.9764    0.0000 C   0  0  1  0  0  0  0  0  0  0  0  0
    4.8391   -5.8014    0.0000 C   0  0  1  0  0  0  0  0  0  0  0  0
    6.9825   -4.5639    0.0000 C   0  0  0  0  0  0  0  0  0  0  0  0
    4.1246   -4.5639    0.0000 O   0  0  0  0  0  0  0  0  0  0  0  0
    4.1246   -6.2139    0.0000 O   0  0  0  0  0  0  0  0  0  0  0  0
    5.5536   -3.7389    0.0000 O   0  0  0  0  0  0  0  0  0  0  0  0
    7.6970   -4.9764    0.0000 O   0  0  0  0  0  0  0  0  0  0  0  0
    6.9825   -3.7389    0.0000 O   0  0  0  0  0  0  0  0  0  0  0  0
    9.8524   -9.5130    0.0000 C   0  0  2  0  0  0  0  0  0  0  0  0
    9.1380   -9.9255    0.0000 O   0  0  0  0  0  0  0  0  0  0  0  0
    9.1380  -10.7505    0.0000 C   0  0  1  0  0  0  0  0  0  0  0  0
    9.8524  -11.1630    0.0000 C   0  0  2  0  0  0  0  0  0  0  0  0
   10.5669  -10.7505    0.0000 C   0  0  1  0  0  0  0  0  0  0  0  0
   10.5669   -9.9255    0.0000 C   0  0  1  0  0  0  0  0  0  0  0  0
    8.4235  -11.1630    0.0000 C   0  0  0  0  0  0  0  0  0  0  0  0
   11.2814  -11.1630    0.0000 O   0  0  0  0  0  0  0  0  0  0  0  0
   11.2814   -9.5130    0.0000 O   0  0  0  0  0  0  0  0  0  0  0  0
    9.8524  -11.9880    0.0000 O   0  0  0  0  0  0  0  0  0  0  0  0
    8.4235  -11.9880    0.0000 O   0  0  0  0  0  0  0  0  0  0  0  0
  1  2  2  0  0  0  0
  2  3  1  0  0  0  0
  3  4  2  0  0  0  0
  4  5  1  0  0  0  0
  5  6  2  0  0  0  0
  6  1  1  0  0  0  0
  4  7  1  0  0  0  0
  7  8  1  0  0  0  0
  8  9  2  0  0  0  0
  9 10  1  0  0  0  0
 10  5  1  0  0  0  0
  8 11  1  0  0  0  0
 12 13  2  0  0  0  0
 13  9  1  0  0  0  0
 12 14  1  0  0  0  0
 14 15  2  0  0  0  0
 15 16  1  0  0  0  0
 16 17  2  0  0  0  0
 17 13  1  0  0  0  0
  1 18  1  0  0  0  0
  2 19  1  0  0  0  0
  3 20  1  0  0  0  0
  7 21  2  0  0  0  0
 15 22  1  0  0  0  0
 23 19  1  1  0  0  0
 23 24  1  0  0  0  0
 24 25  1  0  0  0  0
 25 26  1  0  0  0  0
 26 27  1  0  0  0  0
 27 28  1  0  0  0  0
 28 23  1  0  0  0  0
 25 29  1  1  0  0  0
 27 30  1  1  0  0  0
 29 31  1  0  0  0  0
 26 32  1  6  0  0  0
 28 33  1  6  0  0  0
 34 18  1  1  0  0  0
 34 35  1  0  0  0  0
 35 36  1  0  0  0  0
 36 37  1  0  0  0  0
 37 38  1  0  0  0  0
 38 39  1  0  0  0  0
 39 34  1  0  0  0  0
 36 40  1  1  0  0  0
 38 41  1  1  0  0  0
 39 42  1  6  0  0  0
 37 43  1  6  0  0  0
 40 44  2  0  0  0  0
 40 45  1  0  0  0  0
 46 47  1  0  0  0  0
 47 48  1  0  0  0  0
 48 49  1  0  0  0  0
 49 50  1  0  0  0  0
 50 51  1  0  0  0  0
 51 46  1  0  0  0  0
 48 52  1  1  0  0  0
 50 53  1  1  0  0  0
 51 54  1  6  0  0  0
 49 55  1  6  0  0  0
 52 56  1  0  0  0  0
 46 11  1  1  0  0  0
M  END
>  <cdx:fragmentId>
5

$$$$
