60134.cdx
  Mrv1902 05222410272D          

 17 17  0  0  0  0            999 V2000
   11.4613   -7.7401    0.0000 Cl  0  0  0  0  0  0  0  0  0  0  0  0
   10.7469   -7.3276    0.0000 C   0  0  0  0  0  0  0  0  0  0  0  0
   10.0324   -7.7401    0.0000 C   0  0  0  0  0  0  0  0  0  0  0  0
    9.3179   -7.3276    0.0000 C   0  0  0  0  0  0  0  0  0  0  0  0
    8.6034   -7.7401    0.0000 C   0  0  0  0  0  0  0  0  0  0  0  0
    7.8890   -7.3276    0.0000 C   0  0  0  0  0  0  0  0  0  0  0  0
    7.1745   -7.7401    0.0000 C   0  0  0  0  0  0  0  0  0  0  0  0
    6.4600   -7.3276    0.0000 O   0  0  0  0  0  0  0  0  0  0  0  0
    7.1745   -8.5651    0.0000 O   0  0  0  0  0  0  0  0  0  0  0  0
    5.7456   -7.7401    0.0000 C   0  0  0  0  0  0  0  0  0  0  0  0
    5.0311   -7.3276    0.0000 C   0  0  0  0  0  0  0  0  0  0  0  0
    4.3166   -7.7401    0.0000 C   0  0  0  0  0  0  0  0  0  0  0  0
    4.3166   -8.5651    0.0000 C   0  0  0  0  0  0  0  0  0  0  0  0
    5.0311   -8.9776    0.0000 C   0  0  0  0  0  0  0  0  0  0  0  0
    5.7456   -8.5651    0.0000 C   0  0  0  0  0  0  0  0  0  0  0  0
    3.6021   -8.9776    0.0000 C   0  0  0  0  0  0  0  0  0  0  0  0
    2.8877   -9.3901    0.0000 N   0  0  0  0  0  0  0  0  0  0  0  0
  1  2  1  0  0  0  0
  2  3  1  0  0  0  0
  3  4  1  0  0  0  0
  4  5  1  0  0  0  0
  5  6  1  0  0  0  0
  6  7  1  0  0  0  0
  7  8  1  0  0  0  0
  7  9  2  0  0  0  0
  8 10  1  0  0  0  0
 10 11  2  0  0  0  0
 11 12  1  0  0  0  0
 12 13  2  0  0  0  0
 13 14  1  0  0  0  0
 14 15  2  0  0  0  0
 15 10  1  0  0  0  0
 13 16  1  0  0  0  0
 16 17  3  0  0  0  0
M  END
>  <cdx:fragmentId>
3

$$$$
