60131.cdx
  Mrv1902 05222410272D          

 25 27  0  0  0  0            999 V2000
   12.2022   -7.5889    0.0000 C   0  0  0  0  0  0  0  0  0  0  0  0
   11.4878   -7.1764    0.0000 O   0  0  0  0  0  0  0  0  0  0  0  0
   10.0588   -8.8264    0.0000 C   0  0  0  0  0  0  0  0  0  0  0  0
   10.7733   -8.4139    0.0000 C   0  0  0  0  0  0  0  0  0  0  0  0
   10.7733   -7.5889    0.0000 C   0  0  0  0  0  0  0  0  0  0  0  0
   10.0588   -7.1764    0.0000 C   0  0  0  0  0  0  0  0  0  0  0  0
    9.3444   -7.5889    0.0000 C   0  0  0  0  0  0  0  0  0  0  0  0
    9.3444   -8.4139    0.0000 C   0  0  0  0  0  0  0  0  0  0  0  0
    8.6299   -8.8264    0.0000 C   0  0  0  0  0  0  0  0  0  0  0  0
    7.9154   -8.4139    0.0000 C   0  0  0  0  0  0  0  0  0  0  0  0
    6.4865  -10.8889    0.0000 O   0  0  0  0  0  0  0  0  0  0  0  0
    3.6286  -10.8889    0.0000 C   0  0  0  0  0  0  0  0  0  0  0  0
    3.6286  -10.0639    0.0000 O   0  0  0  0  0  0  0  0  0  0  0  0
    3.6286   -7.5889    0.0000 C   0  0  0  0  0  0  0  0  0  0  0  0
    3.6286   -8.4139    0.0000 O   0  0  0  0  0  0  0  0  0  0  0  0
    6.4865  -10.0639    0.0000 C   0  0  0  0  0  0  0  0  0  0  0  0
    7.2009   -9.6514    0.0000 C   0  0  0  0  0  0  0  0  0  0  0  0
    7.2009   -8.8264    0.0000 C   0  0  0  0  0  0  0  0  0  0  0  0
    6.4865   -8.4139    0.0000 O   0  0  0  0  0  0  0  0  0  0  0  0
    5.0575  -10.0639    0.0000 C   0  0  0  0  0  0  0  0  0  0  0  0
    5.7720   -9.6514    0.0000 C   0  0  0  0  0  0  0  0  0  0  0  0
    5.7720   -8.8264    0.0000 C   0  0  0  0  0  0  0  0  0  0  0  0
    5.0575   -8.4139    0.0000 C   0  0  0  0  0  0  0  0  0  0  0  0
    4.3431   -8.8264    0.0000 C   0  0  0  0  0  0  0  0  0  0  0  0
    4.3431   -9.6514    0.0000 C   0  0  0  0  0  0  0  0  0  0  0  0
  2  1  1  0  0  0  0
  5  2  1  0  0  0  0
  3  8  1  0  0  0  0
  4  3  2  0  0  0  0
  5  4  1  0  0  0  0
  6  5  2  0  0  0  0
  7  6  1  0  0  0  0
  8  7  2  0  0  0  0
  9  8  1  0  0  0  0
 10  9  1  0  0  0  0
 18 10  1  0  0  0  0
 16 11  2  0  0  0  0
 13 12  1  0  0  0  0
 25 13  1  0  0  0  0
 15 14  1  0  0  0  0
 24 15  1  0  0  0  0
 16 21  1  0  0  0  0
 17 16  1  0  0  0  0
 18 17  2  0  0  0  0
 19 18  1  0  0  0  0
 22 19  1  0  0  0  0
 20 25  1  0  0  0  0
 21 20  2  0  0  0  0
 22 21  1  0  0  0  0
 23 22  2  0  0  0  0
 24 23  1  0  0  0  0
 25 24  2  0  0  0  0
M  END
>  <cdx:fragmentId>
5

$$$$
