60147.cdx
  Mrv1902 05222410242D          

 35 38  0  0  0  0            999 V2000
    6.2339   -6.9935    0.0000 O   0  0  0  0  0  0  0  0  0  0  0  0
   12.6641   -8.2310    0.0000 O   0  0  0  0  0  0  0  0  0  0  0  0
   13.3786   -9.4685    0.0000 C   0  0  0  0  0  0  0  0  0  0  0  0
   12.6641   -9.8810    0.0000 O   0  0  0  0  0  0  0  0  0  0  0  0
   10.5207   -9.4685    0.0000 C   0  0  0  0  0  0  0  0  0  0  0  0
   11.2352   -9.8810    0.0000 C   0  0  0  0  0  0  0  0  0  0  0  0
   11.9496   -9.4685    0.0000 C   0  0  0  0  0  0  0  0  0  0  0  0
   11.9496   -8.6435    0.0000 C   0  0  0  0  0  0  0  0  0  0  0  0
   11.2352   -8.2310    0.0000 C   0  0  0  0  0  0  0  0  0  0  0  0
   10.5207   -8.6435    0.0000 C   0  0  0  0  0  0  0  0  0  0  0  0
    9.0918   -9.4685    0.0000 O   0  0  0  0  0  0  0  0  0  0  0  0
    9.0918   -6.9935    0.0000 O   0  0  0  0  0  0  0  0  0  0  0  0
    8.3773   -7.4060    0.0000 C   0  0  0  0  0  0  0  0  0  0  0  0
    7.6628   -6.9935    0.0000 C   0  0  0  0  0  0  0  0  0  0  0  0
    6.9484   -7.4060    0.0000 C   0  0  0  0  0  0  0  0  0  0  0  0
    6.9484   -8.2310    0.0000 C   0  0  0  0  0  0  0  0  0  0  0  0
    7.6628   -8.6435    0.0000 C   0  0  0  0  0  0  0  0  0  0  0  0
    8.3773   -8.2310    0.0000 C   0  0  0  0  0  0  0  0  0  0  0  0
    9.0918   -8.6435    0.0000 C   0  0  0  0  0  0  0  0  0  0  0  0
    9.8062   -8.2310    0.0000 C   0  0  0  0  0  0  0  0  0  0  0  0
    9.8062   -7.4060    0.0000 C   0  0  0  0  0  0  0  0  0  0  0  0
    5.5194   -7.4060    0.0000 C   0  0  2  0  0  0  0  0  0  0  0  0
    4.8049   -6.9935    0.0000 O   0  0  0  0  0  0  0  0  0  0  0  0
    4.0905   -7.4060    0.0000 C   0  0  1  0  0  0  0  0  0  0  0  0
    4.0905   -8.2310    0.0000 C   0  0  2  0  0  0  0  0  0  0  0  0
    4.8049   -8.6435    0.0000 C   0  0  1  0  0  0  0  0  0  0  0  0
    5.5194   -8.2310    0.0000 C   0  0  1  0  0  0  0  0  0  0  0  0
    3.3760   -6.9935    0.0000 C   0  0  0  0  0  0  0  0  0  0  0  0
    4.8049   -9.4685    0.0000 O   0  0  0  0  0  0  0  0  0  0  0  0
    3.3760   -8.6435    0.0000 O   0  0  0  0  0  0  0  0  0  0  0  0
    6.2339   -8.6435    0.0000 O   0  0  0  0  0  0  0  0  0  0  0  0
    2.6615   -7.4060    0.0000 O   0  0  0  0  0  0  0  0  0  0  0  0
    1.9471   -6.9935    0.0000 C   0  0  0  0  0  0  0  0  0  0  0  0
    1.2326   -7.4060    0.0000 C   0  0  0  0  0  0  0  0  0  0  0  0
    1.9471   -6.1685    0.0000 O   0  0  0  0  0  0  0  0  0  0  0  0
 15  1  1  0  0  0  0
 20 10  1  0  0  0  0
  8  2  1  0  0  0  0
  7  4  1  0  0  0  0
  4  3  1  0  0  0  0
 10  5  2  0  0  0  0
  6  5  1  0  0  0  0
  7  6  2  0  0  0  0
  8  7  1  0  0  0  0
  9  8  2  0  0  0  0
 10  9  1  0  0  0  0
 19 11  2  0  0  0  0
 21 12  1  0  0  0  0
 13 12  1  0  0  0  0
 18 13  2  0  0  0  0
 14 13  1  0  0  0  0
 15 14  2  0  0  0  0
 16 15  1  0  0  0  0
 17 16  2  0  0  0  0
 18 17  1  0  0  0  0
 19 18  1  0  0  0  0
 20 19  1  0  0  0  0
 21 20  2  0  0  0  0
 22  1  1  1  0  0  0
 22 23  1  0  0  0  0
 23 24  1  0  0  0  0
 24 25  1  0  0  0  0
 25 26  1  0  0  0  0
 26 27  1  0  0  0  0
 27 22  1  0  0  0  0
 24 28  1  1  0  0  0
 26 29  1  1  0  0  0
 25 30  1  6  0  0  0
 27 31  1  6  0  0  0
 28 32  1  0  0  0  0
 32 33  1  0  0  0  0
 33 34  1  0  0  0  0
 33 35  2  0  0  0  0
M  END
>  <cdx:fragmentId>
5

$$$$
