60141.cdx
  Mrv1902 05222410252D          

 54 59  0  0  0  0            999 V2000
    5.9381   -5.3064    0.0000 C   0  0  0  0  0  0  0  0  0  0  0  0
    5.9381   -6.1314    0.0000 C   0  0  0  0  0  0  0  0  0  0  0  0
    6.6525   -6.5439    0.0000 C   0  0  0  0  0  0  0  0  0  0  0  0
    7.3670   -6.1314    0.0000 C   0  0  0  0  0  0  0  0  0  0  0  0
    7.3670   -5.3064    0.0000 C   0  0  0  0  0  0  0  0  0  0  0  0
    6.6525   -4.8939    0.0000 C   0  0  0  0  0  0  0  0  0  0  0  0
    8.0815   -6.5439    0.0000 C   0  0  0  0  0  0  0  0  0  0  0  0
    8.7959   -6.1314    0.0000 C   0  0  0  0  0  0  0  0  0  0  0  0
    8.7959   -5.3064    0.0000 C   0  0  0  0  0  0  0  0  0  0  0  0
    8.0815   -4.8939    0.0000 O   0  0  0  0  0  0  0  0  0  0  0  0
    9.5104   -6.5439    0.0000 O   0  0  0  0  0  0  0  0  0  0  0  0
   10.2249   -5.3064    0.0000 C   0  0  0  0  0  0  0  0  0  0  0  0
    9.5104   -4.8939    0.0000 C   0  0  0  0  0  0  0  0  0  0  0  0
   10.9394   -4.8939    0.0000 C   0  0  0  0  0  0  0  0  0  0  0  0
   10.9394   -4.0689    0.0000 C   0  0  0  0  0  0  0  0  0  0  0  0
   10.2249   -3.6564    0.0000 C   0  0  0  0  0  0  0  0  0  0  0  0
    9.5104   -4.0689    0.0000 C   0  0  0  0  0  0  0  0  0  0  0  0
    8.0815   -7.3689    0.0000 O   0  0  0  0  0  0  0  0  0  0  0  0
    8.7959   -7.7814    0.0000 O   0  0  0  0  0  0  0  0  0  0  0  0
    9.5104   -7.3689    0.0000 C   0  0  2  0  0  0  0  0  0  0  0  0
    8.7959   -8.6064    0.0000 C   0  0  1  0  0  0  0  0  0  0  0  0
    9.5104   -9.0189    0.0000 C   0  0  2  0  0  0  0  0  0  0  0  0
   10.2249   -8.6064    0.0000 C   0  0  1  0  0  0  0  0  0  0  0  0
   10.2249   -7.7814    0.0000 C   0  0  1  0  0  0  0  0  0  0  0  0
    8.0815   -9.0189    0.0000 C   0  0  0  0  0  0  0  0  0  0  0  0
    8.0815   -9.8439    0.0000 O   0  0  0  0  0  0  0  0  0  0  0  0
    9.5104   -9.8439    0.0000 O   0  0  0  0  0  0  0  0  0  0  0  0
    6.6525   -9.8439    0.0000 O   0  0  0  0  0  0  0  0  0  0  0  0
    7.3670  -10.2564    0.0000 C   0  0  2  0  0  0  0  0  0  0  0  0
    5.9381  -10.2564    0.0000 C   0  0  2  0  0  0  0  0  0  0  0  0
    5.9381  -11.0814    0.0000 C   0  0  1  0  0  0  0  0  0  0  0  0
    6.6525  -11.4939    0.0000 C   0  0  2  0  0  0  0  0  0  0  0  0
    7.3670  -11.0814    0.0000 C   0  0  1  0  0  0  0  0  0  0  0  0
    5.2236   -6.5439    0.0000 O   0  0  0  0  0  0  0  0  0  0  0  0
    5.2236   -4.8939    0.0000 O   0  0  0  0  0  0  0  0  0  0  0  0
    6.6525   -7.3689    0.0000 O   0  0  0  0  0  0  0  0  0  0  0  0
   11.6538   -3.6564    0.0000 O   0  0  0  0  0  0  0  0  0  0  0  0
   10.9394   -7.3689    0.0000 O   0  0  0  0  0  0  0  0  0  0  0  0
   10.9394   -9.0189    0.0000 O   0  0  0  0  0  0  0  0  0  0  0  0
    5.2236   -9.8439    0.0000 C   0  0  0  0  0  0  0  0  0  0  0  0
    5.2236  -11.4939    0.0000 O   0  0  0  0  0  0  0  0  0  0  0  0
    6.6525  -12.3189    0.0000 O   0  0  0  0  0  0  0  0  0  0  0  0
    8.0815  -11.4939    0.0000 O   0  0  0  0  0  0  0  0  0  0  0  0
    4.5091   -6.1314    0.0000 C   0  0  2  0  0  0  0  0  0  0  0  0
    4.5091   -5.3064    0.0000 O   0  0  0  0  0  0  0  0  0  0  0  0
    3.7946   -4.8939    0.0000 C   0  0  1  0  0  0  0  0  0  0  0  0
    3.0802   -5.3064    0.0000 C   0  0  2  0  0  0  0  0  0  0  0  0
    3.0802   -6.1314    0.0000 C   0  0  1  0  0  0  0  0  0  0  0  0
    3.7946   -6.5439    0.0000 C   0  0  1  0  0  0  0  0  0  0  0  0
    3.7946   -4.0689    0.0000 C   0  0  0  0  0  0  0  0  0  0  0  0
    2.3657   -6.5439    0.0000 O   0  0  0  0  0  0  0  0  0  0  0  0
    3.7946   -7.3689    0.0000 O   0  0  0  0  0  0  0  0  0  0  0  0
    2.3657   -4.8939    0.0000 O   0  0  0  0  0  0  0  0  0  0  0  0
    3.0802   -3.6564    0.0000 O   0  0  0  0  0  0  0  0  0  0  0  0
  1  2  1  0  0  0  0
  2  3  2  0  0  0  0
  3  4  1  0  0  0  0
  4  5  2  0  0  0  0
  5  6  1  0  0  0  0
  6  1  2  0  0  0  0
  4  7  1  0  0  0  0
  7  8  1  0  0  0  0
  8  9  2  0  0  0  0
  9 10  1  0  0  0  0
 10  5  1  0  0  0  0
  8 11  1  0  0  0  0
 12 13  2  0  0  0  0
 13  9  1  0  0  0  0
 12 14  1  0  0  0  0
 14 15  2  0  0  0  0
 15 16  1  0  0  0  0
 16 17  2  0  0  0  0
 17 13  1  0  0  0  0
  7 18  2  0  0  0  0
 19 20  1  0  0  0  0
 20 11  1  1  0  0  0
 19 21  1  0  0  0  0
 21 22  1  0  0  0  0
 22 23  1  0  0  0  0
 23 24  1  0  0  0  0
 24 20  1  0  0  0  0
 21 25  1  1  0  0  0
 25 26  1  0  0  0  0
 22 27  1  6  0  0  0
 28 29  1  0  0  0  0
 29 26  1  1  0  0  0
 28 30  1  0  0  0  0
 30 31  1  0  0  0  0
 31 32  1  0  0  0  0
 32 33  1  0  0  0  0
 33 29  1  0  0  0  0
  2 34  1  0  0  0  0
  1 35  1  0  0  0  0
  3 36  1  0  0  0  0
 15 37  1  0  0  0  0
 24 38  1  6  0  0  0
 23 39  1  1  0  0  0
 30 40  1  6  0  0  0
 31 41  1  1  0  0  0
 32 42  1  6  0  0  0
 33 43  1  6  0  0  0
 44 34  1  1  0  0  0
 44 45  1  0  0  0  0
 45 46  1  0  0  0  0
 46 47  1  0  0  0  0
 47 48  1  0  0  0  0
 48 49  1  0  0  0  0
 49 44  1  0  0  0  0
 46 50  1  1  0  0  0
 48 51  1  1  0  0  0
 49 52  1  6  0  0  0
 47 53  1  6  0  0  0
 50 54  1  0  0  0  0
M  END
>  <cdx:fragmentId>
5

$$$$
