601460.cdx
  Mrv1902 05222410192D          

 28 33  0  0  0  0            999 V2000
    7.3295   -7.9389    0.0000 C   0  0  0  0  0  0  0  0  0  0  0  0
    8.0444   -7.5273    0.0000 C   0  0  0  0  0  0  0  0  0  0  0  0
    8.7584   -7.9407    0.0000 C   0  0  0  0  0  0  0  0  0  0  0  0
    9.4734   -7.5290    0.0000 C   0  0  0  0  0  0  0  0  0  0  0  0
   10.2577   -7.7850    0.0000 O   0  0  0  0  0  0  0  0  0  0  0  0
   10.7434   -7.1181    0.0000 C   0  0  0  0  0  0  0  0  0  0  0  0
   10.2593   -6.4501    0.0000 O   0  0  0  0  0  0  0  0  0  0  0  0
    9.4744   -6.7040    0.0000 C   0  0  0  0  0  0  0  0  0  0  0  0
    8.7604   -6.2907    0.0000 C   0  0  0  0  0  0  0  0  0  0  0  0
    8.0454   -6.7023    0.0000 C   0  0  0  0  0  0  0  0  0  0  0  0
    7.3315   -6.2889    0.0000 C   0  0  0  0  0  0  0  0  0  0  0  0
    6.6165   -6.7005    0.0000 C   0  0  0  0  0  0  0  0  0  0  0  0
    6.6155   -7.5255    0.0000 C   0  0  0  0  0  0  0  0  0  0  0  0
    5.9005   -7.9371    0.0000 C   0  0  0  0  0  0  0  0  0  0  0  0
    5.1865   -7.5237    0.0000 C   0  0  0  0  0  0  0  0  0  0  0  0
    4.4716   -7.9354    0.0000 C   0  0  0  0  0  0  0  0  0  0  0  0
    4.4705   -8.7604    0.0000 C   0  0  0  0  0  0  0  0  0  0  0  0
    3.8568   -9.3116    0.0000 O   0  0  0  0  0  0  0  0  0  0  0  0
    4.1914  -10.0657    0.0000 C   0  0  0  0  0  0  0  0  0  0  0  0
    5.0120   -9.9805    0.0000 O   0  0  0  0  0  0  0  0  0  0  0  0
    5.1845   -9.1737    0.0000 C   0  0  0  0  0  0  0  0  0  0  0  0
    5.8995   -8.7621    0.0000 C   0  0  0  0  0  0  0  0  0  0  0  0
    6.6135   -9.1755    0.0000 C   0  0  0  0  0  0  0  0  0  0  0  0
    7.3284   -8.7639    0.0000 N   0  0  0  0  0  0  0  0  0  0  0  0
    5.9025   -6.2871    0.0000 O   0  0  0  0  0  0  0  0  0  0  0  0
    8.7574   -8.7657    0.0000 O   0  0  0  0  0  0  0  0  0  0  0  0
    9.4713   -9.1790    0.0000 C   0  0  0  0  0  0  0  0  0  0  0  0
    8.0424   -9.1773    0.0000 C   0  0  0  0  0  0  0  0  0  0  0  0
  1  2  2  0  0  0  0
  2  3  1  0  0  0  0
  3  4  2  0  0  0  0
  4  5  1  0  0  0  0
  5  6  1  0  0  0  0
  6  7  1  0  0  0  0
  7  8  1  0  0  0  0
  8  9  2  0  0  0  0
  9 10  1  0  0  0  0
 10 11  2  0  0  0  0
 11 12  1  0  0  0  0
 12 13  2  0  0  0  0
 13 14  1  0  0  0  0
 14 15  1  0  0  0  0
 15 16  2  0  0  0  0
 16 17  1  0  0  0  0
 17 18  1  0  0  0  0
 18 19  1  0  0  0  0
 19 20  1  0  0  0  0
 20 21  1  0  0  0  0
 21 22  1  0  0  0  0
 22 23  1  0  0  0  0
 23 24  1  0  0  0  0
  1 24  1  0  0  0  0
  1 13  1  0  0  0  0
 14 22  2  0  0  0  0
 17 21  2  0  0  0  0
  2 10  1  0  0  0  0
  4  8  1  0  0  0  0
 12 25  1  0  0  0  0
 26 27  1  0  0  0  0
  3 26  1  0  0  0  0
 24 28  1  0  0  0  0
M  END
>  <cdx:groupId>
251949

>  <cdx:fragmentId>
251866

$$$$
