60146.cdx
  Mrv1902 05222410242D          

 37 40  0  0  0  0            999 V2000
    6.6806   -8.2901    0.0000 C   0  0  0  0  0  0  0  0  0  0  0  0
    6.6806   -9.1151    0.0000 C   0  0  0  0  0  0  0  0  0  0  0  0
    7.3950   -9.5276    0.0000 C   0  0  0  0  0  0  0  0  0  0  0  0
    8.1095   -9.1151    0.0000 C   0  0  0  0  0  0  0  0  0  0  0  0
    8.1095   -8.2901    0.0000 C   0  0  0  0  0  0  0  0  0  0  0  0
    7.3950   -7.8776    0.0000 C   0  0  0  0  0  0  0  0  0  0  0  0
    8.8240   -9.5276    0.0000 C   0  0  0  0  0  0  0  0  0  0  0  0
    9.5384   -9.1151    0.0000 C   0  0  1  0  0  0  0  0  0  0  0  0
    9.5384   -8.2901    0.0000 C   0  0  0  0  0  0  0  0  0  0  0  0
    8.8240   -7.8776    0.0000 O   0  0  0  0  0  0  0  0  0  0  0  0
    5.9661   -7.8776    0.0000 O   0  0  0  0  0  0  0  0  0  0  0  0
    5.2516   -8.2901    0.0000 C   0  0  2  0  0  0  0  0  0  0  0  0
    4.5371   -7.8776    0.0000 O   0  0  0  0  0  0  0  0  0  0  0  0
    3.8227   -8.2901    0.0000 C   0  0  1  0  0  0  0  0  0  0  0  0
    3.8227   -9.1151    0.0000 C   0  0  2  0  0  0  0  0  0  0  0  0
    4.5371   -9.5276    0.0000 C   0  0  1  0  0  0  0  0  0  0  0  0
    5.2516   -9.1151    0.0000 C   0  0  1  0  0  0  0  0  0  0  0  0
    3.1082   -7.8776    0.0000 C   0  0  0  0  0  0  0  0  0  0  0  0
    4.5371  -10.3526    0.0000 O   0  0  0  0  0  0  0  0  0  0  0  0
    5.9661   -9.5276    0.0000 O   0  0  0  0  0  0  0  0  0  0  0  0
    3.1082   -9.5276    0.0000 O   0  0  0  0  0  0  0  0  0  0  0  0
    2.3937   -8.2901    0.0000 O   0  0  0  0  0  0  0  0  0  0  0  0
    1.6793   -7.8776    0.0000 C   0  0  0  0  0  0  0  0  0  0  0  0
    0.9648   -8.2901    0.0000 C   0  0  0  0  0  0  0  0  0  0  0  0
    1.6793   -7.0526    0.0000 O   0  0  0  0  0  0  0  0  0  0  0  0
   10.2529   -9.5276    0.0000 C   0  0  0  0  0  0  0  0  0  0  0  0
   10.2529  -10.3526    0.0000 C   0  0  0  0  0  0  0  0  0  0  0  0
   10.9674  -10.7651    0.0000 C   0  0  0  0  0  0  0  0  0  0  0  0
   11.6819  -10.3526    0.0000 C   0  0  0  0  0  0  0  0  0  0  0  0
   11.6819   -9.5276    0.0000 C   0  0  0  0  0  0  0  0  0  0  0  0
   10.9674   -9.1151    0.0000 C   0  0  0  0  0  0  0  0  0  0  0  0
   10.9674   -8.2901    0.0000 O   0  0  0  0  0  0  0  0  0  0  0  0
   12.3963   -9.1151    0.0000 O   0  0  0  0  0  0  0  0  0  0  0  0
   12.3963  -10.7651    0.0000 O   0  0  0  0  0  0  0  0  0  0  0  0
   12.3963  -11.5901    0.0000 C   0  0  0  0  0  0  0  0  0  0  0  0
   13.1108   -9.5276    0.0000 C   0  0  0  0  0  0  0  0  0  0  0  0
   10.1218   -8.5318    0.0000 H   0  0  0  0  0  0  0  0  0  0  0  0
  1  2  2  0  0  0  0
  2  3  1  0  0  0  0
  3  4  2  0  0  0  0
  4  5  1  0  0  0  0
  5  6  2  0  0  0  0
  6  1  1  0  0  0  0
  4  7  1  0  0  0  0
  7  8  1  0  0  0  0
  8  9  1  0  0  0  0
  9 10  1  0  0  0  0
 10  5  1  0  0  0  0
  1 11  1  0  0  0  0
 12 11  1  1  0  0  0
 12 13  1  0  0  0  0
 13 14  1  0  0  0  0
 14 15  1  0  0  0  0
 15 16  1  0  0  0  0
 16 17  1  0  0  0  0
 17 12  1  0  0  0  0
 14 18  1  1  0  0  0
 16 19  1  1  0  0  0
 17 20  1  6  0  0  0
 15 21  1  6  0  0  0
 18 22  1  0  0  0  0
 22 23  1  0  0  0  0
 23 24  1  0  0  0  0
 23 25  2  0  0  0  0
  8 26  1  0  0  0  0
 26 27  2  0  0  0  0
 27 28  1  0  0  0  0
 28 29  2  0  0  0  0
 29 30  1  0  0  0  0
 30 31  2  0  0  0  0
 31 26  1  0  0  0  0
 31 32  1  0  0  0  0
 30 33  1  0  0  0  0
 29 34  1  0  0  0  0
 34 35  1  0  0  0  0
 33 36  1  0  0  0  0
  8 37  1  6  0  0  0
M  END
>  <cdx:fragmentId>
5

$$$$
