60143.cdx
  Mrv1902 05222410252D          

 33 36  0  0  0  0            999 V2000
    5.8556   -8.3864    0.0000 C   0  0  0  0  0  0  0  0  0  0  0  0
    5.8556   -9.2114    0.0000 C   0  0  0  0  0  0  0  0  0  0  0  0
    6.5700   -9.6239    0.0000 C   0  0  0  0  0  0  0  0  0  0  0  0
    7.2845   -9.2114    0.0000 C   0  0  0  0  0  0  0  0  0  0  0  0
    7.2845   -8.3864    0.0000 C   0  0  0  0  0  0  0  0  0  0  0  0
    6.5700   -7.9739    0.0000 C   0  0  0  0  0  0  0  0  0  0  0  0
    7.9990   -9.6239    0.0000 C   0  0  0  0  0  0  0  0  0  0  0  0
    8.7134   -9.2114    0.0000 C   0  0  0  0  0  0  0  0  0  0  0  0
    8.7134   -8.3864    0.0000 C   0  0  0  0  0  0  0  0  0  0  0  0
    7.9990   -7.9739    0.0000 O   0  0  0  0  0  0  0  0  0  0  0  0
    9.4279   -9.6239    0.0000 O   0  0  0  0  0  0  0  0  0  0  0  0
   10.1424   -8.3864    0.0000 C   0  0  0  0  0  0  0  0  0  0  0  0
    9.4279   -7.9739    0.0000 C   0  0  0  0  0  0  0  0  0  0  0  0
   10.8569   -7.9739    0.0000 C   0  0  0  0  0  0  0  0  0  0  0  0
   10.8569   -7.1489    0.0000 C   0  0  0  0  0  0  0  0  0  0  0  0
   10.1424   -6.7364    0.0000 C   0  0  0  0  0  0  0  0  0  0  0  0
    9.4279   -7.1489    0.0000 C   0  0  0  0  0  0  0  0  0  0  0  0
    7.9990  -10.4489    0.0000 O   0  0  0  0  0  0  0  0  0  0  0  0
    5.1411   -9.6239    0.0000 O   0  0  0  0  0  0  0  0  0  0  0  0
    5.1411   -7.9739    0.0000 O   0  0  0  0  0  0  0  0  0  0  0  0
    6.5700  -10.4489    0.0000 O   0  0  0  0  0  0  0  0  0  0  0  0
   11.5713   -6.7364    0.0000 O   0  0  0  0  0  0  0  0  0  0  0  0
    5.1411   -7.1489    0.0000 C   0  0  2  0  0  0  0  0  0  0  0  0
    5.8556   -6.7364    0.0000 O   0  0  0  0  0  0  0  0  0  0  0  0
    5.8556   -5.9114    0.0000 C   0  0  1  0  0  0  0  0  0  0  0  0
    5.1411   -5.4989    0.0000 C   0  0  2  0  0  0  0  0  0  0  0  0
    4.4266   -5.9114    0.0000 C   0  0  1  0  0  0  0  0  0  0  0  0
    4.4266   -6.7364    0.0000 C   0  0  1  0  0  0  0  0  0  0  0  0
    6.5700   -5.4989    0.0000 C   0  0  0  0  0  0  0  0  0  0  0  0
    3.7121   -5.4989    0.0000 O   0  0  0  0  0  0  0  0  0  0  0  0
    3.7121   -7.1489    0.0000 O   0  0  0  0  0  0  0  0  0  0  0  0
    5.1411   -4.6739    0.0000 O   0  0  0  0  0  0  0  0  0  0  0  0
    6.5700   -4.6739    0.0000 O   0  0  0  0  0  0  0  0  0  0  0  0
  1  2  1  0  0  0  0
  2  3  2  0  0  0  0
  3  4  1  0  0  0  0
  4  5  2  0  0  0  0
  5  6  1  0  0  0  0
  6  1  2  0  0  0  0
  4  7  1  0  0  0  0
  7  8  1  0  0  0  0
  8  9  2  0  0  0  0
  9 10  1  0  0  0  0
 10  5  1  0  0  0  0
  8 11  1  0  0  0  0
 12 13  2  0  0  0  0
 13  9  1  0  0  0  0
 12 14  1  0  0  0  0
 14 15  2  0  0  0  0
 15 16  1  0  0  0  0
 16 17  2  0  0  0  0
 17 13  1  0  0  0  0
  7 18  2  0  0  0  0
  2 19  1  0  0  0  0
  1 20  1  0  0  0  0
  3 21  1  0  0  0  0
 15 22  1  0  0  0  0
 23 20  1  1  0  0  0
 23 24  1  0  0  0  0
 24 25  1  0  0  0  0
 25 26  1  0  0  0  0
 26 27  1  0  0  0  0
 27 28  1  0  0  0  0
 28 23  1  0  0  0  0
 25 29  1  1  0  0  0
 27 30  1  1  0  0  0
 28 31  1  6  0  0  0
 26 32  1  6  0  0  0
 29 33  1  0  0  0  0
M  END
>  <cdx:fragmentId>
5

$$$$
