601578.cdx
  Mrv1902 05222410262D          

 15 15  0  0  0  0            999 V2000
   14.3970  -15.6640    0.0000 C   0  0  0  0  0  0  0  0  0  0  0  0
   13.6826  -16.0765    0.0000 C   0  0  0  0  0  0  0  0  0  0  0  0
   12.9681  -15.6640    0.0000 C   0  0  0  0  0  0  0  0  0  0  0  0
   14.3970  -14.8390    0.0000 O   0  0  0  0  0  0  0  0  0  0  0  0
   15.1115  -16.0765    0.0000 C   0  0  0  0  0  0  0  0  0  0  0  0
   15.1115  -16.9015    0.0000 C   0  0  0  0  0  0  0  0  0  0  0  0
   15.8260  -17.3140    0.0000 C   0  0  0  0  0  0  0  0  0  0  0  0
   16.5405  -16.9015    0.0000 C   0  0  0  0  0  0  0  0  0  0  0  0
   16.5405  -16.0765    0.0000 C   0  0  0  0  0  0  0  0  0  0  0  0
   15.8260  -15.6640    0.0000 C   0  0  0  0  0  0  0  0  0  0  0  0
   15.8260  -18.1390    0.0000 C   0  0  0  0  0  0  0  0  0  0  0  0
   17.2549  -17.3140    0.0000 O   0  0  0  0  0  0  0  0  0  0  0  0
   17.9694  -16.9015    0.0000 C   0  0  0  0  0  0  0  0  0  0  0  0
   14.3970  -17.3140    0.0000 O   0  0  0  0  0  0  0  0  0  0  0  0
   13.6826  -16.9015    0.0000 C   0  0  0  0  0  0  0  0  0  0  0  0
  1  2  1  0  0  0  0
  2  3  1  0  0  0  0
  5  6  1  0  0  0  0
  6  7  2  0  0  0  0
  7  8  1  0  0  0  0
  8  9  2  0  0  0  0
  9 10  1  0  0  0  0
  5 10  2  0  0  0  0
  1  4  2  0  0  0  0
  1  5  1  0  0  0  0
  7 11  1  0  0  0  0
 12 13  1  0  0  0  0
  8 12  1  0  0  0  0
 14 15  1  0  0  0  0
  6 14  1  0  0  0  0
M  END
>  <cdx:groupId>
7187

>  <cdx:fragmentId>
7153

$$$$
