60156.cdx
  Mrv1902 05222410242D          

 37 40  0  0  0  0            999 V2000
    6.6531  -10.2289    0.0000 O   0  0  0  0  0  0  0  0  0  0  0  0
    7.3675  -11.4664    0.0000 O   0  0  0  0  0  0  0  0  0  0  0  0
    8.0820  -11.0539    0.0000 C   0  0  2  0  0  0  0  0  0  0  0  0
    8.0820  -10.2289    0.0000 C   0  0  1  0  0  0  0  0  0  0  0  0
    7.3675   -9.8164    0.0000 C   0  0  0  0  0  0  0  0  0  0  0  0
    8.7965  -11.4664    0.0000 C   0  0  1  0  0  0  0  0  0  0  0  0
    9.5109  -11.0539    0.0000 C   0  0  2  0  0  0  0  0  0  0  0  0
    9.5109  -10.2289    0.0000 C   0  0  1  0  0  0  0  0  0  0  0  0
    8.7965   -9.8164    0.0000 O   0  0  0  0  0  0  0  0  0  0  0  0
   10.2254   -9.8164    0.0000 O   0  0  0  0  0  0  0  0  0  0  0  0
   10.2254   -8.9914    0.0000 C   0  0  2  0  0  0  0  0  0  0  0  0
    9.5109   -8.5789    0.0000 O   0  0  0  0  0  0  0  0  0  0  0  0
   10.9399   -8.5789    0.0000 C   0  0  1  0  0  0  0  0  0  0  0  0
   10.9399   -7.7539    0.0000 C   0  0  1  0  0  0  0  0  0  0  0  0
   10.2254   -7.3414    0.0000 C   0  0  0  0  0  0  0  0  0  0  0  0
    9.5109   -7.7539    0.0000 C   0  0  0  0  0  0  0  0  0  0  0  0
   11.6544   -7.3414    0.0000 C   0  0  0  0  0  0  0  0  0  0  0  0
   11.6544   -6.5164    0.0000 C   0  0  0  0  0  0  0  0  0  0  0  0
   10.9399   -6.1039    0.0000 O   0  0  0  0  0  0  0  0  0  0  0  0
   10.2254   -6.5164    0.0000 C   0  0  0  0  0  0  0  0  0  0  0  0
    8.7965  -12.2914    0.0000 O   0  0  0  0  0  0  0  0  0  0  0  0
   11.6544   -8.9914    0.0000 C   0  0  0  0  0  0  0  0  0  0  0  0
   10.2254  -11.4664    0.0000 O   0  0  0  0  0  0  0  0  0  0  0  0
   11.6544   -8.1664    0.0000 H   0  0  0  0  0  0  0  0  0  0  0  0
    9.5109   -6.1039    0.0000 O   0  0  0  0  0  0  0  0  0  0  0  0
   11.6544   -9.8164    0.0000 C   0  0  0  0  0  0  0  0  0  0  0  0
    5.9386   -9.8164    0.0000 C   0  0  2  0  0  0  0  0  0  0  0  0
    5.9386   -8.9914    0.0000 O   0  0  0  0  0  0  0  0  0  0  0  0
    5.2241   -8.5789    0.0000 C   0  0  1  0  0  0  0  0  0  0  0  0
    4.5096   -8.9914    0.0000 C   0  0  2  0  0  0  0  0  0  0  0  0
    4.5096   -9.8164    0.0000 C   0  0  1  0  0  0  0  0  0  0  0  0
    5.2241  -10.2289    0.0000 C   0  0  1  0  0  0  0  0  0  0  0  0
    5.2241   -7.7539    0.0000 C   0  0  0  0  0  0  0  0  0  0  0  0
    3.7952  -10.2289    0.0000 O   0  0  0  0  0  0  0  0  0  0  0  0
    5.2241  -11.0539    0.0000 O   0  0  0  0  0  0  0  0  0  0  0  0
    3.7952   -8.5789    0.0000 O   0  0  0  0  0  0  0  0  0  0  0  0
    4.5096   -7.3414    0.0000 O   0  0  0  0  0  0  0  0  0  0  0  0
  3  2  1  6  0  0  0
  3  4  1  0  0  0  0
  4  5  1  1  0  0  0
  5  1  1  0  0  0  0
  3  6  1  0  0  0  0
  6  7  1  0  0  0  0
  7  8  1  0  0  0  0
  8  9  1  0  0  0  0
  9  4  1  0  0  0  0
  8 10  1  1  0  0  0
 11 10  1  6  0  0  0
 11 12  1  0  0  0  0
 11 13  1  0  0  0  0
 13 14  1  0  0  0  0
 14 15  1  0  0  0  0
 15 16  2  0  0  0  0
 16 12  1  0  0  0  0
 14 17  1  0  0  0  0
 17 18  1  0  0  0  0
 18 19  1  0  0  0  0
 19 20  1  0  0  0  0
 20 15  1  0  0  0  0
  6 21  1  1  0  0  0
 13 22  1  1  0  0  0
  7 23  1  6  0  0  0
 14 24  1  6  0  0  0
 20 25  2  0  0  0  0
 22 26  2  0  0  0  0
 27  1  1  1  0  0  0
 27 28  1  0  0  0  0
 28 29  1  0  0  0  0
 29 30  1  0  0  0  0
 30 31  1  0  0  0  0
 31 32  1  0  0  0  0
 32 27  1  0  0  0  0
 29 33  1  1  0  0  0
 31 34  1  1  0  0  0
 32 35  1  6  0  0  0
 30 36  1  6  0  0  0
 33 37  1  0  0  0  0
M  END
>  <cdx:fragmentId>
5

$$$$
