60155.cdx
  Mrv1902 05222410252D          

 39 42  0  0  0  0            999 V2000
    5.4606  -13.0064    0.0000 O   0  0  0  0  0  0  0  0  0  0  0  0
    6.7462  -11.1707    0.0000 C   0  0  0  0  0  0  0  0  0  0  0  0
    4.0316  -13.8314    0.0000 O   0  0  0  0  0  0  0  0  0  0  0  0
    7.5430  -10.9572    0.0000 O   0  0  0  0  0  0  0  0  0  0  0  0
    6.1751  -10.9439    0.0000 H   0  0  0  0  0  0  0  0  0  0  0  0
    6.1751   -8.4689    0.0000 H   0  0  0  0  0  0  0  0  0  0  0  0
   11.6261   -5.5929    0.0000 C   0  0  0  0  0  0  0  0  0  0  0  0
   11.0428   -5.0096    0.0000 O   0  0  0  0  0  0  0  0  0  0  0  0
    9.8760   -3.8428    0.0000 O   0  0  0  0  0  0  0  0  0  0  0  0
   10.0323   -6.0200    0.0000 C   0  0  0  0  0  0  0  0  0  0  0  0
   10.2459   -5.2231    0.0000 C   0  0  0  0  0  0  0  0  0  0  0  0
    9.6625   -4.6397    0.0000 C   0  0  0  0  0  0  0  0  0  0  0  0
    8.8656   -4.8533    0.0000 C   0  0  0  0  0  0  0  0  0  0  0  0
    8.6521   -5.6501    0.0000 C   0  0  0  0  0  0  0  0  0  0  0  0
    9.2354   -6.2335    0.0000 C   0  0  0  0  0  0  0  0  0  0  0  0
    9.0219   -7.0304    0.0000 C   0  0  0  0  0  0  0  0  0  0  0  0
    8.2250   -7.2439    0.0000 C   0  0  0  0  0  0  0  0  0  0  0  0
    8.5949   -8.6242    0.0000 O   0  0  0  0  0  0  0  0  0  0  0  0
    8.0115   -8.0408    0.0000 C   0  0  0  0  0  0  0  0  0  0  0  0
    7.2146   -8.2543    0.0000 O   0  0  0  0  0  0  0  0  0  0  0  0
    6.9597  -10.3738    0.0000 C   0  0  2  0  0  0  0  0  0  0  0  0
    7.4446   -9.7064    0.0000 C   0  0  0  0  0  0  0  0  0  0  0  0
    6.9597   -9.0390    0.0000 C   0  0  2  0  0  0  0  0  0  0  0  0
    2.6027  -11.3564    0.0000 C   0  0  0  0  0  0  0  0  0  0  0  0
    1.8882  -11.7689    0.0000 O   0  0  0  0  0  0  0  0  0  0  0  0
    2.6027  -13.0064    0.0000 O   0  0  0  0  0  0  0  0  0  0  0  0
    3.3172  -11.7689    0.0000 C   0  0  2  0  0  0  0  0  0  0  0  0
    3.3172  -12.5939    0.0000 C   0  0  2  0  0  0  0  0  0  0  0  0
    4.0316  -13.0064    0.0000 C   0  0  1  0  0  0  0  0  0  0  0  0
    4.7461  -12.5939    0.0000 C   0  0  2  0  0  0  0  0  0  0  0  0
    4.0316  -11.3564    0.0000 O   0  0  0  0  0  0  0  0  0  0  0  0
    4.7461  -11.7689    0.0000 C   0  0  1  0  0  0  0  0  0  0  0  0
    5.4606  -11.3564    0.0000 O   0  0  0  0  0  0  0  0  0  0  0  0
    5.4606   -8.8814    0.0000 C   0  0  0  0  0  0  0  0  0  0  0  0
    4.7461   -9.2939    0.0000 C   0  0  0  0  0  0  0  0  0  0  0  0
    4.7461  -10.1189    0.0000 O   0  0  0  0  0  0  0  0  0  0  0  0
    5.4606  -10.5314    0.0000 C   0  0  2  0  0  0  0  0  0  0  0  0
    6.1751  -10.1189    0.0000 C   0  0  1  0  0  0  0  0  0  0  0  0
    6.1751   -9.2939    0.0000 C   0  0  2  0  0  0  0  0  0  0  0  0
 30  1  1  6  0  0  0
 21  2  1  0  0  0  0
 29  3  1  1  0  0  0
 21  4  1  6  0  0  0
 38  5  1  6  0  0  0
 39  6  1  6  0  0  0
  8  7  1  0  0  0  0
 11  8  1  0  0  0  0
 12  9  1  0  0  0  0
 10 15  1  0  0  0  0
 11 10  2  0  0  0  0
 12 11  1  0  0  0  0
 13 12  2  0  0  0  0
 14 13  1  0  0  0  0
 15 14  2  0  0  0  0
 16 15  1  0  0  0  0
 17 16  2  0  0  0  0
 19 17  1  0  0  0  0
 19 18  2  0  0  0  0
 20 19  1  0  0  0  0
 23 20  1  6  0  0  0
 21 38  1  0  0  0  0
 22 21  1  0  0  0  0
 23 22  1  0  0  0  0
 39 23  1  0  0  0  0
 27 24  1  1  0  0  0
 25 24  1  0  0  0  0
 28 26  1  6  0  0  0
 27 31  1  0  0  0  0
 28 27  1  0  0  0  0
 29 28  1  0  0  0  0
 30 29  1  0  0  0  0
 32 30  1  0  0  0  0
 32 31  1  0  0  0  0
 32 33  1  1  0  0  0
 37 33  1  6  0  0  0
 34 39  1  0  0  0  0
 35 34  2  0  0  0  0
 36 35  1  0  0  0  0
 37 36  1  0  0  0  0
 38 37  1  0  0  0  0
 39 38  1  0  0  0  0
M  END
>  <cdx:fragmentId>
5

$$$$
