60152.cdx
  Mrv1902 05222410242D          

 31 33  0  0  0  0            999 V2000
    3.8481  -11.1914    0.0000 O   0  0  0  0  0  0  0  0  0  0  0  0
    4.5625  -12.4289    0.0000 O   0  0  0  0  0  0  0  0  0  0  0  0
    5.2770  -12.0164    0.0000 C   0  0  2  0  0  0  0  0  0  0  0  0
    5.2770  -11.1914    0.0000 C   0  0  1  0  0  0  0  0  0  0  0  0
    4.5625  -10.7789    0.0000 C   0  0  0  0  0  0  0  0  0  0  0  0
    5.9915  -12.4289    0.0000 C   0  0  1  0  0  0  0  0  0  0  0  0
    6.7059  -12.0164    0.0000 C   0  0  2  0  0  0  0  0  0  0  0  0
    6.7059  -11.1914    0.0000 C   0  0  1  0  0  0  0  0  0  0  0  0
    5.9915  -10.7789    0.0000 O   0  0  0  0  0  0  0  0  0  0  0  0
    7.4204  -10.7789    0.0000 O   0  0  0  0  0  0  0  0  0  0  0  0
    7.4204   -9.9539    0.0000 C   0  0  2  0  0  0  0  0  0  0  0  0
    6.7059   -9.5414    0.0000 O   0  0  0  0  0  0  0  0  0  0  0  0
    8.1349   -9.5414    0.0000 C   0  0  1  0  0  0  0  0  0  0  0  0
    8.1349   -8.7164    0.0000 C   0  0  1  0  0  0  0  0  0  0  0  0
    7.4204   -8.3039    0.0000 C   0  0  0  0  0  0  0  0  0  0  0  0
    6.7059   -8.7164    0.0000 C   0  0  0  0  0  0  0  0  0  0  0  0
    8.8494   -8.3039    0.0000 C   0  0  0  0  0  0  0  0  0  0  0  0
    8.8494   -7.4789    0.0000 C   0  0  1  0  0  0  0  0  0  0  0  0
    8.1349   -7.0664    0.0000 O   0  0  0  0  0  0  0  0  0  0  0  0
    7.4204   -7.4789    0.0000 C   0  0  0  0  0  0  0  0  0  0  0  0
    6.7059   -7.0664    0.0000 O   0  0  0  0  0  0  0  0  0  0  0  0
    9.5638   -7.0664    0.0000 O   0  0  0  0  0  0  0  0  0  0  0  0
    9.5638   -6.2414    0.0000 C   0  0  0  0  0  0  0  0  0  0  0  0
    8.8494   -9.9539    0.0000 C   0  0  0  0  0  0  0  0  0  0  0  0
    8.8494  -10.7789    0.0000 C   0  0  0  0  0  0  0  0  0  0  0  0
    5.9915  -13.2539    0.0000 O   0  0  0  0  0  0  0  0  0  0  0  0
    7.4204  -12.4289    0.0000 O   0  0  0  0  0  0  0  0  0  0  0  0
    3.1336  -10.7789    0.0000 C   0  0  0  0  0  0  0  0  0  0  0  0
    2.4191  -11.1914    0.0000 C   0  0  0  0  0  0  0  0  0  0  0  0
    3.1336   -9.9539    0.0000 O   0  0  0  0  0  0  0  0  0  0  0  0
    8.8494   -9.1289    0.0000 H   0  0  0  0  0  0  0  0  0  0  0  0
  3  2  1  6  0  0  0
  3  4  1  0  0  0  0
  4  5  1  1  0  0  0
  5  1  1  0  0  0  0
  3  6  1  0  0  0  0
  6  7  1  0  0  0  0
  7  8  1  0  0  0  0
  8  9  1  0  0  0  0
  9  4  1  0  0  0  0
  8 10  1  1  0  0  0
 11 10  1  6  0  0  0
 11 12  1  0  0  0  0
 11 13  1  0  0  0  0
 13 14  1  0  0  0  0
 14 15  1  0  0  0  0
 15 16  2  0  0  0  0
 16 12  1  0  0  0  0
 14 17  1  0  0  0  0
 17 18  1  0  0  0  0
 18 19  1  0  0  0  0
 19 20  1  0  0  0  0
 20 15  1  0  0  0  0
 20 21  2  0  0  0  0
 18 22  1  1  0  0  0
 22 23  1  0  0  0  0
 13 24  1  1  0  0  0
 24 25  2  0  0  0  0
  6 26  1  1  0  0  0
  7 27  1  6  0  0  0
  1 28  1  0  0  0  0
 28 29  1  0  0  0  0
 28 30  2  0  0  0  0
 14 31  1  6  0  0  0
M  END
>  <cdx:fragmentId>
5

$$$$
