60151.cdx
  Mrv1902 05222410242D          

 35 38  0  0  0  0            999 V2000
    8.4929   -6.9892    0.0000 O   0  0  0  0  0  0  0  0  0  0  0  0
    7.7784   -5.7517    0.0000 C   0  0  0  0  0  0  0  0  0  0  0  0
    7.7784   -6.5767    0.0000 C   0  0  0  0  0  0  0  0  0  0  0  0
    6.3495   -9.8767    0.0000 H   0  0  0  0  0  0  0  0  0  0  0  0
    4.2061   -7.8142    0.0000 O   0  0  0  0  0  0  0  0  0  0  0  0
   10.6363   -9.0517    0.0000 O   0  0  0  0  0  0  0  0  0  0  0  0
    7.0640  -12.7642    0.0000 O   0  0  0  0  0  0  0  0  0  0  0  0
    5.6350  -12.7642    0.0000 O   0  0  0  0  0  0  0  0  0  0  0  0
    7.0640   -7.8142    0.0000 C   0  0  0  0  0  0  0  0  0  0  0  0
    7.0640   -6.9892    0.0000 O   0  0  0  0  0  0  0  0  0  0  0  0
    5.6350   -6.9892    0.0000 O   0  0  0  0  0  0  0  0  0  0  0  0
    6.3495   -9.0517    0.0000 O   0  0  0  0  0  0  0  0  0  0  0  0
    6.3495   -8.2267    0.0000 C   0  0  1  0  0  0  0  0  0  0  0  0
    5.6350   -7.8142    0.0000 C   0  0  2  0  0  0  0  0  0  0  0  0
    4.9206   -8.2267    0.0000 C   0  0  1  0  0  0  0  0  0  0  0  0
    5.6350   -9.4642    0.0000 C   0  0  2  0  0  0  0  0  0  0  0  0
    4.9206   -9.0517    0.0000 C   0  0  2  0  0  0  0  0  0  0  0  0
    4.2061   -9.4642    0.0000 O   0  0  0  0  0  0  0  0  0  0  0  0
    4.2061  -10.2892    0.0000 O   0  0  0  0  0  0  0  0  0  0  0  0
    9.9219  -10.2892    0.0000 C   0  0  0  0  0  0  0  0  0  0  0  0
    9.9219   -9.4642    0.0000 C   0  0  0  0  0  0  0  0  0  0  0  0
    9.2074   -9.0517    0.0000 C   0  0  0  0  0  0  0  0  0  0  0  0
    8.4929   -9.4642    0.0000 C   0  0  0  0  0  0  0  0  0  0  0  0
    9.2074  -10.7017    0.0000 C   0  0  0  0  0  0  0  0  0  0  0  0
    8.4929  -10.2892    0.0000 C   0  0  0  0  0  0  0  0  0  0  0  0
    7.0640  -11.9392    0.0000 C   0  0  0  0  0  0  0  0  0  0  0  0
    7.7784  -11.5267    0.0000 C   0  0  0  0  0  0  0  0  0  0  0  0
    7.7784  -10.7017    0.0000 C   0  0  0  0  0  0  0  0  0  0  0  0
    7.0640  -10.2892    0.0000 O   0  0  0  0  0  0  0  0  0  0  0  0
    5.6350  -11.9392    0.0000 C   0  0  0  0  0  0  0  0  0  0  0  0
    6.3495  -11.5267    0.0000 C   0  0  0  0  0  0  0  0  0  0  0  0
    6.3495  -10.7017    0.0000 C   0  0  0  0  0  0  0  0  0  0  0  0
    5.6350  -10.2892    0.0000 C   0  0  0  0  0  0  0  0  0  0  0  0
    4.9206  -10.7017    0.0000 C   0  0  0  0  0  0  0  0  0  0  0  0
    4.9206  -11.5267    0.0000 C   0  0  0  0  0  0  0  0  0  0  0  0
  3  1  2  0  0  0  0
  3  2  1  0  0  0  0
 10  3  1  0  0  0  0
 16  4  1  6  0  0  0
 15  5  1  1  0  0  0
 21  6  1  0  0  0  0
 26  7  2  0  0  0  0
 30  8  1  0  0  0  0
 13  9  1  1  0  0  0
 10  9  1  0  0  0  0
 14 11  1  6  0  0  0
 12 16  1  0  0  0  0
 13 12  1  0  0  0  0
 14 13  1  0  0  0  0
 15 14  1  0  0  0  0
 17 15  1  0  0  0  0
 16 33  1  0  0  0  0
 17 16  1  0  0  0  0
 17 18  1  6  0  0  0
 34 19  1  0  0  0  0
 20 24  1  0  0  0  0
 21 20  2  0  0  0  0
 22 21  1  0  0  0  0
 23 22  2  0  0  0  0
 25 23  1  0  0  0  0
 25 24  2  0  0  0  0
 28 25  1  0  0  0  0
 26 31  1  0  0  0  0
 27 26  1  0  0  0  0
 28 27  2  0  0  0  0
 29 28  1  0  0  0  0
 32 29  1  0  0  0  0
 30 35  2  0  0  0  0
 31 30  1  0  0  0  0
 32 31  2  0  0  0  0
 33 32  1  0  0  0  0
 34 33  2  0  0  0  0
 35 34  1  0  0  0  0
M  END
>  <cdx:fragmentId>
5

$$$$
