60157.cdx
  Mrv1902 05222410252D          

 64 71  0  0  0  0            999 V2000
    7.4038  -10.4810    0.0000 O   0  0  0  0  0  0  0  0  0  0  0  0
    8.1183  -10.0685    0.0000 C   0  0  2  0  0  0  0  0  0  0  0  0
    8.8327  -10.4810    0.0000 C   0  0  2  0  0  0  0  0  0  0  0  0
    9.5472  -10.0685    0.0000 C   0  0  1  0  0  0  0  0  0  0  0  0
    9.5472   -9.2435    0.0000 C   0  0  2  0  0  0  0  0  0  0  0  0
    8.8327   -8.8310    0.0000 C   0  0  0  0  0  0  0  0  0  0  0  0
    8.1183   -9.2435    0.0000 C   0  0  0  0  0  0  0  0  0  0  0  0
   10.2617  -10.4810    0.0000 C   0  0  0  0  0  0  0  0  0  0  0  0
   10.9762  -10.0685    0.0000 C   0  0  0  0  0  0  0  0  0  0  0  0
   10.9762   -9.2435    0.0000 C   0  0  2  0  0  0  0  0  0  0  0  0
   10.2617   -8.8310    0.0000 C   0  0  2  0  0  0  0  0  0  0  0  0
   11.6906   -8.8310    0.0000 C   0  0  1  0  0  0  0  0  0  0  0  0
   11.6906   -8.0060    0.0000 C   0  0  0  0  0  0  0  0  0  0  0  0
   10.9762   -7.5935    0.0000 C   0  0  0  0  0  0  0  0  0  0  0  0
   10.2617   -8.0060    0.0000 C   0  0  0  0  0  0  0  0  0  0  0  0
   12.4051   -9.2435    0.0000 C   0  0  0  0  0  0  0  0  0  0  0  0
   13.1196   -8.8310    0.0000 C   0  0  1  0  0  0  0  0  0  0  0  0
   13.1196   -8.0060    0.0000 C   0  0  0  0  0  0  0  0  0  0  0  0
   12.4051   -7.5935    0.0000 C   0  0  1  0  0  0  0  0  0  0  0  0
   13.8340   -7.5935    0.0000 C   0  0  0  0  0  0  0  0  0  0  0  0
   13.8340   -6.7685    0.0000 C   0  0  0  0  0  0  0  0  0  0  0  0
   13.1196   -6.3560    0.0000 C   0  0  1  0  0  0  0  0  0  0  0  0
   12.4051   -6.7685    0.0000 C   0  0  0  0  0  0  0  0  0  0  0  0
   11.6906   -7.1810    0.0000 O   0  0  0  0  0  0  0  0  0  0  0  0
   13.1196   -7.1810    0.0000 C   0  0  0  0  0  0  0  0  0  0  0  0
    9.5472   -8.4185    0.0000 C   0  0  0  0  0  0  0  0  0  0  0  0
   10.9762   -8.4185    0.0000 C   0  0  0  0  0  0  0  0  0  0  0  0
   13.8340   -9.2435    0.0000 O   0  0  0  0  0  0  0  0  0  0  0  0
   12.7071   -5.6415    0.0000 C   0  0  0  0  0  0  0  0  0  0  0  0
   13.5321   -5.6415    0.0000 C   0  0  0  0  0  0  0  0  0  0  0  0
   11.6906   -9.6560    0.0000 C   0  0  0  0  0  0  0  0  0  0  0  0
    9.2452  -11.1955    0.0000 C   0  0  0  0  0  0  0  0  0  0  0  0
    8.4202  -11.1955    0.0000 C   0  0  0  0  0  0  0  0  0  0  0  0
    8.8327  -11.9100    0.0000 O   0  0  0  0  0  0  0  0  0  0  0  0
    5.9834   -8.8229    0.0000 C   0  0  2  0  0  0  0  0  0  0  0  0
    5.2667   -9.2316    0.0000 C   0  0  1  0  0  0  0  0  0  0  0  0
    5.2622  -10.0565    0.0000 C   0  0  1  0  0  0  0  0  0  0  0  0
    5.9745  -10.4729    0.0000 C   0  0  2  0  0  0  0  0  0  0  0  0
    6.6911  -10.0643    0.0000 C   0  0  1  0  0  0  0  0  0  0  0  0
    6.6956   -9.2393    0.0000 O   0  0  0  0  0  0  0  0  0  0  0  0
    4.5455  -10.4652    0.0000 O   0  0  0  0  0  0  0  0  0  0  0  0
    4.5545   -8.8152    0.0000 O   0  0  0  0  0  0  0  0  0  0  0  0
    5.9878   -7.9979    0.0000 C   0  0  0  0  0  0  0  0  0  0  0  0
    5.9700  -11.2979    0.0000 O   0  0  0  0  0  0  0  0  0  0  0  0
    3.8333  -10.0488    0.0000 C   0  0  2  0  0  0  0  0  0  0  0  0
    3.8378   -9.2238    0.0000 O   0  0  0  0  0  0  0  0  0  0  0  0
    3.1255   -8.8075    0.0000 C   0  0  1  0  0  0  0  0  0  0  0  0
    2.4088   -9.2161    0.0000 C   0  0  2  0  0  0  0  0  0  0  0  0
    2.4044  -10.0411    0.0000 C   0  0  1  0  0  0  0  0  0  0  0  0
    3.1166  -10.4574    0.0000 C   0  0  1  0  0  0  0  0  0  0  0  0
    1.6877  -10.4497    0.0000 O   0  0  0  0  0  0  0  0  0  0  0  0
    3.1300   -7.9825    0.0000 C   0  0  0  0  0  0  0  0  0  0  0  0
    2.4178   -7.5661    0.0000 O   0  0  0  0  0  0  0  0  0  0  0  0
    2.4222   -6.7411    0.0000 C   0  0  0  0  0  0  0  0  0  0  0  0
    1.7100   -6.3248    0.0000 C   0  0  0  0  0  0  0  0  0  0  0  0
    3.1389   -6.3325    0.0000 O   0  0  0  0  0  0  0  0  0  0  0  0
    1.6966   -8.7997    0.0000 O   0  0  0  0  0  0  0  0  0  0  0  0
    3.1122  -11.2824    0.0000 O   0  0  0  0  0  0  0  0  0  0  0  0
    1.7100   -5.4998    0.0000 C   0  0  0  0  0  0  0  0  0  0  0  0
    0.9955   -5.0873    0.0000 O   0  0  0  0  0  0  0  0  0  0  0  0
    2.4245   -5.0873    0.0000 O   0  0  0  0  0  0  0  0  0  0  0  0
   12.4051   -8.4185    0.0000 H   0  0  0  0  0  0  0  0  0  0  0  0
    9.5472  -10.8935    0.0000 H   0  0  0  0  0  0  0  0  0  0  0  0
   10.2617   -9.6560    0.0000 H   0  0  0  0  0  0  0  0  0  0  0  0
  2  1  1  1  0  0  0
  2  3  1  0  0  0  0
  3  4  1  0  0  0  0
  4  5  1  0  0  0  0
  5  6  1  0  0  0  0
  6  7  1  0  0  0  0
  7  2  1  0  0  0  0
  4  8  1  0  0  0  0
  8  9  1  0  0  0  0
  9 10  1  0  0  0  0
 10 11  1  0  0  0  0
 11  5  1  0  0  0  0
 10 12  1  0  0  0  0
 12 13  1  0  0  0  0
 13 14  1  0  0  0  0
 14 15  2  0  0  0  0
 15 11  1  0  0  0  0
 12 16  1  0  0  0  0
 16 17  1  0  0  0  0
 17 18  1  0  0  0  0
 18 19  1  0  0  0  0
 19 13  1  0  0  0  0
 18 20  1  0  0  0  0
 20 21  1  0  0  0  0
 21 22  1  0  0  0  0
 22 23  1  0  0  0  0
 23 19  1  0  0  0  0
 13 24  1  0  0  0  0
 18 25  1  0  0  0  0
 25 24  1  0  0  0  0
  5 26  1  1  0  0  0
 10 27  1  1  0  0  0
 17 28  1  1  0  0  0
 22 29  1  1  0  0  0
 22 30  1  6  0  0  0
 12 31  1  6  0  0  0
  3 32  1  6  0  0  0
  3 33  1  1  0  0  0
 32 34  1  0  0  0  0
 35 36  1  0  0  0  0
 36 37  1  0  0  0  0
 37 38  1  0  0  0  0
 38 39  1  0  0  0  0
 39 40  1  0  0  0  0
 40 35  1  0  0  0  0
 37 41  1  1  0  0  0
 36 42  1  1  0  0  0
 35 43  1  1  0  0  0
 38 44  1  6  0  0  0
 45 41  1  1  0  0  0
 45 46  1  0  0  0  0
 46 47  1  0  0  0  0
 47 48  1  0  0  0  0
 48 49  1  0  0  0  0
 49 50  1  0  0  0  0
 50 45  1  0  0  0  0
 49 51  1  1  0  0  0
 47 52  1  1  0  0  0
 52 53  1  0  0  0  0
 53 54  1  0  0  0  0
 54 55  1  0  0  0  0
 54 56  2  0  0  0  0
 48 57  1  6  0  0  0
 50 58  1  6  0  0  0
 39  1  1  1  0  0  0
 55 59  1  0  0  0  0
 59 60  1  0  0  0  0
 59 61  2  0  0  0  0
 19 62  1  1  0  0  0
  4 63  1  6  0  0  0
 11 64  1  6  0  0  0
M  END
>  <cdx:fragmentId>
444

$$$$
