60153.cdx
  Mrv1902 05222410242D          

 38 41  0  0  0  0            999 V2000
    6.4468   -9.1426    0.0000 O   0  0  0  0  0  0  0  0  0  0  0  0
    7.1613  -10.3801    0.0000 O   0  0  0  0  0  0  0  0  0  0  0  0
    7.8757   -9.9676    0.0000 C   0  0  2  0  0  0  0  0  0  0  0  0
    7.8757   -9.1426    0.0000 C   0  0  1  0  0  0  0  0  0  0  0  0
    7.1613   -8.7301    0.0000 C   0  0  0  0  0  0  0  0  0  0  0  0
    8.5902  -10.3801    0.0000 C   0  0  1  0  0  0  0  0  0  0  0  0
    9.3047   -9.9676    0.0000 C   0  0  2  0  0  0  0  0  0  0  0  0
    9.3047   -9.1426    0.0000 C   0  0  1  0  0  0  0  0  0  0  0  0
    8.5902   -8.7301    0.0000 O   0  0  0  0  0  0  0  0  0  0  0  0
   10.0192   -8.7301    0.0000 O   0  0  0  0  0  0  0  0  0  0  0  0
   10.0192   -7.9051    0.0000 C   0  0  2  0  0  0  0  0  0  0  0  0
    9.3047   -7.4926    0.0000 O   0  0  0  0  0  0  0  0  0  0  0  0
   10.7336   -7.4926    0.0000 C   0  0  1  0  0  0  0  0  0  0  0  0
   10.7336   -6.6676    0.0000 C   0  0  1  0  0  0  0  0  0  0  0  0
   10.0192   -6.2551    0.0000 C   0  0  0  0  0  0  0  0  0  0  0  0
    9.3047   -6.6676    0.0000 C   0  0  0  0  0  0  0  0  0  0  0  0
   11.5183   -7.7476    0.0000 C   0  0  2  0  0  0  0  0  0  0  0  0
   12.0032   -7.0801    0.0000 C   0  0  0  0  0  0  0  0  0  0  0  0
   11.5183   -6.4127    0.0000 C   0  0  1  0  0  0  0  0  0  0  0  0
    8.5902  -11.2051    0.0000 O   0  0  0  0  0  0  0  0  0  0  0  0
   10.0192  -10.3801    0.0000 O   0  0  0  0  0  0  0  0  0  0  0  0
   10.7336   -5.8426    0.0000 O   0  0  0  0  0  0  0  0  0  0  0  0
   10.7336   -8.3176    0.0000 H   0  0  0  0  0  0  0  0  0  0  0  0
   11.7732   -5.6281    0.0000 O   0  0  0  0  0  0  0  0  0  0  0  0
   12.1016   -8.3310    0.0000 O   0  0  0  0  0  0  0  0  0  0  0  0
   11.3047   -8.5445    0.0000 C   0  0  0  0  0  0  0  0  0  0  0  0
    5.7323   -8.7301    0.0000 C   0  0  0  0  0  0  0  0  0  0  0  0
    5.0179   -9.1426    0.0000 C   0  0  0  0  0  0  0  0  0  0  0  0
    5.7323   -7.9051    0.0000 O   0  0  0  0  0  0  0  0  0  0  0  0
    4.3034   -8.7301    0.0000 C   0  0  0  0  0  0  0  0  0  0  0  0
    3.5889   -9.1426    0.0000 C   0  0  0  0  0  0  0  0  0  0  0  0
    2.8744   -8.7301    0.0000 C   0  0  0  0  0  0  0  0  0  0  0  0
    2.1600   -9.1426    0.0000 C   0  0  0  0  0  0  0  0  0  0  0  0
    2.1600   -9.9676    0.0000 C   0  0  0  0  0  0  0  0  0  0  0  0
    2.8744  -10.3801    0.0000 C   0  0  0  0  0  0  0  0  0  0  0  0
    3.5889   -9.9676    0.0000 C   0  0  0  0  0  0  0  0  0  0  0  0
    1.4455   -8.7301    0.0000 O   0  0  0  0  0  0  0  0  0  0  0  0
    1.4455  -10.3801    0.0000 O   0  0  0  0  0  0  0  0  0  0  0  0
  3  2  1  6  0  0  0
  3  4  1  0  0  0  0
  4  5  1  1  0  0  0
  5  1  1  0  0  0  0
  3  6  1  0  0  0  0
  6  7  1  0  0  0  0
  7  8  1  0  0  0  0
  8  9  1  0  0  0  0
  9  4  1  0  0  0  0
  8 10  1  1  0  0  0
 11 10  1  6  0  0  0
 11 12  1  0  0  0  0
 11 13  1  0  0  0  0
 13 14  1  0  0  0  0
 14 15  1  0  0  0  0
 15 16  2  0  0  0  0
 16 12  1  0  0  0  0
 13 17  1  0  0  0  0
 17 18  1  0  0  0  0
 18 19  1  0  0  0  0
 19 14  1  0  0  0  0
  6 20  1  1  0  0  0
  7 21  1  6  0  0  0
 14 22  1  6  0  0  0
 13 23  1  6  0  0  0
 19 24  1  6  0  0  0
 17 25  1  6  0  0  0
 17 26  1  0  0  0  0
  1 27  1  0  0  0  0
 27 28  1  0  0  0  0
 27 29  2  0  0  0  0
 28 30  2  0  0  0  0
 30 31  1  0  0  0  0
 31 32  2  0  0  0  0
 32 33  1  0  0  0  0
 33 34  2  0  0  0  0
 34 35  1  0  0  0  0
 35 36  2  0  0  0  0
 36 31  1  0  0  0  0
 33 37  1  0  0  0  0
 34 38  1  0  0  0  0
M  END
>  <cdx:fragmentId>
5

$$$$
