60154.cdx
  Mrv1902 05222410262D          

 33 35  0  0  0  0            999 V2000
   10.0768   -7.8639    0.0000 C   0  0  0  0  0  0  0  0  0  0  0  0
   10.0768   -8.6889    0.0000 C   0  0  0  0  0  0  0  0  0  0  0  0
   10.7913   -9.1014    0.0000 C   0  0  0  0  0  0  0  0  0  0  0  0
   11.5057   -8.6889    0.0000 C   0  0  0  0  0  0  0  0  0  0  0  0
   11.5057   -7.8639    0.0000 C   0  0  0  0  0  0  0  0  0  0  0  0
   10.7913   -7.4514    0.0000 C   0  0  0  0  0  0  0  0  0  0  0  0
   10.7913   -6.6264    0.0000 C   0  0  0  0  0  0  0  0  0  0  0  0
   11.5057   -6.2139    0.0000 C   0  0  0  0  0  0  0  0  0  0  0  0
   10.0768   -6.2139    0.0000 O   0  0  0  0  0  0  0  0  0  0  0  0
   10.7913   -9.9264    0.0000 O   0  0  0  0  0  0  0  0  0  0  0  0
   10.0768  -10.3389    0.0000 C   0  0  2  0  0  0  0  0  0  0  0  0
    9.3623   -9.9264    0.0000 O   0  0  0  0  0  0  0  0  0  0  0  0
    8.6479  -10.3389    0.0000 C   0  0  1  0  0  0  0  0  0  0  0  0
    8.6479  -11.1639    0.0000 C   0  0  2  0  0  0  0  0  0  0  0  0
    9.3623  -11.5764    0.0000 C   0  0  1  0  0  0  0  0  0  0  0  0
   10.0768  -11.1639    0.0000 C   0  0  1  0  0  0  0  0  0  0  0  0
    7.9334   -9.9264    0.0000 C   0  0  0  0  0  0  0  0  0  0  0  0
    9.3623  -12.4014    0.0000 O   0  0  0  0  0  0  0  0  0  0  0  0
    7.2189  -10.3389    0.0000 O   0  0  0  0  0  0  0  0  0  0  0  0
    7.9334  -11.5764    0.0000 O   0  0  0  0  0  0  0  0  0  0  0  0
   10.7913  -11.5764    0.0000 O   0  0  0  0  0  0  0  0  0  0  0  0
    6.5044   -9.9264    0.0000 C   0  0  0  0  0  0  0  0  0  0  0  0
    5.7900  -10.3389    0.0000 C   0  0  0  0  0  0  0  0  0  0  0  0
    6.5044   -9.1014    0.0000 O   0  0  0  0  0  0  0  0  0  0  0  0
    5.0755   -9.9264    0.0000 C   0  0  0  0  0  0  0  0  0  0  0  0
    4.3610  -10.3389    0.0000 C   0  0  0  0  0  0  0  0  0  0  0  0
    3.6466   -9.9264    0.0000 C   0  0  0  0  0  0  0  0  0  0  0  0
    2.9321  -10.3389    0.0000 C   0  0  0  0  0  0  0  0  0  0  0  0
    2.9321  -11.1639    0.0000 C   0  0  0  0  0  0  0  0  0  0  0  0
    3.6466  -11.5764    0.0000 C   0  0  0  0  0  0  0  0  0  0  0  0
    4.3610  -11.1639    0.0000 C   0  0  0  0  0  0  0  0  0  0  0  0
    2.2176  -11.5764    0.0000 O   0  0  0  0  0  0  0  0  0  0  0  0
    3.6466  -12.4014    0.0000 O   0  0  0  0  0  0  0  0  0  0  0  0
  1  2  2  0  0  0  0
  2  3  1  0  0  0  0
  3  4  2  0  0  0  0
  4  5  1  0  0  0  0
  5  6  2  0  0  0  0
  6  1  1  0  0  0  0
  6  7  1  0  0  0  0
  7  8  1  0  0  0  0
  7  9  2  0  0  0  0
  3 10  1  0  0  0  0
 11 10  1  1  0  0  0
 11 12  1  0  0  0  0
 12 13  1  0  0  0  0
 13 14  1  0  0  0  0
 14 15  1  0  0  0  0
 15 16  1  0  0  0  0
 16 11  1  0  0  0  0
 13 17  1  1  0  0  0
 15 18  1  1  0  0  0
 17 19  1  0  0  0  0
 14 20  1  6  0  0  0
 16 21  1  6  0  0  0
 19 22  1  0  0  0  0
 22 23  1  0  0  0  0
 22 24  2  0  0  0  0
 23 25  2  0  0  0  0
 25 26  1  0  0  0  0
 26 27  2  0  0  0  0
 27 28  1  0  0  0  0
 28 29  2  0  0  0  0
 29 30  1  0  0  0  0
 30 31  2  0  0  0  0
 31 26  1  0  0  0  0
 29 32  1  0  0  0  0
 30 33  1  0  0  0  0
M  END
>  <cdx:fragmentId>
5

$$$$
