60150.cdx
  Mrv1902 05222410232D          

 32 34  0  0  0  0            999 V2000
    3.3118  -12.2364    0.0000 O   0  0  0  0  0  0  0  0  0  0  0  0
    4.0263  -13.4739    0.0000 O   0  0  0  0  0  0  0  0  0  0  0  0
    4.7407  -13.0614    0.0000 C   0  0  2  0  0  0  0  0  0  0  0  0
    4.7407  -12.2364    0.0000 C   0  0  1  0  0  0  0  0  0  0  0  0
    4.0263  -11.8239    0.0000 C   0  0  0  0  0  0  0  0  0  0  0  0
    5.4552  -13.4739    0.0000 C   0  0  1  0  0  0  0  0  0  0  0  0
    6.1697  -13.0614    0.0000 C   0  0  2  0  0  0  0  0  0  0  0  0
    6.1697  -12.2364    0.0000 C   0  0  1  0  0  0  0  0  0  0  0  0
    5.4552  -11.8239    0.0000 O   0  0  0  0  0  0  0  0  0  0  0  0
    6.8842  -11.8239    0.0000 O   0  0  0  0  0  0  0  0  0  0  0  0
    6.8842  -10.9989    0.0000 C   0  0  2  0  0  0  0  0  0  0  0  0
    6.1697  -10.5864    0.0000 O   0  0  0  0  0  0  0  0  0  0  0  0
    7.5986  -10.5864    0.0000 C   0  0  1  0  0  0  0  0  0  0  0  0
    7.5986   -9.7614    0.0000 C   0  0  1  0  0  0  0  0  0  0  0  0
    6.8842   -9.3489    0.0000 C   0  0  0  0  0  0  0  0  0  0  0  0
    6.1697   -9.7614    0.0000 C   0  0  0  0  0  0  0  0  0  0  0  0
    7.5986   -8.1114    0.0000 O   0  0  0  0  0  0  0  0  0  0  0  0
    6.8842   -8.5239    0.0000 C   0  0  0  0  0  0  0  0  0  0  0  0
    6.1697   -8.1114    0.0000 O   0  0  0  0  0  0  0  0  0  0  0  0
    5.4552  -14.2989    0.0000 O   0  0  0  0  0  0  0  0  0  0  0  0
    6.8842  -13.4739    0.0000 O   0  0  0  0  0  0  0  0  0  0  0  0
    8.3833  -10.8413    0.0000 C   0  0  2  0  0  0  0  0  0  0  0  0
    8.8682  -10.1739    0.0000 C   0  0  0  0  0  0  0  0  0  0  0  0
    8.3833   -9.5065    0.0000 C   0  0  1  0  0  0  0  0  0  0  0  0
    7.8122   -8.9645    0.0000 H   0  0  0  0  0  0  0  0  0  0  0  0
    7.8122  -11.3833    0.0000 H   0  0  0  0  0  0  0  0  0  0  0  0
    8.6382   -8.7218    0.0000 O   0  0  0  0  0  0  0  0  0  0  0  0
    8.9666  -11.4247    0.0000 O   0  0  0  0  0  0  0  0  0  0  0  0
    8.1697  -11.6382    0.0000 C   0  0  0  0  0  0  0  0  0  0  0  0
    9.4632   -8.7218    0.0000 C   0  0  0  0  0  0  0  0  0  0  0  0
    9.8757   -8.0074    0.0000 C   0  0  0  0  0  0  0  0  0  0  0  0
    9.8757   -9.4363    0.0000 O   0  0  0  0  0  0  0  0  0  0  0  0
  3  2  1  6  0  0  0
  3  4  1  0  0  0  0
  4  5  1  1  0  0  0
  5  1  1  0  0  0  0
  3  6  1  0  0  0  0
  6  7  1  0  0  0  0
  7  8  1  0  0  0  0
  8  9  1  0  0  0  0
  9  4  1  0  0  0  0
  8 10  1  1  0  0  0
 11 10  1  6  0  0  0
 11 12  1  0  0  0  0
 11 13  1  0  0  0  0
 13 14  1  0  0  0  0
 14 15  1  0  0  0  0
 15 16  2  0  0  0  0
 16 12  1  0  0  0  0
 17 18  2  0  0  0  0
 18 15  1  0  0  0  0
 18 19  1  0  0  0  0
  6 20  1  1  0  0  0
  7 21  1  6  0  0  0
 13 22  1  0  0  0  0
 22 23  1  0  0  0  0
 23 24  1  0  0  0  0
 24 14  1  0  0  0  0
 14 25  1  6  0  0  0
 13 26  1  6  0  0  0
 24 27  1  6  0  0  0
 22 28  1  6  0  0  0
 22 29  1  0  0  0  0
 27 30  1  0  0  0  0
 30 31  1  0  0  0  0
 30 32  2  0  0  0  0
M  END
>  <cdx:fragmentId>
5

$$$$
