60159.cdx
  Mrv1902 05222410202D          

 33 36  0  0  0  0            999 V2000
    1.8125   -8.3314    0.0000 O   0  0  0  0  0  0  0  0  0  0  0  0
    2.5270   -7.9189    0.0000 C   0  0  0  0  0  0  0  0  0  0  0  0
    2.5270   -7.0939    0.0000 C   0  0  0  0  0  0  0  0  0  0  0  0
    1.8125   -6.6814    0.0000 O   0  0  0  0  0  0  0  0  0  0  0  0
    3.2415   -8.3314    0.0000 C   0  0  0  0  0  0  0  0  0  0  0  0
    3.9559   -7.9189    0.0000 C   0  0  0  0  0  0  0  0  0  0  0  0
    3.9559   -7.0939    0.0000 C   0  0  0  0  0  0  0  0  0  0  0  0
    3.2415   -6.6814    0.0000 C   0  0  0  0  0  0  0  0  0  0  0  0
    4.6704   -8.3314    0.0000 C   0  0  0  0  0  0  0  0  0  0  0  0
    5.3849   -7.9189    0.0000 N   0  0  0  0  0  0  0  0  0  0  0  0
    5.3849   -7.0939    0.0000 C   0  0  0  0  0  0  0  0  0  0  0  0
    4.6704   -6.6814    0.0000 C   0  0  0  0  0  0  0  0  0  0  0  0
    4.6704   -9.1564    0.0000 C   0  0  0  0  0  0  0  0  0  0  0  0
    5.3849   -9.5689    0.0000 C   0  0  0  0  0  0  0  0  0  0  0  0
    6.0994   -9.1564    0.0000 C   0  0  0  0  0  0  0  0  0  0  0  0
    6.0994   -8.3314    0.0000 C   0  0  0  0  0  0  0  0  0  0  0  0
    5.3849  -10.3939    0.0000 C   0  0  0  0  0  0  0  0  0  0  0  0
    6.0994  -10.8064    0.0000 C   0  0  0  0  0  0  0  0  0  0  0  0
    6.8138  -10.3939    0.0000 C   0  0  0  0  0  0  0  0  0  0  0  0
    6.8138   -9.5689    0.0000 C   0  0  0  0  0  0  0  0  0  0  0  0
    7.5283  -10.8064    0.0000 O   0  0  0  0  0  0  0  0  0  0  0  0
    7.5283   -9.1564    0.0000 O   0  0  0  0  0  0  0  0  0  0  0  0
    7.5283  -11.6314    0.0000 C   0  0  2  0  0  0  0  0  0  0  0  0
    6.8138  -12.0439    0.0000 O   0  0  0  0  0  0  0  0  0  0  0  0
    6.8138  -12.8689    0.0000 C   0  0  1  0  0  0  0  0  0  0  0  0
    7.5283  -13.2814    0.0000 C   0  0  2  0  0  0  0  0  0  0  0  0
    8.2428  -12.8689    0.0000 C   0  0  1  0  0  0  0  0  0  0  0  0
    8.2428  -12.0439    0.0000 C   0  0  1  0  0  0  0  0  0  0  0  0
    6.0994  -13.2814    0.0000 C   0  0  0  0  0  0  0  0  0  0  0  0
    8.9572  -13.2814    0.0000 O   0  0  0  0  0  0  0  0  0  0  0  0
    8.9572  -11.6314    0.0000 O   0  0  0  0  0  0  0  0  0  0  0  0
    7.5283  -14.1064    0.0000 O   0  0  0  0  0  0  0  0  0  0  0  0
    6.0994  -14.1064    0.0000 O   0  0  0  0  0  0  0  0  0  0  0  0
  1  2  1  0  0  0  0
  2  3  2  0  0  0  0
  3  4  1  0  0  0  0
  2  5  1  0  0  0  0
  5  6  2  0  0  0  0
  6  7  1  0  0  0  0
  7  8  2  0  0  0  0
  8  3  1  0  0  0  0
  6  9  1  0  0  0  0
  9 10  1  0  0  0  0
 10 11  1  0  0  0  0
 11 12  1  0  0  0  0
 12  7  1  0  0  0  0
  9 13  1  0  0  0  0
 13 14  1  0  0  0  0
 14 15  1  0  0  0  0
 16 10  1  0  0  0  0
 14 17  2  0  0  0  0
 17 18  1  0  0  0  0
 18 19  2  0  0  0  0
 19 20  1  0  0  0  0
 20 15  2  0  0  0  0
 21 19  1  0  0  0  0
 20 22  1  0  0  0  0
 23 21  1  1  0  0  0
 23 24  1  0  0  0  0
 24 25  1  0  0  0  0
 25 26  1  0  0  0  0
 26 27  1  0  0  0  0
 27 28  1  0  0  0  0
 28 23  1  0  0  0  0
 25 29  1  1  0  0  0
 27 30  1  1  0  0  0
 28 31  1  6  0  0  0
 26 32  1  6  0  0  0
 29 33  1  0  0  0  0
M  END
>  <cdx:fragmentId>
5

$$$$
