60158.cdx
  Mrv1902 05222410212D          

 64 71  0  0  0  0            999 V2000
    7.3488  -10.9485    0.0000 O   0  0  0  0  0  0  0  0  0  0  0  0
    8.0633  -10.5360    0.0000 C   0  0  2  0  0  0  0  0  0  0  0  0
    8.7777  -10.9485    0.0000 C   0  0  2  0  0  0  0  0  0  0  0  0
    9.4922  -10.5360    0.0000 C   0  0  1  0  0  0  0  0  0  0  0  0
    9.4922   -9.7110    0.0000 C   0  0  2  0  0  0  0  0  0  0  0  0
    8.7777   -9.2985    0.0000 C   0  0  0  0  0  0  0  0  0  0  0  0
    8.0633   -9.7110    0.0000 C   0  0  0  0  0  0  0  0  0  0  0  0
   10.2067  -10.9485    0.0000 C   0  0  0  0  0  0  0  0  0  0  0  0
   10.9212  -10.5360    0.0000 C   0  0  0  0  0  0  0  0  0  0  0  0
   10.9212   -9.7110    0.0000 C   0  0  2  0  0  0  0  0  0  0  0  0
   10.2067   -9.2985    0.0000 C   0  0  2  0  0  0  0  0  0  0  0  0
   11.6356   -9.2985    0.0000 C   0  0  1  0  0  0  0  0  0  0  0  0
   11.6356   -8.4735    0.0000 C   0  0  0  0  0  0  0  0  0  0  0  0
   10.9212   -8.0610    0.0000 C   0  0  0  0  0  0  0  0  0  0  0  0
   10.2067   -8.4735    0.0000 C   0  0  0  0  0  0  0  0  0  0  0  0
   12.3501   -9.7110    0.0000 C   0  0  0  0  0  0  0  0  0  0  0  0
   13.0646   -9.2985    0.0000 C   0  0  2  0  0  0  0  0  0  0  0  0
   13.0646   -8.4735    0.0000 C   0  0  0  0  0  0  0  0  0  0  0  0
   12.3501   -8.0610    0.0000 C   0  0  1  0  0  0  0  0  0  0  0  0
   13.7790   -8.0610    0.0000 C   0  0  0  0  0  0  0  0  0  0  0  0
   13.7790   -7.2360    0.0000 C   0  0  0  0  0  0  0  0  0  0  0  0
   13.0646   -6.8235    0.0000 C   0  0  1  0  0  0  0  0  0  0  0  0
   12.3501   -7.2360    0.0000 C   0  0  0  0  0  0  0  0  0  0  0  0
   11.6356   -7.6485    0.0000 O   0  0  0  0  0  0  0  0  0  0  0  0
   13.0646   -7.6485    0.0000 C   0  0  0  0  0  0  0  0  0  0  0  0
    9.4922   -8.8860    0.0000 C   0  0  0  0  0  0  0  0  0  0  0  0
   10.9212   -8.8860    0.0000 C   0  0  0  0  0  0  0  0  0  0  0  0
   13.7790   -9.7110    0.0000 O   0  0  0  0  0  0  0  0  0  0  0  0
   12.6521   -6.1090    0.0000 C   0  0  0  0  0  0  0  0  0  0  0  0
   13.4771   -6.1090    0.0000 C   0  0  0  0  0  0  0  0  0  0  0  0
   11.6356  -10.1235    0.0000 C   0  0  0  0  0  0  0  0  0  0  0  0
    9.1902  -11.6630    0.0000 C   0  0  0  0  0  0  0  0  0  0  0  0
    8.3652  -11.6630    0.0000 C   0  0  0  0  0  0  0  0  0  0  0  0
    8.7777  -12.3775    0.0000 O   0  0  0  0  0  0  0  0  0  0  0  0
    5.9284   -9.2904    0.0000 C   0  0  2  0  0  0  0  0  0  0  0  0
    5.2117   -9.6991    0.0000 C   0  0  1  0  0  0  0  0  0  0  0  0
    5.2072  -10.5240    0.0000 C   0  0  1  0  0  0  0  0  0  0  0  0
    5.9195  -10.9404    0.0000 C   0  0  2  0  0  0  0  0  0  0  0  0
    6.6361  -10.5318    0.0000 C   0  0  1  0  0  0  0  0  0  0  0  0
    6.6406   -9.7068    0.0000 O   0  0  0  0  0  0  0  0  0  0  0  0
    4.4905  -10.9327    0.0000 O   0  0  0  0  0  0  0  0  0  0  0  0
    4.4995   -9.2827    0.0000 O   0  0  0  0  0  0  0  0  0  0  0  0
    5.9328   -8.4654    0.0000 C   0  0  0  0  0  0  0  0  0  0  0  0
    5.9150  -11.7654    0.0000 O   0  0  0  0  0  0  0  0  0  0  0  0
    3.7783  -10.5163    0.0000 C   0  0  2  0  0  0  0  0  0  0  0  0
    3.7828   -9.6913    0.0000 O   0  0  0  0  0  0  0  0  0  0  0  0
    3.0705   -9.2750    0.0000 C   0  0  1  0  0  0  0  0  0  0  0  0
    2.3538   -9.6836    0.0000 C   0  0  2  0  0  0  0  0  0  0  0  0
    2.3494  -10.5086    0.0000 C   0  0  1  0  0  0  0  0  0  0  0  0
    3.0616  -10.9249    0.0000 C   0  0  1  0  0  0  0  0  0  0  0  0
    1.6327  -10.9172    0.0000 O   0  0  0  0  0  0  0  0  0  0  0  0
    3.0750   -8.4500    0.0000 C   0  0  0  0  0  0  0  0  0  0  0  0
    2.3628   -8.0336    0.0000 O   0  0  0  0  0  0  0  0  0  0  0  0
    2.3672   -7.2086    0.0000 C   0  0  0  0  0  0  0  0  0  0  0  0
    1.6550   -6.7923    0.0000 C   0  0  0  0  0  0  0  0  0  0  0  0
    3.0839   -6.8000    0.0000 O   0  0  0  0  0  0  0  0  0  0  0  0
    1.6416   -9.2672    0.0000 O   0  0  0  0  0  0  0  0  0  0  0  0
    3.0572  -11.7499    0.0000 O   0  0  0  0  0  0  0  0  0  0  0  0
    1.6550   -5.9673    0.0000 C   0  0  0  0  0  0  0  0  0  0  0  0
    0.9405   -5.5548    0.0000 O   0  0  0  0  0  0  0  0  0  0  0  0
    2.3695   -5.5548    0.0000 O   0  0  0  0  0  0  0  0  0  0  0  0
    9.4922  -11.3610    0.0000 H   0  0  0  0  0  0  0  0  0  0  0  0
   12.3501   -8.8860    0.0000 H   0  0  0  0  0  0  0  0  0  0  0  0
   10.2067  -10.1235    0.0000 H   0  0  0  0  0  0  0  0  0  0  0  0
  2  1  1  1  0  0  0
  2  3  1  0  0  0  0
  3  4  1  0  0  0  0
  4  5  1  0  0  0  0
  5  6  1  0  0  0  0
  6  7  1  0  0  0  0
  7  2  1  0  0  0  0
  4  8  1  0  0  0  0
  8  9  1  0  0  0  0
  9 10  1  0  0  0  0
 10 11  1  0  0  0  0
 11  5  1  0  0  0  0
 10 12  1  0  0  0  0
 12 13  1  0  0  0  0
 13 14  1  0  0  0  0
 14 15  2  0  0  0  0
 15 11  1  0  0  0  0
 12 16  1  0  0  0  0
 16 17  1  0  0  0  0
 17 18  1  0  0  0  0
 18 19  1  0  0  0  0
 19 13  1  0  0  0  0
 18 20  1  0  0  0  0
 20 21  1  0  0  0  0
 21 22  1  0  0  0  0
 22 23  1  0  0  0  0
 23 19  1  0  0  0  0
 13 24  1  0  0  0  0
 18 25  1  0  0  0  0
 25 24  1  0  0  0  0
  5 26  1  1  0  0  0
 10 27  1  1  0  0  0
 17 28  1  6  0  0  0
 22 29  1  1  0  0  0
 22 30  1  6  0  0  0
 12 31  1  6  0  0  0
  3 32  1  6  0  0  0
  3 33  1  1  0  0  0
 32 34  1  0  0  0  0
 35 36  1  0  0  0  0
 36 37  1  0  0  0  0
 37 38  1  0  0  0  0
 38 39  1  0  0  0  0
 39 40  1  0  0  0  0
 40 35  1  0  0  0  0
 37 41  1  1  0  0  0
 36 42  1  1  0  0  0
 35 43  1  1  0  0  0
 38 44  1  6  0  0  0
 45 41  1  1  0  0  0
 45 46  1  0  0  0  0
 46 47  1  0  0  0  0
 47 48  1  0  0  0  0
 48 49  1  0  0  0  0
 49 50  1  0  0  0  0
 50 45  1  0  0  0  0
 49 51  1  1  0  0  0
 47 52  1  1  0  0  0
 52 53  1  0  0  0  0
 53 54  1  0  0  0  0
 54 55  1  0  0  0  0
 54 56  2  0  0  0  0
 48 57  1  6  0  0  0
 50 58  1  6  0  0  0
 39  1  1  1  0  0  0
 55 59  1  0  0  0  0
 59 60  1  0  0  0  0
 59 61  2  0  0  0  0
  4 62  1  6  0  0  0
 19 63  1  1  0  0  0
 11 64  1  6  0  0  0
M  END
>  <cdx:fragmentId>
444

$$$$
