60160.cdx
  Mrv1902 05222410222D          

 45 49  0  0  0  0            999 V2000
   10.4851   -8.8074    0.0000 O   0  0  0  0  0  0  0  0  0  0  0  0
   11.3101   -8.8085    0.0000 C   0  0  2  0  0  0  0  0  0  0  0  0
   11.7216   -9.5236    0.0000 O   0  0  0  0  0  0  0  0  0  0  0  0
   12.5466   -9.5247    0.0000 C   0  0  1  0  0  0  0  0  0  0  0  0
   12.9601   -8.8108    0.0000 C   0  0  2  0  0  0  0  0  0  0  0  0
   12.5486   -8.0957    0.0000 C   0  0  1  0  0  0  0  0  0  0  0  0
   11.7236   -8.0946    0.0000 C   0  0  1  0  0  0  0  0  0  0  0  0
   12.9581  -10.2397    0.0000 C   0  0  0  0  0  0  0  0  0  0  0  0
   12.9620   -7.3818    0.0000 O   0  0  0  0  0  0  0  0  0  0  0  0
   11.3120   -7.3796    0.0000 O   0  0  0  0  0  0  0  0  0  0  0  0
   13.7851   -8.8119    0.0000 O   0  0  0  0  0  0  0  0  0  0  0  0
   13.7831  -10.2409    0.0000 O   0  0  0  0  0  0  0  0  0  0  0  0
   12.5446  -10.9536    0.0000 O   0  0  0  0  0  0  0  0  0  0  0  0
    4.0548   -7.5699    0.0000 O   0  0  0  0  0  0  0  0  0  0  0  0
    3.3404   -7.9824    0.0000 C   0  0  2  0  0  0  0  0  0  0  0  0
    2.6259   -7.5699    0.0000 O   0  0  0  0  0  0  0  0  0  0  0  0
    1.9114   -7.9824    0.0000 C   0  0  1  0  0  0  0  0  0  0  0  0
    1.9115   -8.8074    0.0000 C   0  0  2  0  0  0  0  0  0  0  0  0
    2.6259   -9.2199    0.0000 C   0  0  1  0  0  0  0  0  0  0  0  0
    3.3404   -8.8074    0.0000 C   0  0  1  0  0  0  0  0  0  0  0  0
    1.1969   -7.5700    0.0000 C   0  0  0  0  0  0  0  0  0  0  0  0
    2.6260  -10.0449    0.0000 O   0  0  0  0  0  0  0  0  0  0  0  0
    4.0549   -9.2199    0.0000 O   0  0  0  0  0  0  0  0  0  0  0  0
    1.1970   -9.2200    0.0000 O   0  0  0  0  0  0  0  0  0  0  0  0
    0.4825   -7.9825    0.0000 O   0  0  0  0  0  0  0  0  0  0  0  0
   10.4851  -11.2824    0.0000 C   0  0  0  0  0  0  0  0  0  0  0  0
   10.4851  -10.4574    0.0000 O   0  0  0  0  0  0  0  0  0  0  0  0
    9.7706   -7.5699    0.0000 C   0  0  0  0  0  0  0  0  0  0  0  0
    9.0561   -7.9824    0.0000 O   0  0  0  0  0  0  0  0  0  0  0  0
    9.0561  -10.4574    0.0000 C   0  0  0  0  0  0  0  0  0  0  0  0
    9.7706  -10.0449    0.0000 C   0  0  0  0  0  0  0  0  0  0  0  0
    9.7706   -9.2199    0.0000 C   0  0  0  0  0  0  0  0  0  0  0  0
    9.0561   -8.8074    0.0000 C   0  0  0  0  0  0  0  0  0  0  0  0
    8.3417  -10.0449    0.0000 C   0  0  0  0  0  0  0  0  0  0  0  0
    8.3417   -9.2199    0.0000 C   0  0  0  0  0  0  0  0  0  0  0  0
    6.9127   -9.2199    0.0000 C   0  0  0  0  0  0  0  0  0  0  0  0
    7.6272   -8.8074    0.0000 C   0  0  0  0  0  0  0  0  0  0  0  0
    7.6272   -7.9824    0.0000 C   0  0  0  0  0  0  0  0  0  0  0  0
    6.9127   -7.5699    0.0000 O   0  0  0  0  0  0  0  0  0  0  0  0
    5.4838   -9.2199    0.0000 C   0  0  0  0  0  0  0  0  0  0  0  0
    6.1982   -8.8074    0.0000 C   0  0  0  0  0  0  0  0  0  0  0  0
    6.1982   -7.9824    0.0000 C   0  0  0  0  0  0  0  0  0  0  0  0
    5.4838   -7.5699    0.0000 C   0  0  0  0  0  0  0  0  0  0  0  0
    4.7693   -7.9824    0.0000 C   0  0  0  0  0  0  0  0  0  0  0  0
    4.7693   -8.8074    0.0000 C   0  0  0  0  0  0  0  0  0  0  0  0
  2  1  1  1  0  0  0
  2  3  1  0  0  0  0
  3  4  1  0  0  0  0
  4  5  1  0  0  0  0
  5  6  1  0  0  0  0
  6  7  1  0  0  0  0
  7  2  1  0  0  0  0
  4  8  1  1  0  0  0
  6  9  1  1  0  0  0
  7 10  1  6  0  0  0
  5 11  1  6  0  0  0
  8 12  1  0  0  0  0
 15 14  1  1  0  0  0
 15 16  1  0  0  0  0
 16 17  1  0  0  0  0
 17 18  1  0  0  0  0
 18 19  1  0  0  0  0
 19 20  1  0  0  0  0
 20 15  1  0  0  0  0
 17 21  1  1  0  0  0
 19 22  1  1  0  0  0
 20 23  1  6  0  0  0
 18 24  1  6  0  0  0
 27 26  1  0  0  0  0
 31 27  1  0  0  0  0
 29 28  1  0  0  0  0
 33 29  1  0  0  0  0
 44 14  1  0  0  0  0
 21 25  1  0  0  0  0
 32  1  1  0  0  0  0
  8 13  2  0  0  0  0
 30 34  1  0  0  0  0
 31 30  2  0  0  0  0
 32 31  1  0  0  0  0
 33 32  2  0  0  0  0
 35 33  1  0  0  0  0
 35 34  2  0  0  0  0
 37 35  1  0  0  0  0
 36 41  1  0  0  0  0
 37 36  1  0  0  0  0
 38 37  1  0  0  0  0
 39 38  1  0  0  0  0
 42 39  1  0  0  0  0
 40 45  1  0  0  0  0
 41 40  2  0  0  0  0
 42 41  1  0  0  0  0
 43 42  2  0  0  0  0
 44 43  1  0  0  0  0
 45 44  2  0  0  0  0
M  END
>  <cdx:fragmentId>
5

$$$$
