60166.cdx
  Mrv1902 05222410212D          

 31 34  0  0  0  0            999 V2000
    7.6442   -8.1267    0.0000 C   0  0  0  0  0  0  0  0  0  0  0  0
    7.6377   -7.3018    0.0000 C   0  0  0  0  0  0  0  0  0  0  0  0
    6.9200   -6.8949    0.0000 C   0  0  0  0  0  0  0  0  0  0  0  0
    6.2088   -7.3130    0.0000 C   0  0  0  0  0  0  0  0  0  0  0  0
    6.2153   -8.1379    0.0000 C   0  0  0  0  0  0  0  0  0  0  0  0
    6.9330   -8.5448    0.0000 C   0  0  0  0  0  0  0  0  0  0  0  0
    5.4911   -6.9061    0.0000 C   0  0  0  0  0  0  0  0  0  0  0  0
    4.7799   -7.3242    0.0000 C   0  0  0  0  0  0  0  0  0  0  0  0
    4.7864   -8.1492    0.0000 C   0  0  0  0  0  0  0  0  0  0  0  0
    5.5041   -8.5560    0.0000 C   0  0  0  0  0  0  0  0  0  0  0  0
    4.0622   -6.9173    0.0000 C   0  0  0  0  0  0  0  0  0  0  0  0
    3.3510   -7.3354    0.0000 C   0  0  0  0  0  0  0  0  0  0  0  0
    3.3575   -8.1604    0.0000 C   0  0  0  0  0  0  0  0  0  0  0  0
    4.0752   -8.5672    0.0000 C   0  0  0  0  0  0  0  0  0  0  0  0
    5.5105   -9.3810    0.0000 O   0  0  0  0  0  0  0  0  0  0  0  0
    5.4847   -6.0811    0.0000 O   0  0  0  0  0  0  0  0  0  0  0  0
    8.3619   -8.5336    0.0000 O   0  0  0  0  0  0  0  0  0  0  0  0
    2.6463   -8.5784    0.0000 C   0  0  0  0  0  0  0  0  0  0  0  0
    6.9136   -6.0699    0.0000 O   0  0  0  0  0  0  0  0  0  0  0  0
    4.0558   -6.0923    0.0000 O   0  0  0  0  0  0  0  0  0  0  0  0
    9.0731   -8.1155    0.0000 C   0  0  2  0  0  0  0  0  0  0  0  0
    9.7908   -8.5224    0.0000 O   0  0  0  0  0  0  0  0  0  0  0  0
   10.5020   -8.1043    0.0000 C   0  0  1  0  0  0  0  0  0  0  0  0
   10.4955   -7.2794    0.0000 C   0  0  2  0  0  0  0  0  0  0  0  0
    9.7778   -6.8725    0.0000 C   0  0  1  0  0  0  0  0  0  0  0  0
    9.0666   -7.2906    0.0000 C   0  0  1  0  0  0  0  0  0  0  0  0
   11.2197   -8.5112    0.0000 C   0  0  0  0  0  0  0  0  0  0  0  0
    9.7714   -6.0475    0.0000 O   0  0  0  0  0  0  0  0  0  0  0  0
    8.3489   -6.8837    0.0000 O   0  0  0  0  0  0  0  0  0  0  0  0
   11.2067   -6.8613    0.0000 O   0  0  0  0  0  0  0  0  0  0  0  0
   11.9309   -8.0931    0.0000 O   0  0  0  0  0  0  0  0  0  0  0  0
  1  2  2  0  0  0  0
  2  3  1  0  0  0  0
  3  4  2  0  0  0  0
  4  5  1  0  0  0  0
  5  6  2  0  0  0  0
  6  1  1  0  0  0  0
  4  7  1  0  0  0  0
  7  8  1  0  0  0  0
  8  9  2  0  0  0  0
  9 10  1  0  0  0  0
 10  5  1  0  0  0  0
  8 11  1  0  0  0  0
 11 12  2  0  0  0  0
 12 13  1  0  0  0  0
 13 14  2  0  0  0  0
 14  9  1  0  0  0  0
 10 15  2  0  0  0  0
  7 16  2  0  0  0  0
  1 17  1  0  0  0  0
 13 18  1  0  0  0  0
  3 19  1  0  0  0  0
 11 20  1  0  0  0  0
 21 17  1  1  0  0  0
 21 22  1  0  0  0  0
 22 23  1  0  0  0  0
 23 24  1  0  0  0  0
 24 25  1  0  0  0  0
 25 26  1  0  0  0  0
 26 21  1  0  0  0  0
 23 27  1  1  0  0  0
 25 28  1  1  0  0  0
 26 29  1  6  0  0  0
 24 30  1  6  0  0  0
 27 31  1  0  0  0  0
M  END
>  <cdx:fragmentId>
5

$$$$
