601630.cdx
  Mrv1902 05222410252D          

 13 13  0  0  0  0            999 V2000
   17.2752  -16.0666    0.0000 C   0  0  0  0  0  0  0  0  0  0  0  0
   16.5608  -16.4791    0.0000 C   0  0  0  0  0  0  0  0  0  0  0  0
   17.2752  -15.2416    0.0000 O   0  0  0  0  0  0  0  0  0  0  0  0
   17.9897  -16.4791    0.0000 N   0  0  0  0  0  0  0  0  0  0  0  0
   15.8463  -16.0666    0.0000 O   0  0  0  0  0  0  0  0  0  0  0  0
   15.1318  -16.4791    0.0000 C   0  0  0  0  0  0  0  0  0  0  0  0
   15.1318  -17.3041    0.0000 C   0  0  0  0  0  0  0  0  0  0  0  0
   14.4173  -17.7166    0.0000 C   0  0  0  0  0  0  0  0  0  0  0  0
   13.7029  -17.3041    0.0000 C   0  0  0  0  0  0  0  0  0  0  0  0
   13.7029  -16.4791    0.0000 C   0  0  0  0  0  0  0  0  0  0  0  0
   14.4173  -16.0666    0.0000 C   0  0  0  0  0  0  0  0  0  0  0  0
   12.9884  -17.7166    0.0000 C   0  0  0  0  0  0  0  0  0  0  0  0
   12.2739  -17.3041    0.0000 O   0  0  0  0  0  0  0  0  0  0  0  0
  1  2  1  0  0  0  0
  1  3  2  0  0  0  0
  1  4  1  0  0  0  0
  6  7  1  0  0  0  0
  7  8  2  0  0  0  0
  8  9  1  0  0  0  0
  9 10  2  0  0  0  0
 10 11  1  0  0  0  0
  6 11  2  0  0  0  0
  5  6  1  0  0  0  0
 12 13  2  0  0  0  0
  9 12  1  0  0  0  0
  2  5  1  0  0  0  0
M  END
>  <cdx:groupId>
7232

>  <cdx:fragmentId>
7206

$$$$
