60169.cdx
  Mrv1902 05222410252D          

 34 37  0  0  0  0            999 V2000
   10.0571  -10.4666    0.0000 C   0  0  0  0  0  0  0  0  0  0  0  0
   10.0569   -9.6416    0.0000 C   0  0  0  0  0  0  0  0  0  0  0  0
    9.3423   -9.2293    0.0000 C   0  0  0  0  0  0  0  0  0  0  0  0
    8.6279   -9.6420    0.0000 C   0  0  0  0  0  0  0  0  0  0  0  0
    8.6282  -10.4670    0.0000 C   0  0  0  0  0  0  0  0  0  0  0  0
    9.3428  -10.8793    0.0000 C   0  0  0  0  0  0  0  0  0  0  0  0
    7.9134   -9.2297    0.0000 C   0  0  0  0  0  0  0  0  0  0  0  0
    7.1990   -9.6424    0.0000 C   0  0  0  0  0  0  0  0  0  0  0  0
    7.1992  -10.4674    0.0000 C   0  0  0  0  0  0  0  0  0  0  0  0
    7.9138  -10.8797    0.0000 C   0  0  0  0  0  0  0  0  0  0  0  0
    6.4844   -9.2301    0.0000 C   0  0  0  0  0  0  0  0  0  0  0  0
    5.7701   -9.6429    0.0000 C   0  0  0  0  0  0  0  0  0  0  0  0
    5.7703  -10.4679    0.0000 C   0  0  0  0  0  0  0  0  0  0  0  0
    6.4849  -10.8801    0.0000 C   0  0  0  0  0  0  0  0  0  0  0  0
   10.7717  -10.8789    0.0000 O   0  0  0  0  0  0  0  0  0  0  0  0
    9.3421   -8.4043    0.0000 O   0  0  0  0  0  0  0  0  0  0  0  0
    7.9141  -11.7047    0.0000 O   0  0  0  0  0  0  0  0  0  0  0  0
    7.9131   -8.4047    0.0000 O   0  0  0  0  0  0  0  0  0  0  0  0
    6.4842   -8.4051    0.0000 O   0  0  0  0  0  0  0  0  0  0  0  0
    5.0560  -10.8806    0.0000 C   0  0  0  0  0  0  0  0  0  0  0  0
    5.7679   -7.9730    0.0000 C   0  0  2  0  0  0  0  0  0  0  0  0
    5.7745   -7.1480    0.0000 O   0  0  0  0  0  0  0  0  0  0  0  0
    5.0634   -6.7297    0.0000 C   0  0  1  0  0  0  0  0  0  0  0  0
    4.3456   -7.1365    0.0000 C   0  0  2  0  0  0  0  0  0  0  0  0
    4.3390   -7.9614    0.0000 C   0  0  1  0  0  0  0  0  0  0  0  0
    5.0501   -8.3797    0.0000 C   0  0  1  0  0  0  0  0  0  0  0  0
    5.0701   -5.9048    0.0000 C   0  0  0  0  0  0  0  0  0  0  0  0
    3.6212   -8.3682    0.0000 O   0  0  0  0  0  0  0  0  0  0  0  0
    5.0435   -9.2047    0.0000 O   0  0  0  0  0  0  0  0  0  0  0  0
    3.6345   -6.7182    0.0000 O   0  0  0  0  0  0  0  0  0  0  0  0
    4.3590   -5.4865    0.0000 O   0  0  0  0  0  0  0  0  0  0  0  0
    4.3676   -4.6616    0.0000 C   0  0  0  0  0  0  0  0  0  0  0  0
    3.6575   -4.2416    0.0000 C   0  0  0  0  0  0  0  0  0  0  0  0
    5.0863   -4.2566    0.0000 O   0  0  0  0  0  0  0  0  0  0  0  0
  1  2  1  0  0  0  0
  2  3  2  0  0  0  0
  3  4  1  0  0  0  0
  4  5  2  0  0  0  0
  5  6  1  0  0  0  0
  6  1  2  0  0  0  0
  4  7  1  0  0  0  0
  7  8  1  0  0  0  0
  8  9  2  0  0  0  0
  9 10  1  0  0  0  0
 10  5  1  0  0  0  0
  8 11  1  0  0  0  0
 11 12  2  0  0  0  0
 12 13  1  0  0  0  0
 13 14  2  0  0  0  0
 14  9  1  0  0  0  0
  1 15  1  0  0  0  0
  3 16  1  0  0  0  0
 10 17  2  0  0  0  0
  7 18  2  0  0  0  0
 11 19  1  0  0  0  0
 13 20  1  0  0  0  0
 21 22  1  0  0  0  0
 22 23  1  0  0  0  0
 23 24  1  0  0  0  0
 24 25  1  0  0  0  0
 25 26  1  0  0  0  0
 26 21  1  0  0  0  0
 23 27  1  1  0  0  0
 25 28  1  1  0  0  0
 26 29  1  6  0  0  0
 24 30  1  6  0  0  0
 27 31  1  0  0  0  0
 21 19  1  1  0  0  0
 31 32  1  0  0  0  0
 32 33  1  0  0  0  0
 32 34  2  0  0  0  0
M  END
>  <cdx:fragmentId>
5

$$$$
