60165.cdx
  Mrv1902 05222410202D          

 31 34  0  0  0  0            999 V2000
    5.6457   -7.4828    0.0000 O   0  0  0  0  0  0  0  0  0  0  0  0
    9.9368   -9.9504    0.0000 O   0  0  0  0  0  0  0  0  0  0  0  0
    8.5036   -7.4779    0.0000 O   0  0  0  0  0  0  0  0  0  0  0  0
    7.0747   -7.4804    0.0000 O   0  0  0  0  0  0  0  0  0  0  0  0
    7.0804  -10.7803    0.0000 O   0  0  0  0  0  0  0  0  0  0  0  0
    4.2211   -9.9603    0.0000 C   0  0  0  0  0  0  0  0  0  0  0  0
    8.5079   -9.9529    0.0000 C   0  0  0  0  0  0  0  0  0  0  0  0
    9.2216   -9.5391    0.0000 C   0  0  0  0  0  0  0  0  0  0  0  0
    9.2202   -8.7141    0.0000 C   0  0  0  0  0  0  0  0  0  0  0  0
    8.5050   -8.3029    0.0000 C   0  0  0  0  0  0  0  0  0  0  0  0
    7.0790   -9.9553    0.0000 C   0  0  0  0  0  0  0  0  0  0  0  0
    7.7927   -9.5416    0.0000 C   0  0  0  0  0  0  0  0  0  0  0  0
    7.7913   -8.7166    0.0000 C   0  0  0  0  0  0  0  0  0  0  0  0
    7.0761   -8.3054    0.0000 C   0  0  0  0  0  0  0  0  0  0  0  0
    5.6500   -9.9578    0.0000 C   0  0  0  0  0  0  0  0  0  0  0  0
    6.3638   -9.5441    0.0000 C   0  0  0  0  0  0  0  0  0  0  0  0
    6.3623   -8.7191    0.0000 C   0  0  0  0  0  0  0  0  0  0  0  0
    5.6472   -8.3078    0.0000 C   0  0  0  0  0  0  0  0  0  0  0  0
    4.9334   -8.7216    0.0000 C   0  0  0  0  0  0  0  0  0  0  0  0
    4.9348   -9.5466    0.0000 C   0  0  0  0  0  0  0  0  0  0  0  0
    9.2174   -7.0641    0.0000 C   0  0  2  0  0  0  0  0  0  0  0  0
    9.9333   -7.4742    0.0000 O   0  0  0  0  0  0  0  0  0  0  0  0
   10.6463   -7.0641    0.0000 C   0  0  1  0  0  0  0  0  0  0  0  0
   10.6463   -6.2391    0.0000 C   0  0  2  0  0  0  0  0  0  0  0  0
    9.9333   -5.8291    0.0000 C   0  0  1  0  0  0  0  0  0  0  0  0
    9.2174   -6.2391    0.0000 C   0  0  1  0  0  0  0  0  0  0  0  0
   11.3604   -7.4773    0.0000 C   0  0  0  0  0  0  0  0  0  0  0  0
    9.9340   -5.0041    0.0000 O   0  0  0  0  0  0  0  0  0  0  0  0
   11.3604   -5.8260    0.0000 O   0  0  0  0  0  0  0  0  0  0  0  0
    8.5036   -5.8254    0.0000 O   0  0  0  0  0  0  0  0  0  0  0  0
   12.0752   -7.0654    0.0000 O   0  0  0  0  0  0  0  0  0  0  0  0
  8  2  1  0  0  0  0
 10  3  1  0  0  0  0
 14  4  2  0  0  0  0
 11  5  2  0  0  0  0
 18  1  1  0  0  0  0
 20  6  1  0  0  0  0
  7 12  1  0  0  0  0
  8  7  2  0  0  0  0
  9  8  1  0  0  0  0
 10  9  2  0  0  0  0
 13 10  1  0  0  0  0
 11 16  1  0  0  0  0
 12 11  1  0  0  0  0
 13 12  2  0  0  0  0
 14 13  1  0  0  0  0
 17 14  1  0  0  0  0
 15 20  2  0  0  0  0
 16 15  1  0  0  0  0
 17 16  2  0  0  0  0
 18 17  1  0  0  0  0
 19 18  2  0  0  0  0
 20 19  1  0  0  0  0
 21  3  1  1  0  0  0
 21 22  1  0  0  0  0
 22 23  1  0  0  0  0
 23 24  1  0  0  0  0
 24 25  1  0  0  0  0
 25 26  1  0  0  0  0
 26 21  1  0  0  0  0
 23 27  1  1  0  0  0
 25 28  1  1  0  0  0
 24 29  1  6  0  0  0
 26 30  1  6  0  0  0
 27 31  1  0  0  0  0
M  END
>  <cdx:fragmentId>
5

$$$$
