60161.cdx
  Mrv1902 05222410232D          

 21 23  0  0  0  0            999 V2000
    3.6556  -10.2289    0.0000 C   0  0  0  0  0  0  0  0  0  0  0  0
    3.6556  -11.0539    0.0000 C   0  0  0  0  0  0  0  0  0  0  0  0
    4.3700  -11.4664    0.0000 C   0  0  0  0  0  0  0  0  0  0  0  0
    5.0845  -11.0539    0.0000 C   0  0  0  0  0  0  0  0  0  0  0  0
    5.0845  -10.2289    0.0000 C   0  0  0  0  0  0  0  0  0  0  0  0
    4.3700   -9.8164    0.0000 C   0  0  0  0  0  0  0  0  0  0  0  0
    5.7990  -11.4664    0.0000 C   0  0  0  0  0  0  0  0  0  0  0  0
    6.5134  -11.0539    0.0000 C   0  0  0  0  0  0  0  0  0  0  0  0
    6.5134  -10.2289    0.0000 C   0  0  0  0  0  0  0  0  0  0  0  0
    5.7990   -9.8164    0.0000 O   0  0  0  0  0  0  0  0  0  0  0  0
    7.9424  -10.2289    0.0000 C   0  0  0  0  0  0  0  0  0  0  0  0
    7.2279   -9.8164    0.0000 C   0  0  0  0  0  0  0  0  0  0  0  0
    8.6569   -9.8164    0.0000 C   0  0  0  0  0  0  0  0  0  0  0  0
    8.6569   -8.9914    0.0000 C   0  0  0  0  0  0  0  0  0  0  0  0
    7.9424   -8.5789    0.0000 C   0  0  0  0  0  0  0  0  0  0  0  0
    7.2279   -8.9914    0.0000 C   0  0  0  0  0  0  0  0  0  0  0  0
    5.7990  -12.2914    0.0000 O   0  0  0  0  0  0  0  0  0  0  0  0
    2.9411   -9.8164    0.0000 O   0  0  0  0  0  0  0  0  0  0  0  0
    9.3713   -8.5789    0.0000 O   0  0  0  0  0  0  0  0  0  0  0  0
    4.3700  -12.2914    0.0000 O   0  0  0  0  0  0  0  0  0  0  0  0
    3.6556  -12.7039    0.0000 C   0  0  0  0  0  0  0  0  0  0  0  0
  1  2  2  0  0  0  0
  2  3  1  0  0  0  0
  3  4  2  0  0  0  0
  4  5  1  0  0  0  0
  5  6  2  0  0  0  0
  6  1  1  0  0  0  0
  4  7  1  0  0  0  0
  7  8  1  0  0  0  0
  8  9  1  0  0  0  0
  9 10  1  0  0  0  0
 10  5  1  0  0  0  0
 11 12  2  0  0  0  0
 12  9  1  0  0  0  0
 11 13  1  0  0  0  0
 13 14  2  0  0  0  0
 14 15  1  0  0  0  0
 15 16  2  0  0  0  0
 16 12  1  0  0  0  0
  7 17  2  0  0  0  0
  1 18  1  0  0  0  0
 14 19  1  0  0  0  0
  3 20  1  0  0  0  0
 20 21  1  0  0  0  0
M  END
>  <cdx:fragmentId>
5

$$$$
