60164.cdx
  Mrv1902 05222410212D          

 23 25  0  0  0  0            999 V2000
    3.8756   -6.5851    0.0000 C   0  0  0  0  0  0  0  0  0  0  0  0
    3.8756   -7.4101    0.0000 C   0  0  0  0  0  0  0  0  0  0  0  0
    4.5900   -7.8226    0.0000 C   0  0  0  0  0  0  0  0  0  0  0  0
    5.3045   -7.4101    0.0000 C   0  0  0  0  0  0  0  0  0  0  0  0
    5.3045   -6.5851    0.0000 C   0  0  0  0  0  0  0  0  0  0  0  0
    4.5900   -6.1726    0.0000 C   0  0  0  0  0  0  0  0  0  0  0  0
    6.0190   -7.8226    0.0000 C   0  0  0  0  0  0  0  0  0  0  0  0
    6.7334   -7.4101    0.0000 C   0  0  0  0  0  0  0  0  0  0  0  0
    6.7334   -6.5851    0.0000 C   0  0  0  0  0  0  0  0  0  0  0  0
    6.0190   -6.1726    0.0000 O   0  0  0  0  0  0  0  0  0  0  0  0
    7.4479   -7.8226    0.0000 C   0  0  0  0  0  0  0  0  0  0  0  0
    8.1624   -7.4101    0.0000 C   0  0  0  0  0  0  0  0  0  0  0  0
    7.4479   -8.6476    0.0000 C   0  0  0  0  0  0  0  0  0  0  0  0
    8.1624   -9.0601    0.0000 C   0  0  0  0  0  0  0  0  0  0  0  0
    8.8769   -8.6476    0.0000 C   0  0  0  0  0  0  0  0  0  0  0  0
    8.8769   -7.8226    0.0000 C   0  0  0  0  0  0  0  0  0  0  0  0
    6.0190   -8.6476    0.0000 O   0  0  0  0  0  0  0  0  0  0  0  0
    9.5913   -7.4101    0.0000 O   0  0  0  0  0  0  0  0  0  0  0  0
    4.5900   -5.3476    0.0000 O   0  0  0  0  0  0  0  0  0  0  0  0
    3.1611   -6.1726    0.0000 O   0  0  0  0  0  0  0  0  0  0  0  0
    2.4466   -6.5851    0.0000 C   0  0  0  0  0  0  0  0  0  0  0  0
    9.5913   -9.0601    0.0000 O   0  0  0  0  0  0  0  0  0  0  0  0
    9.5913   -9.8851    0.0000 C   0  0  0  0  0  0  0  0  0  0  0  0
  1  2  2  0  0  0  0
  2  3  1  0  0  0  0
  3  4  2  0  0  0  0
  4  5  1  0  0  0  0
  5  6  2  0  0  0  0
  6  1  1  0  0  0  0
  4  7  1  0  0  0  0
  7  8  1  0  0  0  0
  8  9  2  0  0  0  0
  9 10  1  0  0  0  0
 10  5  1  0  0  0  0
  8 11  1  0  0  0  0
 11 12  1  0  0  0  0
 11 13  2  0  0  0  0
 13 14  1  0  0  0  0
 14 15  2  0  0  0  0
 15 16  1  0  0  0  0
 16 12  2  0  0  0  0
  7 17  2  0  0  0  0
 16 18  1  0  0  0  0
  6 19  1  0  0  0  0
  1 20  1  0  0  0  0
 20 21  1  0  0  0  0
 15 22  1  0  0  0  0
 22 23  1  0  0  0  0
M  END
>  <cdx:fragmentId>
5

$$$$
