60162.cdx
  Mrv1902 05222410222D          

 18 20  0  0  0  0            999 V2000
   10.5742   -6.8259    0.0000 O   0  0  0  0  0  0  0  0  0  0  0  0
    4.1380   -8.0322    0.0000 O   0  0  0  0  0  0  0  0  0  0  0  0
    9.8537   -8.0599    0.0000 C   0  0  0  0  0  0  0  0  0  0  0  0
    9.8577   -7.2350    0.0000 C   0  0  0  0  0  0  0  0  0  0  0  0
    9.1453   -6.8190    0.0000 C   0  0  0  0  0  0  0  0  0  0  0  0
    8.4288   -7.2280    0.0000 C   0  0  0  0  0  0  0  0  0  0  0  0
    9.1373   -8.4690    0.0000 C   0  0  0  0  0  0  0  0  0  0  0  0
    8.4248   -8.0530    0.0000 C   0  0  0  0  0  0  0  0  0  0  0  0
    6.9879   -9.6960    0.0000 C   0  0  0  0  0  0  0  0  0  0  0  0
    7.7043   -9.2870    0.0000 C   0  0  0  0  0  0  0  0  0  0  0  0
    7.7083   -8.4620    0.0000 C   0  0  0  0  0  0  0  0  0  0  0  0
    6.9959   -8.0461    0.0000 O   0  3  0  0  0  0  0  0  0  0  0  0
    5.5589   -9.6891    0.0000 C   0  0  0  0  0  0  0  0  0  0  0  0
    6.2754   -9.2801    0.0000 C   0  0  0  0  0  0  0  0  0  0  0  0
    6.2794   -8.4551    0.0000 C   0  0  0  0  0  0  0  0  0  0  0  0
    5.5669   -8.0391    0.0000 C   0  0  0  0  0  0  0  0  0  0  0  0
    4.8505   -8.4482    0.0000 C   0  0  0  0  0  0  0  0  0  0  0  0
    4.8465   -9.2731    0.0000 C   0  0  0  0  0  0  0  0  0  0  0  0
  4  1  1  0  0  0  0
 17  2  1  0  0  0  0
  3  7  2  0  0  0  0
  4  3  1  0  0  0  0
  5  4  2  0  0  0  0
  6  5  1  0  0  0  0
  8  6  2  0  0  0  0
  8  7  1  0  0  0  0
 11  8  1  0  0  0  0
  9 14  1  0  0  0  0
 10  9  2  0  0  0  0
 11 10  1  0  0  0  0
 12 11  2  0  0  0  0
 15 12  1  0  0  0  0
 13 18  1  0  0  0  0
 14 13  2  0  0  0  0
 15 14  1  0  0  0  0
 16 15  2  0  0  0  0
 17 16  1  0  0  0  0
 18 17  2  0  0  0  0
M  CHG  1  12   1
M  END
>  <cdx:fragmentId>
5

$$$$
