60176.cdx
  Mrv1902 05222410222D          

 20 22  0  0  0  0            999 V2000
    3.8343   -8.6889    0.0000 C   0  0  0  0  0  0  0  0  0  0  0  0
    4.5488   -9.9264    0.0000 O   0  0  0  0  0  0  0  0  0  0  0  0
    5.2632   -9.5139    0.0000 C   0  0  0  0  0  0  0  0  0  0  0  0
    5.2632   -8.6889    0.0000 C   0  0  0  0  0  0  0  0  0  0  0  0
    4.5488   -8.2764    0.0000 O   0  0  0  0  0  0  0  0  0  0  0  0
    5.9777   -9.9264    0.0000 C   0  0  0  0  0  0  0  0  0  0  0  0
    6.6922   -9.5139    0.0000 C   0  0  0  0  0  0  0  0  0  0  0  0
    6.6922   -8.6889    0.0000 C   0  0  0  0  0  0  0  0  0  0  0  0
    5.9777   -8.2764    0.0000 C   0  0  0  0  0  0  0  0  0  0  0  0
    7.4067   -9.9264    0.0000 C   0  0  0  0  0  0  0  0  0  0  0  0
    8.1211   -9.5139    0.0000 C   0  0  0  0  0  0  0  0  0  0  0  0
    8.1211   -8.6889    0.0000 C   0  0  0  0  0  0  0  0  0  0  0  0
    7.4067   -8.2764    0.0000 C   0  0  0  0  0  0  0  0  0  0  0  0
    8.8356   -8.2764    0.0000 C   0  0  0  0  0  0  0  0  0  0  0  0
    8.8356   -7.4514    0.0000 C   0  0  0  0  0  0  0  0  0  0  0  0
    8.1211   -7.0389    0.0000 C   0  0  0  0  0  0  0  0  0  0  0  0
    7.4067   -7.4514    0.0000 C   0  0  0  0  0  0  0  0  0  0  0  0
    5.9777   -7.4514    0.0000 O   0  0  0  0  0  0  0  0  0  0  0  0
    4.5488  -10.7514    0.0000 C   0  0  0  0  0  0  0  0  0  0  0  0
    9.5501   -7.0389    0.0000 O   0  0  0  0  0  0  0  0  0  0  0  0
  2  3  1  0  0  0  0
  3  4  2  0  0  0  0
  4  5  1  0  0  0  0
  5  1  1  0  0  0  0
  3  6  1  0  0  0  0
  6  7  2  0  0  0  0
  7  8  1  0  0  0  0
  8  9  2  0  0  0  0
  9  4  1  0  0  0  0
  7 10  1  0  0  0  0
 10 11  1  0  0  0  0
 11 12  1  0  0  0  0
 12 13  2  0  0  0  0
 13  8  1  0  0  0  0
 12 14  1  0  0  0  0
 14 15  2  0  0  0  0
 15 16  1  0  0  0  0
 16 17  2  0  0  0  0
 17 13  1  0  0  0  0
  9 18  1  0  0  0  0
  2 19  1  0  0  0  0
 15 20  1  0  0  0  0
M  END
>  <cdx:fragmentId>
5

$$$$
