601765.cdx
  Mrv1902 05222410222D          

 14 14  0  0  0  0            999 V2000
    7.4701   -6.4568    0.0000 C   0  0  0  0  0  0  0  0  0  0  0  0
    8.1826   -6.8726    0.0000 C   0  0  0  0  0  0  0  0  0  0  0  0
    8.1788   -7.6976    0.0000 C   0  0  0  0  0  0  0  0  0  0  0  0
    7.4624   -8.1068    0.0000 C   0  0  0  0  0  0  0  0  0  0  0  0
    6.7499   -7.6910    0.0000 C   0  0  0  0  0  0  0  0  0  0  0  0
    6.7537   -6.8660    0.0000 C   0  0  0  0  0  0  0  0  0  0  0  0
    6.0411   -6.4502    0.0000 C   0  0  0  0  0  0  0  0  0  0  0  0
    6.0335   -8.1002    0.0000 C   0  0  0  0  0  0  0  0  0  0  0  0
    8.8914   -8.1134    0.0000 C   0  0  0  0  0  0  0  0  0  0  0  0
    8.8990   -6.4634    0.0000 C   0  0  0  0  0  0  0  0  0  0  0  0
    7.4586   -8.9318    0.0000 O   0  0  0  0  0  0  0  0  0  0  0  0
    8.1712   -9.3476    0.0000 C   0  0  0  0  0  0  0  0  0  0  0  0
    7.4739   -5.6318    0.0000 O   0  0  0  0  0  0  0  0  0  0  0  0
    6.7613   -5.2160    0.0000 C   0  0  0  0  0  0  0  0  0  0  0  0
  1  2  1  0  0  0  0
  2  3  2  0  0  0  0
  3  4  1  0  0  0  0
  4  5  2  0  0  0  0
  5  6  1  0  0  0  0
  1  6  2  0  0  0  0
  6  7  1  0  0  0  0
  5  8  1  0  0  0  0
  3  9  1  0  0  0  0
  2 10  1  0  0  0  0
 11 12  1  0  0  0  0
  4 11  1  0  0  0  0
 13 14  1  0  0  0  0
  1 13  1  0  0  0  0
M  END
>  <cdx:fragmentId>
7239

$$$$
