60173.cdx
  Mrv1902 05222410212D          

 32 33  0  0  0  0            999 V2000
   10.4039   -8.1149    0.0000 C   0  0  0  0  0  0  0  0  0  0  0  0
   11.1184   -8.5274    0.0000 C   0  0  0  0  0  0  0  0  0  0  0  0
   11.8329   -8.1149    0.0000 C   0  0  0  0  0  0  0  0  0  0  0  0
   10.4039   -7.2899    0.0000 O   0  0  0  0  0  0  0  0  0  0  0  0
    9.6895   -8.5274    0.0000 N   0  0  0  0  0  0  0  0  0  0  0  0
   12.5474   -8.5274    0.0000 S   0  0  0  0  0  0  0  0  0  0  0  0
   13.2618   -8.1149    0.0000 C   0  0  0  0  0  0  0  0  0  0  0  0
    8.9750   -8.1149    0.0000 C   0  0  0  0  0  0  0  0  0  0  0  0
    8.2605   -8.5274    0.0000 C   0  0  0  0  0  0  0  0  0  0  0  0
    7.5461   -8.1149    0.0000 O   0  0  0  0  0  0  0  0  0  0  0  0
    6.1249   -8.1073    0.0000 O   0  0  0  0  0  0  0  0  0  0  0  0
    6.8368   -8.5242    0.0000 C   0  0  2  0  0  0  0  0  0  0  0  0
    6.8316   -9.3492    0.0000 C   0  0  1  0  0  0  0  0  0  0  0  0
    6.1146   -9.7572    0.0000 C   0  0  2  0  0  0  0  0  0  0  0  0
    5.4027   -9.3403    0.0000 C   0  0  1  0  0  0  0  0  0  0  0  0
    5.4079   -8.5153    0.0000 C   0  0  1  0  0  0  0  0  0  0  0  0
    4.6960   -8.0983    0.0000 C   0  0  0  0  0  0  0  0  0  0  0  0
    3.9790   -8.5063    0.0000 O   0  0  0  0  0  0  0  0  0  0  0  0
    4.6857   -9.7483    0.0000 O   0  0  0  0  0  0  0  0  0  0  0  0
    6.1094  -10.5822    0.0000 O   0  0  0  0  0  0  0  0  0  0  0  0
    7.5435   -9.7662    0.0000 O   0  0  0  0  0  0  0  0  0  0  0  0
    3.2671   -7.2618    0.0000 O   0  0  0  0  0  0  0  0  0  0  0  0
    3.2628   -8.0868    0.0000 C   0  0  2  0  0  0  0  0  0  0  0  0
    2.5461   -8.4955    0.0000 C   0  0  1  0  0  0  0  0  0  0  0  0
    1.8338   -8.0792    0.0000 C   0  0  2  0  0  0  0  0  0  0  0  0
    1.8382   -7.2542    0.0000 C   0  0  1  0  0  0  0  0  0  0  0  0
    2.5549   -6.8455    0.0000 C   0  0  1  0  0  0  0  0  0  0  0  0
    2.5593   -6.0205    0.0000 C   0  0  0  0  0  0  0  0  0  0  0  0
    1.8470   -5.6042    0.0000 O   0  0  0  0  0  0  0  0  0  0  0  0
    1.1260   -6.8379    0.0000 O   0  0  0  0  0  0  0  0  0  0  0  0
    1.1172   -8.4879    0.0000 O   0  0  0  0  0  0  0  0  0  0  0  0
    2.5417   -9.3205    0.0000 O   0  0  0  0  0  0  0  0  0  0  0  0
  1  2  1  0  0  0  0
  2  3  2  0  0  0  0
  1  4  2  0  0  0  0
  1  5  1  0  0  0  0
  6  7  1  0  0  0  0
  3  6  1  0  0  0  0
  8  9  1  0  0  0  0
  9 10  1  0  0  0  0
  5  8  1  0  0  0  0
 11 12  1  0  0  0  0
 12 13  1  0  0  0  0
 13 14  1  0  0  0  0
 14 15  1  0  0  0  0
 15 16  1  0  0  0  0
 11 16  1  0  0  0  0
 17 18  1  0  0  0  0
 16 17  1  1  0  0  0
 15 19  1  6  0  0  0
 14 20  1  1  0  0  0
 13 21  1  6  0  0  0
 12 10  1  1  0  0  0
 22 23  1  0  0  0  0
 23 24  1  0  0  0  0
 24 25  1  0  0  0  0
 25 26  1  0  0  0  0
 26 27  1  0  0  0  0
 22 27  1  0  0  0  0
 28 29  1  0  0  0  0
 27 28  1  1  0  0  0
 26 30  1  6  0  0  0
 25 31  1  1  0  0  0
 24 32  1  6  0  0  0
 23 18  1  1  0  0  0
M  END
>  <cdx:fragmentId>
21

$$$$
