60171.cdx
  Mrv1902 05222410202D          

 27 30  0  0  0  0            999 V2000
    4.2056  -10.5726    0.0000 C   0  0  0  0  0  0  0  0  0  0  0  0
    4.2056  -11.3976    0.0000 C   0  0  0  0  0  0  0  0  0  0  0  0
    4.9200  -11.8101    0.0000 C   0  0  0  0  0  0  0  0  0  0  0  0
    5.6345  -11.3976    0.0000 C   0  0  0  0  0  0  0  0  0  0  0  0
    5.6345  -10.5726    0.0000 C   0  0  0  0  0  0  0  0  0  0  0  0
    4.9200  -10.1601    0.0000 C   0  0  0  0  0  0  0  0  0  0  0  0
    6.3490  -11.8101    0.0000 C   0  0  0  0  0  0  0  0  0  0  0  0
    7.0634  -11.3976    0.0000 C   0  0  0  0  0  0  0  0  0  0  0  0
    7.0634  -10.5726    0.0000 C   0  0  0  0  0  0  0  0  0  0  0  0
    6.3490  -10.1601    0.0000 C   0  0  0  0  0  0  0  0  0  0  0  0
    7.7779  -10.1601    0.0000 C   0  0  0  0  0  0  0  0  0  0  0  0
    7.7779   -9.3351    0.0000 C   0  0  0  0  0  0  0  0  0  0  0  0
    7.0634   -8.9226    0.0000 C   0  0  0  0  0  0  0  0  0  0  0  0
    6.3490   -9.3351    0.0000 C   0  0  0  0  0  0  0  0  0  0  0  0
    7.7779  -10.9851    0.0000 C   0  0  0  0  0  0  0  0  0  0  0  0
    8.4924   -9.7476    0.0000 C   0  0  0  0  0  0  0  0  0  0  0  0
    9.0757   -9.1643    0.0000 C   0  0  0  0  0  0  0  0  0  0  0  0
    9.9007   -9.1643    0.0000 O   0  0  0  0  0  0  0  0  0  0  0  0
    6.3490  -10.9851    0.0000 H   0  0  0  0  0  0  0  0  0  0  0  0
    5.6345  -12.2226    0.0000 H   0  0  0  0  0  0  0  0  0  0  0  0
    4.5075  -12.5246    0.0000 C   0  0  0  0  0  0  0  0  0  0  0  0
    3.6825  -12.5246    0.0000 O   0  0  0  0  0  0  0  0  0  0  0  0
    5.3325  -12.5246    0.0000 C   0  0  0  0  0  0  0  0  0  0  0  0
    6.1575  -12.5246    0.0000 O   0  0  0  0  0  0  0  0  0  0  0  0
    4.9200  -13.2391    0.0000 O   0  0  0  0  0  0  0  0  0  0  0  0
    5.6345   -9.7476    0.0000 C   0  0  0  0  0  0  0  0  0  0  0  0
    9.0757  -10.3310    0.0000 H   0  0  0  0  0  0  0  0  0  0  0  0
  1  2  1  0  0  0  0
  2  3  1  0  0  0  0
  3  4  1  0  0  0  0
  4  5  1  0  0  0  0
  5  6  1  0  0  0  0
  6  1  1  0  0  0  0
  4  7  1  0  0  0  0
  7  8  1  0  0  0  0
  8  9  1  0  0  0  0
  9 10  1  0  0  0  0
 10  5  1  0  0  0  0
  9 11  1  0  0  0  0
 11 12  1  0  0  0  0
 12 13  1  0  0  0  0
 13 14  1  0  0  0  0
 14 10  1  0  0  0  0
  9 15  1  0  0  0  0
 12 16  1  0  0  0  0
 15 16  1  0  0  0  0
 16 17  1  0  0  0  0
 17 18  1  0  0  0  0
 10 19  1  0  0  0  0
  4 20  1  0  0  0  0
  3 21  1  0  0  0  0
 21 22  1  0  0  0  0
  3 23  1  0  0  0  0
  5 26  1  0  0  0  0
 16 27  1  0  0  0  0
 23 24  2  0  0  0  0
 23 25  1  0  0  0  0
M  STY  1   1 SUP
M  SAL   1  3  23  24  25
M  SBL   1  1  26
M  SMT   1 COOH
M  SAP   1  1  23   3  1
M  END
>  <cdx:fragmentId>
5

$$$$
