60172.cdx
  Mrv1902 05222410212D          

 21 21  0  0  0  0            999 V2000
    8.8364   -7.8949    0.0000 C   0  0  0  0  0  0  0  0  0  0  0  0
    9.5509   -8.3074    0.0000 C   0  0  0  0  0  0  0  0  0  0  0  0
   10.2654   -7.8949    0.0000 C   0  0  0  0  0  0  0  0  0  0  0  0
    8.8364   -7.0699    0.0000 O   0  0  0  0  0  0  0  0  0  0  0  0
    8.1220   -8.3074    0.0000 N   0  0  0  0  0  0  0  0  0  0  0  0
   10.9799   -8.3074    0.0000 S   0  0  0  0  0  0  0  0  0  0  0  0
   11.6943   -7.8949    0.0000 C   0  0  0  0  0  0  0  0  0  0  0  0
    7.4075   -7.8949    0.0000 C   0  0  0  0  0  0  0  0  0  0  0  0
    6.6930   -8.3074    0.0000 C   0  0  0  0  0  0  0  0  0  0  0  0
    5.9786   -7.8949    0.0000 O   0  0  0  0  0  0  0  0  0  0  0  0
    4.5574   -7.8873    0.0000 O   0  0  0  0  0  0  0  0  0  0  0  0
    5.2693   -8.3042    0.0000 C   0  0  2  0  0  0  0  0  0  0  0  0
    5.2641   -9.1292    0.0000 C   0  0  1  0  0  0  0  0  0  0  0  0
    4.5471   -9.5372    0.0000 C   0  0  2  0  0  0  0  0  0  0  0  0
    3.8352   -9.1203    0.0000 C   0  0  1  0  0  0  0  0  0  0  0  0
    3.8404   -8.2953    0.0000 C   0  0  1  0  0  0  0  0  0  0  0  0
    3.1285   -7.8783    0.0000 C   0  0  0  0  0  0  0  0  0  0  0  0
    2.4115   -8.2863    0.0000 O   0  0  0  0  0  0  0  0  0  0  0  0
    3.1182   -9.5283    0.0000 O   0  0  0  0  0  0  0  0  0  0  0  0
    4.5419  -10.3622    0.0000 O   0  0  0  0  0  0  0  0  0  0  0  0
    5.9760   -9.5462    0.0000 O   0  0  0  0  0  0  0  0  0  0  0  0
  1  2  1  0  0  0  0
  2  3  2  0  0  0  0
  1  4  2  0  0  0  0
  1  5  1  0  0  0  0
  6  7  1  0  0  0  0
  3  6  1  0  0  0  0
  8  9  1  0  0  0  0
  9 10  1  0  0  0  0
  5  8  1  0  0  0  0
 11 12  1  0  0  0  0
 12 13  1  0  0  0  0
 13 14  1  0  0  0  0
 14 15  1  0  0  0  0
 15 16  1  0  0  0  0
 11 16  1  0  0  0  0
 17 18  1  0  0  0  0
 16 17  1  1  0  0  0
 15 19  1  6  0  0  0
 14 20  1  1  0  0  0
 13 21  1  6  0  0  0
 12 10  1  1  0  0  0
M  END
>  <cdx:fragmentId>
21

$$$$
