60185.cdx
  Mrv1902 05222410242D          

 47 51  0  0  0  0            999 V2000
    1.1256  -11.2601    0.0000 C   0  0  0  0  0  0  0  0  0  0  0  0
    1.1256  -12.0851    0.0000 C   0  0  0  0  0  0  0  0  0  0  0  0
    1.8400  -12.4976    0.0000 C   0  0  0  0  0  0  0  0  0  0  0  0
    2.5545  -12.0851    0.0000 C   0  0  0  0  0  0  0  0  0  0  0  0
    2.5545  -11.2601    0.0000 C   0  0  2  0  0  0  0  0  0  0  0  0
    1.8400  -10.8476    0.0000 C   0  0  0  0  0  0  0  0  0  0  0  0
    3.2690  -12.4976    0.0000 C   0  0  0  0  0  0  0  0  0  0  0  0
    3.9834  -12.0851    0.0000 C   0  0  0  0  0  0  0  0  0  0  0  0
    3.9834  -11.2601    0.0000 C   0  0  2  0  0  0  0  0  0  0  0  0
    3.2690  -10.8476    0.0000 C   0  0  2  0  0  0  0  0  0  0  0  0
    4.6979  -10.8476    0.0000 C   0  0  1  0  0  0  0  0  0  0  0  0
    4.6979  -10.0226    0.0000 C   0  0  2  0  0  0  0  0  0  0  0  0
    3.9834   -9.6101    0.0000 C   0  0  0  0  0  0  0  0  0  0  0  0
    3.2690  -10.0226    0.0000 C   0  0  0  0  0  0  0  0  0  0  0  0
    5.4825  -11.1026    0.0000 C   0  0  0  0  0  0  0  0  0  0  0  0
    5.9675  -10.4351    0.0000 C   0  0  0  0  0  0  0  0  0  0  0  0
    5.4825   -9.7677    0.0000 C   0  0  2  0  0  0  0  0  0  0  0  0
    5.7375   -8.9831    0.0000 C   0  0  1  0  0  0  0  0  0  0  0  0
    6.5344   -8.7696    0.0000 C   0  0  0  0  0  0  0  0  0  0  0  0
    6.7479   -7.9727    0.0000 C   0  0  0  0  0  0  0  0  0  0  0  0
    7.5448   -7.7591    0.0000 C   0  0  1  0  0  0  0  0  0  0  0  0
    7.7583   -6.9623    0.0000 C   0  0  0  0  0  0  0  0  0  0  0  0
    8.5552   -6.7487    0.0000 C   0  0  0  0  0  0  0  0  0  0  0  0
    8.1281   -8.3425    0.0000 C   0  0  0  0  0  0  0  0  0  0  0  0
    7.9146   -9.1394    0.0000 C   0  0  0  0  0  0  0  0  0  0  0  0
    8.9250   -8.1290    0.0000 C   0  0  0  0  0  0  0  0  0  0  0  0
    8.7687   -5.9518    0.0000 C   0  0  0  0  0  0  0  0  0  0  0  0
    9.1386   -7.3321    0.0000 O   0  0  0  0  0  0  0  0  0  0  0  0
    8.1853   -5.3685    0.0000 O   0  0  0  0  0  0  0  0  0  0  0  0
    9.5656   -5.7383    0.0000 C   0  0  0  0  0  0  0  0  0  0  0  0
    9.7791   -4.9414    0.0000 C   0  0  0  0  0  0  0  0  0  0  0  0
   10.5760   -4.7279    0.0000 C   0  0  0  0  0  0  0  0  0  0  0  0
   11.1594   -5.3113    0.0000 C   0  0  0  0  0  0  0  0  0  0  0  0
   11.9563   -5.0977    0.0000 C   0  0  0  0  0  0  0  0  0  0  0  0
   12.1698   -4.3009    0.0000 C   0  0  0  0  0  0  0  0  0  0  0  0
   11.5864   -3.7175    0.0000 C   0  0  0  0  0  0  0  0  0  0  0  0
   10.7895   -3.9310    0.0000 C   0  0  0  0  0  0  0  0  0  0  0  0
   12.9667   -4.0873    0.0000 O   0  0  0  0  0  0  0  0  0  0  0  0
   12.5396   -5.6811    0.0000 O   0  0  0  0  0  0  0  0  0  0  0  0
   13.3365   -5.4676    0.0000 C   0  0  0  0  0  0  0  0  0  0  0  0
    2.5545  -10.4351    0.0000 C   0  0  0  0  0  0  0  0  0  0  0  0
    3.9834  -10.4351    0.0000 H   0  0  0  0  0  0  0  0  0  0  0  0
    4.6979   -9.1976    0.0000 C   0  0  0  0  0  0  0  0  0  0  0  0
    3.2690  -11.6726    0.0000 H   0  0  0  0  0  0  0  0  0  0  0  0
    4.6979  -11.6726    0.0000 H   0  0  0  0  0  0  0  0  0  0  0  0
    6.2794   -9.5542    0.0000 H   0  0  0  0  0  0  0  0  0  0  0  0
    5.1696   -8.3847    0.0000 C   0  0  0  0  0  0  0  0  0  0  0  0
  1  2  1  0  0  0  0
  2  3  1  0  0  0  0
  3  4  1  0  0  0  0
  4  5  1  0  0  0  0
  5  6  1  0  0  0  0
  6  1  1  0  0  0  0
  4  7  1  0  0  0  0
  7  8  1  0  0  0  0
  8  9  1  0  0  0  0
  9 10  1  0  0  0  0
 10  5  1  0  0  0  0
  9 11  1  0  0  0  0
 11 12  1  0  0  0  0
 12 13  1  0  0  0  0
 13 14  1  0  0  0  0
 14 10  1  0  0  0  0
 11 15  1  0  0  0  0
 15 16  1  0  0  0  0
 16 17  1  0  0  0  0
 17 12  1  0  0  0  0
 17 18  1  0  0  0  0
 18 19  1  0  0  0  0
 19 20  1  0  0  0  0
 20 21  1  0  0  0  0
 21 22  1  1  0  0  0
 22 23  1  0  0  0  0
 21 24  1  0  0  0  0
 24 25  1  0  0  0  0
 24 26  1  0  0  0  0
 23 27  1  0  0  0  0
 23 28  1  0  0  0  0
 27 29  2  0  0  0  0
 27 30  1  0  0  0  0
 30 31  2  0  0  0  0
 31 32  1  0  0  0  0
 32 33  2  0  0  0  0
 33 34  1  0  0  0  0
 34 35  2  0  0  0  0
 35 36  1  0  0  0  0
 36 37  2  0  0  0  0
 37 32  1  0  0  0  0
 35 38  1  0  0  0  0
 34 39  1  0  0  0  0
 39 40  1  0  0  0  0
  5 41  1  1  0  0  0
  9 42  1  1  0  0  0
 12 43  1  1  0  0  0
 10 44  1  6  0  0  0
 11 45  1  6  0  0  0
 17 46  1  6  0  0  0
 18 47  1  6  0  0  0
M  END
>  <cdx:fragmentId>
5

$$$$
