60186.cdx
  Mrv1902 05222410232D          

 29 32  0  0  0  0            999 V2000
    6.4468   -8.0289    0.0000 C   0  0  0  0  0  0  0  0  0  0  0  0
    6.4468   -8.8539    0.0000 C   0  0  0  0  0  0  0  0  0  0  0  0
    7.1613   -9.2664    0.0000 C   0  0  0  0  0  0  0  0  0  0  0  0
    7.8757   -8.8539    0.0000 C   0  0  0  0  0  0  0  0  0  0  0  0
    7.8757   -8.0289    0.0000 C   0  0  0  0  0  0  0  0  0  0  0  0
    7.1613   -7.6164    0.0000 C   0  0  0  0  0  0  0  0  0  0  0  0
    8.5902   -9.2664    0.0000 C   0  0  0  0  0  0  0  0  0  0  0  0
    9.3047   -8.8539    0.0000 C   0  0  0  0  0  0  0  0  0  0  0  0
    9.3047   -8.0289    0.0000 C   0  0  0  0  0  0  0  0  0  0  0  0
    8.5902   -7.6164    0.0000 O   0  0  0  0  0  0  0  0  0  0  0  0
   10.7336   -8.0289    0.0000 C   0  0  0  0  0  0  0  0  0  0  0  0
   10.0192   -7.6164    0.0000 C   0  0  0  0  0  0  0  0  0  0  0  0
   11.4481   -7.6164    0.0000 C   0  0  0  0  0  0  0  0  0  0  0  0
   11.4481   -6.7914    0.0000 C   0  0  0  0  0  0  0  0  0  0  0  0
   10.7336   -6.3789    0.0000 C   0  0  0  0  0  0  0  0  0  0  0  0
   10.0192   -6.7914    0.0000 C   0  0  0  0  0  0  0  0  0  0  0  0
    8.5902  -10.0914    0.0000 O   0  0  0  0  0  0  0  0  0  0  0  0
    5.7323   -7.6164    0.0000 O   0  0  0  0  0  0  0  0  0  0  0  0
    5.0179   -8.0289    0.0000 C   0  0  2  0  0  0  0  0  0  0  0  0
    4.3034   -7.6164    0.0000 O   0  0  0  0  0  0  0  0  0  0  0  0
    3.5889   -8.0289    0.0000 C   0  0  1  0  0  0  0  0  0  0  0  0
    3.5889   -8.8539    0.0000 C   0  0  2  0  0  0  0  0  0  0  0  0
    4.3034   -9.2664    0.0000 C   0  0  1  0  0  0  0  0  0  0  0  0
    5.0179   -8.8539    0.0000 C   0  0  1  0  0  0  0  0  0  0  0  0
    2.8744   -7.6164    0.0000 C   0  0  0  0  0  0  0  0  0  0  0  0
    4.3034  -10.0914    0.0000 O   0  0  0  0  0  0  0  0  0  0  0  0
    2.1600   -8.0289    0.0000 O   0  0  0  0  0  0  0  0  0  0  0  0
    5.7323   -9.2664    0.0000 O   0  0  0  0  0  0  0  0  0  0  0  0
    2.8744   -9.2664    0.0000 O   0  0  0  0  0  0  0  0  0  0  0  0
  1  2  2  0  0  0  0
  2  3  1  0  0  0  0
  3  4  2  0  0  0  0
  4  5  1  0  0  0  0
  5  6  2  0  0  0  0
  6  1  1  0  0  0  0
  4  7  1  0  0  0  0
  7  8  1  0  0  0  0
  8  9  1  0  0  0  0
  9 10  1  0  0  0  0
 10  5  1  0  0  0  0
 11 12  2  0  0  0  0
 12  9  1  0  0  0  0
 11 13  1  0  0  0  0
 13 14  2  0  0  0  0
 14 15  1  0  0  0  0
 15 16  2  0  0  0  0
 16 12  1  0  0  0  0
  7 17  2  0  0  0  0
  1 18  1  0  0  0  0
 19 18  1  1  0  0  0
 19 20  1  0  0  0  0
 20 21  1  0  0  0  0
 21 22  1  0  0  0  0
 22 23  1  0  0  0  0
 23 24  1  0  0  0  0
 24 19  1  0  0  0  0
 21 25  1  1  0  0  0
 23 26  1  1  0  0  0
 25 27  1  0  0  0  0
 24 28  1  6  0  0  0
 22 29  1  6  0  0  0
M  END
>  <cdx:fragmentId>
5

$$$$
