60180.cdx
  Mrv1902 05222410252D          

 36 38  0  0  0  0            999 V2000
    4.3981   -6.8464    0.0000 C   0  0  0  0  0  0  0  0  0  0  0  0
    4.3981   -7.6714    0.0000 C   0  0  0  0  0  0  0  0  0  0  0  0
    5.1125   -8.0839    0.0000 C   0  0  0  0  0  0  0  0  0  0  0  0
    5.8270   -7.6714    0.0000 C   0  0  0  0  0  0  0  0  0  0  0  0
    5.8270   -6.8464    0.0000 C   0  0  2  0  0  0  0  0  0  0  0  0
    5.1125   -6.4339    0.0000 C   0  0  2  0  0  0  0  0  0  0  0  0
    6.5415   -8.0839    0.0000 C   0  0  0  0  0  0  0  0  0  0  0  0
    7.2559   -6.8464    0.0000 C   0  0  0  0  0  0  0  0  0  0  0  0
    6.5415   -6.4339    0.0000 C   0  0  0  0  0  0  0  0  0  0  0  0
    7.9704   -6.4339    0.0000 C   0  0  1  0  0  0  0  0  0  0  0  0
    3.6836   -8.0839    0.0000 O   0  0  0  0  0  0  0  0  0  0  0  0
    4.7000   -5.7194    0.0000 C   0  0  0  0  0  0  0  0  0  0  0  0
    5.5250   -5.7194    0.0000 C   0  0  0  0  0  0  0  0  0  0  0  0
    7.9704   -5.6089    0.0000 C   0  0  0  0  0  0  0  0  0  0  0  0
    6.5415   -7.2589    0.0000 H   0  0  0  0  0  0  0  0  0  0  0  0
    7.9731   -8.9352    0.0000 C   0  0  2  0  0  0  0  0  0  0  0  0
    8.6818   -9.3576    0.0000 C   0  0  2  0  0  0  0  0  0  0  0  0
    9.4019   -8.9551    0.0000 C   0  0  1  0  0  0  0  0  0  0  0  0
    9.4134   -8.1302    0.0000 C   0  0  2  0  0  0  0  0  0  0  0  0
    8.7048   -7.7078    0.0000 C   0  0  1  0  0  0  0  0  0  0  0  0
    7.9846   -8.1103    0.0000 O   0  0  0  0  0  0  0  0  0  0  0  0
    8.7163   -6.8829    0.0000 O   0  0  0  0  0  0  0  0  0  0  0  0
   10.1106   -9.3776    0.0000 O   0  0  0  0  0  0  0  0  0  0  0  0
    7.2530   -9.3377    0.0000 C   0  0  0  0  0  0  0  0  0  0  0  0
   10.1336   -7.7277    0.0000 O   0  0  0  0  0  0  0  0  0  0  0  0
    8.6703  -10.1826    0.0000 O   0  0  0  0  0  0  0  0  0  0  0  0
    6.8187  -10.8725    0.0000 C   0  0  2  0  0  0  0  0  0  0  0  0
    5.9937  -10.8631    0.0000 O   0  0  0  0  0  0  0  0  0  0  0  0
    5.5732  -11.5729    0.0000 C   0  0  0  0  0  0  0  0  0  0  0  0
    5.9775  -12.2920    0.0000 C   0  0  1  0  0  0  0  0  0  0  0  0
    6.8025  -12.3013    0.0000 C   0  0  1  0  0  0  0  0  0  0  0  0
    7.2231  -11.5916    0.0000 C   0  0  1  0  0  0  0  0  0  0  0  0
    7.2069  -13.0204    0.0000 O   0  0  0  0  0  0  0  0  0  0  0  0
    5.5570  -13.0017    0.0000 O   0  0  0  0  0  0  0  0  0  0  0  0
    8.0480  -11.6009    0.0000 O   0  0  0  0  0  0  0  0  0  0  0  0
    7.2530  -10.1627    0.0000 O   0  0  0  0  0  0  0  0  0  0  0  0
  1  2  1  0  0  0  0
  2  3  1  0  0  0  0
  3  4  2  0  0  0  0
  4  5  1  0  0  0  0
  5  6  1  0  0  0  0
  6  1  1  0  0  0  0
  4  7  1  0  0  0  0
  8  9  2  0  0  0  0
  9  5  1  0  0  0  0
 10  8  1  0  0  0  0
  2 11  2  0  0  0  0
  6 12  1  1  0  0  0
  6 13  1  6  0  0  0
 10 14  1  1  0  0  0
  5 15  1  1  0  0  0
 16 17  1  0  0  0  0
 17 18  1  0  0  0  0
 18 19  1  0  0  0  0
 19 20  1  0  0  0  0
 20 21  1  0  0  0  0
 21 16  1  0  0  0  0
 20 22  1  1  0  0  0
 18 23  1  1  0  0  0
 16 24  1  1  0  0  0
 19 25  1  6  0  0  0
 17 26  1  6  0  0  0
 27 28  1  0  0  0  0
 28 29  1  0  0  0  0
 29 30  1  0  0  0  0
 30 31  1  0  0  0  0
 31 32  1  0  0  0  0
 32 27  1  0  0  0  0
 31 33  1  1  0  0  0
 30 34  1  1  0  0  0
 32 35  1  6  0  0  0
 10 22  1  0  0  0  0
 24 36  1  0  0  0  0
 27 36  1  1  0  0  0
M  END
>  <cdx:fragmentId>
59

$$$$
