60182.cdx
  Mrv1902 05222410252D          

 35 37  0  0  0  0            999 V2000
    4.3981   -6.8464    0.0000 C   0  0  0  0  0  0  0  0  0  0  0  0
    4.3981   -7.6714    0.0000 C   0  0  0  0  0  0  0  0  0  0  0  0
    5.1125   -8.0839    0.0000 C   0  0  0  0  0  0  0  0  0  0  0  0
    5.8270   -7.6714    0.0000 C   0  0  0  0  0  0  0  0  0  0  0  0
    5.8270   -6.8464    0.0000 C   0  0  0  0  0  0  0  0  0  0  0  0
    5.1125   -6.4339    0.0000 C   0  0  2  0  0  0  0  0  0  0  0  0
    6.5415   -8.0839    0.0000 C   0  0  0  0  0  0  0  0  0  0  0  0
    7.2559   -6.8464    0.0000 C   0  0  0  0  0  0  0  0  0  0  0  0
    6.5415   -6.4339    0.0000 C   0  0  0  0  0  0  0  0  0  0  0  0
    7.9704   -6.4339    0.0000 C   0  0  2  0  0  0  0  0  0  0  0  0
    4.7000   -5.7194    0.0000 C   0  0  0  0  0  0  0  0  0  0  0  0
    5.5250   -5.7194    0.0000 C   0  0  0  0  0  0  0  0  0  0  0  0
    7.9704   -5.6089    0.0000 C   0  0  0  0  0  0  0  0  0  0  0  0
    7.9731   -8.9352    0.0000 C   0  0  2  0  0  0  0  0  0  0  0  0
    8.6818   -9.3576    0.0000 C   0  0  2  0  0  0  0  0  0  0  0  0
    9.4019   -8.9551    0.0000 C   0  0  1  0  0  0  0  0  0  0  0  0
    9.4134   -8.1302    0.0000 C   0  0  2  0  0  0  0  0  0  0  0  0
    8.7048   -7.7078    0.0000 C   0  0  1  0  0  0  0  0  0  0  0  0
    7.9846   -8.1103    0.0000 O   0  0  0  0  0  0  0  0  0  0  0  0
    8.7163   -6.8829    0.0000 O   0  0  0  0  0  0  0  0  0  0  0  0
   10.1106   -9.3776    0.0000 O   0  0  0  0  0  0  0  0  0  0  0  0
    7.2530   -9.3377    0.0000 C   0  0  0  0  0  0  0  0  0  0  0  0
   10.1336   -7.7277    0.0000 O   0  0  0  0  0  0  0  0  0  0  0  0
    8.6703  -10.1826    0.0000 O   0  0  0  0  0  0  0  0  0  0  0  0
    6.8187  -10.8725    0.0000 C   0  0  2  0  0  0  0  0  0  0  0  0
    5.9937  -10.8631    0.0000 O   0  0  0  0  0  0  0  0  0  0  0  0
    5.5732  -11.5729    0.0000 C   0  0  0  0  0  0  0  0  0  0  0  0
    5.9775  -12.2920    0.0000 C   0  0  1  0  0  0  0  0  0  0  0  0
    6.8025  -12.3013    0.0000 C   0  0  1  0  0  0  0  0  0  0  0  0
    7.2231  -11.5916    0.0000 C   0  0  1  0  0  0  0  0  0  0  0  0
    7.2069  -13.0204    0.0000 O   0  0  0  0  0  0  0  0  0  0  0  0
    5.5570  -13.0017    0.0000 O   0  0  0  0  0  0  0  0  0  0  0  0
    8.0480  -11.6009    0.0000 O   0  0  0  0  0  0  0  0  0  0  0  0
    7.2530  -10.1627    0.0000 O   0  0  0  0  0  0  0  0  0  0  0  0
    5.1125   -8.9089    0.0000 O   0  0  0  0  0  0  0  0  0  0  0  0
  1  2  1  0  0  0  0
  2  3  1  0  0  0  0
  3  4  1  0  0  0  0
  4  5  2  0  0  0  0
  5  6  1  0  0  0  0
  6  1  1  0  0  0  0
  4  7  1  0  0  0  0
  8  9  1  0  0  0  0
  9  5  1  0  0  0  0
 10  8  1  0  0  0  0
  6 11  1  1  0  0  0
  6 12  1  6  0  0  0
 10 13  1  6  0  0  0
 14 15  1  0  0  0  0
 15 16  1  0  0  0  0
 16 17  1  0  0  0  0
 17 18  1  0  0  0  0
 18 19  1  0  0  0  0
 19 14  1  0  0  0  0
 18 20  1  1  0  0  0
 16 21  1  1  0  0  0
 14 22  1  1  0  0  0
 17 23  1  6  0  0  0
 15 24  1  6  0  0  0
 25 26  1  0  0  0  0
 26 27  1  0  0  0  0
 27 28  1  0  0  0  0
 28 29  1  0  0  0  0
 29 30  1  0  0  0  0
 30 25  1  0  0  0  0
 29 31  1  1  0  0  0
 28 32  1  1  0  0  0
 30 33  1  6  0  0  0
 10 20  1  0  0  0  0
 22 34  1  0  0  0  0
 25 34  1  1  0  0  0
  3 35  2  0  0  0  0
M  END
>  <cdx:fragmentId>
59

$$$$
