60183.cdx
  Mrv1902 05222410252D          

 15 15  0  0  0  0            999 V2000
    5.3205   -6.7211    0.0000 C   0  0  0  0  0  0  0  0  0  0  0  0
    5.3205   -7.5461    0.0000 C   0  0  0  0  0  0  0  0  0  0  0  0
    6.0350   -7.9586    0.0000 C   0  0  0  0  0  0  0  0  0  0  0  0
    6.7495   -7.5461    0.0000 C   0  0  0  0  0  0  0  0  0  0  0  0
    6.7495   -6.7211    0.0000 C   0  0  1  0  0  0  0  0  0  0  0  0
    6.0350   -6.3086    0.0000 C   0  0  2  0  0  0  0  0  0  0  0  0
    4.6060   -7.9586    0.0000 O   0  0  0  0  0  0  0  0  0  0  0  0
    7.4639   -7.9586    0.0000 C   0  0  0  0  0  0  0  0  0  0  0  0
    5.4516   -5.7253    0.0000 C   0  0  0  0  0  0  0  0  0  0  0  0
    7.4639   -6.3086    0.0000 C   0  0  0  0  0  0  0  0  0  0  0  0
    6.6183   -5.7253    0.0000 C   0  0  0  0  0  0  0  0  0  0  0  0
    8.1784   -6.7211    0.0000 C   0  0  0  0  0  0  0  0  0  0  0  0
    8.8929   -6.3086    0.0000 C   0  0  2  0  0  0  0  0  0  0  0  0
    9.6073   -6.7211    0.0000 C   0  0  0  0  0  0  0  0  0  0  0  0
    8.8929   -5.4836    0.0000 O   0  0  0  0  0  0  0  0  0  0  0  0
  1  2  1  0  0  0  0
  2  3  1  0  0  0  0
  3  4  2  0  0  0  0
  4  5  1  0  0  0  0
  5  6  1  0  0  0  0
  6  1  1  0  0  0  0
  2  7  2  0  0  0  0
  4  8  1  0  0  0  0
  6  9  1  1  0  0  0
  5 10  1  1  0  0  0
  6 11  1  6  0  0  0
 10 12  2  0  0  0  0
 12 13  1  0  0  0  0
 13 14  1  0  0  0  0
 13 15  1  1  0  0  0
M  END
>  <cdx:fragmentId>
61

$$$$
