60194.cdx
  Mrv1902 05222410252D          

 32 36  0  0  0  0            999 V2000
    5.7180   -6.3239    0.0000 C   0  0  0  0  0  0  0  0  0  0  0  0
    7.2295   -5.0864    0.0000 O   0  0  0  0  0  0  0  0  0  0  0  0
    8.6584   -5.9114    0.0000 O   0  0  0  0  0  0  0  0  0  0  0  0
    8.6584   -9.2114    0.0000 H   0  0  0  0  0  0  0  0  0  0  0  0
    7.9440   -7.9739    0.0000 H   0  0  0  0  0  0  0  0  0  0  0  0
    6.1025   -5.6094    0.0000 O   0  0  0  0  0  0  0  0  0  0  0  0
    6.5150   -7.9739    0.0000 H   0  0  0  0  0  0  0  0  0  0  0  0
    7.2295   -9.2114    0.0000 H   0  0  0  0  0  0  0  0  0  0  0  0
    8.6584   -6.7364    0.0000 C   0  0  0  0  0  0  0  0  0  0  0  0
    9.3729   -6.3239    0.0000 O   0  0  0  0  0  0  0  0  0  0  0  0
    7.0228   -6.8949    0.0000 C   0  0  0  0  0  0  0  0  0  0  0  0
    7.3150   -6.4350    0.0000 O   0  0  0  0  0  0  0  0  0  0  0  0
    5.0861   -8.7989    0.0000 O   0  0  0  0  0  0  0  0  0  0  0  0
    9.3729   -9.6239    0.0000 C   0  0  0  0  0  0  0  0  0  0  0  0
   10.8019   -7.1489    0.0000 O   0  0  0  0  0  0  0  0  0  0  0  0
    7.9440   -6.3239    0.0000 C   0  0  2  0  0  0  0  0  0  0  0  0
    7.2295   -5.9114    0.0000 C   0  0  1  0  0  0  0  0  0  0  0  0
    6.5150   -6.3239    0.0000 C   0  0  1  0  0  0  0  0  0  0  0  0
    6.5150   -7.1489    0.0000 C   0  0  2  0  0  0  0  0  0  0  0  0
    5.8006   -7.5614    0.0000 C   0  0  0  0  0  0  0  0  0  0  0  0
    5.8006   -8.3864    0.0000 C   0  0  0  0  0  0  0  0  0  0  0  0
    6.5150   -8.7989    0.0000 O   0  0  0  0  0  0  0  0  0  0  0  0
    7.9440   -7.1489    0.0000 C   0  0  1  0  0  0  0  0  0  0  0  0
    7.2295   -7.5614    0.0000 C   0  0  2  0  0  0  0  0  0  0  0  0
    7.2295   -8.3864    0.0000 C   0  0  1  0  0  0  0  0  0  0  0  0
    7.9440   -8.7989    0.0000 C   0  0  0  0  0  0  0  0  0  0  0  0
    9.3729   -7.1489    0.0000 C   0  0  1  0  0  0  0  0  0  0  0  0
    8.6584   -7.5614    0.0000 C   0  0  2  0  0  0  0  0  0  0  0  0
    8.6584   -8.3864    0.0000 C   0  0  2  0  0  0  0  0  0  0  0  0
    9.3729   -8.7989    0.0000 C   0  0  0  0  0  0  0  0  0  0  0  0
   10.0874   -8.3864    0.0000 C   0  0  0  0  0  0  0  0  0  0  0  0
   10.0874   -7.5614    0.0000 C   0  0  0  0  0  0  0  0  0  0  0  0
 18  1  1  1  0  0  0
 17  2  1  1  0  0  0
 16  3  1  6  0  0  0
 29  4  1  1  0  0  0
 23  5  1  1  0  0  0
 18  6  1  6  0  0  0
 19  7  1  6  0  0  0
 25  8  1  6  0  0  0
 28  9  1  6  0  0  0
 27 10  1  6  0  0  0
 24 11  1  6  0  0  0
 12 11  1  0  0  0  0
 16 12  1  0  0  0  0
 21 13  2  0  0  0  0
 30 14  1  0  0  0  0
 32 15  2  0  0  0  0
 16 23  1  0  0  0  0
 17 16  1  0  0  0  0
 18 17  1  0  0  0  0
 19 18  1  0  0  0  0
 19 24  1  0  0  0  0
 20 19  1  0  0  0  0
 21 20  1  0  0  0  0
 22 21  1  0  0  0  0
 25 22  1  0  0  0  0
 23 28  1  0  0  0  0
 24 23  1  0  0  0  0
 25 24  1  0  0  0  0
 26 25  1  0  0  0  0
 29 26  1  0  0  0  0
 27 32  1  0  0  0  0
 28 27  1  0  0  0  0
 29 28  1  0  0  0  0
 30 29  1  0  0  0  0
 31 30  2  0  0  0  0
 32 31  1  0  0  0  0
M  END
>  <cdx:fragmentId>
5

$$$$
