60193.cdx
  Mrv1902 05222410232D          

 39 42  0  0  0  0            999 V2000
    6.7361   -8.0976    0.0000 O   0  0  0  0  0  0  0  0  0  0  0  0
    5.9111   -8.0987    0.0000 C   0  0  2  0  0  0  0  0  0  0  0  0
    5.4977   -7.3847    0.0000 O   0  0  0  0  0  0  0  0  0  0  0  0
    4.6727   -7.3857    0.0000 C   0  0  1  0  0  0  0  0  0  0  0  0
    4.2611   -8.1007    0.0000 C   0  0  2  0  0  0  0  0  0  0  0  0
    4.6745   -8.8146    0.0000 C   0  0  1  0  0  0  0  0  0  0  0  0
    5.4995   -8.8136    0.0000 C   0  0  1  0  0  0  0  0  0  0  0  0
    4.2593   -6.6717    0.0000 C   0  0  0  0  0  0  0  0  0  0  0  0
    4.2628   -9.5296    0.0000 O   0  0  0  0  0  0  0  0  0  0  0  0
    5.9128   -9.5276    0.0000 O   0  0  0  0  0  0  0  0  0  0  0  0
    3.4361   -8.1017    0.0000 O   0  0  0  0  0  0  0  0  0  0  0  0
    3.4343   -6.6727    0.0000 O   0  0  0  0  0  0  0  0  0  0  0  0
    3.0210   -5.9588    0.0000 C   0  0  0  0  0  0  0  0  0  0  0  0
    2.1960   -5.9598    0.0000 C   0  0  0  0  0  0  0  0  0  0  0  0
    1.7826   -5.2458    0.0000 C   0  0  0  0  0  0  0  0  0  0  0  0
    0.9576   -5.2468    0.0000 O   0  0  0  0  0  0  0  0  0  0  0  0
    2.1942   -4.5308    0.0000 O   0  0  0  0  0  0  0  0  0  0  0  0
    3.4326   -5.2438    0.0000 O   0  0  0  0  0  0  0  0  0  0  0  0
    6.7361  -10.5726    0.0000 C   0  0  0  0  0  0  0  0  0  0  0  0
    6.7361   -9.7476    0.0000 O   0  0  0  0  0  0  0  0  0  0  0  0
   13.1663  -10.9851    0.0000 O   0  0  0  0  0  0  0  0  0  0  0  0
   13.8808  -10.5726    0.0000 C   0  0  0  0  0  0  0  0  0  0  0  0
   11.7374  -10.9851    0.0000 C   0  0  0  0  0  0  0  0  0  0  0  0
   12.4519  -10.5726    0.0000 C   0  0  0  0  0  0  0  0  0  0  0  0
   12.4519   -9.7476    0.0000 C   0  0  0  0  0  0  0  0  0  0  0  0
   11.7374   -9.3351    0.0000 C   0  0  0  0  0  0  0  0  0  0  0  0
    9.5940  -10.5726    0.0000 O   0  0  0  0  0  0  0  0  0  0  0  0
   11.0229  -10.5726    0.0000 C   0  0  0  0  0  0  0  0  0  0  0  0
   11.0229   -9.7476    0.0000 C   0  0  0  0  0  0  0  0  0  0  0  0
    9.5940   -9.7476    0.0000 C   0  0  0  0  0  0  0  0  0  0  0  0
   10.3084   -9.3351    0.0000 C   0  0  0  0  0  0  0  0  0  0  0  0
   10.3084   -8.5101    0.0000 C   0  0  0  0  0  0  0  0  0  0  0  0
    9.5940   -8.0976    0.0000 O   0  0  0  0  0  0  0  0  0  0  0  0
    8.1650   -9.7476    0.0000 C   0  0  0  0  0  0  0  0  0  0  0  0
    8.8795   -9.3351    0.0000 C   0  0  0  0  0  0  0  0  0  0  0  0
    8.8795   -8.5101    0.0000 C   0  0  0  0  0  0  0  0  0  0  0  0
    8.1650   -8.0976    0.0000 C   0  0  0  0  0  0  0  0  0  0  0  0
    7.4506   -8.5101    0.0000 C   0  0  0  0  0  0  0  0  0  0  0  0
    7.4506   -9.3351    0.0000 C   0  0  0  0  0  0  0  0  0  0  0  0
  2  1  1  1  0  0  0
  2  3  1  0  0  0  0
  3  4  1  0  0  0  0
  4  5  1  0  0  0  0
  5  6  1  0  0  0  0
  6  7  1  0  0  0  0
  7  2  1  0  0  0  0
  4  8  1  1  0  0  0
  6  9  1  1  0  0  0
  7 10  1  6  0  0  0
  5 11  1  6  0  0  0
  8 12  1  0  0  0  0
 12 13  1  0  0  0  0
 13 14  1  0  0  0  0
 14 15  1  0  0  0  0
 15 16  1  0  0  0  0
 15 17  2  0  0  0  0
 20 19  1  0  0  0  0
 39 20  1  0  0  0  0
 38  1  1  0  0  0  0
 13 18  2  0  0  0  0
 21 24  1  0  0  0  0
 22 21  1  0  0  0  0
 23 28  1  0  0  0  0
 24 23  2  0  0  0  0
 25 24  1  0  0  0  0
 26 25  2  0  0  0  0
 29 26  1  0  0  0  0
 27 30  2  0  0  0  0
 29 28  2  0  0  0  0
 31 29  1  0  0  0  0
 30 35  1  0  0  0  0
 31 30  1  0  0  0  0
 32 31  2  0  0  0  0
 33 32  1  0  0  0  0
 36 33  1  0  0  0  0
 34 39  1  0  0  0  0
 35 34  2  0  0  0  0
 36 35  1  0  0  0  0
 37 36  2  0  0  0  0
 38 37  1  0  0  0  0
 39 38  2  0  0  0  0
M  END
>  <cdx:fragmentId>
5

$$$$
