601927.cdx
  Mrv1902 05222410182D          

 76 84  0  0  0  0            999 V2000
    9.4120  -12.1709    0.0000 O   0  0  0  0  0  0  0  0  0  0  0  0
   10.3172  -10.7398    0.0000 O   0  0  0  0  0  0  0  0  0  0  0  0
   10.7724  -12.1227    0.0000 O   0  0  0  0  0  0  0  0  0  0  0  0
    8.9712   -8.4010    0.0000 O   0  0  0  0  0  0  0  0  0  0  0  0
    6.8885   -9.8356    0.0000 O   0  0  0  0  0  0  0  0  0  0  0  0
    6.4879   -9.7510    0.0000 O   0  0  0  0  0  0  0  0  0  0  0  0
    7.4876   -7.5080    0.0000 O   0  0  0  0  0  0  0  0  0  0  0  0
   11.8447  -10.3482    0.0000 O   0  0  0  0  0  0  0  0  0  0  0  0
    8.6871   -9.8145    0.0000 O   0  0  0  0  0  0  0  0  0  0  0  0
    8.4975  -13.5295    0.0000 O   0  0  0  0  0  0  0  0  0  0  0  0
   10.3235   -9.2363    0.0000 O   0  0  0  0  0  0  0  0  0  0  0  0
    4.5136   -8.3048    0.0000 O   0  0  0  0  0  0  0  0  0  0  0  0
    6.5666  -13.2334    0.0000 O   0  0  0  0  0  0  0  0  0  0  0  0
    6.1209  -11.0724    0.0000 O   0  0  0  0  0  0  0  0  0  0  0  0
   10.8595  -12.9431    0.0000 O   0  0  0  0  0  0  0  0  0  0  0  0
    7.9885   -6.2985    0.0000 O   0  0  0  0  0  0  0  0  0  0  0  0
    9.7075  -10.2845    0.0000 O   0  0  0  0  0  0  0  0  0  0  0  0
    3.4750   -7.5080    0.0000 O   0  0  0  0  0  0  0  0  0  0  0  0
    4.9070   -4.7477    0.0000 O   0  0  0  0  0  0  0  0  0  0  0  0
    5.3683   -4.6240    0.0000 O   0  0  0  0  0  0  0  0  0  0  0  0
    7.6772   -4.1166    0.0000 O   0  0  0  0  0  0  0  0  0  0  0  0
    6.0450   -3.6792    0.0000 O   0  0  0  0  0  0  0  0  0  0  0  0
    2.6536   -5.4627    0.0000 O   0  0  0  0  0  0  0  0  0  0  0  0
    3.8486   -4.2678    0.0000 O   0  0  0  0  0  0  0  0  0  0  0  0
    9.7260   -6.6322    0.0000 O   0  0  0  0  0  0  0  0  0  0  0  0
   12.0452   -8.3023    0.0000 O   0  0  0  0  0  0  0  0  0  0  0  0
   11.3677   -6.7978    0.0000 O   0  0  0  0  0  0  0  0  0  0  0  0
    9.7916  -11.3757    0.0000 C   0  0  1  0  0  0  0  0  0  0  0  0
    9.1538  -10.7679    0.0000 C   0  0  1  0  0  0  0  0  0  0  0  0
   10.6853  -11.3023    0.0000 C   0  0  1  0  0  0  0  0  0  0  0  0
    8.3751  -11.1913    0.0000 C   0  0  0  0  0  0  0  0  0  0  0  0
    9.5771   -9.9892    0.0000 C   0  0  0  0  0  0  0  0  0  0  0  0
    8.5384  -12.0570    0.0000 C   0  0  0  0  0  0  0  0  0  0  0  0
   11.0295  -10.4744    0.0000 C   0  0  0  0  0  0  0  0  0  0  0  0
   11.4393  -11.6371    0.0000 C   0  0  0  0  0  0  0  0  0  0  0  0
    6.6907   -8.8882    0.0000 C   0  0  1  0  0  0  0  0  0  0  0  0
    7.2741   -8.3048    0.0000 C   0  0  1  0  0  0  0  0  0  0  0  0
    8.1368   -8.1021    0.0000 C   0  0  2  0  0  0  0  0  0  0  0  0
   10.4511   -9.7891    0.0000 C   0  0  0  0  0  0  0  0  0  0  0  0
    7.4914  -11.1231    0.0000 C   0  0  0  0  0  0  0  0  0  0  0  0
    5.8938   -9.1017    0.0000 C   0  0  1  0  0  0  0  0  0  0  0  0
    9.5090   -9.1055    0.0000 C   0  0  0  0  0  0  0  0  0  0  0  0
    8.0176   -9.3324    0.0000 C   0  0  1  0  0  0  0  0  0  0  0  0
    8.1400  -12.7875    0.0000 C   0  0  0  0  0  0  0  0  0  0  0  0
    6.7868  -10.5854    0.0000 C   0  0  0  0  0  0  0  0  0  0  0  0
    6.8750  -11.7425    0.0000 C   0  0  0  0  0  0  0  0  0  0  0  0
   11.5264  -12.4575    0.0000 C   0  0  0  0  0  0  0  0  0  0  0  0
    7.1500  -12.6500    0.0000 C   0  0  0  0  0  0  0  0  0  0  0  0
    5.0969   -8.8882    0.0000 C   0  0  0  0  0  0  0  0  0  0  0  0
   12.2805  -12.7922    0.0000 C   0  0  0  0  0  0  0  0  0  0  0  0
    7.2741   -6.7110    0.0000 C   0  0  0  0  0  0  0  0  0  0  0  0
    9.2950   -9.5700    0.0000 C   0  0  0  0  0  0  0  0  0  0  0  0
    6.6907   -6.1277    0.0000 C   0  0  0  0  0  0  0  0  0  0  0  0
    4.3000   -7.5080    0.0000 C   0  0  0  0  0  0  0  0  0  0  0  0
    5.8938   -5.9141    0.0000 C   0  0  0  0  0  0  0  0  0  0  0  0
    4.5136   -6.7110    0.0000 C   0  0  0  0  0  0  0  0  0  0  0  0
    5.0969   -6.1277    0.0000 C   0  0  0  0  0  0  0  0  0  0  0  0
    9.9214   -8.8063    0.0000 C   0  0  0  0  0  0  0  0  0  0  0  0
    7.3076   -5.5294    0.0000 C   0  0  0  0  0  0  0  0  0  0  0  0
    5.6586   -5.0877    0.0000 C   0  0  0  0  0  0  0  0  0  0  0  0
    3.6802   -6.5015    0.0000 C   0  0  0  0  0  0  0  0  0  0  0  0
    4.8873   -5.2943    0.0000 C   0  0  0  0  0  0  0  0  0  0  0  0
    7.0916   -4.6978    0.0000 C   0  0  0  0  0  0  0  0  0  0  0  0
    6.2616   -4.4753    0.0000 C   0  0  0  0  0  0  0  0  0  0  0  0
   10.7423   -8.8890    0.0000 C   0  0  0  0  0  0  0  0  0  0  0  0
    9.5827   -8.0540    0.0000 C   0  0  0  0  0  0  0  0  0  0  0  0
    3.4513   -5.6732    0.0000 C   0  0  0  0  0  0  0  0  0  0  0  0
    4.0590   -5.0655    0.0000 C   0  0  0  0  0  0  0  0  0  0  0  0
   10.0648   -7.3845    0.0000 C   0  0  0  0  0  0  0  0  0  0  0  0
   11.2243   -8.2195    0.0000 C   0  0  0  0  0  0  0  0  0  0  0  0
   10.8856   -7.4672    0.0000 C   0  0  0  0  0  0  0  0  0  0  0  0
    8.8189  -11.3840    0.0000 H   0  0  0  0  0  0  0  0  0  0  0  0
    6.1949   -9.3840    0.0000 H   0  0  0  0  0  0  0  0  0  0  0  0
    7.7699   -7.8090    0.0000 H   0  0  0  0  0  0  0  0  0  0  0  0
    8.5983   -7.5740    0.0000 H   0  0  0  0  0  0  0  0  0  0  0  0
    5.5896   -9.7336    0.0000 H   0  0  0  0  0  0  0  0  0  0  0  0
  1 28  1  0  0  0  0
  1 33  1  0  0  0  0
 28  2  1  6  0  0  0
 30  3  1  1  0  0  0
  4 38  1  0  0  0  0
  4 42  1  0  0  0  0
  5 41  1  0  0  0  0
  5 43  1  0  0  0  0
  6 36  1  0  0  0  0
  6 45  1  0  0  0  0
  7 37  1  0  0  0  0
  7 51  1  0  0  0  0
  8 34  2  0  0  0  0
 43  9  1  6  0  0  0
  9 52  1  0  0  0  0
 10 44  1  0  0  0  0
 11 42  2  0  0  0  0
 12 49  1  0  0  0  0
 12 54  1  0  0  0  0
 13 48  1  0  0  0  0
 14 45  2  0  0  0  0
 15 47  2  0  0  0  0
 16 51  2  0  0  0  0
 17 52  2  0  0  0  0
 18 54  2  0  0  0  0
 19 60  1  0  0  0  0
 20 62  1  0  0  0  0
 21 63  1  0  0  0  0
 22 64  1  0  0  0  0
 23 67  1  0  0  0  0
 24 68  1  0  0  0  0
 25 69  1  0  0  0  0
 26 70  1  0  0  0  0
 27 71  1  0  0  0  0
 28 29  1  0  0  0  0
 28 30  1  0  0  0  0
 29 31  1  0  0  0  0
 29 32  1  0  0  0  0
 29 72  1  6  0  0  0
 30 34  1  0  0  0  0
 30 35  1  0  0  0  0
 31 33  2  0  0  0  0
 31 40  1  0  0  0  0
 32 39  2  0  0  0  0
 32 42  1  0  0  0  0
 33 44  1  0  0  0  0
 34 39  1  0  0  0  0
 35 47  1  0  0  0  0
 36 37  1  0  0  0  0
 36 41  1  0  0  0  0
 36 73  1  1  0  0  0
 37 38  1  0  0  0  0
 37 74  1  1  0  0  0
 38 43  1  0  0  0  0
 38 75  1  6  0  0  0
 40 45  1  0  0  0  0
 40 46  2  0  0  0  0
 41 49  1  0  0  0  0
 41 76  1  1  0  0  0
 44 48  2  0  0  0  0
 46 48  1  0  0  0  0
 47 50  1  0  0  0  0
 51 53  1  0  0  0  0
 52 58  1  0  0  0  0
 53 55  1  0  0  0  0
 53 59  2  0  0  0  0
 54 56  1  0  0  0  0
 55 57  1  0  0  0  0
 55 60  2  0  0  0  0
 56 57  1  0  0  0  0
 56 61  2  0  0  0  0
 57 62  2  0  0  0  0
 58 65  2  0  0  0  0
 58 66  1  0  0  0  0
 59 63  1  0  0  0  0
 60 64  1  0  0  0  0
 61 67  1  0  0  0  0
 62 68  1  0  0  0  0
 63 64  2  0  0  0  0
 65 70  1  0  0  0  0
 66 69  2  0  0  0  0
 67 68  2  0  0  0  0
 69 71  1  0  0  0  0
 70 71  2  0  0  0  0
M  END
>  <cdx:fragmentId>
1

$$$$
