60199.cdx
  Mrv1902 05222410212D          

 29 31  0  0  0  0            999 V2000
    6.0297   -7.4926    0.0000 C   0  0  1  0  0  0  0  0  0  0  0  0
    6.0297   -8.3176    0.0000 C   0  0  1  0  0  0  0  0  0  0  0  0
    6.6747   -8.8320    0.0000 C   0  0  2  0  0  0  0  0  0  0  0  0
    7.4790   -8.6484    0.0000 C   0  0  0  0  0  0  0  0  0  0  0  0
    7.8370   -7.9051    0.0000 C   0  0  1  0  0  0  0  0  0  0  0  0
    7.4790   -7.1619    0.0000 C   0  0  1  0  0  0  0  0  0  0  0  0
    6.6747   -6.9783    0.0000 C   0  0  2  0  0  0  0  0  0  0  0  0
    5.2451   -7.2377    0.0000 O   0  0  0  0  0  0  0  0  0  0  0  0
    4.7602   -7.9051    0.0000 C   0  0  0  0  0  0  0  0  0  0  0  0
    5.2451   -8.5726    0.0000 C   0  0  0  0  0  0  0  0  0  0  0  0
    7.9022   -6.4536    0.0000 C   0  0  0  0  0  0  0  0  0  0  0  0
    7.3594   -5.8323    0.0000 C   0  0  0  0  0  0  0  0  0  0  0  0
    6.6008   -6.1566    0.0000 C   0  0  0  0  0  0  0  0  0  0  0  0
    3.9352   -7.9051    0.0000 O   0  0  0  0  0  0  0  0  0  0  0  0
    4.9901   -9.3572    0.0000 C   0  0  0  0  0  0  0  0  0  0  0  0
    5.8925   -5.7334    0.0000 C   0  0  0  0  0  0  0  0  0  0  0  0
    6.4911   -9.6363    0.0000 O   0  0  0  0  0  0  0  0  0  0  0  0
    7.0745  -10.2197    0.0000 C   0  0  0  0  0  0  0  0  0  0  0  0
    7.8714  -10.0062    0.0000 O   0  0  0  0  0  0  0  0  0  0  0  0
    6.8610  -11.0166    0.0000 C   0  0  0  0  0  0  0  0  0  0  0  0
    7.4443  -11.6000    0.0000 C   0  0  0  0  0  0  0  0  0  0  0  0
    6.0641  -11.2301    0.0000 C   0  0  0  0  0  0  0  0  0  0  0  0
    5.4807  -10.6468    0.0000 C   0  0  0  0  0  0  0  0  0  0  0  0
    6.0297   -6.6676    0.0000 H   0  0  0  0  0  0  0  0  0  0  0  0
    8.5515   -7.4926    0.0000 C   0  0  0  0  0  0  0  0  0  0  0  0
    7.2655   -6.3650    0.0000 H   0  0  0  0  0  0  0  0  0  0  0  0
    6.8882   -7.7752    0.0000 H   0  0  0  0  0  0  0  0  0  0  0  0
    6.0297   -9.1426    0.0000 H   0  0  0  0  0  0  0  0  0  0  0  0
    8.5515   -8.3176    0.0000 O   0  0  0  0  0  0  0  0  0  0  0  0
  1  2  1  0  0  0  0
  2  3  1  0  0  0  0
  3  4  1  0  0  0  0
  4  5  1  0  0  0  0
  5  6  1  0  0  0  0
  6  7  1  0  0  0  0
  7  1  1  0  0  0  0
  1  8  1  0  0  0  0
  8  9  1  0  0  0  0
  9 10  1  0  0  0  0
 10  2  1  0  0  0  0
  6 11  1  0  0  0  0
 11 12  1  0  0  0  0
 12 13  2  0  0  0  0
 13  7  1  0  0  0  0
  9 14  2  0  0  0  0
 10 15  2  0  0  0  0
 13 16  1  0  0  0  0
  3 17  1  6  0  0  0
 17 18  1  0  0  0  0
 18 19  2  0  0  0  0
 18 20  1  0  0  0  0
 20 21  1  0  0  0  0
 20 22  2  0  0  0  0
 22 23  1  0  0  0  0
  1 24  1  1  0  0  0
  5 25  1  1  0  0  0
  6 26  1  6  0  0  0
  7 27  1  6  0  0  0
  2 28  1  6  0  0  0
  5 29  1  6  0  0  0
M  END
>  <cdx:fragmentId>
5

$$$$
