60197.cdx
  Mrv1902 05222410252D          

 31 34  0  0  0  0            999 V2000
    4.0131   -8.4964    0.0000 C   0  0  0  0  0  0  0  0  0  0  0  0
    4.0131   -9.3214    0.0000 C   0  0  0  0  0  0  0  0  0  0  0  0
    4.7275   -9.7339    0.0000 C   0  0  0  0  0  0  0  0  0  0  0  0
    5.4420   -9.3214    0.0000 C   0  0  0  0  0  0  0  0  0  0  0  0
    5.4420   -8.4964    0.0000 C   0  0  0  0  0  0  0  0  0  0  0  0
    4.7275   -8.0839    0.0000 C   0  0  0  0  0  0  0  0  0  0  0  0
    6.1565   -9.7339    0.0000 C   0  0  0  0  0  0  0  0  0  0  0  0
    6.8709   -9.3214    0.0000 C   0  0  0  0  0  0  0  0  0  0  0  0
    6.8709   -8.4964    0.0000 C   0  0  0  0  0  0  0  0  0  0  0  0
    6.1565   -8.0839    0.0000 C   0  0  0  0  0  0  0  0  0  0  0  0
    7.5854   -9.7339    0.0000 C   0  0  0  0  0  0  0  0  0  0  0  0
    8.2999   -9.3214    0.0000 C   0  0  0  0  0  0  0  0  0  0  0  0
    8.2999   -8.4964    0.0000 C   0  0  0  0  0  0  0  0  0  0  0  0
    7.5854   -8.0839    0.0000 C   0  0  0  0  0  0  0  0  0  0  0  0
    4.7275   -7.2589    0.0000 O   0  0  0  0  0  0  0  0  0  0  0  0
    6.1565   -7.2589    0.0000 O   0  0  0  0  0  0  0  0  0  0  0  0
    6.1565  -10.5589    0.0000 O   0  0  0  0  0  0  0  0  0  0  0  0
    7.5854   -7.2589    0.0000 O   0  0  0  0  0  0  0  0  0  0  0  0
    9.0144   -9.7339    0.0000 C   0  0  0  0  0  0  0  0  0  0  0  0
    9.7288   -9.3214    0.0000 O   0  0  0  0  0  0  0  0  0  0  0  0
    8.3003   -6.8471    0.0000 C   0  0  2  0  0  0  0  0  0  0  0  0
    9.0143   -7.2602    0.0000 O   0  0  0  0  0  0  0  0  0  0  0  0
    9.7292   -6.8484    0.0000 C   0  0  1  0  0  0  0  0  0  0  0  0
    9.7300   -6.0234    0.0000 C   0  0  2  0  0  0  0  0  0  0  0  0
    9.0159   -5.6102    0.0000 C   0  0  1  0  0  0  0  0  0  0  0  0
    8.3010   -6.0221    0.0000 C   0  0  1  0  0  0  0  0  0  0  0  0
   10.4433   -7.2615    0.0000 C   0  0  0  0  0  0  0  0  0  0  0  0
    9.0166   -4.7852    0.0000 O   0  0  0  0  0  0  0  0  0  0  0  0
    7.5869   -5.6089    0.0000 O   0  0  0  0  0  0  0  0  0  0  0  0
   10.4448   -5.6115    0.0000 O   0  0  0  0  0  0  0  0  0  0  0  0
   11.1581   -6.8497    0.0000 O   0  0  0  0  0  0  0  0  0  0  0  0
  1  2  1  0  0  0  0
  2  3  2  0  0  0  0
  3  4  1  0  0  0  0
  4  5  2  0  0  0  0
  5  6  1  0  0  0  0
  6  1  2  0  0  0  0
  4  7  1  0  0  0  0
  7  8  1  0  0  0  0
  8  9  2  0  0  0  0
  9 10  1  0  0  0  0
 10  5  1  0  0  0  0
  8 11  1  0  0  0  0
 11 12  2  0  0  0  0
 12 13  1  0  0  0  0
 13 14  2  0  0  0  0
 14  9  1  0  0  0  0
  6 15  1  0  0  0  0
 10 16  2  0  0  0  0
  7 17  2  0  0  0  0
 14 18  1  0  0  0  0
 12 19  1  0  0  0  0
 19 20  1  0  0  0  0
 21 18  1  1  0  0  0
 21 22  1  0  0  0  0
 22 23  1  0  0  0  0
 23 24  1  0  0  0  0
 24 25  1  0  0  0  0
 25 26  1  0  0  0  0
 26 21  1  0  0  0  0
 23 27  1  1  0  0  0
 25 28  1  1  0  0  0
 26 29  1  6  0  0  0
 24 30  1  6  0  0  0
 27 31  1  0  0  0  0
M  END
>  <cdx:fragmentId>
5

$$$$
