60190.cdx
  Mrv1902 05222410242D          

 34 37  0  0  0  0            999 V2000
    4.7402   -9.3087    0.0000 O   0  0  0  0  0  0  0  0  0  0  0  0
   12.5993   -9.7212    0.0000 O   0  0  0  0  0  0  0  0  0  0  0  0
   13.3138   -9.3087    0.0000 C   0  0  0  0  0  0  0  0  0  0  0  0
   11.1704   -9.7212    0.0000 C   0  0  0  0  0  0  0  0  0  0  0  0
   11.8849   -9.3087    0.0000 C   0  0  0  0  0  0  0  0  0  0  0  0
   11.8849   -8.4838    0.0000 C   0  0  0  0  0  0  0  0  0  0  0  0
   11.1704   -8.0713    0.0000 C   0  0  0  0  0  0  0  0  0  0  0  0
    9.0270   -9.3087    0.0000 O   0  0  0  0  0  0  0  0  0  0  0  0
   10.4559   -9.3087    0.0000 C   0  0  0  0  0  0  0  0  0  0  0  0
   10.4559   -8.4838    0.0000 C   0  0  0  0  0  0  0  0  0  0  0  0
    1.8823   -6.0088    0.0000 O   0  0  0  0  0  0  0  0  0  0  0  0
    1.8823   -6.8338    0.0000 C   0  0  0  0  0  0  0  0  0  0  0  0
    1.1678   -7.2462    0.0000 C   0  0  0  0  0  0  0  0  0  0  0  0
    3.3112   -6.8338    0.0000 C   0  0  0  0  0  0  0  0  0  0  0  0
    2.5967   -7.2462    0.0000 O   0  0  0  0  0  0  0  0  0  0  0  0
    3.3112   -8.4838    0.0000 O   0  0  0  0  0  0  0  0  0  0  0  0
    4.7402   -6.8338    0.0000 O   0  0  0  0  0  0  0  0  0  0  0  0
    4.0257   -7.2462    0.0000 C   0  0  1  0  0  0  0  0  0  0  0  0
    4.0257   -8.0713    0.0000 C   0  0  2  0  0  0  0  0  0  0  0  0
    4.7402   -8.4838    0.0000 C   0  0  1  0  0  0  0  0  0  0  0  0
    6.1691   -6.8338    0.0000 O   0  0  0  0  0  0  0  0  0  0  0  0
    5.4546   -7.2462    0.0000 C   0  0  1  0  0  0  0  0  0  0  0  0
    5.4546   -8.0713    0.0000 C   0  0  2  0  0  0  0  0  0  0  0  0
    6.1691   -8.4838    0.0000 O   0  0  0  0  0  0  0  0  0  0  0  0
    7.5980   -6.8338    0.0000 C   0  0  0  0  0  0  0  0  0  0  0  0
    6.8836   -7.2462    0.0000 C   0  0  0  0  0  0  0  0  0  0  0  0
    6.8836   -8.0713    0.0000 C   0  0  0  0  0  0  0  0  0  0  0  0
    7.5980   -8.4838    0.0000 C   0  0  0  0  0  0  0  0  0  0  0  0
    9.0270   -6.8338    0.0000 O   0  0  0  0  0  0  0  0  0  0  0  0
    8.3125   -7.2462    0.0000 C   0  0  0  0  0  0  0  0  0  0  0  0
    8.3125   -8.0713    0.0000 C   0  0  0  0  0  0  0  0  0  0  0  0
    9.0270   -8.4838    0.0000 C   0  0  0  0  0  0  0  0  0  0  0  0
    9.7415   -8.0713    0.0000 C   0  0  0  0  0  0  0  0  0  0  0  0
    9.7415   -7.2462    0.0000 C   0  0  0  0  0  0  0  0  0  0  0  0
 20  1  1  1  0  0  0
  2  5  1  0  0  0  0
  3  2  1  0  0  0  0
  4  9  1  0  0  0  0
  5  4  2  0  0  0  0
  6  5  1  0  0  0  0
  7  6  2  0  0  0  0
 10  7  1  0  0  0  0
  8 32  2  0  0  0  0
 10  9  2  0  0  0  0
 33 10  1  0  0  0  0
 11 12  2  0  0  0  0
 12 15  1  0  0  0  0
 13 12  1  0  0  0  0
 18 14  1  1  0  0  0
 15 14  1  0  0  0  0
 19 16  1  6  0  0  0
 17 22  1  0  0  0  0
 18 17  1  0  0  0  0
 19 18  1  0  0  0  0
 20 19  1  0  0  0  0
 23 20  1  0  0  0  0
 21 26  1  0  0  0  0
 22 21  1  1  0  0  0
 23 22  1  0  0  0  0
 23 24  1  6  0  0  0
 25 30  2  0  0  0  0
 26 25  1  0  0  0  0
 27 26  2  0  0  0  0
 28 27  1  0  0  0  0
 31 28  2  0  0  0  0
 29 34  1  0  0  0  0
 30 29  1  0  0  0  0
 31 30  1  0  0  0  0
 32 31  1  0  0  0  0
 33 32  1  0  0  0  0
 34 33  2  0  0  0  0
M  END
>  <cdx:fragmentId>
5

$$$$
