60209.cdx
  Mrv1902 05222410252D          

 30 33  0  0  0  0            999 V2000
    5.6705   -6.5229    0.0000 O   0  0  0  0  0  0  0  0  0  0  0  0
    4.9562   -6.9356    0.0000 C   0  0  2  0  0  0  0  0  0  0  0  0
    4.2416   -6.5234    0.0000 O   0  0  0  0  0  0  0  0  0  0  0  0
    3.5272   -6.9361    0.0000 C   0  0  2  0  0  0  0  0  0  0  0  0
    3.5275   -7.7611    0.0000 C   0  0  1  0  0  0  0  0  0  0  0  0
    4.2421   -8.1734    0.0000 C   0  0  2  0  0  0  0  0  0  0  0  0
    4.9564   -7.7606    0.0000 C   0  0  1  0  0  0  0  0  0  0  0  0
    2.8131   -8.1738    0.0000 O   0  0  0  0  0  0  0  0  0  0  0  0
    2.8127   -6.5238    0.0000 C   0  0  0  0  0  0  0  0  0  0  0  0
    4.2423   -8.9984    0.0000 O   0  0  0  0  0  0  0  0  0  0  0  0
    5.6710   -8.1729    0.0000 O   0  0  0  0  0  0  0  0  0  0  0  0
   12.1195   -5.3869    0.0000 O   0  0  0  0  0  0  0  0  0  0  0  0
    8.4891   -9.0426    0.0000 O   0  0  0  0  0  0  0  0  0  0  0  0
    7.0603   -9.0201    0.0000 O   0  0  0  0  0  0  0  0  0  0  0  0
   11.3856   -6.6130    0.0000 C   0  0  0  0  0  0  0  0  0  0  0  0
   11.3986   -5.7881    0.0000 C   0  0  0  0  0  0  0  0  0  0  0  0
   10.6907   -5.3644    0.0000 C   0  0  0  0  0  0  0  0  0  0  0  0
    9.9698   -5.7656    0.0000 C   0  0  0  0  0  0  0  0  0  0  0  0
   10.6647   -7.0142    0.0000 C   0  0  0  0  0  0  0  0  0  0  0  0
    9.9568   -6.5905    0.0000 C   0  0  0  0  0  0  0  0  0  0  0  0
    8.5021   -8.2178    0.0000 C   0  0  0  0  0  0  0  0  0  0  0  0
    9.2229   -7.8166    0.0000 C   0  0  0  0  0  0  0  0  0  0  0  0
    9.2359   -6.9917    0.0000 C   0  0  0  0  0  0  0  0  0  0  0  0
    8.5281   -6.5680    0.0000 O   0  0  0  0  0  0  0  0  0  0  0  0
    6.3654   -7.7715    0.0000 C   0  0  0  0  0  0  0  0  0  0  0  0
    7.0733   -8.1952    0.0000 C   0  0  0  0  0  0  0  0  0  0  0  0
    7.7942   -7.7940    0.0000 C   0  0  0  0  0  0  0  0  0  0  0  0
    7.8072   -6.9692    0.0000 C   0  0  0  0  0  0  0  0  0  0  0  0
    6.3784   -6.9466    0.0000 C   0  0  0  0  0  0  0  0  0  0  0  0
    7.0993   -6.5454    0.0000 C   0  0  0  0  0  0  0  0  0  0  0  0
  2  1  1  1  0  0  0
  2  3  1  0  0  0  0
  3  4  1  0  0  0  0
  4  5  1  0  0  0  0
  5  6  1  0  0  0  0
  6  7  1  0  0  0  0
  7  2  1  0  0  0  0
  5  8  1  1  0  0  0
  4  9  1  6  0  0  0
  6 10  1  6  0  0  0
 16 12  1  0  0  0  0
 21 13  2  0  0  0  0
 26 14  1  0  0  0  0
 15 19  2  0  0  0  0
 16 15  1  0  0  0  0
 17 16  2  0  0  0  0
 18 17  1  0  0  0  0
 20 18  2  0  0  0  0
 20 19  1  0  0  0  0
 23 20  1  0  0  0  0
 21 27  1  0  0  0  0
 22 21  1  0  0  0  0
 23 22  2  0  0  0  0
 24 23  1  0  0  0  0
 28 24  1  0  0  0  0
 25 29  1  0  0  0  0
 26 25  2  0  0  0  0
 27 26  1  0  0  0  0
 28 27  2  0  0  0  0
 30 28  1  0  0  0  0
 29  1  1  0  0  0  0
 30 29  2  0  0  0  0
  7 11  1  6  0  0  0
M  END
>  <cdx:fragmentId>
250

$$$$
