60207.cdx
  Mrv1902 05222410202D          

 44 48  0  0  0  0            999 V2000
    7.0899   -8.5926    0.0000 O   0  0  0  0  0  0  0  0  0  0  0  0
    6.3749   -9.0042    0.0000 C   0  0  2  0  0  0  0  0  0  0  0  0
    5.6609   -8.5908    0.0000 O   0  0  0  0  0  0  0  0  0  0  0  0
    4.9459   -9.0024    0.0000 C   0  0  1  0  0  0  0  0  0  0  0  0
    4.9449   -9.8274    0.0000 C   0  0  2  0  0  0  0  0  0  0  0  0
    5.6588  -10.2408    0.0000 C   0  0  1  0  0  0  0  0  0  0  0  0
    6.3738   -9.8292    0.0000 C   0  0  1  0  0  0  0  0  0  0  0  0
    4.2320   -8.5890    0.0000 C   0  0  0  0  0  0  0  0  0  0  0  0
    5.6577  -11.0658    0.0000 O   0  0  0  0  0  0  0  0  0  0  0  0
    7.0877  -10.2426    0.0000 O   0  0  0  0  0  0  0  0  0  0  0  0
    4.2299  -10.2390    0.0000 O   0  0  0  0  0  0  0  0  0  0  0  0
    3.5170   -9.0005    0.0000 O   0  0  0  0  0  0  0  0  0  0  0  0
    4.2331   -7.7640    0.0000 O   0  0  0  0  0  0  0  0  0  0  0  0
    4.2288  -11.0640    0.0000 C   0  0  0  0  0  0  0  0  0  0  0  0
    3.5138  -11.4755    0.0000 C   0  0  0  0  0  0  0  0  0  0  0  0
    4.9427  -11.4774    0.0000 O   0  0  0  0  0  0  0  0  0  0  0  0
    3.5127  -12.3005    0.0000 C   0  0  0  0  0  0  0  0  0  0  0  0
    2.7977  -12.7121    0.0000 C   0  0  0  0  0  0  0  0  0  0  0  0
    2.0838  -12.2987    0.0000 C   0  0  0  0  0  0  0  0  0  0  0  0
    1.3688  -12.7103    0.0000 C   0  0  0  0  0  0  0  0  0  0  0  0
    1.3677  -13.5353    0.0000 C   0  0  0  0  0  0  0  0  0  0  0  0
    2.0817  -13.9487    0.0000 C   0  0  0  0  0  0  0  0  0  0  0  0
    2.7967  -13.5371    0.0000 C   0  0  0  0  0  0  0  0  0  0  0  0
    0.6527  -13.9468    0.0000 O   0  0  0  0  0  0  0  0  0  0  0  0
    0.6548  -12.2968    0.0000 O   0  0  0  0  0  0  0  0  0  0  0  0
   13.5201   -7.3551    0.0000 O   0  0  0  0  0  0  0  0  0  0  0  0
    9.9478  -11.0676    0.0000 O   0  0  0  0  0  0  0  0  0  0  0  0
    8.5188  -11.0676    0.0000 O   0  0  0  0  0  0  0  0  0  0  0  0
   12.8056   -8.5926    0.0000 C   0  0  0  0  0  0  0  0  0  0  0  0
   12.8056   -7.7676    0.0000 C   0  0  0  0  0  0  0  0  0  0  0  0
   12.0912   -7.3551    0.0000 C   0  0  0  0  0  0  0  0  0  0  0  0
   11.3767   -7.7676    0.0000 C   0  0  0  0  0  0  0  0  0  0  0  0
   12.0912   -9.0051    0.0000 C   0  0  0  0  0  0  0  0  0  0  0  0
   11.3767   -8.5926    0.0000 C   0  0  0  0  0  0  0  0  0  0  0  0
    9.9478  -10.2426    0.0000 C   0  0  0  0  0  0  0  0  0  0  0  0
   10.6622   -9.8301    0.0000 C   0  0  0  0  0  0  0  0  0  0  0  0
   10.6622   -9.0051    0.0000 C   0  0  0  0  0  0  0  0  0  0  0  0
    9.9478   -8.5926    0.0000 O   0  0  0  0  0  0  0  0  0  0  0  0
    7.8044   -9.8301    0.0000 C   0  0  0  0  0  0  0  0  0  0  0  0
    8.5188  -10.2426    0.0000 C   0  0  0  0  0  0  0  0  0  0  0  0
    9.2333   -9.8301    0.0000 C   0  0  0  0  0  0  0  0  0  0  0  0
    9.2333   -9.0051    0.0000 C   0  0  0  0  0  0  0  0  0  0  0  0
    7.8044   -9.0051    0.0000 C   0  0  0  0  0  0  0  0  0  0  0  0
    8.5188   -8.5926    0.0000 C   0  0  0  0  0  0  0  0  0  0  0  0
  2  1  1  1  0  0  0
  2  3  1  0  0  0  0
  3  4  1  0  0  0  0
  4  5  1  0  0  0  0
  5  6  1  0  0  0  0
  6  7  1  0  0  0  0
  7  2  1  0  0  0  0
  4  8  1  1  0  0  0
  6  9  1  1  0  0  0
  7 10  1  6  0  0  0
  5 11  1  6  0  0  0
  8 12  1  0  0  0  0
  8 13  2  0  0  0  0
 11 14  1  0  0  0  0
 14 15  1  0  0  0  0
 14 16  2  0  0  0  0
 15 17  2  0  0  0  0
 17 18  1  0  0  0  0
 18 19  2  0  0  0  0
 19 20  1  0  0  0  0
 20 21  2  0  0  0  0
 21 22  1  0  0  0  0
 22 23  2  0  0  0  0
 23 18  1  0  0  0  0
 21 24  1  0  0  0  0
 30 26  1  0  0  0  0
 35 27  2  0  0  0  0
 40 28  1  0  0  0  0
 29 33  2  0  0  0  0
 30 29  1  0  0  0  0
 31 30  2  0  0  0  0
 32 31  1  0  0  0  0
 34 32  2  0  0  0  0
 34 33  1  0  0  0  0
 37 34  1  0  0  0  0
 35 41  1  0  0  0  0
 36 35  1  0  0  0  0
 37 36  2  0  0  0  0
 38 37  1  0  0  0  0
 42 38  1  0  0  0  0
 39 43  1  0  0  0  0
 40 39  2  0  0  0  0
 41 40  1  0  0  0  0
 42 41  2  0  0  0  0
 44 42  1  0  0  0  0
 43  1  1  0  0  0  0
 44 43  2  0  0  0  0
 20 25  1  0  0  0  0
M  END
>  <cdx:fragmentId>
142

$$$$
