60204.cdx
  Mrv1902 05222410212D          

 40 44  0  0  0  0            999 V2000
    7.3037   -6.1534    0.0000 H   0  0  0  0  0  0  0  0  0  0  0  0
    5.1603   -5.7409    0.0000 O   0  0  0  0  0  0  0  0  0  0  0  0
    6.5893   -3.2659    0.0000 O   0  0  0  0  0  0  0  0  0  0  0  0
    5.1603   -4.0909    0.0000 O   0  0  0  0  0  0  0  0  0  0  0  0
    5.1603   -7.3909    0.0000 H   0  0  0  0  0  0  0  0  0  0  0  0
    5.8748   -9.4534    0.0000 O   0  0  0  0  0  0  0  0  0  0  0  0
    4.4459  -10.2784    0.0000 O   0  0  0  0  0  0  0  0  0  0  0  0
    3.0169   -9.4534    0.0000 O   0  0  0  0  0  0  0  0  0  0  0  0
    7.3037   -5.3284    0.0000 O   0  0  0  0  0  0  0  0  0  0  0  0
    7.3037   -4.5034    0.0000 C   0  0  0  0  0  0  0  0  0  0  0  0
    6.5893   -4.0909    0.0000 C   0  0  1  0  0  0  0  0  0  0  0  0
    5.8748   -4.5034    0.0000 C   0  0  1  0  0  0  0  0  0  0  0  0
    5.8748   -5.3284    0.0000 C   0  0  2  0  0  0  0  0  0  0  0  0
    4.4459   -7.8034    0.0000 O   0  0  0  0  0  0  0  0  0  0  0  0
    3.7314   -8.2159    0.0000 C   0  0  0  0  0  0  0  0  0  0  0  0
    3.7314   -9.0409    0.0000 C   0  0  1  0  0  0  0  0  0  0  0  0
    4.4459   -9.4534    0.0000 C   0  0  1  0  0  0  0  0  0  0  0  0
    5.1603   -9.0409    0.0000 C   0  0  2  0  0  0  0  0  0  0  0  0
    6.5893   -5.7409    0.0000 C   0  0  2  0  0  0  0  0  0  0  0  0
    5.1603   -8.2159    0.0000 C   0  0  2  0  0  0  0  0  0  0  0  0
   11.5906   -5.3284    0.0000 O   0  0  0  0  0  0  0  0  0  0  0  0
    5.1603   -6.5659    0.0000 O   0  0  0  0  0  0  0  0  0  0  0  0
   10.8761   -6.5659    0.0000 C   0  0  0  0  0  0  0  0  0  0  0  0
   10.8761   -5.7409    0.0000 C   0  0  0  0  0  0  0  0  0  0  0  0
   10.1616   -5.3284    0.0000 C   0  0  0  0  0  0  0  0  0  0  0  0
    9.4472   -5.7409    0.0000 C   0  0  0  0  0  0  0  0  0  0  0  0
   10.1616   -6.9784    0.0000 C   0  0  0  0  0  0  0  0  0  0  0  0
    9.4472   -6.5659    0.0000 C   0  0  0  0  0  0  0  0  0  0  0  0
    6.5893   -9.0409    0.0000 O   0  0  0  0  0  0  0  0  0  0  0  0
    8.0182   -9.0409    0.0000 O   0  0  0  0  0  0  0  0  0  0  0  0
    8.0182   -8.2159    0.0000 C   0  0  0  0  0  0  0  0  0  0  0  0
    8.7327   -7.8034    0.0000 C   0  0  0  0  0  0  0  0  0  0  0  0
    8.7327   -6.9784    0.0000 C   0  0  0  0  0  0  0  0  0  0  0  0
    8.0182   -6.5659    0.0000 O   0  0  0  0  0  0  0  0  0  0  0  0
    6.5893   -8.2159    0.0000 C   0  0  0  0  0  0  0  0  0  0  0  0
    7.3037   -7.8034    0.0000 C   0  0  0  0  0  0  0  0  0  0  0  0
    7.3037   -6.9784    0.0000 C   0  0  0  0  0  0  0  0  0  0  0  0
    6.5893   -6.5659    0.0000 C   0  0  0  0  0  0  0  0  0  0  0  0
    5.8748   -6.9784    0.0000 C   0  0  0  0  0  0  0  0  0  0  0  0
    5.8748   -7.8034    0.0000 C   0  0  0  0  0  0  0  0  0  0  0  0
 19  1  1  6  0  0  0
 13  2  1  6  0  0  0
 11  3  1  1  0  0  0
 12  4  1  1  0  0  0
 20  5  1  6  0  0  0
 18  6  1  6  0  0  0
 17  7  1  1  0  0  0
 16  8  1  1  0  0  0
  9 19  1  0  0  0  0
 10  9  1  0  0  0  0
 11 10  1  0  0  0  0
 12 11  1  0  0  0  0
 13 12  1  0  0  0  0
 19 13  1  0  0  0  0
 14 20  1  0  0  0  0
 15 14  1  0  0  0  0
 16 15  1  0  0  0  0
 17 16  1  0  0  0  0
 18 17  1  0  0  0  0
 20 18  1  0  0  0  0
 38 19  1  0  0  0  0
 40 20  1  0  0  0  0
 24 21  1  0  0  0  0
 39 22  1  0  0  0  0
 23 27  1  0  0  0  0
 24 23  2  0  0  0  0
 25 24  1  0  0  0  0
 26 25  2  0  0  0  0
 28 26  1  0  0  0  0
 28 27  2  0  0  0  0
 33 28  1  0  0  0  0
 29 35  1  0  0  0  0
 31 30  2  0  0  0  0
 31 36  1  0  0  0  0
 32 31  1  0  0  0  0
 33 32  2  0  0  0  0
 34 33  1  0  0  0  0
 37 34  1  0  0  0  0
 35 40  1  0  0  0  0
 36 35  2  0  0  0  0
 37 36  1  0  0  0  0
 38 37  2  0  0  0  0
 39 38  1  0  0  0  0
 40 39  2  0  0  0  0
M  END
>  <cdx:fragmentId>
5

$$$$
