60201.cdx
  Mrv1902 05222410222D          

 20 23  0  0  0  0            999 V2000
    4.6318  -10.9164    0.0000 C   0  0  0  0  0  0  0  0  0  0  0  0
    4.6318  -11.7414    0.0000 C   0  0  0  0  0  0  0  0  0  0  0  0
    5.3463  -12.1539    0.0000 C   0  0  0  0  0  0  0  0  0  0  0  0
    6.0607  -11.7414    0.0000 N   0  0  0  0  0  0  0  0  0  0  0  0
    6.0607  -10.9164    0.0000 C   0  0  2  0  0  0  0  0  0  0  0  0
    5.3463  -10.5039    0.0000 C   0  0  1  0  0  0  0  0  0  0  0  0
    6.7752  -12.1539    0.0000 C   0  0  0  0  0  0  0  0  0  0  0  0
    7.4897  -11.7414    0.0000 C   0  0  0  0  0  0  0  0  0  0  0  0
    7.4897  -10.9164    0.0000 C   0  0  0  0  0  0  0  0  0  0  0  0
    6.7752  -10.5039    0.0000 C   0  0  0  0  0  0  0  0  0  0  0  0
    6.7752   -9.6789    0.0000 C   0  0  2  0  0  0  0  0  0  0  0  0
    6.0607   -9.2664    0.0000 C   0  0  0  0  0  0  0  0  0  0  0  0
    5.3463   -9.6789    0.0000 C   0  0  0  0  0  0  0  0  0  0  0  0
    4.6318   -9.2664    0.0000 O   0  0  0  0  0  0  0  0  0  0  0  0
    5.8682  -10.5732    0.0000 C   0  0  0  0  0  0  0  0  0  0  0  0
    5.7714   -9.9747    0.0000 C   0  0  2  0  0  0  0  0  0  0  0  0
    6.3632   -9.6309    0.0000 C   0  0  0  0  0  0  0  0  0  0  0  0
    5.5579   -9.1778    0.0000 C   0  0  0  0  0  0  0  0  0  0  0  0
    4.6318  -10.0914    0.0000 H   0  0  0  0  0  0  0  0  0  0  0  0
    7.1877   -8.9644    0.0000 H   0  0  0  0  0  0  0  0  0  0  0  0
  1  2  1  0  0  0  0
  2  3  1  0  0  0  0
  3  4  1  0  0  0  0
  5  4  1  6  0  0  0
  5  6  1  0  0  0  0
  6  1  1  0  0  0  0
  4  7  1  0  0  0  0
  7  8  1  0  0  0  0
  8  9  1  0  0  0  0
  9 10  2  0  0  0  0
 10  5  1  0  0  0  0
 10 11  1  0  0  0  0
 11 12  1  0  0  0  0
 12 13  1  0  0  0  0
 13  6  1  0  0  0  0
 13 14  2  0  0  0  0
  5 15  1  0  0  0  0
 15 16  1  0  0  0  0
 16 17  1  0  0  0  0
 17 11  1  0  0  0  0
 16 18  1  1  0  0  0
  6 19  1  1  0  0  0
 11 20  1  1  0  0  0
M  END
>  <cdx:fragmentId>
5

$$$$
