60203.cdx
  Mrv1902 05222410232D          

 19 21  0  0  0  0            999 V2000
    4.6868   -5.5814    0.0000 C   0  0  0  0  0  0  0  0  0  0  0  0
    4.6868   -6.4064    0.0000 C   0  0  0  0  0  0  0  0  0  0  0  0
    5.4013   -6.8189    0.0000 C   0  0  0  0  0  0  0  0  0  0  0  0
    6.1157   -6.4064    0.0000 C   0  0  0  0  0  0  0  0  0  0  0  0
    6.1157   -5.5814    0.0000 C   0  0  0  0  0  0  0  0  0  0  0  0
    5.4013   -5.1689    0.0000 C   0  0  0  0  0  0  0  0  0  0  0  0
    6.8302   -6.8189    0.0000 O   0  3  0  0  0  0  0  0  0  0  0  0
    7.5447   -6.4064    0.0000 C   0  0  0  0  0  0  0  0  0  0  0  0
    7.5447   -5.5814    0.0000 C   0  0  0  0  0  0  0  0  0  0  0  0
    6.8302   -5.1689    0.0000 C   0  0  0  0  0  0  0  0  0  0  0  0
    5.4013   -4.3439    0.0000 O   0  0  0  0  0  0  0  0  0  0  0  0
    8.2592   -6.8189    0.0000 C   0  0  0  0  0  0  0  0  0  0  0  0
    8.9736   -6.4064    0.0000 C   0  0  0  0  0  0  0  0  0  0  0  0
    8.2592   -7.6439    0.0000 C   0  0  0  0  0  0  0  0  0  0  0  0
    8.9736   -8.0564    0.0000 C   0  0  0  0  0  0  0  0  0  0  0  0
    9.6881   -7.6439    0.0000 C   0  0  0  0  0  0  0  0  0  0  0  0
    9.6881   -6.8189    0.0000 C   0  0  0  0  0  0  0  0  0  0  0  0
    3.9723   -6.8189    0.0000 O   0  0  0  0  0  0  0  0  0  0  0  0
   10.4026   -8.0564    0.0000 O   0  0  0  0  0  0  0  0  0  0  0  0
  1  2  2  0  0  0  0
  2  3  1  0  0  0  0
  3  4  2  0  0  0  0
  4  5  1  0  0  0  0
  5  6  2  0  0  0  0
  6  1  1  0  0  0  0
  4  7  1  0  0  0  0
  7  8  2  0  0  0  0
  8  9  1  0  0  0  0
  9 10  2  0  0  0  0
 10  5  1  0  0  0  0
 11  6  1  0  0  0  0
  8 12  1  0  0  0  0
 12 13  2  0  0  0  0
 12 14  1  0  0  0  0
 14 15  2  0  0  0  0
 15 16  1  0  0  0  0
 16 17  2  0  0  0  0
 17 13  1  0  0  0  0
  2 18  1  0  0  0  0
 16 19  1  0  0  0  0
M  CHG  1   7   1
M  END
>  <cdx:fragmentId>
5

$$$$
