21602024.cdx
  Mrv1902 05222410192D          

 33 35  0  0  0  0            999 V2000
    7.3945  -15.0012    0.0000 C   0  0  1  0  0  0  0  0  0  0  0  0
    8.1089  -14.5887    0.0000 C   0  0  1  0  0  0  0  0  0  0  0  0
    8.1089  -13.7637    0.0000 C   0  0  1  0  0  0  0  0  0  0  0  0
    7.3945  -13.3513    0.0000 C   0  0  0  0  0  0  0  0  0  0  0  0
    6.6800  -13.7637    0.0000 C   0  0  0  0  0  0  0  0  0  0  0  0
    6.6800  -14.5887    0.0000 O   0  0  0  0  0  0  0  0  0  0  0  0
    8.8936  -13.5088    0.0000 C   0  0  2  0  0  0  0  0  0  0  0  0
    9.3785  -14.1762    0.0000 C   0  0  0  0  0  0  0  0  0  0  0  0
    8.8936  -14.8437    0.0000 C   0  0  0  0  0  0  0  0  0  0  0  0
    7.3945  -12.5263    0.0000 C   0  0  0  0  0  0  0  0  0  0  0  0
    8.1089  -12.1138    0.0000 O   0  0  0  0  0  0  0  0  0  0  0  0
    6.6800  -12.1138    0.0000 O   0  0  0  0  0  0  0  0  0  0  0  0
    7.3945  -15.8263    0.0000 O   0  0  0  0  0  0  0  0  0  0  0  0
    5.9655  -15.8263    0.0000 O   0  0  0  0  0  0  0  0  0  0  0  0
    6.6800  -16.2387    0.0000 C   0  0  2  0  0  0  0  0  0  0  0  0
    6.6800  -17.0637    0.0000 C   0  0  1  0  0  0  0  0  0  0  0  0
    5.9655  -17.4763    0.0000 C   0  0  2  0  0  0  0  0  0  0  0  0
    5.2511  -17.0637    0.0000 C   0  0  1  0  0  0  0  0  0  0  0  0
    5.2511  -16.2387    0.0000 C   0  0  1  0  0  0  0  0  0  0  0  0
    4.5366  -15.8263    0.0000 C   0  0  0  0  0  0  0  0  0  0  0  0
    3.8221  -16.2387    0.0000 O   0  0  0  0  0  0  0  0  0  0  0  0
    4.5366  -17.4763    0.0000 O   0  0  0  0  0  0  0  0  0  0  0  0
    5.9655  -18.3012    0.0000 O   0  0  0  0  0  0  0  0  0  0  0  0
    7.3945  -17.4763    0.0000 O   0  0  0  0  0  0  0  0  0  0  0  0
    9.1485  -12.7242    0.0000 O   0  0  0  0  0  0  0  0  0  0  0  0
    9.1485  -15.6283    0.0000 C   0  0  0  0  0  0  0  0  0  0  0  0
    9.9555  -15.7998    0.0000 O   0  0  0  0  0  0  0  0  0  0  0  0
   10.2104  -16.5845    0.0000 C   0  0  0  0  0  0  0  0  0  0  0  0
    9.6584  -17.1976    0.0000 O   0  0  0  0  0  0  0  0  0  0  0  0
   11.0174  -16.7560    0.0000 C   0  0  0  0  0  0  0  0  0  0  0  0
    8.1952  -12.9433    0.0000 H   0  0  0  0  0  0  0  0  0  0  0  0
    8.1952  -15.4092    0.0000 H   0  0  0  0  0  0  0  0  0  0  0  0
    6.6800  -11.2888    0.0000 C   0  0  0  0  0  0  0  0  0  0  0  0
  1  2  1  0  0  0  0
  2  3  1  0  0  0  0
  3  4  1  0  0  0  0
  4  5  2  0  0  0  0
  5  6  1  0  0  0  0
  1  6  1  0  0  0  0
  7  8  1  0  0  0  0
  8  9  2  0  0  0  0
  9  2  1  0  0  0  0
  7  3  1  0  0  0  0
 10 11  2  0  0  0  0
 10 12  1  0  0  0  0
  4 10  1  0  0  0  0
 14 15  1  0  0  0  0
 15 16  1  0  0  0  0
 16 17  1  0  0  0  0
 17 18  1  0  0  0  0
 18 19  1  0  0  0  0
 14 19  1  0  0  0  0
 20 21  1  0  0  0  0
 19 20  1  1  0  0  0
 18 22  1  6  0  0  0
 17 23  1  1  0  0  0
 16 24  1  6  0  0  0
 15 13  1  1  0  0  0
  1 13  1  6  0  0  0
  7 25  1  1  0  0  0
 28 29  2  0  0  0  0
 28 30  1  0  0  0  0
 27 28  1  0  0  0  0
 26 27  1  0  0  0  0
  9 26  1  0  0  0  0
  3 31  1  6  0  0  0
  2 32  1  6  0  0  0
 12 33  1  0  0  0  0
M  END
>  <cdx:groupId>
134519

>  <cdx:fragmentId>
134421

$$$$
