10602086.cdx
  Mrv1902 05222410222D          

 37 40  0  0  0  0            999 V2000
   11.4654   -8.2127    0.0000 O   0  0  0  0  0  0  0  0  0  0  0  0
   11.8779   -7.4982    0.0000 C   0  0  1  0  0  0  0  0  0  0  0  0
   11.4654   -6.7838    0.0000 C   0  0  2  0  0  0  0  0  0  0  0  0
   10.6404   -6.7838    0.0000 C   0  0  1  0  0  0  0  0  0  0  0  0
   10.2279   -7.4982    0.0000 C   0  0  2  0  0  0  0  0  0  0  0  0
   10.6404   -8.2127    0.0000 C   0  0  2  0  0  0  0  0  0  0  0  0
   11.8779   -6.0693    0.0000 O   0  0  0  0  0  0  0  0  0  0  0  0
   10.2279   -6.0693    0.0000 O   0  0  0  0  0  0  0  0  0  0  0  0
    9.4029   -7.4982    0.0000 O   0  0  0  0  0  0  0  0  0  0  0  0
   10.2279   -8.9272    0.0000 O   0  0  0  0  0  0  0  0  0  0  0  0
    9.4029   -8.9272    0.0000 C   0  0  0  0  0  0  0  0  0  0  0  0
    8.9904   -9.6416    0.0000 C   0  0  0  0  0  0  0  0  0  0  0  0
    8.1654   -9.6416    0.0000 C   0  0  0  0  0  0  0  0  0  0  0  0
    7.7529   -8.9272    0.0000 C   0  0  0  0  0  0  0  0  0  0  0  0
    8.1654   -8.2127    0.0000 C   0  0  0  0  0  0  0  0  0  0  0  0
    8.9904   -8.2127    0.0000 C   0  0  0  0  0  0  0  0  0  0  0  0
    9.4029  -10.3561    0.0000 O   0  0  0  0  0  0  0  0  0  0  0  0
   10.2279  -10.3561    0.0000 C   0  0  0  0  0  0  0  0  0  0  0  0
    6.4430   -9.5946    0.0000 O   0  0  0  0  0  0  0  0  0  0  0  0
    6.9279   -8.9272    0.0000 C   0  0  1  0  0  0  0  0  0  0  0  0
    6.4430   -8.2597    0.0000 C   0  0  2  0  0  0  0  0  0  0  0  0
    5.6584   -8.5147    0.0000 C   0  0  0  0  0  0  0  0  0  0  0  0
    4.9439   -8.1022    0.0000 C   0  0  0  0  0  0  0  0  0  0  0  0
    4.2294   -8.5147    0.0000 C   0  0  0  0  0  0  0  0  0  0  0  0
    4.2294   -9.3397    0.0000 C   0  0  0  0  0  0  0  0  0  0  0  0
    4.9439   -9.7522    0.0000 C   0  0  0  0  0  0  0  0  0  0  0  0
    5.6584   -9.3397    0.0000 C   0  0  0  0  0  0  0  0  0  0  0  0
    4.9439  -10.5772    0.0000 O   0  0  0  0  0  0  0  0  0  0  0  0
    4.2294  -10.9897    0.0000 C   0  0  0  0  0  0  0  0  0  0  0  0
    3.5150   -8.1022    0.0000 C   0  0  0  0  0  0  0  0  0  0  0  0
    2.8005   -8.5147    0.0000 C   0  0  0  0  0  0  0  0  0  0  0  0
    2.0860   -8.1022    0.0000 C   0  0  0  0  0  0  0  0  0  0  0  0
    1.3716   -8.5147    0.0000 O   0  0  0  0  0  0  0  0  0  0  0  0
    6.6980   -7.4751    0.0000 C   0  0  0  0  0  0  0  0  0  0  0  0
    7.5049   -7.3036    0.0000 O   0  0  0  0  0  0  0  0  0  0  0  0
   12.7029   -7.4982    0.0000 C   0  0  0  0  0  0  0  0  0  0  0  0
   13.1154   -8.2127    0.0000 O   0  0  0  0  0  0  0  0  0  0  0  0
  1  2  1  0  0  0  0
  2  3  1  0  0  0  0
  3  4  1  0  0  0  0
  4  5  1  0  0  0  0
  5  6  1  0  0  0  0
  1  6  1  0  0  0  0
  3  7  1  6  0  0  0
  4  8  1  1  0  0  0
  5  9  1  6  0  0  0
 11 12  1  0  0  0  0
 12 13  2  0  0  0  0
 13 14  1  0  0  0  0
 14 15  2  0  0  0  0
 15 16  1  0  0  0  0
 11 16  2  0  0  0  0
 10 11  1  0  0  0  0
 17 18  1  0  0  0  0
 12 17  1  0  0  0  0
 19 20  1  0  0  0  0
 20 21  1  0  0  0  0
 21 22  1  0  0  0  0
 22 23  1  0  0  0  0
 23 24  2  0  0  0  0
 24 25  1  0  0  0  0
 25 26  2  0  0  0  0
 26 27  1  0  0  0  0
 22 27  2  0  0  0  0
 19 27  1  0  0  0  0
 28 29  1  0  0  0  0
 26 28  1  0  0  0  0
 30 31  1  0  0  0  0
 31 32  1  0  0  0  0
 32 33  1  0  0  0  0
 24 30  1  0  0  0  0
 34 35  1  0  0  0  0
 21 34  1  6  0  0  0
 20 14  1  1  0  0  0
  6 10  1  1  0  0  0
 36 37  1  0  0  0  0
  2 36  1  1  0  0  0
M  END
>  <cdx:fragmentId>
55715

$$$$
