60212.cdx
  Mrv1902 05222410212D          

 37 40  0  0  0  0            999 V2000
    7.1354   -8.1966    0.0000 O   0  0  0  0  0  0  0  0  0  0  0  0
    6.4209   -8.6091    0.0000 C   0  0  2  0  0  0  0  0  0  0  0  0
    5.7064   -8.1965    0.0000 O   0  0  0  0  0  0  0  0  0  0  0  0
    4.9919   -8.6090    0.0000 C   0  0  1  0  0  0  0  0  0  0  0  0
    4.9919   -9.4340    0.0000 C   0  0  2  0  0  0  0  0  0  0  0  0
    5.7064   -9.8465    0.0000 C   0  0  1  0  0  0  0  0  0  0  0  0
    6.4209   -9.4341    0.0000 C   0  0  1  0  0  0  0  0  0  0  0  0
    4.2774   -9.8465    0.0000 O   0  0  0  0  0  0  0  0  0  0  0  0
    4.2775   -8.1965    0.0000 C   0  0  0  0  0  0  0  0  0  0  0  0
    5.7063  -10.6715    0.0000 O   0  0  0  0  0  0  0  0  0  0  0  0
    7.1353   -9.8466    0.0000 O   0  0  0  0  0  0  0  0  0  0  0  0
    3.5630   -8.6089    0.0000 O   0  0  0  0  0  0  0  0  0  0  0  0
    2.8486   -8.1964    0.0000 C   0  0  0  0  0  0  0  0  0  0  0  0
    2.1341   -8.6089    0.0000 C   0  0  0  0  0  0  0  0  0  0  0  0
    1.4196   -8.1963    0.0000 C   0  0  0  0  0  0  0  0  0  0  0  0
    0.7051   -8.6088    0.0000 O   0  0  0  0  0  0  0  0  0  0  0  0
    1.4197   -7.3713    0.0000 O   0  0  0  0  0  0  0  0  0  0  0  0
    2.8486   -7.3714    0.0000 O   0  0  0  0  0  0  0  0  0  0  0  0
   13.5651   -6.9562    0.0000 O   0  0  0  0  0  0  0  0  0  0  0  0
    9.9944  -10.6703    0.0000 O   0  0  0  0  0  0  0  0  0  0  0  0
    8.5654  -10.6710    0.0000 O   0  0  0  0  0  0  0  0  0  0  0  0
   12.8511   -8.1940    0.0000 C   0  0  0  0  0  0  0  0  0  0  0  0
   12.8508   -7.3690    0.0000 C   0  0  0  0  0  0  0  0  0  0  0  0
   12.1361   -6.9569    0.0000 C   0  0  0  0  0  0  0  0  0  0  0  0
   11.4218   -7.3697    0.0000 C   0  0  0  0  0  0  0  0  0  0  0  0
   12.1369   -8.6069    0.0000 C   0  0  0  0  0  0  0  0  0  0  0  0
   11.4222   -8.1947    0.0000 C   0  0  0  0  0  0  0  0  0  0  0  0
    9.9940   -9.8453    0.0000 C   0  0  0  0  0  0  0  0  0  0  0  0
   10.7083   -9.4325    0.0000 C   0  0  0  0  0  0  0  0  0  0  0  0
   10.7079   -8.6075    0.0000 C   0  0  0  0  0  0  0  0  0  0  0  0
    9.9933   -8.1953    0.0000 O   0  0  0  0  0  0  0  0  0  0  0  0
    7.8504   -9.4338    0.0000 C   0  0  0  0  0  0  0  0  0  0  0  0
    8.5651   -9.8460    0.0000 C   0  0  0  0  0  0  0  0  0  0  0  0
    9.2793   -9.4331    0.0000 C   0  0  0  0  0  0  0  0  0  0  0  0
    9.2790   -8.6081    0.0000 C   0  0  0  0  0  0  0  0  0  0  0  0
    7.8500   -8.6088    0.0000 C   0  0  0  0  0  0  0  0  0  0  0  0
    8.5643   -8.1960    0.0000 C   0  0  0  0  0  0  0  0  0  0  0  0
  2  1  1  1  0  0  0
  2  3  1  0  0  0  0
  3  4  1  0  0  0  0
  4  5  1  0  0  0  0
  5  6  1  0  0  0  0
  6  7  1  0  0  0  0
  7  2  1  0  0  0  0
  5  8  1  6  0  0  0
  4  9  1  1  0  0  0
  6 10  1  1  0  0  0
  7 11  1  6  0  0  0
  9 12  1  0  0  0  0
 12 13  1  0  0  0  0
 13 14  1  0  0  0  0
 14 15  1  0  0  0  0
 15 16  1  0  0  0  0
 15 17  2  0  0  0  0
 23 19  1  0  0  0  0
 28 20  2  0  0  0  0
 33 21  1  0  0  0  0
 22 26  2  0  0  0  0
 23 22  1  0  0  0  0
 24 23  2  0  0  0  0
 25 24  1  0  0  0  0
 27 25  2  0  0  0  0
 27 26  1  0  0  0  0
 30 27  1  0  0  0  0
 28 34  1  0  0  0  0
 29 28  1  0  0  0  0
 30 29  2  0  0  0  0
 31 30  1  0  0  0  0
 35 31  1  0  0  0  0
 32 36  1  0  0  0  0
 33 32  2  0  0  0  0
 34 33  1  0  0  0  0
 35 34  2  0  0  0  0
 37 35  1  0  0  0  0
 36  1  1  0  0  0  0
 37 36  2  0  0  0  0
 13 18  2  0  0  0  0
M  END
>  <cdx:fragmentId>
250

$$$$
