60218.cdx
  Mrv1902 05222410242D          

 53 58  0  0  0  0            999 V2000
    9.9149   -8.6297    0.0000 C   0  0  0  0  0  0  0  0  0  0  0  0
    9.2000   -9.0415    0.0000 C   0  0  0  0  0  0  0  0  0  0  0  0
    9.1992   -9.8665    0.0000 O   0  0  0  0  0  0  0  0  0  0  0  0
    9.9157   -7.8047    0.0000 C   0  0  0  0  0  0  0  0  0  0  0  0
    9.2017   -7.3915    0.0000 C   0  0  0  0  0  0  0  0  0  0  0  0
    8.4868   -7.8033    0.0000 C   0  0  0  0  0  0  0  0  0  0  0  0
    8.4860   -8.6283    0.0000 C   0  0  0  0  0  0  0  0  0  0  0  0
   10.6306   -7.3929    0.0000 O   0  0  0  0  0  0  0  0  0  0  0  0
   10.6314   -6.5679    0.0000 C   0  0  0  0  0  0  0  0  0  0  0  0
    9.9173   -6.1547    0.0000 C   0  0  0  0  0  0  0  0  0  0  0  0
    9.2025   -6.5665    0.0000 C   0  0  0  0  0  0  0  0  0  0  0  0
   11.3463   -6.1561    0.0000 C   0  0  0  0  0  0  0  0  0  0  0  0
   11.3471   -5.3311    0.0000 C   0  0  0  0  0  0  0  0  0  0  0  0
   12.0604   -6.5693    0.0000 C   0  0  0  0  0  0  0  0  0  0  0  0
   12.7752   -6.1575    0.0000 C   0  0  0  0  0  0  0  0  0  0  0  0
   12.7760   -5.3325    0.0000 C   0  0  0  0  0  0  0  0  0  0  0  0
   12.0620   -4.9193    0.0000 C   0  0  0  0  0  0  0  0  0  0  0  0
    7.7727   -7.3901    0.0000 O   0  0  0  0  0  0  0  0  0  0  0  0
    8.4884   -6.1533    0.0000 O   0  0  0  0  0  0  0  0  0  0  0  0
   13.4909   -4.9207    0.0000 O   0  0  0  0  0  0  0  0  0  0  0  0
    8.4847  -10.2790    0.0000 C   0  0  2  0  0  0  0  0  0  0  0  0
    7.7703   -9.8665    0.0000 O   0  0  0  0  0  0  0  0  0  0  0  0
    7.0558  -10.2790    0.0000 C   0  0  1  0  0  0  0  0  0  0  0  0
    7.0558  -11.1040    0.0000 C   0  0  2  0  0  0  0  0  0  0  0  0
    7.7703  -11.5165    0.0000 C   0  0  1  0  0  0  0  0  0  0  0  0
    8.4847  -11.1040    0.0000 C   0  0  1  0  0  0  0  0  0  0  0  0
    6.3413  -11.5165    0.0000 O   0  0  0  0  0  0  0  0  0  0  0  0
    6.3413   -9.8665    0.0000 C   0  0  0  0  0  0  0  0  0  0  0  0
    7.7703  -12.3415    0.0000 O   0  0  0  0  0  0  0  0  0  0  0  0
    9.1992  -11.5165    0.0000 O   0  0  0  0  0  0  0  0  0  0  0  0
    5.6269  -10.2790    0.0000 O   0  0  0  0  0  0  0  0  0  0  0  0
    4.9124   -9.8665    0.0000 C   0  0  0  0  0  0  0  0  0  0  0  0
    4.1979  -10.2790    0.0000 C   0  0  0  0  0  0  0  0  0  0  0  0
    3.4835   -9.8665    0.0000 C   0  0  0  0  0  0  0  0  0  0  0  0
    2.7690  -10.2790    0.0000 C   0  0  0  0  0  0  0  0  0  0  0  0
    2.0545   -9.8665    0.0000 C   0  0  0  0  0  0  0  0  0  0  0  0
    1.3400  -10.2790    0.0000 C   0  0  0  0  0  0  0  0  0  0  0  0
    1.3400  -11.1040    0.0000 C   0  0  0  0  0  0  0  0  0  0  0  0
    2.0545  -11.5165    0.0000 C   0  0  0  0  0  0  0  0  0  0  0  0
    2.7690  -11.1040    0.0000 C   0  0  0  0  0  0  0  0  0  0  0  0
    0.6256  -11.5165    0.0000 O   0  0  0  0  0  0  0  0  0  0  0  0
    4.9124   -9.0415    0.0000 O   0  0  0  0  0  0  0  0  0  0  0  0
    7.0606  -12.7646    0.0000 C   0  0  0  0  0  0  0  0  0  0  0  0
    7.0633  -13.5896    0.0000 C   0  0  0  0  0  0  0  0  0  0  0  0
    6.3502  -14.0044    0.0000 C   0  0  0  0  0  0  0  0  0  0  0  0
    6.3529  -14.8294    0.0000 C   0  0  0  0  0  0  0  0  0  0  0  0
    5.6398  -15.2442    0.0000 C   0  0  0  0  0  0  0  0  0  0  0  0
    5.6425  -16.0692    0.0000 C   0  0  0  0  0  0  0  0  0  0  0  0
    6.3583  -16.4794    0.0000 C   0  0  0  0  0  0  0  0  0  0  0  0
    7.0714  -16.0646    0.0000 C   0  0  0  0  0  0  0  0  0  0  0  0
    7.0687  -15.2396    0.0000 C   0  0  0  0  0  0  0  0  0  0  0  0
    6.3610  -17.3044    0.0000 O   0  0  0  0  0  0  0  0  0  0  0  0
    6.3448  -12.3544    0.0000 O   0  0  0  0  0  0  0  0  0  0  0  0
  1  2  2  0  0  0  0
  2  3  1  0  0  0  0
  1  4  1  0  0  0  0
  4  5  2  0  0  0  0
  5  6  1  0  0  0  0
  6  7  2  0  0  0  0
  7  2  1  0  0  0  0
  4  8  1  0  0  0  0
  8  9  1  0  0  0  0
  9 10  2  0  0  0  0
 10 11  1  0  0  0  0
 11  5  1  0  0  0  0
  9 12  1  0  0  0  0
 12 13  1  0  0  0  0
 12 14  2  0  0  0  0
 14 15  1  0  0  0  0
 15 16  2  0  0  0  0
 16 17  1  0  0  0  0
 17 13  2  0  0  0  0
  6 18  1  0  0  0  0
 11 19  2  0  0  0  0
 16 20  1  0  0  0  0
 21  3  1  1  0  0  0
 21 22  1  0  0  0  0
 22 23  1  0  0  0  0
 23 24  1  0  0  0  0
 24 25  1  0  0  0  0
 25 26  1  0  0  0  0
 26 21  1  0  0  0  0
 24 27  1  6  0  0  0
 23 28  1  1  0  0  0
 25 29  1  1  0  0  0
 26 30  1  6  0  0  0
 28 31  1  0  0  0  0
 31 32  1  0  0  0  0
 32 33  1  0  0  0  0
 33 34  2  0  0  0  0
 34 35  1  0  0  0  0
 35 36  2  0  0  0  0
 36 37  1  0  0  0  0
 37 38  2  0  0  0  0
 38 39  1  0  0  0  0
 39 40  2  0  0  0  0
 40 35  1  0  0  0  0
 38 41  1  0  0  0  0
 32 42  2  0  0  0  0
 43 44  1  0  0  0  0
 44 45  2  0  0  0  0
 45 46  1  0  0  0  0
 46 47  2  0  0  0  0
 47 48  1  0  0  0  0
 48 49  2  0  0  0  0
 49 50  1  0  0  0  0
 50 51  2  0  0  0  0
 51 46  1  0  0  0  0
 49 52  1  0  0  0  0
 43 53  2  0  0  0  0
 43 29  1  0  0  0  0
M  END
>  <cdx:fragmentId>
250

$$$$
