60211.cdx
  Mrv1902 05222410212D          

 41 45  0  0  0  0            999 V2000
    9.4749   -8.2997    0.0000 C   0  0  0  0  0  0  0  0  0  0  0  0
    8.7600   -8.7115    0.0000 C   0  0  0  0  0  0  0  0  0  0  0  0
    8.7592   -9.5365    0.0000 O   0  0  0  0  0  0  0  0  0  0  0  0
    9.4757   -7.4747    0.0000 C   0  0  0  0  0  0  0  0  0  0  0  0
    8.7617   -7.0615    0.0000 C   0  0  0  0  0  0  0  0  0  0  0  0
    8.0468   -7.4733    0.0000 C   0  0  0  0  0  0  0  0  0  0  0  0
    8.0460   -8.2983    0.0000 C   0  0  0  0  0  0  0  0  0  0  0  0
   10.1906   -7.0629    0.0000 O   0  0  0  0  0  0  0  0  0  0  0  0
   10.1914   -6.2379    0.0000 C   0  0  0  0  0  0  0  0  0  0  0  0
    9.4773   -5.8247    0.0000 C   0  0  0  0  0  0  0  0  0  0  0  0
    8.7625   -6.2365    0.0000 C   0  0  0  0  0  0  0  0  0  0  0  0
   10.9063   -5.8261    0.0000 C   0  0  0  0  0  0  0  0  0  0  0  0
   10.9071   -5.0011    0.0000 C   0  0  0  0  0  0  0  0  0  0  0  0
   11.6204   -6.2393    0.0000 C   0  0  0  0  0  0  0  0  0  0  0  0
   12.3352   -5.8275    0.0000 C   0  0  0  0  0  0  0  0  0  0  0  0
   12.3360   -5.0025    0.0000 C   0  0  0  0  0  0  0  0  0  0  0  0
   11.6220   -4.5893    0.0000 C   0  0  0  0  0  0  0  0  0  0  0  0
    7.3327   -7.0601    0.0000 O   0  0  0  0  0  0  0  0  0  0  0  0
    8.0484   -5.8233    0.0000 O   0  0  0  0  0  0  0  0  0  0  0  0
   13.0509   -4.5907    0.0000 O   0  0  0  0  0  0  0  0  0  0  0  0
    8.0447   -9.9490    0.0000 C   0  0  2  0  0  0  0  0  0  0  0  0
    7.3303   -9.5365    0.0000 O   0  0  0  0  0  0  0  0  0  0  0  0
    6.6158   -9.9490    0.0000 C   0  0  1  0  0  0  0  0  0  0  0  0
    6.6158  -10.7740    0.0000 C   0  0  2  0  0  0  0  0  0  0  0  0
    7.3303  -11.1865    0.0000 C   0  0  1  0  0  0  0  0  0  0  0  0
    8.0447  -10.7740    0.0000 C   0  0  1  0  0  0  0  0  0  0  0  0
    5.9013  -11.1865    0.0000 O   0  0  0  0  0  0  0  0  0  0  0  0
    5.9013   -9.5365    0.0000 C   0  0  0  0  0  0  0  0  0  0  0  0
    7.3303  -12.0115    0.0000 O   0  0  0  0  0  0  0  0  0  0  0  0
    8.7592  -11.1865    0.0000 O   0  0  0  0  0  0  0  0  0  0  0  0
    5.1869   -9.9490    0.0000 O   0  0  0  0  0  0  0  0  0  0  0  0
    5.1869  -11.5990    0.0000 C   0  0  2  0  0  0  0  0  0  0  0  0
    4.4724  -11.1865    0.0000 O   0  0  0  0  0  0  0  0  0  0  0  0
    3.7579  -11.5990    0.0000 C   0  0  2  0  0  0  0  0  0  0  0  0
    3.7579  -12.4240    0.0000 C   0  0  1  0  0  0  0  0  0  0  0  0
    4.4724  -12.8365    0.0000 C   0  0  2  0  0  0  0  0  0  0  0  0
    5.1869  -12.4240    0.0000 C   0  0  1  0  0  0  0  0  0  0  0  0
    3.0435  -12.8365    0.0000 O   0  0  0  0  0  0  0  0  0  0  0  0
    3.0435  -11.1865    0.0000 C   0  0  0  0  0  0  0  0  0  0  0  0
    4.4724  -13.6615    0.0000 O   0  0  0  0  0  0  0  0  0  0  0  0
    5.9013  -12.8365    0.0000 O   0  0  0  0  0  0  0  0  0  0  0  0
  1  2  2  0  0  0  0
  2  3  1  0  0  0  0
  1  4  1  0  0  0  0
  4  5  2  0  0  0  0
  5  6  1  0  0  0  0
  6  7  2  0  0  0  0
  7  2  1  0  0  0  0
  4  8  1  0  0  0  0
  8  9  1  0  0  0  0
  9 10  2  0  0  0  0
 10 11  1  0  0  0  0
 11  5  1  0  0  0  0
  9 12  1  0  0  0  0
 12 13  1  0  0  0  0
 12 14  2  0  0  0  0
 14 15  1  0  0  0  0
 15 16  2  0  0  0  0
 16 17  1  0  0  0  0
 17 13  2  0  0  0  0
  6 18  1  0  0  0  0
 11 19  2  0  0  0  0
 16 20  1  0  0  0  0
 21  3  1  1  0  0  0
 21 22  1  0  0  0  0
 22 23  1  0  0  0  0
 23 24  1  0  0  0  0
 24 25  1  0  0  0  0
 25 26  1  0  0  0  0
 26 21  1  0  0  0  0
 24 27  1  6  0  0  0
 23 28  1  1  0  0  0
 25 29  1  1  0  0  0
 26 30  1  6  0  0  0
 28 31  1  0  0  0  0
 32 27  1  1  0  0  0
 32 33  1  0  0  0  0
 33 34  1  0  0  0  0
 34 35  1  0  0  0  0
 35 36  1  0  0  0  0
 36 37  1  0  0  0  0
 37 32  1  0  0  0  0
 35 38  1  1  0  0  0
 34 39  1  6  0  0  0
 36 40  1  6  0  0  0
 37 41  1  6  0  0  0
M  END
>  <cdx:fragmentId>
250

$$$$
