60219.cdx
  Mrv1902 05222410242D          

 44 48  0  0  0  0            999 V2000
    5.8674   -7.3440    0.0000 C   0  0  2  0  0  0  0  0  0  0  0  0
    6.5811   -6.9301    0.0000 O   0  0  0  0  0  0  0  0  0  0  0  0
    6.5798   -6.1051    0.0000 C   0  0  1  0  0  0  0  0  0  0  0  0
    5.8649   -5.6940    0.0000 C   0  0  2  0  0  0  0  0  0  0  0  0
    5.1512   -6.1073    0.0000 C   0  0  1  0  0  0  0  0  0  0  0  0
    5.1525   -6.9323    0.0000 C   0  0  1  0  0  0  0  0  0  0  0  0
    4.4404   -9.8201    0.0000 C   0  0  1  0  0  0  0  0  0  0  0  0
    3.7257   -9.4079    0.0000 O   0  0  0  0  0  0  0  0  0  0  0  0
    3.0114   -9.8207    0.0000 C   0  0  1  0  0  0  0  0  0  0  0  0
    3.0132  -10.6465    0.0000 C   0  0  2  0  0  0  0  0  0  0  0  0
    3.7283  -11.0579    0.0000 C   0  0  1  0  0  0  0  0  0  0  0  0
    4.4431  -10.6443    0.0000 C   0  0  1  0  0  0  0  0  0  0  0  0
    7.2936   -5.6915    0.0000 C   0  0  0  0  0  0  0  0  0  0  0  0
    4.4361   -5.6959    0.0000 O   0  0  0  0  0  0  0  0  0  0  0  0
    4.4385   -7.3458    0.0000 O   0  0  0  0  0  0  0  0  0  0  0  0
    5.8636   -4.8690    0.0000 O   0  0  0  0  0  0  0  0  0  0  0  0
    7.2923   -4.8665    0.0000 O   0  0  0  0  0  0  0  0  0  0  0  0
    2.2964   -9.4090    0.0000 C   0  0  0  0  0  0  0  0  0  0  0  0
    3.7293  -11.8829    0.0000 O   0  0  0  0  0  0  0  0  0  0  0  0
    5.1584  -11.0553    0.0000 O   0  0  0  0  0  0  0  0  0  0  0  0
    2.2995  -11.0603    0.0000 O   0  0  0  0  0  0  0  0  0  0  0  0
    1.5826   -9.8226    0.0000 O   0  0  0  0  0  0  0  0  0  0  0  0
   10.8684   -6.9276    0.0000 O   0  0  0  0  0  0  0  0  0  0  0  0
    7.2989  -10.6429    0.0000 O   0  0  0  0  0  0  0  0  0  0  0  0
    5.8699  -10.6440    0.0000 O   0  0  0  0  0  0  0  0  0  0  0  0
   10.1549   -8.1657    0.0000 C   0  0  0  0  0  0  0  0  0  0  0  0
   10.1542   -7.3407    0.0000 C   0  0  0  0  0  0  0  0  0  0  0  0
    9.4394   -6.9287    0.0000 C   0  0  0  0  0  0  0  0  0  0  0  0
    8.7253   -7.3418    0.0000 C   0  0  0  0  0  0  0  0  0  0  0  0
    9.4407   -8.5787    0.0000 C   0  0  0  0  0  0  0  0  0  0  0  0
    8.7259   -8.1668    0.0000 C   0  0  0  0  0  0  0  0  0  0  0  0
    7.2982   -9.8179    0.0000 C   0  0  0  0  0  0  0  0  0  0  0  0
    8.0124   -9.4048    0.0000 C   0  0  0  0  0  0  0  0  0  0  0  0
    8.0118   -8.5798    0.0000 C   0  0  0  0  0  0  0  0  0  0  0  0
    7.2970   -8.1679    0.0000 O   0  0  0  0  0  0  0  0  0  0  0  0
    5.1545   -9.4070    0.0000 C   0  0  0  0  0  0  0  0  0  0  0  0
    5.8693   -9.8190    0.0000 C   0  0  0  0  0  0  0  0  0  0  0  0
    6.5835   -9.4059    0.0000 C   0  0  0  0  0  0  0  0  0  0  0  0
    6.5828   -8.5809    0.0000 C   0  0  0  0  0  0  0  0  0  0  0  0
    4.4391   -8.1701    0.0000 O   0  0  0  0  0  0  0  0  0  0  0  0
    5.1539   -8.5820    0.0000 C   0  0  0  0  0  0  0  0  0  0  0  0
    5.8680   -8.1690    0.0000 C   0  0  0  0  0  0  0  0  0  0  0  0
    4.4377   -8.9959    0.0000 H   0  0  0  0  0  0  0  0  0  0  0  0
    6.5819   -7.7565    0.0000 H   0  0  0  0  0  0  0  0  0  0  0  0
  1  2  1  0  0  0  0
  2  3  1  0  0  0  0
  3  4  1  0  0  0  0
  4  5  1  0  0  0  0
  7  8  1  0  0  0  0
  8  9  1  0  0  0  0
  9 10  1  0  0  0  0
 10 11  1  0  0  0  0
  5  6  1  0  0  0  0
  6  1  1  0  0  0  0
  3 13  1  1  0  0  0
  5 14  1  1  0  0  0
  6 15  1  6  0  0  0
  4 16  1  6  0  0  0
 11 12  1  0  0  0  0
 12  7  1  0  0  0  0
  9 18  1  1  0  0  0
 11 19  1  1  0  0  0
 12 20  1  6  0  0  0
 10 21  1  6  0  0  0
 42  1  1  0  0  0  0
 13 17  1  0  0  0  0
 36  7  1  0  0  0  0
 18 22  1  0  0  0  0
 27 23  1  0  0  0  0
 32 24  2  0  0  0  0
 37 25  1  0  0  0  0
 26 30  2  0  0  0  0
 27 26  1  0  0  0  0
 28 27  2  0  0  0  0
 29 28  1  0  0  0  0
 31 29  2  0  0  0  0
 31 30  1  0  0  0  0
 34 31  1  0  0  0  0
 32 38  1  0  0  0  0
 33 32  1  0  0  0  0
 34 33  2  0  0  0  0
 35 34  1  0  0  0  0
 39 35  1  0  0  0  0
 36 41  1  0  0  0  0
 37 36  2  0  0  0  0
 38 37  1  0  0  0  0
 39 38  2  0  0  0  0
 42 39  1  0  0  0  0
 41 40  1  0  0  0  0
 42 41  2  0  0  0  0
  7 43  1  1  0  0  0
  1 44  1  6  0  0  0
M  END
>  <cdx:fragmentId>
409

$$$$
