60215.cdx
  Mrv1902 05222410222D          

 42 46  0  0  0  0            999 V2000
    8.5949   -8.5334    0.0000 C   0  0  0  0  0  0  0  0  0  0  0  0
    7.8800   -8.9452    0.0000 C   0  0  0  0  0  0  0  0  0  0  0  0
    7.8792   -9.7702    0.0000 O   0  0  0  0  0  0  0  0  0  0  0  0
    8.5957   -7.7084    0.0000 C   0  0  0  0  0  0  0  0  0  0  0  0
    7.8817   -7.2952    0.0000 C   0  0  0  0  0  0  0  0  0  0  0  0
    7.1668   -7.7070    0.0000 C   0  0  0  0  0  0  0  0  0  0  0  0
    7.1660   -8.5320    0.0000 C   0  0  0  0  0  0  0  0  0  0  0  0
    9.3106   -7.2966    0.0000 O   0  0  0  0  0  0  0  0  0  0  0  0
    9.3114   -6.4716    0.0000 C   0  0  0  0  0  0  0  0  0  0  0  0
    8.5973   -6.0584    0.0000 C   0  0  0  0  0  0  0  0  0  0  0  0
    7.8825   -6.4702    0.0000 C   0  0  0  0  0  0  0  0  0  0  0  0
   10.0263   -6.0598    0.0000 C   0  0  0  0  0  0  0  0  0  0  0  0
   10.0271   -5.2348    0.0000 C   0  0  0  0  0  0  0  0  0  0  0  0
   10.7404   -6.4730    0.0000 C   0  0  0  0  0  0  0  0  0  0  0  0
   11.4552   -6.0612    0.0000 C   0  0  0  0  0  0  0  0  0  0  0  0
   11.4560   -5.2362    0.0000 C   0  0  0  0  0  0  0  0  0  0  0  0
   10.7420   -4.8230    0.0000 C   0  0  0  0  0  0  0  0  0  0  0  0
    6.4527   -7.2938    0.0000 O   0  0  0  0  0  0  0  0  0  0  0  0
    7.1684   -6.0570    0.0000 O   0  0  0  0  0  0  0  0  0  0  0  0
   12.1709   -4.8244    0.0000 O   0  0  0  0  0  0  0  0  0  0  0  0
    7.1647  -10.1827    0.0000 C   0  0  2  0  0  0  0  0  0  0  0  0
    6.4503   -9.7702    0.0000 O   0  0  0  0  0  0  0  0  0  0  0  0
    5.7358  -10.1827    0.0000 C   0  0  1  0  0  0  0  0  0  0  0  0
    5.7358  -11.0077    0.0000 C   0  0  2  0  0  0  0  0  0  0  0  0
    6.4503  -11.4202    0.0000 C   0  0  1  0  0  0  0  0  0  0  0  0
    7.1647  -11.0077    0.0000 C   0  0  1  0  0  0  0  0  0  0  0  0
    5.0213  -11.4202    0.0000 O   0  0  0  0  0  0  0  0  0  0  0  0
    5.0213   -9.7702    0.0000 C   0  0  0  0  0  0  0  0  0  0  0  0
    6.4503  -12.2452    0.0000 O   0  0  0  0  0  0  0  0  0  0  0  0
    7.8792  -11.4202    0.0000 O   0  0  0  0  0  0  0  0  0  0  0  0
    4.3069  -10.1827    0.0000 O   0  0  0  0  0  0  0  0  0  0  0  0
    3.5924   -9.7702    0.0000 C   0  0  0  0  0  0  0  0  0  0  0  0
    2.8779  -10.1827    0.0000 C   0  0  0  0  0  0  0  0  0  0  0  0
    3.5924   -8.9452    0.0000 O   0  0  0  0  0  0  0  0  0  0  0  0
    2.1635   -9.7702    0.0000 C   0  0  0  0  0  0  0  0  0  0  0  0
    1.4490  -10.1827    0.0000 C   0  0  0  0  0  0  0  0  0  0  0  0
    1.4490  -11.0077    0.0000 C   0  0  0  0  0  0  0  0  0  0  0  0
    2.1635  -11.4202    0.0000 C   0  0  0  0  0  0  0  0  0  0  0  0
    2.8779  -11.0077    0.0000 C   0  0  0  0  0  0  0  0  0  0  0  0
    0.7345   -9.7702    0.0000 O   0  0  0  0  0  0  0  0  0  0  0  0
    0.7345  -11.4202    0.0000 O   0  0  0  0  0  0  0  0  0  0  0  0
    2.1635  -12.2452    0.0000 O   0  0  0  0  0  0  0  0  0  0  0  0
  1  2  2  0  0  0  0
  2  3  1  0  0  0  0
  1  4  1  0  0  0  0
  4  5  2  0  0  0  0
  5  6  1  0  0  0  0
  6  7  2  0  0  0  0
  7  2  1  0  0  0  0
  4  8  1  0  0  0  0
  8  9  1  0  0  0  0
  9 10  2  0  0  0  0
 10 11  1  0  0  0  0
 11  5  1  0  0  0  0
  9 12  1  0  0  0  0
 12 13  1  0  0  0  0
 12 14  2  0  0  0  0
 14 15  1  0  0  0  0
 15 16  2  0  0  0  0
 16 17  1  0  0  0  0
 17 13  2  0  0  0  0
  6 18  1  0  0  0  0
 11 19  2  0  0  0  0
 16 20  1  0  0  0  0
 21  3  1  1  0  0  0
 21 22  1  0  0  0  0
 22 23  1  0  0  0  0
 23 24  1  0  0  0  0
 24 25  1  0  0  0  0
 25 26  1  0  0  0  0
 26 21  1  0  0  0  0
 24 27  1  6  0  0  0
 23 28  1  1  0  0  0
 25 29  1  1  0  0  0
 26 30  1  6  0  0  0
 28 31  1  0  0  0  0
 31 32  1  0  0  0  0
 32 33  1  0  0  0  0
 32 34  2  0  0  0  0
 33 35  2  0  0  0  0
 35 36  1  0  0  0  0
 36 37  2  0  0  0  0
 37 38  1  0  0  0  0
 38 39  2  0  0  0  0
 39 33  1  0  0  0  0
 36 40  1  0  0  0  0
 37 41  1  0  0  0  0
 38 42  1  0  0  0  0
M  END
>  <cdx:fragmentId>
250

$$$$
