602258.cdx
  Mrv1902 05222410252D          

 22 23  0  0  0  0            999 V2000
    5.3529   -8.7612    0.0000 N   0  0  0  0  0  0  0  0  0  0  0  0
    5.2666   -9.5817    0.0000 C   0  0  0  0  0  0  0  0  0  0  0  0
    4.4597   -9.7532    0.0000 C   0  0  0  0  0  0  0  0  0  0  0  0
    4.0472   -9.0387    0.0000 C   0  0  0  0  0  0  0  0  0  0  0  0
    4.5992   -8.4257    0.0000 C   0  0  0  0  0  0  0  0  0  0  0  0
    5.8797  -10.1337    0.0000 C   0  0  0  0  0  0  0  0  0  0  0  0
    5.7082  -10.9407    0.0000 O   0  0  0  0  0  0  0  0  0  0  0  0
    6.6643   -9.8788    0.0000 O   0  0  0  0  0  0  0  0  0  0  0  0
    6.0673   -8.3487    0.0000 C   0  0  0  0  0  0  0  0  0  0  0  0
    6.7818   -8.7612    0.0000 C   0  0  0  0  0  0  0  0  0  0  0  0
    7.4963   -8.3487    0.0000 C   0  0  0  0  0  0  0  0  0  0  0  0
    7.4963   -7.5237    0.0000 C   0  0  0  0  0  0  0  0  0  0  0  0
    8.2108   -7.1112    0.0000 C   0  0  0  0  0  0  0  0  0  0  0  0
    8.9252   -7.5237    0.0000 C   0  0  0  0  0  0  0  0  0  0  0  0
    8.9252   -8.3487    0.0000 C   0  0  0  0  0  0  0  0  0  0  0  0
    8.2108   -8.7612    0.0000 C   0  0  0  0  0  0  0  0  0  0  0  0
    9.6397   -8.7612    0.0000 O   0  0  0  0  0  0  0  0  0  0  0  0
   10.3542   -8.3487    0.0000 C   0  0  0  0  0  0  0  0  0  0  0  0
    9.6397   -7.1112    0.0000 O   0  0  0  0  0  0  0  0  0  0  0  0
   10.3542   -7.5237    0.0000 C   0  0  0  0  0  0  0  0  0  0  0  0
    8.2108   -6.2862    0.0000 O   0  0  0  0  0  0  0  0  0  0  0  0
    7.4963   -5.8737    0.0000 C   0  0  0  0  0  0  0  0  0  0  0  0
  1  2  1  0  0  0  0
  2  3  2  0  0  0  0
  3  4  1  0  0  0  0
  4  5  2  0  0  0  0
  1  5  1  0  0  0  0
  6  7  2  0  0  0  0
  6  8  1  0  0  0  0
  2  6  1  0  0  0  0
  9 10  1  0  0  0  0
 11 12  1  0  0  0  0
 12 13  2  0  0  0  0
 13 14  1  0  0  0  0
 14 15  2  0  0  0  0
 15 16  1  0  0  0  0
 11 16  2  0  0  0  0
 17 18  1  0  0  0  0
 15 17  1  0  0  0  0
 19 20  1  0  0  0  0
 14 19  1  0  0  0  0
 21 22  1  0  0  0  0
 13 21  1  0  0  0  0
 10 11  1  0  0  0  0
  1  9  1  0  0  0  0
M  END
>  <cdx:fragmentId>
25

$$$$
