60229.cdx
  Mrv1902 05222410222D          

 23 26  0  0  0  0            999 V2000
    5.0581   -7.7948    0.0000 C   0  0  0  0  0  0  0  0  0  0  0  0
    4.2331   -7.7948    0.0000 C   0  0  0  0  0  0  0  0  0  0  0  0
    3.8206   -7.0803    0.0000 C   0  0  0  0  0  0  0  0  0  0  0  0
    5.4706   -7.0803    0.0000 O   0  0  0  0  0  0  0  0  0  0  0  0
    5.4706   -8.5093    0.0000 O   0  0  0  0  0  0  0  0  0  0  0  0
    3.8206   -8.5093    0.0000 C   0  0  0  0  0  0  0  0  0  0  0  0
    7.4579   -9.4361    0.0000 C   0  0  2  0  0  0  0  0  0  0  0  0
    6.6536   -9.2526    0.0000 C   0  0  0  0  0  0  0  0  0  0  0  0
    6.2956   -8.5093    0.0000 C   0  0  0  0  0  0  0  0  0  0  0  0
    6.6536   -7.7660    0.0000 C   0  0  0  0  0  0  0  0  0  0  0  0
    7.4579   -7.5824    0.0000 C   0  0  1  0  0  0  0  0  0  0  0  0
    8.1029   -8.0968    0.0000 C   0  0  2  0  0  0  0  0  0  0  0  0
    8.1029   -8.9218    0.0000 C   0  0  1  0  0  0  0  0  0  0  0  0
    6.9232   -8.5083    0.0000 N   0  0  0  0  0  0  0  0  0  0  0  0
    6.1480   -8.2262    0.0000 C   0  0  0  0  0  0  0  0  0  0  0  0
    7.6414   -6.7781    0.0000 H   0  0  0  0  0  0  0  0  0  0  0  0
    7.6414  -10.2405    0.0000 H   0  0  0  0  0  0  0  0  0  0  0  0
    4.2331   -6.3658    0.0000 C   0  0  0  0  0  0  0  0  0  0  0  0
    3.8206   -5.6514    0.0000 C   0  0  0  0  0  0  0  0  0  0  0  0
    2.9956   -5.6514    0.0000 C   0  0  0  0  0  0  0  0  0  0  0  0
    2.5831   -6.3658    0.0000 C   0  0  0  0  0  0  0  0  0  0  0  0
    2.9956   -7.0803    0.0000 C   0  0  0  0  0  0  0  0  0  0  0  0
    8.8174   -8.5093    0.0000 O   0  0  0  0  0  0  0  0  0  0  0  0
  1  2  1  0  0  0  0
  2  3  1  0  0  0  0
  1  4  2  0  0  0  0
  1  5  1  0  0  0  0
  2  6  2  0  0  0  0
  7  8  1  0  0  0  0
  8  9  1  0  0  0  0
  9 10  1  0  0  0  0
 10 11  1  0  0  0  0
 11 12  1  0  0  0  0
 12 13  1  0  0  0  0
  7 13  1  0  0  0  0
  7 14  1  0  0  0  0
 14 11  1  0  0  0  0
 14 15  1  0  0  0  0
  5  9  1  0  0  0  0
 11 16  1  6  0  0  0
  7 17  1  6  0  0  0
  3 18  2  0  0  0  0
 18 19  1  0  0  0  0
 19 20  2  0  0  0  0
 20 21  1  0  0  0  0
 21 22  2  0  0  0  0
 22  3  1  0  0  0  0
 13 23  1  1  0  0  0
 12 23  1  1  0  0  0
M  END
>  <cdx:fragmentId>
215602

$$$$
