60225.cdx
  Mrv1902 05222410242D          

 32 35  0  0  0  0            999 V2000
    8.6199   -5.3739    0.0000 C   0  0  0  0  0  0  0  0  0  0  0  0
    8.6199   -6.1989    0.0000 C   0  0  0  0  0  0  0  0  0  0  0  0
    7.9055   -6.6114    0.0000 C   0  0  0  0  0  0  0  0  0  0  0  0
    7.9055   -7.4364    0.0000 O   0  0  0  0  0  0  0  0  0  0  0  0
    7.1910   -6.1989    0.0000 C   0  0  0  0  0  0  0  0  0  0  0  0
    6.4765   -6.6114    0.0000 C   0  0  0  0  0  0  0  0  0  0  0  0
    6.4765   -7.4364    0.0000 O   0  0  0  0  0  0  0  0  0  0  0  0
    5.7620   -6.1989    0.0000 C   0  0  0  0  0  0  0  0  0  0  0  0
    5.7620   -5.3739    0.0000 C   0  0  0  0  0  0  0  0  0  0  0  0
    5.0476   -4.9614    0.0000 O   0  0  0  0  0  0  0  0  0  0  0  0
    6.4765   -4.9614    0.0000 C   0  0  0  0  0  0  0  0  0  0  0  0
    7.1910   -5.3739    0.0000 C   0  0  0  0  0  0  0  0  0  0  0  0
    7.9055   -4.9614    0.0000 O   0  0  0  0  0  0  0  0  0  0  0  0
    9.3344   -4.9614    0.0000 C   0  0  0  0  0  0  0  0  0  0  0  0
    9.3344   -4.1364    0.0000 C   0  0  0  0  0  0  0  0  0  0  0  0
   10.0489   -3.7239    0.0000 C   0  0  0  0  0  0  0  0  0  0  0  0
   10.7633   -4.1364    0.0000 C   0  0  0  0  0  0  0  0  0  0  0  0
   11.4778   -3.7239    0.0000 O   0  0  0  0  0  0  0  0  0  0  0  0
   10.7633   -4.9614    0.0000 C   0  0  0  0  0  0  0  0  0  0  0  0
   10.0489   -5.3739    0.0000 C   0  0  0  0  0  0  0  0  0  0  0  0
    5.0476   -6.6114    0.0000 C   0  0  1  0  0  0  0  0  0  0  0  0
    5.0476   -7.4364    0.0000 C   0  0  2  0  0  0  0  0  0  0  0  0
    5.7620   -7.8489    0.0000 O   0  0  0  0  0  0  0  0  0  0  0  0
    4.3331   -7.8489    0.0000 C   0  0  1  0  0  0  0  0  0  0  0  0
    4.3331   -8.6739    0.0000 O   0  0  0  0  0  0  0  0  0  0  0  0
    3.6186   -7.4364    0.0000 C   0  0  2  0  0  0  0  0  0  0  0  0
    2.9042   -7.8489    0.0000 O   0  0  0  0  0  0  0  0  0  0  0  0
    3.6186   -6.6114    0.0000 C   0  0  2  0  0  0  0  0  0  0  0  0
    4.3331   -6.1989    0.0000 O   0  0  0  0  0  0  0  0  0  0  0  0
    2.9042   -6.1989    0.0000 C   0  0  0  0  0  0  0  0  0  0  0  0
    2.1897   -6.6114    0.0000 O   0  0  0  0  0  0  0  0  0  0  0  0
    5.0476   -5.7864    0.0000 H   0  0  0  0  0  0  0  0  0  0  0  0
  1  2  2  0  0  0  0
  2  3  1  0  0  0  0
  3  4  2  0  0  0  0
  3  5  1  0  0  0  0
  5  6  1  0  0  0  0
  6  7  1  0  0  0  0
  6  8  2  0  0  0  0
  8  9  1  0  0  0  0
  9 10  1  0  0  0  0
  9 11  2  0  0  0  0
 11 12  1  0  0  0  0
  5 12  2  0  0  0  0
 12 13  1  0  0  0  0
  1 13  1  0  0  0  0
  1 14  1  0  0  0  0
 14 15  1  0  0  0  0
 15 16  2  0  0  0  0
 16 17  1  0  0  0  0
 17 18  1  0  0  0  0
 17 19  2  0  0  0  0
 19 20  1  0  0  0  0
 14 20  2  0  0  0  0
 21 22  1  0  0  0  0
 22 23  1  6  0  0  0
 22 24  1  0  0  0  0
 24 25  1  1  0  0  0
 24 26  1  0  0  0  0
 26 27  1  6  0  0  0
 26 28  1  0  0  0  0
 28 29  1  0  0  0  0
 28 30  1  1  0  0  0
 30 31  1  0  0  0  0
 21 29  1  0  0  0  0
  8 21  1  0  0  0  0
 21 32  1  6  0  0  0
M  END
>  <cdx:fragmentId>
7912

$$$$
