60224.cdx
  Mrv1902 05222410242D          

 40 44  0  0  0  0            999 V2000
    4.4823   -5.6650    0.0000 O   0  0  0  0  0  0  0  0  0  0  0  0
    5.9231   -4.8617    0.0000 O   0  0  0  0  0  0  0  0  0  0  0  0
    4.4577   -7.3148    0.0000 O   0  0  0  0  0  0  0  0  0  0  0  0
    6.6068   -6.9342    0.0000 O   0  0  0  0  0  0  0  0  0  0  0  0
    6.6190   -6.1093    0.0000 C   0  0  0  0  0  0  0  0  0  0  0  0
    5.9109   -5.6866    0.0000 C   0  0  1  0  0  0  0  0  0  0  0  0
    5.1905   -6.0882    0.0000 C   0  0  1  0  0  0  0  0  0  0  0  0
    5.1783   -6.9131    0.0000 C   0  0  2  0  0  0  0  0  0  0  0  0
    4.4229   -9.7911    0.0000 C   0  0  2  0  0  0  0  0  0  0  0  0
    3.7144   -9.3683    0.0000 O   0  0  0  0  0  0  0  0  0  0  0  0
    2.9941   -9.7704    0.0000 C   0  0  1  0  0  0  0  0  0  0  0  0
    2.9836  -10.5962    0.0000 C   0  0  2  0  0  0  0  0  0  0  0  0
    3.6925  -11.0182    0.0000 C   0  0  1  0  0  0  0  0  0  0  0  0
    4.4133  -10.6152    0.0000 C   0  0  1  0  0  0  0  0  0  0  0  0
    2.2853   -9.3483    0.0000 C   0  0  0  0  0  0  0  0  0  0  0  0
    3.6813  -11.8431    0.0000 O   0  0  0  0  0  0  0  0  0  0  0  0
    5.1225  -11.0367    0.0000 O   0  0  0  0  0  0  0  0  0  0  0  0
    2.2638  -10.9994    0.0000 O   0  0  0  0  0  0  0  0  0  0  0  0
    1.5654   -9.7513    0.0000 O   0  0  0  0  0  0  0  0  0  0  0  0
    5.8864   -7.3364    0.0000 C   0  0  2  0  0  0  0  0  0  0  0  0
   10.8930   -6.9942    0.0000 O   0  0  0  0  0  0  0  0  0  0  0  0
    7.2689  -10.6561    0.0000 O   0  0  0  0  0  0  0  0  0  0  0  0
    5.8401  -10.6361    0.0000 O   0  0  0  0  0  0  0  0  0  0  0  0
   10.1612   -8.2215    0.0000 C   0  0  0  0  0  0  0  0  0  0  0  0
   10.1728   -7.3966    0.0000 C   0  0  0  0  0  0  0  0  0  0  0  0
    9.4642   -6.9741    0.0000 C   0  0  0  0  0  0  0  0  0  0  0  0
    8.7440   -7.3765    0.0000 C   0  0  0  0  0  0  0  0  0  0  0  0
    9.4410   -8.6239    0.0000 C   0  0  0  0  0  0  0  0  0  0  0  0
    8.7324   -8.2014    0.0000 C   0  0  0  0  0  0  0  0  0  0  0  0
    7.2805   -9.8312    0.0000 C   0  0  0  0  0  0  0  0  0  0  0  0
    8.0007   -9.4288    0.0000 C   0  0  0  0  0  0  0  0  0  0  0  0
    8.0122   -8.6039    0.0000 C   0  0  0  0  0  0  0  0  0  0  0  0
    7.3036   -8.1814    0.0000 O   0  0  0  0  0  0  0  0  0  0  0  0
    5.1430   -9.3886    0.0000 C   0  0  0  0  0  0  0  0  0  0  0  0
    5.8517   -9.8111    0.0000 C   0  0  0  0  0  0  0  0  0  0  0  0
    6.5719   -9.4087    0.0000 C   0  0  0  0  0  0  0  0  0  0  0  0
    6.5834   -8.5838    0.0000 C   0  0  0  0  0  0  0  0  0  0  0  0
    4.4460   -8.1412    0.0000 O   0  0  0  0  0  0  0  0  0  0  0  0
    5.1546   -8.5637    0.0000 C   0  0  0  0  0  0  0  0  0  0  0  0
    5.8748   -8.1613    0.0000 C   0  0  0  0  0  0  0  0  0  0  0  0
  7  1  1  1  0  0  0
  6  2  1  1  0  0  0
  8  3  1  6  0  0  0
  4 20  1  0  0  0  0
  5  4  1  0  0  0  0
  6  5  1  0  0  0  0
  7  6  1  0  0  0  0
  8  7  1  0  0  0  0
 20  8  1  0  0  0  0
  9 10  1  0  0  0  0
 10 11  1  0  0  0  0
 11 12  1  0  0  0  0
 12 13  1  0  0  0  0
 13 14  1  0  0  0  0
 14  9  1  0  0  0  0
 11 15  1  1  0  0  0
 13 16  1  1  0  0  0
 14 17  1  6  0  0  0
 12 18  1  6  0  0  0
 20 40  1  1  0  0  0
  9 34  1  1  0  0  0
 15 19  1  0  0  0  0
 25 21  1  0  0  0  0
 30 22  2  0  0  0  0
 35 23  1  0  0  0  0
 24 28  2  0  0  0  0
 25 24  1  0  0  0  0
 26 25  2  0  0  0  0
 27 26  1  0  0  0  0
 29 27  2  0  0  0  0
 29 28  1  0  0  0  0
 32 29  1  0  0  0  0
 30 36  1  0  0  0  0
 31 30  1  0  0  0  0
 32 31  2  0  0  0  0
 33 32  1  0  0  0  0
 37 33  1  0  0  0  0
 34 39  1  0  0  0  0
 35 34  2  0  0  0  0
 36 35  1  0  0  0  0
 37 36  2  0  0  0  0
 40 37  1  0  0  0  0
 39 38  1  0  0  0  0
 40 39  2  0  0  0  0
M  END
>  <cdx:fragmentId>
409

$$$$
