602262.cdx
  Mrv1902 05222410232D          

 37 40  0  0  0  0            999 V2000
    4.3143   -9.7053    0.0000 C   0  0  0  0  0  0  0  0  0  0  0  0
    3.5999  -10.1178    0.0000 C   0  0  0  0  0  0  0  0  0  0  0  0
    3.5999  -10.9428    0.0000 C   0  0  0  0  0  0  0  0  0  0  0  0
    4.3143  -11.3553    0.0000 C   0  0  0  0  0  0  0  0  0  0  0  0
    5.0288  -10.9428    0.0000 C   0  0  2  0  0  0  0  0  0  0  0  0
    5.7433  -11.3553    0.0000 C   0  0  0  0  0  0  0  0  0  0  0  0
    6.4577  -10.9428    0.0000 C   0  0  0  0  0  0  0  0  0  0  0  0
    6.4577  -10.1178    0.0000 C   0  0  0  0  0  0  0  0  0  0  0  0
    7.1722   -9.7053    0.0000 C   0  0  2  0  0  0  0  0  0  0  0  0
    7.9568   -9.9602    0.0000 C   0  0  0  0  0  0  0  0  0  0  0  0
    8.4418   -9.2928    0.0000 C   0  0  0  0  0  0  0  0  0  0  0  0
    7.9568   -8.6253    0.0000 C   0  0  1  0  0  0  0  0  0  0  0  0
    7.1722   -8.8803    0.0000 C   0  0  1  0  0  0  0  0  0  0  0  0
    6.4577   -8.4678    0.0000 C   0  0  0  0  0  0  0  0  0  0  0  0
    5.7433   -8.8803    0.0000 C   0  0  0  0  0  0  0  0  0  0  0  0
    5.7433   -9.7053    0.0000 C   0  0  0  0  0  0  0  0  0  0  0  0
    5.0288  -10.1178    0.0000 C   0  0  1  0  0  0  0  0  0  0  0  0
    2.8854  -11.3553    0.0000 O   0  0  0  0  0  0  0  0  0  0  0  0
    7.1722  -11.3553    0.0000 O   0  0  0  0  0  0  0  0  0  0  0  0
    7.6597   -7.2276    0.0000 C   0  0  0  0  0  0  0  0  0  0  0  0
    8.2118   -7.8407    0.0000 C   0  0  2  0  0  0  0  0  0  0  0  0
    9.0188   -7.6692    0.0000 C   0  0  0  0  0  0  0  0  0  0  0  0
    9.2737   -6.8845    0.0000 C   0  0  0  0  0  0  0  0  0  0  0  0
   10.0807   -6.7130    0.0000 C   0  0  0  0  0  0  0  0  0  0  0  0
   10.3356   -5.9284    0.0000 C   0  0  0  0  0  0  0  0  0  0  0  0
   11.1325   -6.1419    0.0000 C   0  0  0  0  0  0  0  0  0  0  0  0
    9.5387   -5.7149    0.0000 C   0  0  0  0  0  0  0  0  0  0  0  0
   10.5491   -5.1315    0.0000 O   0  0  0  0  0  0  0  0  0  0  0  0
   10.6327   -7.3261    0.0000 O   0  0  0  0  0  0  0  0  0  0  0  0
    7.1722  -10.5303    0.0000 C   0  0  0  0  0  0  0  0  0  0  0  0
    7.1722   -8.0553    0.0000 C   0  0  0  0  0  0  0  0  0  0  0  0
    5.0288   -9.2928    0.0000 C   0  0  0  0  0  0  0  0  0  0  0  0
    4.7268  -12.0697    0.0000 C   0  0  0  0  0  0  0  0  0  0  0  0
    3.9018  -12.0697    0.0000 C   0  0  0  0  0  0  0  0  0  0  0  0
    5.0288  -11.7678    0.0000 H   0  0  0  0  0  0  0  0  0  0  0  0
    8.7537   -8.4118    0.0000 H   0  0  0  0  0  0  0  0  0  0  0  0
   11.7159   -5.5586    0.0000 O   0  0  0  0  0  0  0  0  0  0  0  0
  1  2  1  0  0  0  0
  2  3  1  0  0  0  0
  3  4  1  0  0  0  0
  4  5  1  0  0  0  0
  5  6  1  0  0  0  0
  6  7  1  0  0  0  0
  7  8  1  0  0  0  0
  8  9  1  0  0  0  0
  9 10  1  0  0  0  0
 10 11  1  0  0  0  0
 12 11  1  0  0  0  0
 12 13  1  0  0  0  0
  9 13  1  0  0  0  0
 13 14  1  0  0  0  0
 14 15  1  0  0  0  0
 15 16  1  0  0  0  0
  8 16  2  0  0  0  0
 16 17  1  0  0  0  0
  5 17  1  0  0  0  0
  1 17  1  0  0  0  0
  3 18  2  0  0  0  0
  7 19  2  0  0  0  0
 21 20  1  6  0  0  0
 21 22  1  0  0  0  0
 22 23  1  0  0  0  0
 23 24  1  0  0  0  0
 24 25  1  0  0  0  0
 25 26  1  0  0  0  0
 25 27  1  0  0  0  0
 25 28  1  0  0  0  0
 24 29  1  0  0  0  0
 12 21  1  0  0  0  0
  9 30  1  6  0  0  0
 13 31  1  1  0  0  0
 17 32  1  1  0  0  0
  4 33  1  0  0  0  0
  4 34  1  0  0  0  0
  5 35  1  6  0  0  0
 12 36  1  6  0  0  0
 26 37  1  0  0  0  0
M  END
>  <cdx:groupId>
115175

>  <cdx:fragmentId>
115067

$$$$
