60220.cdx
  Mrv1902 05222410252D          

 41 45  0  0  0  0            999 V2000
    2.2978  -11.4699    0.0000 O   0  0  0  0  0  0  0  0  0  0  0  0
    3.7276  -12.2959    0.0000 O   0  0  0  0  0  0  0  0  0  0  0  0
    5.1563  -11.4693    0.0000 O   0  0  0  0  0  0  0  0  0  0  0  0
    2.2978   -9.8203    0.0000 C   0  0  0  0  0  0  0  0  0  0  0  0
    5.8674   -7.7565    0.0000 C   0  0  2  0  0  0  0  0  0  0  0  0
    6.5811   -7.3426    0.0000 O   0  0  0  0  0  0  0  0  0  0  0  0
    6.5798   -6.5176    0.0000 C   0  0  1  0  0  0  0  0  0  0  0  0
    5.8649   -6.1065    0.0000 C   0  0  2  0  0  0  0  0  0  0  0  0
    5.1512   -6.5198    0.0000 C   0  0  1  0  0  0  0  0  0  0  0  0
    5.1525   -7.3448    0.0000 C   0  0  1  0  0  0  0  0  0  0  0  0
    7.2936   -6.1040    0.0000 C   0  0  0  0  0  0  0  0  0  0  0  0
    4.4361   -6.1084    0.0000 O   0  0  0  0  0  0  0  0  0  0  0  0
    4.4385   -7.7583    0.0000 O   0  0  0  0  0  0  0  0  0  0  0  0
    5.8636   -5.2815    0.0000 O   0  0  0  0  0  0  0  0  0  0  0  0
    7.2923   -5.2790    0.0000 O   0  0  0  0  0  0  0  0  0  0  0  0
    3.7273   -9.8193    0.0000 O   0  0  0  0  0  0  0  0  0  0  0  0
    3.0124  -10.2326    0.0000 C   0  0  2  0  0  0  0  0  0  0  0  0
    3.0124  -11.0576    0.0000 C   0  0  1  0  0  0  0  0  0  0  0  0
    3.7273  -11.4709    0.0000 C   0  0  2  0  0  0  0  0  0  0  0  0
    4.4413  -11.0576    0.0000 C   0  0  2  0  0  0  0  0  0  0  0  0
    4.4404  -10.2326    0.0000 C   0  0  2  0  0  0  0  0  0  0  0  0
   10.8684   -7.3401    0.0000 O   0  0  0  0  0  0  0  0  0  0  0  0
    7.2989  -11.0554    0.0000 O   0  0  0  0  0  0  0  0  0  0  0  0
    5.8699  -11.0565    0.0000 O   0  0  0  0  0  0  0  0  0  0  0  0
   10.1549   -8.5782    0.0000 C   0  0  0  0  0  0  0  0  0  0  0  0
   10.1542   -7.7532    0.0000 C   0  0  0  0  0  0  0  0  0  0  0  0
    9.4394   -7.3412    0.0000 C   0  0  0  0  0  0  0  0  0  0  0  0
    8.7253   -7.7543    0.0000 C   0  0  0  0  0  0  0  0  0  0  0  0
    9.4407   -8.9912    0.0000 C   0  0  0  0  0  0  0  0  0  0  0  0
    8.7259   -8.5793    0.0000 C   0  0  0  0  0  0  0  0  0  0  0  0
    7.2982  -10.2304    0.0000 C   0  0  0  0  0  0  0  0  0  0  0  0
    8.0124   -9.8173    0.0000 C   0  0  0  0  0  0  0  0  0  0  0  0
    8.0118   -8.9923    0.0000 C   0  0  0  0  0  0  0  0  0  0  0  0
    7.2970   -8.5804    0.0000 O   0  0  0  0  0  0  0  0  0  0  0  0
    5.1545   -9.8195    0.0000 C   0  0  0  0  0  0  0  0  0  0  0  0
    5.8693  -10.2315    0.0000 C   0  0  0  0  0  0  0  0  0  0  0  0
    6.5835   -9.8184    0.0000 C   0  0  0  0  0  0  0  0  0  0  0  0
    6.5828   -8.9934    0.0000 C   0  0  0  0  0  0  0  0  0  0  0  0
    4.4391   -8.5826    0.0000 O   0  0  0  0  0  0  0  0  0  0  0  0
    5.1539   -8.9945    0.0000 C   0  0  0  0  0  0  0  0  0  0  0  0
    5.8680   -8.5815    0.0000 C   0  0  0  0  0  0  0  0  0  0  0  0
 18  1  1  1  0  0  0
 19  2  1  6  0  0  0
 20  3  1  6  0  0  0
 17  4  1  6  0  0  0
  5  6  1  0  0  0  0
  6  7  1  0  0  0  0
  7  8  1  0  0  0  0
  8  9  1  0  0  0  0
  9 10  1  0  0  0  0
 10  5  1  0  0  0  0
  7 11  1  1  0  0  0
  9 12  1  1  0  0  0
 10 13  1  6  0  0  0
  8 14  1  6  0  0  0
 16 21  1  0  0  0  0
 17 16  1  0  0  0  0
 18 17  1  0  0  0  0
 19 18  1  0  0  0  0
 20 19  1  0  0  0  0
 21 20  1  0  0  0  0
  5 41  1  1  0  0  0
 11 15  1  0  0  0  0
 21 35  1  1  0  0  0
 26 22  1  0  0  0  0
 31 23  2  0  0  0  0
 36 24  1  0  0  0  0
 25 29  2  0  0  0  0
 26 25  1  0  0  0  0
 27 26  2  0  0  0  0
 28 27  1  0  0  0  0
 30 28  2  0  0  0  0
 30 29  1  0  0  0  0
 33 30  1  0  0  0  0
 31 37  1  0  0  0  0
 32 31  1  0  0  0  0
 33 32  2  0  0  0  0
 34 33  1  0  0  0  0
 38 34  1  0  0  0  0
 35 40  1  0  0  0  0
 36 35  2  0  0  0  0
 37 36  1  0  0  0  0
 38 37  2  0  0  0  0
 41 38  1  0  0  0  0
 40 39  1  0  0  0  0
 41 40  2  0  0  0  0
M  END
>  <cdx:fragmentId>
409

$$$$
