60239.cdx
  Mrv1902 05222410212D          

  7  7  0  0  0  0            999 V2000
    6.5121   -7.0375    0.0000 C   0  0  0  0  0  0  0  0  0  0  0  0
    6.7703   -7.8210    0.0000 C   0  0  0  0  0  0  0  0  0  0  0  0
    7.5953   -7.8176    0.0000 C   0  0  0  0  0  0  0  0  0  0  0  0
    7.8470   -7.0319    0.0000 C   0  0  0  0  0  0  0  0  0  0  0  0
    7.1775   -6.5498    0.0000 O   0  0  0  0  0  0  0  0  0  0  0  0
    5.7264   -6.7858    0.0000 O   0  0  0  0  0  0  0  0  0  0  0  0
    8.6305   -6.7737    0.0000 O   0  0  0  0  0  0  0  0  0  0  0  0
  1  2  1  0  0  0  0
  2  3  1  0  0  0  0
  3  4  1  0  0  0  0
  4  5  1  0  0  0  0
  5  1  1  0  0  0  0
  1  6  2  0  0  0  0
  4  7  2  0  0  0  0
M  END
>  <cdx:fragmentId>
5

$$$$
