60230.cdx
  Mrv1902 05222410242D          

 20 22  0  0  0  0            999 V2000
    7.6981   -7.7814    0.0000 C   0  0  0  0  0  0  0  0  0  0  0  0
    7.6981   -8.6064    0.0000 C   0  0  0  0  0  0  0  0  0  0  0  0
    8.4125   -9.0189    0.0000 N   0  0  0  0  0  0  0  0  0  0  0  0
    9.1270   -8.6064    0.0000 C   0  0  0  0  0  0  0  0  0  0  0  0
    9.1270   -7.7814    0.0000 N   0  0  0  0  0  0  0  0  0  0  0  0
    8.4125   -7.3689    0.0000 C   0  0  0  0  0  0  0  0  0  0  0  0
    6.9134   -7.5265    0.0000 N   0  0  0  0  0  0  0  0  0  0  0  0
    6.4285   -8.1939    0.0000 C   0  0  0  0  0  0  0  0  0  0  0  0
    6.9134   -8.8613    0.0000 N   0  0  0  0  0  0  0  0  0  0  0  0
    9.8415   -9.0189    0.0000 N   0  0  0  0  0  0  0  0  0  0  0  0
    8.4125   -6.5439    0.0000 O   0  0  0  0  0  0  0  0  0  0  0  0
    6.6585   -9.6460    0.0000 C   0  0  1  0  0  0  0  0  0  0  0  0
    5.8739   -9.9009    0.0000 O   0  0  0  0  0  0  0  0  0  0  0  0
    5.8739  -10.7259    0.0000 C   0  0  1  0  0  0  0  0  0  0  0  0
    6.6585  -10.9808    0.0000 C   0  0  2  0  0  0  0  0  0  0  0  0
    7.1434  -10.3134    0.0000 C   0  0  2  0  0  0  0  0  0  0  0  0
    5.2064  -11.2108    0.0000 C   0  0  0  0  0  0  0  0  0  0  0  0
    7.9684  -10.3134    0.0000 O   0  0  0  0  0  0  0  0  0  0  0  0
    6.9134  -11.7655    0.0000 O   0  0  0  0  0  0  0  0  0  0  0  0
    5.2064  -12.0358    0.0000 O   0  0  0  0  0  0  0  0  0  0  0  0
  1  2  2  0  0  0  0
  2  3  1  0  0  0  0
  3  4  2  0  0  0  0
  4  5  1  0  0  0  0
  5  6  1  0  0  0  0
  6  1  1  0  0  0  0
  1  7  1  0  0  0  0
  7  8  2  0  0  0  0
  8  9  1  0  0  0  0
  9  2  1  0  0  0  0
  4 10  1  0  0  0  0
  6 11  2  0  0  0  0
 12  9  1  6  0  0  0
 12 13  1  0  0  0  0
 13 14  1  0  0  0  0
 14 15  1  0  0  0  0
 15 16  1  0  0  0  0
 16 12  1  0  0  0  0
 14 17  1  1  0  0  0
 16 18  1  1  0  0  0
 15 19  1  6  0  0  0
 17 20  1  0  0  0  0
M  END
>  <cdx:fragmentId>
5

$$$$
