60238.cdx
  Mrv1902 05222410212D          

 21 22  0  0  0  0            999 V2000
    4.5493   -9.7614    0.0000 C   0  0  0  0  0  0  0  0  0  0  0  0
    4.5493  -10.5864    0.0000 C   0  0  0  0  0  0  0  0  0  0  0  0
    5.2638  -10.9989    0.0000 C   0  0  0  0  0  0  0  0  0  0  0  0
    5.9782  -10.5864    0.0000 C   0  0  0  0  0  0  0  0  0  0  0  0
    5.9782   -9.7614    0.0000 C   0  0  0  0  0  0  0  0  0  0  0  0
    5.2638   -9.3489    0.0000 C   0  0  0  0  0  0  0  0  0  0  0  0
    6.6927   -9.3489    0.0000 C   0  0  0  0  0  0  0  0  0  0  0  0
    7.4072   -9.7614    0.0000 O   0  0  0  0  0  0  0  0  0  0  0  0
    7.4072  -10.5864    0.0000 C   0  0  2  0  0  0  0  0  0  0  0  0
    6.6927  -10.9989    0.0000 O   0  0  0  0  0  0  0  0  0  0  0  0
    6.6927  -11.8239    0.0000 C   0  0  2  0  0  0  0  0  0  0  0  0
    7.4072  -12.2364    0.0000 C   0  0  1  0  0  0  0  0  0  0  0  0
    8.1217  -11.8239    0.0000 C   0  0  2  0  0  0  0  0  0  0  0  0
    8.1217  -10.9989    0.0000 C   0  0  2  0  0  0  0  0  0  0  0  0
    8.8361  -10.5864    0.0000 O   0  0  0  0  0  0  0  0  0  0  0  0
    7.4072  -13.0614    0.0000 O   0  0  0  0  0  0  0  0  0  0  0  0
    5.9782  -12.2364    0.0000 C   0  0  0  0  0  0  0  0  0  0  0  0
    8.8361  -12.2364    0.0000 O   0  0  0  0  0  0  0  0  0  0  0  0
    6.6927   -8.5239    0.0000 C   0  0  0  0  0  0  0  0  0  0  0  0
    6.6927   -7.6989    0.0000 N   0  0  0  0  0  0  0  0  0  0  0  0
    5.9782  -13.0614    0.0000 O   0  0  0  0  0  0  0  0  0  0  0  0
  1  2  2  0  0  0  0
  2  3  1  0  0  0  0
  3  4  2  0  0  0  0
  4  5  1  0  0  0  0
  5  6  2  0  0  0  0
  6  1  1  0  0  0  0
  5  7  1  0  0  0  0
  7  8  1  0  0  0  0
  9  8  1  1  0  0  0
  9 10  1  0  0  0  0
 10 11  1  0  0  0  0
 11 12  1  0  0  0  0
 12 13  1  0  0  0  0
 13 14  1  0  0  0  0
 14  9  1  0  0  0  0
 14 15  1  1  0  0  0
 12 16  1  1  0  0  0
 11 17  1  6  0  0  0
 13 18  1  6  0  0  0
  7 19  1  0  0  0  0
 19 20  3  0  0  0  0
 17 21  1  0  0  0  0
M  END
>  <cdx:fragmentId>
5

$$$$
