60236.cdx
  Mrv1902 05222410252D          

 20 21  0  0  0  0            999 V2000
    7.7393   -7.4101    0.0000 C   0  0  0  0  0  0  0  0  0  0  0  0
    7.7393   -8.2351    0.0000 C   0  0  0  0  0  0  0  0  0  0  0  0
    8.4538   -8.6476    0.0000 C   0  0  0  0  0  0  0  0  0  0  0  0
    9.1682   -8.2351    0.0000 C   0  0  0  0  0  0  0  0  0  0  0  0
    9.1682   -7.4101    0.0000 C   0  0  0  0  0  0  0  0  0  0  0  0
    8.4538   -6.9976    0.0000 C   0  0  0  0  0  0  0  0  0  0  0  0
    7.0248   -6.9976    0.0000 N   0  0  0  0  0  0  0  0  0  0  0  0
    8.4538   -6.1726    0.0000 C   0  0  0  0  0  0  0  0  0  0  0  0
    9.1682   -5.7601    0.0000 O   0  0  0  0  0  0  0  0  0  0  0  0
    7.7393   -5.7601    0.0000 O   0  0  0  0  0  0  0  0  0  0  0  0
    9.1682   -4.9351    0.0000 C   0  0  0  0  0  0  0  0  0  0  0  0
    9.8827   -8.6476    0.0000 O   0  0  0  0  0  0  0  0  0  0  0  0
    6.3104   -7.4101    0.0000 C   0  0  0  0  0  0  0  0  0  0  0  0
    5.5959   -6.9976    0.0000 C   0  0  0  0  0  0  0  0  0  0  0  0
    6.3104   -8.2351    0.0000 O   0  0  0  0  0  0  0  0  0  0  0  0
    5.5959   -6.1726    0.0000 C   0  0  0  0  0  0  0  0  0  0  0  0
    4.8814   -5.7601    0.0000 C   0  0  0  0  0  0  0  0  0  0  0  0
    4.1669   -6.1726    0.0000 C   0  0  0  0  0  0  0  0  0  0  0  0
    4.1669   -6.9976    0.0000 C   0  0  0  0  0  0  0  0  0  0  0  0
    4.8814   -7.4101    0.0000 C   0  0  0  0  0  0  0  0  0  0  0  0
  1  2  2  0  0  0  0
  2  3  1  0  0  0  0
  3  4  2  0  0  0  0
  4  5  1  0  0  0  0
  5  6  2  0  0  0  0
  6  1  1  0  0  0  0
  1  7  1  0  0  0  0
  6  8  1  0  0  0  0
  8  9  1  0  0  0  0
  8 10  2  0  0  0  0
  9 11  1  0  0  0  0
  4 12  1  0  0  0  0
  7 13  1  0  0  0  0
 13 14  1  0  0  0  0
 13 15  2  0  0  0  0
 14 16  2  0  0  0  0
 16 17  1  0  0  0  0
 17 18  2  0  0  0  0
 18 19  1  0  0  0  0
 19 20  2  0  0  0  0
 20 14  1  0  0  0  0
M  END
>  <cdx:fragmentId>
5

$$$$
