60233.cdx
  Mrv1902 05222410232D          

 24 26  0  0  0  0            999 V2000
    2.8031   -8.7576    0.0000 C   0  0  0  0  0  0  0  0  0  0  0  0
    2.8031   -9.5826    0.0000 C   0  0  0  0  0  0  0  0  0  0  0  0
    3.5175   -9.9951    0.0000 C   0  0  0  0  0  0  0  0  0  0  0  0
    4.2320   -9.5826    0.0000 C   0  0  0  0  0  0  0  0  0  0  0  0
    4.2320   -8.7576    0.0000 C   0  0  0  0  0  0  0  0  0  0  0  0
    3.5175   -8.3451    0.0000 C   0  0  0  0  0  0  0  0  0  0  0  0
    4.9465   -9.9951    0.0000 O   0  0  0  0  0  0  0  0  0  0  0  0
    5.6609   -9.5826    0.0000 C   0  0  0  0  0  0  0  0  0  0  0  0
    5.6609   -8.7576    0.0000 C   0  0  0  0  0  0  0  0  0  0  0  0
    6.3754   -9.9951    0.0000 C   0  0  0  0  0  0  0  0  0  0  0  0
    7.0899   -9.5826    0.0000 C   0  0  0  0  0  0  0  0  0  0  0  0
    6.3754  -10.8201    0.0000 C   0  0  0  0  0  0  0  0  0  0  0  0
    7.0899  -11.2326    0.0000 C   0  0  0  0  0  0  0  0  0  0  0  0
    7.8044  -10.8201    0.0000 C   0  0  0  0  0  0  0  0  0  0  0  0
    7.8044   -9.9951    0.0000 C   0  0  0  0  0  0  0  0  0  0  0  0
    8.5188  -11.2326    0.0000 C   0  0  0  0  0  0  0  0  0  0  0  0
    9.2333  -10.8201    0.0000 C   0  0  0  0  0  0  0  0  0  0  0  0
    8.5188   -9.5826    0.0000 O   0  0  0  0  0  0  0  0  0  0  0  0
    9.9478  -11.2326    0.0000 C   0  0  0  0  0  0  0  0  0  0  0  0
   10.6622  -10.8201    0.0000 C   0  0  0  0  0  0  0  0  0  0  0  0
    2.0886   -9.9951    0.0000 O   0  0  0  0  0  0  0  0  0  0  0  0
    7.0899  -12.0576    0.0000 O   0  0  0  0  0  0  0  0  0  0  0  0
    7.8044  -12.4701    0.0000 C   0  0  0  0  0  0  0  0  0  0  0  0
    9.9478  -12.0576    0.0000 C   0  0  0  0  0  0  0  0  0  0  0  0
  1  2  2  0  0  0  0
  2  3  1  0  0  0  0
  3  4  2  0  0  0  0
  4  5  1  0  0  0  0
  5  6  2  0  0  0  0
  6  1  1  0  0  0  0
  4  7  1  0  0  0  0
  7  8  1  0  0  0  0
  8  9  2  0  0  0  0
  8 10  1  0  0  0  0
 10 11  1  0  0  0  0
 10 12  2  0  0  0  0
 12 13  1  0  0  0  0
 13 14  2  0  0  0  0
 14 15  1  0  0  0  0
 15 11  2  0  0  0  0
 14 16  1  0  0  0  0
 16 17  1  0  0  0  0
 18 15  1  0  0  0  0
 17 19  2  0  0  0  0
 19 20  1  0  0  0  0
  2 21  1  0  0  0  0
  5  9  1  0  0  0  0
 13 22  1  0  0  0  0
 22 23  1  0  0  0  0
 19 24  1  0  0  0  0
M  END
>  <cdx:fragmentId>
5

$$$$
