602379.cdx
  Mrv1902 05222410202D          

 33 35  0  0  0  0            999 V2000
    7.2841  -12.1743    0.0000 C   0  0  0  0  0  0  0  0  0  0  0  0
    7.2774  -12.9992    0.0000 S   0  0  0  0  0  0  0  0  0  0  0  0
    8.0019  -11.7676    0.0000 N   0  0  0  0  0  0  0  0  0  0  0  0
    8.7130  -12.1859    0.0000 O   0  0  0  0  0  0  0  0  0  0  0  0
    9.4307  -11.7792    0.0000 S   0  0  0  0  0  0  0  0  0  0  0  0
    9.8374  -12.4970    0.0000 O   0  0  0  0  0  0  0  0  0  0  0  0
    9.0241  -11.0614    0.0000 O   0  0  0  0  0  0  0  0  0  0  0  0
   10.1485  -11.3725    0.0000 O   0  0  0  0  0  0  0  0  0  0  0  0
    6.5730  -11.7560    0.0000 C   0  0  0  0  0  0  0  0  0  0  0  0
    7.9831   -8.3379    0.0000 O   0  0  0  0  0  0  0  0  0  0  0  0
    8.1563   -9.4917    0.0000 O   0  0  0  0  0  0  0  0  0  0  0  0
    6.8293   -8.5111    0.0000 O   0  0  0  0  0  0  0  0  0  0  0  0
    7.4928   -9.0014    0.0000 S   0  0  0  0  0  0  0  0  0  0  0  0
    6.1775   -9.6582    0.0000 C   0  0  0  0  0  0  0  0  0  0  0  0
    7.2709  -14.6492    0.0000 O   0  0  0  0  0  0  0  0  0  0  0  0
    5.8387  -15.4686    0.0000 O   0  0  0  0  0  0  0  0  0  0  0  0
    4.4130  -14.6380    0.0000 O   0  0  0  0  0  0  0  0  0  0  0  0
    3.7034  -13.3978    0.0000 O   0  0  0  0  0  0  0  0  0  0  0  0
    4.4195  -12.9881    0.0000 C   0  0  0  0  0  0  0  0  0  0  0  0
    5.1323  -13.4034    0.0000 C   0  0  2  0  0  0  0  0  0  0  0  0
    5.1291  -14.2283    0.0000 C   0  0  2  0  0  0  0  0  0  0  0  0
    5.8420  -14.6436    0.0000 C   0  0  1  0  0  0  0  0  0  0  0  0
    6.5580  -14.2339    0.0000 C   0  0  2  0  0  0  0  0  0  0  0  0
    6.5613  -13.4089    0.0000 C   0  0  1  0  0  0  0  0  0  0  0  0
    5.8484  -12.9937    0.0000 O   0  0  0  0  0  0  0  0  0  0  0  0
    5.6304   -9.0406    0.0000 C   0  0  0  0  0  0  0  0  0  0  0  0
    4.8221   -9.2056    0.0000 C   0  0  0  0  0  0  0  0  0  0  0  0
    4.5608   -9.9881    0.0000 C   0  0  0  0  0  0  0  0  0  0  0  0
    5.1078  -10.6057    0.0000 C   0  0  0  0  0  0  0  0  0  0  0  0
    5.9162  -10.4407    0.0000 C   0  0  0  0  0  0  0  0  0  0  0  0
    6.5797  -10.9310    0.0000 C   0  0  0  0  0  0  0  0  0  0  0  0
    7.2510  -10.4515    0.0000 C   0  0  0  0  0  0  0  0  0  0  0  0
    7.0025   -9.6649    0.0000 N   0  0  0  0  0  0  0  0  0  0  0  0
 31  9  1  0  0  0  0
 33 13  1  0  0  0  0
 13 10  1  0  0  0  0
 13 11  2  0  0  0  0
 13 12  2  0  0  0  0
 30 14  2  0  0  0  0
 33 14  1  0  0  0  0
 26 14  1  0  0  0  0
 24  2  1  1  0  0  0
 23 15  1  6  0  0  0
 22 16  1  1  0  0  0
 21 17  1  6  0  0  0
 20 19  1  1  0  0  0
 19 18  1  0  0  0  0
 25 20  1  0  0  0  0
 21 20  1  0  0  0  0
 22 21  1  0  0  0  0
 23 22  1  0  0  0  0
 24 23  1  0  0  0  0
 25 24  1  0  0  0  0
 27 26  2  0  0  0  0
 28 27  1  0  0  0  0
 29 28  2  0  0  0  0
 30 29  1  0  0  0  0
 31 30  1  0  0  0  0
 32 31  2  0  0  0  0
 33 32  1  0  0  0  0
  9  1  1  0  0  0  0
  1  2  1  0  0  0  0
  3  4  1  0  0  0  0
  5  6  2  0  0  0  0
  5  7  2  0  0  0  0
  5  8  1  0  0  0  0
  4  5  1  0  0  0  0
  1  3  2  0  0  0  0
M  END
>  <cdx:fragmentId>
25921

$$$$
