60231.cdx
  Mrv1902 05222410242D          

 24 24  0  0  0  0            999 V2000
    3.9993  -12.3326    0.0000 C   0  0  0  0  0  0  0  0  0  0  0  0
    3.9993  -13.1576    0.0000 C   0  0  0  0  0  0  0  0  0  0  0  0
    4.7138  -13.5701    0.0000 C   0  0  0  0  0  0  0  0  0  0  0  0
    5.4282  -13.1576    0.0000 C   0  0  0  0  0  0  0  0  0  0  0  0
    5.4282  -12.3326    0.0000 C   0  0  0  0  0  0  0  0  0  0  0  0
    4.7138  -11.9201    0.0000 C   0  0  0  0  0  0  0  0  0  0  0  0
    3.2848  -11.9201    0.0000 O   0  0  0  0  0  0  0  0  0  0  0  0
    3.2848  -13.5701    0.0000 O   0  0  0  0  0  0  0  0  0  0  0  0
    6.1427  -11.9201    0.0000 O   0  0  0  0  0  0  0  0  0  0  0  0
    4.7138  -11.0951    0.0000 C   0  0  0  0  0  0  0  0  0  0  0  0
    5.4282  -10.6826    0.0000 C   0  0  0  0  0  0  0  0  0  0  0  0
    3.9993  -10.6826    0.0000 C   0  0  0  0  0  0  0  0  0  0  0  0
    3.9993   -9.8576    0.0000 C   0  0  0  0  0  0  0  0  0  0  0  0
    3.2848   -9.4451    0.0000 C   0  0  0  0  0  0  0  0  0  0  0  0
    3.2848   -8.6201    0.0000 C   0  0  0  0  0  0  0  0  0  0  0  0
    2.5704   -8.2076    0.0000 C   0  0  0  0  0  0  0  0  0  0  0  0
    5.4282   -9.8576    0.0000 C   0  0  0  0  0  0  0  0  0  0  0  0
    6.1427   -9.4451    0.0000 C   0  0  0  0  0  0  0  0  0  0  0  0
    6.8572   -9.8576    0.0000 O   0  0  0  0  0  0  0  0  0  0  0  0
    6.1427   -8.6201    0.0000 C   0  0  0  0  0  0  0  0  0  0  0  0
    7.5717   -9.4451    0.0000 C   0  0  0  0  0  0  0  0  0  0  0  0
    6.8572   -8.2076    0.0000 C   0  0  0  0  0  0  0  0  0  0  0  0
    6.8572   -7.3826    0.0000 C   0  0  0  0  0  0  0  0  0  0  0  0
    7.5717   -6.9701    0.0000 C   0  0  0  0  0  0  0  0  0  0  0  0
  1  2  1  0  0  0  0
  2  3  1  0  0  0  0
  3  4  2  0  0  0  0
  4  5  1  0  0  0  0
  5  6  1  0  0  0  0
  6  1  2  0  0  0  0
  1  7  1  0  0  0  0
  2  8  2  0  0  0  0
  5  9  2  0  0  0  0
  6 10  1  0  0  0  0
 10 11  1  0  0  0  0
 10 12  1  0  0  0  0
 12 13  1  0  0  0  0
 13 14  1  0  0  0  0
 14 15  1  0  0  0  0
 15 16  1  0  0  0  0
 11 17  1  0  0  0  0
 17 18  1  0  0  0  0
 18 19  1  0  0  0  0
 18 20  1  0  0  0  0
 19 21  1  0  0  0  0
 20 22  2  0  0  0  0
 22 23  1  0  0  0  0
 23 24  1  0  0  0  0
M  END
>  <cdx:fragmentId>
5

$$$$
