60237.cdx
  Mrv1902 05222410252D          

 21 22  0  0  0  0            999 V2000
    5.7731  -12.8689    0.0000 C   0  0  0  0  0  0  0  0  0  0  0  0
    5.7731  -13.6939    0.0000 C   0  0  0  0  0  0  0  0  0  0  0  0
    6.4875  -14.1064    0.0000 C   0  0  0  0  0  0  0  0  0  0  0  0
    7.2020  -13.6939    0.0000 C   0  0  0  0  0  0  0  0  0  0  0  0
    7.2020  -12.8689    0.0000 C   0  0  0  0  0  0  0  0  0  0  0  0
    6.4875  -12.4564    0.0000 C   0  0  0  0  0  0  0  0  0  0  0  0
    6.4875  -11.6314    0.0000 C   0  0  0  0  0  0  0  0  0  0  0  0
    5.7731  -11.2189    0.0000 O   0  0  0  0  0  0  0  0  0  0  0  0
    5.0586  -12.4564    0.0000 C   0  0  0  0  0  0  0  0  0  0  0  0
    7.9165  -12.4564    0.0000 C   0  0  0  0  0  0  0  0  0  0  0  0
    7.2020  -11.2189    0.0000 O   0  0  0  0  0  0  0  0  0  0  0  0
    7.2020  -10.3939    0.0000 C   0  0  0  0  0  0  0  0  0  0  0  0
    6.4875   -9.9814    0.0000 C   0  0  0  0  0  0  0  0  0  0  0  0
    5.7731  -10.3939    0.0000 C   0  0  0  0  0  0  0  0  0  0  0  0
    7.9165   -9.9814    0.0000 C   0  0  0  0  0  0  0  0  0  0  0  0
    7.9165   -9.1564    0.0000 C   0  0  0  0  0  0  0  0  0  0  0  0
    7.2020   -8.7439    0.0000 C   0  0  0  0  0  0  0  0  0  0  0  0
    6.4875   -9.1564    0.0000 C   0  0  0  0  0  0  0  0  0  0  0  0
    6.4875  -14.9314    0.0000 C   0  0  0  0  0  0  0  0  0  0  0  0
    8.6309  -10.3939    0.0000 C   0  0  0  0  0  0  0  0  0  0  0  0
    7.2020   -7.9189    0.0000 C   0  0  0  0  0  0  0  0  0  0  0  0
  1  2  2  0  0  0  0
  2  3  1  0  0  0  0
  3  4  2  0  0  0  0
  4  5  1  0  0  0  0
  5  6  2  0  0  0  0
  6  1  1  0  0  0  0
  6  7  1  0  0  0  0
  7  8  2  0  0  0  0
  9  1  1  0  0  0  0
  5 10  1  0  0  0  0
 11  7  1  0  0  0  0
 11 12  1  0  0  0  0
 12 13  2  0  0  0  0
 13 14  1  0  0  0  0
 12 15  1  0  0  0  0
 15 16  2  0  0  0  0
 16 17  1  0  0  0  0
 17 18  2  0  0  0  0
 18 13  1  0  0  0  0
  3 19  1  0  0  0  0
 15 20  1  0  0  0  0
 17 21  1  0  0  0  0
M  END
>  <cdx:fragmentId>
5

$$$$
