602304.cdx
  Mrv1902 05222410252D          

 41 45  0  0  0  0            999 V2000
    9.2815  -10.8115    0.0000 O   0  0  0  0  0  0  0  0  0  0  0  0
    9.2916   -9.9865    0.0000 C   0  0  2  0  0  0  0  0  0  0  0  0
   10.0110   -9.5827    0.0000 C   0  0  1  0  0  0  0  0  0  0  0  0
   10.7204  -10.0039    0.0000 C   0  0  2  0  0  0  0  0  0  0  0  0
   10.7104  -10.8288    0.0000 C   0  0  1  0  0  0  0  0  0  0  0  0
    9.9909  -11.2326    0.0000 C   0  0  0  0  0  0  0  0  0  0  0  0
   10.0210   -8.7578    0.0000 O   0  0  0  0  0  0  0  0  0  0  0  0
   11.4398   -9.6001    0.0000 O   0  0  0  0  0  0  0  0  0  0  0  0
   11.4198  -11.2500    0.0000 O   0  0  0  0  0  0  0  0  0  0  0  0
    8.5822   -9.5654    0.0000 O   0  0  0  0  0  0  0  0  0  0  0  0
    6.4339   -9.9518    0.0000 O   0  0  0  0  0  0  0  0  0  0  0  0
    7.1533   -9.5480    0.0000 C   0  0  2  0  0  0  0  0  0  0  0  0
    7.8627   -9.9691    0.0000 C   0  0  1  0  0  0  0  0  0  0  0  0
    7.8527  -10.7941    0.0000 C   0  0  2  0  0  0  0  0  0  0  0  0
    7.1333  -11.1979    0.0000 C   0  0  1  0  0  0  0  0  0  0  0  0
    6.4239  -10.7767    0.0000 C   0  0  1  0  0  0  0  0  0  0  0  0
    5.7044  -11.1805    0.0000 C   0  0  0  0  0  0  0  0  0  0  0  0
    5.7044  -12.0055    0.0000 O   0  0  0  0  0  0  0  0  0  0  0  0
    7.1232  -12.0228    0.0000 O   0  0  0  0  0  0  0  0  0  0  0  0
    8.5621  -11.2152    0.0000 O   0  0  0  0  0  0  0  0  0  0  0  0
    7.1634   -8.7230    0.0000 O   0  0  0  0  0  0  0  0  0  0  0  0
    6.4640   -7.4770    0.0000 C   0  0  0  0  0  0  0  0  0  0  0  0
    6.4539   -8.3019    0.0000 C   0  0  0  0  0  0  0  0  0  0  0  0
    5.7345   -8.7057    0.0000 C   0  0  0  0  0  0  0  0  0  0  0  0
    5.0251   -8.2845    0.0000 C   0  0  0  0  0  0  0  0  0  0  0  0
    4.3057   -8.6883    0.0000 C   0  0  0  0  0  0  0  0  0  0  0  0
    3.5963   -8.2672    0.0000 C   0  0  0  0  0  0  0  0  0  0  0  0
    3.6063   -7.4422    0.0000 C   0  0  0  0  0  0  0  0  0  0  0  0
    4.3257   -7.0384    0.0000 C   0  0  0  0  0  0  0  0  0  0  0  0
    5.0351   -7.4596    0.0000 C   0  0  0  0  0  0  0  0  0  0  0  0
    5.7546   -7.0558    0.0000 O   0  3  0  0  0  0  0  0  0  0  0  0
    2.8969   -7.0211    0.0000 O   0  0  0  0  0  0  0  0  0  0  0  0
    4.2957   -9.5132    0.0000 O   0  0  0  0  0  0  0  0  0  0  0  0
    7.1834   -7.0732    0.0000 C   0  0  0  0  0  0  0  0  0  0  0  0
    7.8928   -7.4943    0.0000 C   0  0  0  0  0  0  0  0  0  0  0  0
    8.6122   -7.0905    0.0000 C   0  0  0  0  0  0  0  0  0  0  0  0
    8.6223   -6.2656    0.0000 C   0  0  0  0  0  0  0  0  0  0  0  0
    7.9129   -5.8444    0.0000 C   0  0  0  0  0  0  0  0  0  0  0  0
    7.1934   -6.2482    0.0000 C   0  0  0  0  0  0  0  0  0  0  0  0
    9.3417   -5.8618    0.0000 O   0  0  0  0  0  0  0  0  0  0  0  0
    9.3216   -7.5117    0.0000 O   0  0  0  0  0  0  0  0  0  0  0  0
  1  2  1  0  0  0  0
  2  3  1  0  0  0  0
  3  4  1  0  0  0  0
  4  5  1  0  0  0  0
  5  6  1  0  0  0  0
  1  6  1  0  0  0  0
  3  7  1  6  0  0  0
  4  8  1  1  0  0  0
  5  9  1  6  0  0  0
 11 12  1  0  0  0  0
 12 13  1  0  0  0  0
 13 14  1  0  0  0  0
 14 15  1  0  0  0  0
 15 16  1  0  0  0  0
 11 16  1  0  0  0  0
 17 18  1  0  0  0  0
 16 17  1  1  0  0  0
 15 19  1  6  0  0  0
 14 20  1  1  0  0  0
 22 23  1  0  0  0  0
 23 24  2  0  0  0  0
 24 25  1  0  0  0  0
 25 26  1  0  0  0  0
 26 27  2  0  0  0  0
 27 28  1  0  0  0  0
 28 29  2  0  0  0  0
 29 30  1  0  0  0  0
 25 30  2  0  0  0  0
 30 31  1  0  0  0  0
 22 31  2  0  0  0  0
 28 32  1  0  0  0  0
 26 33  1  0  0  0  0
 34 35  1  0  0  0  0
 35 36  2  0  0  0  0
 36 37  1  0  0  0  0
 37 38  2  0  0  0  0
 38 39  1  0  0  0  0
 34 39  2  0  0  0  0
 37 40  1  0  0  0  0
 36 41  1  0  0  0  0
 22 34  1  0  0  0  0
 21 23  1  0  0  0  0
 12 21  1  1  0  0  0
 13 10  1  6  0  0  0
  2 10  1  1  0  0  0
M  CHG  1  31   1
M  END
>  <cdx:fragmentId>
25796

$$$$
