602483.cdx
  Mrv1902 05222410232D          

 10 10  0  0  0  0            999 V2000
    5.6930   -6.8200    0.0000 C   0  0  0  0  0  0  0  0  0  0  0  0
    5.6930   -7.6450    0.0000 C   0  0  0  0  0  0  0  0  0  0  0  0
    6.4075   -8.0575    0.0000 C   0  0  0  0  0  0  0  0  0  0  0  0
    7.1220   -7.6450    0.0000 C   0  0  0  0  0  0  0  0  0  0  0  0
    7.1220   -6.8200    0.0000 C   0  0  0  0  0  0  0  0  0  0  0  0
    6.4075   -6.4075    0.0000 N   0  0  0  0  0  0  0  0  0  0  0  0
    7.8364   -6.4075    0.0000 C   0  0  0  0  0  0  0  0  0  0  0  0
    8.5509   -6.8200    0.0000 C   0  0  0  0  0  0  0  0  0  0  0  0
    9.2654   -6.4075    0.0000 C   0  0  0  0  0  0  0  0  0  0  0  0
    8.5509   -7.6450    0.0000 O   0  0  0  0  0  0  0  0  0  0  0  0
  1  2  1  0  0  0  0
  2  3  1  0  0  0  0
  3  4  1  0  0  0  0
  4  5  1  0  0  0  0
  5  6  1  0  0  0  0
  6  1  1  0  0  0  0
  5  7  1  0  0  0  0
  7  8  1  0  0  0  0
  8  9  1  0  0  0  0
  8 10  2  0  0  0  0
M  END
>  <cdx:fragmentId>
5

$$$$
