60245.cdx
  Mrv1902 05222410262D          

 10 10  0  0  0  0            999 V2000
    6.3781   -9.3214    0.0000 C   0  0  0  0  0  0  0  0  0  0  0  0
    6.3781  -10.1464    0.0000 C   0  0  0  0  0  0  0  0  0  0  0  0
    7.0925  -10.5589    0.0000 O   0  0  0  0  0  0  0  0  0  0  0  0
    7.8070  -10.1464    0.0000 C   0  0  0  0  0  0  0  0  0  0  0  0
    7.8070   -9.3214    0.0000 C   0  0  0  0  0  0  0  0  0  0  0  0
    7.0925   -8.9089    0.0000 C   0  0  0  0  0  0  0  0  0  0  0  0
    5.6636   -8.9089    0.0000 O   0  0  0  0  0  0  0  0  0  0  0  0
    7.0925   -8.0839    0.0000 O   0  0  0  0  0  0  0  0  0  0  0  0
    8.5215  -10.5589    0.0000 C   0  0  0  0  0  0  0  0  0  0  0  0
    8.5215  -11.3839    0.0000 O   0  0  0  0  0  0  0  0  0  0  0  0
  1  2  2  0  0  0  0
  2  3  1  0  0  0  0
  3  4  1  0  0  0  0
  4  5  2  0  0  0  0
  5  6  1  0  0  0  0
  6  1  1  0  0  0  0
  1  7  1  0  0  0  0
  6  8  2  0  0  0  0
  4  9  1  0  0  0  0
  9 10  1  0  0  0  0
M  END
>  <cdx:fragmentId>
5

$$$$
