60247.cdx
  Mrv1902 05222410272D          

 24 24  0  0  0  0            999 V2000
    6.0390   -9.1434    0.0000 C   0  0  0  0  0  0  0  0  0  0  0  0
    6.3127   -9.9217    0.0000 C   0  0  0  0  0  0  0  0  0  0  0  0
    7.1374   -9.9018    0.0000 C   0  0  0  0  0  0  0  0  0  0  0  0
    7.3734   -9.1113    0.0000 C   0  0  0  0  0  0  0  0  0  0  0  0
    6.6945   -8.6426    0.0000 C   0  0  0  0  0  0  0  0  0  0  0  0
    5.2484   -8.9074    0.0000 O   0  0  0  0  0  0  0  0  0  0  0  0
    8.1517   -8.8376    0.0000 O   0  0  0  0  0  0  0  0  0  0  0  0
    7.6383  -10.5574    0.0000 O   0  0  0  0  0  0  0  0  0  0  0  0
    5.8440  -10.6006    0.0000 C   0  0  0  0  0  0  0  0  0  0  0  0
    6.1975  -11.3460    0.0000 C   0  0  0  0  0  0  0  0  0  0  0  0
    5.0216  -10.5341    0.0000 O   0  0  0  0  0  0  0  0  0  0  0  0
    5.7850  -12.0605    0.0000 C   0  0  0  0  0  0  0  0  0  0  0  0
    6.1975  -12.7749    0.0000 C   0  0  0  0  0  0  0  0  0  0  0  0
    4.9600  -12.0605    0.0000 C   0  0  0  0  0  0  0  0  0  0  0  0
    6.1112   -8.0592    0.0000 C   0  0  0  0  0  0  0  0  0  0  0  0
    7.2779   -8.0592    0.0000 C   0  0  0  0  0  0  0  0  0  0  0  0
    7.2779   -7.2342    0.0000 C   0  0  0  0  0  0  0  0  0  0  0  0
    7.9924   -6.8217    0.0000 C   0  0  0  0  0  0  0  0  0  0  0  0
    7.9924   -5.9967    0.0000 C   0  0  0  0  0  0  0  0  0  0  0  0
    8.7068   -7.2342    0.0000 C   0  0  0  0  0  0  0  0  0  0  0  0
    5.2862   -8.0592    0.0000 C   0  0  0  0  0  0  0  0  0  0  0  0
    4.8737   -7.3448    0.0000 C   0  0  0  0  0  0  0  0  0  0  0  0
    4.0487   -7.3448    0.0000 C   0  0  0  0  0  0  0  0  0  0  0  0
    5.2862   -6.6303    0.0000 C   0  0  0  0  0  0  0  0  0  0  0  0
  1  2  1  0  0  0  0
  2  3  1  0  0  0  0
  3  4  1  0  0  0  0
  4  5  1  0  0  0  0
  5  1  1  0  0  0  0
  1  6  2  0  0  0  0
  4  7  2  0  0  0  0
  3  8  2  0  0  0  0
  2  9  1  0  0  0  0
  9 10  1  0  0  0  0
  9 11  2  0  0  0  0
 10 12  1  0  0  0  0
 12 13  1  0  0  0  0
 12 14  1  0  0  0  0
  5 15  1  0  0  0  0
  5 16  1  0  0  0  0
 16 17  1  0  0  0  0
 17 18  2  0  0  0  0
 18 19  1  0  0  0  0
 18 20  1  0  0  0  0
 15 21  1  0  0  0  0
 21 22  2  0  0  0  0
 22 23  1  0  0  0  0
 22 24  1  0  0  0  0
M  END
>  <cdx:fragmentId>
5

$$$$
