60241.cdx
  Mrv1902 05222410282D          

 14 14  0  0  0  0            999 V2000
    3.1331  -10.0914    0.0000 C   0  0  0  0  0  0  0  0  0  0  0  0
    3.1331  -10.9164    0.0000 C   0  0  0  0  0  0  0  0  0  0  0  0
    3.8475  -11.3289    0.0000 C   0  0  0  0  0  0  0  0  0  0  0  0
    4.5620  -10.9164    0.0000 C   0  0  0  0  0  0  0  0  0  0  0  0
    4.5620  -10.0914    0.0000 C   0  0  0  0  0  0  0  0  0  0  0  0
    3.8475   -9.6789    0.0000 C   0  0  0  0  0  0  0  0  0  0  0  0
    5.2765   -9.6789    0.0000 C   0  0  0  0  0  0  0  0  0  0  0  0
    5.9909  -10.0914    0.0000 C   0  0  0  0  0  0  0  0  0  0  0  0
    6.7054   -9.6789    0.0000 C   0  0  0  0  0  0  0  0  0  0  0  0
    7.4199  -10.0914    0.0000 C   0  0  0  0  0  0  0  0  0  0  0  0
    8.1344   -9.6789    0.0000 C   0  0  0  0  0  0  0  0  0  0  0  0
    8.8488  -10.0914    0.0000 O   0  0  0  0  0  0  0  0  0  0  0  0
    8.1344   -8.8539    0.0000 O   0  0  0  0  0  0  0  0  0  0  0  0
    5.2765   -8.8539    0.0000 O   0  0  0  0  0  0  0  0  0  0  0  0
  1  2  2  0  0  0  0
  2  3  1  0  0  0  0
  3  4  2  0  0  0  0
  4  5  1  0  0  0  0
  5  6  2  0  0  0  0
  6  1  1  0  0  0  0
  5  7  1  0  0  0  0
  7  8  1  0  0  0  0
  8  9  1  0  0  0  0
  9 10  1  0  0  0  0
 10 11  1  0  0  0  0
 11 12  2  0  0  0  0
 11 13  1  0  0  0  0
  7 14  2  0  0  0  0
M  END
>  <cdx:fragmentId>
5

$$$$
