60248.cdx
  Mrv1902 05222410202D          

 39 42  0  0  0  0            999 V2000
    2.5418   -9.3626    0.0000 C   0  0  2  0  0  0  0  0  0  0  0  0
    2.5418  -10.1876    0.0000 C   0  0  2  0  0  0  0  0  0  0  0  0
    3.2563  -10.6001    0.0000 C   0  0  1  0  0  0  0  0  0  0  0  0
    3.9707  -10.1876    0.0000 C   0  0  2  0  0  0  0  0  0  0  0  0
    3.9707   -9.3626    0.0000 C   0  0  1  0  0  0  0  0  0  0  0  0
    3.2563   -8.9501    0.0000 O   0  0  0  0  0  0  0  0  0  0  0  0
    4.6852   -8.9501    0.0000 O   0  0  0  0  0  0  0  0  0  0  0  0
    4.6852   -8.1251    0.0000 C   0  0  2  0  0  0  0  0  0  0  0  0
    3.9707   -7.7126    0.0000 O   0  0  0  0  0  0  0  0  0  0  0  0
    5.3997   -7.7126    0.0000 C   0  0  1  0  0  0  0  0  0  0  0  0
    5.3997   -6.8876    0.0000 C   0  0  1  0  0  0  0  0  0  0  0  0
    4.6852   -6.4751    0.0000 C   0  0  0  0  0  0  0  0  0  0  0  0
    3.9707   -6.8876    0.0000 C   0  0  0  0  0  0  0  0  0  0  0  0
    6.1843   -7.9676    0.0000 C   0  0  2  0  0  0  0  0  0  0  0  0
    6.6692   -7.3001    0.0000 C   0  0  2  0  0  0  0  0  0  0  0  0
    6.1843   -6.6327    0.0000 C   0  0  0  0  0  0  0  0  0  0  0  0
    1.8273   -8.9501    0.0000 C   0  0  0  0  0  0  0  0  0  0  0  0
    1.1129   -9.3626    0.0000 O   0  0  0  0  0  0  0  0  0  0  0  0
    4.6852   -5.6501    0.0000 C   0  0  0  0  0  0  0  0  0  0  0  0
    3.9707   -5.2376    0.0000 O   0  0  0  0  0  0  0  0  0  0  0  0
    5.3997   -5.2376    0.0000 O   0  0  0  0  0  0  0  0  0  0  0  0
    3.2563  -11.4251    0.0000 O   0  0  0  0  0  0  0  0  0  0  0  0
    6.4392   -8.7522    0.0000 C   0  0  0  0  0  0  0  0  0  0  0  0
    5.3997   -6.0626    0.0000 H   0  0  0  0  0  0  0  0  0  0  0  0
    5.3997   -8.5376    0.0000 H   0  0  0  0  0  0  0  0  0  0  0  0
    7.4942   -7.3001    0.0000 O   0  0  0  0  0  0  0  0  0  0  0  0
    1.8273  -10.6001    0.0000 O   0  0  0  0  0  0  0  0  0  0  0  0
    4.6852  -10.6001    0.0000 O   0  0  0  0  0  0  0  0  0  0  0  0
    7.9067   -6.5857    0.0000 C   0  0  0  0  0  0  0  0  0  0  0  0
    8.7317   -6.5857    0.0000 C   0  0  0  0  0  0  0  0  0  0  0  0
    7.4942   -5.8712    0.0000 O   0  0  0  0  0  0  0  0  0  0  0  0
    9.1442   -5.8712    0.0000 C   0  0  0  0  0  0  0  0  0  0  0  0
    9.9692   -5.8712    0.0000 C   0  0  0  0  0  0  0  0  0  0  0  0
   10.3817   -6.5857    0.0000 C   0  0  0  0  0  0  0  0  0  0  0  0
   11.2067   -6.5857    0.0000 C   0  0  0  0  0  0  0  0  0  0  0  0
   11.6192   -5.8712    0.0000 C   0  0  0  0  0  0  0  0  0  0  0  0
   11.2067   -5.1567    0.0000 C   0  0  0  0  0  0  0  0  0  0  0  0
   10.3817   -5.1567    0.0000 C   0  0  0  0  0  0  0  0  0  0  0  0
   12.4442   -5.8712    0.0000 O   0  0  0  0  0  0  0  0  0  0  0  0
  1  2  1  0  0  0  0
  2  3  1  0  0  0  0
  3  4  1  0  0  0  0
  4  5  1  0  0  0  0
  5  6  1  0  0  0  0
  6  1  1  0  0  0  0
  5  7  1  1  0  0  0
  8  7  1  6  0  0  0
  8  9  1  0  0  0  0
  8 10  1  0  0  0  0
 10 11  1  0  0  0  0
 11 12  1  0  0  0  0
 12 13  2  0  0  0  0
 13  9  1  0  0  0  0
 10 14  1  0  0  0  0
 14 15  1  0  0  0  0
 15 16  1  0  0  0  0
 16 11  1  0  0  0  0
  1 17  1  1  0  0  0
 17 18  1  0  0  0  0
 12 19  1  0  0  0  0
 19 20  1  0  0  0  0
 19 21  2  0  0  0  0
  3 22  1  1  0  0  0
 14 23  1  6  0  0  0
 11 24  1  6  0  0  0
 10 25  1  6  0  0  0
 15 26  1  6  0  0  0
  2 27  1  6  0  0  0
  4 28  1  6  0  0  0
 26 29  1  0  0  0  0
 29 30  1  0  0  0  0
 29 31  2  0  0  0  0
 30 32  2  0  0  0  0
 32 33  1  0  0  0  0
 33 34  2  0  0  0  0
 34 35  1  0  0  0  0
 35 36  2  0  0  0  0
 36 37  1  0  0  0  0
 37 38  2  0  0  0  0
 38 33  1  0  0  0  0
 36 39  1  0  0  0  0
M  END
>  <cdx:fragmentId>
5

$$$$
