60242.cdx
  Mrv1902 05222410272D          

 14 14  0  0  0  0            999 V2000
    5.3743   -5.0039    0.0000 C   0  0  0  0  0  0  0  0  0  0  0  0
    5.3743   -5.8289    0.0000 C   0  0  0  0  0  0  0  0  0  0  0  0
    6.0888   -6.2414    0.0000 C   0  0  0  0  0  0  0  0  0  0  0  0
    6.8032   -5.8289    0.0000 C   0  0  0  0  0  0  0  0  0  0  0  0
    6.8032   -5.0039    0.0000 C   0  0  0  0  0  0  0  0  0  0  0  0
    6.0888   -4.5914    0.0000 C   0  0  0  0  0  0  0  0  0  0  0  0
    6.0888   -3.7664    0.0000 C   0  0  0  0  0  0  0  0  0  0  0  0
    7.6001   -5.6154    0.0000 C   0  0  0  0  0  0  0  0  0  0  0  0
    7.2157   -6.5434    0.0000 C   0  0  0  0  0  0  0  0  0  0  0  0
    7.5177   -4.5914    0.0000 C   0  0  0  0  0  0  0  0  0  0  0  0
    8.2322   -5.0039    0.0000 C   0  0  0  0  0  0  0  0  0  0  0  0
    8.9467   -4.5914    0.0000 C   0  0  0  0  0  0  0  0  0  0  0  0
    9.6611   -5.0039    0.0000 C   0  0  0  0  0  0  0  0  0  0  0  0
    7.5177   -3.7664    0.0000 O   0  0  0  0  0  0  0  0  0  0  0  0
  1  2  1  0  0  0  0
  2  3  1  0  0  0  0
  3  4  1  0  0  0  0
  4  5  1  0  0  0  0
  5  6  1  0  0  0  0
  6  1  2  0  0  0  0
  6  7  1  0  0  0  0
  4  8  1  0  0  0  0
  4  9  1  0  0  0  0
  5 10  1  0  0  0  0
 10 11  1  0  0  0  0
 11 12  2  0  0  0  0
 12 13  1  0  0  0  0
 10 14  2  0  0  0  0
M  END
>  <cdx:fragmentId>
5

$$$$
