602484.cdx
  Mrv1902 05222410212D          

 11 12  0  0  0  0            999 V2000
    6.0840   -6.5181    0.0000 C   0  0  0  0  0  0  0  0  0  0  0  0
    8.7994   -9.0135    0.0000 O   0  0  0  0  0  0  0  0  0  0  0  0
    6.2975   -7.3150    0.0000 N   0  0  0  0  0  0  0  0  0  0  0  0
    5.6375   -9.3500    0.0000 C   0  0  0  0  0  0  0  0  0  0  0  0
    5.0875   -8.8275    0.0000 C   0  0  0  0  0  0  0  0  0  0  0  0
    5.5275   -8.1400    0.0000 C   0  0  0  0  0  0  0  0  0  0  0  0
    6.7650   -7.9805    0.0000 C   0  0  0  0  0  0  0  0  0  0  0  0
    7.6725   -8.1125    0.0000 C   0  0  0  0  0  0  0  0  0  0  0  0
    8.0025   -8.8000    0.0000 C   0  0  0  0  0  0  0  0  0  0  0  0
    7.4250   -9.3225    0.0000 C   0  0  0  0  0  0  0  0  0  0  0  0
    6.5175   -9.0200    0.0000 C   0  0  0  0  0  0  0  0  0  0  0  0
  3  1  1  0  0  0  0
  9  2  2  0  0  0  0
  3  7  1  0  0  0  0
 11  4  1  0  0  0  0
  5  4  1  0  0  0  0
  6  5  1  0  0  0  0
  7  6  1  0  0  0  0
  8  7  1  0  0  0  0
  9  8  1  0  0  0  0
 10  9  1  0  0  0  0
 11 10  1  0  0  0  0
  3 11  1  0  0  0  0
M  END
>  <cdx:fragmentId>
5

$$$$
