602482.cdx
  Mrv1902 05222410222D          

 11 11  0  0  0  0            999 V2000
    5.5555   -7.6725    0.0000 C   0  0  0  0  0  0  0  0  0  0  0  0
    5.5555   -8.4975    0.0000 C   0  0  0  0  0  0  0  0  0  0  0  0
    6.2700   -8.9100    0.0000 C   0  0  0  0  0  0  0  0  0  0  0  0
    6.9845   -8.4975    0.0000 C   0  0  0  0  0  0  0  0  0  0  0  0
    6.9845   -7.6725    0.0000 C   0  0  0  0  0  0  0  0  0  0  0  0
    6.2700   -7.2600    0.0000 N   0  0  0  0  0  0  0  0  0  0  0  0
    7.6989   -7.2600    0.0000 C   0  0  0  0  0  0  0  0  0  0  0  0
    8.4134   -7.6725    0.0000 C   0  0  0  0  0  0  0  0  0  0  0  0
    9.1279   -7.2600    0.0000 C   0  0  0  0  0  0  0  0  0  0  0  0
    8.4134   -8.4975    0.0000 O   0  0  0  0  0  0  0  0  0  0  0  0
    6.2700   -6.4350    0.0000 C   0  0  0  0  0  0  0  0  0  0  0  0
  1  2  1  0  0  0  0
  2  3  1  0  0  0  0
  3  4  1  0  0  0  0
  4  5  1  0  0  0  0
  5  6  1  0  0  0  0
  6  1  1  0  0  0  0
  5  7  1  0  0  0  0
  7  8  1  0  0  0  0
  8  9  1  0  0  0  0
  8 10  2  0  0  0  0
  6 11  1  0  0  0  0
M  END
>  <cdx:fragmentId>
5

$$$$
