602491.cdx
  Mrv1902 05222410212D          

 12 13  0  0  0  0            999 V2000
    6.2394   -6.8087    0.0000 C   0  0  0  0  0  0  0  0  0  0  0  0
    6.2394   -7.6337    0.0000 C   0  0  0  0  0  0  0  0  0  0  0  0
    7.0240   -7.8887    0.0000 C   0  0  0  0  0  0  0  0  0  0  0  0
    7.5089   -7.2212    0.0000 C   0  0  0  0  0  0  0  0  0  0  0  0
    7.0240   -6.5538    0.0000 S   0  0  0  0  0  0  0  0  0  0  0  0
    5.4548   -7.8887    0.0000 C   0  0  0  0  0  0  0  0  0  0  0  0
    4.9698   -7.2212    0.0000 C   0  0  0  0  0  0  0  0  0  0  0  0
    5.4548   -6.5538    0.0000 S   0  0  0  0  0  0  0  0  0  0  0  0
    8.3339   -7.2212    0.0000 C   0  0  0  0  0  0  0  0  0  0  0  0
    9.1589   -7.2212    0.0000 C   0  0  0  0  0  0  0  0  0  0  0  0
    8.7464   -7.9357    0.0000 C   0  0  0  0  0  0  0  0  0  0  0  0
    8.7464   -6.5067    0.0000 C   0  0  0  0  0  0  0  0  0  0  0  0
  1  2  2  0  0  0  0
  2  3  1  0  0  0  0
  3  4  2  0  0  0  0
  4  5  1  0  0  0  0
  1  5  1  0  0  0  0
  6  7  2  0  0  0  0
  7  8  1  0  0  0  0
  8  1  1  0  0  0  0
  6  2  1  0  0  0  0
  9 10  1  0  0  0  0
  9 12  1  0  0  0  0
  9 11  1  0  0  0  0
  4  9  1  0  0  0  0
M  END
>  <cdx:groupId>
7449

>  <cdx:fragmentId>
7415

$$$$
