60246.cdx
  Mrv1902 05222410272D          

 27 27  0  0  0  0            999 V2000
    4.8397  -10.0517    0.0000 C   0  0  2  0  0  0  0  0  0  0  0  0
    5.1186  -10.8281    0.0000 C   0  0  2  0  0  0  0  0  0  0  0  0
    5.9432  -10.8027    0.0000 C   0  0  2  0  0  0  0  0  0  0  0  0
    6.1739  -10.0106    0.0000 C   0  0  1  0  0  0  0  0  0  0  0  0
    5.4919   -9.5464    0.0000 O   0  0  0  0  0  0  0  0  0  0  0  0
    4.6545  -11.5101    0.0000 O   0  0  0  0  0  0  0  0  0  0  0  0
    6.4485  -11.4548    0.0000 O   0  0  0  0  0  0  0  0  0  0  0  0
    4.0476   -9.8210    0.0000 C   0  0  0  0  0  0  0  0  0  0  0  0
    6.9503   -9.7316    0.0000 O   0  0  0  0  0  0  0  0  0  0  0  0
    3.4981  -10.4364    0.0000 O   0  0  0  0  0  0  0  0  0  0  0  0
    3.8202   -9.0280    0.0000 C   0  0  0  0  0  0  0  0  0  0  0  0
    3.0125   -8.8598    0.0000 O   0  0  0  0  0  0  0  0  0  0  0  0
    6.9355   -8.9067    0.0000 C   0  0  0  0  0  0  0  0  0  0  0  0
    7.6424   -8.4814    0.0000 C   0  0  0  0  0  0  0  0  0  0  0  0
    9.0711   -8.4557    0.0000 C   0  0  0  0  0  0  0  0  0  0  0  0
    9.0563   -7.6309    0.0000 C   0  0  0  0  0  0  0  0  0  0  0  0
    8.3345   -7.2313    0.0000 C   0  0  0  0  0  0  0  0  0  0  0  0
    7.6276   -7.6566    0.0000 C   0  0  0  0  0  0  0  0  0  0  0  0
    9.7929   -8.8553    0.0000 C   0  0  0  0  0  0  0  0  0  0  0  0
   10.4998   -8.4300    0.0000 C   0  0  0  0  0  0  0  0  0  0  0  0
   10.4850   -7.6052    0.0000 C   0  0  0  0  0  0  0  0  0  0  0  0
    9.7632   -7.2056    0.0000 C   0  0  0  0  0  0  0  0  0  0  0  0
   10.4553   -5.9554    0.0000 C   0  0  0  0  0  0  0  0  0  0  0  0
    9.7484   -6.3807    0.0000 C   0  0  0  0  0  0  0  0  0  0  0  0
    6.9058   -7.2570    0.0000 C   0  0  0  0  0  0  0  0  0  0  0  0
    9.8077   -9.6802    0.0000 C   0  0  0  0  0  0  0  0  0  0  0  0
    9.0266   -5.9811    0.0000 C   0  0  0  0  0  0  0  0  0  0  0  0
  1  2  1  0  0  0  0
  2  3  1  0  0  0  0
  3  4  1  0  0  0  0
  4  5  1  0  0  0  0
  5  1  1  0  0  0  0
  2  6  1  6  0  0  0
  3  7  1  6  0  0  0
  1  8  1  1  0  0  0
  4  9  1  1  0  0  0
  8 10  1  0  0  0  0
  8 11  1  0  0  0  0
 11 12  1  0  0  0  0
  9 13  1  0  0  0  0
 13 14  1  0  0  0  0
 15 16  1  0  0  0  0
 16 17  1  0  0  0  0
 17 18  1  0  0  0  0
 18 14  2  0  0  0  0
 15 19  2  0  0  0  0
 19 20  1  0  0  0  0
 20 21  1  0  0  0  0
 21 22  1  0  0  0  0
 23 24  1  0  0  0  0
 24 22  2  0  0  0  0
 18 25  1  0  0  0  0
 19 26  1  0  0  0  0
 24 27  1  0  0  0  0
M  END
>  <cdx:fragmentId>
5

$$$$
