60257.cdx
  Mrv1902 05222410272D          

 17 16  0  0  0  0            999 V2000
    1.9363   -8.7439    0.0000 C   0  0  0  0  0  0  0  0  0  0  0  0
    2.6507   -8.3314    0.0000 C   0  0  0  0  0  0  0  0  0  0  0  0
    3.3652   -8.7439    0.0000 C   0  0  0  0  0  0  0  0  0  0  0  0
    4.0797   -8.3314    0.0000 C   0  0  0  0  0  0  0  0  0  0  0  0
    4.7942   -8.7439    0.0000 C   0  0  0  0  0  0  0  0  0  0  0  0
    5.5086   -8.3314    0.0000 C   0  0  0  0  0  0  0  0  0  0  0  0
    6.2231   -8.7439    0.0000 C   0  0  0  0  0  0  0  0  0  0  0  0
    6.9376   -8.3314    0.0000 C   0  0  0  0  0  0  0  0  0  0  0  0
    7.6520   -8.7439    0.0000 C   0  0  0  0  0  0  0  0  0  0  0  0
    8.3665   -8.3314    0.0000 C   0  0  0  0  0  0  0  0  0  0  0  0
    9.0810   -8.7439    0.0000 C   0  0  0  0  0  0  0  0  0  0  0  0
    9.7955   -8.3314    0.0000 C   0  0  0  0  0  0  0  0  0  0  0  0
   10.5099   -8.7439    0.0000 C   0  0  0  0  0  0  0  0  0  0  0  0
   11.2244   -8.3314    0.0000 C   0  0  0  0  0  0  0  0  0  0  0  0
   11.9389   -8.7439    0.0000 C   0  0  0  0  0  0  0  0  0  0  0  0
   12.6533   -8.3314    0.0000 C   0  0  0  0  0  0  0  0  0  0  0  0
   13.3678   -8.7439    0.0000 O   0  0  0  0  0  0  0  0  0  0  0  0
  1  2  2  0  0  0  0
  2  3  1  0  0  0  0
  3  4  1  0  0  0  0
  4  5  1  0  0  0  0
  5  6  1  0  0  0  0
  6  7  1  0  0  0  0
  7  8  1  0  0  0  0
  8  9  2  0  0  0  0
  9 10  1  0  0  0  0
 10 11  1  0  0  0  0
 11 12  1  0  0  0  0
 12 13  1  0  0  0  0
 13 14  1  0  0  0  0
 14 15  1  0  0  0  0
 15 16  1  0  0  0  0
 16 17  2  0  0  0  0
M  END
>  <cdx:fragmentId>
3

$$$$
