60258.cdx
  Mrv1902 05222410182D          

 33 35  0  0  0  0            999 V2000
    4.8095   -9.4314    0.0000 C   0  0  0  0  0  0  0  0  0  0  0  0
    4.8095   -8.6064    0.0000 C   0  0  0  0  0  0  0  0  0  0  0  0
    4.0950   -8.1939    0.0000 C   0  0  0  0  0  0  0  0  0  0  0  0
    4.0950  -10.6689    0.0000 C   0  0  0  0  0  0  0  0  0  0  0  0
    4.8095  -11.0814    0.0000 C   0  0  0  0  0  0  0  0  0  0  0  0
    5.5240  -10.6689    0.0000 C   0  0  0  0  0  0  0  0  0  0  0  0
    5.5240   -9.8439    0.0000 C   0  0  0  0  0  0  0  0  0  0  0  0
    6.2384  -11.0814    0.0000 C   0  0  0  0  0  0  0  0  0  0  0  0
    6.9529  -10.6689    0.0000 C   0  0  0  0  0  0  0  0  0  0  0  0
    6.9529   -9.8439    0.0000 C   0  0  0  0  0  0  0  0  0  0  0  0
    6.2384   -9.4314    0.0000 O   0  0  0  0  0  0  0  0  0  0  0  0
    4.8095  -11.9064    0.0000 O   0  0  0  0  0  0  0  0  0  0  0  0
    6.2384  -11.9064    0.0000 O   0  0  0  0  0  0  0  0  0  0  0  0
    7.6674  -11.0814    0.0000 O   0  0  0  0  0  0  0  0  0  0  0  0
    8.3819   -9.8439    0.0000 C   0  0  0  0  0  0  0  0  0  0  0  0
    7.6674   -9.4314    0.0000 C   0  0  0  0  0  0  0  0  0  0  0  0
    9.0963   -9.4314    0.0000 C   0  0  0  0  0  0  0  0  0  0  0  0
    9.0963   -8.6064    0.0000 C   0  0  0  0  0  0  0  0  0  0  0  0
    8.3819   -8.1939    0.0000 C   0  0  0  0  0  0  0  0  0  0  0  0
    7.6674   -8.6064    0.0000 C   0  0  0  0  0  0  0  0  0  0  0  0
    8.3819   -7.3689    0.0000 O   0  0  0  0  0  0  0  0  0  0  0  0
    6.9529   -7.3689    0.0000 C   0  0  0  0  0  0  0  0  0  0  0  0
    6.9529   -8.1939    0.0000 C   0  0  0  0  0  0  0  0  0  0  0  0
    6.2384   -6.9564    0.0000 C   0  0  0  0  0  0  0  0  0  0  0  0
    5.5240   -7.3689    0.0000 C   0  0  0  0  0  0  0  0  0  0  0  0
    4.0950   -7.3689    0.0000 C   0  0  0  0  0  0  0  0  0  0  0  0
    3.3806   -6.9564    0.0000 C   0  0  0  0  0  0  0  0  0  0  0  0
    4.8095   -6.9564    0.0000 C   0  0  0  0  0  0  0  0  0  0  0  0
    4.0950   -9.8439    0.0000 C   0  0  0  0  0  0  0  0  0  0  0  0
    3.3806   -9.4314    0.0000 O   0  0  0  0  0  0  0  0  0  0  0  0
    7.6674  -11.9064    0.0000 C   0  0  0  0  0  0  0  0  0  0  0  0
    9.8108   -8.1939    0.0000 O   0  0  0  0  0  0  0  0  0  0  0  0
    6.2384   -6.1314    0.0000 C   0  0  0  0  0  0  0  0  0  0  0  0
  1  2  1  0  0  0  0
  2  3  1  0  0  0  0
  4  5  1  0  0  0  0
  5  6  2  0  0  0  0
  6  7  1  0  0  0  0
  7  1  2  0  0  0  0
  6  8  1  0  0  0  0
  8  9  1  0  0  0  0
  9 10  2  0  0  0  0
 10 11  1  0  0  0  0
 11  7  1  0  0  0  0
  5 12  1  0  0  0  0
 13  8  2  0  0  0  0
  9 14  1  0  0  0  0
 15 16  2  0  0  0  0
 16 10  1  0  0  0  0
 15 17  1  0  0  0  0
 17 18  2  0  0  0  0
 18 19  1  0  0  0  0
 19 20  2  0  0  0  0
 20 16  1  0  0  0  0
 19 21  1  0  0  0  0
 22 23  1  0  0  0  0
 23 20  1  0  0  0  0
 22 24  2  0  0  0  0
 24 25  1  0  0  0  0
  3 26  2  0  0  0  0
 26 27  1  0  0  0  0
 26 28  1  0  0  0  0
  4 29  2  0  0  0  0
 29  1  1  0  0  0  0
 29 30  1  0  0  0  0
 14 31  1  0  0  0  0
 18 32  1  0  0  0  0
 24 33  1  0  0  0  0
M  END
>  <cdx:fragmentId>
5

$$$$
