60256.cdx
  Mrv1902 05222410272D          

 23 27  0  0  0  0            999 V2000
    7.1214   -7.3458    0.0000 C   0  0  0  0  0  0  0  0  0  0  0  0
    6.8434   -6.5690    0.0000 C   0  0  0  0  0  0  0  0  0  0  0  0
    7.9331   -7.4934    0.0000 C   0  0  0  0  0  0  0  0  0  0  0  0
    8.4668   -6.8643    0.0000 N   0  0  0  0  0  0  0  0  0  0  0  0
    8.1888   -6.0876    0.0000 C   0  0  1  0  0  0  0  0  0  0  0  0
    7.3771   -5.9399    0.0000 C   0  0  0  0  0  0  0  0  0  0  0  0
    8.2110   -8.2702    0.0000 N   0  0  0  0  0  0  0  0  0  0  0  0
    9.0227   -8.4179    0.0000 C   0  0  0  0  0  0  0  0  0  0  0  0
    9.5564   -7.7888    0.0000 C   0  0  0  0  0  0  0  0  0  0  0  0
    9.2784   -7.0120    0.0000 C   0  0  0  0  0  0  0  0  0  0  0  0
    9.3007   -9.1946    0.0000 C   0  0  0  0  0  0  0  0  0  0  0  0
   10.1123   -9.3423    0.0000 C   0  0  0  0  0  0  0  0  0  0  0  0
   10.6460   -8.7132    0.0000 C   0  0  0  0  0  0  0  0  0  0  0  0
   10.3681   -7.9364    0.0000 C   0  0  0  0  0  0  0  0  0  0  0  0
    9.8122   -6.3829    0.0000 O   0  0  0  0  0  0  0  0  0  0  0  0
    8.7225   -5.4585    0.0000 O   0  0  0  0  0  0  0  0  0  0  0  0
    6.0188   -6.5933    0.0000 C   0  0  0  0  0  0  0  0  0  0  0  0
    5.7871   -7.3851    0.0000 C   0  0  0  0  0  0  0  0  0  0  0  0
    6.4685   -7.8502    0.0000 N   0  0  0  0  0  0  0  0  0  0  0  0
    5.4489   -5.9968    0.0000 C   0  0  0  0  0  0  0  0  0  0  0  0
    4.6473   -6.1920    0.0000 C   0  0  0  0  0  0  0  0  0  0  0  0
    4.4156   -6.9838    0.0000 C   0  0  0  0  0  0  0  0  0  0  0  0
    4.9855   -7.5804    0.0000 C   0  0  0  0  0  0  0  0  0  0  0  0
  1  2  2  0  0  0  0
  1  3  1  0  0  0  0
  3  4  1  0  0  0  0
  4  5  1  0  0  0  0
  5  6  1  0  0  0  0
  6  2  1  0  0  0  0
  3  7  2  0  0  0  0
  7  8  1  0  0  0  0
  8  9  2  0  0  0  0
  9 10  1  0  0  0  0
 10  4  1  0  0  0  0
  8 11  1  0  0  0  0
 11 12  2  0  0  0  0
 12 13  1  0  0  0  0
 13 14  2  0  0  0  0
 14  9  1  0  0  0  0
 10 15  2  0  0  0  0
  5 16  1  1  0  0  0
  2 17  1  0  0  0  0
 17 18  2  0  0  0  0
 18 19  1  0  0  0  0
 19  1  1  0  0  0  0
 17 20  1  0  0  0  0
 20 21  2  0  0  0  0
 21 22  1  0  0  0  0
 22 23  2  0  0  0  0
 23 18  1  0  0  0  0
M  END
>  <cdx:fragmentId>
5

$$$$
