60251.cdx
  Mrv1902 05222410262D          

 41 46  0  0  0  0            999 V2000
    0.2358   -8.8945    0.0000 C   0  0  0  0  0  0  0  0  0  0  0  0
   13.7931   -7.4763    0.0000 O   0  0  0  0  0  0  0  0  0  0  0  0
    0.9557   -9.2975    0.0000 O   0  0  0  0  0  0  0  0  0  0  0  0
   12.3863   -9.1452    0.0000 C   0  0  0  0  0  0  0  0  0  0  0  0
   13.0952   -8.7232    0.0000 C   0  0  0  0  0  0  0  0  0  0  0  0
   13.0842   -7.8983    0.0000 C   0  0  0  0  0  0  0  0  0  0  0  0
   12.3643   -7.4953    0.0000 C   0  0  0  0  0  0  0  0  0  0  0  0
   11.6663   -8.7422    0.0000 C   0  0  0  0  0  0  0  0  0  0  0  0
   11.6554   -7.9173    0.0000 C   0  0  0  0  0  0  0  0  0  0  0  0
    8.8417  -11.2551    0.0000 O   0  0  0  0  0  0  0  0  0  0  0  0
   10.2705  -11.2361    0.0000 O   0  0  0  0  0  0  0  0  0  0  0  0
   10.2595  -10.4111    0.0000 C   0  0  0  0  0  0  0  0  0  0  0  0
   10.9684   -9.9892    0.0000 C   0  0  0  0  0  0  0  0  0  0  0  0
   10.9574   -9.1642    0.0000 C   0  0  0  0  0  0  0  0  0  0  0  0
   10.2375   -8.7613    0.0000 O   0  0  0  0  0  0  0  0  0  0  0  0
    8.8307  -10.4302    0.0000 C   0  0  0  0  0  0  0  0  0  0  0  0
    9.5396  -10.0082    0.0000 C   0  0  0  0  0  0  0  0  0  0  0  0
    9.5286   -9.1833    0.0000 C   0  0  0  0  0  0  0  0  0  0  0  0
    8.8087   -8.7803    0.0000 C   0  0  0  0  0  0  0  0  0  0  0  0
    7.4019  -10.4492    0.0000 O   0  0  0  0  0  0  0  0  0  0  0  0
    8.1108  -10.0272    0.0000 C   0  0  0  0  0  0  0  0  0  0  0  0
    8.0998   -9.2023    0.0000 C   0  0  0  0  0  0  0  0  0  0  0  0
    7.3799   -8.7994    0.0000 O   0  0  0  0  0  0  0  0  0  0  0  0
    5.9731  -10.4682    0.0000 C   0  0  0  0  0  0  0  0  0  0  0  0
    6.6820  -10.0463    0.0000 C   0  0  0  0  0  0  0  0  0  0  0  0
    6.6710   -9.2213    0.0000 C   0  0  0  0  0  0  0  0  0  0  0  0
    5.9511   -8.8184    0.0000 C   0  0  0  0  0  0  0  0  0  0  0  0
    5.2532  -10.0653    0.0000 C   0  0  0  0  0  0  0  0  0  0  0  0
    5.2422   -9.2404    0.0000 C   0  0  0  0  0  0  0  0  0  0  0  0
    3.7804   -6.7846    0.0000 O   0  0  0  0  0  0  0  0  0  0  0  0
    2.3516   -6.8037    0.0000 O   0  0  0  0  0  0  0  0  0  0  0  0
    3.8134   -9.2594    0.0000 O   0  0  0  0  0  0  0  0  0  0  0  0
    4.5223   -8.8374    0.0000 C   0  0  0  0  0  0  0  0  0  0  0  0
    4.5113   -8.0125    0.0000 C   0  0  0  0  0  0  0  0  0  0  0  0
    3.7914   -7.6096    0.0000 C   0  0  0  0  0  0  0  0  0  0  0  0
    2.3845   -9.2785    0.0000 C   0  0  0  0  0  0  0  0  0  0  0  0
    3.0935   -8.8565    0.0000 C   0  0  0  0  0  0  0  0  0  0  0  0
    3.0825   -8.0315    0.0000 C   0  0  0  0  0  0  0  0  0  0  0  0
    2.3626   -7.6286    0.0000 C   0  0  0  0  0  0  0  0  0  0  0  0
    1.6537   -8.0506    0.0000 C   0  0  0  0  0  0  0  0  0  0  0  0
    1.6646   -8.8755    0.0000 C   0  0  0  0  0  0  0  0  0  0  0  0
  3  1  1  0  0  0  0
  6  2  1  0  0  0  0
 41  3  1  0  0  0  0
  4  8  2  0  0  0  0
  5  4  1  0  0  0  0
  6  5  2  0  0  0  0
  7  6  1  0  0  0  0
  9  7  2  0  0  0  0
  8 14  1  0  0  0  0
  9  8  1  0  0  0  0
 10 16  1  0  0  0  0
 12 11  2  0  0  0  0
 12 17  1  0  0  0  0
 13 12  1  0  0  0  0
 14 13  2  0  0  0  0
 15 14  1  0  0  0  0
 18 15  1  0  0  0  0
 16 21  2  0  0  0  0
 17 16  1  0  0  0  0
 18 17  2  0  0  0  0
 19 18  1  0  0  0  0
 22 19  2  0  0  0  0
 20 25  1  0  0  0  0
 21 20  1  0  0  0  0
 22 21  1  0  0  0  0
 23 22  1  0  0  0  0
 24 28  1  0  0  0  0
 25 24  2  0  0  0  0
 26 25  1  0  0  0  0
 27 26  2  0  0  0  0
 29 27  1  0  0  0  0
 29 28  2  0  0  0  0
 33 29  1  0  0  0  0
 30 35  2  0  0  0  0
 39 31  1  0  0  0  0
 32 37  1  0  0  0  0
 33 32  1  0  0  0  0
 34 33  2  0  0  0  0
 35 34  1  0  0  0  0
 38 35  1  0  0  0  0
 36 41  1  0  0  0  0
 37 36  2  0  0  0  0
 38 37  1  0  0  0  0
 39 38  2  0  0  0  0
 40 39  1  0  0  0  0
 41 40  2  0  0  0  0
M  END
>  <cdx:fragmentId>
5

$$$$
