60255.cdx
  Mrv1902 05222410282D          

 21 24  0  0  0  0            999 V2000
    5.7118   -9.4024    0.0000 C   0  0  0  0  0  0  0  0  0  0  0  0
    6.4284   -9.8112    0.0000 C   0  0  0  0  0  0  0  0  0  0  0  0
    7.1408   -9.3951    0.0000 C   0  0  0  0  0  0  0  0  0  0  0  0
    7.1366   -8.5701    0.0000 C   0  0  0  0  0  0  0  0  0  0  0  0
    6.4200   -8.1613    0.0000 C   0  0  0  0  0  0  0  0  0  0  0  0
    5.7077   -8.5774    0.0000 C   0  0  0  0  0  0  0  0  0  0  0  0
    7.8490   -8.1540    0.0000 C   0  0  0  0  0  0  0  0  0  0  0  0
    7.8448   -7.3290    0.0000 C   0  0  0  0  0  0  0  0  0  0  0  0
    7.1282   -6.9202    0.0000 C   0  0  0  0  0  0  0  0  0  0  0  0
    6.4159   -7.3363    0.0000 C   0  0  0  0  0  0  0  0  0  0  0  0
    8.5572   -6.9129    0.0000 N   0  0  0  0  0  0  0  0  0  0  0  0
    8.5530   -6.0879    0.0000 C   0  0  0  0  0  0  0  0  0  0  0  0
    7.8364   -5.6791    0.0000 C   0  0  0  0  0  0  0  0  0  0  0  0
    7.1241   -6.0952    0.0000 C   0  0  0  0  0  0  0  0  0  0  0  0
    6.4075   -5.6863    0.0000 C   0  0  0  0  0  0  0  0  0  0  0  0
    5.6951   -6.1024    0.0000 C   0  0  0  0  0  0  0  0  0  0  0  0
    5.6993   -6.9274    0.0000 C   0  0  0  0  0  0  0  0  0  0  0  0
    4.9869   -7.3435    0.0000 O   0  0  0  0  0  0  0  0  0  0  0  0
    4.9911   -8.1685    0.0000 C   0  0  0  0  0  0  0  0  0  0  0  0
    4.9786   -5.6935    0.0000 O   0  0  0  0  0  0  0  0  0  0  0  0
    8.5655   -8.5629    0.0000 O   0  0  0  0  0  0  0  0  0  0  0  0
  1  2  2  0  0  0  0
  2  3  1  0  0  0  0
  3  4  2  0  0  0  0
  4  5  1  0  0  0  0
  5  6  2  0  0  0  0
  6  1  1  0  0  0  0
  4  7  1  0  0  0  0
  7  8  1  0  0  0  0
  8  9  1  0  0  0  0
  9 10  2  0  0  0  0
 10  5  1  0  0  0  0
  8 11  2  0  0  0  0
 11 12  1  0  0  0  0
 12 13  2  0  0  0  0
 13 14  1  0  0  0  0
 14  9  1  0  0  0  0
 14 15  2  0  0  0  0
 15 16  1  0  0  0  0
 16 17  2  0  0  0  0
 17 10  1  0  0  0  0
 17 18  1  0  0  0  0
 18 19  1  0  0  0  0
 16 20  1  0  0  0  0
  7 21  2  0  0  0  0
M  END
>  <cdx:fragmentId>
5

$$$$
