60254.cdx
  Mrv1902 05222410282D          

 36 39  0  0  0  0            999 V2000
    4.2937   -5.9774    0.0000 O   0  0  0  0  0  0  0  0  0  0  0  0
    6.4594   -8.0164    0.0000 H   0  0  0  0  0  0  0  0  0  0  0  0
   10.7370   -7.1447    0.0000 O   0  0  0  0  0  0  0  0  0  0  0  0
    9.2992   -6.3354    0.0000 O   0  0  0  0  0  0  0  0  0  0  0  0
    7.1514   -5.9463    0.0000 C   0  0  0  0  0  0  0  0  0  0  0  0
    7.1424   -5.1213    0.0000 O   0  0  0  0  0  0  0  0  0  0  0  0
    5.7135   -5.1369    0.0000 O   0  0  0  0  0  0  0  0  0  0  0  0
   10.0361   -8.3900    0.0000 C   0  0  0  0  0  0  0  0  0  0  0  0
   10.0271   -7.5650    0.0000 C   0  0  0  0  0  0  0  0  0  0  0  0
    9.3082   -7.1603    0.0000 C   0  0  0  0  0  0  0  0  0  0  0  0
    8.5982   -7.5806    0.0000 C   0  0  0  0  0  0  0  0  0  0  0  0
    9.3262   -8.8102    0.0000 C   0  0  0  0  0  0  0  0  0  0  0  0
    8.6072   -8.4055    0.0000 C   0  0  0  0  0  0  0  0  0  0  0  0
    5.7765  -10.9116    0.0000 O   0  0  0  0  0  0  0  0  0  0  0  0
    7.2054  -10.8960    0.0000 O   0  0  0  0  0  0  0  0  0  0  0  0
    7.1964  -10.0710    0.0000 C   0  0  0  0  0  0  0  0  0  0  0  0
    7.9063   -9.6508    0.0000 C   0  0  0  0  0  0  0  0  0  0  0  0
    7.8973   -8.8258    0.0000 C   0  0  0  0  0  0  0  0  0  0  0  0
    7.1784   -8.4211    0.0000 O   0  0  0  0  0  0  0  0  0  0  0  0
    5.0486   -9.6819    0.0000 C   0  0  0  0  0  0  0  0  0  0  0  0
    5.7675  -10.0866    0.0000 C   0  0  0  0  0  0  0  0  0  0  0  0
    6.4774   -9.6663    0.0000 C   0  0  0  0  0  0  0  0  0  0  0  0
    6.4684   -8.8414    0.0000 C   0  0  0  0  0  0  0  0  0  0  0  0
    4.3117   -7.6273    0.0000 O   0  0  0  0  0  0  0  0  0  0  0  0
    4.3207   -8.4523    0.0000 O   0  0  0  0  0  0  0  0  0  0  0  0
    5.0396   -8.8570    0.0000 C   0  0  0  0  0  0  0  0  0  0  0  0
    5.7495   -8.4367    0.0000 C   0  0  0  0  0  0  0  0  0  0  0  0
    5.7405   -7.6118    0.0000 C   0  0  2  0  0  0  0  0  0  0  0  0
    6.4504   -7.1915    0.0000 O   0  0  0  0  0  0  0  0  0  0  0  0
    6.4415   -6.3665    0.0000 C   0  0  1  0  0  0  0  0  0  0  0  0
    5.7225   -5.9619    0.0000 C   0  0  2  0  0  0  0  0  0  0  0  0
    5.0126   -6.3821    0.0000 C   0  0  1  0  0  0  0  0  0  0  0  0
    5.0216   -7.2071    0.0000 C   0  0  1  0  0  0  0  0  0  0  0  0
    3.6107   -8.8726    0.0000 C   0  0  0  0  0  0  0  0  0  0  0  0
    3.5927   -7.2227    0.0000 C   0  0  0  0  0  0  0  0  0  0  0  0
    2.8828   -7.6429    0.0000 O   0  0  0  0  0  0  0  0  0  0  0  0
 32  1  1  1  0  0  0
 28  2  1  6  0  0  0
  9  3  1  0  0  0  0
 10  4  1  0  0  0  0
 30  5  1  1  0  0  0
  6  5  1  0  0  0  0
 31  7  1  6  0  0  0
  8 12  2  0  0  0  0
  9  8  1  0  0  0  0
 10  9  2  0  0  0  0
 11 10  1  0  0  0  0
 13 11  2  0  0  0  0
 13 12  1  0  0  0  0
 18 13  1  0  0  0  0
 14 21  1  0  0  0  0
 16 15  2  0  0  0  0
 16 22  1  0  0  0  0
 17 16  1  0  0  0  0
 18 17  2  0  0  0  0
 19 18  1  0  0  0  0
 23 19  1  0  0  0  0
 20 26  1  0  0  0  0
 21 20  2  0  0  0  0
 22 21  1  0  0  0  0
 23 22  2  0  0  0  0
 27 23  1  0  0  0  0
 33 24  1  6  0  0  0
 26 25  1  0  0  0  0
 27 26  2  0  0  0  0
 28 27  1  0  0  0  0
 28 33  1  0  0  0  0
 29 28  1  0  0  0  0
 30 29  1  0  0  0  0
 31 30  1  0  0  0  0
 32 31  1  0  0  0  0
 33 32  1  0  0  0  0
 25 34  1  0  0  0  0
 24 35  1  0  0  0  0
 35 36  2  0  0  0  0
M  END
>  <cdx:fragmentId>
5

$$$$
