60253.cdx
  Mrv1902 05222410272D          

 33 35  0  0  0  0            999 V2000
    1.5518   -9.0051    0.0000 C   0  0  0  0  0  0  0  0  0  0  0  0
    2.9807   -9.0051    0.0000 C   0  0  0  0  0  0  0  0  0  0  0  0
    2.2663   -8.5926    0.0000 C   0  0  0  0  0  0  0  0  0  0  0  0
    3.6952  -10.2426    0.0000 O   0  0  0  0  0  0  0  0  0  0  0  0
    4.4097   -9.8301    0.0000 C   0  0  0  0  0  0  0  0  0  0  0  0
    4.4097   -9.0051    0.0000 C   0  0  0  0  0  0  0  0  0  0  0  0
    3.6952   -8.5926    0.0000 C   0  0  0  0  0  0  0  0  0  0  0  0
    5.1242  -10.2426    0.0000 C   0  0  0  0  0  0  0  0  0  0  0  0
    5.8386   -9.8301    0.0000 C   0  0  0  0  0  0  0  0  0  0  0  0
    5.8386   -9.0051    0.0000 C   0  0  0  0  0  0  0  0  0  0  0  0
    5.1242   -8.5926    0.0000 C   0  0  0  0  0  0  0  0  0  0  0  0
    6.5531  -10.2426    0.0000 O   0  0  0  0  0  0  0  0  0  0  0  0
    7.2676   -9.8301    0.0000 C   0  0  0  0  0  0  0  0  0  0  0  0
    7.2676   -9.0051    0.0000 C   0  0  2  0  0  0  0  0  0  0  0  0
    6.5531   -8.5926    0.0000 C   0  0  0  0  0  0  0  0  0  0  0  0
    8.6965   -9.8301    0.0000 O   0  0  0  0  0  0  0  0  0  0  0  0
    8.6965   -9.0051    0.0000 C   0  0  0  0  0  0  0  0  0  0  0  0
    7.9820   -8.5926    0.0000 C   0  0  0  0  0  0  0  0  0  0  0  0
    9.4110   -8.5926    0.0000 C   0  0  0  0  0  0  0  0  0  0  0  0
    9.4110   -7.7676    0.0000 C   0  0  0  0  0  0  0  0  0  0  0  0
    8.6965   -7.3551    0.0000 C   0  0  0  0  0  0  0  0  0  0  0  0
    7.9820   -7.7676    0.0000 C   0  0  0  0  0  0  0  0  0  0  0  0
   10.1255   -9.0051    0.0000 C   0  0  0  0  0  0  0  0  0  0  0  0
   10.8399   -8.5926    0.0000 C   0  0  0  0  0  0  0  0  0  0  0  0
   10.1255   -7.3551    0.0000 O   0  0  0  0  0  0  0  0  0  0  0  0
   11.5544   -9.8301    0.0000 C   0  0  0  0  0  0  0  0  0  0  0  0
   11.5544   -9.0051    0.0000 C   0  0  0  0  0  0  0  0  0  0  0  0
    2.2663   -7.7676    0.0000 C   0  0  0  0  0  0  0  0  0  0  0  0
    5.1242   -7.7676    0.0000 O   0  0  0  0  0  0  0  0  0  0  0  0
    4.4097   -7.3551    0.0000 C   0  0  0  0  0  0  0  0  0  0  0  0
   12.2689   -8.5926    0.0000 C   0  0  0  0  0  0  0  0  0  0  0  0
    7.2676   -8.1801    0.0000 H   0  0  0  0  0  0  0  0  0  0  0  0
    3.6952  -11.0676    0.0000 C   0  0  0  0  0  0  0  0  0  0  0  0
  2  3  2  0  0  0  0
  3  1  1  0  0  0  0
  4  5  1  0  0  0  0
  5  6  1  0  0  0  0
  6  7  1  0  0  0  0
  7  2  1  0  0  0  0
  5  8  2  0  0  0  0
  8  9  1  0  0  0  0
  9 10  2  0  0  0  0
 10 11  1  0  0  0  0
 11  6  2  0  0  0  0
  9 12  1  0  0  0  0
 12 13  1  0  0  0  0
 13 14  1  0  0  0  0
 14 15  1  0  0  0  0
 15 10  1  0  0  0  0
 16 17  1  0  0  0  0
 17 18  2  0  0  0  0
 18 14  1  0  0  0  0
 17 19  1  0  0  0  0
 19 20  2  0  0  0  0
 20 21  1  0  0  0  0
 21 22  2  0  0  0  0
 22 18  1  0  0  0  0
 19 23  1  0  0  0  0
 23 24  1  0  0  0  0
 25 20  1  0  0  0  0
 26 27  1  0  0  0  0
 27 24  2  0  0  0  0
  3 28  1  0  0  0  0
 11 29  1  0  0  0  0
 29 30  1  0  0  0  0
 27 31  1  0  0  0  0
 14 32  1  1  0  0  0
  4 33  1  0  0  0  0
M  END
>  <cdx:fragmentId>
5

$$$$
