60250.cdx
  Mrv1902 05222410262D          

 41 46  0  0  0  0            999 V2000
    1.5931   -9.2389    0.0000 C   0  0  0  0  0  0  0  0  0  0  0  0
    1.5931  -10.0639    0.0000 C   0  0  0  0  0  0  0  0  0  0  0  0
    2.3075  -10.4764    0.0000 C   0  0  0  0  0  0  0  0  0  0  0  0
    3.0220  -10.0639    0.0000 C   0  0  0  0  0  0  0  0  0  0  0  0
    3.0220   -9.2389    0.0000 C   0  0  0  0  0  0  0  0  0  0  0  0
    2.3075   -8.8264    0.0000 C   0  0  0  0  0  0  0  0  0  0  0  0
    3.7365  -10.4764    0.0000 C   0  0  0  0  0  0  0  0  0  0  0  0
    4.4509  -10.0639    0.0000 C   0  0  0  0  0  0  0  0  0  0  0  0
    4.4509   -9.2389    0.0000 C   0  0  0  0  0  0  0  0  0  0  0  0
    3.7365   -8.8264    0.0000 O   0  0  0  0  0  0  0  0  0  0  0  0
    2.3075  -11.3014    0.0000 O   0  0  0  0  0  0  0  0  0  0  0  0
    3.7365  -11.3014    0.0000 O   0  0  0  0  0  0  0  0  0  0  0  0
    5.1654   -8.8264    0.0000 C   0  0  0  0  0  0  0  0  0  0  0  0
    5.1654   -8.0014    0.0000 C   0  0  0  0  0  0  0  0  0  0  0  0
    5.8799   -9.2389    0.0000 C   0  0  0  0  0  0  0  0  0  0  0  0
    6.5944   -8.8264    0.0000 C   0  0  0  0  0  0  0  0  0  0  0  0
    6.5944   -8.0014    0.0000 C   0  0  0  0  0  0  0  0  0  0  0  0
    5.8799   -7.5889    0.0000 C   0  0  0  0  0  0  0  0  0  0  0  0
    7.3088   -9.2389    0.0000 O   0  0  0  0  0  0  0  0  0  0  0  0
    8.0233   -8.8264    0.0000 C   0  0  0  0  0  0  0  0  0  0  0  0
    8.0233   -8.0014    0.0000 C   0  0  0  0  0  0  0  0  0  0  0  0
    7.3088   -7.5889    0.0000 O   0  0  0  0  0  0  0  0  0  0  0  0
    8.7378   -9.2389    0.0000 C   0  0  0  0  0  0  0  0  0  0  0  0
    9.4522   -8.8264    0.0000 C   0  0  0  0  0  0  0  0  0  0  0  0
    9.4522   -8.0014    0.0000 C   0  0  0  0  0  0  0  0  0  0  0  0
    8.7378   -7.5889    0.0000 C   0  0  0  0  0  0  0  0  0  0  0  0
   10.1667   -9.2389    0.0000 O   0  0  0  0  0  0  0  0  0  0  0  0
   10.8812   -8.8264    0.0000 C   0  0  0  0  0  0  0  0  0  0  0  0
   10.8812   -8.0014    0.0000 C   0  0  0  0  0  0  0  0  0  0  0  0
   10.1667   -7.5889    0.0000 C   0  0  0  0  0  0  0  0  0  0  0  0
   10.1667   -6.7639    0.0000 O   0  0  0  0  0  0  0  0  0  0  0  0
    8.7378   -6.7639    0.0000 O   0  0  0  0  0  0  0  0  0  0  0  0
   11.5956  -10.0639    0.0000 C   0  0  0  0  0  0  0  0  0  0  0  0
   11.5956   -9.2389    0.0000 C   0  0  0  0  0  0  0  0  0  0  0  0
   12.3101  -10.4764    0.0000 C   0  0  0  0  0  0  0  0  0  0  0  0
   13.0246  -10.0639    0.0000 C   0  0  0  0  0  0  0  0  0  0  0  0
   13.0246   -9.2389    0.0000 C   0  0  0  0  0  0  0  0  0  0  0  0
   12.3101   -8.8264    0.0000 C   0  0  0  0  0  0  0  0  0  0  0  0
    0.8786   -8.8264    0.0000 O   0  0  0  0  0  0  0  0  0  0  0  0
   13.7391  -10.4764    0.0000 O   0  0  0  0  0  0  0  0  0  0  0  0
    7.3088  -10.0639    0.0000 C   0  0  0  0  0  0  0  0  0  0  0  0
  1  2  2  0  0  0  0
  2  3  1  0  0  0  0
  3  4  2  0  0  0  0
  4  5  1  0  0  0  0
  5  6  2  0  0  0  0
  6  1  1  0  0  0  0
  4  7  1  0  0  0  0
  7  8  1  0  0  0  0
  8  9  2  0  0  0  0
  9 10  1  0  0  0  0
 10  5  1  0  0  0  0
  3 11  1  0  0  0  0
 12  7  2  0  0  0  0
  9 13  1  0  0  0  0
 13 14  2  0  0  0  0
 13 15  1  0  0  0  0
 15 16  2  0  0  0  0
 16 17  1  0  0  0  0
 17 18  2  0  0  0  0
 18 14  1  0  0  0  0
 19 20  1  0  0  0  0
 20 21  1  0  0  0  0
 21 22  1  0  0  0  0
 22 17  1  0  0  0  0
 20 23  2  0  0  0  0
 23 24  1  0  0  0  0
 24 25  2  0  0  0  0
 25 26  1  0  0  0  0
 26 21  2  0  0  0  0
 24 27  1  0  0  0  0
 27 28  1  0  0  0  0
 28 29  2  0  0  0  0
 29 30  1  0  0  0  0
 30 25  1  0  0  0  0
 30 31  2  0  0  0  0
 32 26  1  0  0  0  0
 33 34  1  0  0  0  0
 34 28  1  0  0  0  0
 33 35  2  0  0  0  0
 35 36  1  0  0  0  0
 36 37  2  0  0  0  0
 37 38  1  0  0  0  0
 38 34  2  0  0  0  0
  1 39  1  0  0  0  0
 36 40  1  0  0  0  0
 19 41  1  0  0  0  0
M  END
>  <cdx:fragmentId>
5

$$$$
