6025.cdx
  Mrv1902 05222410252D          

 41 47  0  0  0  0            999 V2000
   10.0387   -7.7750    0.0000 O   0  0  0  0  0  0  0  0  0  0  0  0
    9.2896   -8.1208    0.0000 C   0  0  0  0  0  0  0  0  0  0  0  0
    4.4631   -8.0032    0.0000 C   0  0  0  0  0  0  0  0  0  0  0  0
    4.8852   -8.7120    0.0000 C   0  0  0  0  0  0  0  0  0  0  0  0
    5.7101   -8.7009    0.0000 C   0  0  0  0  0  0  0  0  0  0  0  0
    6.1129   -7.9809    0.0000 C   0  0  0  0  0  0  0  0  0  0  0  0
    5.6908   -7.2720    0.0000 C   0  0  0  0  0  0  0  0  0  0  0  0
    4.8659   -7.2832    0.0000 C   0  0  0  0  0  0  0  0  0  0  0  0
    6.9378   -7.9697    0.0000 O   0  0  0  0  0  0  0  0  0  0  0  0
    7.3406   -7.2497    0.0000 C   0  0  0  0  0  0  0  0  0  0  0  0
    6.9185   -6.5409    0.0000 C   0  0  0  0  0  0  0  0  0  0  0  0
    6.0936   -6.5520    0.0000 C   0  0  0  0  0  0  0  0  0  0  0  0
    3.6585   -8.1857    0.0000 C   0  0  0  0  0  0  0  0  0  0  0  0
    3.5834   -9.0072    0.0000 C   0  0  0  0  0  0  0  0  0  0  0  0
    4.3415   -9.3326    0.0000 O   0  0  0  0  0  0  0  0  0  0  0  0
    4.4437   -6.5744    0.0000 O   0  0  0  0  0  0  0  0  0  0  0  0
    4.8465   -5.8544    0.0000 C   0  0  0  0  0  0  0  0  0  0  0  0
    4.4243   -5.1456    0.0000 C   0  0  0  0  0  0  0  0  0  0  0  0
    4.8271   -4.4256    0.0000 C   0  0  0  0  0  0  0  0  0  0  0  0
    4.4050   -3.7168    0.0000 C   0  0  0  0  0  0  0  0  0  0  0  0
    5.6520   -4.4144    0.0000 C   0  0  0  0  0  0  0  0  0  0  0  0
    7.8346   -7.9105    0.0000 O   0  0  0  0  0  0  0  0  0  0  0  0
    8.6156   -7.6449    0.0000 C   0  0  0  0  0  0  0  0  0  0  0  0
    8.6045   -6.8200    0.0000 C   0  0  0  0  0  0  0  0  0  0  0  0
    7.8165   -6.5757    0.0000 O   0  0  0  0  0  0  0  0  0  0  0  0
    9.1799   -6.2288    0.0000 C   0  0  0  0  0  0  0  0  0  0  0  0
    9.4042   -7.0227    0.0000 C   0  0  0  0  0  0  0  0  0  0  0  0
   10.7108   -8.2654    0.0000 C   0  0  0  0  0  0  0  0  0  0  0  0
   10.6327   -9.0867    0.0000 C   0  0  0  0  0  0  0  0  0  0  0  0
   11.3050   -9.5649    0.0000 C   0  0  0  0  0  0  0  0  0  0  0  0
   12.0553   -9.2219    0.0000 C   0  0  0  0  0  0  0  0  0  0  0  0
   12.1333   -8.4006    0.0000 C   0  0  0  0  0  0  0  0  0  0  0  0
   11.4611   -7.9223    0.0000 C   0  0  0  0  0  0  0  0  0  0  0  0
   12.8836   -8.0575    0.0000 C   0  0  0  0  0  0  0  0  0  0  0  0
   12.9617   -7.2362    0.0000 C   0  0  0  0  0  0  0  0  0  0  0  0
   12.2894   -6.7580    0.0000 C   0  0  0  0  0  0  0  0  0  0  0  0
   11.5391   -7.1010    0.0000 O   0  0  0  0  0  0  0  0  0  0  0  0
    9.9702   -9.5782    0.0000 O   0  0  0  0  0  0  0  0  0  0  0  0
   10.2329  -10.3603    0.0000 C   0  0  0  0  0  0  0  0  0  0  0  0
   11.0579  -10.3521    0.0000 C   0  0  0  0  0  0  0  0  0  0  0  0
   12.3675   -5.9367    0.0000 O   0  0  0  0  0  0  0  0  0  0  0  0
 28  1  1  0  0  0  0
  2  1  1  0  0  0  0
 23  2  1  0  0  0  0
  3  4  2  0  0  0  0
  4  5  1  0  0  0  0
  5  6  2  0  0  0  0
  6  7  1  0  0  0  0
  7  8  2  0  0  0  0
  8  3  1  0  0  0  0
  6  9  1  0  0  0  0
  9 10  1  0  0  0  0
 10 11  1  0  0  0  0
 11 12  2  0  0  0  0
 12  7  1  0  0  0  0
  3 13  1  0  0  0  0
 13 14  2  0  0  0  0
 14 15  1  0  0  0  0
 15  4  1  0  0  0  0
  8 16  1  0  0  0  0
 16 17  1  0  0  0  0
 17 18  1  0  0  0  0
 18 19  2  0  0  0  0
 19 20  1  0  0  0  0
 19 21  1  0  0  0  0
 10 22  1  0  0  0  0
 22 23  1  0  0  0  0
 23 24  1  0  0  0  0
 24 25  1  0  0  0  0
 25 10  1  0  0  0  0
 24 26  1  0  0  0  0
 24 27  1  0  0  0  0
 28 29  2  0  0  0  0
 29 30  1  0  0  0  0
 30 31  2  0  0  0  0
 31 32  1  0  0  0  0
 32 33  2  0  0  0  0
 33 28  1  0  0  0  0
 32 34  1  0  0  0  0
 34 35  2  0  0  0  0
 35 36  1  0  0  0  0
 36 37  1  0  0  0  0
 37 33  1  0  0  0  0
 29 38  1  0  0  0  0
 38 39  1  0  0  0  0
 39 40  2  0  0  0  0
 40 30  1  0  0  0  0
 36 41  2  0  0  0  0
M  END
>  <cdx:fragmentId>
5

$$$$
