60252.cdx
  Mrv1902 05222410272D          

 41 46  0  0  0  0            999 V2000
    2.1431   -8.1664    0.0000 C   0  0  0  0  0  0  0  0  0  0  0  0
    2.1431   -8.9914    0.0000 C   0  0  0  0  0  0  0  0  0  0  0  0
    2.8575   -9.4039    0.0000 C   0  0  0  0  0  0  0  0  0  0  0  0
    3.5720   -8.9914    0.0000 C   0  0  0  0  0  0  0  0  0  0  0  0
    3.5720   -8.1664    0.0000 C   0  0  0  0  0  0  0  0  0  0  0  0
    2.8575   -7.7539    0.0000 C   0  0  0  0  0  0  0  0  0  0  0  0
    4.2865   -9.4039    0.0000 C   0  0  0  0  0  0  0  0  0  0  0  0
    5.0009   -8.9914    0.0000 C   0  0  0  0  0  0  0  0  0  0  0  0
    5.0009   -8.1664    0.0000 C   0  0  0  0  0  0  0  0  0  0  0  0
    4.2865   -7.7539    0.0000 O   0  0  0  0  0  0  0  0  0  0  0  0
    2.8575  -10.2289    0.0000 O   0  0  0  0  0  0  0  0  0  0  0  0
    4.2865  -10.2289    0.0000 O   0  0  0  0  0  0  0  0  0  0  0  0
    6.4299   -8.1664    0.0000 C   0  0  0  0  0  0  0  0  0  0  0  0
    5.7154   -7.7539    0.0000 C   0  0  0  0  0  0  0  0  0  0  0  0
    7.1444   -7.7539    0.0000 C   0  0  0  0  0  0  0  0  0  0  0  0
    7.1444   -6.9289    0.0000 C   0  0  0  0  0  0  0  0  0  0  0  0
    6.4299   -6.5164    0.0000 C   0  0  0  0  0  0  0  0  0  0  0  0
    5.7154   -6.9289    0.0000 C   0  0  0  0  0  0  0  0  0  0  0  0
    7.1444   -9.4039    0.0000 O   0  0  0  0  0  0  0  0  0  0  0  0
    7.8588   -8.9914    0.0000 C   0  0  0  0  0  0  0  0  0  0  0  0
    7.8588   -8.1664    0.0000 C   0  0  0  0  0  0  0  0  0  0  0  0
    8.5733   -9.4039    0.0000 C   0  0  0  0  0  0  0  0  0  0  0  0
    9.2878   -8.9914    0.0000 C   0  0  0  0  0  0  0  0  0  0  0  0
    9.2878   -8.1664    0.0000 C   0  0  0  0  0  0  0  0  0  0  0  0
    8.5733   -7.7539    0.0000 C   0  0  0  0  0  0  0  0  0  0  0  0
   10.0022   -9.4039    0.0000 O   0  0  0  0  0  0  0  0  0  0  0  0
   10.7167   -8.9914    0.0000 C   0  0  0  0  0  0  0  0  0  0  0  0
   10.7167   -8.1664    0.0000 C   0  0  0  0  0  0  0  0  0  0  0  0
   10.0022   -7.7539    0.0000 C   0  0  0  0  0  0  0  0  0  0  0  0
   11.4312  -10.2289    0.0000 C   0  0  0  0  0  0  0  0  0  0  0  0
   11.4312   -9.4039    0.0000 C   0  0  0  0  0  0  0  0  0  0  0  0
   12.1456  -10.6414    0.0000 C   0  0  0  0  0  0  0  0  0  0  0  0
   12.8601  -10.2289    0.0000 C   0  0  0  0  0  0  0  0  0  0  0  0
   12.8601   -9.4039    0.0000 C   0  0  0  0  0  0  0  0  0  0  0  0
   12.1456   -8.9914    0.0000 C   0  0  0  0  0  0  0  0  0  0  0  0
   13.5746  -10.6414    0.0000 O   0  0  0  0  0  0  0  0  0  0  0  0
    1.4286   -7.7539    0.0000 O   0  0  0  0  0  0  0  0  0  0  0  0
    7.8588   -6.5164    0.0000 O   0  0  0  0  0  0  0  0  0  0  0  0
    8.5733   -6.9289    0.0000 O   0  0  0  0  0  0  0  0  0  0  0  0
   10.0022   -6.9289    0.0000 O   0  0  0  0  0  0  0  0  0  0  0  0
    0.7141   -8.1664    0.0000 C   0  0  0  0  0  0  0  0  0  0  0  0
  1  2  2  0  0  0  0
  2  3  1  0  0  0  0
  3  4  2  0  0  0  0
  4  5  1  0  0  0  0
  5  6  2  0  0  0  0
  6  1  1  0  0  0  0
  4  7  1  0  0  0  0
  7  8  1  0  0  0  0
  8  9  2  0  0  0  0
  9 10  1  0  0  0  0
 10  5  1  0  0  0  0
  3 11  1  0  0  0  0
 12  7  2  0  0  0  0
 13 14  2  0  0  0  0
 14  9  1  0  0  0  0
 13 15  1  0  0  0  0
 15 16  2  0  0  0  0
 16 17  1  0  0  0  0
 17 18  2  0  0  0  0
 18 14  1  0  0  0  0
 19 20  1  0  0  0  0
 20 21  1  0  0  0  0
 21 15  1  0  0  0  0
 20 22  2  0  0  0  0
 22 23  1  0  0  0  0
 23 24  2  0  0  0  0
 24 25  1  0  0  0  0
 25 21  2  0  0  0  0
 23 26  1  0  0  0  0
 26 27  1  0  0  0  0
 27 28  2  0  0  0  0
 28 29  1  0  0  0  0
 29 24  1  0  0  0  0
 30 31  2  0  0  0  0
 31 27  1  0  0  0  0
 30 32  1  0  0  0  0
 32 33  2  0  0  0  0
 33 34  1  0  0  0  0
 34 35  2  0  0  0  0
 35 31  1  0  0  0  0
 33 36  1  0  0  0  0
  1 37  1  0  0  0  0
 16 38  1  0  0  0  0
 25 39  1  0  0  0  0
 29 40  2  0  0  0  0
 37 41  1  0  0  0  0
M  END
>  <cdx:fragmentId>
5

$$$$
