60263.cdx
  Mrv1902 05222410192D          

 26 27  0  0  0  0            999 V2000
    2.9457   -6.9187    0.0000 O   0  0  0  0  0  0  0  0  0  0  0  0
    3.6552   -7.3396    0.0000 C   0  0  2  0  0  0  0  0  0  0  0  0
    4.3746   -6.9357    0.0000 C   0  0  2  0  0  0  0  0  0  0  0  0
    3.6749   -5.6898    0.0000 O   0  0  0  0  0  0  0  0  0  0  0  0
    3.6454   -8.1646    0.0000 C   0  0  1  0  0  0  0  0  0  0  0  0
    4.3549   -8.5856    0.0000 C   0  0  2  0  0  0  0  0  0  0  0  0
    5.0742   -8.1816    0.0000 C   0  0  1  0  0  0  0  0  0  0  0  0
    5.0841   -7.3567    0.0000 O   0  0  0  0  0  0  0  0  0  0  0  0
    4.3451   -9.4105    0.0000 O   0  0  0  0  0  0  0  0  0  0  0  0
    7.9246   -9.8445    0.0000 C   0  0  0  0  0  0  0  0  0  0  0  0
    7.2110   -9.4305    0.0000 O   0  0  0  0  0  0  0  0  0  0  0  0
   10.0739   -6.9614    0.0000 C   0  0  0  0  0  0  0  0  0  0  0  0
   10.7876   -7.3754    0.0000 O   0  0  0  0  0  0  0  0  0  0  0  0
   10.0756   -6.1364    0.0000 O   0  0  0  0  0  0  0  0  0  0  0  0
    9.3586   -7.3725    0.0000 C   0  0  0  0  0  0  0  0  0  0  0  0
    8.6450   -6.9585    0.0000 C   0  0  0  0  0  0  0  0  0  0  0  0
    7.2127   -8.6055    0.0000 C   0  0  0  0  0  0  0  0  0  0  0  0
    7.9280   -8.1945    0.0000 C   0  0  0  0  0  0  0  0  0  0  0  0
    7.9297   -7.3695    0.0000 C   0  0  0  0  0  0  0  0  0  0  0  0
    7.2161   -6.9556    0.0000 C   0  0  0  0  0  0  0  0  0  0  0  0
    5.7837   -8.6026    0.0000 O   0  0  0  0  0  0  0  0  0  0  0  0
    6.4990   -8.1916    0.0000 C   0  0  0  0  0  0  0  0  0  0  0  0
    6.5007   -7.3666    0.0000 C   0  0  0  0  0  0  0  0  0  0  0  0
    4.3844   -6.1108    0.0000 C   0  0  0  0  0  0  0  0  0  0  0  0
    5.1037   -5.7068    0.0000 O   0  0  0  0  0  0  0  0  0  0  0  0
    2.9261   -8.5685    0.0000 O   0  0  0  0  0  0  0  0  0  0  0  0
 24  4  1  0  0  0  0
  2  1  1  6  0  0  0
  2  3  1  0  0  0  0
  3 24  1  1  0  0  0
 24 25  2  0  0  0  0
  2  5  1  0  0  0  0
  5  6  1  0  0  0  0
  6  7  1  0  0  0  0
  7  8  1  0  0  0  0
  8  3  1  0  0  0  0
 11 10  1  0  0  0  0
 17 11  1  0  0  0  0
  6  9  1  6  0  0  0
  7 21  1  1  0  0  0
 12 13  1  0  0  0  0
 15 12  1  0  0  0  0
 12 14  2  0  0  0  0
 16 15  2  0  0  0  0
 19 16  1  0  0  0  0
 17 22  2  0  0  0  0
 18 17  1  0  0  0  0
 19 18  2  0  0  0  0
 20 19  1  0  0  0  0
 23 20  2  0  0  0  0
 22 21  1  0  0  0  0
 23 22  1  0  0  0  0
  5 26  1  1  0  0  0
M  END
>  <cdx:fragmentId>
5

$$$$
