60265.cdx
  Mrv1902 05222410182D          

 26 29  0  0  0  0            999 V2000
    4.6318   -7.5201    0.0000 C   0  0  0  0  0  0  0  0  0  0  0  0
    4.6318   -8.3451    0.0000 C   0  0  0  0  0  0  0  0  0  0  0  0
    5.3463   -8.7576    0.0000 C   0  0  0  0  0  0  0  0  0  0  0  0
    6.0607   -8.3451    0.0000 C   0  0  0  0  0  0  0  0  0  0  0  0
    6.0607   -7.5201    0.0000 C   0  0  0  0  0  0  0  0  0  0  0  0
    5.3463   -7.1076    0.0000 C   0  0  0  0  0  0  0  0  0  0  0  0
    6.7752   -8.7576    0.0000 C   0  0  0  0  0  0  0  0  0  0  0  0
    7.4897   -8.3451    0.0000 C   0  0  0  0  0  0  0  0  0  0  0  0
    7.4897   -7.5201    0.0000 C   0  0  0  0  0  0  0  0  0  0  0  0
    6.7752   -7.1076    0.0000 O   0  0  0  0  0  0  0  0  0  0  0  0
    6.7752   -9.5826    0.0000 O   0  0  0  0  0  0  0  0  0  0  0  0
    7.4897   -9.9951    0.0000 O   0  0  0  0  0  0  0  0  0  0  0  0
    8.2042   -9.5826    0.0000 C   0  0  0  0  0  0  0  0  0  0  0  0
    8.2042   -8.7576    0.0000 C   0  0  0  0  0  0  0  0  0  0  0  0
    8.9186   -9.9951    0.0000 C   0  0  0  0  0  0  0  0  0  0  0  0
    9.6331   -9.5826    0.0000 C   0  0  0  0  0  0  0  0  0  0  0  0
    9.6331   -8.7576    0.0000 C   0  0  0  0  0  0  0  0  0  0  0  0
    8.9186   -8.3451    0.0000 C   0  0  0  0  0  0  0  0  0  0  0  0
    7.4897  -10.8201    0.0000 C   0  0  0  0  0  0  0  0  0  0  0  0
    8.2042  -11.2326    0.0000 C   0  0  0  0  0  0  0  0  0  0  0  0
    8.9186  -10.8201    0.0000 C   0  0  0  0  0  0  0  0  0  0  0  0
    3.9173   -7.1076    0.0000 O   0  0  0  0  0  0  0  0  0  0  0  0
   10.3476   -9.9951    0.0000 O   0  0  0  0  0  0  0  0  0  0  0  0
    6.6647  -10.8201    0.0000 C   0  0  0  0  0  0  0  0  0  0  0  0
    7.2762  -11.6170    0.0000 C   0  0  0  0  0  0  0  0  0  0  0  0
    5.3463   -9.5826    0.0000 O   0  0  0  0  0  0  0  0  0  0  0  0
  1  2  2  0  0  0  0
  2  3  1  0  0  0  0
  3  4  2  0  0  0  0
  4  5  1  0  0  0  0
  5  6  2  0  0  0  0
  6  1  1  0  0  0  0
  4  7  1  0  0  0  0
  7  8  1  0  0  0  0
  8  9  1  0  0  0  0
  9 10  1  0  0  0  0
 10  5  1  0  0  0  0
  7 11  2  0  0  0  0
 12 13  1  0  0  0  0
 13 14  2  0  0  0  0
 14  8  1  0  0  0  0
 13 15  1  0  0  0  0
 15 16  2  0  0  0  0
 16 17  1  0  0  0  0
 17 18  2  0  0  0  0
 18 14  1  0  0  0  0
 12 19  1  0  0  0  0
 19 20  1  0  0  0  0
 20 21  2  0  0  0  0
 21 15  1  0  0  0  0
  1 22  1  0  0  0  0
 16 23  1  0  0  0  0
 19 24  1  0  0  0  0
 19 25  1  0  0  0  0
  3 26  1  0  0  0  0
M  END
>  <cdx:fragmentId>
5

$$$$
