60272.cdx
  Mrv1902 05222410192D          

 21 22  0  0  0  0            999 V2000
    8.0281   -4.6464    0.0000 C   0  0  0  0  0  0  0  0  0  0  0  0
    8.0281   -5.4714    0.0000 C   0  0  0  0  0  0  0  0  0  0  0  0
    8.7425   -5.8839    0.0000 C   0  0  0  0  0  0  0  0  0  0  0  0
    9.4570   -5.4714    0.0000 C   0  0  0  0  0  0  0  0  0  0  0  0
    9.4570   -4.6464    0.0000 C   0  0  0  0  0  0  0  0  0  0  0  0
    8.7425   -4.2339    0.0000 C   0  0  0  0  0  0  0  0  0  0  0  0
    8.7425   -3.4089    0.0000 C   0  0  0  0  0  0  0  0  0  0  0  0
    8.0281   -2.9964    0.0000 O   0  0  0  0  0  0  0  0  0  0  0  0
    9.4570   -2.9964    0.0000 C   0  0  0  0  0  0  0  0  0  0  0  0
    8.7425   -6.7089    0.0000 O   0  0  0  0  0  0  0  0  0  0  0  0
    8.0281   -7.1214    0.0000 C   0  0  2  0  0  0  0  0  0  0  0  0
    7.3136   -6.7089    0.0000 O   0  0  0  0  0  0  0  0  0  0  0  0
    6.5991   -7.1214    0.0000 C   0  0  1  0  0  0  0  0  0  0  0  0
    6.5991   -7.9464    0.0000 C   0  0  2  0  0  0  0  0  0  0  0  0
    7.3136   -8.3589    0.0000 C   0  0  1  0  0  0  0  0  0  0  0  0
    8.0281   -7.9464    0.0000 C   0  0  1  0  0  0  0  0  0  0  0  0
    5.8846   -6.7089    0.0000 C   0  0  0  0  0  0  0  0  0  0  0  0
    7.3136   -9.1839    0.0000 O   0  0  0  0  0  0  0  0  0  0  0  0
    8.7425   -8.3589    0.0000 O   0  0  0  0  0  0  0  0  0  0  0  0
    5.8846   -8.3589    0.0000 O   0  0  0  0  0  0  0  0  0  0  0  0
    5.1702   -7.1214    0.0000 O   0  0  0  0  0  0  0  0  0  0  0  0
  1  2  2  0  0  0  0
  2  3  1  0  0  0  0
  3  4  2  0  0  0  0
  4  5  1  0  0  0  0
  5  6  2  0  0  0  0
  6  1  1  0  0  0  0
  6  7  1  0  0  0  0
  7  8  2  0  0  0  0
  7  9  1  0  0  0  0
  3 10  1  0  0  0  0
 11 10  1  1  0  0  0
 11 12  1  0  0  0  0
 12 13  1  0  0  0  0
 13 14  1  0  0  0  0
 14 15  1  0  0  0  0
 15 16  1  0  0  0  0
 16 11  1  0  0  0  0
 13 17  1  1  0  0  0
 15 18  1  1  0  0  0
 16 19  1  6  0  0  0
 14 20  1  6  0  0  0
 17 21  1  0  0  0  0
M  END
>  <cdx:fragmentId>
5

$$$$
