60277.cdx
  Mrv1902 05222410192D          

 22 23  0  0  0  0            999 V2000
    6.4846   -7.1895    0.0000 O   0  0  0  0  0  0  0  0  0  0  0  0
    5.7780   -7.6155    0.0000 C   0  0  2  0  0  0  0  0  0  0  0  0
    5.0559   -7.2166    0.0000 O   0  0  0  0  0  0  0  0  0  0  0  0
    4.3493   -7.6426    0.0000 C   0  0  1  0  0  0  0  0  0  0  0  0
    4.3650   -8.4674    0.0000 C   0  0  2  0  0  0  0  0  0  0  0  0
    5.0872   -8.8663    0.0000 C   0  0  1  0  0  0  0  0  0  0  0  0
    5.7937   -8.4403    0.0000 C   0  0  1  0  0  0  0  0  0  0  0  0
    3.6272   -7.2437    0.0000 C   0  0  0  0  0  0  0  0  0  0  0  0
    5.1028   -9.6911    0.0000 O   0  0  0  0  0  0  0  0  0  0  0  0
    6.5158   -8.8392    0.0000 O   0  0  0  0  0  0  0  0  0  0  0  0
    3.6585   -8.8934    0.0000 O   0  0  0  0  0  0  0  0  0  0  0  0
    2.9207   -7.6697    0.0000 O   0  0  0  0  0  0  0  0  0  0  0  0
    7.2067   -7.5884    0.0000 C   0  0  0  0  0  0  0  0  0  0  0  0
    7.9132   -7.1624    0.0000 C   0  0  0  0  0  0  0  0  0  0  0  0
    8.6354   -7.5613    0.0000 C   0  0  0  0  0  0  0  0  0  0  0  0
    7.8976   -6.3375    0.0000 O   0  0  0  0  0  0  0  0  0  0  0  0
    8.6590   -8.3859    0.0000 C   0  0  0  0  0  0  0  0  0  0  0  0
    9.3850   -8.7778    0.0000 C   0  0  0  0  0  0  0  0  0  0  0  0
   10.0873   -8.3451    0.0000 C   0  0  0  0  0  0  0  0  0  0  0  0
   10.0873   -7.5204    0.0000 C   0  0  0  0  0  0  0  0  0  0  0  0
    9.3850   -7.1285    0.0000 C   0  0  0  0  0  0  0  0  0  0  0  0
   10.8076   -8.7473    0.0000 O   0  0  0  0  0  0  0  0  0  0  0  0
  2  1  1  1  0  0  0
  2  3  1  0  0  0  0
  3  4  1  0  0  0  0
  4  5  1  0  0  0  0
  5  6  1  0  0  0  0
  6  7  1  0  0  0  0
  7  2  1  0  0  0  0
  4  8  1  1  0  0  0
  6  9  1  1  0  0  0
  7 10  1  6  0  0  0
  5 11  1  6  0  0  0
  8 12  1  0  0  0  0
  1 13  1  0  0  0  0
 13 14  1  0  0  0  0
 14 15  1  0  0  0  0
 14 16  2  0  0  0  0
 15 17  2  0  0  0  0
 17 18  1  0  0  0  0
 18 19  2  0  0  0  0
 19 20  1  0  0  0  0
 20 21  2  0  0  0  0
 21 15  1  0  0  0  0
 19 22  1  0  0  0  0
M  END
>  <cdx:fragmentId>
5

$$$$
