60274.cdx
  Mrv1902 05222410202D          

  9  9  0  0  0  0            999 V2000
    6.4743   -8.2626    0.0000 C   0  0  0  0  0  0  0  0  0  0  0  0
    6.4743   -9.0876    0.0000 C   0  0  0  0  0  0  0  0  0  0  0  0
    7.1888   -9.5001    0.0000 C   0  0  0  0  0  0  0  0  0  0  0  0
    7.9032   -9.0876    0.0000 C   0  0  0  0  0  0  0  0  0  0  0  0
    7.9032   -8.2626    0.0000 C   0  0  0  0  0  0  0  0  0  0  0  0
    7.1888   -7.8501    0.0000 C   0  0  0  0  0  0  0  0  0  0  0  0
    7.1888  -10.3251    0.0000 O   0  0  0  0  0  0  0  0  0  0  0  0
    7.1888   -7.0251    0.0000 C   0  0  0  0  0  0  0  0  0  0  0  0
    7.9032   -6.6126    0.0000 O   0  0  0  0  0  0  0  0  0  0  0  0
  1  2  2  0  0  0  0
  2  3  1  0  0  0  0
  3  4  2  0  0  0  0
  4  5  1  0  0  0  0
  5  6  2  0  0  0  0
  6  1  1  0  0  0  0
  3  7  1  0  0  0  0
  6  8  1  0  0  0  0
  8  9  1  0  0  0  0
M  END
>  <cdx:fragmentId>
5

$$$$
