60278.cdx
  Mrv1902 05222410262D          

 10 10  0  0  0  0            999 V2000
    5.8361   -7.3565    0.0000 N   0  0  0  0  0  0  0  0  0  0  0  0
    5.1684   -7.8411    0.0000 C   0  0  0  0  0  0  0  0  0  0  0  0
    5.4230   -8.6259    0.0000 C   0  0  0  0  0  0  0  0  0  0  0  0
    6.2480   -8.6262    0.0000 C   0  0  0  0  0  0  0  0  0  0  0  0
    6.5033   -7.8417    0.0000 C   0  0  1  0  0  0  0  0  0  0  0  0
    5.8365   -6.5315    0.0000 C   0  0  0  0  0  0  0  0  0  0  0  0
    7.2880   -7.5872    0.0000 C   0  0  0  0  0  0  0  0  0  0  0  0
    7.9430   -8.0888    0.0000 C   0  0  1  0  0  0  0  0  0  0  0  0
    8.7049   -7.7725    0.0000 C   0  0  0  0  0  0  0  0  0  0  0  0
    7.8360   -8.9069    0.0000 O   0  0  0  0  0  0  0  0  0  0  0  0
  1  2  1  0  0  0  0
  2  3  1  0  0  0  0
  3  4  1  0  0  0  0
  4  5  1  0  0  0  0
  5  1  1  0  0  0  0
  1  6  1  0  0  0  0
  5  7  1  6  0  0  0
  7  8  1  0  0  0  0
  8  9  1  0  0  0  0
  8 10  1  1  0  0  0
M  END
>  <cdx:fragmentId>
5

$$$$
