60283.cdx
  Mrv1902 05222410282D          

 34 36  0  0  0  0            999 V2000
    8.0634  -12.1945    0.0000 C   0  0  0  0  0  0  0  0  0  0  0  0
    8.7786  -12.6056    0.0000 C   0  0  0  0  0  0  0  0  0  0  0  0
    9.4923  -12.1917    0.0000 C   0  0  0  0  0  0  0  0  0  0  0  0
    9.4907  -11.3667    0.0000 C   0  0  0  0  0  0  0  0  0  0  0  0
    8.7755  -10.9556    0.0000 C   0  0  0  0  0  0  0  0  0  0  0  0
    8.0618  -11.3695    0.0000 C   0  0  0  0  0  0  0  0  0  0  0  0
   10.2076  -12.6029    0.0000 O   0  0  0  0  0  0  0  0  0  0  0  0
    7.3465  -10.9583    0.0000 C   0  0  0  0  0  0  0  0  0  0  0  0
    7.3450  -10.1333    0.0000 C   0  0  0  0  0  0  0  0  0  0  0  0
    6.6297   -9.7222    0.0000 O   0  0  0  0  0  0  0  0  0  0  0  0
    8.0586   -9.7195    0.0000 O   0  0  0  0  0  0  0  0  0  0  0  0
    8.0571   -8.8945    0.0000 C   0  0  0  0  0  0  0  0  0  0  0  0
    8.7708   -8.4806    0.0000 C   0  0  0  0  0  0  0  0  0  0  0  0
    8.7692   -7.6556    0.0000 C   0  0  0  0  0  0  0  0  0  0  0  0
    8.0539   -7.2445    0.0000 C   0  0  1  0  0  0  0  0  0  0  0  0
    7.3402   -7.6583    0.0000 C   0  0  0  0  0  0  0  0  0  0  0  0
    7.3418   -8.4833    0.0000 C   0  0  1  0  0  0  0  0  0  0  0  0
    9.4860   -8.8917    0.0000 O   0  0  0  0  0  0  0  0  0  0  0  0
    8.4651   -6.5292    0.0000 O   0  0  0  0  0  0  0  0  0  0  0  0
    7.6401   -6.5308    0.0000 C   0  0  0  0  0  0  0  0  0  0  0  0
    6.6281   -8.8972    0.0000 O   0  0  0  0  0  0  0  0  0  0  0  0
    5.9129   -8.4861    0.0000 C   0  0  0  0  0  0  0  0  0  0  0  0
    5.1992   -8.8999    0.0000 O   0  0  0  0  0  0  0  0  0  0  0  0
    5.9113   -7.6611    0.0000 C   0  0  0  0  0  0  0  0  0  0  0  0
    5.1960   -7.2499    0.0000 C   0  0  0  0  0  0  0  0  0  0  0  0
    5.1945   -6.4249    0.0000 C   0  0  0  0  0  0  0  0  0  0  0  0
    4.4792   -6.0138    0.0000 C   0  0  0  0  0  0  0  0  0  0  0  0
    3.7655   -6.4277    0.0000 C   0  0  0  0  0  0  0  0  0  0  0  0
    3.7671   -7.2527    0.0000 C   0  0  0  0  0  0  0  0  0  0  0  0
    4.4824   -7.6638    0.0000 C   0  0  0  0  0  0  0  0  0  0  0  0
    3.0503   -6.0165    0.0000 O   0  0  0  0  0  0  0  0  0  0  0  0
    8.0512   -5.8155    0.0000 O   0  0  0  0  0  0  0  0  0  0  0  0
    6.8151   -6.5324    0.0000 O   0  0  0  0  0  0  0  0  0  0  0  0
    7.6373   -5.1019    0.0000 C   0  0  0  0  0  0  0  0  0  0  0  0
  1  2  1  0  0  0  0
  2  3  2  0  0  0  0
  3  4  1  0  0  0  0
  4  5  2  0  0  0  0
  5  6  1  0  0  0  0
  6  1  2  0  0  0  0
  3  7  1  0  0  0  0
  6  8  1  0  0  0  0
  8  9  1  0  0  0  0
  9 10  2  0  0  0  0
  9 11  1  0  0  0  0
 11 12  1  0  0  0  0
 12 13  1  0  0  0  0
 13 14  1  0  0  0  0
 14 15  1  0  0  0  0
 15 16  1  0  0  0  0
 16 17  1  0  0  0  0
 17 12  1  0  0  0  0
 13 18  1  0  0  0  0
 15 19  1  0  0  0  0
 15 20  1  6  0  0  0
 17 21  1  6  0  0  0
 21 22  1  0  0  0  0
 22 23  2  0  0  0  0
 22 24  1  0  0  0  0
 24 25  1  0  0  0  0
 25 26  2  0  0  0  0
 26 27  1  0  0  0  0
 27 28  2  0  0  0  0
 28 29  1  0  0  0  0
 29 30  2  0  0  0  0
 30 25  1  0  0  0  0
 28 31  1  0  0  0  0
 20 32  1  0  0  0  0
 20 33  2  0  0  0  0
 32 34  1  0  0  0  0
M  END
>  <cdx:fragmentId>
5

$$$$
