60282.cdx
  Mrv1902 05222410282D          

 26 28  0  0  0  0            999 V2000
    4.8106   -8.3176    0.0000 C   0  0  0  0  0  0  0  0  0  0  0  0
    4.8106   -9.1426    0.0000 C   0  0  0  0  0  0  0  0  0  0  0  0
    5.5250   -9.5551    0.0000 C   0  0  0  0  0  0  0  0  0  0  0  0
    6.2395   -9.1426    0.0000 C   0  0  0  0  0  0  0  0  0  0  0  0
    6.2395   -8.3176    0.0000 C   0  0  0  0  0  0  0  0  0  0  0  0
    5.5250   -7.9051    0.0000 C   0  0  0  0  0  0  0  0  0  0  0  0
    7.0241   -9.3976    0.0000 N   0  0  0  0  0  0  0  0  0  0  0  0
    7.5090   -8.7301    0.0000 C   0  0  0  0  0  0  0  0  0  0  0  0
    7.0241   -8.0627    0.0000 C   0  0  0  0  0  0  0  0  0  0  0  0
    7.2791   -7.2781    0.0000 C   0  0  0  0  0  0  0  0  0  0  0  0
    8.0759   -7.0646    0.0000 C   0  0  0  0  0  0  0  0  0  0  0  0
    8.8728   -6.8510    0.0000 N   0  0  0  0  0  0  0  0  0  0  0  0
    5.5250   -7.0801    0.0000 O   0  0  0  0  0  0  0  0  0  0  0  0
    4.8106   -6.6676    0.0000 C   0  0  0  0  0  0  0  0  0  0  0  0
    8.3340   -8.7301    0.0000 C   0  0  2  0  0  0  0  0  0  0  0  0
    8.7465   -9.4446    0.0000 O   0  0  0  0  0  0  0  0  0  0  0  0
    9.5715   -9.4446    0.0000 C   0  0  1  0  0  0  0  0  0  0  0  0
    9.9840   -8.7301    0.0000 C   0  0  2  0  0  0  0  0  0  0  0  0
    9.5715   -8.0157    0.0000 C   0  0  1  0  0  0  0  0  0  0  0  0
    8.7465   -8.0157    0.0000 C   0  0  1  0  0  0  0  0  0  0  0  0
    9.9840  -10.1591    0.0000 C   0  0  0  0  0  0  0  0  0  0  0  0
    9.9840   -7.3012    0.0000 O   0  0  0  0  0  0  0  0  0  0  0  0
   10.8090   -8.7301    0.0000 O   0  0  0  0  0  0  0  0  0  0  0  0
    8.3340   -7.3012    0.0000 O   0  0  0  0  0  0  0  0  0  0  0  0
   10.8090  -10.1591    0.0000 O   0  0  0  0  0  0  0  0  0  0  0  0
    7.9215   -9.4446    0.0000 H   0  0  0  0  0  0  0  0  0  0  0  0
  1  2  2  0  0  0  0
  2  3  1  0  0  0  0
  3  4  2  0  0  0  0
  4  5  1  0  0  0  0
  5  6  2  0  0  0  0
  6  1  1  0  0  0  0
  4  7  1  0  0  0  0
  7  8  1  0  0  0  0
  8  9  2  0  0  0  0
  9  5  1  0  0  0  0
  9 10  1  0  0  0  0
 10 11  1  0  0  0  0
 11 12  3  0  0  0  0
  6 13  1  0  0  0  0
 13 14  1  0  0  0  0
  8 15  1  0  0  0  0
 15 16  1  0  0  0  0
 16 17  1  0  0  0  0
 17 18  1  0  0  0  0
 18 19  1  0  0  0  0
 19 20  1  0  0  0  0
 20 15  1  0  0  0  0
 17 21  1  1  0  0  0
 19 22  1  1  0  0  0
 18 23  1  6  0  0  0
 20 24  1  6  0  0  0
 21 25  1  0  0  0  0
 15 26  1  6  0  0  0
M  END
>  <cdx:fragmentId>
5

$$$$
