60289.cdx
  Mrv1902 05222410192D          

 27 28  0  0  0  0            999 V2000
    7.0931   -8.1526    0.0000 C   0  0  0  0  0  0  0  0  0  0  0  0
    7.0931   -8.9776    0.0000 C   0  0  0  0  0  0  0  0  0  0  0  0
    7.8075   -9.3901    0.0000 C   0  0  0  0  0  0  0  0  0  0  0  0
    8.5220   -8.9776    0.0000 C   0  0  0  0  0  0  0  0  0  0  0  0
    8.5220   -8.1526    0.0000 C   0  0  0  0  0  0  0  0  0  0  0  0
    7.8075   -7.7401    0.0000 C   0  0  0  0  0  0  0  0  0  0  0  0
    6.3786   -7.7401    0.0000 O   0  0  0  0  0  0  0  0  0  0  0  0
    7.8075  -10.2151    0.0000 O   0  0  0  0  0  0  0  0  0  0  0  0
    6.3786   -6.9151    0.0000 C   0  0  0  0  0  0  0  0  0  0  0  0
    8.5220  -10.6276    0.0000 C   0  0  0  0  0  0  0  0  0  0  0  0
    6.3786   -9.3901    0.0000 O   0  0  0  0  0  0  0  0  0  0  0  0
    9.2365   -7.7401    0.0000 C   0  0  0  0  0  0  0  0  0  0  0  0
    9.9509   -8.1526    0.0000 C   0  0  0  0  0  0  0  0  0  0  0  0
   10.6654   -7.7401    0.0000 C   0  0  0  0  0  0  0  0  0  0  0  0
   11.3799   -8.1526    0.0000 O   0  0  0  0  0  0  0  0  0  0  0  0
   10.6654   -6.9151    0.0000 O   0  0  0  0  0  0  0  0  0  0  0  0
    5.6608   -8.9834    0.0000 C   0  0  2  0  0  0  0  0  0  0  0  0
    5.6542   -8.1584    0.0000 O   0  0  0  0  0  0  0  0  0  0  0  0
    4.9365   -7.7516    0.0000 C   0  0  1  0  0  0  0  0  0  0  0  0
    4.2254   -8.1698    0.0000 C   0  0  2  0  0  0  0  0  0  0  0  0
    4.2319   -8.9948    0.0000 C   0  0  1  0  0  0  0  0  0  0  0  0
    4.9497   -9.4016    0.0000 C   0  0  1  0  0  0  0  0  0  0  0  0
    4.9299   -6.9266    0.0000 C   0  0  0  0  0  0  0  0  0  0  0  0
    4.2122   -6.5199    0.0000 O   0  0  0  0  0  0  0  0  0  0  0  0
    3.5076   -7.7630    0.0000 O   0  0  0  0  0  0  0  0  0  0  0  0
    3.5208   -9.4130    0.0000 O   0  0  0  0  0  0  0  0  0  0  0  0
    4.9563  -10.2265    0.0000 O   0  0  0  0  0  0  0  0  0  0  0  0
  1  2  2  0  0  0  0
  2  3  1  0  0  0  0
  3  4  2  0  0  0  0
  4  5  1  0  0  0  0
  5  6  2  0  0  0  0
  6  1  1  0  0  0  0
  1  7  1  0  0  0  0
  3  8  1  0  0  0  0
  7  9  1  0  0  0  0
  8 10  1  0  0  0  0
  2 11  1  0  0  0  0
  5 12  1  0  0  0  0
 12 13  2  0  0  0  0
 13 14  1  0  0  0  0
 14 15  1  0  0  0  0
 14 16  2  0  0  0  0
 17 11  1  1  0  0  0
 17 18  1  0  0  0  0
 18 19  1  0  0  0  0
 19 20  1  0  0  0  0
 20 21  1  0  0  0  0
 21 22  1  0  0  0  0
 22 17  1  0  0  0  0
 19 23  1  1  0  0  0
 23 24  1  0  0  0  0
 20 25  1  6  0  0  0
 21 26  1  1  0  0  0
 22 27  1  6  0  0  0
M  END
>  <cdx:fragmentId>
5

$$$$
