60287.cdx
  Mrv1902 05222410262D          

 24 25  0  0  0  0            999 V2000
    4.6731   -9.2939    0.0000 C   0  0  0  0  0  0  0  0  0  0  0  0
    4.6731  -10.1189    0.0000 C   0  0  0  0  0  0  0  0  0  0  0  0
    5.3875  -10.5314    0.0000 C   0  0  0  0  0  0  0  0  0  0  0  0
    6.1020  -10.1189    0.0000 C   0  0  0  0  0  0  0  0  0  0  0  0
    6.1020   -9.2939    0.0000 C   0  0  0  0  0  0  0  0  0  0  0  0
    5.3875   -8.8814    0.0000 C   0  0  0  0  0  0  0  0  0  0  0  0
    3.9586  -10.5314    0.0000 O   0  0  0  0  0  0  0  0  0  0  0  0
    6.8165   -8.8814    0.0000 C   0  0  0  0  0  0  0  0  0  0  0  0
    7.5309   -9.2939    0.0000 C   0  0  0  0  0  0  0  0  0  0  0  0
    8.2454   -8.8814    0.0000 C   0  0  0  0  0  0  0  0  0  0  0  0
    8.9599   -9.2939    0.0000 O   0  0  0  0  0  0  0  0  0  0  0  0
    8.2454   -8.0564    0.0000 O   0  0  0  0  0  0  0  0  0  0  0  0
    8.9599  -10.1189    0.0000 C   0  0  2  0  0  0  0  0  0  0  0  0
    8.2454  -10.5314    0.0000 O   0  0  0  0  0  0  0  0  0  0  0  0
    8.2454  -11.3564    0.0000 C   0  0  1  0  0  0  0  0  0  0  0  0
    8.9599  -11.7689    0.0000 C   0  0  2  0  0  0  0  0  0  0  0  0
    9.6744  -11.3564    0.0000 C   0  0  1  0  0  0  0  0  0  0  0  0
    9.6744  -10.5314    0.0000 C   0  0  1  0  0  0  0  0  0  0  0  0
    7.5309  -11.7689    0.0000 C   0  0  0  0  0  0  0  0  0  0  0  0
   10.3888  -11.7689    0.0000 O   0  0  0  0  0  0  0  0  0  0  0  0
    8.9599  -12.5939    0.0000 O   0  0  0  0  0  0  0  0  0  0  0  0
   10.3888  -10.1189    0.0000 O   0  0  0  0  0  0  0  0  0  0  0  0
    7.5309  -12.5939    0.0000 O   0  0  0  0  0  0  0  0  0  0  0  0
    3.2441  -10.1189    0.0000 C   0  0  0  0  0  0  0  0  0  0  0  0
  1  2  2  0  0  0  0
  2  3  1  0  0  0  0
  3  4  2  0  0  0  0
  4  5  1  0  0  0  0
  5  6  2  0  0  0  0
  6  1  1  0  0  0  0
  2  7  1  0  0  0  0
  5  8  1  0  0  0  0
  8  9  2  0  0  0  0
  9 10  1  0  0  0  0
 10 11  1  0  0  0  0
 10 12  2  0  0  0  0
 13 11  1  1  0  0  0
 13 14  1  0  0  0  0
 14 15  1  0  0  0  0
 15 16  1  0  0  0  0
 16 17  1  0  0  0  0
 17 18  1  0  0  0  0
 18 13  1  0  0  0  0
 15 19  1  1  0  0  0
 17 20  1  1  0  0  0
 16 21  1  6  0  0  0
 18 22  1  6  0  0  0
 19 23  1  0  0  0  0
  7 24  1  0  0  0  0
M  END
>  <cdx:fragmentId>
5

$$$$
