60281.cdx
  Mrv1902 05222410272D          

 37 40  0  0  0  0            999 V2000
    4.2147   -9.2389    0.0000 C   0  0  1  0  0  0  0  0  0  0  0  0
    4.2147  -10.0639    0.0000 C   0  0  1  0  0  0  0  0  0  0  0  0
    4.8597  -10.5783    0.0000 C   0  0  0  0  0  0  0  0  0  0  0  0
    5.6640  -10.3947    0.0000 C   0  0  0  0  0  0  0  0  0  0  0  0
    6.0220   -9.6514    0.0000 C   0  0  2  0  0  0  0  0  0  0  0  0
    5.6640   -8.9081    0.0000 C   0  0  1  0  0  0  0  0  0  0  0  0
    4.8597   -8.7245    0.0000 C   0  0  0  0  0  0  0  0  0  0  0  0
    6.8447   -9.7131    0.0000 C   0  0  1  0  0  0  0  0  0  0  0  0
    7.3094   -9.0314    0.0000 C   0  0  2  0  0  0  0  0  0  0  0  0
    6.9515   -8.2881    0.0000 C   0  0  0  0  0  0  0  0  0  0  0  0
    6.1288   -8.2265    0.0000 C   0  0  0  0  0  0  0  0  0  0  0  0
    7.3494  -10.3657    0.0000 C   0  0  0  0  0  0  0  0  0  0  0  0
    8.1260  -10.0874    0.0000 C   0  0  0  0  0  0  0  0  0  0  0  0
    8.1013   -9.2628    0.0000 C   0  0  2  0  0  0  0  0  0  0  0  0
    4.0674   -8.4272    0.0000 O   0  0  0  0  0  0  0  0  0  0  0  0
    3.2499   -8.3164    0.0000 C   0  0  0  0  0  0  0  0  0  0  0  0
    2.8919   -9.0597    0.0000 C   0  0  0  0  0  0  0  0  0  0  0  0
    3.4882   -9.6298    0.0000 C   0  0  0  0  0  0  0  0  0  0  0  0
    2.8589   -7.5899    0.0000 O   0  0  0  0  0  0  0  0  0  0  0  0
    3.4714  -10.4219    0.0000 C   0  0  0  0  0  0  0  0  0  0  0  0
    2.7569  -10.0094    0.0000 C   0  0  0  0  0  0  0  0  0  0  0  0
    3.4406  -11.2463    0.0000 C   0  0  0  0  0  0  0  0  0  0  0  0
    8.7540   -8.7581    0.0000 C   0  0  1  0  0  0  0  0  0  0  0  0
    9.5508   -8.9716    0.0000 C   0  0  0  0  0  0  0  0  0  0  0  0
   10.1342   -8.3882    0.0000 C   0  0  0  0  0  0  0  0  0  0  0  0
   10.9311   -8.6018    0.0000 C   0  0  1  0  0  0  0  0  0  0  0  0
   11.5145   -8.0184    0.0000 C   0  0  0  0  0  0  0  0  0  0  0  0
   11.1446   -9.3987    0.0000 O   0  0  0  0  0  0  0  0  0  0  0  0
   12.3113   -8.2319    0.0000 C   0  0  0  0  0  0  0  0  0  0  0  0
   11.3009   -7.2215    0.0000 C   0  0  0  0  0  0  0  0  0  0  0  0
   12.0978   -7.4350    0.0000 O   0  0  0  0  0  0  0  0  0  0  0  0
    6.0220  -10.4764    0.0000 H   0  0  0  0  0  0  0  0  0  0  0  0
    7.7219   -8.3169    0.0000 C   0  0  0  0  0  0  0  0  0  0  0  0
    4.2147  -10.8889    0.0000 H   0  0  0  0  0  0  0  0  0  0  0  0
    5.2515   -8.1936    0.0000 H   0  0  0  0  0  0  0  0  0  0  0  0
    6.8447  -10.5381    0.0000 C   0  0  0  0  0  0  0  0  0  0  0  0
    8.5404   -7.9612    0.0000 C   0  0  0  0  0  0  0  0  0  0  0  0
  1  2  1  0  0  0  0
  2  3  1  0  0  0  0
  3  4  1  0  0  0  0
  4  5  1  0  0  0  0
  5  6  1  0  0  0  0
  6  7  1  0  0  0  0
  7  1  1  0  0  0  0
  5  8  1  0  0  0  0
  8  9  1  0  0  0  0
  9 10  1  0  0  0  0
 10 11  1  0  0  0  0
 11  6  1  0  0  0  0
  8 12  1  0  0  0  0
 12 13  1  0  0  0  0
 13 14  1  0  0  0  0
 14  9  1  0  0  0  0
  1 15  1  6  0  0  0
 15 16  1  0  0  0  0
 16 17  1  0  0  0  0
 17 18  1  0  0  0  0
  1 18  1  1  0  0  0
 16 19  2  0  0  0  0
  2 20  1  0  0  0  0
 20 21  1  0  0  0  0
 20 22  2  0  0  0  0
 14 23  1  1  0  0  0
 23 24  1  0  0  0  0
 24 25  1  0  0  0  0
 25 26  1  0  0  0  0
 26 27  1  0  0  0  0
 26 28  1  1  0  0  0
 27 29  1  0  0  0  0
 27 30  1  0  0  0  0
 27 31  1  0  0  0  0
  5 32  1  1  0  0  0
  9 33  1  1  0  0  0
  2 34  1  6  0  0  0
  6 35  1  6  0  0  0
  8 36  1  6  0  0  0
 23 37  1  6  0  0  0
M  END
>  <cdx:fragmentId>
5

$$$$
