60284.cdx
  Mrv1902 05222410272D          

 21 23  0  0  0  0            999 V2000
    7.5863   -5.1588    0.0000 O   0  0  0  0  0  0  0  0  0  0  0  0
    8.4068   -5.0725    0.0000 C   0  0  0  0  0  0  0  0  0  0  0  0
    8.7423   -5.8262    0.0000 C   0  0  0  0  0  0  0  0  0  0  0  0
    8.1293   -6.3782    0.0000 C   0  0  2  0  0  0  0  0  0  0  0  0
    8.1293   -7.2032    0.0000 C   0  0  0  0  0  0  0  0  0  0  0  0
    7.4148   -7.6157    0.0000 C   0  0  0  0  0  0  0  0  0  0  0  0
    6.7003   -7.2032    0.0000 C   0  0  2  0  0  0  0  0  0  0  0  0
    6.7003   -6.3782    0.0000 C   0  0  1  0  0  0  0  0  0  0  0  0
    7.4148   -5.9657    0.0000 C   0  0  1  0  0  0  0  0  0  0  0  0
    5.9858   -5.9657    0.0000 C   0  0  0  0  0  0  0  0  0  0  0  0
    5.2714   -6.3782    0.0000 C   0  0  0  0  0  0  0  0  0  0  0  0
    5.2714   -7.2032    0.0000 C   0  0  0  0  0  0  0  0  0  0  0  0
    5.9858   -7.6157    0.0000 C   0  0  1  0  0  0  0  0  0  0  0  0
    8.8193   -4.3580    0.0000 O   0  0  0  0  0  0  0  0  0  0  0  0
    9.5493   -5.9977    0.0000 C   0  0  0  0  0  0  0  0  0  0  0  0
    5.9858   -5.1407    0.0000 C   0  0  0  0  0  0  0  0  0  0  0  0
    6.7003   -8.0282    0.0000 C   0  0  0  0  0  0  0  0  0  0  0  0
    5.9858   -8.4407    0.0000 O   0  0  0  0  0  0  0  0  0  0  0  0
    8.8829   -6.7138    0.0000 H   0  0  0  0  0  0  0  0  0  0  0  0
    6.7003   -5.5532    0.0000 H   0  0  0  0  0  0  0  0  0  0  0  0
    7.4148   -6.7907    0.0000 H   0  0  0  0  0  0  0  0  0  0  0  0
  1  2  1  0  0  0  0
  2  3  1  0  0  0  0
  3  4  1  0  0  0  0
  4  5  1  0  0  0  0
  5  6  1  0  0  0  0
  6  7  1  0  0  0  0
  7  8  1  0  0  0  0
  8  9  1  0  0  0  0
  4  9  1  0  0  0  0
  1  9  1  0  0  0  0
 10 11  2  0  0  0  0
 11 12  1  0  0  0  0
 12 13  1  0  0  0  0
 13  7  1  0  0  0  0
 10  8  1  0  0  0  0
  2 14  2  0  0  0  0
  3 15  2  0  0  0  0
 10 16  1  0  0  0  0
  7 17  1  6  0  0  0
 13 18  1  6  0  0  0
  4 19  1  1  0  0  0
  8 20  1  1  0  0  0
  9 21  1  6  0  0  0
M  END
>  <cdx:fragmentId>
16592

$$$$
