60288.cdx
  Mrv1902 05222410192D          

 31 32  0  0  0  0            999 V2000
    1.8543   -9.8164    0.0000 C   0  0  0  0  0  0  0  0  0  0  0  0
    1.8543  -10.6414    0.0000 C   0  0  0  0  0  0  0  0  0  0  0  0
    2.5688  -11.0539    0.0000 C   0  0  0  0  0  0  0  0  0  0  0  0
    3.2832  -10.6414    0.0000 C   0  0  0  0  0  0  0  0  0  0  0  0
    3.2832   -9.8164    0.0000 C   0  0  0  0  0  0  0  0  0  0  0  0
    2.5688   -9.4039    0.0000 C   0  0  0  0  0  0  0  0  0  0  0  0
    4.7122   -9.8164    0.0000 C   0  0  0  0  0  0  0  0  0  0  0  0
    3.9977   -9.4039    0.0000 C   0  0  0  0  0  0  0  0  0  0  0  0
    6.1411   -9.8164    0.0000 O   0  0  0  0  0  0  0  0  0  0  0  0
    5.4267   -9.4039    0.0000 C   0  0  0  0  0  0  0  0  0  0  0  0
    7.5701  -10.6414    0.0000 O   0  0  0  0  0  0  0  0  0  0  0  0
    7.5701   -9.8164    0.0000 C   0  0  0  0  0  0  0  0  0  0  0  0
    6.8556   -9.4039    0.0000 C   0  0  0  0  0  0  0  0  0  0  0  0
    8.9990   -9.8164    0.0000 O   0  0  0  0  0  0  0  0  0  0  0  0
    8.2845   -9.4039    0.0000 C   0  0  0  0  0  0  0  0  0  0  0  0
   10.4280  -10.6414    0.0000 O   0  0  0  0  0  0  0  0  0  0  0  0
   10.4280   -9.8164    0.0000 C   0  0  2  0  0  0  0  0  0  0  0  0
    9.7135   -9.4039    0.0000 C   0  0  2  0  0  0  0  0  0  0  0  0
   11.1424   -9.4039    0.0000 C   0  0  1  0  0  0  0  0  0  0  0  0
   11.1424   -8.5789    0.0000 C   0  0  2  0  0  0  0  0  0  0  0  0
   10.4280   -8.1664    0.0000 C   0  0  1  0  0  0  0  0  0  0  0  0
    9.7135   -8.5789    0.0000 O   0  0  0  0  0  0  0  0  0  0  0  0
   11.8569   -8.1664    0.0000 O   0  0  0  0  0  0  0  0  0  0  0  0
   11.1424   -6.9289    0.0000 O   0  0  0  0  0  0  0  0  0  0  0  0
   10.4280   -7.3414    0.0000 C   0  0  0  0  0  0  0  0  0  0  0  0
    1.1398   -9.4039    0.0000 O   0  0  0  0  0  0  0  0  0  0  0  0
    1.1398  -11.0539    0.0000 O   0  0  0  0  0  0  0  0  0  0  0  0
    5.4267   -8.5789    0.0000 O   0  0  0  0  0  0  0  0  0  0  0  0
   11.8569   -9.8164    0.0000 O   0  0  0  0  0  0  0  0  0  0  0  0
    9.7135   -6.9289    0.0000 O   0  0  0  0  0  0  0  0  0  0  0  0
   11.1424   -6.1039    0.0000 C   0  0  0  0  0  0  0  0  0  0  0  0
  1  2  2  0  0  0  0
  2  3  1  0  0  0  0
  3  4  2  0  0  0  0
  4  5  1  0  0  0  0
  5  6  2  0  0  0  0
  6  1  1  0  0  0  0
  7  8  2  0  0  0  0
  8  5  1  0  0  0  0
  9 10  1  0  0  0  0
 10  7  1  0  0  0  0
 11 12  1  0  0  0  0
 12 13  1  0  0  0  0
 13  9  1  0  0  0  0
 14 15  1  0  0  0  0
 15 12  1  0  0  0  0
 17 16  1  6  0  0  0
 17 18  1  0  0  0  0
 18 14  1  1  0  0  0
 17 19  1  0  0  0  0
 19 20  1  0  0  0  0
 20 21  1  0  0  0  0
 21 22  1  0  0  0  0
 22 18  1  0  0  0  0
 20 23  1  6  0  0  0
 24 25  1  0  0  0  0
 21 25  1  1  0  0  0
  1 26  1  0  0  0  0
  2 27  1  0  0  0  0
 10 28  2  0  0  0  0
 19 29  1  1  0  0  0
 25 30  2  0  0  0  0
 24 31  1  0  0  0  0
M  END
>  <cdx:fragmentId>
5

$$$$
