60290.cdx
  Mrv1902 05222410272D          

 42 47  0  0  0  0            999 V2000
    3.3256   -7.8776    0.0000 C   0  0  0  0  0  0  0  0  0  0  0  0
    3.3256   -8.7026    0.0000 C   0  0  0  0  0  0  0  0  0  0  0  0
    4.0400   -9.1151    0.0000 C   0  0  0  0  0  0  0  0  0  0  0  0
    4.7545   -8.7026    0.0000 C   0  0  0  0  0  0  0  0  0  0  0  0
    4.7545   -7.8776    0.0000 C   0  0  0  0  0  0  0  0  0  0  0  0
    4.0400   -7.4651    0.0000 C   0  0  0  0  0  0  0  0  0  0  0  0
    5.4690   -9.1151    0.0000 C   0  0  0  0  0  0  0  0  0  0  0  0
    6.1834   -8.7026    0.0000 C   0  0  1  0  0  0  0  0  0  0  0  0
    6.1834   -7.8776    0.0000 C   0  0  1  0  0  0  0  0  0  0  0  0
    5.4690   -7.4651    0.0000 O   0  0  0  0  0  0  0  0  0  0  0  0
    6.8979   -9.1151    0.0000 O   0  0  0  0  0  0  0  0  0  0  0  0
    7.6124   -7.8776    0.0000 C   0  0  0  0  0  0  0  0  0  0  0  0
    6.8979   -7.4651    0.0000 C   0  0  0  0  0  0  0  0  0  0  0  0
    8.3269   -7.4651    0.0000 C   0  0  0  0  0  0  0  0  0  0  0  0
    8.3269   -6.6401    0.0000 C   0  0  0  0  0  0  0  0  0  0  0  0
    7.6124   -6.2276    0.0000 C   0  0  0  0  0  0  0  0  0  0  0  0
    6.8979   -6.6401    0.0000 C   0  0  0  0  0  0  0  0  0  0  0  0
    4.0400   -9.9401    0.0000 O   0  0  0  0  0  0  0  0  0  0  0  0
    4.0675  -10.4214    0.0000 O   0  0  0  0  0  0  0  0  0  0  0  0
    4.7820  -10.8339    0.0000 C   0  0  0  0  0  0  0  0  0  0  0  0
    5.4965  -10.4214    0.0000 C   0  0  0  0  0  0  0  0  0  0  0  0
    4.7820  -11.6589    0.0000 C   0  0  0  0  0  0  0  0  0  0  0  0
    5.4965  -12.0714    0.0000 C   0  0  0  0  0  0  0  0  0  0  0  0
    6.2109  -11.6589    0.0000 C   0  0  0  0  0  0  0  0  0  0  0  0
    6.2109  -10.8339    0.0000 C   0  0  0  0  0  0  0  0  0  0  0  0
    6.9254  -12.0714    0.0000 C   0  0  0  0  0  0  0  0  0  0  0  0
    7.6399  -11.6589    0.0000 C   0  0  1  0  0  0  0  0  0  0  0  0
    7.6399  -10.8339    0.0000 C   0  0  1  0  0  0  0  0  0  0  0  0
    6.9254  -10.4214    0.0000 O   0  0  0  0  0  0  0  0  0  0  0  0
    8.3544  -12.0714    0.0000 O   0  0  0  0  0  0  0  0  0  0  0  0
    9.0688  -10.8339    0.0000 C   0  0  0  0  0  0  0  0  0  0  0  0
    8.3544  -10.4214    0.0000 C   0  0  0  0  0  0  0  0  0  0  0  0
    9.7833  -10.4214    0.0000 C   0  0  0  0  0  0  0  0  0  0  0  0
    9.7833   -9.5964    0.0000 C   0  0  0  0  0  0  0  0  0  0  0  0
    9.0688   -9.1839    0.0000 C   0  0  0  0  0  0  0  0  0  0  0  0
    8.3544   -9.5964    0.0000 C   0  0  0  0  0  0  0  0  0  0  0  0
    2.6111   -7.4651    0.0000 O   0  0  0  0  0  0  0  0  0  0  0  0
    7.6124   -5.4026    0.0000 O   0  0  0  0  0  0  0  0  0  0  0  0
    9.0413   -6.2276    0.0000 O   0  0  0  0  0  0  0  0  0  0  0  0
    5.4965  -12.8964    0.0000 O   0  0  0  0  0  0  0  0  0  0  0  0
    9.0688   -8.3589    0.0000 O   0  0  0  0  0  0  0  0  0  0  0  0
   10.4978   -9.1839    0.0000 O   0  0  0  0  0  0  0  0  0  0  0  0
  1  2  1  0  0  0  0
  2  3  2  0  0  0  0
  3  4  1  0  0  0  0
  4  5  2  0  0  0  0
  5  6  1  0  0  0  0
  6  1  2  0  0  0  0
  4  7  1  0  0  0  0
  7  8  1  0  0  0  0
  8  9  1  0  0  0  0
  9 10  1  0  0  0  0
 10  5  1  0  0  0  0
  8 11  1  1  0  0  0
 12 13  2  0  0  0  0
  9 13  1  1  0  0  0
 12 14  1  0  0  0  0
 14 15  2  0  0  0  0
 15 16  1  0  0  0  0
 16 17  2  0  0  0  0
 17 13  1  0  0  0  0
  3 18  1  0  0  0  0
 19 20  1  0  0  0  0
 20 21  2  0  0  0  0
 20 22  1  0  0  0  0
 22 23  2  0  0  0  0
 23 24  1  0  0  0  0
 24 25  2  0  0  0  0
 25 21  1  0  0  0  0
 24 26  1  0  0  0  0
 26 27  1  0  0  0  0
 27 28  1  0  0  0  0
 28 29  1  0  0  0  0
 29 25  1  0  0  0  0
 27 30  1  1  0  0  0
 31 32  2  0  0  0  0
 28 32  1  1  0  0  0
 31 33  1  0  0  0  0
 33 34  2  0  0  0  0
 34 35  1  0  0  0  0
 35 36  2  0  0  0  0
 36 32  1  0  0  0  0
  1 37  1  0  0  0  0
 16 38  1  0  0  0  0
 15 39  1  0  0  0  0
  7 21  1  0  0  0  0
 23 40  1  0  0  0  0
 35 41  1  0  0  0  0
 34 42  1  0  0  0  0
M  END
>  <cdx:fragmentId>
137

$$$$
