60291.cdx
  Mrv1902 05222410272D          

 30 31  0  0  0  0            999 V2000
    2.3218  -10.0776    0.0000 C   0  0  0  0  0  0  0  0  0  0  0  0
    2.3218  -10.9026    0.0000 C   0  0  0  0  0  0  0  0  0  0  0  0
    3.0363  -11.3151    0.0000 C   0  0  0  0  0  0  0  0  0  0  0  0
    3.7507  -10.9026    0.0000 C   0  0  0  0  0  0  0  0  0  0  0  0
    3.7507  -10.0776    0.0000 C   0  0  0  0  0  0  0  0  0  0  0  0
    3.0363   -9.6651    0.0000 C   0  0  0  0  0  0  0  0  0  0  0  0
    1.6073   -9.6651    0.0000 O   0  0  0  0  0  0  0  0  0  0  0  0
    1.6073  -11.3151    0.0000 O   0  0  0  0  0  0  0  0  0  0  0  0
    4.4652   -9.6651    0.0000 C   0  0  0  0  0  0  0  0  0  0  0  0
    5.1797  -10.0776    0.0000 C   0  0  0  0  0  0  0  0  0  0  0  0
    5.8942   -9.6651    0.0000 C   0  0  0  0  0  0  0  0  0  0  0  0
    6.6086  -10.0776    0.0000 O   0  0  0  0  0  0  0  0  0  0  0  0
    5.8942   -8.8401    0.0000 O   0  0  0  0  0  0  0  0  0  0  0  0
    7.3231   -9.6651    0.0000 C   0  0  0  0  0  0  0  0  0  0  0  0
    8.0376  -10.0776    0.0000 C   0  0  0  0  0  0  0  0  0  0  0  0
    8.0376  -10.9026    0.0000 O   0  0  0  0  0  0  0  0  0  0  0  0
    8.7520   -9.6651    0.0000 C   0  0  0  0  0  0  0  0  0  0  0  0
    9.4665  -10.0776    0.0000 O   0  0  0  0  0  0  0  0  0  0  0  0
   10.1810   -9.6651    0.0000 C   0  0  2  0  0  0  0  0  0  0  0  0
   10.8955  -10.0776    0.0000 C   0  0  2  0  0  0  0  0  0  0  0  0
   11.6099   -9.6651    0.0000 C   0  0  1  0  0  0  0  0  0  0  0  0
   11.6099   -8.8401    0.0000 C   0  0  2  0  0  0  0  0  0  0  0  0
   10.8955   -8.4276    0.0000 C   0  0  1  0  0  0  0  0  0  0  0  0
   10.1810   -8.8401    0.0000 O   0  0  0  0  0  0  0  0  0  0  0  0
   10.8955  -10.9026    0.0000 O   0  0  0  0  0  0  0  0  0  0  0  0
   12.3244  -10.0776    0.0000 O   0  0  0  0  0  0  0  0  0  0  0  0
   12.3244   -8.4276    0.0000 O   0  0  0  0  0  0  0  0  0  0  0  0
   10.8955   -7.6026    0.0000 C   0  0  0  0  0  0  0  0  0  0  0  0
   11.6099   -7.1901    0.0000 O   0  0  0  0  0  0  0  0  0  0  0  0
   10.1810   -7.1901    0.0000 O   0  0  0  0  0  0  0  0  0  0  0  0
  1  2  2  0  0  0  0
  2  3  1  0  0  0  0
  3  4  2  0  0  0  0
  4  5  1  0  0  0  0
  5  6  2  0  0  0  0
  6  1  1  0  0  0  0
  1  7  1  0  0  0  0
  2  8  1  0  0  0  0
  5  9  1  0  0  0  0
  9 10  2  0  0  0  0
 10 11  1  0  0  0  0
 11 12  1  0  0  0  0
 11 13  2  0  0  0  0
 12 14  1  0  0  0  0
 14 15  1  0  0  0  0
 15 16  1  0  0  0  0
 15 17  1  0  0  0  0
 17 18  1  0  0  0  0
 19 18  1  1  0  0  0
 19 20  1  0  0  0  0
 20 21  1  0  0  0  0
 21 22  1  0  0  0  0
 22 23  1  0  0  0  0
 23 24  1  0  0  0  0
 24 19  1  0  0  0  0
 20 25  1  6  0  0  0
 21 26  1  1  0  0  0
 22 27  1  6  0  0  0
 23 28  1  1  0  0  0
 28 29  1  0  0  0  0
 28 30  2  0  0  0  0
M  END
>  <cdx:fragmentId>
5

$$$$
