60292.cdx
  Mrv1902 05222410262D          

 24 25  0  0  0  0            999 V2000
    7.3268   -8.8275    0.0000 C   0  0  0  0  0  0  0  0  0  0  0  0
    7.3268   -9.6525    0.0000 C   0  0  0  0  0  0  0  0  0  0  0  0
    8.0413  -10.0650    0.0000 C   0  0  0  0  0  0  0  0  0  0  0  0
    8.7557   -9.6525    0.0000 C   0  0  0  0  0  0  0  0  0  0  0  0
    8.7557   -8.8275    0.0000 C   0  0  0  0  0  0  0  0  0  0  0  0
    8.0413   -8.4150    0.0000 C   0  0  0  0  0  0  0  0  0  0  0  0
    6.6123   -8.4150    0.0000 O   0  0  0  0  0  0  0  0  0  0  0  0
    6.6123  -10.0650    0.0000 O   0  0  0  0  0  0  0  0  0  0  0  0
    9.4702   -8.4150    0.0000 C   0  0  0  0  0  0  0  0  0  0  0  0
   10.1847   -8.8275    0.0000 C   0  0  0  0  0  0  0  0  0  0  0  0
   10.8992   -8.4150    0.0000 C   0  0  0  0  0  0  0  0  0  0  0  0
   11.6136   -8.8275    0.0000 O   0  0  0  0  0  0  0  0  0  0  0  0
   10.8992   -7.5900    0.0000 O   0  0  0  0  0  0  0  0  0  0  0  0
    5.8979   -9.6525    0.0000 C   0  0  2  0  0  0  0  0  0  0  0  0
    5.8979   -8.8275    0.0000 O   0  0  0  0  0  0  0  0  0  0  0  0
    5.1834   -8.4150    0.0000 C   0  0  1  0  0  0  0  0  0  0  0  0
    4.4689   -8.8275    0.0000 C   0  0  2  0  0  0  0  0  0  0  0  0
    4.4689   -9.6525    0.0000 C   0  0  1  0  0  0  0  0  0  0  0  0
    5.1834  -10.0650    0.0000 C   0  0  1  0  0  0  0  0  0  0  0  0
    5.1834   -7.5900    0.0000 C   0  0  0  0  0  0  0  0  0  0  0  0
    3.7544  -10.0650    0.0000 O   0  0  0  0  0  0  0  0  0  0  0  0
    5.1834  -10.8900    0.0000 O   0  0  0  0  0  0  0  0  0  0  0  0
    3.7544   -8.4150    0.0000 O   0  0  0  0  0  0  0  0  0  0  0  0
    4.4689   -7.1775    0.0000 O   0  0  0  0  0  0  0  0  0  0  0  0
  1  2  2  0  0  0  0
  2  3  1  0  0  0  0
  3  4  2  0  0  0  0
  4  5  1  0  0  0  0
  5  6  2  0  0  0  0
  6  1  1  0  0  0  0
  1  7  1  0  0  0  0
  2  8  1  0  0  0  0
  5  9  1  0  0  0  0
  9 10  1  0  0  0  0
 10 11  1  0  0  0  0
 11 12  1  0  0  0  0
 11 13  2  0  0  0  0
 14  8  1  1  0  0  0
 14 15  1  0  0  0  0
 15 16  1  0  0  0  0
 16 17  1  0  0  0  0
 17 18  1  0  0  0  0
 18 19  1  0  0  0  0
 19 14  1  0  0  0  0
 16 20  1  1  0  0  0
 18 21  1  1  0  0  0
 19 22  1  6  0  0  0
 17 23  1  6  0  0  0
 20 24  1  0  0  0  0
M  END
>  <cdx:fragmentId>
97

$$$$
