60297.cdx
  Mrv1902 05222410282D          

 28 31  0  0  0  0            999 V2000
    5.6356   -5.7601    0.0000 C   0  0  0  0  0  0  0  0  0  0  0  0
    5.6356   -6.5851    0.0000 C   0  0  0  0  0  0  0  0  0  0  0  0
    6.3500   -6.9976    0.0000 C   0  0  0  0  0  0  0  0  0  0  0  0
    7.0645   -6.5851    0.0000 C   0  0  0  0  0  0  0  0  0  0  0  0
    7.0645   -5.7601    0.0000 C   0  0  0  0  0  0  0  0  0  0  0  0
    6.3500   -5.3476    0.0000 C   0  0  0  0  0  0  0  0  0  0  0  0
    7.7790   -6.9976    0.0000 C   0  0  0  0  0  0  0  0  0  0  0  0
    6.3500   -7.8226    0.0000 C   0  0  0  0  0  0  0  0  0  0  0  0
    7.0645   -8.2351    0.0000 C   0  0  0  0  0  0  0  0  0  0  0  0
    7.7790   -7.8226    0.0000 C   0  0  0  0  0  0  0  0  0  0  0  0
    5.6356   -8.2351    0.0000 C   0  0  0  0  0  0  0  0  0  0  0  0
    5.6356   -9.0601    0.0000 C   0  0  0  0  0  0  0  0  0  0  0  0
    6.3500   -9.4726    0.0000 C   0  0  0  0  0  0  0  0  0  0  0  0
    7.0645   -9.0601    0.0000 C   0  0  0  0  0  0  0  0  0  0  0  0
    6.3500   -4.5226    0.0000 O   0  0  0  0  0  0  0  0  0  0  0  0
    4.9211   -5.3476    0.0000 O   0  0  0  0  0  0  0  0  0  0  0  0
    4.9211   -6.9976    0.0000 O   0  0  0  0  0  0  0  0  0  0  0  0
    4.2066   -5.7601    0.0000 C   0  0  0  0  0  0  0  0  0  0  0  0
    4.9211   -7.8226    0.0000 C   0  0  0  0  0  0  0  0  0  0  0  0
    8.4934   -8.2351    0.0000 O   0  0  0  0  0  0  0  0  0  0  0  0
    8.4934   -6.5851    0.0000 N   0  0  0  0  0  0  0  0  0  0  0  0
    8.4934   -5.7601    0.0000 C   0  0  0  0  0  0  0  0  0  0  0  0
    7.7790   -5.3476    0.0000 C   0  0  0  0  0  0  0  0  0  0  0  0
    5.6356   -4.1101    0.0000 C   0  0  0  0  0  0  0  0  0  0  0  0
    7.7790   -4.5226    0.0000 O   0  0  0  0  0  0  0  0  0  0  0  0
    9.2079   -5.3476    0.0000 O   0  0  0  0  0  0  0  0  0  0  0  0
    9.9224   -5.7601    0.0000 C   0  0  0  0  0  0  0  0  0  0  0  0
    8.4934   -4.1101    0.0000 C   0  0  0  0  0  0  0  0  0  0  0  0
  1  2  2  0  0  0  0
  2  3  1  0  0  0  0
  3  4  2  0  0  0  0
  4  5  1  0  0  0  0
  5  6  2  0  0  0  0
  6  1  1  0  0  0  0
  4  7  1  0  0  0  0
  3  8  1  0  0  0  0
  8  9  2  0  0  0  0
  9 10  1  0  0  0  0
 10  7  1  0  0  0  0
  8 11  1  0  0  0  0
 11 12  2  0  0  0  0
 12 13  1  0  0  0  0
 13 14  2  0  0  0  0
 14  9  1  0  0  0  0
  6 15  1  0  0  0  0
  1 16  1  0  0  0  0
  2 17  1  0  0  0  0
 16 18  1  0  0  0  0
 17 19  1  0  0  0  0
 10 20  2  0  0  0  0
  7 21  2  0  0  0  0
 21 22  1  0  0  0  0
 22 23  2  0  0  0  0
 23  5  1  0  0  0  0
 15 24  1  0  0  0  0
 23 25  1  0  0  0  0
 22 26  1  0  0  0  0
 26 27  1  0  0  0  0
 25 28  1  0  0  0  0
M  END
>  <cdx:fragmentId>
5

$$$$
