60294.cdx
  Mrv1902 05222410272D          

 32 35  0  0  0  0            999 V2000
    4.1643   -7.8089    0.0000 C   0  0  0  0  0  0  0  0  0  0  0  0
    4.1643   -8.6339    0.0000 C   0  0  0  0  0  0  0  0  0  0  0  0
    4.8788   -9.0464    0.0000 C   0  0  0  0  0  0  0  0  0  0  0  0
    5.5932   -8.6339    0.0000 C   0  0  0  0  0  0  0  0  0  0  0  0
    5.5932   -7.8089    0.0000 C   0  0  0  0  0  0  0  0  0  0  0  0
    4.8788   -7.3964    0.0000 C   0  0  0  0  0  0  0  0  0  0  0  0
    6.3077   -9.0464    0.0000 C   0  0  0  0  0  0  0  0  0  0  0  0
    7.0222   -8.6339    0.0000 C   0  0  0  0  0  0  0  0  0  0  0  0
    7.0222   -7.8089    0.0000 C   0  0  0  0  0  0  0  0  0  0  0  0
    6.3077   -7.3964    0.0000 O   0  0  0  0  0  0  0  0  0  0  0  0
    4.8788   -9.8714    0.0000 O   0  0  0  0  0  0  0  0  0  0  0  0
    6.3077   -9.8714    0.0000 O   0  0  0  0  0  0  0  0  0  0  0  0
    7.7367   -9.0464    0.0000 O   0  0  0  0  0  0  0  0  0  0  0  0
    8.4511   -7.8089    0.0000 C   0  0  0  0  0  0  0  0  0  0  0  0
    7.7367   -7.3964    0.0000 C   0  0  0  0  0  0  0  0  0  0  0  0
    9.1656   -7.3964    0.0000 C   0  0  0  0  0  0  0  0  0  0  0  0
    9.1656   -6.5714    0.0000 C   0  0  0  0  0  0  0  0  0  0  0  0
    8.4511   -6.1589    0.0000 C   0  0  0  0  0  0  0  0  0  0  0  0
    7.7367   -6.5714    0.0000 C   0  0  0  0  0  0  0  0  0  0  0  0
    3.4498   -7.3964    0.0000 O   0  0  0  0  0  0  0  0  0  0  0  0
    8.4511   -5.3339    0.0000 O   0  0  0  0  0  0  0  0  0  0  0  0
    9.8801   -7.8089    0.0000 O   0  0  0  0  0  0  0  0  0  0  0  0
    7.7367   -9.8714    0.0000 C   0  0  2  0  0  0  0  0  0  0  0  0
    7.0222  -10.2839    0.0000 O   0  0  0  0  0  0  0  0  0  0  0  0
    7.0222  -11.1089    0.0000 C   0  0  2  0  0  0  0  0  0  0  0  0
    7.7367  -11.5214    0.0000 C   0  0  1  0  0  0  0  0  0  0  0  0
    8.4511  -11.1089    0.0000 C   0  0  2  0  0  0  0  0  0  0  0  0
    8.4511  -10.2839    0.0000 C   0  0  1  0  0  0  0  0  0  0  0  0
    7.7367  -12.3464    0.0000 O   0  0  0  0  0  0  0  0  0  0  0  0
    6.3077  -11.5214    0.0000 C   0  0  0  0  0  0  0  0  0  0  0  0
    9.1656  -11.5214    0.0000 O   0  0  0  0  0  0  0  0  0  0  0  0
    9.1656   -9.8714    0.0000 O   0  0  0  0  0  0  0  0  0  0  0  0
  1  2  2  0  0  0  0
  2  3  1  0  0  0  0
  3  4  2  0  0  0  0
  4  5  1  0  0  0  0
  5  6  2  0  0  0  0
  6  1  1  0  0  0  0
  4  7  1  0  0  0  0
  7  8  1  0  0  0  0
  8  9  1  0  0  0  0
  9 10  1  0  0  0  0
 10  5  1  0  0  0  0
  3 11  1  0  0  0  0
 12  7  2  0  0  0  0
  8 13  1  0  0  0  0
 14 15  1  0  0  0  0
 15  9  1  0  0  0  0
 14 16  2  0  0  0  0
 16 17  1  0  0  0  0
 17 18  2  0  0  0  0
 18 19  1  0  0  0  0
 19 15  2  0  0  0  0
  1 20  1  0  0  0  0
 18 21  1  0  0  0  0
 16 22  1  0  0  0  0
 23 13  1  1  0  0  0
 23 24  1  0  0  0  0
 24 25  1  0  0  0  0
 25 26  1  0  0  0  0
 26 27  1  0  0  0  0
 27 28  1  0  0  0  0
 28 23  1  0  0  0  0
 26 29  1  1  0  0  0
 25 30  1  6  0  0  0
 27 31  1  6  0  0  0
 28 32  1  6  0  0  0
M  END
>  <cdx:fragmentId>
5

$$$$
