60296.cdx
  Mrv1902 05222410282D          

 23 26  0  0  0  0            999 V2000
    5.6356   -5.7601    0.0000 C   0  0  0  0  0  0  0  0  0  0  0  0
    5.6356   -6.5851    0.0000 C   0  0  0  0  0  0  0  0  0  0  0  0
    6.3500   -6.9976    0.0000 C   0  0  0  0  0  0  0  0  0  0  0  0
    7.0645   -6.5851    0.0000 C   0  0  0  0  0  0  0  0  0  0  0  0
    7.0645   -5.7601    0.0000 C   0  0  0  0  0  0  0  0  0  0  0  0
    6.3500   -5.3476    0.0000 C   0  0  0  0  0  0  0  0  0  0  0  0
    7.7790   -6.9976    0.0000 C   0  0  0  0  0  0  0  0  0  0  0  0
    6.3500   -7.8226    0.0000 C   0  0  0  0  0  0  0  0  0  0  0  0
    7.0645   -8.2351    0.0000 C   0  0  0  0  0  0  0  0  0  0  0  0
    7.7790   -7.8226    0.0000 C   0  0  0  0  0  0  0  0  0  0  0  0
    5.6356   -8.2351    0.0000 C   0  0  0  0  0  0  0  0  0  0  0  0
    5.6356   -9.0601    0.0000 C   0  0  0  0  0  0  0  0  0  0  0  0
    6.3500   -9.4726    0.0000 C   0  0  0  0  0  0  0  0  0  0  0  0
    7.0645   -9.0601    0.0000 C   0  0  0  0  0  0  0  0  0  0  0  0
    6.3500   -4.5226    0.0000 O   0  0  0  0  0  0  0  0  0  0  0  0
    4.9211   -5.3476    0.0000 O   0  0  0  0  0  0  0  0  0  0  0  0
    4.9211   -6.9976    0.0000 O   0  0  0  0  0  0  0  0  0  0  0  0
    4.2066   -5.7601    0.0000 C   0  0  0  0  0  0  0  0  0  0  0  0
    4.9211   -7.8226    0.0000 C   0  0  0  0  0  0  0  0  0  0  0  0
    8.3340   -6.1726    0.0000 N   0  0  0  0  0  0  0  0  0  0  0  0
    7.8491   -5.5052    0.0000 C   0  0  0  0  0  0  0  0  0  0  0  0
    9.1589   -6.1578    0.0000 C   0  0  0  0  0  0  0  0  0  0  0  0
    8.1041   -4.7206    0.0000 O   0  0  0  0  0  0  0  0  0  0  0  0
  1  2  2  0  0  0  0
  2  3  1  0  0  0  0
  3  4  1  0  0  0  0
  4  5  1  0  0  0  0
  5  6  2  0  0  0  0
  6  1  1  0  0  0  0
  4  7  2  0  0  0  0
  3  8  2  0  0  0  0
  8  9  1  0  0  0  0
  9 10  2  0  0  0  0
 10  7  1  0  0  0  0
  8 11  1  0  0  0  0
 11 12  2  0  0  0  0
 12 13  1  0  0  0  0
 13 14  2  0  0  0  0
 14  9  1  0  0  0  0
  6 15  1  0  0  0  0
  1 16  1  0  0  0  0
  2 17  1  0  0  0  0
 16 18  1  0  0  0  0
 17 19  1  0  0  0  0
 20 21  1  0  0  0  0
 21  5  1  0  0  0  0
  7 20  1  0  0  0  0
 20 22  1  0  0  0  0
 21 23  2  0  0  0  0
M  END
>  <cdx:fragmentId>
5

$$$$
