60307.cdx
  Mrv1902 05222410182D          

 11 11  0  0  0  0            999 V2000
    3.9993  -10.5039    0.0000 C   0  0  0  0  0  0  0  0  0  0  0  0
    3.9993  -11.3289    0.0000 C   0  0  0  0  0  0  0  0  0  0  0  0
    4.7138  -11.7414    0.0000 C   0  0  0  0  0  0  0  0  0  0  0  0
    5.4282  -11.3289    0.0000 C   0  0  0  0  0  0  0  0  0  0  0  0
    5.4282  -10.5039    0.0000 C   0  0  0  0  0  0  0  0  0  0  0  0
    4.7138  -10.0914    0.0000 C   0  0  0  0  0  0  0  0  0  0  0  0
    6.1427  -10.0914    0.0000 C   0  0  0  0  0  0  0  0  0  0  0  0
    6.8572  -10.5039    0.0000 C   0  0  0  0  0  0  0  0  0  0  0  0
    7.5717  -10.9164    0.0000 C   0  0  0  0  0  0  0  0  0  0  0  0
    8.2861  -11.3289    0.0000 C   0  0  0  0  0  0  0  0  0  0  0  0
    9.0006  -11.7414    0.0000 C   0  0  0  0  0  0  0  0  0  0  0  0
  1  2  2  0  0  0  0
  2  3  1  0  0  0  0
  3  4  2  0  0  0  0
  4  5  1  0  0  0  0
  5  6  2  0  0  0  0
  6  1  1  0  0  0  0
  5  7  1  0  0  0  0
  7  8  1  0  0  0  0
  8  9  3  0  0  0  0
  9 10  1  0  0  0  0
 10 11  3  0  0  0  0
M  END
>  <cdx:fragmentId>
5

$$$$
