60302.cdx
  Mrv1902 05222410192D          

 25 26  0  0  0  0            999 V2000
    5.2231   -8.8814    0.0000 C   0  0  0  0  0  0  0  0  0  0  0  0
    5.2231   -9.7064    0.0000 C   0  0  0  0  0  0  0  0  0  0  0  0
    5.9375  -10.1189    0.0000 C   0  0  1  0  0  0  0  0  0  0  0  0
    6.6520   -9.7064    0.0000 C   0  0  1  0  0  0  0  0  0  0  0  0
    6.6520   -8.8814    0.0000 C   0  0  2  0  0  0  0  0  0  0  0  0
    5.9375   -8.4689    0.0000 C   0  0  0  0  0  0  0  0  0  0  0  0
    7.3665  -10.1189    0.0000 C   0  0  0  0  0  0  0  0  0  0  0  0
    8.0809   -9.7064    0.0000 C   0  0  0  0  0  0  0  0  0  0  0  0
    8.0809   -8.8814    0.0000 C   0  0  0  0  0  0  0  0  0  0  0  0
    7.3665   -8.4689    0.0000 C   0  0  2  0  0  0  0  0  0  0  0  0
    8.7954   -8.4689    0.0000 C   0  0  0  0  0  0  0  0  0  0  0  0
    9.5099   -4.7564    0.0000 O   0  0  0  0  0  0  0  0  0  0  0  0
    7.3665   -7.6439    0.0000 C   0  0  0  0  0  0  0  0  0  0  0  0
    8.7954   -5.1689    0.0000 C   0  0  0  0  0  0  0  0  0  0  0  0
    9.5099   -6.4064    0.0000 O   0  0  0  0  0  0  0  0  0  0  0  0
    8.7954   -5.9939    0.0000 C   0  0  0  0  0  0  0  0  0  0  0  0
    8.0809   -7.2314    0.0000 C   0  0  0  0  0  0  0  0  0  0  0  0
    8.0809   -6.4064    0.0000 C   0  0  0  0  0  0  0  0  0  0  0  0
    6.6520   -8.0564    0.0000 C   0  0  0  0  0  0  0  0  0  0  0  0
    5.5250  -10.8334    0.0000 C   0  0  0  0  0  0  0  0  0  0  0  0
    6.3500  -10.8334    0.0000 C   0  0  0  0  0  0  0  0  0  0  0  0
    5.9375  -11.5478    0.0000 O   0  0  0  0  0  0  0  0  0  0  0  0
    4.7000  -10.8334    0.0000 O   0  0  0  0  0  0  0  0  0  0  0  0
    6.6520  -10.5314    0.0000 H   0  0  0  0  0  0  0  0  0  0  0  0
    8.0809   -8.0564    0.0000 H   0  0  0  0  0  0  0  0  0  0  0  0
  1  2  1  0  0  0  0
  2  3  1  0  0  0  0
  3  4  1  0  0  0  0
  4  5  1  0  0  0  0
  5  6  1  0  0  0  0
  6  1  1  0  0  0  0
  4  7  1  0  0  0  0
  7  8  1  0  0  0  0
  8  9  1  0  0  0  0
  9 10  1  0  0  0  0
 10  5  1  0  0  0  0
 14 12  1  0  0  0  0
  9 11  2  0  0  0  0
 16 14  1  0  0  0  0
 17 13  1  0  0  0  0
 13 10  1  0  0  0  0
 16 15  1  0  0  0  0
 18 16  1  0  0  0  0
 18 17  2  0  0  0  0
  5 19  1  1  0  0  0
  3 20  1  1  0  0  0
  3 21  1  6  0  0  0
 20 22  1  0  0  0  0
 20 23  2  0  0  0  0
  4 24  1  6  0  0  0
 10 25  1  6  0  0  0
M  END
>  <cdx:fragmentId>
5

$$$$
