60303.cdx
  Mrv1902 05222410202D          

 28 29  0  0  0  0            999 V2000
    0.0806   -8.1912    0.0000 C   0  0  0  0  0  0  0  0  0  0  0  0
    0.0806   -9.0144    0.0000 C   0  0  0  0  0  0  0  0  0  0  0  0
    0.7934   -9.4259    0.0000 C   0  0  0  0  0  0  0  0  0  0  0  0
    1.5063   -9.0144    0.0000 C   0  0  0  0  0  0  0  0  0  0  0  0
    1.5063   -8.1912    0.0000 C   0  0  0  0  0  0  0  0  0  0  0  0
    0.7934   -7.7796    0.0000 C   0  0  0  0  0  0  0  0  0  0  0  0
    2.2192   -9.4259    0.0000 N   0  0  0  0  0  0  0  0  0  0  0  0
    2.9321   -9.0144    0.0000 C   0  0  0  0  0  0  0  0  0  0  0  0
    2.9321   -8.1912    0.0000 C   0  0  0  0  0  0  0  0  0  0  0  0
    2.2192   -7.7796    0.0000 C   0  0  0  0  0  0  0  0  0  0  0  0
    2.2192   -6.9564    0.0000 O   0  0  0  0  0  0  0  0  0  0  0  0
    2.2192  -10.2491    0.0000 C   0  0  0  0  0  0  0  0  0  0  0  0
   14.3332   -9.0315    0.0000 C   0  0  0  0  0  0  0  0  0  0  0  0
   13.6203   -9.4431    0.0000 C   0  0  0  0  0  0  0  0  0  0  0  0
   12.9074   -9.0315    0.0000 C   0  0  0  0  0  0  0  0  0  0  0  0
   12.1945   -9.4431    0.0000 C   0  0  0  0  0  0  0  0  0  0  0  0
   11.4816   -9.0315    0.0000 C   0  0  0  0  0  0  0  0  0  0  0  0
   10.7687   -9.4431    0.0000 C   0  0  0  0  0  0  0  0  0  0  0  0
   10.0558   -9.0315    0.0000 C   0  0  0  0  0  0  0  0  0  0  0  0
    9.3429   -9.4431    0.0000 C   0  0  0  0  0  0  0  0  0  0  0  0
    8.6300   -9.0315    0.0000 C   0  0  0  0  0  0  0  0  0  0  0  0
    7.9171   -9.4431    0.0000 C   0  0  0  0  0  0  0  0  0  0  0  0
    7.2042   -9.0315    0.0000 C   0  0  0  0  0  0  0  0  0  0  0  0
    6.4913   -9.4431    0.0000 C   0  0  0  0  0  0  0  0  0  0  0  0
    5.7784   -9.0315    0.0000 C   0  0  0  0  0  0  0  0  0  0  0  0
    5.0655   -9.4431    0.0000 C   0  0  0  0  0  0  0  0  0  0  0  0
    4.3527   -9.0315    0.0000 C   0  0  0  0  0  0  0  0  0  0  0  0
    3.6398   -9.4431    0.0000 C   0  0  0  0  0  0  0  0  0  0  0  0
  1  2  2  0  0  0  0
  2  3  1  0  0  0  0
  3  4  2  0  0  0  0
  4  5  1  0  0  0  0
  5  6  2  0  0  0  0
  6  1  1  0  0  0  0
  4  7  1  0  0  0  0
  7  8  1  0  0  0  0
  8  9  2  0  0  0  0
  9 10  1  0  0  0  0
 10  5  1  0  0  0  0
 10 11  2  0  0  0  0
  7 12  1  0  0  0  0
 13 14  1  0  0  0  0
 14 15  1  0  0  0  0
 15 16  1  0  0  0  0
 16 17  1  0  0  0  0
 17 18  1  0  0  0  0
 18 19  1  0  0  0  0
 19 20  1  0  0  0  0
 20 21  1  0  0  0  0
 21 22  1  0  0  0  0
 22 23  1  0  0  0  0
 23 24  1  0  0  0  0
 24 25  1  0  0  0  0
 25 26  1  0  0  0  0
 26 27  1  0  0  0  0
 27 28  1  0  0  0  0
 28  8  1  0  0  0  0
M  END
>  <cdx:fragmentId>
42

$$$$
