60304.cdx
  Mrv1902 05222410182D          

 20 21  0  0  0  0            999 V2000
    2.9131   -8.6862    0.0000 C   0  0  0  0  0  0  0  0  0  0  0  0
    2.9131   -9.5094    0.0000 C   0  0  0  0  0  0  0  0  0  0  0  0
    3.6259   -9.9209    0.0000 C   0  0  0  0  0  0  0  0  0  0  0  0
    4.3388   -9.5094    0.0000 C   0  0  0  0  0  0  0  0  0  0  0  0
    4.3388   -8.6862    0.0000 C   0  0  0  0  0  0  0  0  0  0  0  0
    3.6259   -8.2746    0.0000 C   0  0  0  0  0  0  0  0  0  0  0  0
    5.0517   -9.9209    0.0000 N   0  0  0  0  0  0  0  0  0  0  0  0
    5.7646   -9.5094    0.0000 C   0  0  0  0  0  0  0  0  0  0  0  0
    5.7646   -8.6862    0.0000 C   0  0  0  0  0  0  0  0  0  0  0  0
    5.0517   -8.2746    0.0000 C   0  0  0  0  0  0  0  0  0  0  0  0
    5.0517   -7.4514    0.0000 O   0  0  0  0  0  0  0  0  0  0  0  0
    5.0517  -10.7441    0.0000 C   0  0  0  0  0  0  0  0  0  0  0  0
   11.4625   -9.5265    0.0000 C   0  0  0  0  0  0  0  0  0  0  0  0
   10.7496   -9.9381    0.0000 C   0  0  0  0  0  0  0  0  0  0  0  0
   10.0367   -9.5265    0.0000 C   0  0  0  0  0  0  0  0  0  0  0  0
    9.3238   -9.9381    0.0000 C   0  0  0  0  0  0  0  0  0  0  0  0
    8.6109   -9.5265    0.0000 C   0  0  0  0  0  0  0  0  0  0  0  0
    7.8980   -9.9381    0.0000 C   0  0  0  0  0  0  0  0  0  0  0  0
    7.1852   -9.5265    0.0000 C   0  0  0  0  0  0  0  0  0  0  0  0
    6.4723   -9.9381    0.0000 C   0  0  0  0  0  0  0  0  0  0  0  0
  1  2  2  0  0  0  0
  2  3  1  0  0  0  0
  3  4  2  0  0  0  0
  4  5  1  0  0  0  0
  5  6  2  0  0  0  0
  6  1  1  0  0  0  0
  4  7  1  0  0  0  0
  7  8  1  0  0  0  0
  8  9  2  0  0  0  0
  9 10  1  0  0  0  0
 10  5  1  0  0  0  0
 10 11  2  0  0  0  0
  7 12  1  0  0  0  0
 13 14  1  0  0  0  0
 14 15  1  0  0  0  0
 15 16  1  0  0  0  0
 16 17  1  0  0  0  0
 17 18  1  0  0  0  0
 18 19  1  0  0  0  0
 19 20  1  0  0  0  0
 20  8  1  0  0  0  0
M  END
>  <cdx:fragmentId>
42

$$$$
