60319.cdx
  Mrv1902 05222410262D          

 15 15  0  0  0  0            999 V2000
    5.4013   -6.7914    0.0000 C   0  0  0  0  0  0  0  0  0  0  0  0
    5.4013   -7.6164    0.0000 C   0  0  0  0  0  0  0  0  0  0  0  0
    6.2263   -7.6164    0.0000 C   0  0  0  0  0  0  0  0  0  0  0  0
    6.2263   -6.7914    0.0000 C   0  0  0  0  0  0  0  0  0  0  0  0
    6.8096   -8.1998    0.0000 O   0  0  0  0  0  0  0  0  0  0  0  0
    6.2263   -5.9664    0.0000 C   0  0  0  0  0  0  0  0  0  0  0  0
    7.0513   -6.7914    0.0000 C   0  0  0  0  0  0  0  0  0  0  0  0
    7.8763   -6.7914    0.0000 C   0  0  0  0  0  0  0  0  0  0  0  0
    8.7013   -6.7914    0.0000 C   0  0  0  0  0  0  0  0  0  0  0  0
    9.1138   -7.5059    0.0000 C   0  0  0  0  0  0  0  0  0  0  0  0
    9.1138   -6.0769    0.0000 C   0  0  0  0  0  0  0  0  0  0  0  0
    8.7013   -5.3625    0.0000 C   0  0  0  0  0  0  0  0  0  0  0  0
    9.9388   -6.0769    0.0000 C   0  0  0  0  0  0  0  0  0  0  0  0
    8.7013   -8.2203    0.0000 C   0  0  0  0  0  0  0  0  0  0  0  0
    9.9388   -7.5059    0.0000 C   0  0  0  0  0  0  0  0  0  0  0  0
  1  2  1  0  0  0  0
  2  3  1  0  0  0  0
  3  4  1  0  0  0  0
  4  1  1  0  0  0  0
  3  5  2  0  0  0  0
  4  6  1  0  0  0  0
  4  7  1  0  0  0  0
  7  8  3  0  0  0  0
  8  9  1  0  0  0  0
  9 10  2  0  0  0  0
  9 11  1  0  0  0  0
 11 12  1  0  0  0  0
 11 13  1  0  0  0  0
 10 14  1  0  0  0  0
 10 15  1  0  0  0  0
M  END
>  <cdx:fragmentId>
5

$$$$
