60317.cdx
  Mrv1902 05222410202D          

 11 11  0  0  0  0            999 V2000
    5.3743   -7.6301    0.0000 C   0  0  0  0  0  0  0  0  0  0  0  0
    5.3743   -8.4551    0.0000 C   0  0  0  0  0  0  0  0  0  0  0  0
    6.0888   -8.8676    0.0000 C   0  0  0  0  0  0  0  0  0  0  0  0
    6.8032   -8.4551    0.0000 C   0  0  0  0  0  0  0  0  0  0  0  0
    6.8032   -7.6301    0.0000 C   0  0  0  0  0  0  0  0  0  0  0  0
    6.0888   -7.2176    0.0000 C   0  0  0  0  0  0  0  0  0  0  0  0
    4.6598   -7.2176    0.0000 O   0  0  0  0  0  0  0  0  0  0  0  0
    6.0888   -6.3926    0.0000 O   0  0  0  0  0  0  0  0  0  0  0  0
    7.5177   -8.8676    0.0000 C   0  0  0  0  0  0  0  0  0  0  0  0
    8.2322   -8.4551    0.0000 C   0  0  0  0  0  0  0  0  0  0  0  0
    8.9467   -8.8676    0.0000 O   0  0  0  0  0  0  0  0  0  0  0  0
  1  2  2  0  0  0  0
  2  3  1  0  0  0  0
  3  4  2  0  0  0  0
  4  5  1  0  0  0  0
  5  6  2  0  0  0  0
  6  1  1  0  0  0  0
  1  7  1  0  0  0  0
  6  8  1  0  0  0  0
  4  9  1  0  0  0  0
  9 10  1  0  0  0  0
 10 11  1  0  0  0  0
M  END
>  <cdx:fragmentId>
5

$$$$
