60316.cdx
  Mrv1902 05222410192D          

 23 25  0  0  0  0            999 V2000
    5.4293   -6.7501    0.0000 C   0  0  0  0  0  0  0  0  0  0  0  0
    5.4293   -7.5751    0.0000 C   0  0  0  0  0  0  0  0  0  0  0  0
    6.1438   -7.9876    0.0000 C   0  0  0  0  0  0  0  0  0  0  0  0
    6.8582   -7.5751    0.0000 C   0  0  0  0  0  0  0  0  0  0  0  0
    6.8582   -6.7501    0.0000 C   0  0  0  0  0  0  0  0  0  0  0  0
    6.1438   -6.3376    0.0000 C   0  0  0  0  0  0  0  0  0  0  0  0
    7.6429   -7.8301    0.0000 O   0  0  0  0  0  0  0  0  0  0  0  0
    8.1278   -7.1626    0.0000 C   0  0  0  0  0  0  0  0  0  0  0  0
    7.6429   -6.4952    0.0000 C   0  0  0  0  0  0  0  0  0  0  0  0
    8.1278   -8.4975    0.0000 C   0  0  0  0  0  0  0  0  0  0  0  0
    8.9124   -8.2426    0.0000 C   0  0  0  0  0  0  0  0  0  0  0  0
    8.9124   -7.4176    0.0000 C   0  0  0  0  0  0  0  0  0  0  0  0
    7.9563   -9.3045    0.0000 C   0  0  0  0  0  0  0  0  0  0  0  0
    8.5694   -9.8565    0.0000 C   0  0  0  0  0  0  0  0  0  0  0  0
    9.3540   -9.6016    0.0000 C   0  0  0  0  0  0  0  0  0  0  0  0
    9.5255   -8.7946    0.0000 C   0  0  0  0  0  0  0  0  0  0  0  0
    4.7148   -7.9876    0.0000 O   0  0  0  0  0  0  0  0  0  0  0  0
    6.1438   -5.5126    0.0000 O   0  0  0  0  0  0  0  0  0  0  0  0
    7.8978   -5.7106    0.0000 O   0  0  0  0  0  0  0  0  0  0  0  0
    8.8423   -6.7501    0.0000 O   0  0  0  0  0  0  0  0  0  0  0  0
    9.5799   -6.9327    0.0000 O   0  0  0  0  0  0  0  0  0  0  0  0
    7.1716   -9.5594    0.0000 O   0  0  0  0  0  0  0  0  0  0  0  0
    8.3978  -10.6635    0.0000 O   0  0  0  0  0  0  0  0  0  0  0  0
  1  2  2  0  0  0  0
  2  3  1  0  0  0  0
  3  4  2  0  0  0  0
  4  5  1  0  0  0  0
  5  6  2  0  0  0  0
  6  1  1  0  0  0  0
  4  7  1  0  0  0  0
  7  8  1  0  0  0  0
  8  9  1  0  0  0  0
  9  5  1  0  0  0  0
 10 11  2  0  0  0  0
 11 12  1  0  0  0  0
 12  8  1  0  0  0  0
 10 13  1  0  0  0  0
 13 14  2  0  0  0  0
 14 15  1  0  0  0  0
 15 16  2  0  0  0  0
 16 11  1  0  0  0  0
  2 17  1  0  0  0  0
  6 18  1  0  0  0  0
  9 19  2  0  0  0  0
  8 20  1  0  0  0  0
 12 21  2  0  0  0  0
 13 22  1  0  0  0  0
 14 23  1  0  0  0  0
M  END
>  <cdx:fragmentId>
5

$$$$
