60314.cdx
  Mrv1902 05222410202D          

 14 14  0  0  0  0            999 V2000
    6.8366   -7.6299    0.0000 C   0  0  0  0  0  0  0  0  0  0  0  0
    6.1187   -7.2234    0.0000 C   0  0  0  0  0  0  0  0  0  0  0  0
    5.4077   -7.6418    0.0000 C   0  0  0  0  0  0  0  0  0  0  0  0
    5.4146   -8.4668    0.0000 C   0  0  0  0  0  0  0  0  0  0  0  0
    6.1325   -8.8733    0.0000 C   0  0  0  0  0  0  0  0  0  0  0  0
    6.8435   -8.4548    0.0000 C   0  0  0  0  0  0  0  0  0  0  0  0
    7.5476   -7.2114    0.0000 O   0  0  0  0  0  0  0  0  0  0  0  0
    6.1394   -9.6983    0.0000 O   0  0  0  0  0  0  0  0  0  0  0  0
    4.6898   -7.2353    0.0000 O   0  0  0  0  0  0  0  0  0  0  0  0
    8.9903   -8.8494    0.0000 C   0  0  0  0  0  0  0  0  0  0  0  0
    8.2655   -7.6179    0.0000 C   0  0  0  0  0  0  0  0  0  0  0  0
    8.2724   -8.4429    0.0000 C   0  0  0  0  0  0  0  0  0  0  0  0
    7.5683   -9.6863    0.0000 O   0  0  0  0  0  0  0  0  0  0  0  0
    7.5614   -8.8614    0.0000 C   0  0  0  0  0  0  0  0  0  0  0  0
  1  2  2  0  0  0  0
  2  3  1  0  0  0  0
  3  4  2  0  0  0  0
  4  5  1  0  0  0  0
  5  6  2  0  0  0  0
  6  1  1  0  0  0  0
  1  7  1  0  0  0  0
  5  8  1  0  0  0  0
  3  9  1  0  0  0  0
  6 14  1  0  0  0  0
 12 10  1  0  0  0  0
 12 11  1  0  0  0  0
 14 12  1  0  0  0  0
 14 13  2  0  0  0  0
M  END
>  <cdx:fragmentId>
5

$$$$
