60312.cdx
  Mrv1902 05222410192D          

 29 31  0  0  0  0            999 V2000
    5.4568   -4.3026    0.0000 C   0  0  0  0  0  0  0  0  0  0  0  0
    5.4568   -5.1276    0.0000 C   0  0  0  0  0  0  0  0  0  0  0  0
    6.1713   -5.5401    0.0000 C   0  0  0  0  0  0  0  0  0  0  0  0
    6.8857   -5.1276    0.0000 C   0  0  2  0  0  0  0  0  0  0  0  0
    6.8857   -4.3026    0.0000 C   0  0  2  0  0  0  0  0  0  0  0  0
    6.1713   -3.8901    0.0000 C   0  0  2  0  0  0  0  0  0  0  0  0
    7.6002   -5.5401    0.0000 C   0  0  2  0  0  0  0  0  0  0  0  0
    8.3147   -5.1276    0.0000 C   0  0  1  0  0  0  0  0  0  0  0  0
    8.3147   -4.3026    0.0000 C   0  0  0  0  0  0  0  0  0  0  0  0
    7.6002   -3.8901    0.0000 C   0  0  0  0  0  0  0  0  0  0  0  0
    7.6002   -6.3651    0.0000 O   0  0  0  0  0  0  0  0  0  0  0  0
    7.1966   -7.0847    0.0000 C   0  0  2  0  0  0  0  0  0  0  0  0
    6.3717   -7.0950    0.0000 O   0  0  0  0  0  0  0  0  0  0  0  0
    7.6180   -7.7940    0.0000 C   0  0  1  0  0  0  0  0  0  0  0  0
    7.2144   -8.5135    0.0000 C   0  0  2  0  0  0  0  0  0  0  0  0
    6.3895   -8.5238    0.0000 C   0  0  1  0  0  0  0  0  0  0  0  0
    5.9681   -7.8145    0.0000 C   0  0  1  0  0  0  0  0  0  0  0  0
    5.9859   -9.2433    0.0000 O   0  0  0  0  0  0  0  0  0  0  0  0
    4.7396   -8.5443    0.0000 O   0  0  0  0  0  0  0  0  0  0  0  0
    5.1432   -7.8248    0.0000 C   0  0  0  0  0  0  0  0  0  0  0  0
    6.1713   -6.3651    0.0000 C   0  0  0  0  0  0  0  0  0  0  0  0
    6.1713   -3.0651    0.0000 O   0  0  0  0  0  0  0  0  0  0  0  0
    6.8857   -3.4776    0.0000 C   0  0  0  0  0  0  0  0  0  0  0  0
    6.8857   -5.9526    0.0000 H   0  0  0  0  0  0  0  0  0  0  0  0
    7.6358   -9.2228    0.0000 O   0  0  0  0  0  0  0  0  0  0  0  0
    8.4429   -7.7837    0.0000 O   0  0  0  0  0  0  0  0  0  0  0  0
    9.0292   -5.5401    0.0000 C   0  0  0  0  0  0  0  0  0  0  0  0
    9.7436   -5.1276    0.0000 C   0  0  0  0  0  0  0  0  0  0  0  0
    9.0292   -6.3651    0.0000 C   0  0  0  0  0  0  0  0  0  0  0  0
  1  2  1  0  0  0  0
  2  3  2  0  0  0  0
  3  4  1  0  0  0  0
  4  5  1  0  0  0  0
  5  6  1  0  0  0  0
  6  1  1  0  0  0  0
  4  7  1  0  0  0  0
  7  8  1  0  0  0  0
  8  9  1  0  0  0  0
  9 10  1  0  0  0  0
 10  5  1  0  0  0  0
  7 11  1  6  0  0  0
 12 11  1  1  0  0  0
 12 13  1  0  0  0  0
 12 14  1  0  0  0  0
 14 15  1  0  0  0  0
 15 16  1  0  0  0  0
 16 17  1  0  0  0  0
 17 13  1  0  0  0  0
 16 18  1  6  0  0  0
 19 20  1  0  0  0  0
 17 20  1  1  0  0  0
  3 21  1  0  0  0  0
  6 22  1  1  0  0  0
  5 23  1  1  0  0  0
  4 24  1  1  0  0  0
 15 25  1  1  0  0  0
 14 26  1  6  0  0  0
  8 27  1  1  0  0  0
 27 28  1  0  0  0  0
 27 29  1  0  0  0  0
M  END
>  <cdx:fragmentId>
5

$$$$
