60311.cdx
  Mrv1902 05222410182D          

 19 20  0  0  0  0            999 V2000
    4.3798   -5.6015    0.0000 C   0  0  0  0  0  0  0  0  0  0  0  0
    4.3882   -6.4264    0.0000 C   0  0  0  0  0  0  0  0  0  0  0  0
    5.1068   -6.8317    0.0000 C   0  0  1  0  0  0  0  0  0  0  0  0
    5.8170   -6.4119    0.0000 C   0  0  1  0  0  0  0  0  0  0  0  0
    5.8087   -5.5870    0.0000 C   0  0  2  0  0  0  0  0  0  0  0  0
    5.0900   -5.1817    0.0000 C   0  0  2  0  0  0  0  0  0  0  0  0
    6.5357   -6.8171    0.0000 C   0  0  0  0  0  0  0  0  0  0  0  0
    7.2459   -6.3974    0.0000 C   0  0  1  0  0  0  0  0  0  0  0  0
    7.2375   -5.5725    0.0000 C   0  0  0  0  0  0  0  0  0  0  0  0
    6.5189   -5.1672    0.0000 C   0  0  0  0  0  0  0  0  0  0  0  0
    7.9645   -6.8026    0.0000 C   0  0  0  0  0  0  0  0  0  0  0  0
    8.6748   -6.3829    0.0000 C   0  0  0  0  0  0  0  0  0  0  0  0
    7.9729   -7.6276    0.0000 C   0  0  0  0  0  0  0  0  0  0  0  0
    5.0817   -4.3568    0.0000 O   0  0  0  0  0  0  0  0  0  0  0  0
    5.8003   -4.7620    0.0000 C   0  0  0  0  0  0  0  0  0  0  0  0
    4.7016   -7.5503    0.0000 O   0  0  0  0  0  0  0  0  0  0  0  0
    5.8254   -7.2369    0.0000 H   0  0  0  0  0  0  0  0  0  0  0  0
    7.2543   -7.2224    0.0000 O   0  0  0  0  0  0  0  0  0  0  0  0
    5.5265   -7.5419    0.0000 C   0  0  0  0  0  0  0  0  0  0  0  0
  1  2  1  0  0  0  0
  2  3  1  0  0  0  0
  3  4  1  0  0  0  0
  4  5  1  0  0  0  0
  5  6  1  0  0  0  0
  6  1  1  0  0  0  0
  4  7  1  0  0  0  0
  7  8  1  0  0  0  0
  8  9  1  0  0  0  0
  9 10  1  0  0  0  0
 10  5  1  0  0  0  0
  8 11  1  0  0  0  0
 11 12  1  0  0  0  0
 11 13  1  0  0  0  0
  6 14  1  1  0  0  0
  5 15  1  1  0  0  0
  3 16  1  1  0  0  0
  4 17  1  6  0  0  0
  8 18  1  6  0  0  0
  3 19  1  0  0  0  0
M  END
>  <cdx:fragmentId>
5

$$$$
