60327.cdx
  Mrv1902 05222410272D          

 22 23  0  0  0  0            999 V2000
    9.7733   -9.1887    0.0000 C   0  0  0  0  0  0  0  0  0  0  0  0
    9.5184   -9.9733    0.0000 C   0  0  0  0  0  0  0  0  0  0  0  0
    8.6934   -9.9733    0.0000 C   0  0  0  0  0  0  0  0  0  0  0  0
    8.4385   -9.1887    0.0000 C   0  0  0  0  0  0  0  0  0  0  0  0
    9.1059   -8.7038    0.0000 S   0  0  0  0  0  0  0  0  0  0  0  0
   10.5580   -8.9338    0.0000 C   0  0  0  0  0  0  0  0  0  0  0  0
   10.8129   -8.1492    0.0000 C   0  0  0  0  0  0  0  0  0  0  0  0
   11.6379   -8.1492    0.0000 C   0  0  0  0  0  0  0  0  0  0  0  0
   11.8928   -8.9338    0.0000 C   0  0  0  0  0  0  0  0  0  0  0  0
   11.2254   -9.4187    0.0000 S   0  0  0  0  0  0  0  0  0  0  0  0
    7.7456   -8.7889    0.0000 C   0  0  0  0  0  0  0  0  0  0  0  0
    7.0304   -8.3777    0.0000 C   0  0  0  0  0  0  0  0  0  0  0  0
    6.3152   -7.9665    0.0000 C   0  0  0  0  0  0  0  0  0  0  0  0
    5.6014   -8.3802    0.0000 C   0  0  0  0  0  0  0  0  0  0  0  0
    6.3137   -7.1415    0.0000 O   0  0  0  0  0  0  0  0  0  0  0  0
    4.8862   -7.9690    0.0000 C   0  0  0  0  0  0  0  0  0  0  0  0
    4.1725   -8.3828    0.0000 O   0  0  0  0  0  0  0  0  0  0  0  0
    4.8848   -7.1440    0.0000 O   0  0  0  0  0  0  0  0  0  0  0  0
    3.4573   -7.9715    0.0000 C   0  0  0  0  0  0  0  0  0  0  0  0
    2.7435   -8.3853    0.0000 C   0  0  0  0  0  0  0  0  0  0  0  0
    2.0283   -7.9741    0.0000 C   0  0  0  0  0  0  0  0  0  0  0  0
    2.7450   -9.2103    0.0000 C   0  0  0  0  0  0  0  0  0  0  0  0
  1  2  2  0  0  0  0
  2  3  1  0  0  0  0
  3  4  2  0  0  0  0
  4  5  1  0  0  0  0
  1  5  1  0  0  0  0
  6  7  2  0  0  0  0
  7  8  1  0  0  0  0
  8  9  2  0  0  0  0
  9 10  1  0  0  0  0
  6 10  1  0  0  0  0
  1  6  1  0  0  0  0
 11 12  3  0  0  0  0
 12 13  1  0  0  0  0
 13 14  1  0  0  0  0
 11  4  1  0  0  0  0
 13 15  1  0  0  0  0
 14 16  1  0  0  0  0
 16 17  1  0  0  0  0
 16 18  2  0  0  0  0
 17 19  1  0  0  0  0
 19 20  1  0  0  0  0
 20 21  1  0  0  0  0
 20 22  1  0  0  0  0
M  END
>  <cdx:fragmentId>
15

$$$$
