60321.cdx
  Mrv1902 05222410282D          

 36 38  0  0  0  0            999 V2000
    4.9924   -7.9346    0.0000 C   0  0  0  0  0  0  0  0  0  0  0  0
    5.7079   -8.3491    0.0000 C   0  0  0  0  0  0  0  0  0  0  0  0
    4.9924   -7.1096    0.0000 C   0  0  0  0  0  0  0  0  0  0  0  0
    4.2748   -8.3498    0.0000 C   0  0  0  0  0  0  0  0  0  0  0  0
    5.7079   -9.1737    0.0000 C   0  0  0  0  0  0  0  0  0  0  0  0
    6.4223   -7.9366    0.0000 C   0  0  0  0  0  0  0  0  0  0  0  0
    4.2778   -6.6970    0.0000 C   0  0  0  0  0  0  0  0  0  0  0  0
    4.2758   -9.1747    0.0000 C   0  0  0  0  0  0  0  0  0  0  0  0
    3.5615   -7.9381    0.0000 O   0  0  0  0  0  0  0  0  0  0  0  0
    4.9933   -9.5859    0.0000 C   0  0  0  0  0  0  0  0  0  0  0  0
    7.1369   -8.3491    0.0000 C   0  0  0  0  0  0  0  0  0  0  0  0
    4.2778   -5.8721    0.0000 C   0  0  0  0  0  0  0  0  0  0  0  0
    3.5626   -9.5883    0.0000 O   0  0  0  0  0  0  0  0  0  0  0  0
    7.8513   -7.9366    0.0000 C   0  0  0  0  0  0  0  0  0  0  0  0
    3.5632   -5.4596    0.0000 C   0  0  0  0  0  0  0  0  0  0  0  0
    4.9922   -5.4596    0.0000 C   0  0  0  0  0  0  0  0  0  0  0  0
    8.5678   -8.3511    0.0000 O   0  0  0  0  0  0  0  0  0  0  0  0
    7.8525   -7.1139    0.0000 O   0  0  0  0  0  0  0  0  0  0  0  0
    3.5632   -4.6346    0.0000 C   0  0  0  0  0  0  0  0  0  0  0  0
    4.9922   -4.6346    0.0000 C   0  0  0  0  0  0  0  0  0  0  0  0
    8.5657   -9.1741    0.0000 C   0  0  2  0  0  0  0  0  0  0  0  0
    4.2778   -4.2221    0.0000 C   0  0  0  0  0  0  0  0  0  0  0  0
    2.8488   -4.2221    0.0000 O   0  0  0  0  0  0  0  0  0  0  0  0
    9.2803   -9.5866    0.0000 C   0  0  0  0  0  0  0  0  0  0  0  0
    7.8513   -9.5866    0.0000 C   0  0  0  0  0  0  0  0  0  0  0  0
    4.2778   -3.3971    0.0000 O   0  0  0  0  0  0  0  0  0  0  0  0
    9.9947   -9.1741    0.0000 C   0  0  0  0  0  0  0  0  0  0  0  0
    7.1369   -9.1760    0.0000 O   0  0  0  0  0  0  0  0  0  0  0  0
    7.8530  -10.4135    0.0000 O   0  0  0  0  0  0  0  0  0  0  0  0
   10.7092   -9.5866    0.0000 C   0  0  0  0  0  0  0  0  0  0  0  0
    9.9947   -8.3491    0.0000 C   0  0  0  0  0  0  0  0  0  0  0  0
   11.4237   -9.1741    0.0000 C   0  0  0  0  0  0  0  0  0  0  0  0
   10.7092   -7.9366    0.0000 C   0  0  0  0  0  0  0  0  0  0  0  0
   11.4237   -8.3491    0.0000 C   0  0  0  0  0  0  0  0  0  0  0  0
   12.1387   -9.5873    0.0000 O   0  0  0  0  0  0  0  0  0  0  0  0
   12.1387   -7.9372    0.0000 O   0  0  0  0  0  0  0  0  0  0  0  0
  1  2  1  0  0  0  0
  1  3  1  0  0  0  0
  1  4  2  0  0  0  0
  2  5  2  0  0  0  0
  2  6  1  0  0  0  0
  3  7  2  0  0  0  0
  4  8  1  0  0  0  0
  4  9  1  0  0  0  0
  5 10  1  0  0  0  0
  6 11  2  0  0  0  0
  7 12  1  0  0  0  0
  8 13  1  0  0  0  0
 11 14  1  0  0  0  0
 12 15  2  0  0  0  0
 12 16  1  0  0  0  0
 14 17  1  0  0  0  0
 14 18  2  0  0  0  0
 15 19  1  0  0  0  0
 16 20  2  0  0  0  0
 21 17  1  6  0  0  0
 19 22  2  0  0  0  0
 19 23  1  0  0  0  0
 21 24  1  0  0  0  0
 21 25  1  0  0  0  0
 22 26  1  0  0  0  0
 24 27  1  0  0  0  0
 25 28  1  0  0  0  0
 25 29  2  0  0  0  0
 27 30  1  0  0  0  0
 27 31  2  0  0  0  0
 30 32  2  0  0  0  0
 31 33  1  0  0  0  0
 32 34  1  0  0  0  0
 32 35  1  0  0  0  0
 34 36  1  0  0  0  0
  8 10  2  0  0  0  0
 20 22  1  0  0  0  0
 33 34  2  0  0  0  0
M  END
>  <cdx:fragmentId>
21167

$$$$
