60329.cdx
  Mrv1902 05222410202D          

 21 22  0  0  0  0            999 V2000
    9.6187   -8.1804    0.0000 C   0  0  0  0  0  0  0  0  0  0  0  0
    9.3637   -8.9650    0.0000 C   0  0  0  0  0  0  0  0  0  0  0  0
    8.5387   -8.9650    0.0000 C   0  0  0  0  0  0  0  0  0  0  0  0
    8.2838   -8.1804    0.0000 C   0  0  0  0  0  0  0  0  0  0  0  0
    8.9512   -7.6955    0.0000 S   0  0  0  0  0  0  0  0  0  0  0  0
   10.4033   -7.9255    0.0000 C   0  0  0  0  0  0  0  0  0  0  0  0
   10.6582   -7.1408    0.0000 C   0  0  0  0  0  0  0  0  0  0  0  0
   11.4832   -7.1408    0.0000 C   0  0  0  0  0  0  0  0  0  0  0  0
   11.7382   -7.9255    0.0000 C   0  0  0  0  0  0  0  0  0  0  0  0
   11.0707   -8.4104    0.0000 S   0  0  0  0  0  0  0  0  0  0  0  0
    7.5909   -7.7806    0.0000 C   0  0  0  0  0  0  0  0  0  0  0  0
    6.8757   -7.3694    0.0000 C   0  0  0  0  0  0  0  0  0  0  0  0
    6.1605   -6.9581    0.0000 C   0  0  0  0  0  0  0  0  0  0  0  0
    5.4467   -7.3719    0.0000 C   0  0  0  0  0  0  0  0  0  0  0  0
    4.7315   -6.9607    0.0000 O   0  0  0  0  0  0  0  0  0  0  0  0
    4.0178   -7.3744    0.0000 C   0  0  0  0  0  0  0  0  0  0  0  0
    3.3026   -6.9632    0.0000 C   0  0  0  0  0  0  0  0  0  0  0  0
    4.0193   -8.1994    0.0000 O   0  0  0  0  0  0  0  0  0  0  0  0
    2.5889   -7.3770    0.0000 C   0  0  0  0  0  0  0  0  0  0  0  0
    3.3011   -6.1382    0.0000 C   0  0  0  0  0  0  0  0  0  0  0  0
    1.8737   -6.9658    0.0000 C   0  0  0  0  0  0  0  0  0  0  0  0
  1  2  2  0  0  0  0
  2  3  1  0  0  0  0
  3  4  2  0  0  0  0
  4  5  1  0  0  0  0
  1  5  1  0  0  0  0
  6  7  2  0  0  0  0
  7  8  1  0  0  0  0
  8  9  2  0  0  0  0
  9 10  1  0  0  0  0
  6 10  1  0  0  0  0
  1  6  1  0  0  0  0
 11 12  3  0  0  0  0
 12 13  1  0  0  0  0
 11  4  1  0  0  0  0
 13 14  1  0  0  0  0
 14 15  1  0  0  0  0
 15 16  1  0  0  0  0
 16 17  1  0  0  0  0
 16 18  2  0  0  0  0
 17 19  1  0  0  0  0
 17 20  1  0  0  0  0
 19 21  1  0  0  0  0
M  END
>  <cdx:fragmentId>
317

$$$$
