60322.cdx
  Mrv1902 05222410272D          

 11 12  0  0  0  0            999 V2000
    4.8931   -8.7026    0.0000 C   0  0  0  0  0  0  0  0  0  0  0  0
    4.8931   -9.5276    0.0000 C   0  0  0  0  0  0  0  0  0  0  0  0
    5.6075   -9.9401    0.0000 C   0  0  0  0  0  0  0  0  0  0  0  0
    6.3220   -9.5276    0.0000 C   0  0  0  0  0  0  0  0  0  0  0  0
    6.3220   -8.7026    0.0000 C   0  0  0  0  0  0  0  0  0  0  0  0
    5.6075   -8.2901    0.0000 C   0  0  0  0  0  0  0  0  0  0  0  0
    7.1066   -9.7826    0.0000 N   0  0  0  0  0  0  0  0  0  0  0  0
    7.5915   -9.1151    0.0000 C   0  0  0  0  0  0  0  0  0  0  0  0
    7.1066   -8.4477    0.0000 S   0  0  0  0  0  0  0  0  0  0  0  0
    8.4165   -9.1151    0.0000 S   0  0  0  0  0  0  0  0  0  0  0  0
    8.8290   -9.8296    0.0000 C   0  0  0  0  0  0  0  0  0  0  0  0
  1  2  2  0  0  0  0
  2  3  1  0  0  0  0
  3  4  2  0  0  0  0
  4  5  1  0  0  0  0
  5  6  2  0  0  0  0
  6  1  1  0  0  0  0
  4  7  1  0  0  0  0
  7  8  2  0  0  0  0
  8  9  1  0  0  0  0
  9  5  1  0  0  0  0
  8 10  1  0  0  0  0
 10 11  1  0  0  0  0
M  END
>  <cdx:fragmentId>
5

$$$$
