101603249.cdx
  Mrv1902 05222410182D          

 19 22  0  0  0  0            999 V2000
    6.2666   -8.6906    0.0000 C   0  0  0  0  0  0  0  0  0  0  0  0
    6.9810   -9.1031    0.0000 C   0  0  0  0  0  0  0  0  0  0  0  0
    7.6955   -8.6906    0.0000 C   0  0  0  0  0  0  0  0  0  0  0  0
    8.4801   -8.9456    0.0000 C   0  0  0  0  0  0  0  0  0  0  0  0
    8.9650   -8.2781    0.0000 C   0  0  0  0  0  0  0  0  0  0  0  0
    8.4801   -7.6107    0.0000 O   0  0  0  0  0  0  0  0  0  0  0  0
    7.6955   -7.8656    0.0000 C   0  0  0  0  0  0  0  0  0  0  0  0
    6.9810   -7.4531    0.0000 C   0  0  0  0  0  0  0  0  0  0  0  0
    6.2666   -7.8656    0.0000 C   0  0  0  0  0  0  0  0  0  0  0  0
    5.4819   -7.6107    0.0000 C   0  0  0  0  0  0  0  0  0  0  0  0
    4.6615   -7.5244    0.0000 C   0  0  0  0  0  0  0  0  0  0  0  0
    4.9970   -8.2781    0.0000 C   0  0  0  0  0  0  0  0  0  0  0  0
    5.4819   -8.9456    0.0000 C   0  0  0  0  0  0  0  0  0  0  0  0
    9.7900   -8.2781    0.0000 O   0  0  0  0  0  0  0  0  0  0  0  0
    5.2270   -9.7302    0.0000 C   0  0  0  0  0  0  0  0  0  0  0  0
    6.1803   -7.0451    0.0000 C   0  0  0  0  0  0  0  0  0  0  0  0
    8.7351   -9.7302    0.0000 C   0  0  0  0  0  0  0  0  0  0  0  0
    6.9810   -6.6281    0.0000 O   0  0  0  0  0  0  0  0  0  0  0  0
    7.7817   -7.0451    0.0000 O   0  0  0  0  0  0  0  0  0  0  0  0
  1  2  1  0  0  0  0
  2  3  1  0  0  0  0
  3  4  2  0  0  0  0
  4  5  1  0  0  0  0
  5  6  1  0  0  0  0
  6  7  1  0  0  0  0
  7  8  1  0  0  0  0
  8  9  1  0  0  0  0
  9 10  1  0  0  0  0
 10 11  1  0  0  0  0
 11 12  1  0  0  0  0
 12 13  1  0  0  0  0
  1 13  1  0  0  0  0
  1  9  1  0  0  0  0
 10 12  1  0  0  0  0
  3  7  1  0  0  0  0
  5 14  2  0  0  0  0
 13 15  2  0  0  0  0
  9 16  1  0  0  0  0
  4 17  1  0  0  0  0
  8 18  1  0  0  0  0
  7 19  1  0  0  0  0
M  END
>  <cdx:groupId>
252145

>  <cdx:fragmentId>
252088

$$$$
