60331.cdx
  Mrv1902 05222410262D          

 13 14  0  0  0  0            999 V2000
    6.5787   -8.4623    0.0000 C   0  0  0  0  0  0  0  0  0  0  0  0
    5.8642   -8.0498    0.0000 C   0  0  0  0  0  0  0  0  0  0  0  0
    6.5787   -9.2873    0.0000 C   0  0  1  0  0  0  0  0  0  0  0  0
    7.2932   -9.6998    0.0000 C   0  0  0  0  0  0  0  0  0  0  0  0
    8.0076   -9.2873    0.0000 C   0  0  1  0  0  0  0  0  0  0  0  0
    7.4759   -8.7695    0.0000 C   0  0  0  0  0  0  0  0  0  0  0  0
    8.0076   -8.4623    0.0000 C   0  0  0  0  0  0  0  0  0  0  0  0
    8.4201   -7.7479    0.0000 C   0  0  0  0  0  0  0  0  0  0  0  0
    8.8326   -8.4623    0.0000 C   0  0  0  0  0  0  0  0  0  0  0  0
    7.2932   -8.0498    0.0000 C   0  0  2  0  0  0  0  0  0  0  0  0
    5.8642   -9.6998    0.0000 O   0  0  0  0  0  0  0  0  0  0  0  0
    7.2932   -7.2248    0.0000 H   0  0  0  0  0  0  0  0  0  0  0  0
    8.7221   -9.6998    0.0000 H   0  0  0  0  0  0  0  0  0  0  0  0
  1  2  2  0  0  0  0
  1  3  1  0  0  0  0
  3  4  1  0  0  0  0
  4  5  1  0  0  0  0
  5  6  1  1  0  0  0
  5  7  1  0  0  0  0
  7  8  1  0  0  0  0
  7  9  1  0  0  0  0
  7 10  1  0  0  0  0
 10  6  1  1  0  0  0
  1 10  1  0  0  0  0
  3 11  1  1  0  0  0
 10 12  1  6  0  0  0
  5 13  1  6  0  0  0
M  END
>  <cdx:fragmentId>
5

$$$$
