60333.cdx
  Mrv1902 05222410272D          

 23 25  0  0  0  0            999 V2000
    4.4806   -8.1389    0.0000 C   0  0  0  0  0  0  0  0  0  0  0  0
    4.4806   -8.9639    0.0000 C   0  0  0  0  0  0  0  0  0  0  0  0
    5.1950   -9.3764    0.0000 C   0  0  0  0  0  0  0  0  0  0  0  0
    5.9095   -8.9639    0.0000 C   0  0  0  0  0  0  0  0  0  0  0  0
    5.9095   -8.1389    0.0000 C   0  0  0  0  0  0  0  0  0  0  0  0
    5.1950   -7.7264    0.0000 C   0  0  0  0  0  0  0  0  0  0  0  0
    6.6240   -9.3764    0.0000 C   0  0  0  0  0  0  0  0  0  0  0  0
    7.3384   -8.9639    0.0000 C   0  0  1  0  0  0  0  0  0  0  0  0
    7.3384   -8.1389    0.0000 C   0  0  2  0  0  0  0  0  0  0  0  0
    6.6240   -7.7264    0.0000 O   0  0  0  0  0  0  0  0  0  0  0  0
    8.7674   -8.1389    0.0000 C   0  0  0  0  0  0  0  0  0  0  0  0
    8.0529   -7.7264    0.0000 C   0  0  0  0  0  0  0  0  0  0  0  0
    9.4819   -7.7264    0.0000 C   0  0  0  0  0  0  0  0  0  0  0  0
    9.4819   -6.9014    0.0000 C   0  0  0  0  0  0  0  0  0  0  0  0
    8.7674   -6.4889    0.0000 C   0  0  0  0  0  0  0  0  0  0  0  0
    8.0529   -6.9014    0.0000 C   0  0  0  0  0  0  0  0  0  0  0  0
    5.1950  -10.2014    0.0000 O   0  0  0  0  0  0  0  0  0  0  0  0
    3.7661   -7.7264    0.0000 O   0  0  0  0  0  0  0  0  0  0  0  0
    3.0516   -8.1389    0.0000 C   0  0  0  0  0  0  0  0  0  0  0  0
    6.6240  -10.2014    0.0000 O   0  0  0  0  0  0  0  0  0  0  0  0
   10.1963   -6.4889    0.0000 O   0  0  0  0  0  0  0  0  0  0  0  0
   10.9108   -6.9014    0.0000 C   0  0  0  0  0  0  0  0  0  0  0  0
    8.0529   -9.3764    0.0000 O   0  0  0  0  0  0  0  0  0  0  0  0
  1  2  2  0  0  0  0
  2  3  1  0  0  0  0
  3  4  2  0  0  0  0
  4  5  1  0  0  0  0
  5  6  2  0  0  0  0
  6  1  1  0  0  0  0
  4  7  1  0  0  0  0
  7  8  1  0  0  0  0
  8  9  1  0  0  0  0
  9 10  1  0  0  0  0
 10  5  1  0  0  0  0
 11 12  1  0  0  0  0
  9 12  1  6  0  0  0
 11 13  2  0  0  0  0
 13 14  1  0  0  0  0
 14 15  2  0  0  0  0
 15 16  1  0  0  0  0
 16 12  2  0  0  0  0
  3 17  1  0  0  0  0
  1 18  1  0  0  0  0
 18 19  1  0  0  0  0
  7 20  2  0  0  0  0
 14 21  1  0  0  0  0
 21 22  1  0  0  0  0
  8 23  1  1  0  0  0
M  END
>  <cdx:fragmentId>
5

$$$$
