60332.cdx
  Mrv1902 05222410262D          

  8  7  0  0  0  0            999 V2000
    4.4600   -4.4123    0.0000 O   0  0  0  0  0  0  0  0  0  0  0  0
    5.1745   -3.9998    0.0000 C   0  0  0  0  0  0  0  0  0  0  0  0
    5.8890   -4.4123    0.0000 C   0  0  0  0  0  0  0  0  0  0  0  0
    6.6034   -3.9998    0.0000 C   0  0  0  0  0  0  0  0  0  0  0  0
    7.3179   -4.4123    0.0000 C   0  0  0  0  0  0  0  0  0  0  0  0
    8.0324   -3.9998    0.0000 C   0  0  0  0  0  0  0  0  0  0  0  0
    8.7469   -4.4123    0.0000 C   0  0  0  0  0  0  0  0  0  0  0  0
    9.4613   -3.9998    0.0000 C   0  0  0  0  0  0  0  0  0  0  0  0
  1  2  2  0  0  0  0
  2  3  1  0  0  0  0
  3  4  2  0  0  0  0
  4  5  1  0  0  0  0
  5  6  2  0  0  0  0
  6  7  1  0  0  0  0
  7  8  1  0  0  0  0
M  END
>  <cdx:fragmentId>
3

$$$$
