60338.cdx
  Mrv1902 05222410182D          

 10  9  0  0  0  0            999 V2000
    7.2991   -7.6293    0.0000 C   0  0  0  0  0  0  0  0  0  0  0  0
    8.0187   -7.2258    0.0000 O   0  0  0  0  0  0  0  0  0  0  0  0
    5.8702   -7.6114    0.0000 C   0  0  0  0  0  0  0  0  0  0  0  0
    6.6002   -6.3829    0.0000 C   0  0  0  0  0  0  0  0  0  0  0  0
    5.1714   -6.3650    0.0000 O   0  0  0  0  0  0  0  0  0  0  0  0
    5.8598   -8.4363    0.0000 C   0  0  0  0  0  0  0  0  0  0  0  0
    5.1610   -7.1899    0.0000 C   0  0  0  0  0  0  0  0  0  0  0  0
    7.2887   -8.4543    0.0000 O   0  0  0  0  0  0  0  0  0  0  0  0
    6.5898   -7.2079    0.0000 C   0  0  0  0  0  0  0  0  0  0  0  0
    4.4414   -7.5934    0.0000 O   0  0  0  0  0  0  0  0  0  0  0  0
  7  5  2  0  0  0  0
  9  4  1  0  0  0  0
 10  7  1  0  0  0  0
  7  3  1  0  0  0  0
  1  2  1  0  0  0  0
  9  1  1  0  0  0  0
  3  9  1  0  0  0  0
  3  6  1  0  0  0  0
  1  8  2  0  0  0  0
M  END
>  <cdx:fragmentId>
20

$$$$
