60334.cdx
  Mrv1902 05222410282D          

  9  8  0  0  0  0            999 V2000
    8.6900   -9.2125    0.0000 C   0  0  0  0  0  0  0  0  0  0  0  0
    9.4045   -8.8000    0.0000 C   0  0  0  0  0  0  0  0  0  0  0  0
   10.1189   -9.2125    0.0000 C   0  0  0  0  0  0  0  0  0  0  0  0
    7.9755   -8.8000    0.0000 C   0  0  0  0  0  0  0  0  0  0  0  0
    7.9755   -7.9750    0.0000 C   0  0  0  0  0  0  0  0  0  0  0  0
    7.2611   -7.5625    0.0000 C   0  0  0  0  0  0  0  0  0  0  0  0
    6.5466   -7.9750    0.0000 C   0  0  0  0  0  0  0  0  0  0  0  0
    5.8321   -7.5625    0.0000 C   0  0  0  0  0  0  0  0  0  0  0  0
    6.5466   -8.8000    0.0000 O   0  0  0  0  0  0  0  0  0  0  0  0
  1  2  1  0  0  0  0
  2  3  1  0  0  0  0
  1  4  2  0  0  0  0
  4  5  1  0  0  0  0
  5  6  2  0  0  0  0
  6  7  1  0  0  0  0
  7  8  1  0  0  0  0
  7  9  2  0  0  0  0
M  END
>  <cdx:fragmentId>
32

$$$$
