60330.cdx
  Mrv1902 05222410262D          

 28 32  0  0  0  0            999 V2000
    2.8501   -8.4368    0.0000 C   0  0  0  0  0  0  0  0  0  0  0  0
    2.2685   -9.0219    0.0000 C   0  0  0  0  0  0  0  0  0  0  0  0
    1.5323   -8.6496    0.0000 C   0  0  0  0  0  0  0  0  0  0  0  0
    1.6589   -7.8344    0.0000 C   0  0  0  0  0  0  0  0  0  0  0  0
    2.4733   -7.7029    0.0000 S   0  0  0  0  0  0  0  0  0  0  0  0
   11.5560   -7.6752    0.0000 S   0  0  0  0  0  0  0  0  0  0  0  0
   12.3713   -7.8018    0.0000 C   0  0  0  0  0  0  0  0  0  0  0  0
   12.5028   -8.6163    0.0000 C   0  0  0  0  0  0  0  0  0  0  0  0
   11.7689   -8.9930    0.0000 C   0  0  0  0  0  0  0  0  0  0  0  0
   11.1837   -8.4114    0.0000 C   0  0  0  0  0  0  0  0  0  0  0  0
    4.0421   -9.2973    0.0000 S   0  0  0  0  0  0  0  0  0  0  0  0
    3.6654   -8.5634    0.0000 C   0  0  0  0  0  0  0  0  0  0  0  0
    4.2469   -7.9782    0.0000 C   0  0  0  0  0  0  0  0  0  0  0  0
    4.9832   -8.3505    0.0000 C   0  0  0  0  0  0  0  0  0  0  0  0
    4.8566   -9.1658    0.0000 C   0  0  0  0  0  0  0  0  0  0  0  0
    5.4417   -9.7474    0.0000 C   0  0  0  0  0  0  0  0  0  0  0  0
    6.0268  -10.3289    0.0000 C   0  0  0  0  0  0  0  0  0  0  0  0
    7.4395  -11.7330    0.0000 C   0  0  0  0  0  0  0  0  0  0  0  0
    6.6145  -11.7355    0.0000 C   0  0  0  0  0  0  0  0  0  0  0  0
    6.6120  -10.9105    0.0000 C   0  0  2  0  0  0  0  0  0  0  0  0
    7.4370  -10.9080    0.0000 C   0  0  1  0  0  0  0  0  0  0  0  0
    8.0186  -10.3229    0.0000 C   0  0  0  0  0  0  0  0  0  0  0  0
    8.6001   -9.7378    0.0000 C   0  0  0  0  0  0  0  0  0  0  0  0
    9.9970   -9.2792    0.0000 S   0  0  0  0  0  0  0  0  0  0  0  0
    9.1817   -9.1526    0.0000 C   0  0  0  0  0  0  0  0  0  0  0  0
    9.0502   -8.3382    0.0000 C   0  0  0  0  0  0  0  0  0  0  0  0
    9.7841   -7.9614    0.0000 C   0  0  0  0  0  0  0  0  0  0  0  0
   10.3693   -8.5430    0.0000 C   0  0  0  0  0  0  0  0  0  0  0  0
 28 10  1  0  0  0  0
 10  6  1  0  0  0  0
  7  6  1  0  0  0  0
  8  7  2  0  0  0  0
  9  8  1  0  0  0  0
 10  9  2  0  0  0  0
 25 23  1  0  0  0  0
 21 22  1  1  0  0  0
 20 17  1  1  0  0  0
 16 15  1  0  0  0  0
 12  1  1  0  0  0  0
 15 11  1  0  0  0  0
 12 11  1  0  0  0  0
 13 12  2  0  0  0  0
 14 13  1  0  0  0  0
 15 14  2  0  0  0  0
 17 16  3  0  0  0  0
 21 18  1  0  0  0  0
 19 18  1  0  0  0  0
 20 19  1  0  0  0  0
 21 20  1  0  0  0  0
 23 22  3  0  0  0  0
 28 24  1  0  0  0  0
 25 24  1  0  0  0  0
 26 25  2  0  0  0  0
 27 26  1  0  0  0  0
 28 27  2  0  0  0  0
  1  2  2  0  0  0  0
  2  3  1  0  0  0  0
  3  4  2  0  0  0  0
  4  5  1  0  0  0  0
  1  5  1  0  0  0  0
M  END
>  <cdx:fragmentId>
41

$$$$
