60339.cdx
  Mrv1902 05222410182D          

 14 14  0  0  0  0            999 V2000
    5.7224   -5.8729    0.0000 C   0  0  0  0  0  0  0  0  0  0  0  0
    5.7224   -6.6979    0.0000 C   0  0  0  0  0  0  0  0  0  0  0  0
    6.4369   -7.1104    0.0000 C   0  0  0  0  0  0  0  0  0  0  0  0
    7.1514   -6.6979    0.0000 C   0  0  0  0  0  0  0  0  0  0  0  0
    7.1514   -5.8729    0.0000 C   0  0  0  0  0  0  0  0  0  0  0  0
    6.4369   -5.4604    0.0000 C   0  0  0  0  0  0  0  0  0  0  0  0
    6.0244   -4.7459    0.0000 C   0  0  0  0  0  0  0  0  0  0  0  0
    6.8494   -4.7459    0.0000 O   0  0  0  0  0  0  0  0  0  0  0  0
    7.6744   -4.7459    0.0000 C   0  0  0  0  0  0  0  0  0  0  0  0
    8.0869   -5.4604    0.0000 C   0  0  0  0  0  0  0  0  0  0  0  0
    8.0869   -4.0315    0.0000 C   0  0  0  0  0  0  0  0  0  0  0  0
    6.4369   -7.9354    0.0000 C   0  0  0  0  0  0  0  0  0  0  0  0
    5.7224   -8.3479    0.0000 C   0  0  0  0  0  0  0  0  0  0  0  0
    7.1514   -8.3479    0.0000 C   0  0  0  0  0  0  0  0  0  0  0  0
  1  2  1  0  0  0  0
  2  3  1  0  0  0  0
  3  4  1  0  0  0  0
  4  5  1  0  0  0  0
  5  6  1  0  0  0  0
  6  1  1  0  0  0  0
  6  7  1  0  0  0  0
  6  8  1  0  0  0  0
  8  9  1  0  0  0  0
  9 10  1  0  0  0  0
  9 11  2  0  0  0  0
  3 12  1  0  0  0  0
 12 13  2  0  0  0  0
 12 14  1  0  0  0  0
M  END
>  <cdx:fragmentId>
40

$$$$
