603474.cdx
  Mrv1902 05222410202D          

 31 33  0  0  0  0            999 V2000
    8.8796   -7.3364    0.0000 O   0  0  0  0  0  0  0  0  0  0  0  0
    7.4506   -9.8114    0.0000 O   0  0  0  0  0  0  0  0  0  0  0  0
   11.7374   -9.8114    0.0000 C   0  0  0  0  0  0  0  0  0  0  0  0
    5.3072   -8.5739    0.0000 C   0  0  0  0  0  0  0  0  0  0  0  0
    3.8783   -6.0989    0.0000 O   0  0  0  0  0  0  0  0  0  0  0  0
    3.8783   -4.4489    0.0000 O   0  0  0  0  0  0  0  0  0  0  0  0
    5.3072   -3.6239    0.0000 O   0  0  0  0  0  0  0  0  0  0  0  0
    6.7361   -3.6239    0.0000 O   0  0  0  0  0  0  0  0  0  0  0  0
    6.7361   -4.4489    0.0000 C   0  0  0  0  0  0  0  0  0  0  0  0
    6.0217   -4.8614    0.0000 C   0  0  2  0  0  0  0  0  0  0  0  0
    5.3072   -4.4489    0.0000 C   0  0  2  0  0  0  0  0  0  0  0  0
    4.5927   -4.8614    0.0000 C   0  0  1  0  0  0  0  0  0  0  0  0
    4.5927   -5.6864    0.0000 C   0  0  2  0  0  0  0  0  0  0  0  0
    5.3072   -6.0989    0.0000 C   0  0  1  0  0  0  0  0  0  0  0  0
    6.0217   -5.6864    0.0000 O   0  0  0  0  0  0  0  0  0  0  0  0
    5.3072   -6.9239    0.0000 O   0  0  0  0  0  0  0  0  0  0  0  0
    6.0217   -7.3364    0.0000 C   0  0  0  0  0  0  0  0  0  0  0  0
    6.0217   -8.1614    0.0000 C   0  0  0  0  0  0  0  0  0  0  0  0
    6.7361   -8.5739    0.0000 C   0  0  0  0  0  0  0  0  0  0  0  0
    7.4506   -8.1614    0.0000 C   0  0  0  0  0  0  0  0  0  0  0  0
   10.3085   -7.3364    0.0000 O   0  0  0  0  0  0  0  0  0  0  0  0
   10.3085   -9.8114    0.0000 O   0  0  0  0  0  0  0  0  0  0  0  0
    9.5940   -9.3989    0.0000 C   0  0  0  0  0  0  0  0  0  0  0  0
    8.8796   -9.8114    0.0000 C   0  0  0  0  0  0  0  0  0  0  0  0
    8.1651   -9.3989    0.0000 C   0  0  0  0  0  0  0  0  0  0  0  0
    8.1651   -8.5739    0.0000 C   0  0  0  0  0  0  0  0  0  0  0  0
    8.8796   -8.1614    0.0000 C   0  0  0  0  0  0  0  0  0  0  0  0
    9.5940   -8.5739    0.0000 C   0  0  0  0  0  0  0  0  0  0  0  0
   10.3085   -8.1614    0.0000 C   0  0  0  0  0  0  0  0  0  0  0  0
   11.0230   -8.5739    0.0000 C   0  0  0  0  0  0  0  0  0  0  0  0
   11.0230   -9.3989    0.0000 C   0  0  0  0  0  0  0  0  0  0  0  0
 27  1  1  0  0  0  0
 25  2  1  0  0  0  0
 31  3  1  0  0  0  0
 26 20  1  0  0  0  0
 18  4  1  0  0  0  0
 17 16  1  0  0  0  0
 14 16  1  1  0  0  0
 13  5  1  6  0  0  0
 12  6  1  1  0  0  0
 11  7  1  6  0  0  0
 10  9  1  1  0  0  0
  9  8  1  0  0  0  0
 15 10  1  0  0  0  0
 11 10  1  0  0  0  0
 12 11  1  0  0  0  0
 13 12  1  0  0  0  0
 14 13  1  0  0  0  0
 15 14  1  0  0  0  0
 18 17  1  0  0  0  0
 19 18  2  0  0  0  0
 20 19  1  0  0  0  0
 29 21  2  0  0  0  0
 31 22  1  0  0  0  0
 23 22  1  0  0  0  0
 28 23  2  0  0  0  0
 24 23  1  0  0  0  0
 25 24  2  0  0  0  0
 26 25  1  0  0  0  0
 27 26  2  0  0  0  0
 28 27  1  0  0  0  0
 29 28  1  0  0  0  0
 30 29  1  0  0  0  0
 31 30  2  0  0  0  0
M  END
>  <cdx:fragmentId>
134638

$$$$
