60340.cdx
  Mrv1902 05222410242D          

 11 10  0  0  0  0            999 V2000
    8.7119   -4.2216    0.0000 C   0  0  0  0  0  0  0  0  0  0  0  0
    7.9999   -3.8105    0.0000 C   0  0  0  0  0  0  0  0  0  0  0  0
    7.2880   -4.2216    0.0000 C   0  0  0  0  0  0  0  0  0  0  0  0
    6.5760   -3.8105    0.0000 C   0  0  0  0  0  0  0  0  0  0  0  0
    5.8640   -4.2216    0.0000 C   0  0  0  0  0  0  0  0  0  0  0  0
    5.1520   -3.8105    0.0000 C   0  0  0  0  0  0  0  0  0  0  0  0
    4.4400   -4.2216    0.0000 C   0  0  0  0  0  0  0  0  0  0  0  0
    9.4239   -3.8105    0.0000 O   0  0  0  0  0  0  0  0  0  0  0  0
    5.1520   -2.9884    0.0000 C   0  0  0  0  0  0  0  0  0  0  0  0
    7.9999   -2.9884    0.0000 C   0  0  0  0  0  0  0  0  0  0  0  0
    8.7119   -2.5773    0.0000 C   0  0  0  0  0  0  0  0  0  0  0  0
  1  2  1  0  0  0  0
  2  3  1  0  0  0  0
  3  4  1  0  0  0  0
  4  5  1  0  0  0  0
  5  6  2  0  0  0  0
  6  7  1  0  0  0  0
  1  8  1  0  0  0  0
  6  9  1  0  0  0  0
 10 11  2  0  0  0  0
  2 10  1  0  0  0  0
M  END
>  <cdx:fragmentId>
30620

$$$$
