603473.cdx
  Mrv1902 05222410182D          

 21 23  0  0  0  0            999 V2000
    5.1303   -8.8772    0.0000 C   0  0  0  0  0  0  0  0  0  0  0  0
    5.1303   -8.0522    0.0000 C   0  0  0  0  0  0  0  0  0  0  0  0
    7.9393   -9.7022    0.0000 O   0  0  0  0  0  0  0  0  0  0  0  0
   10.7972   -7.2272    0.0000 C   0  0  0  0  0  0  0  0  0  0  0  0
    9.3682   -9.7022    0.0000 O   0  0  0  0  0  0  0  0  0  0  0  0
    5.9553   -8.0522    0.0000 C   0  0  0  0  0  0  0  0  0  0  0  0
    6.4402   -8.7197    0.0000 C   0  0  0  0  0  0  0  0  0  0  0  0
    6.4402   -7.3848    0.0000 O   0  0  0  0  0  0  0  0  0  0  0  0
    9.3682   -7.2272    0.0000 O   0  0  0  0  0  0  0  0  0  0  0  0
    8.6538   -7.6397    0.0000 C   0  0  0  0  0  0  0  0  0  0  0  0
    7.9393   -7.2272    0.0000 C   0  0  0  0  0  0  0  0  0  0  0  0
    7.2248   -7.6397    0.0000 C   0  0  0  0  0  0  0  0  0  0  0  0
    7.2248   -8.4647    0.0000 C   0  0  0  0  0  0  0  0  0  0  0  0
    7.9393   -8.8772    0.0000 C   0  0  0  0  0  0  0  0  0  0  0  0
    8.6538   -8.4647    0.0000 C   0  0  0  0  0  0  0  0  0  0  0  0
    9.3682   -8.8772    0.0000 C   0  0  0  0  0  0  0  0  0  0  0  0
   10.0827   -8.4647    0.0000 C   0  0  0  0  0  0  0  0  0  0  0  0
   10.0827   -7.6397    0.0000 C   0  0  0  0  0  0  0  0  0  0  0  0
    4.3053   -8.0522    0.0000 O   0  0  0  0  0  0  0  0  0  0  0  0
    5.1303   -7.2272    0.0000 C   0  0  0  0  0  0  0  0  0  0  0  0
    4.4158   -6.8147    0.0000 O   0  0  0  0  0  0  0  0  0  0  0  0
  6  2  1  0  0  0  0
  2  1  1  0  0  0  0
 14  3  1  0  0  0  0
 18  4  1  0  0  0  0
 16  5  2  0  0  0  0
  8 12  1  0  0  0  0
  7 13  1  0  0  0  0
  8  6  1  0  0  0  0
  7  6  1  0  0  0  0
 18  9  1  0  0  0  0
 10  9  1  0  0  0  0
 15 10  1  0  0  0  0
 11 10  2  0  0  0  0
 12 11  1  0  0  0  0
 13 12  2  0  0  0  0
 14 13  1  0  0  0  0
 15 14  2  0  0  0  0
 16 15  1  0  0  0  0
 17 16  1  0  0  0  0
 18 17  2  0  0  0  0
  2 19  1  0  0  0  0
  2 20  1  0  0  0  0
 20 21  1  0  0  0  0
M  END
>  <cdx:fragmentId>
5

$$$$
