60341.cdx
  Mrv1902 05222410252D          

  7  6  0  0  0  0            999 V2000
    5.4198   -8.2343    0.0000 C   0  0  0  0  0  0  0  0  0  0  0  0
    6.1343   -7.8218    0.0000 C   0  0  0  0  0  0  0  0  0  0  0  0
    6.8487   -8.2343    0.0000 C   0  0  0  0  0  0  0  0  0  0  0  0
    7.5632   -7.8218    0.0000 O   0  0  0  0  0  0  0  0  0  0  0  0
    4.7053   -7.8218    0.0000 C   0  0  0  0  0  0  0  0  0  0  0  0
    6.1343   -6.9968    0.0000 C   0  0  0  0  0  0  0  0  0  0  0  0
    6.8487   -6.5843    0.0000 C   0  0  0  0  0  0  0  0  0  0  0  0
  1  2  1  0  0  0  0
  2  3  1  0  0  0  0
  3  4  1  0  0  0  0
  1  5  1  0  0  0  0
  2  6  1  0  0  0  0
  6  7  1  0  0  0  0
M  END
>  <cdx:fragmentId>
66

$$$$
