6036.cdx
  Mrv1902 05222410232D          

 12 12  0  0  0  0            999 V2000
    7.1549   -2.8759    0.0000 O   0  0  0  0  0  0  0  0  0  0  0  0
    7.8638   -3.2977    0.0000 C   0  0  0  0  0  0  0  0  0  0  0  0
    7.8530   -4.1227    0.0000 C   0  0  1  0  0  0  0  0  0  0  0  0
    7.1331   -4.5257    0.0000 C   0  0  2  0  0  0  0  0  0  0  0  0
    6.4242   -4.1038    0.0000 C   0  0  2  0  0  0  0  0  0  0  0  0
    6.4350   -3.2789    0.0000 C   0  0  1  0  0  0  0  0  0  0  0  0
    8.5837   -2.8947    0.0000 O   0  0  0  0  0  0  0  0  0  0  0  0
    8.5619   -4.5445    0.0000 O   0  0  0  0  0  0  0  0  0  0  0  0
    7.1223   -5.3506    0.0000 O   0  0  0  0  0  0  0  0  0  0  0  0
    5.7043   -4.5069    0.0000 O   0  0  0  0  0  0  0  0  0  0  0  0
    5.7260   -2.8570    0.0000 C   0  0  0  0  0  0  0  0  0  0  0  0
    5.0062   -3.2601    0.0000 O   0  0  0  0  0  0  0  0  0  0  0  0
  1  2  1  0  0  0  0
  2  3  1  0  0  0  0
  3  4  1  0  0  0  0
  4  5  1  0  0  0  0
  5  6  1  0  0  0  0
  1  6  1  0  0  0  0
  2  7  1  0  0  0  0
  3  8  1  6  0  0  0
  4  9  1  1  0  0  0
  5 10  1  1  0  0  0
 11 12  1  0  0  0  0
  6 11  1  1  0  0  0
M  END
>  <cdx:groupId>
38

>  <cdx:fragmentId>
5

$$$$
