6040.cdx
  Mrv1902 05222410262D          

 28 29  0  0  0  0            999 V2000
    1.5085   -5.5182    0.0000 C   0  0  0  0  0  0  0  0  0  0  0  0
    2.2209   -5.1022    0.0000 O   0  0  0  0  0  0  0  0  0  0  0  0
   11.5232   -7.9437    0.0000 C   0  0  0  0  0  0  0  0  0  0  0  0
    2.2291   -6.7522    0.0000 O   0  0  0  0  0  0  0  0  0  0  0  0
    6.5036   -4.2560    0.0000 O   0  0  0  0  0  0  0  0  0  0  0  0
    7.9325   -4.2489    0.0000 O   0  0  0  0  0  0  0  0  0  0  0  0
   10.8067   -7.5347    0.0000 O   0  0  0  0  0  0  0  0  0  0  0  0
   12.2316   -6.7027    0.0000 O   0  0  0  0  0  0  0  0  0  0  0  0
   12.2234   -5.0527    0.0000 O   0  0  0  0  0  0  0  0  0  0  0  0
    3.6498   -5.0951    0.0000 C   0  0  0  0  0  0  0  0  0  0  0  0
    2.9374   -5.5111    0.0000 C   0  0  0  0  0  0  0  0  0  0  0  0
    2.9415   -6.3361    0.0000 C   0  0  0  0  0  0  0  0  0  0  0  0
    3.6580   -6.7451    0.0000 C   0  0  0  0  0  0  0  0  0  0  0  0
    4.3704   -6.3291    0.0000 C   0  0  0  0  0  0  0  0  0  0  0  0
    4.3664   -5.5041    0.0000 C   0  0  0  0  0  0  0  0  0  0  0  0
    5.0788   -5.0880    0.0000 C   0  0  0  0  0  0  0  0  0  0  0  0
    5.7953   -5.4970    0.0000 C   0  0  0  0  0  0  0  0  0  0  0  0
    6.5077   -5.0810    0.0000 C   0  0  0  0  0  0  0  0  0  0  0  0
    7.2242   -5.4899    0.0000 C   0  0  0  0  0  0  0  0  0  0  0  0
    7.9366   -5.0739    0.0000 C   0  0  0  0  0  0  0  0  0  0  0  0
    8.6531   -5.4829    0.0000 C   0  0  0  0  0  0  0  0  0  0  0  0
    9.3655   -5.0668    0.0000 C   0  0  0  0  0  0  0  0  0  0  0  0
   10.7945   -5.0598    0.0000 C   0  0  0  0  0  0  0  0  0  0  0  0
   10.0820   -5.4758    0.0000 C   0  0  0  0  0  0  0  0  0  0  0  0
   10.0861   -6.3008    0.0000 C   0  0  0  0  0  0  0  0  0  0  0  0
   10.8026   -6.7098    0.0000 C   0  0  0  0  0  0  0  0  0  0  0  0
   11.5151   -6.2937    0.0000 C   0  0  0  0  0  0  0  0  0  0  0  0
   11.5110   -5.4687    0.0000 C   0  0  0  0  0  0  0  0  0  0  0  0
  2  1  1  0  0  0  0
 11  2  1  0  0  0  0
  7  3  1  0  0  0  0
 12  4  1  0  0  0  0
 18  5  1  0  0  0  0
 20  6  2  0  0  0  0
 26  7  1  0  0  0  0
 27  8  1  0  0  0  0
 28  9  1  0  0  0  0
 10 15  1  0  0  0  0
 11 10  2  0  0  0  0
 12 11  1  0  0  0  0
 13 12  2  0  0  0  0
 14 13  1  0  0  0  0
 15 14  2  0  0  0  0
 16 15  1  0  0  0  0
 17 16  1  0  0  0  0
 18 17  1  0  0  0  0
 19 18  1  0  0  0  0
 20 19  1  0  0  0  0
 21 20  1  0  0  0  0
 22 21  1  0  0  0  0
 24 22  1  0  0  0  0
 23 28  1  0  0  0  0
 24 23  2  0  0  0  0
 25 24  1  0  0  0  0
 26 25  2  0  0  0  0
 27 26  1  0  0  0  0
 28 27  2  0  0  0  0
M  END
>  <cdx:fragmentId>
5

$$$$
