14604077.cdx
  Mrv1902 05222410262D          

 26 28  0  0  0  0            999 V2000
    7.4330   -8.0647    0.0000 C   0  0  0  0  0  0  0  0  0  0  0  0
    7.4330   -7.2397    0.0000 C   0  0  0  0  0  0  0  0  0  0  0  0
    6.7185   -6.8272    0.0000 C   0  0  0  0  0  0  0  0  0  0  0  0
    6.0040   -7.2397    0.0000 C   0  0  0  0  0  0  0  0  0  0  0  0
    5.2896   -6.8272    0.0000 C   0  0  0  0  0  0  0  0  0  0  0  0
    4.5751   -7.2397    0.0000 C   0  0  0  0  0  0  0  0  0  0  0  0
    4.5751   -8.0647    0.0000 C   0  0  0  0  0  0  0  0  0  0  0  0
    5.2896   -8.4772    0.0000 C   0  0  0  0  0  0  0  0  0  0  0  0
    6.0040   -8.0647    0.0000 C   0  0  0  0  0  0  0  0  0  0  0  0
    6.7185   -8.4772    0.0000 O   0  0  0  0  0  0  0  0  0  0  0  0
    6.7185   -6.0022    0.0000 O   0  0  0  0  0  0  0  0  0  0  0  0
    5.2896   -9.3022    0.0000 C   0  0  0  0  0  0  0  0  0  0  0  0
    4.5751   -9.7147    0.0000 C   0  0  0  0  0  0  0  0  0  0  0  0
    4.5751  -10.5397    0.0000 C   0  0  0  0  0  0  0  0  0  0  0  0
    5.2896  -10.9522    0.0000 C   0  0  0  0  0  0  0  0  0  0  0  0
    3.8606  -10.9522    0.0000 C   0  0  0  0  0  0  0  0  0  0  0  0
    3.8606   -8.4772    0.0000 O   0  0  0  0  0  0  0  0  0  0  0  0
    5.2896   -6.0022    0.0000 O   0  0  0  0  0  0  0  0  0  0  0  0
    8.1475   -6.8272    0.0000 C   0  0  0  0  0  0  0  0  0  0  0  0
    8.8619   -7.2397    0.0000 C   0  0  0  0  0  0  0  0  0  0  0  0
    9.5764   -6.8272    0.0000 C   0  0  0  0  0  0  0  0  0  0  0  0
    9.5764   -6.0022    0.0000 C   0  0  0  0  0  0  0  0  0  0  0  0
    8.8619   -5.5897    0.0000 C   0  0  0  0  0  0  0  0  0  0  0  0
    8.1475   -6.0022    0.0000 C   0  0  0  0  0  0  0  0  0  0  0  0
   10.2909   -5.5897    0.0000 O   0  0  0  0  0  0  0  0  0  0  0  0
   10.2909   -7.2397    0.0000 O   0  0  0  0  0  0  0  0  0  0  0  0
  1  2  2  0  0  0  0
  2  3  1  0  0  0  0
  3  4  1  0  0  0  0
  4  5  1  0  0  0  0
  5  6  2  0  0  0  0
  6  7  1  0  0  0  0
  7  8  2  0  0  0  0
  8  9  1  0  0  0  0
  4  9  2  0  0  0  0
  9 10  1  0  0  0  0
  1 10  1  0  0  0  0
  3 11  2  0  0  0  0
 12 13  1  0  0  0  0
 13 14  2  0  0  0  0
 14 15  1  0  0  0  0
 14 16  1  0  0  0  0
  8 12  1  0  0  0  0
  7 17  1  0  0  0  0
  5 18  1  0  0  0  0
 19 20  1  0  0  0  0
 20 21  2  0  0  0  0
 21 22  1  0  0  0  0
 22 23  2  0  0  0  0
 23 24  1  0  0  0  0
 19 24  2  0  0  0  0
 22 25  1  0  0  0  0
 21 26  1  0  0  0  0
  2 19  1  0  0  0  0
M  END
>  <cdx:fragmentId>
107330

$$$$
