14604080.cdx
  Mrv1902 05222410182D          

 27 29  0  0  0  0            999 V2000
    8.3125   -8.0982    0.0000 C   0  0  0  0  0  0  0  0  0  0  0  0
    8.3125   -7.2732    0.0000 C   0  0  0  0  0  0  0  0  0  0  0  0
    7.5980   -6.8607    0.0000 C   0  0  0  0  0  0  0  0  0  0  0  0
    6.8835   -7.2732    0.0000 C   0  0  0  0  0  0  0  0  0  0  0  0
    6.1690   -6.8607    0.0000 C   0  0  0  0  0  0  0  0  0  0  0  0
    5.4546   -7.2732    0.0000 C   0  0  0  0  0  0  0  0  0  0  0  0
    5.4546   -8.0982    0.0000 C   0  0  0  0  0  0  0  0  0  0  0  0
    6.1690   -8.5107    0.0000 C   0  0  0  0  0  0  0  0  0  0  0  0
    6.8835   -8.0982    0.0000 C   0  0  0  0  0  0  0  0  0  0  0  0
    7.5980   -8.5107    0.0000 O   0  0  0  0  0  0  0  0  0  0  0  0
    7.5980   -6.0357    0.0000 O   0  0  0  0  0  0  0  0  0  0  0  0
    4.7401   -6.8607    0.0000 C   0  0  0  0  0  0  0  0  0  0  0  0
    4.0256   -7.2732    0.0000 C   0  0  0  0  0  0  0  0  0  0  0  0
    3.3112   -6.8607    0.0000 C   0  0  0  0  0  0  0  0  0  0  0  0
    3.3112   -6.0357    0.0000 C   0  0  0  0  0  0  0  0  0  0  0  0
    2.5967   -7.2732    0.0000 C   0  0  0  0  0  0  0  0  0  0  0  0
    9.0269   -6.8607    0.0000 C   0  0  0  0  0  0  0  0  0  0  0  0
    9.0269   -6.0357    0.0000 C   0  0  0  0  0  0  0  0  0  0  0  0
    9.7414   -5.6232    0.0000 C   0  0  0  0  0  0  0  0  0  0  0  0
   10.4559   -6.0357    0.0000 C   0  0  0  0  0  0  0  0  0  0  0  0
   10.4559   -6.8607    0.0000 C   0  0  0  0  0  0  0  0  0  0  0  0
    9.7414   -7.2732    0.0000 C   0  0  0  0  0  0  0  0  0  0  0  0
   11.1703   -5.6232    0.0000 O   0  0  0  0  0  0  0  0  0  0  0  0
   11.8848   -6.0357    0.0000 C   0  0  0  0  0  0  0  0  0  0  0  0
    8.3125   -5.6232    0.0000 O   0  0  0  0  0  0  0  0  0  0  0  0
    4.7401   -8.5107    0.0000 O   0  0  0  0  0  0  0  0  0  0  0  0
    6.1690   -6.0357    0.0000 O   0  0  0  0  0  0  0  0  0  0  0  0
  1  2  2  0  0  0  0
  2  3  1  0  0  0  0
  3  4  1  0  0  0  0
  4  5  1  0  0  0  0
  5  6  2  0  0  0  0
  6  7  1  0  0  0  0
  7  8  2  0  0  0  0
  8  9  1  0  0  0  0
  4  9  2  0  0  0  0
  9 10  1  0  0  0  0
  1 10  1  0  0  0  0
  3 11  2  0  0  0  0
 12 13  1  0  0  0  0
 13 14  2  0  0  0  0
 14 15  1  0  0  0  0
 14 16  1  0  0  0  0
  6 12  1  0  0  0  0
 17 18  1  0  0  0  0
 18 19  2  0  0  0  0
 19 20  1  0  0  0  0
 20 21  2  0  0  0  0
 21 22  1  0  0  0  0
 17 22  2  0  0  0  0
 23 24  1  0  0  0  0
 20 23  1  0  0  0  0
 18 25  1  0  0  0  0
  2 17  1  0  0  0  0
  7 26  1  0  0  0  0
  5 27  1  0  0  0  0
M  END
>  <cdx:fragmentId>
107508

$$$$
