6041.cdx
  Mrv1902 05222410262D          

 26 27  0  0  0  0            999 V2000
    4.8443   -8.7260    0.0000 C   0  0  0  0  0  0  0  0  0  0  0  0
    5.5588   -9.1385    0.0000 C   0  0  0  0  0  0  0  0  0  0  0  0
    6.2733   -8.7260    0.0000 C   0  0  0  0  0  0  0  0  0  0  0  0
    6.9878   -9.1385    0.0000 C   0  0  0  0  0  0  0  0  0  0  0  0
    7.7022   -8.7260    0.0000 C   0  0  0  0  0  0  0  0  0  0  0  0
    8.4167   -9.1385    0.0000 C   0  0  0  0  0  0  0  0  0  0  0  0
    9.1312   -8.7260    0.0000 C   0  0  0  0  0  0  0  0  0  0  0  0
    6.2733   -7.9010    0.0000 O   0  0  0  0  0  0  0  0  0  0  0  0
    9.8456   -9.1385    0.0000 C   0  0  0  0  0  0  0  0  0  0  0  0
   10.5601   -8.7260    0.0000 C   0  0  0  0  0  0  0  0  0  0  0  0
   11.2746   -9.1385    0.0000 C   0  0  0  0  0  0  0  0  0  0  0  0
   11.2746   -9.9635    0.0000 C   0  0  0  0  0  0  0  0  0  0  0  0
   10.5601  -10.3760    0.0000 C   0  0  0  0  0  0  0  0  0  0  0  0
    9.8456   -9.9635    0.0000 C   0  0  0  0  0  0  0  0  0  0  0  0
   11.9890   -8.7260    0.0000 O   0  0  0  0  0  0  0  0  0  0  0  0
   12.7035   -9.1385    0.0000 C   0  0  0  0  0  0  0  0  0  0  0  0
   11.9890  -10.3760    0.0000 O   0  0  0  0  0  0  0  0  0  0  0  0
    7.7022   -7.9010    0.0000 O   0  0  0  0  0  0  0  0  0  0  0  0
    4.1299   -9.1385    0.0000 C   0  0  0  0  0  0  0  0  0  0  0  0
    3.4154   -8.7260    0.0000 C   0  0  0  0  0  0  0  0  0  0  0  0
    2.7009   -9.1385    0.0000 C   0  0  0  0  0  0  0  0  0  0  0  0
    2.7009   -9.9635    0.0000 C   0  0  0  0  0  0  0  0  0  0  0  0
    3.4154  -10.3760    0.0000 C   0  0  0  0  0  0  0  0  0  0  0  0
    4.1299   -9.9635    0.0000 C   0  0  0  0  0  0  0  0  0  0  0  0
    1.9865  -10.3760    0.0000 O   0  0  0  0  0  0  0  0  0  0  0  0
    1.9865   -8.7260    0.0000 O   0  0  0  0  0  0  0  0  0  0  0  0
  1  2  1  0  0  0  0
  2  3  1  0  0  0  0
  3  4  1  0  0  0  0
  4  5  1  0  0  0  0
  5  6  1  0  0  0  0
  6  7  1  0  0  0  0
  3  8  2  0  0  0  0
  9 10  1  0  0  0  0
 10 11  2  0  0  0  0
 11 12  1  0  0  0  0
 12 13  2  0  0  0  0
 13 14  1  0  0  0  0
  9 14  2  0  0  0  0
 15 16  1  0  0  0  0
 11 15  1  0  0  0  0
 12 17  1  0  0  0  0
  7  9  1  0  0  0  0
  5 18  1  0  0  0  0
 19 20  1  0  0  0  0
 20 21  2  0  0  0  0
 21 22  1  0  0  0  0
 22 23  2  0  0  0  0
 23 24  1  0  0  0  0
 19 24  2  0  0  0  0
 22 25  1  0  0  0  0
 21 26  1  0  0  0  0
  1 19  1  0  0  0  0
M  END
>  <cdx:fragmentId>
21

$$$$
