604164.cdx
  Mrv1902 05222410252D          

 32 34  0  0  0  0            999 V2000
   10.4387  -11.9902    0.0000 C   0  0  0  0  0  0  0  0  0  0  0  0
   10.4421  -11.1652    0.0000 C   0  0  0  0  0  0  0  0  0  0  0  0
    9.7294  -10.7497    0.0000 C   0  0  0  0  0  0  0  0  0  0  0  0
    9.7329   -9.9247    0.0000 C   0  0  0  0  0  0  0  0  0  0  0  0
   10.4491   -9.5153    0.0000 C   0  0  0  0  0  0  0  0  0  0  0  0
   11.1618   -9.9308    0.0000 C   0  0  0  0  0  0  0  0  0  0  0  0
   11.1583  -10.7558    0.0000 C   0  0  0  0  0  0  0  0  0  0  0  0
    9.7225  -12.3997    0.0000 O   0  0  0  0  0  0  0  0  0  0  0  0
   11.1514  -12.4057    0.0000 O   0  0  0  0  0  0  0  0  0  0  0  0
   11.8780   -9.5213    0.0000 O   0  0  0  0  0  0  0  0  0  0  0  0
   10.4526   -8.6903    0.0000 O   0  0  0  0  0  0  0  0  0  0  0  0
    9.0201   -9.5092    0.0000 O   0  0  0  0  0  0  0  0  0  0  0  0
    7.5912   -9.5032    0.0000 O   0  0  0  0  0  0  0  0  0  0  0  0
    8.3039   -9.9187    0.0000 C   0  0  2  0  0  0  0  0  0  0  0  0
    8.3005  -10.7437    0.0000 C   0  0  1  0  0  0  0  0  0  0  0  0
    7.5843  -11.1532    0.0000 C   0  0  2  0  0  0  0  0  0  0  0  0
    6.8715  -10.7377    0.0000 C   0  0  1  0  0  0  0  0  0  0  0  0
    6.8750   -9.9127    0.0000 C   0  0  1  0  0  0  0  0  0  0  0  0
    6.1553  -11.1472    0.0000 O   0  0  0  0  0  0  0  0  0  0  0  0
    7.5808  -11.9782    0.0000 O   0  0  0  0  0  0  0  0  0  0  0  0
    9.0132  -11.1592    0.0000 O   0  0  0  0  0  0  0  0  0  0  0  0
    6.1623   -9.4972    0.0000 C   0  0  0  0  0  0  0  0  0  0  0  0
    5.4461   -9.9067    0.0000 O   0  0  0  0  0  0  0  0  0  0  0  0
    4.6506   -8.6704    0.0000 O   0  0  0  0  0  0  0  0  0  0  0  0
    4.7334   -9.4912    0.0000 C   0  0  2  0  0  0  0  0  0  0  0  0
    3.9783   -9.8236    0.0000 C   0  0  1  0  0  0  0  0  0  0  0  0
    3.4288   -9.2082    0.0000 C   0  0  2  0  0  0  0  0  0  0  0  0
    3.8443   -8.4954    0.0000 C   0  0  0  0  0  0  0  0  0  0  0  0
    2.6766   -8.8694    0.0000 C   0  0  0  0  0  0  0  0  0  0  0  0
    2.4631   -8.0725    0.0000 O   0  0  0  0  0  0  0  0  0  0  0  0
    2.7594   -9.6903    0.0000 O   0  0  0  0  0  0  0  0  0  0  0  0
    3.8034  -10.6298    0.0000 O   0  0  0  0  0  0  0  0  0  0  0  0
  1  2  1  0  0  0  0
  2  3  1  0  0  0  0
  3  4  2  0  0  0  0
  4  5  1  0  0  0  0
  5  6  2  0  0  0  0
  6  7  1  0  0  0  0
  2  7  2  0  0  0  0
  1  8  2  0  0  0  0
  1  9  1  0  0  0  0
  6 10  1  0  0  0  0
  5 11  1  0  0  0  0
 13 14  1  0  0  0  0
 14 15  1  0  0  0  0
 15 16  1  0  0  0  0
 16 17  1  0  0  0  0
 17 18  1  0  0  0  0
 13 18  1  0  0  0  0
 17 19  1  6  0  0  0
 16 20  1  1  0  0  0
 15 21  1  6  0  0  0
 24 25  1  0  0  0  0
 25 26  1  0  0  0  0
 26 27  1  0  0  0  0
 27 28  1  0  0  0  0
 24 28  1  0  0  0  0
 29 30  1  0  0  0  0
 27 29  1  1  0  0  0
 27 31  1  6  0  0  0
 26 32  1  6  0  0  0
 25 23  1  1  0  0  0
 22 23  1  0  0  0  0
 18 22  1  1  0  0  0
 14 12  1  1  0  0  0
  4 12  1  0  0  0  0
M  END
>  <cdx:groupId>
134802

>  <cdx:fragmentId>
134753

$$$$
