6042.cdx
  Mrv1902 05222410272D          

 19 19  0  0  0  0            999 V2000
    9.9570   -7.3618    0.0000 C   0  0  0  0  0  0  0  0  0  0  0  0
    9.4721   -6.6944    0.0000 C   0  0  0  0  0  0  0  0  0  0  0  0
    8.2391   -7.4951    0.0000 S   0  0  0  0  0  0  0  0  0  0  0  0
    7.4321   -7.3235    0.0000 C   0  0  0  0  0  0  0  0  0  0  0  0
    7.3459   -6.5031    0.0000 N   0  3  0  0  0  0  0  0  0  0  0  0
    8.0996   -6.1675    0.0000 C   0  0  0  0  0  0  0  0  0  0  0  0
    8.6516   -6.7806    0.0000 C   0  0  0  0  0  0  0  0  0  0  0  0
    8.2711   -5.3605    0.0000 C   0  0  0  0  0  0  0  0  0  0  0  0
    6.6314   -6.0906    0.0000 C   0  0  0  0  0  0  0  0  0  0  0  0
    4.4880   -7.3281    0.0000 C   0  0  0  0  0  0  0  0  0  0  0  0
    5.2025   -7.7406    0.0000 N   0  0  0  0  0  0  0  0  0  0  0  0
    5.9170   -7.3281    0.0000 C   0  0  0  0  0  0  0  0  0  0  0  0
    5.9170   -6.5031    0.0000 C   0  0  0  0  0  0  0  0  0  0  0  0
    5.2025   -6.0906    0.0000 C   0  0  0  0  0  0  0  0  0  0  0  0
    4.4880   -6.5031    0.0000 N   0  0  0  0  0  0  0  0  0  0  0  0
    3.7735   -7.7406    0.0000 C   0  0  0  0  0  0  0  0  0  0  0  0
    6.6314   -7.7406    0.0000 N   0  0  0  0  0  0  0  0  0  0  0  0
   10.7775   -7.2756    0.0000 O   0  0  0  0  0  0  0  0  0  0  0  0
    7.3459   -5.6781    0.0000 Cl  0  5  0  0  0  0  0  0  0  0  0  0
  1  2  1  0  0  0  0
  3  4  1  0  0  0  0
  4  5  2  0  0  0  0
  5  6  1  0  0  0  0
  6  7  2  0  0  0  0
  3  7  1  0  0  0  0
  6  8  1  0  0  0  0
 10 11  1  0  0  0  0
 11 12  2  0  0  0  0
 12 13  1  0  0  0  0
 13 14  2  0  0  0  0
 14 15  1  0  0  0  0
 10 15  2  0  0  0  0
 10 16  1  0  0  0  0
 12 17  1  0  0  0  0
  9 13  1  0  0  0  0
  5  9  1  0  0  0  0
  2  7  1  0  0  0  0
  1 18  1  0  0  0  0
M  CHG  2   5   1  19  -1
M  END
>  <cdx:groupId>
59

>  <cdx:fragmentId>
39

$$$$
