42604489.cdx
  Mrv1902 05222410282D          

 34 38  0  0  0  0            999 V2000
    8.3689  -13.7300    0.0000 C   0  0  2  0  0  0  0  0  0  0  0  0
    9.0834  -14.1425    0.0000 C   0  0  0  0  0  0  0  0  0  0  0  0
    9.7978  -13.7300    0.0000 C   0  0  0  0  0  0  0  0  0  0  0  0
   10.5825  -13.9849    0.0000 C   0  0  0  0  0  0  0  0  0  0  0  0
   11.0674  -13.3175    0.0000 C   0  0  0  0  0  0  0  0  0  0  0  0
   10.5825  -12.6500    0.0000 O   0  0  0  0  0  0  0  0  0  0  0  0
    9.7978  -12.9050    0.0000 C   0  0  1  0  0  0  0  0  0  0  0  0
    9.0834  -12.4925    0.0000 C   0  0  0  0  0  0  0  0  0  0  0  0
    8.3689  -12.9050    0.0000 C   0  0  1  0  0  0  0  0  0  0  0  0
    7.5843  -12.6500    0.0000 C   0  0  2  0  0  0  0  0  0  0  0  0
    6.7638  -12.5638    0.0000 C   0  0  0  0  0  0  0  0  0  0  0  0
    7.0994  -13.3175    0.0000 C   0  0  2  0  0  0  0  0  0  0  0  0
    7.5843  -13.9849    0.0000 C   0  0  2  0  0  0  0  0  0  0  0  0
   11.8924  -13.3175    0.0000 O   0  0  0  0  0  0  0  0  0  0  0  0
    6.9712  -14.5369    0.0000 C   0  0  0  0  0  0  0  0  0  0  0  0
    6.1866  -14.2820    0.0000 O   0  0  0  0  0  0  0  0  0  0  0  0
    4.8063  -14.6518    0.0000 O   0  0  0  0  0  0  0  0  0  0  0  0
    5.6032  -14.8654    0.0000 C   0  0  2  0  0  0  0  0  0  0  0  0
    5.8167  -15.6622    0.0000 C   0  0  1  0  0  0  0  0  0  0  0  0
    5.2334  -16.2456    0.0000 C   0  0  2  0  0  0  0  0  0  0  0  0
    4.4365  -16.0321    0.0000 C   0  0  1  0  0  0  0  0  0  0  0  0
    4.2230  -15.2352    0.0000 C   0  0  1  0  0  0  0  0  0  0  0  0
    3.4261  -15.0217    0.0000 C   0  0  0  0  0  0  0  0  0  0  0  0
    2.8427  -15.6050    0.0000 O   0  0  0  0  0  0  0  0  0  0  0  0
    3.8531  -16.6154    0.0000 O   0  0  0  0  0  0  0  0  0  0  0  0
    5.4469  -17.0425    0.0000 O   0  0  0  0  0  0  0  0  0  0  0  0
    6.6136  -15.8758    0.0000 O   0  0  0  0  0  0  0  0  0  0  0  0
    8.3689  -12.0800    0.0000 C   0  0  0  0  0  0  0  0  0  0  0  0
   10.8374  -14.7695    0.0000 C   0  0  0  0  0  0  0  0  0  0  0  0
    7.7558  -14.7919    0.0000 O   0  0  0  0  0  0  0  0  0  0  0  0
    8.2827  -14.5504    0.0000 H   0  0  0  0  0  0  0  0  0  0  0  0
    9.8841  -12.0845    0.0000 H   0  0  0  0  0  0  0  0  0  0  0  0
    7.7558  -11.8430    0.0000 H   0  0  0  0  0  0  0  0  0  0  0  0
    6.3849  -13.7300    0.0000 H   0  0  0  0  0  0  0  0  0  0  0  0
  1  2  1  0  0  0  0
  2  3  1  0  0  0  0
  3  4  2  0  0  0  0
  4  5  1  0  0  0  0
  5  6  1  0  0  0  0
  6  7  1  0  0  0  0
  7  8  1  0  0  0  0
  8  9  1  0  0  0  0
  9 10  1  0  0  0  0
 10 11  1  0  0  0  0
 11 12  1  0  0  0  0
 12 13  1  0  0  0  0
  1 13  1  0  0  0  0
  1  9  1  0  0  0  0
 10 12  1  0  0  0  0
  3  7  1  0  0  0  0
  5 14  2  0  0  0  0
 17 18  1  0  0  0  0
 18 19  1  0  0  0  0
 19 20  1  0  0  0  0
 20 21  1  0  0  0  0
 21 22  1  0  0  0  0
 17 22  1  0  0  0  0
 23 24  1  0  0  0  0
 22 23  1  1  0  0  0
 21 25  1  6  0  0  0
 20 26  1  1  0  0  0
 19 27  1  6  0  0  0
 18 16  1  1  0  0  0
 15 16  1  0  0  0  0
 13 15  1  1  0  0  0
  9 28  1  1  0  0  0
  4 29  1  0  0  0  0
 13 30  1  6  0  0  0
  1 31  1  6  0  0  0
  7 32  1  1  0  0  0
 10 33  1  6  0  0  0
 12 34  1  6  0  0  0
M  END
>  <cdx:groupId>
149706

>  <cdx:fragmentId>
149603

$$$$
