42604490.cdx
  Mrv1902 05222410182D          

 32 35  0  0  0  0            999 V2000
    9.6055  -11.7106    0.0000 O   0  0  0  0  0  0  0  0  0  0  0  0
   10.0905  -12.3780    0.0000 C   0  0  0  0  0  0  0  0  0  0  0  0
    9.6055  -13.0455    0.0000 C   0  0  0  0  0  0  0  0  0  0  0  0
    8.8209  -12.7905    0.0000 C   0  0  0  0  0  0  0  0  0  0  0  0
    8.1065  -13.2030    0.0000 C   0  0  0  0  0  0  0  0  0  0  0  0
    7.3920  -12.7905    0.0000 C   0  0  2  0  0  0  0  0  0  0  0  0
    7.3920  -11.9655    0.0000 C   0  0  1  0  0  0  0  0  0  0  0  0
    8.1065  -11.5530    0.0000 C   0  0  0  0  0  0  0  0  0  0  0  0
    8.8209  -11.9655    0.0000 C   0  0  2  0  0  0  0  0  0  0  0  0
    6.6775  -11.5530    0.0000 C   0  0  0  0  0  0  0  0  0  0  0  0
    5.9630  -11.9655    0.0000 C   0  0  0  0  0  0  0  0  0  0  0  0
    5.9630  -12.7905    0.0000 C   0  0  0  0  0  0  0  0  0  0  0  0
    6.6775  -13.2030    0.0000 C   0  0  2  0  0  0  0  0  0  0  0  0
   10.9155  -12.3780    0.0000 O   0  0  0  0  0  0  0  0  0  0  0  0
    6.6775  -14.0280    0.0000 C   0  0  0  0  0  0  0  0  0  0  0  0
    5.9630  -14.4405    0.0000 O   0  0  0  0  0  0  0  0  0  0  0  0
    5.2486  -15.6780    0.0000 O   0  0  0  0  0  0  0  0  0  0  0  0
    5.9630  -15.2655    0.0000 C   0  0  2  0  0  0  0  0  0  0  0  0
    6.6775  -15.6780    0.0000 C   0  0  1  0  0  0  0  0  0  0  0  0
    6.6775  -16.5030    0.0000 C   0  0  2  0  0  0  0  0  0  0  0  0
    5.9630  -16.9155    0.0000 C   0  0  1  0  0  0  0  0  0  0  0  0
    5.2486  -16.5030    0.0000 C   0  0  1  0  0  0  0  0  0  0  0  0
    4.5341  -16.9155    0.0000 C   0  0  0  0  0  0  0  0  0  0  0  0
    3.8196  -16.5030    0.0000 O   0  0  0  0  0  0  0  0  0  0  0  0
    5.9630  -17.7405    0.0000 O   0  0  0  0  0  0  0  0  0  0  0  0
    7.3920  -16.9155    0.0000 O   0  0  0  0  0  0  0  0  0  0  0  0
    7.3920  -15.2655    0.0000 O   0  0  0  0  0  0  0  0  0  0  0  0
    7.3920  -11.1405    0.0000 C   0  0  0  0  0  0  0  0  0  0  0  0
    9.8605  -13.8301    0.0000 C   0  0  0  0  0  0  0  0  0  0  0  0
    5.9630  -13.6155    0.0000 O   0  0  0  0  0  0  0  0  0  0  0  0
    7.3920  -13.6155    0.0000 H   0  0  0  0  0  0  0  0  0  0  0  0
    8.9072  -11.1450    0.0000 H   0  0  0  0  0  0  0  0  0  0  0  0
  1  2  1  0  0  0  0
  2  3  1  0  0  0  0
  3  4  2  0  0  0  0
  4  5  1  0  0  0  0
  5  6  1  0  0  0  0
  6  7  1  0  0  0  0
  7  8  1  0  0  0  0
  8  9  1  0  0  0  0
  4  9  1  0  0  0  0
  1  9  1  0  0  0  0
 10 11  1  0  0  0  0
 11 12  1  0  0  0  0
 12 13  1  0  0  0  0
 13  6  1  0  0  0  0
 10  7  1  0  0  0  0
  2 14  2  0  0  0  0
 17 18  1  0  0  0  0
 18 19  1  0  0  0  0
 19 20  1  0  0  0  0
 20 21  1  0  0  0  0
 21 22  1  0  0  0  0
 17 22  1  0  0  0  0
 23 24  1  0  0  0  0
 22 23  1  1  0  0  0
 21 25  1  6  0  0  0
 20 26  1  1  0  0  0
 19 27  1  6  0  0  0
 18 16  1  1  0  0  0
 15 16  1  0  0  0  0
 13 15  1  0  0  0  0
  7 28  1  1  0  0  0
  3 29  1  0  0  0  0
 13 30  1  6  0  0  0
  6 31  1  6  0  0  0
  9 32  1  1  0  0  0
M  END
>  <cdx:groupId>
149816

>  <cdx:fragmentId>
149720

$$$$
