604562.cdx
  Mrv1902 05222410252D          

 15 16  0  0  0  0            999 V2000
    8.6709   -7.7066    0.0000 C   0  0  0  0  0  0  0  0  0  0  0  0
    9.3854   -8.1191    0.0000 C   0  0  0  0  0  0  0  0  0  0  0  0
    9.3854   -8.9441    0.0000 C   0  0  0  0  0  0  0  0  0  0  0  0
    8.6709   -9.3566    0.0000 C   0  0  0  0  0  0  0  0  0  0  0  0
    7.9564   -8.9441    0.0000 C   0  0  0  0  0  0  0  0  0  0  0  0
    7.2420   -9.3566    0.0000 C   0  0  0  0  0  0  0  0  0  0  0  0
    6.5275   -8.9441    0.0000 C   0  0  0  0  0  0  0  0  0  0  0  0
    6.5275   -8.1191    0.0000 C   0  0  0  0  0  0  0  0  0  0  0  0
    7.2420   -7.7066    0.0000 C   0  0  0  0  0  0  0  0  0  0  0  0
    7.9564   -8.1191    0.0000 C   0  0  0  0  0  0  0  0  0  0  0  0
    8.6709   -6.8816    0.0000 O   0  0  0  0  0  0  0  0  0  0  0  0
    5.8130   -7.7066    0.0000 C   0  0  0  0  0  0  0  0  0  0  0  0
    5.0985   -7.2941    0.0000 C   0  0  0  0  0  0  0  0  0  0  0  0
    6.2255   -6.9921    0.0000 C   0  0  0  0  0  0  0  0  0  0  0  0
    5.4005   -8.4211    0.0000 C   0  0  0  0  0  0  0  0  0  0  0  0
  1  2  1  0  0  0  0
  2  3  1  0  0  0  0
  3  4  1  0  0  0  0
  4  5  1  0  0  0  0
  5  6  1  0  0  0  0
  6  7  2  0  0  0  0
  7  8  1  0  0  0  0
  8  9  2  0  0  0  0
  9 10  1  0  0  0  0
  1 10  1  0  0  0  0
  5 10  2  0  0  0  0
  1 11  2  0  0  0  0
 12 13  1  0  0  0  0
 12 14  1  0  0  0  0
 12 15  1  0  0  0  0
  8 12  1  0  0  0  0
M  END
>  <cdx:groupId>
7498

>  <cdx:fragmentId>
7455

$$$$
