604647.cdx
  Mrv1902 05222410182D          

 34 38  0  0  0  0            999 V2000
    8.2066   -6.8354    0.0000 H   0  0  0  0  0  0  0  0  0  0  0  0
    7.8502   -7.0206    0.0000 H   0  0  0  0  0  0  0  0  0  0  0  0
    6.8874   -8.1249    0.0000 C   0  0  1  0  0  0  0  0  0  0  0  0
    7.4061   -7.4833    0.0000 C   0  0  0  0  0  0  0  0  0  0  0  0
    8.1765   -7.7783    0.0000 C   0  0  2  0  0  0  0  0  0  0  0  0
    8.1340   -8.6022    0.0000 N   0  0  0  0  0  0  0  0  0  0  0  0
    8.7776   -9.1178    0.0000 C   0  0  0  0  0  0  0  0  0  0  0  0
    8.7810   -9.9428    0.0000 C   0  0  0  0  0  0  0  0  0  0  0  0
    8.1403  -10.4625    0.0000 C   0  0  0  0  0  0  0  0  0  0  0  0
    7.3337  -10.2890    0.0000 C   0  0  0  0  0  0  0  0  0  0  0  0
    6.9634   -9.5518    0.0000 C   0  0  2  0  0  0  0  0  0  0  0  0
    6.1395   -9.5956    0.0000 C   0  0  2  0  0  0  0  0  0  0  0  0
    5.6896   -8.9041    0.0000 C   0  0  1  0  0  0  0  0  0  0  0  0
    4.8747   -8.7757    0.0000 O   0  0  0  0  0  0  0  0  0  0  0  0
    4.7450   -7.9610    0.0000 C   0  0  0  0  0  0  0  0  0  0  0  0
    5.4797   -7.5858    0.0000 C   0  0  2  0  0  0  0  0  0  0  0  0
    6.0636   -8.1687    0.0000 C   0  0  1  0  0  0  0  0  0  0  0  0
    7.3373   -8.8164    0.0000 C   0  0  1  0  0  0  0  0  0  0  0  0
    4.0096   -7.5871    0.0000 O   0  0  0  0  0  0  0  0  0  0  0  0
    5.6081   -6.7709    0.0000 C   0  0  0  0  0  0  0  0  0  0  0  0
    5.7656  -10.3310    0.0000 C   0  0  0  0  0  0  0  0  0  0  0  0
    4.9492  -10.4501    0.0000 C   0  0  0  0  0  0  0  0  0  0  0  0
    6.7683   -7.3085    0.0000 H   0  0  0  0  0  0  0  0  0  0  0  0
    6.5894  -10.2872    0.0000 H   0  0  0  0  0  0  0  0  0  0  0  0
    5.2409   -9.5964    0.0000 H   0  0  0  0  0  0  0  0  0  0  0  0
    6.1598   -7.3494    0.0000 H   0  0  0  0  0  0  0  0  0  0  0  0
    7.9207   -9.3998    0.0000 H   0  0  0  0  0  0  0  0  0  0  0  0
   10.9811   -7.0243    0.0000 C   0  0  0  0  0  0  0  0  0  0  0  0
   10.0023   -5.5199    0.0000 O   0  0  0  0  0  0  0  0  0  0  0  0
    9.7073   -6.2903    0.0000 C   0  0  0  0  0  0  0  0  0  0  0  0
   10.1572   -6.9818    0.0000 C   0  0  2  0  0  0  0  0  0  0  0  0
    9.6385   -7.6234    0.0000 C   0  0  0  0  0  0  0  0  0  0  0  0
    8.8680   -7.3284    0.0000 C   0  0  2  0  0  0  0  0  0  0  0  0
    8.9105   -6.5045    0.0000 O   0  0  0  0  0  0  0  0  0  0  0  0
 33  1  1  6  0  0  0
  5  2  1  6  0  0  0
 31 28  1  1  0  0  0
 30 29  2  0  0  0  0
 34 30  1  0  0  0  0
 31 30  1  0  0  0  0
 32 31  1  0  0  0  0
 33 32  1  0  0  0  0
 33 34  1  0  0  0  0
  3  4  1  0  0  0  0
  5  4  1  0  0  0  0
  5  6  1  0  0  0  0
  6  7  1  0  0  0  0
  7  8  1  0  0  0  0
  8  9  1  0  0  0  0
  9 10  1  0  0  0  0
 10 11  1  0  0  0  0
 11 12  1  0  0  0  0
 12 13  1  0  0  0  0
 13 14  1  0  0  0  0
 14 15  1  0  0  0  0
 15 16  1  0  0  0  0
 16 17  1  0  0  0  0
  3 17  1  0  0  0  0
  3 18  1  0  0  0  0
 18 11  1  0  0  0  0
 13 17  1  0  0  0  0
  6 18  1  0  0  0  0
 15 19  2  0  0  0  0
  5 33  1  0  0  0  0
 16 20  1  1  0  0  0
 21 22  1  0  0  0  0
 12 21  1  1  0  0  0
  3 23  1  1  0  0  0
 11 24  1  1  0  0  0
 13 25  1  6  0  0  0
 17 26  1  6  0  0  0
 18 27  1  6  0  0  0
M  END
>  <cdx:fragmentId>
25997

$$$$
