604908.cdx
  Mrv1902 05222410272D          

 15 15  0  0  0  0            999 V2000
   16.8977  -16.0666    0.0000 C   0  0  0  0  0  0  0  0  0  0  0  0
   17.6122  -16.4791    0.0000 C   0  0  0  0  0  0  0  0  0  0  0  0
   16.1832  -16.4791    0.0000 C   0  0  0  0  0  0  0  0  0  0  0  0
   16.1832  -17.3041    0.0000 C   0  0  0  0  0  0  0  0  0  0  0  0
   15.4688  -17.7166    0.0000 C   0  0  0  0  0  0  0  0  0  0  0  0
   14.7543  -17.3041    0.0000 C   0  0  0  0  0  0  0  0  0  0  0  0
   14.7543  -16.4791    0.0000 C   0  0  0  0  0  0  0  0  0  0  0  0
   15.4688  -16.0666    0.0000 C   0  0  0  0  0  0  0  0  0  0  0  0
   14.0398  -16.0666    0.0000 C   0  0  0  0  0  0  0  0  0  0  0  0
   13.3253  -16.4791    0.0000 C   0  0  0  0  0  0  0  0  0  0  0  0
   14.0398  -17.7166    0.0000 C   0  0  0  0  0  0  0  0  0  0  0  0
   13.3253  -17.3041    0.0000 C   0  0  0  0  0  0  0  0  0  0  0  0
   16.8977  -17.7166    0.0000 C   0  0  0  0  0  0  0  0  0  0  0  0
   17.6122  -17.3041    0.0000 C   0  0  0  0  0  0  0  0  0  0  0  0
   16.8977  -15.2416    0.0000 O   0  0  0  0  0  0  0  0  0  0  0  0
  1  2  1  0  0  0  0
  3  4  1  0  0  0  0
  4  5  2  0  0  0  0
  5  6  1  0  0  0  0
  6  7  2  0  0  0  0
  7  8  1  0  0  0  0
  3  8  2  0  0  0  0
  9 10  1  0  0  0  0
  7  9  1  0  0  0  0
 11 12  1  0  0  0  0
  6 11  1  0  0  0  0
 13 14  1  0  0  0  0
  4 13  1  0  0  0  0
  1  3  1  0  0  0  0
  1 15  2  0  0  0  0
M  END
>  <cdx:groupId>
7547

>  <cdx:fragmentId>
7509

$$$$
