6049.cdx
  Mrv1902 05222410182D          

 28 29  0  0  0  0            999 V2000
    1.2241   -9.0145    0.0000 C   0  0  0  0  0  0  0  0  0  0  0  0
    1.9382   -8.6013    0.0000 O   0  0  0  0  0  0  0  0  0  0  0  0
    1.9398  -10.2513    0.0000 O   0  0  0  0  0  0  0  0  0  0  0  0
    4.7961   -8.5985    0.0000 C   0  0  0  0  0  0  0  0  0  0  0  0
    5.5109   -9.0103    0.0000 C   0  0  0  0  0  0  0  0  0  0  0  0
    6.2250   -8.5971    0.0000 C   0  0  0  0  0  0  0  0  0  0  0  0
    6.9399   -9.0089    0.0000 C   0  0  0  0  0  0  0  0  0  0  0  0
    7.6540   -8.5957    0.0000 C   0  0  0  0  0  0  0  0  0  0  0  0
    8.3688   -9.0075    0.0000 C   0  0  0  0  0  0  0  0  0  0  0  0
    9.0829   -8.5944    0.0000 C   0  0  0  0  0  0  0  0  0  0  0  0
   12.6557   -9.0034    0.0000 C   0  0  0  0  0  0  0  0  0  0  0  0
   11.9408   -8.5916    0.0000 O   0  0  0  0  0  0  0  0  0  0  0  0
   11.9424  -10.2416    0.0000 O   0  0  0  0  0  0  0  0  0  0  0  0
   10.5143  -11.0680    0.0000 O   0  0  0  0  0  0  0  0  0  0  0  0
    6.2242   -7.7721    0.0000 O   0  0  0  0  0  0  0  0  0  0  0  0
    7.6531   -7.7707    0.0000 O   0  0  0  0  0  0  0  0  0  0  0  0
    4.0828   -9.8367    0.0000 C   0  0  0  0  0  0  0  0  0  0  0  0
    4.0820   -9.0117    0.0000 C   0  0  0  0  0  0  0  0  0  0  0  0
    9.7986   -9.8312    0.0000 C   0  0  0  0  0  0  0  0  0  0  0  0
   10.5134  -10.2430    0.0000 C   0  0  0  0  0  0  0  0  0  0  0  0
   11.2275   -9.8298    0.0000 C   0  0  0  0  0  0  0  0  0  0  0  0
   11.2267   -9.0048    0.0000 C   0  0  0  0  0  0  0  0  0  0  0  0
    3.3671   -8.5999    0.0000 C   0  0  0  0  0  0  0  0  0  0  0  0
    2.6531   -9.0131    0.0000 C   0  0  0  0  0  0  0  0  0  0  0  0
    2.6539   -9.8381    0.0000 C   0  0  0  0  0  0  0  0  0  0  0  0
    3.3687  -10.2499    0.0000 C   0  0  0  0  0  0  0  0  0  0  0  0
   10.5118   -8.5930    0.0000 C   0  0  0  0  0  0  0  0  0  0  0  0
    9.7978   -9.0062    0.0000 C   0  0  0  0  0  0  0  0  0  0  0  0
  2  1  1  0  0  0  0
 24  2  1  0  0  0  0
 25  3  1  0  0  0  0
 17 26  1  0  0  0  0
 18 17  2  0  0  0  0
 23 18  1  0  0  0  0
 24 23  2  0  0  0  0
 25 24  1  0  0  0  0
 26 25  2  0  0  0  0
 18  4  1  0  0  0  0
  4  5  1  0  0  0  0
  5  6  1  0  0  0  0
  6  7  1  0  0  0  0
  7  8  1  0  0  0  0
  8  9  1  0  0  0  0
  9 10  1  0  0  0  0
 12 11  1  0  0  0  0
 10 28  1  0  0  0  0
 22 12  1  0  0  0  0
 21 13  1  0  0  0  0
 20 14  1  0  0  0  0
 19 28  1  0  0  0  0
 20 19  2  0  0  0  0
 21 20  1  0  0  0  0
 22 21  2  0  0  0  0
  6 15  2  0  0  0  0
  8 16  1  0  0  0  0
 27 22  1  0  0  0  0
 28 27  2  0  0  0  0
M  END
>  <cdx:fragmentId>
5

$$$$
