604937.cdx
  Mrv1902 05222410262D          

 34 38  0  0  0  0            999 V2000
    4.0968   -9.7926    0.0000 C   0  0  0  0  0  0  0  0  0  0  0  0
    4.0968   -8.9676    0.0000 C   0  0  0  0  0  0  0  0  0  0  0  0
    4.8112   -8.5551    0.0000 C   0  0  0  0  0  0  0  0  0  0  0  0
    4.8112  -10.2051    0.0000 C   0  0  2  0  0  0  0  0  0  0  0  0
    5.2237  -10.9196    0.0000 C   0  0  0  0  0  0  0  0  0  0  0  0
    4.3987  -10.9196    0.0000 C   0  0  0  0  0  0  0  0  0  0  0  0
    5.5257   -9.7926    0.0000 C   0  0  0  0  0  0  0  0  0  0  0  0
    6.2402  -10.2051    0.0000 C   0  0  0  0  0  0  0  0  0  0  0  0
    6.9547   -9.7926    0.0000 C   0  0  0  0  0  0  0  0  0  0  0  0
    6.9547   -8.9676    0.0000 C   0  0  1  0  0  0  0  0  0  0  0  0
    6.9547   -8.1426    0.0000 C   0  0  0  0  0  0  0  0  0  0  0  0
    7.6691   -8.5551    0.0000 C   0  0  2  0  0  0  0  0  0  0  0  0
    7.6691   -9.3801    0.0000 C   0  0  0  0  0  0  0  0  0  0  0  0
    8.3836   -8.9676    0.0000 C   0  0  0  0  0  0  0  0  0  0  0  0
    9.0981   -8.5551    0.0000 C   0  0  0  0  0  0  0  0  0  0  0  0
    9.0981   -7.7301    0.0000 C   0  0  1  0  0  0  0  0  0  0  0  0
    9.8517   -8.0657    0.0000 H   0  0  0  0  0  0  0  0  0  0  0  0
    9.7112   -7.1781    0.0000 C   0  0  1  0  0  0  0  0  0  0  0  0
   10.5181   -7.3496    0.0000 C   0  0  0  0  0  0  0  0  0  0  0  0
   10.7731   -8.1342    0.0000 C   0  0  0  0  0  0  0  0  0  0  0  0
   11.1015   -6.7662    0.0000 C   0  0  0  0  0  0  0  0  0  0  0  0
    9.3756   -6.4244    0.0000 C   0  0  0  0  0  0  0  0  0  0  0  0
    8.5551   -6.5106    0.0000 C   0  0  0  0  0  0  0  0  0  0  0  0
    8.3836   -7.3176    0.0000 C   0  0  1  0  0  0  0  0  0  0  0  0
    8.3836   -8.1426    0.0000 C   0  0  0  0  0  0  0  0  0  0  0  0
    7.6691   -7.7301    0.0000 C   0  0  1  0  0  0  0  0  0  0  0  0
    7.6691   -6.9051    0.0000 H   0  0  0  0  0  0  0  0  0  0  0  0
    6.9547   -7.3176    0.0000 C   0  0  0  0  0  0  0  0  0  0  0  0
    6.2402   -7.7301    0.0000 C   0  0  0  0  0  0  0  0  0  0  0  0
    6.2402   -8.5551    0.0000 C   0  0  2  0  0  0  0  0  0  0  0  0
    5.5257   -8.9676    0.0000 C   0  0  1  0  0  0  0  0  0  0  0  0
    5.5257   -8.1426    0.0000 C   0  0  0  0  0  0  0  0  0  0  0  0
    3.3823  -10.2051    0.0000 O   0  0  0  0  0  0  0  0  0  0  0  0
    6.2402   -9.3801    0.0000 H   0  0  0  0  0  0  0  0  0  0  0  0
  1  2  1  0  0  0  0
  2  3  1  0  0  0  0
  1  4  1  0  0  0  0
  4  5  1  6  0  0  0
  4  6  1  1  0  0  0
  4  7  1  0  0  0  0
  7  8  1  0  0  0  0
  8  9  1  0  0  0  0
  9 10  1  0  0  0  0
 10 11  1  1  0  0  0
 10 12  1  0  0  0  0
 12 13  1  6  0  0  0
 12 14  1  0  0  0  0
 14 15  1  0  0  0  0
 15 16  1  0  0  0  0
 16 17  1  1  0  0  0
 16 18  1  0  0  0  0
 18 19  1  6  0  0  0
 19 20  2  0  0  0  0
 19 21  1  0  0  0  0
 18 22  1  0  0  0  0
 22 23  1  0  0  0  0
 23 24  1  0  0  0  0
 24 25  1  6  0  0  0
 16 24  1  0  0  0  0
 24 26  1  0  0  0  0
 12 26  1  0  0  0  0
 26 27  1  1  0  0  0
 26 28  1  0  0  0  0
 28 29  1  0  0  0  0
 29 30  1  0  0  0  0
 10 30  1  0  0  0  0
 30 31  1  0  0  0  0
  3 31  1  0  0  0  0
  7 31  1  0  0  0  0
 31 32  1  1  0  0  0
  1 33  2  0  0  0  0
 30 34  1  6  0  0  0
M  END
>  <cdx:groupId>
7660

>  <cdx:fragmentId>
7557

$$$$
