6050.cdx
  Mrv1902 05222410282D          

 24 25  0  0  0  0            999 V2000
    5.7633   -8.0522    0.0000 C   0  0  0  0  0  0  0  0  0  0  0  0
    6.4777   -8.4647    0.0000 C   0  0  0  0  0  0  0  0  0  0  0  0
    7.1922   -8.0522    0.0000 C   0  0  0  0  0  0  0  0  0  0  0  0
    7.9067   -8.4647    0.0000 C   0  0  0  0  0  0  0  0  0  0  0  0
    8.6212   -8.0522    0.0000 C   0  0  0  0  0  0  0  0  0  0  0  0
    9.3356   -8.4647    0.0000 C   0  0  0  0  0  0  0  0  0  0  0  0
   10.0501   -8.0522    0.0000 C   0  0  0  0  0  0  0  0  0  0  0  0
    7.1922   -7.2272    0.0000 O   0  0  0  0  0  0  0  0  0  0  0  0
   10.7646   -8.4647    0.0000 C   0  0  0  0  0  0  0  0  0  0  0  0
   11.4790   -8.0522    0.0000 C   0  0  0  0  0  0  0  0  0  0  0  0
   12.1935   -8.4647    0.0000 C   0  0  0  0  0  0  0  0  0  0  0  0
   12.1935   -9.2897    0.0000 C   0  0  0  0  0  0  0  0  0  0  0  0
   11.4790   -9.7022    0.0000 C   0  0  0  0  0  0  0  0  0  0  0  0
   10.7646   -9.2897    0.0000 C   0  0  0  0  0  0  0  0  0  0  0  0
    5.0488   -8.4647    0.0000 C   0  0  0  0  0  0  0  0  0  0  0  0
    4.3343   -8.0522    0.0000 C   0  0  0  0  0  0  0  0  0  0  0  0
    3.6199   -8.4647    0.0000 C   0  0  0  0  0  0  0  0  0  0  0  0
    3.6199   -9.2897    0.0000 C   0  0  0  0  0  0  0  0  0  0  0  0
    4.3343   -9.7022    0.0000 C   0  0  0  0  0  0  0  0  0  0  0  0
    5.0488   -9.2897    0.0000 C   0  0  0  0  0  0  0  0  0  0  0  0
    2.9054   -9.7022    0.0000 O   0  0  0  0  0  0  0  0  0  0  0  0
    2.9054   -8.0522    0.0000 O   0  0  0  0  0  0  0  0  0  0  0  0
    2.1909   -8.4647    0.0000 C   0  0  0  0  0  0  0  0  0  0  0  0
    8.6212   -7.2272    0.0000 O   0  0  0  0  0  0  0  0  0  0  0  0
  1  2  1  0  0  0  0
  2  3  1  0  0  0  0
  3  4  1  0  0  0  0
  4  5  2  0  0  0  0
  5  6  1  0  0  0  0
  6  7  2  0  0  0  0
  3  8  2  0  0  0  0
  9 10  1  0  0  0  0
 10 11  2  0  0  0  0
 11 12  1  0  0  0  0
 12 13  2  0  0  0  0
 13 14  1  0  0  0  0
  9 14  2  0  0  0  0
  7  9  1  0  0  0  0
 15 16  1  0  0  0  0
 16 17  2  0  0  0  0
 17 18  1  0  0  0  0
 18 19  2  0  0  0  0
 19 20  1  0  0  0  0
 15 20  2  0  0  0  0
 18 21  1  0  0  0  0
 22 23  1  0  0  0  0
 17 22  1  0  0  0  0
  1 15  1  0  0  0  0
  5 24  1  0  0  0  0
M  END
>  <cdx:fragmentId>
5

$$$$
