605048.cdx
  Mrv1902 05222410212D          

 15 16  0  0  0  0            999 V2000
    8.4580   -8.2712    0.0000 O   0  0  0  0  0  0  0  0  0  0  0  0
    9.1725   -7.8587    0.0000 C   0  0  0  0  0  0  0  0  0  0  0  0
    9.8870   -8.2712    0.0000 O   0  0  0  0  0  0  0  0  0  0  0  0
    9.1725   -7.0337    0.0000 C   0  0  0  0  0  0  0  0  0  0  0  0
    8.4580   -6.6212    0.0000 C   0  0  0  0  0  0  0  0  0  0  0  0
    7.7436   -7.0337    0.0000 C   0  0  0  0  0  0  0  0  0  0  0  0
    7.0291   -6.6212    0.0000 C   0  0  0  0  0  0  0  0  0  0  0  0
    6.3146   -7.0337    0.0000 C   0  0  0  0  0  0  0  0  0  0  0  0
    6.3146   -7.8587    0.0000 C   0  0  0  0  0  0  0  0  0  0  0  0
    7.0291   -8.2712    0.0000 C   0  0  0  0  0  0  0  0  0  0  0  0
    7.7436   -7.8587    0.0000 C   0  0  0  0  0  0  0  0  0  0  0  0
    5.6002   -6.6212    0.0000 C   0  0  0  0  0  0  0  0  0  0  0  0
    4.8857   -7.0337    0.0000 C   0  0  0  0  0  0  0  0  0  0  0  0
    8.0455   -5.9068    0.0000 C   0  0  0  0  0  0  0  0  0  0  0  0
    8.8705   -5.9068    0.0000 C   0  0  0  0  0  0  0  0  0  0  0  0
  1  2  1  0  0  0  0
  2  3  2  0  0  0  0
  2  4  1  0  0  0  0
  4  5  1  0  0  0  0
  5  6  1  0  0  0  0
  6  7  1  0  0  0  0
  7  8  2  0  0  0  0
  8  9  1  0  0  0  0
  9 10  2  0  0  0  0
 10 11  1  0  0  0  0
  1 11  1  0  0  0  0
  6 11  2  0  0  0  0
 12 13  1  0  0  0  0
  8 12  1  0  0  0  0
  5 14  1  0  0  0  0
  5 15  1  0  0  0  0
M  END
>  <cdx:fragmentId>
7725

$$$$
