605164.cdx
  Mrv1902 05222410192D          

 40 43  0  0  0  0            999 V2000
    9.1555   -7.7457    0.0000 O   0  0  0  0  0  0  0  0  0  0  0  0
    4.1205   -8.1178    0.0000 C   0  0  0  0  0  0  0  0  0  0  0  0
    4.8049   -7.6572    0.0000 O   0  0  0  0  0  0  0  0  0  0  0  0
    4.2888   -9.8040    0.0000 C   0  0  0  0  0  0  0  0  0  0  0  0
    4.5171   -9.0112    0.0000 O   0  0  0  0  0  0  0  0  0  0  0  0
    6.2344  -10.7934    0.0000 C   0  0  0  0  0  0  0  0  0  0  0  0
    5.6620  -10.1993    0.0000 O   0  0  0  0  0  0  0  0  0  0  0  0
    6.1784   -3.8795    0.0000 C   0  0  0  0  0  0  0  0  0  0  0  0
    5.7659   -4.5940    0.0000 O   0  0  0  0  0  0  0  0  0  0  0  0
    4.3790   -4.9382    0.0000 C   0  0  0  0  0  0  0  0  0  0  0  0
    4.5777   -5.7389    0.0000 O   0  0  0  0  0  0  0  0  0  0  0  0
    4.1483   -6.6169    0.0000 C   0  0  0  0  0  0  0  0  0  0  0  0
    4.8152   -7.1026    0.0000 O   0  0  0  0  0  0  0  0  0  0  0  0
    8.9954   -8.3565    0.0000 C   0  0  0  0  0  0  0  0  0  0  0  0
    9.1213   -6.7314    0.0000 C   0  0  0  0  0  0  0  0  0  0  0  0
    5.5692   -6.7678    0.0000 C   0  0  0  0  0  0  0  0  0  0  0  0
    5.3705   -5.9671    0.0000 C   0  0  0  0  0  0  0  0  0  0  0  0
    5.9646   -5.3947    0.0000 C   0  0  0  0  0  0  0  0  0  0  0  0
    6.7574   -5.6229    0.0000 C   0  0  0  0  0  0  0  0  0  0  0  0
    6.9561   -6.4236    0.0000 C   0  0  0  0  0  0  0  0  0  0  0  0
    7.7810   -6.4389    0.0000 C   0  0  0  0  0  0  0  0  0  0  0  0
    8.3534   -7.0330    0.0000 C   0  0  1  0  0  0  0  0  0  0  0  0
    8.3381   -7.8578    0.0000 C   0  0  1  0  0  0  0  0  0  0  0  0
    7.7441   -8.4303    0.0000 C   0  0  2  0  0  0  0  0  0  0  0  0
    6.9192   -8.4150    0.0000 C   0  0  0  0  0  0  0  0  0  0  0  0
    6.6909   -9.2078    0.0000 C   0  0  0  0  0  0  0  0  0  0  0  0
    5.8902   -9.4065    0.0000 C   0  0  0  0  0  0  0  0  0  0  0  0
    5.3178   -8.8125    0.0000 C   0  0  0  0  0  0  0  0  0  0  0  0
    5.5460   -8.0197    0.0000 C   0  0  0  0  0  0  0  0  0  0  0  0
    6.3467   -7.8209    0.0000 C   0  0  0  0  0  0  0  0  0  0  0  0
    6.3620   -6.9961    0.0000 C   0  0  0  0  0  0  0  0  0  0  0  0
    8.0456   -9.1982    0.0000 O   0  0  0  0  0  0  0  0  0  0  0  0
    9.3757   -8.6759    0.0000 O   0  0  0  0  0  0  0  0  0  0  0  0
    9.9787  -10.2118    0.0000 C   0  0  0  0  0  0  0  0  0  0  0  0
   10.2803  -10.9797    0.0000 C   0  0  0  0  0  0  0  0  0  0  0  0
    9.7660  -11.6248    0.0000 C   0  0  0  0  0  0  0  0  0  0  0  0
    8.9502  -11.5020    0.0000 C   0  0  0  0  0  0  0  0  0  0  0  0
    8.6487  -10.7340    0.0000 C   0  0  0  0  0  0  0  0  0  0  0  0
    9.1629  -10.0890    0.0000 C   0  0  0  0  0  0  0  0  0  0  0  0
    8.8614   -9.3210    0.0000 C   0  0  0  0  0  0  0  0  0  0  0  0
 24 32  1  1  0  0  0
 23  1  1  6  0  0  0
 29  3  1  0  0  0  0
  3  2  1  0  0  0  0
 28  5  1  0  0  0  0
  5  4  1  0  0  0  0
 27  7  1  0  0  0  0
  7  6  1  0  0  0  0
 18  9  1  0  0  0  0
  9  8  1  0  0  0  0
 17 11  1  0  0  0  0
 11 10  1  0  0  0  0
 16 13  1  0  0  0  0
 13 12  1  0  0  0  0
 23 14  1  1  0  0  0
 22 15  1  6  0  0  0
 30 25  1  0  0  0  0
 31 20  1  0  0  0  0
 31 16  2  0  0  0  0
 17 16  1  0  0  0  0
 18 17  2  0  0  0  0
 19 18  1  0  0  0  0
 20 19  2  0  0  0  0
 21 20  1  0  0  0  0
 22 21  1  0  0  0  0
 23 22  1  0  0  0  0
 24 23  1  0  0  0  0
 25 24  1  0  0  0  0
 26 25  2  0  0  0  0
 27 26  1  0  0  0  0
 28 27  2  0  0  0  0
 29 28  1  0  0  0  0
 30 29  2  0  0  0  0
 31 30  1  0  0  0  0
 40 32  1  0  0  0  0
 40 33  2  0  0  0  0
 39 34  2  0  0  0  0
 35 34  1  0  0  0  0
 36 35  2  0  0  0  0
 37 36  1  0  0  0  0
 38 37  2  0  0  0  0
 39 38  1  0  0  0  0
 40 39  1  0  0  0  0
M  END
>  <cdx:fragmentId>
107619

$$$$
