6051.cdx
  Mrv1902 05222410282D          

 26 27  0  0  0  0            999 V2000
    1.5416   -6.3122    0.0000 C   0  0  0  0  0  0  0  0  0  0  0  0
    2.2551   -5.8980    0.0000 O   0  0  0  0  0  0  0  0  0  0  0  0
    2.2590   -7.5480    0.0000 O   0  0  0  0  0  0  0  0  0  0  0  0
    5.1130   -5.8913    0.0000 C   0  0  0  0  0  0  0  0  0  0  0  0
    5.8284   -6.3021    0.0000 C   0  0  0  0  0  0  0  0  0  0  0  0
    6.5419   -5.8879    0.0000 C   0  0  0  0  0  0  0  0  0  0  0  0
    7.2573   -6.2987    0.0000 C   0  0  0  0  0  0  0  0  0  0  0  0
    7.9708   -5.8846    0.0000 C   0  0  0  0  0  0  0  0  0  0  0  0
    8.6863   -6.2954    0.0000 C   0  0  0  0  0  0  0  0  0  0  0  0
    9.3998   -5.8812    0.0000 C   0  0  0  0  0  0  0  0  0  0  0  0
   10.1152   -6.2920    0.0000 C   0  0  0  0  0  0  0  0  0  0  0  0
   10.1172   -7.1170    0.0000 C   0  0  0  0  0  0  0  0  0  0  0  0
   10.8326   -7.5278    0.0000 C   0  0  0  0  0  0  0  0  0  0  0  0
   11.5461   -7.1136    0.0000 C   0  0  0  0  0  0  0  0  0  0  0  0
   11.5442   -6.2886    0.0000 C   0  0  0  0  0  0  0  0  0  0  0  0
   10.8287   -5.8778    0.0000 C   0  0  0  0  0  0  0  0  0  0  0  0
    4.4014   -7.1305    0.0000 C   0  0  0  0  0  0  0  0  0  0  0  0
    4.3995   -6.3055    0.0000 C   0  0  0  0  0  0  0  0  0  0  0  0
    6.5399   -5.0629    0.0000 O   0  0  0  0  0  0  0  0  0  0  0  0
    7.9689   -5.0596    0.0000 O   0  0  0  0  0  0  0  0  0  0  0  0
   12.2615   -7.5244    0.0000 O   0  0  0  0  0  0  0  0  0  0  0  0
    3.6840   -5.8947    0.0000 C   0  0  0  0  0  0  0  0  0  0  0  0
    2.9705   -6.3089    0.0000 C   0  0  0  0  0  0  0  0  0  0  0  0
    2.9725   -7.1338    0.0000 C   0  0  0  0  0  0  0  0  0  0  0  0
    3.6879   -7.5447    0.0000 C   0  0  0  0  0  0  0  0  0  0  0  0
   12.2576   -5.8744    0.0000 O   0  0  0  0  0  0  0  0  0  0  0  0
  2  1  1  0  0  0  0
 23  2  1  0  0  0  0
 24  3  1  0  0  0  0
 17 25  1  0  0  0  0
 18 17  2  0  0  0  0
 22 18  1  0  0  0  0
 23 22  2  0  0  0  0
 24 23  1  0  0  0  0
 25 24  2  0  0  0  0
 18  4  1  0  0  0  0
  4  5  1  0  0  0  0
  5  6  1  0  0  0  0
  6  7  1  0  0  0  0
  7  8  1  0  0  0  0
  8  9  1  0  0  0  0
  9 10  1  0  0  0  0
 10 11  1  0  0  0  0
 11 12  2  0  0  0  0
 12 13  1  0  0  0  0
 13 14  2  0  0  0  0
 14 15  1  0  0  0  0
 15 16  2  0  0  0  0
 16 11  1  0  0  0  0
  6 19  2  0  0  0  0
  8 20  1  0  0  0  0
 14 21  1  0  0  0  0
 15 26  1  0  0  0  0
M  END
>  <cdx:fragmentId>
5

$$$$
