605135.cdx
  Mrv1902 05222410232D          

 19 20  0  0  0  0            999 V2000
   17.5047  -15.0453    0.0000 C   0  0  0  0  0  0  0  0  0  0  0  0
   17.5047  -15.8703    0.0000 C   0  0  0  0  0  0  0  0  0  0  0  0
   16.7903  -16.2828    0.0000 C   0  0  0  0  0  0  0  0  0  0  0  0
   16.0758  -15.8703    0.0000 C   0  0  0  0  0  0  0  0  0  0  0  0
   15.3613  -16.2828    0.0000 C   0  0  0  0  0  0  0  0  0  0  0  0
   14.6469  -15.8703    0.0000 C   0  0  0  0  0  0  0  0  0  0  0  0
   14.6469  -15.0453    0.0000 C   0  0  0  0  0  0  0  0  0  0  0  0
   15.3613  -14.6328    0.0000 C   0  0  0  0  0  0  0  0  0  0  0  0
   16.0758  -15.0453    0.0000 C   0  0  0  0  0  0  0  0  0  0  0  0
   16.7903  -14.6328    0.0000 O   0  0  0  0  0  0  0  0  0  0  0  0
   18.2192  -14.6328    0.0000 O   0  0  0  0  0  0  0  0  0  0  0  0
   13.9324  -16.2828    0.0000 C   0  0  0  0  0  0  0  0  0  0  0  0
   13.9324  -17.1078    0.0000 C   0  0  0  0  0  0  0  0  0  0  0  0
   13.2179  -17.5203    0.0000 C   0  0  0  0  0  0  0  0  0  0  0  0
   12.5034  -17.1078    0.0000 C   0  0  0  0  0  0  0  0  0  0  0  0
   14.6469  -17.5203    0.0000 O   0  0  0  0  0  0  0  0  0  0  0  0
   13.2179  -18.3453    0.0000 C   0  0  0  0  0  0  0  0  0  0  0  0
   13.9324  -14.6328    0.0000 O   0  0  0  0  0  0  0  0  0  0  0  0
   13.2179  -15.0453    0.0000 C   0  0  0  0  0  0  0  0  0  0  0  0
  1  2  1  0  0  0  0
  2  3  2  0  0  0  0
  3  4  1  0  0  0  0
  4  5  1  0  0  0  0
  5  6  2  0  0  0  0
  6  7  1  0  0  0  0
  7  8  2  0  0  0  0
  8  9  1  0  0  0  0
  4  9  2  0  0  0  0
  9 10  1  0  0  0  0
  1 10  1  0  0  0  0
  1 11  2  0  0  0  0
 12 13  1  0  0  0  0
 13 14  1  0  0  0  0
 14 15  1  0  0  0  0
 13 16  2  0  0  0  0
 14 17  1  0  0  0  0
  6 12  1  0  0  0  0
 18 19  1  0  0  0  0
  7 18  1  0  0  0  0
M  END
>  <cdx:groupId>
7832

>  <cdx:fragmentId>
7777

$$$$
