6053.cdx
  Mrv1902 05222410272D          

 22 22  0  0  0  0            999 V2000
    2.3215   -6.2494    0.0000 C   0  0  0  0  0  0  0  0  0  0  0  0
    2.3215   -7.0744    0.0000 C   0  0  0  0  0  0  0  0  0  0  0  0
    3.0360   -7.4869    0.0000 C   0  0  0  0  0  0  0  0  0  0  0  0
    3.7505   -7.0744    0.0000 C   0  0  0  0  0  0  0  0  0  0  0  0
    3.7505   -6.2494    0.0000 C   0  0  0  0  0  0  0  0  0  0  0  0
    3.0360   -5.8369    0.0000 C   0  0  0  0  0  0  0  0  0  0  0  0
    1.6071   -5.8369    0.0000 O   0  0  0  0  0  0  0  0  0  0  0  0
    1.6071   -7.4869    0.0000 O   0  0  0  0  0  0  0  0  0  0  0  0
    4.4649   -5.8369    0.0000 C   0  0  0  0  0  0  0  0  0  0  0  0
    5.1794   -6.2494    0.0000 C   0  0  0  0  0  0  0  0  0  0  0  0
    5.8939   -5.8369    0.0000 C   0  0  0  0  0  0  0  0  0  0  0  0
    6.6084   -6.2494    0.0000 C   0  0  0  0  0  0  0  0  0  0  0  0
    7.3228   -5.8369    0.0000 C   0  0  0  0  0  0  0  0  0  0  0  0
    8.0373   -6.2494    0.0000 C   0  0  0  0  0  0  0  0  0  0  0  0
    7.3228   -5.0119    0.0000 O   0  0  0  0  0  0  0  0  0  0  0  0
    0.8926   -6.2494    0.0000 C   0  0  0  0  0  0  0  0  0  0  0  0
    8.7518   -5.8369    0.0000 C   0  0  0  0  0  0  0  0  0  0  0  0
    9.4662   -6.2494    0.0000 C   0  0  0  0  0  0  0  0  0  0  0  0
   10.1807   -5.8369    0.0000 C   0  0  0  0  0  0  0  0  0  0  0  0
   10.8952   -6.2494    0.0000 C   0  0  0  0  0  0  0  0  0  0  0  0
   11.6097   -5.8369    0.0000 C   0  0  0  0  0  0  0  0  0  0  0  0
   12.3241   -6.2494    0.0000 C   0  0  0  0  0  0  0  0  0  0  0  0
  1  2  2  0  0  0  0
  2  3  1  0  0  0  0
  3  4  2  0  0  0  0
  4  5  1  0  0  0  0
  5  6  2  0  0  0  0
  6  1  1  0  0  0  0
  1  7  1  0  0  0  0
  2  8  1  0  0  0  0
  5  9  1  0  0  0  0
  9 10  1  0  0  0  0
 10 11  1  0  0  0  0
 11 12  1  0  0  0  0
 12 13  1  0  0  0  0
 13 14  1  0  0  0  0
 13 15  1  0  0  0  0
  7 16  1  0  0  0  0
 14 17  1  0  0  0  0
 17 18  1  0  0  0  0
 18 19  1  0  0  0  0
 19 20  1  0  0  0  0
 20 21  1  0  0  0  0
 21 22  1  0  0  0  0
M  END
>  <cdx:fragmentId>
5

$$$$
