6054.cdx
  Mrv1902 05222410262D          

  9  9  0  0  0  0            999 V2000
    8.4002   -6.4952    0.0000 C   0  0  0  0  0  0  0  0  0  0  0  0
    7.6857   -6.9077    0.0000 C   0  0  0  0  0  0  0  0  0  0  0  0
    6.9712   -6.4952    0.0000 C   0  0  0  0  0  0  0  0  0  0  0  0
    6.2567   -6.9077    0.0000 C   0  0  0  0  0  0  0  0  0  0  0  0
    5.5423   -6.4952    0.0000 C   0  0  0  0  0  0  0  0  0  0  0  0
    5.5423   -5.6702    0.0000 C   0  0  0  0  0  0  0  0  0  0  0  0
    6.2567   -5.2577    0.0000 C   0  0  0  0  0  0  0  0  0  0  0  0
    6.9712   -5.6702    0.0000 C   0  0  0  0  0  0  0  0  0  0  0  0
    9.1146   -6.9077    0.0000 O   0  0  0  0  0  0  0  0  0  0  0  0
  1  2  1  0  0  0  0
  3  4  1  0  0  0  0
  4  5  2  0  0  0  0
  5  6  1  0  0  0  0
  6  7  2  0  0  0  0
  7  8  1  0  0  0  0
  3  8  2  0  0  0  0
  2  3  1  0  0  0  0
  1  9  1  0  0  0  0
M  END
>  <cdx:groupId>
29

>  <cdx:fragmentId>
9

$$$$
