605580.cdx
  Mrv1902 05222410282D          

 16 17  0  0  0  0            999 V2000
    9.7304  -15.9343    0.0000 C   0  0  0  0  0  0  0  0  0  0  0  0
    8.9054  -15.9343    0.0000 C   0  0  0  0  0  0  0  0  0  0  0  0
    8.4929  -15.2199    0.0000 C   0  0  0  0  0  0  0  0  0  0  0  0
    7.6679  -15.2199    0.0000 C   0  0  0  0  0  0  0  0  0  0  0  0
    8.4929  -16.6488    0.0000 O   0  0  0  0  0  0  0  0  0  0  0  0
    7.2554  -14.5054    0.0000 C   0  0  2  0  0  0  0  0  0  0  0  0
    6.5409  -14.9179    0.0000 C   0  0  0  0  0  0  0  0  0  0  0  0
    5.8264  -14.5054    0.0000 C   0  0  0  0  0  0  0  0  0  0  0  0
    5.8264  -13.6804    0.0000 C   0  0  1  0  0  0  0  0  0  0  0  0
    6.5409  -13.2679    0.0000 C   0  0  0  0  0  0  0  0  0  0  0  0
    7.2554  -13.6804    0.0000 C   0  0  1  0  0  0  0  0  0  0  0  0
    7.9699  -14.0929    0.0000 O   0  0  0  0  0  0  0  0  0  0  0  0
    7.6679  -12.9659    0.0000 C   0  0  0  0  0  0  0  0  0  0  0  0
    6.9534  -15.6324    0.0000 C   0  0  0  0  0  0  0  0  0  0  0  0
    6.1284  -15.6324    0.0000 C   0  0  0  0  0  0  0  0  0  0  0  0
    5.1120  -13.2679    0.0000 O   0  0  0  0  0  0  0  0  0  0  0  0
  1  2  1  0  0  0  0
  2  3  1  0  0  0  0
  3  4  2  0  0  0  0
  2  5  2  0  0  0  0
  6  7  1  0  0  0  0
  7  8  1  0  0  0  0
  8  9  1  0  0  0  0
  9 10  1  0  0  0  0
 10 11  1  0  0  0  0
 11 12  1  0  0  0  0
  6 12  1  0  0  0  0
  6 11  1  0  0  0  0
 11 13  1  6  0  0  0
  7 14  1  0  0  0  0
  7 15  1  0  0  0  0
  9 16  1  6  0  0  0
  6  4  1  6  0  0  0
M  END
>  <cdx:groupId>
107784

>  <cdx:fragmentId>
107748

$$$$
