605548.cdx
  Mrv1902 05222410192D          

 27 31  0  0  0  0            999 V2000
    5.4020   -5.6219    0.0000 H   0  0  0  0  0  0  0  0  0  0  0  0
    6.6215   -6.5079    0.0000 H   0  0  0  0  0  0  0  0  0  0  0  0
    9.6649   -6.2146    0.0000 O   0  0  0  0  0  0  0  0  0  0  0  0
    4.4326   -4.4248    0.0000 C   0  0  0  0  0  0  0  0  0  0  0  0
    9.4840   -4.7296    0.0000 C   0  0  0  0  0  0  0  0  0  0  0  0
    5.2663   -3.7887    0.0000 O   0  0  0  0  0  0  0  0  0  0  0  0
    5.9070   -3.2864    0.0000 O   0  0  0  0  0  0  0  0  0  0  0  0
    7.3360   -3.2864    0.0000 O   0  0  0  0  0  0  0  0  0  0  0  0
    6.6215   -3.6989    0.0000 C   0  0  0  0  0  0  0  0  0  0  0  0
    7.8112   -5.9437    0.0000 C   0  0  0  0  0  0  0  0  0  0  0  0
    5.5550   -4.3656    0.0000 C   0  0  0  0  0  0  0  0  0  0  0  0
    6.6413   -5.1494    0.0000 O   0  0  0  0  0  0  0  0  0  0  0  0
    5.6570   -6.4066    0.0000 C   0  0  0  0  0  0  0  0  0  0  0  0
    4.8500   -6.2350    0.0000 C   0  0  1  0  0  0  0  0  0  0  0  0
    4.5951   -5.4504    0.0000 C   0  0  0  0  0  0  0  0  0  0  0  0
    5.1471   -4.8373    0.0000 C   0  0  1  0  0  0  0  0  0  0  0  0
    5.9541   -5.0088    0.0000 C   0  0  1  0  0  0  0  0  0  0  0  0
    6.6215   -4.5239    0.0000 C   0  0  1  0  0  0  0  0  0  0  0  0
    7.2889   -5.0088    0.0000 C   0  0  1  0  0  0  0  0  0  0  0  0
    8.0613   -4.7190    0.0000 C   0  0  0  0  0  0  0  0  0  0  0  0
    8.7696   -5.1421    0.0000 C   0  0  0  0  0  0  0  0  0  0  0  0
    8.8803   -5.9596    0.0000 C   0  0  1  0  0  0  0  0  0  0  0  0
    8.3102   -6.5559    0.0000 C   0  0  0  0  0  0  0  0  0  0  0  0
    7.4885   -6.4820    0.0000 C   0  0  0  0  0  0  0  0  0  0  0  0
    7.0340   -5.7935    0.0000 C   0  0  1  0  0  0  0  0  0  0  0  0
    6.2090   -5.7935    0.0000 C   0  0  1  0  0  0  0  0  0  0  0  0
    4.2980   -6.8481    0.0000 O   0  0  0  0  0  0  0  0  0  0  0  0
 17  1  1  6  0  0  0
 25  2  1  6  0  0  0
 22  3  1  1  0  0  0
 16  4  1  6  0  0  0
 21  5  2  0  0  0  0
 11  6  2  0  0  0  0
 18  9  1  6  0  0  0
  9  7  1  0  0  0  0
  9  8  2  0  0  0  0
 25 19  1  0  0  0  0
 22 10  1  0  0  0  0
 19 10  1  1  0  0  0
 26 17  1  0  0  0  0
 16 11  1  0  0  0  0
 26 12  1  1  0  0  0
 26 13  1  0  0  0  0
 12 11  1  0  0  0  0
 14 13  1  0  0  0  0
 15 14  1  0  0  0  0
 16 15  1  0  0  0  0
 17 16  1  0  0  0  0
 18 17  1  0  0  0  0
 19 18  1  0  0  0  0
 20 19  1  0  0  0  0
 21 20  1  0  0  0  0
 22 21  1  0  0  0  0
 23 22  1  0  0  0  0
 24 23  1  0  0  0  0
 25 24  1  0  0  0  0
 26 25  1  0  0  0  0
 14 27  1  6  0  0  0
M  END
>  <cdx:groupId>
96

>  <cdx:fragmentId>
97

$$$$
