605578.cdx
  Mrv1902 05222410262D          

 24 26  0  0  0  0            999 V2000
   15.8303  -15.7989    0.0000 C   0  0  0  0  0  0  0  0  0  0  0  0
   15.8303  -14.9739    0.0000 C   0  0  0  0  0  0  0  0  0  0  0  0
   15.1158  -14.5614    0.0000 C   0  0  0  0  0  0  0  0  0  0  0  0
   14.4013  -14.9739    0.0000 C   0  0  0  0  0  0  0  0  0  0  0  0
   14.4013  -15.7989    0.0000 C   0  0  0  0  0  0  0  0  0  0  0  0
   13.6869  -16.2114    0.0000 C   0  0  0  0  0  0  0  0  0  0  0  0
   12.9724  -15.7989    0.0000 C   0  0  0  0  0  0  0  0  0  0  0  0
   12.2579  -16.2114    0.0000 C   0  0  0  0  0  0  0  0  0  0  0  0
   12.2579  -17.0364    0.0000 C   0  0  0  0  0  0  0  0  0  0  0  0
   12.9724  -17.4489    0.0000 C   0  0  0  0  0  0  0  0  0  0  0  0
   13.6869  -17.0364    0.0000 C   0  0  0  0  0  0  0  0  0  0  0  0
   14.4013  -17.4489    0.0000 C   0  0  0  0  0  0  0  0  0  0  0  0
   15.1158  -17.0364    0.0000 C   0  0  0  0  0  0  0  0  0  0  0  0
   15.1158  -16.2114    0.0000 C   0  0  0  0  0  0  0  0  0  0  0  0
   16.5448  -16.2114    0.0000 C   0  0  0  0  0  0  0  0  0  0  0  0
   17.2592  -15.7989    0.0000 C   0  0  0  0  0  0  0  0  0  0  0  0
   17.9737  -16.2114    0.0000 C   0  0  0  0  0  0  0  0  0  0  0  0
   17.9737  -17.0364    0.0000 C   0  0  0  0  0  0  0  0  0  0  0  0
   18.6882  -15.7989    0.0000 C   0  0  0  0  0  0  0  0  0  0  0  0
   15.8303  -16.6239    0.0000 C   0  0  0  0  0  0  0  0  0  0  0  0
   13.3849  -18.1634    0.0000 C   0  0  0  0  0  0  0  0  0  0  0  0
   12.5599  -18.1634    0.0000 C   0  0  0  0  0  0  0  0  0  0  0  0
   13.6869  -15.3864    0.0000 C   0  0  0  0  0  0  0  0  0  0  0  0
   16.5448  -14.5614    0.0000 C   0  0  0  0  0  0  0  0  0  0  0  0
  1  2  1  0  0  0  0
  2  3  1  0  0  0  0
  3  4  1  0  0  0  0
  4  5  1  0  0  0  0
  5  6  1  0  0  0  0
  6  7  1  0  0  0  0
  7  8  1  0  0  0  0
  8  9  1  0  0  0  0
  9 10  1  0  0  0  0
 10 11  1  0  0  0  0
  6 11  1  0  0  0  0
 11 12  1  0  0  0  0
 12 13  1  0  0  0  0
 13 14  1  0  0  0  0
  1 14  1  0  0  0  0
  5 14  1  0  0  0  0
 15 16  1  0  0  0  0
 16 17  1  0  0  0  0
 17 18  1  0  0  0  0
 17 19  1  0  0  0  0
  1 15  1  0  0  0  0
 14 20  1  0  0  0  0
 10 21  1  0  0  0  0
 10 22  1  0  0  0  0
  6 23  1  0  0  0  0
  2 24  1  0  0  0  0
M  END
>  <cdx:groupId>
7914

>  <cdx:fragmentId>
7843

$$$$
