6055.cdx
  Mrv1902 05222410262D          

 25 26  0  0  0  0            999 V2000
    2.3545   -7.6106    0.0000 C   0  0  0  0  0  0  0  0  0  0  0  0
    2.3545   -6.7856    0.0000 C   0  0  0  0  0  0  0  0  0  0  0  0
    3.0690   -6.3731    0.0000 C   0  0  0  0  0  0  0  0  0  0  0  0
    3.7835   -6.7856    0.0000 C   0  0  0  0  0  0  0  0  0  0  0  0
    3.7835   -7.6106    0.0000 C   0  0  0  0  0  0  0  0  0  0  0  0
    3.0690   -8.0231    0.0000 C   0  0  0  0  0  0  0  0  0  0  0  0
    4.4979   -6.3731    0.0000 C   0  0  0  0  0  0  0  0  0  0  0  0
    5.2124   -6.7856    0.0000 C   0  0  0  0  0  0  0  0  0  0  0  0
    5.9269   -6.3731    0.0000 C   0  0  0  0  0  0  0  0  0  0  0  0
    6.6414   -6.7856    0.0000 C   0  0  0  0  0  0  0  0  0  0  0  0
    7.3558   -6.3731    0.0000 C   0  0  0  0  0  0  0  0  0  0  0  0
    8.0703   -6.7856    0.0000 C   0  0  0  0  0  0  0  0  0  0  0  0
    8.7848   -6.3731    0.0000 C   0  0  0  0  0  0  0  0  0  0  0  0
    9.4992   -6.7856    0.0000 C   0  0  0  0  0  0  0  0  0  0  0  0
    9.4992   -7.6106    0.0000 C   0  0  0  0  0  0  0  0  0  0  0  0
   10.2137   -6.3731    0.0000 C   0  0  0  0  0  0  0  0  0  0  0  0
   10.9282   -6.7856    0.0000 C   0  0  0  0  0  0  0  0  0  0  0  0
   10.9282   -7.6106    0.0000 C   0  0  0  0  0  0  0  0  0  0  0  0
   10.2137   -8.0231    0.0000 C   0  0  0  0  0  0  0  0  0  0  0  0
    1.6401   -8.0231    0.0000 O   0  0  0  0  0  0  0  0  0  0  0  0
   11.6427   -8.0231    0.0000 O   0  0  0  0  0  0  0  0  0  0  0  0
    5.9269   -5.5481    0.0000 O   0  0  0  0  0  0  0  0  0  0  0  0
    7.3558   -5.5481    0.0000 O   0  0  0  0  0  0  0  0  0  0  0  0
    3.0690   -8.8481    0.0000 O   0  0  0  0  0  0  0  0  0  0  0  0
   10.2137   -8.8481    0.0000 O   0  0  0  0  0  0  0  0  0  0  0  0
  1  2  2  0  0  0  0
  2  3  1  0  0  0  0
  3  4  2  0  0  0  0
  4  5  1  0  0  0  0
  5  6  2  0  0  0  0
  6  1  1  0  0  0  0
  4  7  1  0  0  0  0
  7  8  1  0  0  0  0
  8  9  1  0  0  0  0
  9 10  1  0  0  0  0
 10 11  1  0  0  0  0
 11 12  1  0  0  0  0
 12 13  2  0  0  0  0
 13 14  1  0  0  0  0
 14 15  2  0  0  0  0
 14 16  1  0  0  0  0
 16 17  2  0  0  0  0
 17 18  1  0  0  0  0
 18 19  2  0  0  0  0
 19 15  1  0  0  0  0
  1 20  1  0  0  0  0
 18 21  1  0  0  0  0
  9 22  1  0  0  0  0
 11 23  2  0  0  0  0
  6 24  1  0  0  0  0
 19 25  1  0  0  0  0
M  END
>  <cdx:fragmentId>
5

$$$$
