605626.cdx
  Mrv1902 05222410272D          

 15 17  0  0  0  0            999 V2000
    8.7964   -7.8928    0.0000 O   0  0  0  0  0  0  0  0  0  0  0  0
    8.1290   -7.4079    0.0000 C   0  0  0  0  0  0  0  0  0  0  0  0
    8.3839   -6.6232    0.0000 C   0  0  0  0  0  0  0  0  0  0  0  0
    9.2089   -6.6232    0.0000 C   0  0  0  0  0  0  0  0  0  0  0  0
    9.4638   -7.4079    0.0000 C   0  0  0  0  0  0  0  0  0  0  0  0
    7.7165   -6.1383    0.0000 C   0  0  0  0  0  0  0  0  0  0  0  0
    7.0490   -6.6232    0.0000 C   0  0  0  0  0  0  0  0  0  0  0  0
    6.2421   -6.4517    0.0000 C   0  0  0  0  0  0  0  0  0  0  0  0
    5.6900   -7.0648    0.0000 C   0  0  0  0  0  0  0  0  0  0  0  0
    5.9450   -7.8494    0.0000 C   0  0  0  0  0  0  0  0  0  0  0  0
    6.7519   -8.0209    0.0000 C   0  0  0  0  0  0  0  0  0  0  0  0
    7.3040   -7.4079    0.0000 C   0  0  0  0  0  0  0  0  0  0  0  0
   10.2485   -7.6628    0.0000 O   0  0  0  0  0  0  0  0  0  0  0  0
    7.3650   -8.5730    0.0000 C   0  0  0  0  0  0  0  0  0  0  0  0
    6.5804   -8.8279    0.0000 C   0  0  0  0  0  0  0  0  0  0  0  0
  1  2  1  0  0  0  0
  2  3  1  0  0  0  0
  3  4  1  0  0  0  0
  4  5  1  0  0  0  0
  1  5  1  0  0  0  0
  6  7  1  0  0  0  0
  7  8  1  0  0  0  0
  8  9  1  0  0  0  0
  9 10  1  0  0  0  0
 10 11  1  0  0  0  0
 11 12  1  0  0  0  0
  7 12  2  0  0  0  0
 12  2  1  0  0  0  0
  6  3  1  0  0  0  0
  5 13  2  0  0  0  0
 11 14  1  0  0  0  0
 11 15  1  0  0  0  0
M  END
>  <cdx:fragmentId>
7935

$$$$
