6058.cdx
  Mrv1902 05222410202D          

 23 24  0  0  0  0            999 V2000
    6.1194   -6.3456    0.0000 O   0  0  0  0  0  0  0  0  0  0  0  0
    7.5483   -6.3456    0.0000 O   0  0  0  0  0  0  0  0  0  0  0  0
    1.8326   -8.8206    0.0000 O   0  0  0  0  0  0  0  0  0  0  0  0
   11.8352   -8.8206    0.0000 O   0  0  0  0  0  0  0  0  0  0  0  0
    3.2615   -8.8206    0.0000 C   0  0  0  0  0  0  0  0  0  0  0  0
    2.5470   -8.4081    0.0000 C   0  0  0  0  0  0  0  0  0  0  0  0
    2.5470   -7.5831    0.0000 C   0  0  0  0  0  0  0  0  0  0  0  0
    3.2615   -7.1706    0.0000 C   0  0  0  0  0  0  0  0  0  0  0  0
    3.9760   -8.4081    0.0000 C   0  0  0  0  0  0  0  0  0  0  0  0
    3.9760   -7.5831    0.0000 C   0  0  0  0  0  0  0  0  0  0  0  0
    4.6904   -7.1706    0.0000 C   0  0  0  0  0  0  0  0  0  0  0  0
    5.4049   -7.5831    0.0000 C   0  0  0  0  0  0  0  0  0  0  0  0
    6.1194   -7.1706    0.0000 C   0  0  0  0  0  0  0  0  0  0  0  0
    6.8339   -7.5831    0.0000 C   0  0  0  0  0  0  0  0  0  0  0  0
    7.5483   -7.1706    0.0000 C   0  0  0  0  0  0  0  0  0  0  0  0
    8.2628   -7.5831    0.0000 C   0  0  0  0  0  0  0  0  0  0  0  0
    8.9773   -7.1706    0.0000 C   0  0  0  0  0  0  0  0  0  0  0  0
   10.4062   -8.8206    0.0000 C   0  0  0  0  0  0  0  0  0  0  0  0
    9.6917   -8.4081    0.0000 C   0  0  0  0  0  0  0  0  0  0  0  0
    9.6917   -7.5831    0.0000 C   0  0  0  0  0  0  0  0  0  0  0  0
   10.4062   -7.1706    0.0000 C   0  0  0  0  0  0  0  0  0  0  0  0
   11.1207   -7.5831    0.0000 C   0  0  0  0  0  0  0  0  0  0  0  0
   11.1207   -8.4081    0.0000 C   0  0  0  0  0  0  0  0  0  0  0  0
 13  1  2  0  0  0  0
 15  2  1  0  0  0  0
  6  3  1  0  0  0  0
 23  4  1  0  0  0  0
  5  9  1  0  0  0  0
  6  5  2  0  0  0  0
  7  6  1  0  0  0  0
  8  7  2  0  0  0  0
 10  8  1  0  0  0  0
 10  9  2  0  0  0  0
 11 10  1  0  0  0  0
 12 11  1  0  0  0  0
 13 12  1  0  0  0  0
 14 13  1  0  0  0  0
 15 14  1  0  0  0  0
 16 15  1  0  0  0  0
 17 16  1  0  0  0  0
 20 17  1  0  0  0  0
 18 23  1  0  0  0  0
 19 18  2  0  0  0  0
 20 19  1  0  0  0  0
 21 20  2  0  0  0  0
 22 21  1  0  0  0  0
 23 22  2  0  0  0  0
M  END
>  <cdx:fragmentId>
5

$$$$
