6063.cdx
  Mrv1902 05222410192D          

 25 26  0  0  0  0            999 V2000
    4.3343  -10.7374    0.0000 O   0  0  0  0  0  0  0  0  0  0  0  0
    2.9054   -9.9124    0.0000 O   0  0  0  0  0  0  0  0  0  0  0  0
    2.1909   -8.6749    0.0000 C   0  0  0  0  0  0  0  0  0  0  0  0
    2.9054   -8.2624    0.0000 O   0  0  0  0  0  0  0  0  0  0  0  0
    4.3343   -8.2624    0.0000 C   0  0  0  0  0  0  0  0  0  0  0  0
    3.6199   -8.6749    0.0000 C   0  0  0  0  0  0  0  0  0  0  0  0
    3.6199   -9.4999    0.0000 C   0  0  0  0  0  0  0  0  0  0  0  0
    4.3343   -9.9124    0.0000 C   0  0  0  0  0  0  0  0  0  0  0  0
    5.0488   -9.4999    0.0000 C   0  0  0  0  0  0  0  0  0  0  0  0
    5.0488   -8.6749    0.0000 C   0  0  0  0  0  0  0  0  0  0  0  0
    7.1922   -7.4374    0.0000 O   0  0  0  0  0  0  0  0  0  0  0  0
   11.4790   -8.2624    0.0000 C   0  0  0  0  0  0  0  0  0  0  0  0
   12.1935   -8.6749    0.0000 C   0  0  0  0  0  0  0  0  0  0  0  0
   12.1935   -9.4999    0.0000 C   0  0  0  0  0  0  0  0  0  0  0  0
   11.4790   -9.9124    0.0000 C   0  0  0  0  0  0  0  0  0  0  0  0
   10.7646   -9.4999    0.0000 C   0  0  0  0  0  0  0  0  0  0  0  0
   10.7646   -8.6749    0.0000 C   0  0  0  0  0  0  0  0  0  0  0  0
    8.6212   -7.4374    0.0000 O   0  0  0  0  0  0  0  0  0  0  0  0
    5.7633   -8.2624    0.0000 C   0  0  0  0  0  0  0  0  0  0  0  0
    6.4777   -8.6749    0.0000 C   0  0  0  0  0  0  0  0  0  0  0  0
    7.1922   -8.2624    0.0000 C   0  0  0  0  0  0  0  0  0  0  0  0
    7.9067   -8.6749    0.0000 C   0  0  0  0  0  0  0  0  0  0  0  0
    8.6212   -8.2624    0.0000 C   0  0  0  0  0  0  0  0  0  0  0  0
    9.3356   -8.6749    0.0000 C   0  0  0  0  0  0  0  0  0  0  0  0
   10.0501   -8.2624    0.0000 C   0  0  0  0  0  0  0  0  0  0  0  0
 19 10  1  0  0  0  0
  8  1  1  0  0  0  0
  7  2  1  0  0  0  0
  6  4  1  0  0  0  0
  4  3  1  0  0  0  0
 10  5  2  0  0  0  0
  6  5  1  0  0  0  0
  7  6  2  0  0  0  0
  8  7  1  0  0  0  0
  9  8  2  0  0  0  0
 10  9  1  0  0  0  0
 21 11  1  0  0  0  0
 25 17  1  0  0  0  0
 17 12  2  0  0  0  0
 13 12  1  0  0  0  0
 14 13  2  0  0  0  0
 15 14  1  0  0  0  0
 16 15  2  0  0  0  0
 17 16  1  0  0  0  0
 23 18  2  0  0  0  0
 20 19  1  0  0  0  0
 21 20  1  0  0  0  0
 22 21  1  0  0  0  0
 23 22  1  0  0  0  0
 24 23  1  0  0  0  0
 25 24  1  0  0  0  0
M  END
>  <cdx:fragmentId>
5

$$$$
