606396.cdx
  Mrv1902 05222410222D          

 20 21  0  0  0  0            999 V2000
   12.6066  -16.0666    0.0000 C   0  0  0  0  0  0  0  0  0  0  0  0
   11.8921  -16.4791    0.0000 C   0  0  0  0  0  0  0  0  0  0  0  0
   12.6066  -15.2416    0.0000 O   0  0  0  0  0  0  0  0  0  0  0  0
   13.3210  -16.4791    0.0000 N   0  0  0  0  0  0  0  0  0  0  0  0
   14.0355  -16.0666    0.0000 N   0  0  0  0  0  0  0  0  0  0  0  0
   14.7500  -16.4791    0.0000 C   0  0  0  0  0  0  0  0  0  0  0  0
   15.4645  -16.0666    0.0000 C   0  0  0  0  0  0  0  0  0  0  0  0
   16.1789  -16.4791    0.0000 C   0  0  0  0  0  0  0  0  0  0  0  0
   16.1789  -17.3041    0.0000 C   0  0  0  0  0  0  0  0  0  0  0  0
   15.4645  -17.7166    0.0000 C   0  0  0  0  0  0  0  0  0  0  0  0
   14.7500  -17.3041    0.0000 C   0  0  0  0  0  0  0  0  0  0  0  0
   16.8934  -16.0666    0.0000 C   0  0  0  0  0  0  0  0  0  0  0  0
   16.4809  -15.3521    0.0000 C   0  0  0  0  0  0  0  0  0  0  0  0
   17.6079  -16.4791    0.0000 C   0  0  0  0  0  0  0  0  0  0  0  0
   18.3223  -16.0666    0.0000 C   0  0  0  0  0  0  0  0  0  0  0  0
   19.0368  -16.4791    0.0000 C   0  0  0  0  0  0  0  0  0  0  0  0
   19.0368  -17.3041    0.0000 C   0  0  0  0  0  0  0  0  0  0  0  0
   18.3223  -17.7166    0.0000 C   0  0  0  0  0  0  0  0  0  0  0  0
   17.6079  -17.3041    0.0000 C   0  0  0  0  0  0  0  0  0  0  0  0
   17.3059  -15.3521    0.0000 O   0  0  0  0  0  0  0  0  0  0  0  0
  1  2  1  0  0  0  0
  1  3  2  0  0  0  0
  4  5  1  0  0  0  0
  6  7  1  0  0  0  0
  7  8  2  0  0  0  0
  8  9  1  0  0  0  0
  9 10  2  0  0  0  0
 10 11  1  0  0  0  0
  6 11  2  0  0  0  0
 12 13  1  0  0  0  0
 14 15  1  0  0  0  0
 15 16  2  0  0  0  0
 16 17  1  0  0  0  0
 17 18  2  0  0  0  0
 18 19  1  0  0  0  0
 14 19  2  0  0  0  0
 12 14  1  0  0  0  0
 12 20  1  0  0  0  0
  8 12  1  0  0  0  0
  5  6  1  0  0  0  0
  1  4  1  0  0  0  0
M  END
>  <cdx:groupId>
8034

>  <cdx:fragmentId>
8002

$$$$
