607046.cdx
  Mrv1902 05222410242D          

 16 17  0  0  0  0            999 V2000
    7.2463   -8.6843    0.0000 C   0  0  0  0  0  0  0  0  0  0  0  0
    6.5318   -8.2718    0.0000 C   0  0  0  0  0  0  0  0  0  0  0  0
    6.5318   -7.4468    0.0000 C   0  0  0  0  0  0  0  0  0  0  0  0
    5.8173   -7.0343    0.0000 C   0  0  0  0  0  0  0  0  0  0  0  0
    5.1028   -7.4468    0.0000 C   0  0  0  0  0  0  0  0  0  0  0  0
    5.1028   -8.2718    0.0000 C   0  0  0  0  0  0  0  0  0  0  0  0
    5.8173   -8.6843    0.0000 C   0  0  0  0  0  0  0  0  0  0  0  0
    7.2463   -7.0343    0.0000 C   0  0  0  0  0  0  0  0  0  0  0  0
    4.3884   -8.6843    0.0000 C   0  0  0  0  0  0  0  0  0  0  0  0
    7.9607   -8.2718    0.0000 C   0  0  0  0  0  0  0  0  0  0  0  0
    7.9607   -7.4468    0.0000 C   0  0  0  0  0  0  0  0  0  0  0  0
    9.3897   -7.4468    0.0000 C   0  0  0  0  0  0  0  0  0  0  0  0
    8.6752   -8.6843    0.0000 C   0  0  0  0  0  0  0  0  0  0  0  0
    8.6752   -7.0343    0.0000 C   0  0  0  0  0  0  0  0  0  0  0  0
    9.3897   -8.2718    0.0000 C   0  0  0  0  0  0  0  0  0  0  0  0
   10.1041   -7.0343    0.0000 C   0  0  0  0  0  0  0  0  0  0  0  0
  2  3  1  0  0  0  0
  3  4  2  0  0  0  0
  4  5  1  0  0  0  0
  5  6  2  0  0  0  0
  6  7  1  0  0  0  0
  2  7  2  0  0  0  0
  3  8  1  0  0  0  0
  6  9  1  0  0  0  0
  1  2  1  0  0  0  0
 10 11  1  0  0  0  0
 10 13  2  0  0  0  0
 11 14  2  0  0  0  0
 12 14  1  0  0  0  0
 12 15  2  0  0  0  0
 13 15  1  0  0  0  0
 12 16  1  0  0  0  0
  1 10  1  0  0  0  0
M  END
>  <cdx:fragmentId>
8044

$$$$
