6075.cdx
  Mrv1902 05222410182D          

 36 39  0  0  0  0            999 V2000
    3.1177   -6.9506    0.0000 C   0  0  0  0  0  0  0  0  0  0  0  0
    3.1177   -7.7756    0.0000 C   0  0  0  0  0  0  0  0  0  0  0  0
    3.8321   -8.1881    0.0000 C   0  0  0  0  0  0  0  0  0  0  0  0
    4.5466   -7.7756    0.0000 C   0  0  0  0  0  0  0  0  0  0  0  0
    4.5466   -6.9506    0.0000 C   0  0  0  0  0  0  0  0  0  0  0  0
    3.8321   -6.5381    0.0000 C   0  0  0  0  0  0  0  0  0  0  0  0
    5.2611   -8.1881    0.0000 C   0  0  0  0  0  0  0  0  0  0  0  0
    5.9755   -7.7756    0.0000 C   0  0  0  0  0  0  0  0  0  0  0  0
    5.9755   -6.9506    0.0000 C   0  0  0  0  0  0  0  0  0  0  0  0
    5.2611   -6.5381    0.0000 O   0  0  0  0  0  0  0  0  0  0  0  0
    6.6900   -6.5381    0.0000 C   0  0  0  0  0  0  0  0  0  0  0  0
    6.6900   -5.7131    0.0000 C   0  0  0  0  0  0  0  0  0  0  0  0
    7.4045   -6.9506    0.0000 C   0  0  0  0  0  0  0  0  0  0  0  0
    8.1190   -6.5381    0.0000 C   0  0  0  0  0  0  0  0  0  0  0  0
    8.1190   -5.7131    0.0000 C   0  0  0  0  0  0  0  0  0  0  0  0
    7.4045   -5.3006    0.0000 C   0  0  0  0  0  0  0  0  0  0  0  0
    5.2611   -9.0131    0.0000 O   0  0  0  0  0  0  0  0  0  0  0  0
    3.8321   -9.0131    0.0000 O   0  0  0  0  0  0  0  0  0  0  0  0
    6.6900   -8.1881    0.0000 O   0  0  0  0  0  0  0  0  0  0  0  0
    2.4032   -6.5381    0.0000 O   0  0  0  0  0  0  0  0  0  0  0  0
    7.4045   -4.4756    0.0000 O   0  0  0  0  0  0  0  0  0  0  0  0
    8.8334   -5.3006    0.0000 O   0  0  0  0  0  0  0  0  0  0  0  0
   10.8904   -5.9946    0.0000 C   0  0  2  0  0  0  0  0  0  0  0  0
   11.2970   -5.2767    0.0000 C   0  0  2  0  0  0  0  0  0  0  0  0
   10.8786   -4.5657    0.0000 C   0  0  1  0  0  0  0  0  0  0  0  0
   10.0536   -4.5725    0.0000 C   0  0  2  0  0  0  0  0  0  0  0  0
    9.6471   -5.2904    0.0000 C   0  0  1  0  0  0  0  0  0  0  0  0
   10.0655   -6.0014    0.0000 O   0  0  0  0  0  0  0  0  0  0  0  0
   11.3088   -6.7056    0.0000 C   0  0  0  0  0  0  0  0  0  0  0  0
   11.2852   -3.8478    0.0000 O   0  0  0  0  0  0  0  0  0  0  0  0
    9.6352   -3.8615    0.0000 O   0  0  0  0  0  0  0  0  0  0  0  0
   12.1220   -5.2699    0.0000 O   0  0  0  0  0  0  0  0  0  0  0  0
   12.1338   -6.6988    0.0000 O   0  0  0  0  0  0  0  0  0  0  0  0
    8.1190   -4.0631    0.0000 C   0  0  0  0  0  0  0  0  0  0  0  0
    7.4045   -7.7756    0.0000 C   0  0  0  0  0  0  0  0  0  0  0  0
    1.6887   -6.9506    0.0000 C   0  0  0  0  0  0  0  0  0  0  0  0
  1  2  2  0  0  0  0
  2  3  1  0  0  0  0
  3  4  2  0  0  0  0
  4  5  1  0  0  0  0
  5  6  2  0  0  0  0
  6  1  1  0  0  0  0
  4  7  1  0  0  0  0
  7  8  1  0  0  0  0
  8  9  2  0  0  0  0
  9 10  1  0  0  0  0
 10  5  1  0  0  0  0
  9 11  1  0  0  0  0
 11 12  1  0  0  0  0
 11 13  2  0  0  0  0
 13 14  1  0  0  0  0
 14 15  2  0  0  0  0
 15 16  1  0  0  0  0
 16 12  2  0  0  0  0
  7 17  2  0  0  0  0
  3 18  1  0  0  0  0
  8 19  1  0  0  0  0
  1 20  1  0  0  0  0
 16 21  1  0  0  0  0
 15 22  1  0  0  0  0
 23 24  1  0  0  0  0
 24 25  1  0  0  0  0
 25 26  1  0  0  0  0
 26 27  1  0  0  0  0
 27 28  1  0  0  0  0
 28 23  1  0  0  0  0
 23 29  1  1  0  0  0
 25 30  1  1  0  0  0
 26 31  1  6  0  0  0
 24 32  1  6  0  0  0
 29 33  1  0  0  0  0
 27 22  1  1  0  0  0
 21 34  1  0  0  0  0
 19 35  1  0  0  0  0
 20 36  1  0  0  0  0
M  END
>  <cdx:fragmentId>
112

$$$$
