607530.cdx
  Mrv1902 05222410252D          

 26 27  0  0  0  0            999 V2000
    6.8832   -6.7452    0.0000 C   0  0  0  0  0  0  0  0  0  0  0  0
    7.5977   -7.1577    0.0000 C   0  0  0  0  0  0  0  0  0  0  0  0
    8.3122   -6.7452    0.0000 C   0  0  0  0  0  0  0  0  0  0  0  0
    6.8832   -5.9202    0.0000 O   0  0  0  0  0  0  0  0  0  0  0  0
    9.0267   -7.1577    0.0000 C   0  0  0  0  0  0  0  0  0  0  0  0
    9.7411   -6.7452    0.0000 C   0  0  0  0  0  0  0  0  0  0  0  0
   10.4556   -7.1577    0.0000 C   0  0  0  0  0  0  0  0  0  0  0  0
   10.4556   -7.9827    0.0000 C   0  0  0  0  0  0  0  0  0  0  0  0
    9.7411   -8.3952    0.0000 C   0  0  0  0  0  0  0  0  0  0  0  0
    9.0267   -7.9827    0.0000 C   0  0  0  0  0  0  0  0  0  0  0  0
   11.1701   -8.3952    0.0000 O   0  0  0  0  0  0  0  0  0  0  0  0
   11.8845   -7.9827    0.0000 C   0  0  0  0  0  0  0  0  0  0  0  0
    6.1688   -7.1577    0.0000 C   0  0  0  0  0  0  0  0  0  0  0  0
    6.1688   -7.9827    0.0000 C   0  0  0  0  0  0  0  0  0  0  0  0
    5.4543   -8.3952    0.0000 C   0  0  0  0  0  0  0  0  0  0  0  0
    4.7398   -7.9827    0.0000 C   0  0  0  0  0  0  0  0  0  0  0  0
    4.7398   -7.1577    0.0000 C   0  0  0  0  0  0  0  0  0  0  0  0
    5.4543   -6.7452    0.0000 C   0  0  0  0  0  0  0  0  0  0  0  0
    4.0254   -6.7452    0.0000 C   0  0  0  0  0  0  0  0  0  0  0  0
    3.3109   -7.1577    0.0000 C   0  0  0  0  0  0  0  0  0  0  0  0
    2.5964   -6.7452    0.0000 C   0  0  0  0  0  0  0  0  0  0  0  0
    2.5964   -5.9202    0.0000 C   0  0  0  0  0  0  0  0  0  0  0  0
    1.8820   -7.1577    0.0000 C   0  0  0  0  0  0  0  0  0  0  0  0
    4.0254   -8.3952    0.0000 O   0  0  0  0  0  0  0  0  0  0  0  0
    3.3109   -7.9827    0.0000 C   0  0  0  0  0  0  0  0  0  0  0  0
    6.8832   -8.3952    0.0000 O   0  0  0  0  0  0  0  0  0  0  0  0
  1  2  1  0  0  0  0
  2  3  2  0  0  0  0
  1  4  2  0  0  0  0
  5  6  1  0  0  0  0
  6  7  2  0  0  0  0
  7  8  1  0  0  0  0
  8  9  2  0  0  0  0
  9 10  1  0  0  0  0
  5 10  2  0  0  0  0
 11 12  1  0  0  0  0
  8 11  1  0  0  0  0
  3  5  1  0  0  0  0
 13 14  1  0  0  0  0
 14 15  2  0  0  0  0
 15 16  1  0  0  0  0
 16 17  2  0  0  0  0
 17 18  1  0  0  0  0
 13 18  2  0  0  0  0
 19 20  1  0  0  0  0
 20 21  2  0  0  0  0
 21 22  1  0  0  0  0
 21 23  1  0  0  0  0
 17 19  1  0  0  0  0
 24 25  1  0  0  0  0
 16 24  1  0  0  0  0
 14 26  1  0  0  0  0
  1 13  1  0  0  0  0
M  END
>  <cdx:groupId>
149903

>  <cdx:fragmentId>
149851

$$$$
