6076.cdx
  Mrv1902 05222410192D          

 24 27  0  0  0  0            999 V2000
    6.6821   -8.7728    0.0000 N   0  0  0  0  0  0  0  0  0  0  0  0
    7.1670   -8.1054    0.0000 C   0  0  0  0  0  0  0  0  0  0  0  0
    5.8974   -7.6929    0.0000 C   0  0  0  0  0  0  0  0  0  0  0  0
    5.1830   -7.2804    0.0000 N   0  0  0  0  0  0  0  0  0  0  0  0
    4.4685   -7.6929    0.0000 C   0  0  0  0  0  0  0  0  0  0  0  0
    4.4685   -8.5179    0.0000 N   0  0  0  0  0  0  0  0  0  0  0  0
    5.1830   -8.9304    0.0000 C   0  0  0  0  0  0  0  0  0  0  0  0
    5.8974   -8.5179    0.0000 C   0  0  0  0  0  0  0  0  0  0  0  0
    5.1830   -9.7554    0.0000 N   0  0  0  0  0  0  0  0  0  0  0  0
    6.1668   -5.0228    0.0000 H   0  0  0  0  0  0  0  0  0  0  0  0
    8.4918   -5.8690    0.0000 H   0  0  0  0  0  0  0  0  0  0  0  0
    6.6821   -7.4379    0.0000 N   0  0  0  0  0  0  0  0  0  0  0  0
    7.7911   -3.2450    0.0000 O   0  0  0  0  0  0  0  0  0  0  0  0
    6.7952   -3.3761    0.0000 O   0  0  0  0  0  0  0  0  0  0  0  0
    5.6271   -5.9859    0.0000 O   0  0  0  0  0  0  0  0  0  0  0  0
    6.9370   -6.6533    0.0000 C   0  0  1  0  0  0  0  0  0  0  0  0
    6.4521   -5.9859    0.0000 C   0  0  1  0  0  0  0  0  0  0  0  0
    7.7216   -6.3984    0.0000 O   0  0  0  0  0  0  0  0  0  0  0  0
    8.3347   -5.0213    0.0000 C   0  0  0  0  0  0  0  0  0  0  0  0
    7.7216   -5.5734    0.0000 C   0  0  2  0  0  0  0  0  0  0  0  0
    6.9370   -5.3184    0.0000 C   0  0  1  0  0  0  0  0  0  0  0  0
    6.7655   -4.5115    0.0000 O   0  0  0  0  0  0  0  0  0  0  0  0
    7.3786   -3.9594    0.0000 P   0  0  0  0  0  0  0  0  0  0  0  0
    8.1632   -4.2144    0.0000 O   0  0  0  0  0  0  0  0  0  0  0  0
 21 10  1  1  0  0  0
 20 11  1  6  0  0  0
 16 12  1  1  0  0  0
 23 13  1  0  0  0  0
 23 14  2  0  0  0  0
 17 15  1  6  0  0  0
 18 20  1  0  0  0  0
 17 21  1  0  0  0  0
 18 16  1  0  0  0  0
 17 16  1  0  0  0  0
 24 19  1  0  0  0  0
 20 19  1  0  0  0  0
 21 20  1  0  0  0  0
 22 21  1  0  0  0  0
 23 22  1  0  0  0  0
 24 23  1  0  0  0  0
  1  2  2  0  0  0  0
  2 12  1  0  0  0  0
 12  3  1  0  0  0  0
  3  4  2  0  0  0  0
  4  5  1  0  0  0  0
  5  6  2  0  0  0  0
  6  7  1  0  0  0  0
  7  8  2  0  0  0  0
  1  8  1  0  0  0  0
  3  8  1  0  0  0  0
  7  9  1  0  0  0  0
M  END
>  <cdx:fragmentId>
5

$$$$
