607642.cdx
  Mrv1902 05222410242D          

 30 31  0  0  0  0            999 V2000
    6.5538  -14.0327    0.0000 C   0  0  0  0  0  0  0  0  0  0  0  0
    7.2682  -14.4452    0.0000 C   0  0  0  0  0  0  0  0  0  0  0  0
    7.9827  -14.0327    0.0000 C   0  0  0  0  0  0  0  0  0  0  0  0
    6.5538  -13.2077    0.0000 O   0  0  0  0  0  0  0  0  0  0  0  0
    8.6972  -14.4452    0.0000 C   0  0  0  0  0  0  0  0  0  0  0  0
    9.4117  -14.0327    0.0000 C   0  0  0  0  0  0  0  0  0  0  0  0
   10.1261  -14.4452    0.0000 C   0  0  0  0  0  0  0  0  0  0  0  0
   10.1261  -15.2702    0.0000 C   0  0  0  0  0  0  0  0  0  0  0  0
    9.4117  -15.6827    0.0000 C   0  0  0  0  0  0  0  0  0  0  0  0
    8.6972  -15.2702    0.0000 C   0  0  0  0  0  0  0  0  0  0  0  0
   10.8406  -14.0327    0.0000 C   0  0  0  0  0  0  0  0  0  0  0  0
   11.5551  -14.4452    0.0000 C   0  0  0  0  0  0  0  0  0  0  0  0
   12.2695  -14.0327    0.0000 C   0  0  0  0  0  0  0  0  0  0  0  0
   12.2695  -13.2077    0.0000 C   0  0  0  0  0  0  0  0  0  0  0  0
   12.9840  -14.4452    0.0000 C   0  0  0  0  0  0  0  0  0  0  0  0
   10.8406  -15.6827    0.0000 O   0  0  0  0  0  0  0  0  0  0  0  0
    7.9827  -13.2077    0.0000 O   0  0  0  0  0  0  0  0  0  0  0  0
    5.8393  -14.4452    0.0000 C   0  0  0  0  0  0  0  0  0  0  0  0
    5.8393  -15.2702    0.0000 C   0  0  0  0  0  0  0  0  0  0  0  0
    5.1248  -15.6827    0.0000 C   0  0  0  0  0  0  0  0  0  0  0  0
    4.4104  -15.2702    0.0000 C   0  0  0  0  0  0  0  0  0  0  0  0
    4.4104  -14.4452    0.0000 C   0  0  0  0  0  0  0  0  0  0  0  0
    5.1248  -14.0327    0.0000 C   0  0  0  0  0  0  0  0  0  0  0  0
    3.6959  -14.0327    0.0000 C   0  0  0  0  0  0  0  0  0  0  0  0
    2.9814  -14.4452    0.0000 C   0  0  0  0  0  0  0  0  0  0  0  0
    2.2670  -14.0327    0.0000 C   0  0  0  0  0  0  0  0  0  0  0  0
    2.2670  -13.2077    0.0000 C   0  0  0  0  0  0  0  0  0  0  0  0
    1.5525  -14.4452    0.0000 C   0  0  0  0  0  0  0  0  0  0  0  0
    3.6959  -15.6827    0.0000 O   0  0  0  0  0  0  0  0  0  0  0  0
    6.5538  -15.6827    0.0000 O   0  0  0  0  0  0  0  0  0  0  0  0
  1  2  1  0  0  0  0
  2  3  2  0  0  0  0
  1  4  2  0  0  0  0
  5  6  1  0  0  0  0
  6  7  2  0  0  0  0
  7  8  1  0  0  0  0
  8  9  2  0  0  0  0
  9 10  1  0  0  0  0
  5 10  2  0  0  0  0
 11 12  1  0  0  0  0
 12 13  2  0  0  0  0
 13 14  1  0  0  0  0
 13 15  1  0  0  0  0
  7 11  1  0  0  0  0
  8 16  1  0  0  0  0
  3  5  1  0  0  0  0
  3 17  1  0  0  0  0
 18 19  1  0  0  0  0
 19 20  2  0  0  0  0
 20 21  1  0  0  0  0
 21 22  2  0  0  0  0
 22 23  1  0  0  0  0
 18 23  2  0  0  0  0
 24 25  1  0  0  0  0
 25 26  2  0  0  0  0
 26 27  1  0  0  0  0
 26 28  1  0  0  0  0
 22 24  1  0  0  0  0
 21 29  1  0  0  0  0
 19 30  1  0  0  0  0
  1 18  1  0  0  0  0
M  END
>  <cdx:fragmentId>
150019

$$$$
