607712.cdx
  Mrv1902 05222410232D          

 39 43  0  0  0  0            999 V2000
    9.1760   -6.2425    0.0000 O   0  0  0  0  0  0  0  0  0  0  0  0
    8.9210   -7.0271    0.0000 C   0  0  2  0  0  0  0  0  0  0  0  0
    8.1140   -7.1987    0.0000 C   0  0  1  0  0  0  0  0  0  0  0  0
    7.5620   -6.5856    0.0000 C   0  0  2  0  0  0  0  0  0  0  0  0
    7.8169   -5.8009    0.0000 C   0  0  1  0  0  0  0  0  0  0  0  0
    8.6239   -5.6294    0.0000 C   0  0  1  0  0  0  0  0  0  0  0  0
    7.8591   -7.9833    0.0000 O   0  0  0  0  0  0  0  0  0  0  0  0
    6.7550   -6.7571    0.0000 O   0  0  0  0  0  0  0  0  0  0  0  0
    7.2649   -5.1879    0.0000 O   0  0  0  0  0  0  0  0  0  0  0  0
    8.8789   -4.8448    0.0000 C   0  0  0  0  0  0  0  0  0  0  0  0
    8.2955   -4.2614    0.0000 O   0  0  0  0  0  0  0  0  0  0  0  0
    9.4730   -7.6402    0.0000 O   0  0  0  0  0  0  0  0  0  0  0  0
    9.2181   -8.4249    0.0000 C   0  0  0  0  0  0  0  0  0  0  0  0
    9.7701   -9.0379    0.0000 C   0  0  0  0  0  0  0  0  0  0  0  0
    9.5152   -9.8226    0.0000 C   0  0  0  0  0  0  0  0  0  0  0  0
    8.7082   -9.9941    0.0000 C   0  0  0  0  0  0  0  0  0  0  0  0
    8.1562   -9.3810    0.0000 C   0  0  0  0  0  0  0  0  0  0  0  0
    8.4111   -8.5964    0.0000 C   0  0  0  0  0  0  0  0  0  0  0  0
   10.5771   -8.8664    0.0000 O   0  0  0  0  0  0  0  0  0  0  0  0
   11.1291   -9.4795    0.0000 C   0  0  0  0  0  0  0  0  0  0  0  0
    6.3991  -11.4462    0.0000 O   0  0  0  0  0  0  0  0  0  0  0  0
    6.8840  -10.7787    0.0000 C   0  0  0  0  0  0  0  0  0  0  0  0
    7.6687  -11.0337    0.0000 C   0  0  1  0  0  0  0  0  0  0  0  0
    7.6687  -11.8587    0.0000 C   0  0  1  0  0  0  0  0  0  0  0  0
    6.8840  -12.1136    0.0000 C   0  0  1  0  0  0  0  0  0  0  0  0
    8.9382  -11.4462    0.0000 O   0  0  0  0  0  0  0  0  0  0  0  0
    8.4533  -10.7787    0.0000 C   0  0  1  0  0  0  0  0  0  0  0  0
    8.4533  -12.1136    0.0000 C   0  0  0  0  0  0  0  0  0  0  0  0
    6.6291  -12.8982    0.0000 C   0  0  0  0  0  0  0  0  0  0  0  0
    5.8221  -13.0697    0.0000 C   0  0  0  0  0  0  0  0  0  0  0  0
    5.5672  -13.8544    0.0000 C   0  0  0  0  0  0  0  0  0  0  0  0
    6.1192  -14.4675    0.0000 C   0  0  0  0  0  0  0  0  0  0  0  0
    6.9262  -14.2959    0.0000 C   0  0  0  0  0  0  0  0  0  0  0  0
    7.1811  -13.5113    0.0000 C   0  0  0  0  0  0  0  0  0  0  0  0
    4.7602  -14.0259    0.0000 O   0  0  0  0  0  0  0  0  0  0  0  0
    4.1769  -13.4425    0.0000 C   0  0  0  0  0  0  0  0  0  0  0  0
    5.8643  -15.2521    0.0000 O   0  0  0  0  0  0  0  0  0  0  0  0
    7.6687  -12.6837    0.0000 H   0  0  0  0  0  0  0  0  0  0  0  0
    7.6687  -10.2087    0.0000 H   0  0  0  0  0  0  0  0  0  0  0  0
  1  2  1  0  0  0  0
  2  3  1  0  0  0  0
  3  4  1  0  0  0  0
  4  5  1  0  0  0  0
  5  6  1  0  0  0  0
  1  6  1  0  0  0  0
  3  7  1  6  0  0  0
  4  8  1  1  0  0  0
  5  9  1  6  0  0  0
 10 11  1  0  0  0  0
  6 10  1  1  0  0  0
 13 14  1  0  0  0  0
 14 15  2  0  0  0  0
 15 16  1  0  0  0  0
 16 17  2  0  0  0  0
 17 18  1  0  0  0  0
 13 18  2  0  0  0  0
 12 13  1  0  0  0  0
 19 20  1  0  0  0  0
 14 19  1  0  0  0  0
 21 22  1  0  0  0  0
 22 23  1  0  0  0  0
 23 24  1  0  0  0  0
 24 25  1  0  0  0  0
 21 25  1  0  0  0  0
 26 27  1  0  0  0  0
 26 28  1  0  0  0  0
 27 23  1  0  0  0  0
 28 24  1  0  0  0  0
 29 30  1  0  0  0  0
 30 31  2  0  0  0  0
 31 32  1  0  0  0  0
 32 33  2  0  0  0  0
 33 34  1  0  0  0  0
 29 34  2  0  0  0  0
 35 36  1  0  0  0  0
 31 35  1  0  0  0  0
 32 37  1  0  0  0  0
 25 29  1  1  0  0  0
 27 16  1  6  0  0  0
  2 12  1  1  0  0  0
 24 38  1  1  0  0  0
 23 39  1  1  0  0  0
M  END
>  <cdx:groupId>
135166

>  <cdx:fragmentId>
135104

$$$$
