607722.cdx
  Mrv1902 05222410232D          

 31 33  0  0  0  0            999 V2000
    8.6697   -8.4914    0.0000 C   0  0  0  0  0  0  0  0  0  0  0  0
    9.3842   -8.0789    0.0000 C   0  0  0  0  0  0  0  0  0  0  0  0
   10.0986   -8.4914    0.0000 C   0  0  0  0  0  0  0  0  0  0  0  0
   10.0986   -9.3164    0.0000 C   0  0  0  0  0  0  0  0  0  0  0  0
    9.3842   -9.7289    0.0000 C   0  0  0  0  0  0  0  0  0  0  0  0
    8.6697   -9.3164    0.0000 C   0  0  0  0  0  0  0  0  0  0  0  0
   10.8131   -9.7289    0.0000 O   0  0  0  0  0  0  0  0  0  0  0  0
    9.3842   -7.2539    0.0000 O   0  0  0  0  0  0  0  0  0  0  0  0
    6.5263   -4.7789    0.0000 O   0  0  0  0  0  0  0  0  0  0  0  0
    5.8118   -6.8414    0.0000 C   0  0  0  0  0  0  0  0  0  0  0  0
    5.8118   -6.0164    0.0000 C   0  0  0  0  0  0  0  0  0  0  0  0
    6.5263   -5.6039    0.0000 C   0  0  0  0  0  0  0  0  0  0  0  0
    7.2407   -6.0164    0.0000 C   0  0  0  0  0  0  0  0  0  0  0  0
    7.2407   -6.8414    0.0000 C   0  0  0  0  0  0  0  0  0  0  0  0
    6.5263   -7.2539    0.0000 C   0  0  0  0  0  0  0  0  0  0  0  0
    7.2407  -10.9664    0.0000 O   0  0  0  0  0  0  0  0  0  0  0  0
    5.8118  -11.7914    0.0000 O   0  0  0  0  0  0  0  0  0  0  0  0
    4.3829  -10.9664    0.0000 O   0  0  0  0  0  0  0  0  0  0  0  0
    3.6684   -9.7289    0.0000 O   0  0  0  0  0  0  0  0  0  0  0  0
    4.3829   -9.3164    0.0000 C   0  0  0  0  0  0  0  0  0  0  0  0
    5.0973   -9.7289    0.0000 C   0  0  2  0  0  0  0  0  0  0  0  0
    5.0973  -10.5539    0.0000 C   0  0  2  0  0  0  0  0  0  0  0  0
    5.8118  -10.9664    0.0000 C   0  0  1  0  0  0  0  0  0  0  0  0
    6.5263  -10.5539    0.0000 C   0  0  2  0  0  0  0  0  0  0  0  0
    6.5263   -9.7289    0.0000 C   0  0  1  0  0  0  0  0  0  0  0  0
    5.8118   -9.3164    0.0000 O   0  0  0  0  0  0  0  0  0  0  0  0
    7.2407   -9.3164    0.0000 O   0  0  0  0  0  0  0  0  0  0  0  0
    7.9552   -7.2539    0.0000 O   0  0  0  0  0  0  0  0  0  0  0  0
    6.5263   -8.0789    0.0000 C   0  0  0  0  0  0  0  0  0  0  0  0
    7.2407   -8.4914    0.0000 C   0  0  0  0  0  0  0  0  0  0  0  0
    7.9552   -8.0789    0.0000 C   0  0  0  0  0  0  0  0  0  0  0  0
 31  1  1  0  0  0  0
 29 15  1  0  0  0  0
 12  9  1  0  0  0  0
 15 10  2  0  0  0  0
 11 10  1  0  0  0  0
 12 11  2  0  0  0  0
 13 12  1  0  0  0  0
 14 13  2  0  0  0  0
 15 14  1  0  0  0  0
 30 27  1  0  0  0  0
 25 27  1  1  0  0  0
 24 16  1  6  0  0  0
 23 17  1  1  0  0  0
 22 18  1  6  0  0  0
 21 20  1  1  0  0  0
 20 19  1  0  0  0  0
 26 21  1  0  0  0  0
 22 21  1  0  0  0  0
 23 22  1  0  0  0  0
 24 23  1  0  0  0  0
 25 24  1  0  0  0  0
 26 25  1  0  0  0  0
 31 28  2  0  0  0  0
 30 29  1  0  0  0  0
 31 30  1  0  0  0  0
  1  2  1  0  0  0  0
  2  3  2  0  0  0  0
  3  4  1  0  0  0  0
  4  5  2  0  0  0  0
  5  6  1  0  0  0  0
  1  6  2  0  0  0  0
  4  7  1  0  0  0  0
  2  8  1  0  0  0  0
M  END
>  <cdx:fragmentId>
150390

$$$$
