42607811.cdx
  Mrv1902 05222410272D          

 50 56  0  0  0  0            999 V2000
   11.7204  -14.2693    0.0000 N   0  0  0  0  0  0  0  0  0  0  0  0
   10.9358  -14.0143    0.0000 C   0  0  0  0  0  0  0  0  0  0  0  0
   10.9358  -13.1893    0.0000 C   0  0  0  0  0  0  0  0  0  0  0  0
   11.7204  -12.9344    0.0000 C   0  0  0  0  0  0  0  0  0  0  0  0
   12.0560  -12.1807    0.0000 C   0  0  0  0  0  0  0  0  0  0  0  0
   12.8765  -12.0945    0.0000 C   0  0  0  0  0  0  0  0  0  0  0  0
   13.3614  -12.7619    0.0000 C   0  0  0  0  0  0  0  0  0  0  0  0
   13.0258  -13.5156    0.0000 C   0  0  0  0  0  0  0  0  0  0  0  0
   12.2053  -13.6018    0.0000 C   0  0  0  0  0  0  0  0  0  0  0  0
   10.2684  -12.7044    0.0000 C   0  0  0  0  0  0  0  0  0  0  0  0
   10.3546  -11.8839    0.0000 O   0  0  0  0  0  0  0  0  0  0  0  0
    9.5147  -13.0400    0.0000 O   0  0  0  0  0  0  0  0  0  0  0  0
    8.8472  -12.5551    0.0000 C   0  0  0  0  0  0  0  0  0  0  0  0
    7.0136  -13.6752    0.0000 O   0  0  0  0  0  0  0  0  0  0  0  0
    7.2686  -12.8906    0.0000 C   0  0  0  0  0  0  0  0  0  0  0  0
    8.0936  -12.8906    0.0000 C   0  0  0  0  0  0  0  0  0  0  0  0
    8.3485  -13.6752    0.0000 C   0  0  1  0  0  0  0  0  0  0  0  0
    7.6811  -14.1602    0.0000 C   0  0  2  0  0  0  0  0  0  0  0  0
    9.1331  -13.9302    0.0000 O   0  0  0  0  0  0  0  0  0  0  0  0
    8.1798  -12.0701    0.0000 O   0  0  0  0  0  0  0  0  0  0  0  0
    7.6811  -15.2327    0.0000 O   0  0  0  0  0  0  0  0  0  0  0  0
    9.3244  -17.0064    0.0000 O   0  0  0  0  0  0  0  0  0  0  0  0
    8.6099  -16.5939    0.0000 C   0  0  2  0  0  0  0  0  0  0  0  0
    8.6099  -15.7689    0.0000 C   0  0  0  0  0  0  0  0  0  0  0  0
    9.3244  -15.3564    0.0000 C   0  0  2  0  0  0  0  0  0  0  0  0
   10.0388  -15.7689    0.0000 C   0  0  1  0  0  0  0  0  0  0  0  0
   10.0388  -16.5939    0.0000 C   0  0  0  0  0  0  0  0  0  0  0  0
    7.8954  -17.0064    0.0000 O   0  0  0  0  0  0  0  0  0  0  0  0
    7.1809  -16.5939    0.0000 C   0  0  0  0  0  0  0  0  0  0  0  0
    6.4665  -17.0064    0.0000 C   0  0  0  0  0  0  0  0  0  0  0  0
    5.7520  -16.5939    0.0000 C   0  0  0  0  0  0  0  0  0  0  0  0
    5.7520  -15.7689    0.0000 C   0  0  0  0  0  0  0  0  0  0  0  0
    6.4665  -15.3564    0.0000 C   0  0  0  0  0  0  0  0  0  0  0  0
    7.1809  -15.7689    0.0000 C   0  0  0  0  0  0  0  0  0  0  0  0
    5.0375  -15.3564    0.0000 C   0  0  2  0  0  0  0  0  0  0  0  0
    5.0375  -14.5314    0.0000 C   0  0  0  0  0  0  0  0  0  0  0  0
    4.3231  -14.1189    0.0000 C   0  0  0  0  0  0  0  0  0  0  0  0
    3.6086  -14.5314    0.0000 C   0  0  0  0  0  0  0  0  0  0  0  0
    2.8941  -14.1189    0.0000 C   0  0  0  0  0  0  0  0  0  0  0  0
    2.1796  -14.5314    0.0000 C   0  0  0  0  0  0  0  0  0  0  0  0
    2.1796  -15.3564    0.0000 C   0  0  0  0  0  0  0  0  0  0  0  0
    2.8941  -15.7689    0.0000 C   0  0  0  0  0  0  0  0  0  0  0  0
    3.6086  -15.3564    0.0000 C   0  0  0  0  0  0  0  0  0  0  0  0
    4.3231  -15.7689    0.0000 O   0  0  0  0  0  0  0  0  0  0  0  0
    4.3231  -13.2939    0.0000 O   0  0  0  0  0  0  0  0  0  0  0  0
    1.4652  -15.7689    0.0000 O   0  0  0  0  0  0  0  0  0  0  0  0
   10.7533  -17.0064    0.0000 C   0  0  0  0  0  0  0  0  0  0  0  0
   11.4678  -16.5939    0.0000 O   0  0  0  0  0  0  0  0  0  0  0  0
   10.7533  -15.3564    0.0000 O   0  0  0  0  0  0  0  0  0  0  0  0
    9.3244  -14.5314    0.0000 O   0  0  0  0  0  0  0  0  0  0  0  0
  1  2  1  0  0  0  0
  2  3  2  0  0  0  0
  3  4  1  0  0  0  0
  4  5  1  0  0  0  0
  5  6  2  0  0  0  0
  6  7  1  0  0  0  0
  7  8  2  0  0  0  0
  8  9  1  0  0  0  0
  1  9  1  0  0  0  0
  4  9  2  0  0  0  0
 10 11  2  0  0  0  0
 10 12  1  0  0  0  0
  3 10  1  0  0  0  0
 14 15  1  0  0  0  0
 15 16  1  0  0  0  0
 16 17  1  0  0  0  0
 17 18  1  0  0  0  0
 14 18  1  0  0  0  0
 17 19  1  6  0  0  0
 16 20  1  0  0  0  0
 22 23  1  0  0  0  0
 23 24  1  0  0  0  0
 24 25  1  0  0  0  0
 25 26  1  0  0  0  0
 26 27  1  0  0  0  0
 22 27  1  0  0  0  0
 29 30  1  0  0  0  0
 30 31  2  0  0  0  0
 31 32  1  0  0  0  0
 32 33  2  0  0  0  0
 33 34  1  0  0  0  0
 29 34  2  0  0  0  0
 28 29  1  0  0  0  0
 35 36  1  0  0  0  0
 36 37  1  0  0  0  0
 37 38  1  0  0  0  0
 38 39  1  0  0  0  0
 39 40  2  0  0  0  0
 40 41  1  0  0  0  0
 41 42  2  0  0  0  0
 42 43  1  0  0  0  0
 38 43  2  0  0  0  0
 43 44  1  0  0  0  0
 35 44  1  0  0  0  0
 37 45  2  0  0  0  0
 41 46  1  0  0  0  0
 35 32  1  1  0  0  0
 23 28  1  1  0  0  0
 47 48  1  0  0  0  0
 27 47  1  0  0  0  0
 26 49  1  6  0  0  0
 25 50  1  1  0  0  0
 21 24  1  0  0  0  0
 18 21  1  6  0  0  0
 13 16  1  0  0  0  0
 12 13  1  0  0  0  0
M  END
>  <cdx:fragmentId>
151230

$$$$
