42607808.cdx
  Mrv1902 05222410192D          

 50 55  0  0  0  0            999 V2000
    5.5304  -16.4555    0.0000 C   0  0  0  0  0  0  0  0  0  0  0  0
    4.8159  -16.8680    0.0000 C   0  0  0  0  0  0  0  0  0  0  0  0
    4.1015  -16.4555    0.0000 C   0  0  0  0  0  0  0  0  0  0  0  0
    5.5304  -15.6305    0.0000 O   0  0  0  0  0  0  0  0  0  0  0  0
    6.2449  -16.8680    0.0000 O   0  0  0  0  0  0  0  0  0  0  0  0
    3.3870  -16.8680    0.0000 C   0  0  0  0  0  0  0  0  0  0  0  0
    2.6725  -16.4555    0.0000 C   0  0  0  0  0  0  0  0  0  0  0  0
    1.9580  -16.8680    0.0000 C   0  0  0  0  0  0  0  0  0  0  0  0
    1.9580  -17.6930    0.0000 C   0  0  0  0  0  0  0  0  0  0  0  0
    2.6725  -18.1055    0.0000 C   0  0  0  0  0  0  0  0  0  0  0  0
    3.3870  -17.6930    0.0000 C   0  0  0  0  0  0  0  0  0  0  0  0
    1.2436  -18.1055    0.0000 O   0  0  0  0  0  0  0  0  0  0  0  0
    6.9593  -16.4555    0.0000 C   0  0  0  0  0  0  0  0  0  0  0  0
    8.9434  -16.4555    0.0000 O   0  0  0  0  0  0  0  0  0  0  0  0
    8.1587  -16.2006    0.0000 C   0  0  0  0  0  0  0  0  0  0  0  0
    7.6738  -16.8680    0.0000 C   0  0  0  0  0  0  0  0  0  0  0  0
    8.1587  -17.5354    0.0000 C   0  0  1  0  0  0  0  0  0  0  0  0
    8.9434  -17.2805    0.0000 C   0  0  2  0  0  0  0  0  0  0  0  0
    7.9038  -18.3201    0.0000 O   0  0  0  0  0  0  0  0  0  0  0  0
    6.9593  -17.2805    0.0000 O   0  0  0  0  0  0  0  0  0  0  0  0
    9.6108  -17.7654    0.0000 O   0  0  0  0  0  0  0  0  0  0  0  0
   11.0563  -16.1299    0.0000 O   0  0  0  0  0  0  0  0  0  0  0  0
   10.3377  -16.5352    0.0000 C   0  0  2  0  0  0  0  0  0  0  0  0
   10.3294  -17.3601    0.0000 C   0  0  0  0  0  0  0  0  0  0  0  0
   11.0397  -17.7798    0.0000 C   0  0  2  0  0  0  0  0  0  0  0  0
   11.7582  -17.3745    0.0000 C   0  0  1  0  0  0  0  0  0  0  0  0
   11.7665  -16.5495    0.0000 C   0  0  0  0  0  0  0  0  0  0  0  0
    9.6274  -16.1155    0.0000 O   0  0  0  0  0  0  0  0  0  0  0  0
    9.6357  -15.2905    0.0000 C   0  0  0  0  0  0  0  0  0  0  0  0
   10.3543  -14.8852    0.0000 C   0  0  0  0  0  0  0  0  0  0  0  0
   10.3626  -14.0603    0.0000 C   0  0  0  0  0  0  0  0  0  0  0  0
    9.6523  -13.6406    0.0000 C   0  0  0  0  0  0  0  0  0  0  0  0
    8.9337  -14.0459    0.0000 C   0  0  0  0  0  0  0  0  0  0  0  0
    8.9254  -14.8709    0.0000 C   0  0  0  0  0  0  0  0  0  0  0  0
    9.6606  -12.8157    0.0000 C   0  0  2  0  0  0  0  0  0  0  0  0
    8.9503  -12.3960    0.0000 C   0  0  0  0  0  0  0  0  0  0  0  0
    8.9586  -11.5710    0.0000 C   0  0  0  0  0  0  0  0  0  0  0  0
    9.6772  -11.1657    0.0000 C   0  0  0  0  0  0  0  0  0  0  0  0
    9.6855  -10.3408    0.0000 C   0  0  0  0  0  0  0  0  0  0  0  0
   10.4041   -9.9355    0.0000 C   0  0  0  0  0  0  0  0  0  0  0  0
   11.1144  -10.3552    0.0000 C   0  0  0  0  0  0  0  0  0  0  0  0
   11.1061  -11.1801    0.0000 C   0  0  0  0  0  0  0  0  0  0  0  0
   10.3875  -11.5854    0.0000 C   0  0  0  0  0  0  0  0  0  0  0  0
   10.3792  -12.4104    0.0000 O   0  0  0  0  0  0  0  0  0  0  0  0
    8.2483  -11.1514    0.0000 O   0  0  0  0  0  0  0  0  0  0  0  0
   11.8330   -9.9499    0.0000 O   0  0  0  0  0  0  0  0  0  0  0  0
   12.4851  -16.1443    0.0000 C   0  0  0  0  0  0  0  0  0  0  0  0
   13.1954  -16.5639    0.0000 O   0  0  0  0  0  0  0  0  0  0  0  0
   12.4685  -17.7942    0.0000 O   0  0  0  0  0  0  0  0  0  0  0  0
   11.0314  -18.6047    0.0000 O   0  0  0  0  0  0  0  0  0  0  0  0
  1  2  1  0  0  0  0
  2  3  2  0  0  0  0
  1  4  2  0  0  0  0
  1  5  1  0  0  0  0
  6  7  1  0  0  0  0
  7  8  2  0  0  0  0
  8  9  1  0  0  0  0
  9 10  2  0  0  0  0
 10 11  1  0  0  0  0
  6 11  2  0  0  0  0
  9 12  1  0  0  0  0
  3  6  1  0  0  0  0
 14 15  1  0  0  0  0
 15 16  1  0  0  0  0
 16 17  1  0  0  0  0
 17 18  1  0  0  0  0
 14 18  1  0  0  0  0
 17 19  1  1  0  0  0
 16 20  1  0  0  0  0
 22 23  1  0  0  0  0
 23 24  1  0  0  0  0
 24 25  1  0  0  0  0
 25 26  1  0  0  0  0
 26 27  1  0  0  0  0
 22 27  1  0  0  0  0
 29 30  1  0  0  0  0
 30 31  2  0  0  0  0
 31 32  1  0  0  0  0
 32 33  2  0  0  0  0
 33 34  1  0  0  0  0
 29 34  2  0  0  0  0
 28 29  1  0  0  0  0
 35 36  1  0  0  0  0
 36 37  1  0  0  0  0
 37 38  1  0  0  0  0
 38 39  1  0  0  0  0
 39 40  2  0  0  0  0
 40 41  1  0  0  0  0
 41 42  2  0  0  0  0
 42 43  1  0  0  0  0
 38 43  2  0  0  0  0
 43 44  1  0  0  0  0
 35 44  1  0  0  0  0
 37 45  2  0  0  0  0
 41 46  1  0  0  0  0
 35 32  1  6  0  0  0
 23 28  1  6  0  0  0
 47 48  1  0  0  0  0
 27 47  1  0  0  0  0
 26 49  1  1  0  0  0
 25 50  1  6  0  0  0
 21 24  1  0  0  0  0
 18 21  1  1  0  0  0
 13 16  1  0  0  0  0
  5 13  1  0  0  0  0
M  END
>  <cdx:fragmentId>
150711

$$$$
