42607807.cdx
  Mrv1902 05222410262D          

 50 55  0  0  0  0            999 V2000
    5.5304  -16.4555    0.0000 C   0  0  0  0  0  0  0  0  0  0  0  0
    4.8159  -16.8680    0.0000 C   0  0  0  0  0  0  0  0  0  0  0  0
    4.1015  -16.4555    0.0000 C   0  0  0  0  0  0  0  0  0  0  0  0
    5.5304  -15.6305    0.0000 O   0  0  0  0  0  0  0  0  0  0  0  0
    6.2449  -16.8680    0.0000 O   0  0  0  0  0  0  0  0  0  0  0  0
    3.3870  -16.8680    0.0000 C   0  0  0  0  0  0  0  0  0  0  0  0
    2.6725  -16.4555    0.0000 C   0  0  0  0  0  0  0  0  0  0  0  0
    1.9580  -16.8680    0.0000 C   0  0  0  0  0  0  0  0  0  0  0  0
    1.9580  -17.6930    0.0000 C   0  0  0  0  0  0  0  0  0  0  0  0
    2.6725  -18.1055    0.0000 C   0  0  0  0  0  0  0  0  0  0  0  0
    3.3870  -17.6930    0.0000 C   0  0  0  0  0  0  0  0  0  0  0  0
    1.2436  -18.1055    0.0000 O   0  0  0  0  0  0  0  0  0  0  0  0
    6.9593  -16.4555    0.0000 C   0  0  0  0  0  0  0  0  0  0  0  0
    8.9434  -16.4555    0.0000 O   0  0  0  0  0  0  0  0  0  0  0  0
    8.1587  -16.2006    0.0000 C   0  0  0  0  0  0  0  0  0  0  0  0
    7.6738  -16.8680    0.0000 C   0  0  0  0  0  0  0  0  0  0  0  0
    8.1587  -17.5354    0.0000 C   0  0  1  0  0  0  0  0  0  0  0  0
    8.9434  -17.2805    0.0000 C   0  0  2  0  0  0  0  0  0  0  0  0
    7.9038  -18.3201    0.0000 O   0  0  0  0  0  0  0  0  0  0  0  0
    6.9593  -17.2805    0.0000 O   0  0  0  0  0  0  0  0  0  0  0  0
    9.6108  -17.7654    0.0000 O   0  0  0  0  0  0  0  0  0  0  0  0
   11.0284  -16.1057    0.0000 O   0  0  0  0  0  0  0  0  0  0  0  0
   10.3168  -16.5231    0.0000 C   0  0  2  0  0  0  0  0  0  0  0  0
   10.3224  -17.3480    0.0000 C   0  0  0  0  0  0  0  0  0  0  0  0
   11.0397  -17.7557    0.0000 C   0  0  2  0  0  0  0  0  0  0  0  0
   11.7513  -17.3383    0.0000 C   0  0  1  0  0  0  0  0  0  0  0  0
   11.7457  -16.5133    0.0000 C   0  0  0  0  0  0  0  0  0  0  0  0
    9.5995  -16.1155    0.0000 O   0  0  0  0  0  0  0  0  0  0  0  0
    9.5939  -15.2905    0.0000 C   0  0  0  0  0  0  0  0  0  0  0  0
   10.3055  -14.8731    0.0000 C   0  0  0  0  0  0  0  0  0  0  0  0
   10.2999  -14.0481    0.0000 C   0  0  0  0  0  0  0  0  0  0  0  0
    9.5826  -13.6405    0.0000 C   0  0  0  0  0  0  0  0  0  0  0  0
    8.8710  -14.0579    0.0000 C   0  0  0  0  0  0  0  0  0  0  0  0
    8.8766  -14.8829    0.0000 C   0  0  0  0  0  0  0  0  0  0  0  0
    9.5770  -12.8155    0.0000 C   0  0  1  0  0  0  0  0  0  0  0  0
    8.8597  -12.4079    0.0000 C   0  0  0  0  0  0  0  0  0  0  0  0
    8.8541  -11.5829    0.0000 C   0  0  0  0  0  0  0  0  0  0  0  0
    9.5657  -11.1656    0.0000 C   0  0  0  0  0  0  0  0  0  0  0  0
    9.5601  -10.3406    0.0000 C   0  0  0  0  0  0  0  0  0  0  0  0
   10.2717   -9.9232    0.0000 C   0  0  0  0  0  0  0  0  0  0  0  0
   10.9890  -10.3308    0.0000 C   0  0  0  0  0  0  0  0  0  0  0  0
   10.9946  -11.1558    0.0000 C   0  0  0  0  0  0  0  0  0  0  0  0
   10.2830  -11.5732    0.0000 C   0  0  0  0  0  0  0  0  0  0  0  0
   10.2886  -12.3982    0.0000 O   0  0  0  0  0  0  0  0  0  0  0  0
    8.1368  -11.1753    0.0000 O   0  0  0  0  0  0  0  0  0  0  0  0
   11.7006   -9.9135    0.0000 O   0  0  0  0  0  0  0  0  0  0  0  0
   12.4573  -16.0959    0.0000 C   0  0  0  0  0  0  0  0  0  0  0  0
   13.1746  -16.5035    0.0000 O   0  0  0  0  0  0  0  0  0  0  0  0
   12.4686  -17.7459    0.0000 O   0  0  0  0  0  0  0  0  0  0  0  0
   11.0453  -18.5806    0.0000 O   0  0  0  0  0  0  0  0  0  0  0  0
  1  2  1  0  0  0  0
  2  3  2  0  0  0  0
  1  4  2  0  0  0  0
  1  5  1  0  0  0  0
  6  7  1  0  0  0  0
  7  8  2  0  0  0  0
  8  9  1  0  0  0  0
  9 10  2  0  0  0  0
 10 11  1  0  0  0  0
  6 11  2  0  0  0  0
  9 12  1  0  0  0  0
  3  6  1  0  0  0  0
 14 15  1  0  0  0  0
 15 16  1  0  0  0  0
 16 17  1  0  0  0  0
 17 18  1  0  0  0  0
 14 18  1  0  0  0  0
 17 19  1  1  0  0  0
 16 20  1  0  0  0  0
 22 23  1  0  0  0  0
 23 24  1  0  0  0  0
 24 25  1  0  0  0  0
 25 26  1  0  0  0  0
 26 27  1  0  0  0  0
 22 27  1  0  0  0  0
 29 30  1  0  0  0  0
 30 31  2  0  0  0  0
 31 32  1  0  0  0  0
 32 33  2  0  0  0  0
 33 34  1  0  0  0  0
 29 34  2  0  0  0  0
 28 29  1  0  0  0  0
 35 36  1  0  0  0  0
 36 37  1  0  0  0  0
 37 38  1  0  0  0  0
 38 39  1  0  0  0  0
 39 40  2  0  0  0  0
 40 41  1  0  0  0  0
 41 42  2  0  0  0  0
 42 43  1  0  0  0  0
 38 43  2  0  0  0  0
 43 44  1  0  0  0  0
 35 44  1  0  0  0  0
 37 45  2  0  0  0  0
 41 46  1  0  0  0  0
 35 32  1  1  0  0  0
 23 28  1  6  0  0  0
 47 48  1  0  0  0  0
 27 47  1  0  0  0  0
 26 49  1  1  0  0  0
 25 50  1  6  0  0  0
 21 24  1  0  0  0  0
 18 21  1  1  0  0  0
 13 16  1  0  0  0  0
  5 13  1  0  0  0  0
M  END
>  <cdx:fragmentId>
150549

$$$$
