42607810.cdx
  Mrv1902 05222410262D          

 52 57  0  0  0  0            999 V2000
    5.7381  -16.4555    0.0000 C   0  0  0  0  0  0  0  0  0  0  0  0
    5.0237  -16.8680    0.0000 C   0  0  0  0  0  0  0  0  0  0  0  0
    4.3092  -16.4555    0.0000 C   0  0  0  0  0  0  0  0  0  0  0  0
    5.7381  -15.6305    0.0000 O   0  0  0  0  0  0  0  0  0  0  0  0
    6.4526  -16.8680    0.0000 O   0  0  0  0  0  0  0  0  0  0  0  0
    3.5947  -16.8680    0.0000 C   0  0  0  0  0  0  0  0  0  0  0  0
    2.8803  -16.4555    0.0000 C   0  0  0  0  0  0  0  0  0  0  0  0
    2.1658  -16.8680    0.0000 C   0  0  0  0  0  0  0  0  0  0  0  0
    2.1658  -17.6930    0.0000 C   0  0  0  0  0  0  0  0  0  0  0  0
    2.8803  -18.1055    0.0000 C   0  0  0  0  0  0  0  0  0  0  0  0
    3.5947  -17.6930    0.0000 C   0  0  0  0  0  0  0  0  0  0  0  0
    1.4513  -16.4555    0.0000 O   0  0  0  0  0  0  0  0  0  0  0  0
    0.7368  -16.8680    0.0000 C   0  0  0  0  0  0  0  0  0  0  0  0
    1.4513  -18.1055    0.0000 O   0  0  0  0  0  0  0  0  0  0  0  0
    7.1671  -16.4555    0.0000 C   0  0  0  0  0  0  0  0  0  0  0  0
    9.1511  -16.4555    0.0000 O   0  0  0  0  0  0  0  0  0  0  0  0
    8.3665  -16.2006    0.0000 C   0  0  0  0  0  0  0  0  0  0  0  0
    7.8816  -16.8680    0.0000 C   0  0  0  0  0  0  0  0  0  0  0  0
    8.3665  -17.5354    0.0000 C   0  0  1  0  0  0  0  0  0  0  0  0
    9.1511  -17.2805    0.0000 C   0  0  2  0  0  0  0  0  0  0  0  0
    8.1115  -18.3201    0.0000 O   0  0  0  0  0  0  0  0  0  0  0  0
    7.1671  -17.2805    0.0000 O   0  0  0  0  0  0  0  0  0  0  0  0
    9.8185  -17.7654    0.0000 O   0  0  0  0  0  0  0  0  0  0  0  0
   11.2509  -16.1183    0.0000 O   0  0  0  0  0  0  0  0  0  0  0  0
   10.5355  -16.5294    0.0000 C   0  0  2  0  0  0  0  0  0  0  0  0
   10.5339  -17.3544    0.0000 C   0  0  0  0  0  0  0  0  0  0  0  0
   11.2475  -17.7683    0.0000 C   0  0  2  0  0  0  0  0  0  0  0  0
   11.9628  -17.3573    0.0000 C   0  0  1  0  0  0  0  0  0  0  0  0
   11.9645  -16.5323    0.0000 C   0  0  0  0  0  0  0  0  0  0  0  0
    9.8219  -16.1154    0.0000 O   0  0  0  0  0  0  0  0  0  0  0  0
    9.8236  -15.2904    0.0000 C   0  0  0  0  0  0  0  0  0  0  0  0
   10.5389  -14.8794    0.0000 C   0  0  0  0  0  0  0  0  0  0  0  0
   10.5406  -14.0544    0.0000 C   0  0  0  0  0  0  0  0  0  0  0  0
    9.8270  -13.6404    0.0000 C   0  0  0  0  0  0  0  0  0  0  0  0
    9.1117  -14.0515    0.0000 C   0  0  0  0  0  0  0  0  0  0  0  0
    9.1100  -14.8765    0.0000 C   0  0  0  0  0  0  0  0  0  0  0  0
    9.8287  -12.8154    0.0000 C   0  0  2  0  0  0  0  0  0  0  0  0
    9.1151  -12.4015    0.0000 C   0  0  0  0  0  0  0  0  0  0  0  0
    9.1167  -11.5765    0.0000 C   0  0  0  0  0  0  0  0  0  0  0  0
    9.8321  -11.1654    0.0000 C   0  0  0  0  0  0  0  0  0  0  0  0
    9.8338  -10.3404    0.0000 C   0  0  0  0  0  0  0  0  0  0  0  0
   10.5491   -9.9294    0.0000 C   0  0  0  0  0  0  0  0  0  0  0  0
   11.2627  -10.3434    0.0000 C   0  0  0  0  0  0  0  0  0  0  0  0
   11.2610  -11.1684    0.0000 C   0  0  0  0  0  0  0  0  0  0  0  0
   10.5457  -11.5794    0.0000 C   0  0  0  0  0  0  0  0  0  0  0  0
   10.5440  -12.4044    0.0000 O   0  0  0  0  0  0  0  0  0  0  0  0
    8.4031  -11.1625    0.0000 O   0  0  0  0  0  0  0  0  0  0  0  0
   11.9780   -9.9323    0.0000 O   0  0  0  0  0  0  0  0  0  0  0  0
   12.6798  -16.1213    0.0000 C   0  0  0  0  0  0  0  0  0  0  0  0
   13.3934  -16.5352    0.0000 O   0  0  0  0  0  0  0  0  0  0  0  0
   12.6764  -17.7713    0.0000 O   0  0  0  0  0  0  0  0  0  0  0  0
   11.2458  -18.5933    0.0000 O   0  0  0  0  0  0  0  0  0  0  0  0
  1  2  1  0  0  0  0
  2  3  2  0  0  0  0
  1  4  2  0  0  0  0
  1  5  1  0  0  0  0
  6  7  1  0  0  0  0
  7  8  2  0  0  0  0
  8  9  1  0  0  0  0
  9 10  2  0  0  0  0
 10 11  1  0  0  0  0
  6 11  2  0  0  0  0
 12 13  1  0  0  0  0
  8 12  1  0  0  0  0
  9 14  1  0  0  0  0
  3  6  1  0  0  0  0
 16 17  1  0  0  0  0
 17 18  1  0  0  0  0
 18 19  1  0  0  0  0
 19 20  1  0  0  0  0
 16 20  1  0  0  0  0
 19 21  1  1  0  0  0
 18 22  1  0  0  0  0
 24 25  1  0  0  0  0
 25 26  1  0  0  0  0
 26 27  1  0  0  0  0
 27 28  1  0  0  0  0
 28 29  1  0  0  0  0
 24 29  1  0  0  0  0
 31 32  1  0  0  0  0
 32 33  2  0  0  0  0
 33 34  1  0  0  0  0
 34 35  2  0  0  0  0
 35 36  1  0  0  0  0
 31 36  2  0  0  0  0
 30 31  1  0  0  0  0
 37 38  1  0  0  0  0
 38 39  1  0  0  0  0
 39 40  1  0  0  0  0
 40 41  1  0  0  0  0
 41 42  2  0  0  0  0
 42 43  1  0  0  0  0
 43 44  2  0  0  0  0
 44 45  1  0  0  0  0
 40 45  2  0  0  0  0
 45 46  1  0  0  0  0
 37 46  1  0  0  0  0
 39 47  2  0  0  0  0
 43 48  1  0  0  0  0
 37 34  1  6  0  0  0
 25 30  1  6  0  0  0
 49 50  1  0  0  0  0
 29 49  1  0  0  0  0
 28 51  1  1  0  0  0
 27 52  1  6  0  0  0
 23 26  1  0  0  0  0
 20 23  1  1  0  0  0
 15 18  1  0  0  0  0
  5 15  1  0  0  0  0
M  END
>  <cdx:fragmentId>
151056

$$$$
