42607818.cdx
  Mrv1902 05222410192D          

 34 37  0  0  0  0            999 V2000
    7.5278  -15.4197    0.0000 C   0  0  0  0  0  0  0  0  0  0  0  0
    7.5278  -16.2447    0.0000 C   0  0  0  0  0  0  0  0  0  0  0  0
    8.2423  -16.6572    0.0000 C   0  0  0  0  0  0  0  0  0  0  0  0
    8.9568  -16.2447    0.0000 C   0  0  0  0  0  0  0  0  0  0  0  0
    9.6712  -16.6572    0.0000 C   0  0  0  0  0  0  0  0  0  0  0  0
   10.3857  -16.2447    0.0000 C   0  0  0  0  0  0  0  0  0  0  0  0
   10.3857  -15.4197    0.0000 C   0  0  0  0  0  0  0  0  0  0  0  0
    9.6712  -15.0072    0.0000 C   0  0  0  0  0  0  0  0  0  0  0  0
    8.9568  -15.4197    0.0000 C   0  0  0  0  0  0  0  0  0  0  0  0
    8.2423  -15.0072    0.0000 O   0  0  0  0  0  0  0  0  0  0  0  0
    8.2423  -17.4822    0.0000 O   0  0  0  0  0  0  0  0  0  0  0  0
    9.6712  -14.1822    0.0000 C   0  0  0  0  0  0  0  0  0  0  0  0
   10.3857  -13.7697    0.0000 C   0  0  0  0  0  0  0  0  0  0  0  0
   10.3857  -12.9447    0.0000 C   0  0  0  0  0  0  0  0  0  0  0  0
    9.6712  -12.5322    0.0000 C   0  0  0  0  0  0  0  0  0  0  0  0
   11.1002  -12.5322    0.0000 C   0  0  0  0  0  0  0  0  0  0  0  0
   11.1002  -15.0072    0.0000 O   0  0  0  0  0  0  0  0  0  0  0  0
    3.9555  -14.1822    0.0000 C   0  0  0  0  0  0  0  0  0  0  0  0
    3.9555  -15.0072    0.0000 C   0  0  0  0  0  0  0  0  0  0  0  0
    4.6699  -15.4197    0.0000 C   0  0  0  0  0  0  0  0  0  0  0  0
    5.3844  -15.0072    0.0000 C   0  0  0  0  0  0  0  0  0  0  0  0
    6.0989  -15.4197    0.0000 C   0  0  0  0  0  0  0  0  0  0  0  0
    6.8134  -15.0072    0.0000 C   0  0  0  0  0  0  0  0  0  0  0  0
    6.8134  -14.1822    0.0000 C   0  0  0  0  0  0  0  0  0  0  0  0
    6.0989  -13.7697    0.0000 C   0  0  0  0  0  0  0  0  0  0  0  0
    5.3844  -14.1822    0.0000 C   0  0  0  0  0  0  0  0  0  0  0  0
    4.6699  -13.7697    0.0000 O   0  0  0  0  0  0  0  0  0  0  0  0
    6.0989  -12.9447    0.0000 C   0  0  0  0  0  0  0  0  0  0  0  0
    6.8134  -12.5322    0.0000 C   0  0  0  0  0  0  0  0  0  0  0  0
    6.8134  -11.7072    0.0000 C   0  0  0  0  0  0  0  0  0  0  0  0
    6.0989  -11.2947    0.0000 C   0  0  0  0  0  0  0  0  0  0  0  0
    7.5278  -11.2947    0.0000 C   0  0  0  0  0  0  0  0  0  0  0  0
    3.1305  -14.1822    0.0000 C   0  0  0  0  0  0  0  0  0  0  0  0
    3.5430  -13.4677    0.0000 C   0  0  0  0  0  0  0  0  0  0  0  0
  1  2  1  0  0  0  0
  2  3  1  0  0  0  0
  3  4  1  0  0  0  0
  4  5  1  0  0  0  0
  5  6  2  0  0  0  0
  6  7  1  0  0  0  0
  7  8  2  0  0  0  0
  8  9  1  0  0  0  0
  4  9  2  0  0  0  0
  9 10  1  0  0  0  0
  1 10  1  0  0  0  0
  3 11  2  0  0  0  0
 12 13  1  0  0  0  0
 13 14  2  0  0  0  0
 14 15  1  0  0  0  0
 14 16  1  0  0  0  0
  8 12  1  0  0  0  0
  7 17  1  0  0  0  0
 18 19  1  0  0  0  0
 19 20  2  0  0  0  0
 20 21  1  0  0  0  0
 21 22  1  0  0  0  0
 22 23  2  0  0  0  0
 23 24  1  0  0  0  0
 24 25  2  0  0  0  0
 25 26  1  0  0  0  0
 21 26  2  0  0  0  0
 26 27  1  0  0  0  0
 18 27  1  0  0  0  0
 28 29  1  0  0  0  0
 29 30  2  0  0  0  0
 30 31  1  0  0  0  0
 30 32  1  0  0  0  0
 25 28  1  0  0  0  0
 18 33  1  0  0  0  0
 18 34  1  0  0  0  0
  1 23  1  0  0  0  0
M  END
>  <cdx:groupId>
151435

>  <cdx:fragmentId>
151367

$$$$
