42607897.cdx
  Mrv1902 05222410222D          

 32 35  0  0  0  0            999 V2000
    9.0544  -14.8577    0.0000 C   0  0  0  0  0  0  0  0  0  0  0  0
    9.0544  -14.0327    0.0000 C   0  0  0  0  0  0  0  0  0  0  0  0
    8.3400  -13.6202    0.0000 C   0  0  0  0  0  0  0  0  0  0  0  0
    7.6255  -14.0327    0.0000 C   0  0  0  0  0  0  0  0  0  0  0  0
    6.9110  -13.6202    0.0000 C   0  0  0  0  0  0  0  0  0  0  0  0
    6.1965  -14.0327    0.0000 C   0  0  0  0  0  0  0  0  0  0  0  0
    6.1965  -14.8577    0.0000 C   0  0  0  0  0  0  0  0  0  0  0  0
    6.9110  -15.2702    0.0000 C   0  0  0  0  0  0  0  0  0  0  0  0
    7.6255  -14.8577    0.0000 C   0  0  0  0  0  0  0  0  0  0  0  0
    8.3400  -15.2702    0.0000 O   0  0  0  0  0  0  0  0  0  0  0  0
    8.3400  -12.7952    0.0000 O   0  0  0  0  0  0  0  0  0  0  0  0
    5.4821  -15.2702    0.0000 O   0  0  0  0  0  0  0  0  0  0  0  0
    4.7676  -14.0327    0.0000 O   0  0  0  0  0  0  0  0  0  0  0  0
    4.7676  -14.8577    0.0000 C   0  0  0  0  0  0  0  0  0  0  0  0
    4.0531  -15.2702    0.0000 C   0  0  0  0  0  0  0  0  0  0  0  0
    3.3387  -14.8577    0.0000 C   0  0  0  0  0  0  0  0  0  0  0  0
    3.3387  -14.0327    0.0000 C   0  0  0  0  0  0  0  0  0  0  0  0
    4.0531  -13.6202    0.0000 C   0  0  0  0  0  0  0  0  0  0  0  0
    4.0531  -12.7952    0.0000 C   0  0  0  0  0  0  0  0  0  0  0  0
    3.3387  -12.3827    0.0000 O   0  0  0  0  0  0  0  0  0  0  0  0
    2.6242  -13.6202    0.0000 O   0  0  0  0  0  0  0  0  0  0  0  0
    2.6242  -15.2702    0.0000 O   0  0  0  0  0  0  0  0  0  0  0  0
    4.0531  -16.0952    0.0000 O   0  0  0  0  0  0  0  0  0  0  0  0
    5.4821  -13.6202    0.0000 C   0  0  0  0  0  0  0  0  0  0  0  0
    9.7689  -15.2702    0.0000 C   0  0  0  0  0  0  0  0  0  0  0  0
   10.4834  -14.8577    0.0000 C   0  0  0  0  0  0  0  0  0  0  0  0
   11.1978  -15.2702    0.0000 C   0  0  0  0  0  0  0  0  0  0  0  0
   11.1978  -16.0952    0.0000 C   0  0  0  0  0  0  0  0  0  0  0  0
   10.4834  -16.5077    0.0000 C   0  0  0  0  0  0  0  0  0  0  0  0
    9.7689  -16.0952    0.0000 C   0  0  0  0  0  0  0  0  0  0  0  0
   11.9123  -16.5077    0.0000 O   0  0  0  0  0  0  0  0  0  0  0  0
    6.9110  -12.7952    0.0000 O   0  0  0  0  0  0  0  0  0  0  0  0
  1  2  1  0  0  0  0
  2  3  1  0  0  0  0
  3  4  1  0  0  0  0
  4  5  1  0  0  0  0
  5  6  2  0  0  0  0
  6  7  1  0  0  0  0
  7  8  2  0  0  0  0
  8  9  1  0  0  0  0
  4  9  2  0  0  0  0
  9 10  1  0  0  0  0
  1 10  1  0  0  0  0
  3 11  2  0  0  0  0
 13 14  1  0  0  0  0
 14 15  1  0  0  0  0
 15 16  1  0  0  0  0
 16 17  1  0  0  0  0
 17 18  1  0  0  0  0
 13 18  1  0  0  0  0
 19 20  1  0  0  0  0
 18 19  1  0  0  0  0
 17 21  1  0  0  0  0
 16 22  1  0  0  0  0
 15 23  1  0  0  0  0
 12 14  1  0  0  0  0
  7 12  1  0  0  0  0
  6 24  1  0  0  0  0
 25 26  1  0  0  0  0
 26 27  2  0  0  0  0
 27 28  1  0  0  0  0
 28 29  2  0  0  0  0
 29 30  1  0  0  0  0
 25 30  2  0  0  0  0
 28 31  1  0  0  0  0
  1 25  1  0  0  0  0
  5 32  1  0  0  0  0
M  END
>  <cdx:groupId>
151613

>  <cdx:fragmentId>
151541

$$$$
