42607996.cdx
  Mrv1902 05222410192D          

 30 32  0  0  0  0            999 V2000
    4.2609  -15.6827    0.0000 C   0  0  0  0  0  0  0  0  0  0  0  0
    3.5464  -16.0952    0.0000 C   0  0  0  0  0  0  0  0  0  0  0  0
    4.2609  -14.8577    0.0000 O   0  0  0  0  0  0  0  0  0  0  0  0
    4.9754  -16.0952    0.0000 O   0  0  0  0  0  0  0  0  0  0  0  0
    5.6898  -15.6827    0.0000 C   0  0  0  0  0  0  0  0  0  0  0  0
    6.4043  -16.0952    0.0000 C   0  0  0  0  0  0  0  0  0  0  0  0
    7.1188  -15.6827    0.0000 C   0  0  0  0  0  0  0  0  0  0  0  0
    7.8332  -16.0952    0.0000 C   0  0  0  0  0  0  0  0  0  0  0  0
    6.4043  -16.9202    0.0000 C   0  0  0  0  0  0  0  0  0  0  0  0
    7.8332  -13.6202    0.0000 C   0  0  2  0  0  0  0  0  0  0  0  0
    8.5477  -13.2077    0.0000 C   0  0  0  0  0  0  0  0  0  0  0  0
    9.2622  -13.6202    0.0000 C   0  0  0  0  0  0  0  0  0  0  0  0
    9.2622  -14.4452    0.0000 C   0  0  0  0  0  0  0  0  0  0  0  0
    9.9766  -14.8577    0.0000 C   0  0  0  0  0  0  0  0  0  0  0  0
    9.9766  -15.6827    0.0000 C   0  0  0  0  0  0  0  0  0  0  0  0
    9.2622  -16.0952    0.0000 C   0  0  0  0  0  0  0  0  0  0  0  0
    8.5477  -15.6827    0.0000 C   0  0  0  0  0  0  0  0  0  0  0  0
    8.5477  -14.8577    0.0000 C   0  0  0  0  0  0  0  0  0  0  0  0
    7.8332  -14.4452    0.0000 O   0  0  0  0  0  0  0  0  0  0  0  0
    9.9766  -13.2077    0.0000 O   0  0  0  0  0  0  0  0  0  0  0  0
    9.2622  -16.9202    0.0000 O   0  0  0  0  0  0  0  0  0  0  0  0
   10.6911  -14.4452    0.0000 O   0  0  0  0  0  0  0  0  0  0  0  0
    7.1188  -13.2077    0.0000 C   0  0  0  0  0  0  0  0  0  0  0  0
    6.4043  -13.6202    0.0000 C   0  0  0  0  0  0  0  0  0  0  0  0
    5.6898  -13.2077    0.0000 C   0  0  0  0  0  0  0  0  0  0  0  0
    5.6898  -12.3827    0.0000 C   0  0  0  0  0  0  0  0  0  0  0  0
    6.4043  -11.9702    0.0000 C   0  0  0  0  0  0  0  0  0  0  0  0
    7.1188  -12.3827    0.0000 C   0  0  0  0  0  0  0  0  0  0  0  0
    4.9754  -11.9702    0.0000 O   0  0  0  0  0  0  0  0  0  0  0  0
    4.9754  -13.6202    0.0000 O   0  0  0  0  0  0  0  0  0  0  0  0
  1  2  1  0  0  0  0
  1  3  2  0  0  0  0
  1  4  1  0  0  0  0
  5  6  1  0  0  0  0
  6  7  2  0  0  0  0
  7  8  1  0  0  0  0
  6  9  1  0  0  0  0
 10 11  1  0  0  0  0
 11 12  1  0  0  0  0
 12 13  1  0  0  0  0
 13 14  1  0  0  0  0
 14 15  2  0  0  0  0
 15 16  1  0  0  0  0
 16 17  2  0  0  0  0
 17 18  1  0  0  0  0
 13 18  2  0  0  0  0
 18 19  1  0  0  0  0
 10 19  1  0  0  0  0
 12 20  2  0  0  0  0
 16 21  1  0  0  0  0
 14 22  1  0  0  0  0
 23 24  1  0  0  0  0
 24 25  2  0  0  0  0
 25 26  1  0  0  0  0
 26 27  2  0  0  0  0
 27 28  1  0  0  0  0
 23 28  2  0  0  0  0
 26 29  1  0  0  0  0
 25 30  1  0  0  0  0
 10 23  1  6  0  0  0
  8 17  1  0  0  0  0
  4  5  1  0  0  0  0
M  END
>  <cdx:fragmentId>
151878

$$$$
