607924.cdx
  Mrv1902 05222410212D          

 42 46  0  0  0  0            999 V2000
    7.0784  -10.3022    0.0000 O   0  0  0  0  0  0  0  0  0  0  0  0
    4.2277   -5.3481    0.0000 O   0  0  0  0  0  0  0  0  0  0  0  0
    7.0879   -4.5313    0.0000 O   0  0  0  0  0  0  0  0  0  0  0  0
    7.0855   -5.3563    0.0000 C   0  0  0  0  0  0  0  0  0  0  0  0
    6.3746   -4.1167    0.0000 C   0  0  0  0  0  0  0  0  0  0  0  0
    5.6590   -4.5272    0.0000 O   0  0  0  0  0  0  0  0  0  0  0  0
    2.7051   -9.5074    0.0000 O   0  0  0  0  0  0  0  0  0  0  0  0
    4.1305  -10.3386    0.0000 O   0  0  0  0  0  0  0  0  0  0  0  0
    5.5630   -9.5197    0.0000 C   0  0  0  0  0  0  0  0  0  0  0  0
    4.8503   -9.1042    0.0000 C   0  0  1  0  0  0  0  0  0  0  0  0
    4.1341   -9.5136    0.0000 C   0  0  1  0  0  0  0  0  0  0  0  0
    3.4214   -9.0980    0.0000 C   0  0  2  0  0  0  0  0  0  0  0  0
    3.4249   -8.2730    0.0000 C   0  0  2  0  0  0  0  0  0  0  0  0
    4.1412   -7.8636    0.0000 C   0  0  1  0  0  0  0  0  0  0  0  0
    4.8539   -8.2792    0.0000 O   0  0  0  0  0  0  0  0  0  0  0  0
    4.1458   -7.0249    0.0000 O   0  0  0  0  0  0  0  0  0  0  0  0
    6.3699   -5.7667    0.0000 C   0  0  2  0  0  0  0  0  0  0  0  0
    5.6566   -5.3522    0.0000 C   0  0  2  0  0  0  0  0  0  0  0  0
    4.9410   -5.7626    0.0000 C   0  0  1  0  0  0  0  0  0  0  0  0
    4.9386   -6.5876    0.0000 C   0  0  2  0  0  0  0  0  0  0  0  0
    5.6519   -7.0022    0.0000 C   0  0  1  0  0  0  0  0  0  0  0  0
    6.3675   -6.5917    0.0000 O   0  0  0  0  0  0  0  0  0  0  0  0
    5.6495   -7.8272    0.0000 O   0  0  0  0  0  0  0  0  0  0  0  0
   12.0797   -6.5897    0.0000 O   0  0  0  0  0  0  0  0  0  0  0  0
    9.9363   -7.0022    0.0000 C   0  0  0  0  0  0  0  0  0  0  0  0
   10.6508   -6.5897    0.0000 C   0  0  0  0  0  0  0  0  0  0  0  0
   11.3653   -7.0022    0.0000 C   0  0  0  0  0  0  0  0  0  0  0  0
   11.3653   -7.8272    0.0000 C   0  0  0  0  0  0  0  0  0  0  0  0
   10.6508   -8.2397    0.0000 C   0  0  0  0  0  0  0  0  0  0  0  0
    9.9363   -7.8272    0.0000 C   0  0  0  0  0  0  0  0  0  0  0  0
    8.5074  -10.3022    0.0000 O   0  0  0  0  0  0  0  0  0  0  0  0
    8.5074   -7.8272    0.0000 O   0  0  0  0  0  0  0  0  0  0  0  0
    7.7929   -8.2397    0.0000 C   0  0  0  0  0  0  0  0  0  0  0  0
    7.0784   -7.8272    0.0000 C   0  0  0  0  0  0  0  0  0  0  0  0
    6.3640   -8.2397    0.0000 C   0  0  0  0  0  0  0  0  0  0  0  0
    6.3640   -9.0647    0.0000 C   0  0  0  0  0  0  0  0  0  0  0  0
    7.0784   -9.4772    0.0000 C   0  0  0  0  0  0  0  0  0  0  0  0
    7.7929   -9.0647    0.0000 C   0  0  0  0  0  0  0  0  0  0  0  0
    8.5074   -9.4772    0.0000 C   0  0  0  0  0  0  0  0  0  0  0  0
    9.2219   -9.0647    0.0000 C   0  0  0  0  0  0  0  0  0  0  0  0
    9.2219   -8.2397    0.0000 C   0  0  0  0  0  0  0  0  0  0  0  0
    2.7122   -7.8575    0.0000 O   0  0  0  0  0  0  0  0  0  0  0  0
 37  1  1  0  0  0  0
 35 23  1  0  0  0  0
 21 23  1  1  0  0  0
 19  2  1  1  0  0  0
 17  4  1  1  0  0  0
  4  3  1  0  0  0  0
 18  6  1  6  0  0  0
  6  5  1  0  0  0  0
 20 16  1  6  0  0  0
 14 16  1  6  0  0  0
 12  7  1  1  0  0  0
 11  8  1  6  0  0  0
 10  9  1  1  0  0  0
 15 10  1  0  0  0  0
 11 10  1  0  0  0  0
 12 11  1  0  0  0  0
 13 12  1  0  0  0  0
 14 13  1  0  0  0  0
 15 14  1  0  0  0  0
 22 17  1  0  0  0  0
 18 17  1  0  0  0  0
 19 18  1  0  0  0  0
 20 19  1  0  0  0  0
 21 20  1  0  0  0  0
 22 21  1  0  0  0  0
 41 30  1  0  0  0  0
 27 24  1  0  0  0  0
 30 25  2  0  0  0  0
 26 25  1  0  0  0  0
 27 26  2  0  0  0  0
 28 27  1  0  0  0  0
 29 28  2  0  0  0  0
 30 29  1  0  0  0  0
 39 31  2  0  0  0  0
 41 32  1  0  0  0  0
 33 32  1  0  0  0  0
 38 33  2  0  0  0  0
 34 33  1  0  0  0  0
 35 34  2  0  0  0  0
 36 35  1  0  0  0  0
 37 36  2  0  0  0  0
 38 37  1  0  0  0  0
 39 38  1  0  0  0  0
 40 39  1  0  0  0  0
 41 40  1  0  0  0  0
 13 42  1  1  0  0  0
M  END
>  <cdx:fragmentId>
151681

$$$$
