607933.cdx
  Mrv1902 05222410212D          

 26 28  0  0  0  0            999 V2000
    5.6650  -10.5776    0.0000 O   0  0  0  0  0  0  0  0  0  0  0  0
    4.2737   -8.0812    0.0000 O   0  0  0  0  0  0  0  0  0  0  0  0
    4.2862   -7.2563    0.0000 O   0  0  0  0  0  0  0  0  0  0  0  0
    4.3112   -5.6065    0.0000 C   0  0  0  0  0  0  0  0  0  0  0  0
    5.7399   -5.6281    0.0000 C   0  0  0  0  0  0  0  0  0  0  0  0
    5.0193   -6.0298    0.0000 C   0  0  0  0  0  0  0  0  0  0  0  0
    5.0068   -6.8547    0.0000 C   0  0  0  0  0  0  0  0  0  0  0  0
    5.7150   -7.2780    0.0000 C   0  0  0  0  0  0  0  0  0  0  0  0
   10.7219   -6.9412    0.0000 O   0  0  0  0  0  0  0  0  0  0  0  0
    8.5725   -7.3212    0.0000 C   0  0  0  0  0  0  0  0  0  0  0  0
    9.2932   -6.9196    0.0000 C   0  0  0  0  0  0  0  0  0  0  0  0
   10.0013   -7.3428    0.0000 C   0  0  0  0  0  0  0  0  0  0  0  0
    9.9888   -8.1677    0.0000 C   0  0  0  0  0  0  0  0  0  0  0  0
    9.2682   -8.5694    0.0000 C   0  0  0  0  0  0  0  0  0  0  0  0
    8.5600   -8.1461    0.0000 C   0  0  0  0  0  0  0  0  0  0  0  0
    7.0938  -10.5992    0.0000 O   0  0  0  0  0  0  0  0  0  0  0  0
    7.1313   -8.1245    0.0000 O   0  0  0  0  0  0  0  0  0  0  0  0
    6.4106   -8.5261    0.0000 C   0  0  0  0  0  0  0  0  0  0  0  0
    5.7025   -8.1029    0.0000 C   0  0  0  0  0  0  0  0  0  0  0  0
    4.9819   -8.5045    0.0000 C   0  0  0  0  0  0  0  0  0  0  0  0
    4.9694   -9.3294    0.0000 C   0  0  0  0  0  0  0  0  0  0  0  0
    5.6775   -9.7527    0.0000 C   0  0  0  0  0  0  0  0  0  0  0  0
    6.3981   -9.3510    0.0000 C   0  0  0  0  0  0  0  0  0  0  0  0
    7.1063   -9.7743    0.0000 C   0  0  0  0  0  0  0  0  0  0  0  0
    7.8269   -9.3727    0.0000 C   0  0  0  0  0  0  0  0  0  0  0  0
    7.8394   -8.5478    0.0000 C   0  0  1  0  0  0  0  0  0  0  0  0
 22  1  1  0  0  0  0
 20  2  1  0  0  0  0
 19  8  1  0  0  0  0
  7  3  1  0  0  0  0
  6  4  1  0  0  0  0
  6  5  2  0  0  0  0
  7  6  1  0  0  0  0
  8  7  1  0  0  0  0
 26 15  1  6  0  0  0
 12  9  1  0  0  0  0
 15 10  2  0  0  0  0
 11 10  1  0  0  0  0
 12 11  2  0  0  0  0
 13 12  1  0  0  0  0
 14 13  2  0  0  0  0
 15 14  1  0  0  0  0
 24 16  2  0  0  0  0
 26 17  1  0  0  0  0
 18 17  1  0  0  0  0
 23 18  2  0  0  0  0
 19 18  1  0  0  0  0
 20 19  2  0  0  0  0
 21 20  1  0  0  0  0
 22 21  2  0  0  0  0
 23 22  1  0  0  0  0
 24 23  1  0  0  0  0
 25 24  1  0  0  0  0
 26 25  1  0  0  0  0
M  END
>  <cdx:groupId>
151849

>  <cdx:fragmentId>
151772

$$$$
