608050.cdx
  Mrv1902 05222410192D          

 31 35  0  0  0  0            999 V2000
    7.0743   -7.6088    0.0000 C   0  0  2  0  0  0  0  0  0  0  0  0
    7.0689   -8.4338    0.0000 C   0  0  0  0  0  0  0  0  0  0  0  0
    6.3517   -8.8416    0.0000 C   0  0  0  0  0  0  0  0  0  0  0  0
    5.6400   -8.4243    0.0000 C   0  0  0  0  0  0  0  0  0  0  0  0
    4.9228   -8.8321    0.0000 C   0  0  0  0  0  0  0  0  0  0  0  0
    4.2110   -8.4149    0.0000 C   0  0  0  0  0  0  0  0  0  0  0  0
    4.2165   -7.5899    0.0000 C   0  0  0  0  0  0  0  0  0  0  0  0
    4.9337   -7.1821    0.0000 C   0  0  0  0  0  0  0  0  0  0  0  0
    5.6454   -7.5994    0.0000 C   0  0  0  0  0  0  0  0  0  0  0  0
    6.3626   -7.1916    0.0000 O   0  0  0  0  0  0  0  0  0  0  0  0
    6.3462   -9.6666    0.0000 O   0  0  0  0  0  0  0  0  0  0  0  0
    7.0908   -5.1339    0.0000 C   0  0  0  0  0  0  0  0  0  0  0  0
    7.8080   -4.7262    0.0000 C   0  0  0  0  0  0  0  0  0  0  0  0
    8.5197   -5.1434    0.0000 C   0  0  0  0  0  0  0  0  0  0  0  0
    8.5142   -5.9684    0.0000 C   0  0  0  0  0  0  0  0  0  0  0  0
    9.2259   -6.3856    0.0000 C   0  0  0  0  0  0  0  0  0  0  0  0
    9.2204   -7.2106    0.0000 C   0  0  0  0  0  0  0  0  0  0  0  0
    8.5033   -7.6183    0.0000 C   0  0  0  0  0  0  0  0  0  0  0  0
    7.7915   -7.2011    0.0000 C   0  0  0  0  0  0  0  0  0  0  0  0
    7.7970   -6.3761    0.0000 C   0  0  0  0  0  0  0  0  0  0  0  0
    7.0853   -5.9589    0.0000 O   0  0  0  0  0  0  0  0  0  0  0  0
    9.9322   -7.6278    0.0000 C   0  0  0  0  0  0  0  0  0  0  0  0
   10.6494   -7.2201    0.0000 C   0  0  0  0  0  0  0  0  0  0  0  0
   10.6548   -6.3951    0.0000 C   0  0  0  0  0  0  0  0  0  0  0  0
    9.9431   -5.9779    0.0000 O   0  0  0  0  0  0  0  0  0  0  0  0
    6.2658   -5.1284    0.0000 C   0  0  0  0  0  0  0  0  0  0  0  0
    6.6830   -4.4167    0.0000 C   0  0  0  0  0  0  0  0  0  0  0  0
   11.0721   -5.6834    0.0000 C   0  0  0  0  0  0  0  0  0  0  0  0
   11.4798   -6.4006    0.0000 C   0  0  0  0  0  0  0  0  0  0  0  0
    3.5048   -7.1726    0.0000 O   0  0  0  0  0  0  0  0  0  0  0  0
    4.9173   -9.6571    0.0000 O   0  0  0  0  0  0  0  0  0  0  0  0
  1  2  1  0  0  0  0
  2  3  1  0  0  0  0
  3  4  1  0  0  0  0
  4  5  1  0  0  0  0
  5  6  2  0  0  0  0
  6  7  1  0  0  0  0
  7  8  2  0  0  0  0
  8  9  1  0  0  0  0
  4  9  2  0  0  0  0
  9 10  1  0  0  0  0
  1 10  1  0  0  0  0
  3 11  2  0  0  0  0
 12 13  1  0  0  0  0
 13 14  2  0  0  0  0
 14 15  1  0  0  0  0
 15 16  1  0  0  0  0
 16 17  2  0  0  0  0
 17 18  1  0  0  0  0
 18 19  2  0  0  0  0
 19 20  1  0  0  0  0
 15 20  2  0  0  0  0
 20 21  1  0  0  0  0
 12 21  1  0  0  0  0
 22 23  2  0  0  0  0
 23 24  1  0  0  0  0
 24 25  1  0  0  0  0
 25 16  1  0  0  0  0
 22 17  1  0  0  0  0
 12 26  1  0  0  0  0
 12 27  1  0  0  0  0
 24 28  1  0  0  0  0
 24 29  1  0  0  0  0
  1 19  1  6  0  0  0
  7 30  1  0  0  0  0
  5 31  1  0  0  0  0
M  END
>  <cdx:fragmentId>
152180

$$$$
