608078.cdx
  Mrv1902 05222410192D          

 42 46  0  0  0  0            999 V2000
   12.0818   -6.3420    0.0000 O   0  0  0  0  0  0  0  0  0  0  0  0
   13.1298   -7.2771    0.0000 O   0  0  0  0  0  0  0  0  0  0  0  0
   13.8834   -7.6127    0.0000 O   0  0  0  0  0  0  0  0  0  0  0  0
   13.2160   -8.0976    0.0000 C   0  0  0  0  0  0  0  0  0  0  0  0
   12.0498   -8.4765    0.0000 C   0  0  0  0  0  0  0  0  0  0  0  0
   12.4623   -7.7620    0.0000 C   0  0  2  0  0  0  0  0  0  0  0  0
   11.9103   -7.1489    0.0000 C   0  0  2  0  0  0  0  0  0  0  0  0
   11.1566   -7.4845    0.0000 C   0  0  1  0  0  0  0  0  0  0  0  0
   11.2429   -8.3050    0.0000 O   0  0  0  0  0  0  0  0  0  0  0  0
   10.4421   -7.0720    0.0000 O   0  0  0  0  0  0  0  0  0  0  0  0
   10.4421   -9.5470    0.0000 C   0  0  0  0  0  0  0  0  0  0  0  0
   10.4421   -8.7220    0.0000 O   0  0  0  0  0  0  0  0  0  0  0  0
    8.2987   -7.4845    0.0000 C   0  0  0  0  0  0  0  0  0  0  0  0
    9.0132   -7.0720    0.0000 C   0  0  0  0  0  0  0  0  0  0  0  0
    9.7277   -7.4845    0.0000 C   0  0  0  0  0  0  0  0  0  0  0  0
    9.7277   -8.3095    0.0000 C   0  0  0  0  0  0  0  0  0  0  0  0
    9.0132   -8.7220    0.0000 C   0  0  0  0  0  0  0  0  0  0  0  0
    8.2987   -8.3095    0.0000 C   0  0  0  0  0  0  0  0  0  0  0  0
    5.4408  -10.7845    0.0000 O   0  0  0  0  0  0  0  0  0  0  0  0
    4.0119   -9.9595    0.0000 O   0  0  0  0  0  0  0  0  0  0  0  0
    2.5830  -10.7845    0.0000 O   0  0  0  0  0  0  0  0  0  0  0  0
    1.1540   -9.9595    0.0000 O   0  0  0  0  0  0  0  0  0  0  0  0
    0.4395   -8.7220    0.0000 O   0  0  0  0  0  0  0  0  0  0  0  0
    1.1540   -8.3095    0.0000 C   0  0  0  0  0  0  0  0  0  0  0  0
    1.8685   -8.7220    0.0000 C   0  0  2  0  0  0  0  0  0  0  0  0
    1.8685   -9.5470    0.0000 C   0  0  2  0  0  0  0  0  0  0  0  0
    2.5830   -9.9595    0.0000 C   0  0  1  0  0  0  0  0  0  0  0  0
    3.2974   -9.5470    0.0000 C   0  0  2  0  0  0  0  0  0  0  0  0
    3.2974   -8.7220    0.0000 C   0  0  1  0  0  0  0  0  0  0  0  0
    2.5830   -8.3095    0.0000 O   0  0  0  0  0  0  0  0  0  0  0  0
    4.0119   -8.3095    0.0000 O   0  0  0  0  0  0  0  0  0  0  0  0
    6.8698  -10.7845    0.0000 O   0  0  0  0  0  0  0  0  0  0  0  0
    6.8698   -8.3095    0.0000 O   0  0  0  0  0  0  0  0  0  0  0  0
    6.1553   -8.7220    0.0000 C   0  0  0  0  0  0  0  0  0  0  0  0
    5.4408   -8.3095    0.0000 C   0  0  0  0  0  0  0  0  0  0  0  0
    4.7264   -8.7220    0.0000 C   0  0  0  0  0  0  0  0  0  0  0  0
    4.7264   -9.5470    0.0000 C   0  0  0  0  0  0  0  0  0  0  0  0
    5.4408   -9.9595    0.0000 C   0  0  0  0  0  0  0  0  0  0  0  0
    6.1553   -9.5470    0.0000 C   0  0  0  0  0  0  0  0  0  0  0  0
    6.8698   -9.9595    0.0000 C   0  0  0  0  0  0  0  0  0  0  0  0
    7.5843   -9.5470    0.0000 C   0  0  0  0  0  0  0  0  0  0  0  0
    7.5843   -8.7220    0.0000 C   0  0  1  0  0  0  0  0  0  0  0  0
 42 18  1  6  0  0  0
 15 10  1  0  0  0  0
  8 10  1  1  0  0  0
  7  1  1  6  0  0  0
  6  2  1  6  0  0  0
  6  4  1  0  0  0  0
  4  3  1  0  0  0  0
  9  5  1  0  0  0  0
  6  5  1  0  0  0  0
  7  6  1  0  0  0  0
  8  7  1  0  0  0  0
  9  8  1  0  0  0  0
 16 12  1  0  0  0  0
 12 11  1  0  0  0  0
 18 13  2  0  0  0  0
 14 13  1  0  0  0  0
 15 14  2  0  0  0  0
 16 15  1  0  0  0  0
 17 16  2  0  0  0  0
 18 17  1  0  0  0  0
 38 19  1  0  0  0  0
 36 31  1  0  0  0  0
 29 31  1  1  0  0  0
 28 20  1  6  0  0  0
 27 21  1  1  0  0  0
 26 22  1  6  0  0  0
 25 24  1  1  0  0  0
 24 23  1  0  0  0  0
 30 25  1  0  0  0  0
 26 25  1  0  0  0  0
 27 26  1  0  0  0  0
 28 27  1  0  0  0  0
 29 28  1  0  0  0  0
 30 29  1  0  0  0  0
 40 32  2  0  0  0  0
 42 33  1  0  0  0  0
 34 33  1  0  0  0  0
 39 34  2  0  0  0  0
 35 34  1  0  0  0  0
 36 35  2  0  0  0  0
 37 36  1  0  0  0  0
 38 37  2  0  0  0  0
 39 38  1  0  0  0  0
 40 39  1  0  0  0  0
 41 40  1  0  0  0  0
 42 41  1  0  0  0  0
M  END
>  <cdx:groupId>
152392

>  <cdx:fragmentId>
152289

$$$$
