608038.cdx
  Mrv1902 05222410252D          

 26 29  0  0  0  0            999 V2000
    7.0959   -7.0891    0.0000 C   0  0  0  0  0  0  0  0  0  0  0  0
    7.0986   -7.9141    0.0000 C   0  0  0  0  0  0  0  0  0  0  0  0
    6.3855   -8.3289    0.0000 C   0  0  0  0  0  0  0  0  0  0  0  0
    5.6697   -7.9188    0.0000 C   0  0  0  0  0  0  0  0  0  0  0  0
    4.9566   -8.3337    0.0000 C   0  0  0  0  0  0  0  0  0  0  0  0
    4.2408   -7.9236    0.0000 C   0  0  0  0  0  0  0  0  0  0  0  0
    4.2380   -7.0986    0.0000 C   0  0  0  0  0  0  0  0  0  0  0  0
    4.9511   -6.6837    0.0000 C   0  0  0  0  0  0  0  0  0  0  0  0
    5.6669   -7.0938    0.0000 C   0  0  0  0  0  0  0  0  0  0  0  0
    6.3800   -6.6790    0.0000 O   0  0  0  0  0  0  0  0  0  0  0  0
    6.3883   -9.1539    0.0000 O   0  0  0  0  0  0  0  0  0  0  0  0
    3.5222   -6.6884    0.0000 O   0  0  0  0  0  0  0  0  0  0  0  0
    4.9593   -9.1587    0.0000 O   0  0  0  0  0  0  0  0  0  0  0  0
    7.0904   -5.4391    0.0000 O   0  0  0  0  0  0  0  0  0  0  0  0
   10.3557   -3.8888    0.0000 C   0  0  0  0  0  0  0  0  0  0  0  0
   10.7705   -4.6019    0.0000 C   0  0  0  0  0  0  0  0  0  0  0  0
    9.9483   -5.4296    0.0000 O   0  0  0  0  0  0  0  0  0  0  0  0
    9.2352   -5.8445    0.0000 C   0  0  0  0  0  0  0  0  0  0  0  0
    9.2379   -6.6695    0.0000 C   0  0  0  0  0  0  0  0  0  0  0  0
    8.5248   -7.0843    0.0000 C   0  0  0  0  0  0  0  0  0  0  0  0
    7.8090   -6.6742    0.0000 C   0  0  0  0  0  0  0  0  0  0  0  0
    7.8062   -5.8492    0.0000 C   0  0  0  0  0  0  0  0  0  0  0  0
    8.5193   -5.4343    0.0000 C   0  0  0  0  0  0  0  0  0  0  0  0
    8.5166   -4.6093    0.0000 C   0  0  0  0  0  0  0  0  0  0  0  0
    9.2297   -4.1945    0.0000 C   0  0  0  0  0  0  0  0  0  0  0  0
    9.9455   -4.6046    0.0000 C   0  0  0  0  0  0  0  0  0  0  0  0
 22 14  1  0  0  0  0
 26 15  1  0  0  0  0
 26 16  1  0  0  0  0
 26 17  1  0  0  0  0
 18 17  1  0  0  0  0
 23 18  2  0  0  0  0
 19 18  1  0  0  0  0
 20 19  2  0  0  0  0
 21 20  1  0  0  0  0
 22 21  2  0  0  0  0
 23 22  1  0  0  0  0
 24 23  1  0  0  0  0
 25 24  2  0  0  0  0
  1  2  1  0  0  0  0
  2  3  1  0  0  0  0
  3  4  1  0  0  0  0
  4  5  1  0  0  0  0
  5  6  2  0  0  0  0
  6  7  1  0  0  0  0
  7  8  2  0  0  0  0
  8  9  1  0  0  0  0
  4  9  2  0  0  0  0
  9 10  1  0  0  0  0
  1 10  1  0  0  0  0
  3 11  2  0  0  0  0
 26 25  1  0  0  0  0
  1 21  1  0  0  0  0
  7 12  1  0  0  0  0
  5 13  1  0  0  0  0
M  END
>  <cdx:fragmentId>
151985

$$$$
