608044.cdx
  Mrv1902 05222410192D          

 31 34  0  0  0  0            999 V2000
    6.5175   -9.0696    0.0000 C   0  0  0  0  0  0  0  0  0  0  0  0
    6.5060   -9.8946    0.0000 C   0  0  0  0  0  0  0  0  0  0  0  0
    5.7859  -10.2971    0.0000 C   0  0  0  0  0  0  0  0  0  0  0  0
    5.0772   -9.8747    0.0000 C   0  0  0  0  0  0  0  0  0  0  0  0
    4.3571  -10.2773    0.0000 C   0  0  0  0  0  0  0  0  0  0  0  0
    3.6484   -9.8549    0.0000 C   0  0  0  0  0  0  0  0  0  0  0  0
    3.6598   -9.0300    0.0000 C   0  0  0  0  0  0  0  0  0  0  0  0
    4.3800   -8.6274    0.0000 C   0  0  0  0  0  0  0  0  0  0  0  0
    5.0887   -9.0498    0.0000 C   0  0  0  0  0  0  0  0  0  0  0  0
    5.8088   -8.6473    0.0000 O   0  0  0  0  0  0  0  0  0  0  0  0
    5.7744  -11.1220    0.0000 O   0  0  0  0  0  0  0  0  0  0  0  0
    2.9512   -8.6076    0.0000 O   0  0  0  0  0  0  0  0  0  0  0  0
    4.3456  -11.1022    0.0000 O   0  0  0  0  0  0  0  0  0  0  0  0
    6.5404   -7.4198    0.0000 O   0  0  0  0  0  0  0  0  0  0  0  0
   10.1181   -7.0569    0.0000 C   0  0  0  0  0  0  0  0  0  0  0  0
   10.1639   -3.7572    0.0000 C   0  0  0  0  0  0  0  0  0  0  0  0
   11.5927   -3.7771    0.0000 C   0  0  0  0  0  0  0  0  0  0  0  0
   10.8726   -4.1796    0.0000 C   0  0  0  0  0  0  0  0  0  0  0  0
   10.8611   -5.0045    0.0000 C   0  0  0  0  0  0  0  0  0  0  0  0
   10.1410   -5.4071    0.0000 C   0  0  0  0  0  0  0  0  0  0  0  0
   10.1295   -6.2320    0.0000 C   0  0  0  0  0  0  0  0  0  0  0  0
    9.3980   -7.4595    0.0000 O   0  0  0  0  0  0  0  0  0  0  0  0
    8.6778   -7.8620    0.0000 C   0  0  0  0  0  0  0  0  0  0  0  0
    8.6664   -8.6869    0.0000 C   0  0  0  0  0  0  0  0  0  0  0  0
    7.9463   -9.0895    0.0000 C   0  0  0  0  0  0  0  0  0  0  0  0
    7.2376   -8.6671    0.0000 C   0  0  0  0  0  0  0  0  0  0  0  0
    7.2490   -7.8422    0.0000 C   0  0  0  0  0  0  0  0  0  0  0  0
    7.9692   -7.4396    0.0000 C   0  0  0  0  0  0  0  0  0  0  0  0
    7.9806   -6.6147    0.0000 C   0  0  0  0  0  0  0  0  0  0  0  0
    8.7007   -6.2122    0.0000 C   0  0  0  0  0  0  0  0  0  0  0  0
    9.4094   -6.6345    0.0000 C   0  0  0  0  0  0  0  0  0  0  0  0
 27 14  1  0  0  0  0
 31 15  1  0  0  0  0
 31 21  1  0  0  0  0
 18 16  1  0  0  0  0
 18 17  1  0  0  0  0
 19 18  2  0  0  0  0
 20 19  1  0  0  0  0
 21 20  1  0  0  0  0
 31 22  1  0  0  0  0
 23 22  1  0  0  0  0
 28 23  2  0  0  0  0
 24 23  1  0  0  0  0
 25 24  2  0  0  0  0
 26 25  1  0  0  0  0
 27 26  2  0  0  0  0
 28 27  1  0  0  0  0
 29 28  1  0  0  0  0
 30 29  2  0  0  0  0
  1  2  1  0  0  0  0
  2  3  1  0  0  0  0
  3  4  1  0  0  0  0
  4  5  1  0  0  0  0
  5  6  2  0  0  0  0
  6  7  1  0  0  0  0
  7  8  2  0  0  0  0
  8  9  1  0  0  0  0
  4  9  2  0  0  0  0
  9 10  1  0  0  0  0
  1 10  1  0  0  0  0
  3 11  2  0  0  0  0
 31 30  1  0  0  0  0
  1 26  1  0  0  0  0
  7 12  1  0  0  0  0
  5 13  1  0  0  0  0
M  END
>  <cdx:fragmentId>
152075

$$$$
