42608157.cdx
  Mrv1902 05222410212D          

 19 21  0  0  0  0            999 V2000
    8.7245   -7.5898    0.0000 C   0  0  0  0  0  0  0  0  0  0  0  0
    9.2094   -6.9224    0.0000 C   0  0  0  0  0  0  0  0  0  0  0  0
    8.7245   -6.2550    0.0000 C   0  0  2  0  0  0  0  0  0  0  0  0
    7.9399   -6.5099    0.0000 C   0  0  2  0  0  0  0  0  0  0  0  0
    7.2949   -5.9955    0.0000 C   0  0  2  0  0  0  0  0  0  0  0  0
    6.4906   -6.1791    0.0000 C   0  0  2  0  0  0  0  0  0  0  0  0
    6.1326   -6.9224    0.0000 C   0  0  0  0  0  0  0  0  0  0  0  0
    6.4906   -7.6657    0.0000 C   0  0  0  0  0  0  0  0  0  0  0  0
    7.2949   -7.8493    0.0000 C   0  0  0  0  0  0  0  0  0  0  0  0
    7.9399   -7.3349    0.0000 C   0  0  1  0  0  0  0  0  0  0  0  0
    6.7337   -5.3907    0.0000 C   0  0  0  0  0  0  0  0  0  0  0  0
    7.4784   -8.6536    0.0000 C   0  0  0  0  0  0  0  0  0  0  0  0
    8.9794   -5.4703    0.0000 C   0  0  0  0  0  0  0  0  0  0  0  0
    6.1726   -4.7860    0.0000 C   0  0  0  0  0  0  0  0  0  0  0  0
    6.9769   -4.6024    0.0000 C   0  0  0  0  0  0  0  0  0  0  0  0
    5.7226   -5.8777    0.0000 H   0  0  0  0  0  0  0  0  0  0  0  0
    8.0872   -8.1466    0.0000 H   0  0  0  0  0  0  0  0  0  0  0  0
    8.0831   -5.6974    0.0000 H   0  0  0  0  0  0  0  0  0  0  0  0
    7.7425   -5.3025    0.0000 H   0  0  0  0  0  0  0  0  0  0  0  0
  1  2  1  0  0  0  0
  2  3  1  0  0  0  0
  3  4  1  0  0  0  0
  4  5  1  0  0  0  0
  5  6  1  0  0  0  0
  6  7  1  0  0  0  0
  7  8  1  0  0  0  0
  8  9  1  0  0  0  0
  9 10  1  0  0  0  0
  1 10  1  0  0  0  0
  4 10  1  0  0  0  0
 11  5  1  0  0  0  0
 11  6  1  0  0  0  0
  9 12  2  0  0  0  0
  3 13  1  6  0  0  0
 11 14  1  0  0  0  0
 11 15  1  0  0  0  0
  6 16  1  1  0  0  0
 10 17  1  1  0  0  0
  4 18  1  6  0  0  0
  5 19  1  1  0  0  0
M  END
>  <cdx:groupId>
61

>  <cdx:fragmentId>
5

$$$$
