608113.cdx
  Mrv1902 05222410282D          

 20 22  0  0  0  0            999 V2000
    8.3213   -7.1875    0.0000 C   0  0  0  0  0  0  0  0  0  0  0  0
    8.3213   -8.0125    0.0000 C   0  0  0  0  0  0  0  0  0  0  0  0
    7.6068   -8.4250    0.0000 C   0  0  0  0  0  0  0  0  0  0  0  0
    6.8923   -8.0125    0.0000 C   0  0  0  0  0  0  0  0  0  0  0  0
    6.1779   -8.4250    0.0000 C   0  0  0  0  0  0  0  0  0  0  0  0
    5.4634   -8.0125    0.0000 C   0  0  0  0  0  0  0  0  0  0  0  0
    5.4634   -7.1875    0.0000 C   0  0  0  0  0  0  0  0  0  0  0  0
    6.1779   -6.7750    0.0000 C   0  0  0  0  0  0  0  0  0  0  0  0
    6.8923   -7.1875    0.0000 C   0  0  0  0  0  0  0  0  0  0  0  0
    7.6068   -6.7750    0.0000 O   0  0  0  0  0  0  0  0  0  0  0  0
    7.6068   -9.2500    0.0000 O   0  0  0  0  0  0  0  0  0  0  0  0
    9.0357   -6.7750    0.0000 C   0  0  0  0  0  0  0  0  0  0  0  0
    9.7502   -7.1875    0.0000 C   0  0  0  0  0  0  0  0  0  0  0  0
   10.4647   -6.7750    0.0000 C   0  0  0  0  0  0  0  0  0  0  0  0
   10.4647   -5.9500    0.0000 C   0  0  0  0  0  0  0  0  0  0  0  0
    9.7502   -5.5375    0.0000 C   0  0  0  0  0  0  0  0  0  0  0  0
    9.0357   -5.9500    0.0000 C   0  0  0  0  0  0  0  0  0  0  0  0
    6.1779   -5.9500    0.0000 O   0  0  0  0  0  0  0  0  0  0  0  0
    4.7489   -6.7750    0.0000 O   0  0  0  0  0  0  0  0  0  0  0  0
    6.1779   -9.2500    0.0000 O   0  0  0  0  0  0  0  0  0  0  0  0
  1  2  1  0  0  0  0
  2  3  1  0  0  0  0
  3  4  1  0  0  0  0
  4  5  1  0  0  0  0
  5  6  2  0  0  0  0
  6  7  1  0  0  0  0
  7  8  2  0  0  0  0
  8  9  1  0  0  0  0
  4  9  2  0  0  0  0
  9 10  1  0  0  0  0
  1 10  1  0  0  0  0
  3 11  2  0  0  0  0
 12 13  1  0  0  0  0
 13 14  2  0  0  0  0
 14 15  1  0  0  0  0
 15 16  2  0  0  0  0
 16 17  1  0  0  0  0
 12 17  2  0  0  0  0
  1 12  1  0  0  0  0
  8 18  1  0  0  0  0
  7 19  1  0  0  0  0
  5 20  1  0  0  0  0
M  END
>  <cdx:fragmentId>
152409

$$$$
