608204.cdx
  Mrv1902 05222410242D          

 18 20  0  0  0  0            999 V2000
    8.6835   -5.9681    0.0000 H   0  0  0  0  0  0  0  0  0  0  0  0
    6.4712   -6.6201    0.0000 H   0  0  0  0  0  0  0  0  0  0  0  0
    7.1342   -8.9771    0.0000 H   0  0  0  0  0  0  0  0  0  0  0  0
    8.1125   -8.6350    0.0000 C   0  0  0  0  0  0  0  0  0  0  0  0
    5.5506   -6.6424    0.0000 C   0  0  0  0  0  0  0  0  0  0  0  0
   10.6150   -7.1775    0.0000 C   0  0  0  0  0  0  0  0  0  0  0  0
    8.1125   -5.3625    0.0000 C   0  0  0  0  0  0  0  0  0  0  0  0
    7.4800   -5.8025    0.0000 C   0  0  0  0  0  0  0  0  0  0  0  0
    9.4325   -8.1400    0.0000 C   0  0  0  0  0  0  0  0  0  0  0  0
    9.7900   -7.1775    0.0000 C   0  0  0  0  0  0  0  0  0  0  0  0
    8.4700   -6.7650    0.0000 C   0  0  1  0  0  0  0  0  0  0  0  0
    7.3144   -6.6918    0.0000 C   0  0  0  0  0  0  0  0  0  0  0  0
    6.8328   -7.3616    0.0000 C   0  0  2  0  0  0  0  0  0  0  0  0
    6.0085   -7.3286    0.0000 C   0  0  1  0  0  0  0  0  0  0  0  0
    5.7224   -8.1025    0.0000 C   0  0  0  0  0  0  0  0  0  0  0  0
    6.3699   -8.6136    0.0000 C   0  0  0  0  0  0  0  0  0  0  0  0
    7.0562   -8.1558    0.0000 C   0  0  2  0  0  0  0  0  0  0  0  0
    8.1125   -7.8100    0.0000 C   0  0  0  0  0  0  0  0  0  0  0  0
 11  1  1  6  0  0  0
 13  2  1  6  0  0  0
 17  3  1  6  0  0  0
 18  4  1  0  0  0  0
 14  5  1  1  0  0  0
 10  6  2  0  0  0  0
 17 13  1  0  0  0  0
 11  7  1  0  0  0  0
 18  9  1  0  0  0  0
  8  7  1  0  0  0  0
 10  9  1  0  0  0  0
 11 10  1  0  0  0  0
 12 11  1  0  0  0  0
 13 12  1  0  0  0  0
 14 13  1  0  0  0  0
 15 14  1  0  0  0  0
 16 15  1  0  0  0  0
 17 16  1  0  0  0  0
 18 17  1  0  0  0  0
  8 18  1  0  0  0  0
M  END
>  <cdx:fragmentId>
152613

$$$$
