6083.cdx
  Mrv1902 05222410262D          

 23 25  0  0  0  0            999 V2000
    8.9858   -4.7321    0.0000 P   0  0  0  0  0  0  0  0  0  0  0  0
    8.5733   -4.0177    0.0000 O   0  0  0  0  0  0  0  0  0  0  0  0
    9.3983   -5.4466    0.0000 O   0  0  0  0  0  0  0  0  0  0  0  0
    9.7003   -4.3196    0.0000 O   0  0  0  0  0  0  0  0  0  0  0  0
    8.3184   -5.2171    0.0000 O   0  0  0  0  0  0  0  0  0  0  0  0
    7.5647   -4.8815    0.0000 C   0  0  0  0  0  0  0  0  0  0  0  0
    6.8973   -6.1914    0.0000 O   0  0  0  0  0  0  0  0  0  0  0  0
    6.8973   -5.3664    0.0000 C   0  0  1  0  0  0  0  0  0  0  0  0
    6.1127   -5.1115    0.0000 C   0  0  2  0  0  0  0  0  0  0  0  0
    5.6277   -5.7789    0.0000 C   0  0  2  0  0  0  0  0  0  0  0  0
    6.1127   -6.4464    0.0000 C   0  0  2  0  0  0  0  0  0  0  0  0
    4.8027   -5.7789    0.0000 O   0  0  0  0  0  0  0  0  0  0  0  0
    5.8577   -4.3269    0.0000 O   0  0  0  0  0  0  0  0  0  0  0  0
    5.8577   -8.5659    0.0000 N   0  0  0  0  0  0  0  0  0  0  0  0
    6.3426   -7.8984    0.0000 C   0  0  0  0  0  0  0  0  0  0  0  0
    5.8577   -7.2310    0.0000 N   0  0  0  0  0  0  0  0  0  0  0  0
    5.0731   -7.4859    0.0000 C   0  0  0  0  0  0  0  0  0  0  0  0
    4.3586   -7.0734    0.0000 N   0  0  0  0  0  0  0  0  0  0  0  0
    3.6442   -7.4859    0.0000 C   0  0  0  0  0  0  0  0  0  0  0  0
    3.6442   -8.3109    0.0000 N   0  0  0  0  0  0  0  0  0  0  0  0
    4.3586   -8.7234    0.0000 C   0  0  0  0  0  0  0  0  0  0  0  0
    5.0731   -8.3109    0.0000 C   0  0  0  0  0  0  0  0  0  0  0  0
    4.3586   -9.5484    0.0000 N   0  0  0  0  0  0  0  0  0  0  0  0
  1  2  2  0  0  0  0
  1  3  1  0  0  0  0
  1  4  1  0  0  0  0
  1  5  1  0  0  0  0
  7  8  1  0  0  0  0
  8  9  1  0  0  0  0
  9 10  1  0  0  0  0
 10 11  1  0  0  0  0
  7 11  1  0  0  0  0
 10 12  1  6  0  0  0
  9 13  1  6  0  0  0
 14 15  2  0  0  0  0
 15 16  1  0  0  0  0
 16 17  1  0  0  0  0
 17 18  2  0  0  0  0
 18 19  1  0  0  0  0
 19 20  2  0  0  0  0
 20 21  1  0  0  0  0
 21 22  2  0  0  0  0
 14 22  1  0  0  0  0
 17 22  1  0  0  0  0
 21 23  1  0  0  0  0
 11 16  1  1  0  0  0
  8  6  1  1  0  0  0
  5  6  1  0  0  0  0
M  END
>  <cdx:groupId>
73

>  <cdx:fragmentId>
31

$$$$
