608622.cdx
  Mrv1902 05222410222D          

 33 39  0  0  0  0            999 V2000
    7.6050   -5.1483    0.0000 C   0  0  0  0  0  0  0  0  0  0  0  0
    8.5321   -5.4927    0.0000 C   0  0  0  0  0  0  0  0  0  0  0  0
    6.5013   -4.0963    0.0000 H   0  0  0  0  0  0  0  0  0  0  0  0
    7.9522   -4.3333    0.0000 C   0  0  0  0  0  0  0  0  0  0  0  0
    7.1664   -4.5844    0.0000 C   0  0  1  0  0  0  0  0  0  0  0  0
    7.1624   -5.4094    0.0000 C   0  0  0  0  0  0  0  0  0  0  0  0
    8.2577   -8.7321    0.0000 H   0  0  0  0  0  0  0  0  0  0  0  0
    7.5203   -6.3750    0.0000 O   0  0  0  0  0  0  0  0  0  0  0  0
    3.9273   -9.6130    0.0000 O   0  0  0  0  0  0  0  0  0  0  0  0
    6.0807   -7.5610    0.0000 C   0  0  0  0  0  0  0  0  0  0  0  0
   10.4059   -5.9388    0.0000 C   0  0  0  0  0  0  0  0  0  0  0  0
    6.7812  -10.4519    0.0000 O   0  0  0  0  0  0  0  0  0  0  0  0
    8.4339   -5.0031    0.0000 N   0  0  0  0  0  0  0  0  0  0  0  0
    9.2539   -5.0933    0.0000 C   0  0  0  0  0  0  0  0  0  0  0  0
    9.5858   -5.8486    0.0000 C   0  0  1  0  0  0  0  0  0  0  0  0
    9.0977   -6.5137    0.0000 C   0  0  0  0  0  0  0  0  0  0  0  0
    9.4296   -7.2690    0.0000 C   0  0  0  0  0  0  0  0  0  0  0  0
    8.9414   -7.9340    0.0000 C   0  0  0  0  0  0  0  0  0  0  0  0
    8.1214   -7.8438    0.0000 C   0  0  0  0  0  0  0  0  0  0  0  0
    7.5056   -8.3929    0.0000 C   0  0  2  0  0  0  0  0  0  0  0  0
    7.5016   -9.2179    0.0000 C   0  0  0  0  0  0  0  0  0  0  0  0
    6.7852   -9.6269    0.0000 C   0  0  2  0  0  0  0  0  0  0  0  0
    6.0727   -9.2109    0.0000 C   0  0  0  0  0  0  0  0  0  0  0  0
    5.3562   -9.6200    0.0000 C   0  0  0  0  0  0  0  0  0  0  0  0
    4.6438   -9.2040    0.0000 C   0  0  2  0  0  0  0  0  0  0  0  0
    4.6478   -8.3790    0.0000 C   0  0  0  0  0  0  0  0  0  0  0  0
    5.3642   -7.9700    0.0000 C   0  0  0  0  0  0  0  0  0  0  0  0
    6.0767   -8.3859    0.0000 C   0  0  1  0  0  0  0  0  0  0  0  0
    6.7932   -7.9769    0.0000 C   0  0  0  0  0  0  0  0  0  0  0  0
    6.9686   -7.1708    0.0000 C   0  0  0  0  0  0  0  0  0  0  0  0
    7.7895   -7.0885    0.0000 C   0  0  0  0  0  0  0  0  0  0  0  0
    8.2776   -6.4234    0.0000 C   0  0  0  0  0  0  0  0  0  0  0  0
    7.9457   -5.6682    0.0000 C   0  0  0  0  0  0  0  0  0  0  0  0
  1  5  1  0  0  0  0
  2  1  1  0  0  0  0
 14  2  1  0  0  0  0
  5  3  1  1  0  0  0
  4 13  1  0  0  0  0
  5  4  1  0  0  0  0
  6  5  1  0  0  0  0
 33  6  1  0  0  0  0
 20  7  1  1  0  0  0
 33  8  1  0  0  0  0
 25  9  1  1  0  0  0
 28 10  1  1  0  0  0
 15 11  1  6  0  0  0
 22 12  1  1  0  0  0
 28 23  1  0  0  0  0
 29 20  1  0  0  0  0
 31 19  2  0  0  0  0
 32 16  2  0  0  0  0
 14 13  1  0  0  0  0
 33 13  1  0  0  0  0
 15 14  1  0  0  0  0
 16 15  1  0  0  0  0
 17 16  1  0  0  0  0
 18 17  2  0  0  0  0
 19 18  1  0  0  0  0
 20 19  1  0  0  0  0
 21 20  1  0  0  0  0
 22 21  1  0  0  0  0
 23 22  1  0  0  0  0
 24 23  1  0  0  0  0
 25 24  1  0  0  0  0
 26 25  1  0  0  0  0
 27 26  1  0  0  0  0
 28 27  1  0  0  0  0
 29 28  1  0  0  0  0
 30 29  1  0  0  0  0
 31 30  1  0  0  0  0
 32 31  1  0  0  0  0
 33 32  1  0  0  0  0
M  END
>  <cdx:groupId>
146

>  <cdx:fragmentId>
147

$$$$
