608605.cdx
  Mrv1902 05222410242D          

 30 33  0  0  0  0            999 V2000
    4.8292   -9.5526    0.0000 C   0  0  0  0  0  0  0  0  0  0  0  0
    5.5035   -9.0773    0.0000 O   0  0  0  0  0  0  0  0  0  0  0  0
    5.0340  -11.2347    0.0000 C   0  0  0  0  0  0  0  0  0  0  0  0
    5.2451  -10.4372    0.0000 O   0  0  0  0  0  0  0  0  0  0  0  0
    7.0006  -12.1818    0.0000 C   0  0  0  0  0  0  0  0  0  0  0  0
    6.4154  -11.6003    0.0000 O   0  0  0  0  0  0  0  0  0  0  0  0
    4.8245   -8.0515    0.0000 C   0  0  0  0  0  0  0  0  0  0  0  0
    5.5018   -8.5226    0.0000 O   0  0  0  0  0  0  0  0  0  0  0  0
    9.6236   -9.7847    0.0000 C   0  0  0  0  0  0  0  0  0  0  0  0
    9.7989   -8.0583    0.0000 C   0  0  0  0  0  0  0  0  0  0  0  0
    9.8371   -8.9878    0.0000 O   0  0  0  0  0  0  0  0  0  0  0  0
    6.2484   -8.1716    0.0000 C   0  0  0  0  0  0  0  0  0  0  0  0
    6.0324   -7.3754    0.0000 C   0  0  0  0  0  0  0  0  0  0  0  0
    5.2961   -7.0031    0.0000 O   0  0  0  0  0  0  0  0  0  0  0  0
    5.4226   -6.1879    0.0000 C   0  0  0  0  0  0  0  0  0  0  0  0
    6.2371   -6.0563    0.0000 O   0  0  0  0  0  0  0  0  0  0  0  0
    6.6139   -6.7902    0.0000 C   0  0  0  0  0  0  0  0  0  0  0  0
    7.4115   -7.0012    0.0000 C   0  0  0  0  0  0  0  0  0  0  0  0
    7.6275   -7.7974    0.0000 C   0  0  0  0  0  0  0  0  0  0  0  0
    8.4525   -7.7948    0.0000 C   0  0  0  0  0  0  0  0  0  0  0  0
    9.0377   -8.3764    0.0000 C   0  0  1  0  0  0  0  0  0  0  0  0
    9.0402   -9.2014    0.0000 C   0  0  1  0  0  0  0  0  0  0  0  0
    8.4587   -9.7865    0.0000 C   0  0  0  0  0  0  0  0  0  0  0  0
    7.6337   -9.7891    0.0000 C   0  0  0  0  0  0  0  0  0  0  0  0
    7.4227  -10.5867    0.0000 C   0  0  0  0  0  0  0  0  0  0  0  0
    6.6265  -10.8027    0.0000 C   0  0  0  0  0  0  0  0  0  0  0  0
    6.0413  -10.2212    0.0000 C   0  0  0  0  0  0  0  0  0  0  0  0
    6.2523   -9.4236    0.0000 C   0  0  0  0  0  0  0  0  0  0  0  0
    7.0485   -9.2076    0.0000 C   0  0  0  0  0  0  0  0  0  0  0  0
    7.0459   -8.3826    0.0000 C   0  0  0  0  0  0  0  0  0  0  0  0
 28  2  1  0  0  0  0
  2  1  1  0  0  0  0
 27  4  1  0  0  0  0
  4  3  1  0  0  0  0
 26  6  1  0  0  0  0
  6  5  1  0  0  0  0
 12  8  1  0  0  0  0
  8  7  1  0  0  0  0
 22  9  1  6  0  0  0
 21 10  1  6  0  0  0
 22 11  1  1  0  0  0
 17 13  2  0  0  0  0
 29 24  1  0  0  0  0
 30 19  1  0  0  0  0
 30 12  2  0  0  0  0
 13 12  1  0  0  0  0
 14 13  1  0  0  0  0
 15 14  1  0  0  0  0
 16 15  1  0  0  0  0
 17 16  1  0  0  0  0
 18 17  1  0  0  0  0
 19 18  2  0  0  0  0
 20 19  1  0  0  0  0
 21 20  1  0  0  0  0
 22 21  1  0  0  0  0
 23 22  1  0  0  0  0
 24 23  1  0  0  0  0
 25 24  2  0  0  0  0
 26 25  1  0  0  0  0
 27 26  2  0  0  0  0
 28 27  1  0  0  0  0
 29 28  2  0  0  0  0
 30 29  1  0  0  0  0
M  END
>  <cdx:fragmentId>
8019

$$$$
