6087.cdx
  Mrv1902 05222410282D          

 34 37  0  0  0  0            999 V2000
    4.9120   -8.2706    0.0000 C   0  0  0  0  0  0  0  0  0  0  0  0
    4.9120   -9.0956    0.0000 C   0  0  0  0  0  0  0  0  0  0  0  0
    5.6265   -9.5081    0.0000 C   0  0  0  0  0  0  0  0  0  0  0  0
    6.3410   -9.0956    0.0000 C   0  0  0  0  0  0  0  0  0  0  0  0
    6.3410   -8.2706    0.0000 C   0  0  0  0  0  0  0  0  0  0  0  0
    5.6265   -7.8581    0.0000 C   0  0  0  0  0  0  0  0  0  0  0  0
    7.0554   -9.5081    0.0000 C   0  0  0  0  0  0  0  0  0  0  0  0
    7.7699   -9.0956    0.0000 C   0  0  0  0  0  0  0  0  0  0  0  0
    7.7699   -8.2706    0.0000 C   0  0  0  0  0  0  0  0  0  0  0  0
    7.0554   -7.8581    0.0000 O   0  0  0  0  0  0  0  0  0  0  0  0
    8.4844   -7.8581    0.0000 C   0  0  0  0  0  0  0  0  0  0  0  0
    8.4844   -7.0331    0.0000 C   0  0  0  0  0  0  0  0  0  0  0  0
    9.1989   -8.2706    0.0000 C   0  0  0  0  0  0  0  0  0  0  0  0
    9.9133   -7.8581    0.0000 C   0  0  0  0  0  0  0  0  0  0  0  0
    9.9133   -7.0331    0.0000 C   0  0  0  0  0  0  0  0  0  0  0  0
    9.1989   -6.6206    0.0000 C   0  0  0  0  0  0  0  0  0  0  0  0
    7.0554  -10.3331    0.0000 O   0  0  0  0  0  0  0  0  0  0  0  0
    5.6265  -10.3331    0.0000 O   0  0  0  0  0  0  0  0  0  0  0  0
    4.1976   -9.5081    0.0000 O   0  0  0  0  0  0  0  0  0  0  0  0
    3.4831   -9.9206    0.0000 C   0  0  0  0  0  0  0  0  0  0  0  0
    4.8881   -5.6993    0.0000 C   0  0  2  0  0  0  0  0  0  0  0  0
    4.1770   -5.2811    0.0000 C   0  0  2  0  0  0  0  0  0  0  0  0
    3.4592   -5.6879    0.0000 C   0  0  1  0  0  0  0  0  0  0  0  0
    3.4526   -6.5128    0.0000 C   0  0  2  0  0  0  0  0  0  0  0  0
    4.1638   -6.9310    0.0000 C   0  0  1  0  0  0  0  0  0  0  0  0
    4.8815   -6.5243    0.0000 O   0  0  0  0  0  0  0  0  0  0  0  0
    4.1572   -7.7560    0.0000 O   0  0  0  0  0  0  0  0  0  0  0  0
    5.6059   -5.2925    0.0000 C   0  0  0  0  0  0  0  0  0  0  0  0
    2.7481   -5.2697    0.0000 O   0  0  0  0  0  0  0  0  0  0  0  0
    2.7349   -6.9196    0.0000 O   0  0  0  0  0  0  0  0  0  0  0  0
    4.1836   -4.4561    0.0000 O   0  0  0  0  0  0  0  0  0  0  0  0
    6.3170   -5.7107    0.0000 O   0  0  0  0  0  0  0  0  0  0  0  0
    5.6125   -4.4676    0.0000 O   0  0  0  0  0  0  0  0  0  0  0  0
    6.3302   -4.0608    0.0000 C   0  0  0  0  0  0  0  0  0  0  0  0
  1  2  2  0  0  0  0
  2  3  1  0  0  0  0
  3  4  2  0  0  0  0
  4  5  1  0  0  0  0
  5  6  2  0  0  0  0
  6  1  1  0  0  0  0
  4  7  1  0  0  0  0
  7  8  1  0  0  0  0
  8  9  2  0  0  0  0
  9 10  1  0  0  0  0
 10  5  1  0  0  0  0
  9 11  1  0  0  0  0
 11 12  1  0  0  0  0
 11 13  2  0  0  0  0
 13 14  1  0  0  0  0
 14 15  2  0  0  0  0
 15 16  1  0  0  0  0
 16 12  2  0  0  0  0
  7 17  2  0  0  0  0
  3 18  1  0  0  0  0
  2 19  1  0  0  0  0
 21 22  1  0  0  0  0
 22 23  1  0  0  0  0
 23 24  1  0  0  0  0
 24 25  1  0  0  0  0
 25 26  1  0  0  0  0
 26 21  1  0  0  0  0
 25 27  1  1  0  0  0
 21 28  1  1  0  0  0
 23 29  1  1  0  0  0
 24 30  1  6  0  0  0
 22 31  1  6  0  0  0
 28 32  2  0  0  0  0
 28 33  1  0  0  0  0
 33 34  1  0  0  0  0
  1 27  1  0  0  0  0
 19 20  1  0  0  0  0
M  STY  1   1 SUP
M  SAL   1  2  19  20
M  SBL   1  1  21
M  SMT   1 OCH3
M  SAP   1  1  19   2  1
M  END
>  <cdx:fragmentId>
112

$$$$
