6090.cdx
  Mrv1902 05222410272D          

 25 26  0  0  0  0            999 V2000
    0.9840   -5.8965    0.0000 C   0  0  0  0  0  0  0  0  0  0  0  0
    1.6924   -5.4738    0.0000 O   0  0  0  0  0  0  0  0  0  0  0  0
    1.7162   -7.1236    0.0000 O   0  0  0  0  0  0  0  0  0  0  0  0
    4.5500   -5.4326    0.0000 C   0  0  0  0  0  0  0  0  0  0  0  0
    5.2704   -5.8348    0.0000 C   0  0  0  0  0  0  0  0  0  0  0  0
    5.9788   -5.4120    0.0000 C   0  0  0  0  0  0  0  0  0  0  0  0
    6.6992   -5.8142    0.0000 C   0  0  0  0  0  0  0  0  0  0  0  0
    7.4076   -5.3915    0.0000 C   0  0  0  0  0  0  0  0  0  0  0  0
    8.1280   -5.7936    0.0000 C   0  0  0  0  0  0  0  0  0  0  0  0
    8.8364   -5.3709    0.0000 C   0  0  0  0  0  0  0  0  0  0  0  0
    9.5567   -5.7730    0.0000 C   0  0  0  0  0  0  0  0  0  0  0  0
    9.5686   -6.5979    0.0000 C   0  0  0  0  0  0  0  0  0  0  0  0
   10.2890   -7.0001    0.0000 C   0  0  0  0  0  0  0  0  0  0  0  0
   10.9974   -6.5774    0.0000 C   0  0  0  0  0  0  0  0  0  0  0  0
   10.9855   -5.7524    0.0000 C   0  0  0  0  0  0  0  0  0  0  0  0
   10.2652   -5.3503    0.0000 C   0  0  0  0  0  0  0  0  0  0  0  0
   11.7178   -6.9795    0.0000 O   0  0  0  0  0  0  0  0  0  0  0  0
    5.9669   -4.5871    0.0000 O   0  0  0  0  0  0  0  0  0  0  0  0
    7.3957   -4.5665    0.0000 O   0  0  0  0  0  0  0  0  0  0  0  0
    3.8535   -6.6803    0.0000 C   0  0  0  0  0  0  0  0  0  0  0  0
    3.8416   -5.8554    0.0000 C   0  0  0  0  0  0  0  0  0  0  0  0
    3.1212   -5.4532    0.0000 C   0  0  0  0  0  0  0  0  0  0  0  0
    2.4128   -5.8760    0.0000 C   0  0  0  0  0  0  0  0  0  0  0  0
    2.4247   -6.7009    0.0000 C   0  0  0  0  0  0  0  0  0  0  0  0
    3.1450   -7.1030    0.0000 C   0  0  0  0  0  0  0  0  0  0  0  0
  2  1  1  0  0  0  0
 23  2  1  0  0  0  0
 24  3  1  0  0  0  0
 20 25  1  0  0  0  0
 21 20  2  0  0  0  0
 22 21  1  0  0  0  0
 23 22  2  0  0  0  0
 24 23  1  0  0  0  0
 25 24  2  0  0  0  0
 21  4  1  0  0  0  0
  4  5  1  0  0  0  0
  5  6  1  0  0  0  0
  6  7  1  0  0  0  0
  7  8  1  0  0  0  0
  8  9  1  0  0  0  0
  9 10  1  0  0  0  0
 10 11  1  0  0  0  0
 11 12  2  0  0  0  0
 12 13  1  0  0  0  0
 13 14  2  0  0  0  0
 14 15  1  0  0  0  0
 15 16  2  0  0  0  0
 16 11  1  0  0  0  0
 14 17  1  0  0  0  0
  6 18  2  0  0  0  0
  8 19  1  0  0  0  0
M  END
>  <cdx:fragmentId>
5

$$$$
