609404.cdx
  Mrv1902 05222410192D          

 22 23  0  0  0  0            999 V2000
    5.8245   -7.4281    0.0000 O   0  0  0  0  0  0  0  0  0  0  0  0
    5.1037   -7.8295    0.0000 C   0  0  1  0  0  0  0  0  0  0  0  0
    5.0910   -8.6544    0.0000 C   0  0  2  0  0  0  0  0  0  0  0  0
    5.7990   -9.0779    0.0000 C   0  0  1  0  0  0  0  0  0  0  0  0
    6.5198   -8.6765    0.0000 C   0  0  2  0  0  0  0  0  0  0  0  0
    6.5325   -7.8516    0.0000 C   0  0  2  0  0  0  0  0  0  0  0  0
    4.3703   -9.0559    0.0000 O   0  0  0  0  0  0  0  0  0  0  0  0
    5.7863   -9.9028    0.0000 O   0  0  0  0  0  0  0  0  0  0  0  0
    7.2278   -9.1000    0.0000 O   0  0  0  0  0  0  0  0  0  0  0  0
    7.2533   -7.4502    0.0000 O   0  0  0  0  0  0  0  0  0  0  0  0
    7.9613   -7.8737    0.0000 C   0  0  0  0  0  0  0  0  0  0  0  0
    8.6820   -7.4722    0.0000 C   0  0  0  0  0  0  0  0  0  0  0  0
    9.3901   -7.8957    0.0000 C   0  0  2  0  0  0  0  0  0  0  0  0
    9.4636   -8.7174    0.0000 C   0  0  0  0  0  0  0  0  0  0  0  0
   10.2678   -8.9014    0.0000 C   0  0  0  0  0  0  0  0  0  0  0  0
   10.6913   -8.1934    0.0000 C   0  0  0  0  0  0  0  0  0  0  0  0
   10.1488   -7.5718    0.0000 C   0  0  0  0  0  0  0  0  0  0  0  0
   10.5917   -9.6602    0.0000 C   0  0  0  0  0  0  0  0  0  0  0  0
    8.8421   -9.2599    0.0000 C   0  0  0  0  0  0  0  0  0  0  0  0
    8.8421  -10.0849    0.0000 O   0  0  0  0  0  0  0  0  0  0  0  0
    4.3957   -7.4061    0.0000 C   0  0  0  0  0  0  0  0  0  0  0  0
    3.6750   -7.8075    0.0000 O   0  0  0  0  0  0  0  0  0  0  0  0
  1  2  1  0  0  0  0
  2  3  1  0  0  0  0
  3  4  1  0  0  0  0
  4  5  1  0  0  0  0
  5  6  1  0  0  0  0
  1  6  1  0  0  0  0
  3  7  1  6  0  0  0
  4  8  1  1  0  0  0
  5  9  1  6  0  0  0
 11 12  1  0  0  0  0
 10 11  1  0  0  0  0
 13 14  1  0  0  0  0
 14 15  2  0  0  0  0
 15 16  1  0  0  0  0
 16 17  1  0  0  0  0
 13 17  1  0  0  0  0
 15 18  1  0  0  0  0
 19 20  1  0  0  0  0
 14 19  1  0  0  0  0
 13 12  1  1  0  0  0
  6 10  1  1  0  0  0
 21 22  1  0  0  0  0
  2 21  1  1  0  0  0
M  END
>  <cdx:groupId>
75848

>  <cdx:fragmentId>
75808

$$$$
