609841.cdx
  Mrv1902 05222410212D          

 15 16  0  0  0  0            999 V2000
   14.3970  -17.1343    0.0000 N   0  0  0  0  0  0  0  0  0  0  0  0
   13.6826  -16.7218    0.0000 C   0  0  0  0  0  0  0  0  0  0  0  0
   13.6826  -15.8968    0.0000 C   0  0  0  0  0  0  0  0  0  0  0  0
   14.3970  -15.4843    0.0000 C   0  0  0  0  0  0  0  0  0  0  0  0
   15.1115  -15.8968    0.0000 C   0  0  0  0  0  0  0  0  0  0  0  0
   15.8260  -15.4843    0.0000 C   0  0  0  0  0  0  0  0  0  0  0  0
   16.5405  -15.8968    0.0000 C   0  0  0  0  0  0  0  0  0  0  0  0
   16.5405  -16.7218    0.0000 C   0  0  0  0  0  0  0  0  0  0  0  0
   15.8260  -17.1343    0.0000 C   0  0  0  0  0  0  0  0  0  0  0  0
   15.1115  -16.7218    0.0000 C   0  0  0  0  0  0  0  0  0  0  0  0
   12.9681  -17.1343    0.0000 C   0  0  0  0  0  0  0  0  0  0  0  0
   17.2549  -15.4843    0.0000 O   0  0  0  0  0  0  0  0  0  0  0  0
   17.9694  -15.8968    0.0000 C   0  0  0  0  0  0  0  0  0  0  0  0
   15.8260  -14.6593    0.0000 F   0  0  0  0  0  0  0  0  0  0  0  0
   15.8260  -17.9593    0.0000 N   0  0  0  0  0  0  0  0  0  0  0  0
  1  2  2  0  0  0  0
  2  3  1  0  0  0  0
  3  4  2  0  0  0  0
  4  5  1  0  0  0  0
  5  6  2  0  0  0  0
  6  7  1  0  0  0  0
  7  8  2  0  0  0  0
  8  9  1  0  0  0  0
  9 10  2  0  0  0  0
  1 10  1  0  0  0  0
  5 10  1  0  0  0  0
  2 11  1  0  0  0  0
 12 13  1  0  0  0  0
  7 12  1  0  0  0  0
  6 14  1  0  0  0  0
  9 15  1  0  0  0  0
M  END
>  <cdx:groupId>
8241

>  <cdx:fragmentId>
8198

$$$$
