609836.cdx
  Mrv1902 05222410182D          

 15 16  0  0  0  0            999 V2000
   16.1832  -15.5494    0.0000 O   0  0  0  0  0  0  0  0  0  0  0  0
   16.8977  -15.9619    0.0000 C   0  0  0  0  0  0  0  0  0  0  0  0
   17.6122  -15.5494    0.0000 O   0  0  0  0  0  0  0  0  0  0  0  0
   16.8977  -16.7869    0.0000 C   0  0  0  0  0  0  0  0  0  0  0  0
   16.1832  -17.1994    0.0000 C   0  0  0  0  0  0  0  0  0  0  0  0
   15.4688  -16.7869    0.0000 C   0  0  0  0  0  0  0  0  0  0  0  0
   14.7543  -17.1994    0.0000 C   0  0  0  0  0  0  0  0  0  0  0  0
   14.0398  -16.7869    0.0000 C   0  0  0  0  0  0  0  0  0  0  0  0
   14.0398  -15.9619    0.0000 C   0  0  0  0  0  0  0  0  0  0  0  0
   14.7543  -15.5494    0.0000 C   0  0  0  0  0  0  0  0  0  0  0  0
   15.4688  -15.9619    0.0000 C   0  0  0  0  0  0  0  0  0  0  0  0
   13.3253  -15.5494    0.0000 O   0  0  0  0  0  0  0  0  0  0  0  0
   12.6109  -15.9619    0.0000 C   0  0  0  0  0  0  0  0  0  0  0  0
   17.6122  -17.1994    0.0000 O   0  0  0  0  0  0  0  0  0  0  0  0
   18.3266  -16.7869    0.0000 C   0  0  0  0  0  0  0  0  0  0  0  0
  1  2  1  0  0  0  0
  2  3  2  0  0  0  0
  2  4  1  0  0  0  0
  4  5  2  0  0  0  0
  5  6  1  0  0  0  0
  6  7  1  0  0  0  0
  7  8  2  0  0  0  0
  8  9  1  0  0  0  0
  9 10  2  0  0  0  0
 10 11  1  0  0  0  0
  1 11  1  0  0  0  0
  6 11  2  0  0  0  0
 12 13  1  0  0  0  0
  9 12  1  0  0  0  0
 14 15  1  0  0  0  0
  4 14  1  0  0  0  0
M  END
>  <cdx:groupId>
8140

>  <cdx:fragmentId>
8097

$$$$
