610025.cdx
  Mrv1902 05222410192D          

 20 19  0  0  0  0            999 V2000
   12.0140   -8.5782    0.0000 C   0  0  0  0  0  0  0  0  0  0  0  0
   10.5850   -8.5782    0.0000 N   0  0  0  0  0  0  0  0  0  0  0  0
   11.2995   -8.1657    0.0000 C   0  0  0  0  0  0  0  0  0  0  0  0
   12.0140   -9.4032    0.0000 O   0  0  0  0  0  0  0  0  0  0  0  0
   12.7285   -8.1657    0.0000 N   0  0  0  0  0  0  0  0  0  0  0  0
    9.8706   -8.1657    0.0000 C   0  0  0  0  0  0  0  0  0  0  0  0
    9.1561   -8.5782    0.0000 C   0  0  0  0  0  0  0  0  0  0  0  0
    8.4416   -8.9907    0.0000 C   0  0  0  0  0  0  0  0  0  0  0  0
    7.7272   -9.4032    0.0000 C   0  0  0  0  0  0  0  0  0  0  0  0
    7.0127   -8.9907    0.0000 C   0  0  0  0  0  0  0  0  0  0  0  0
    6.2982   -9.4032    0.0000 C   0  0  0  0  0  0  0  0  0  0  0  0
    5.5837   -8.9907    0.0000 C   0  0  0  0  0  0  0  0  0  0  0  0
    4.8693   -9.4032    0.0000 C   0  0  0  0  0  0  0  0  0  0  0  0
    4.1548   -8.9907    0.0000 C   0  0  0  0  0  0  0  0  0  0  0  0
    3.4403   -9.4032    0.0000 C   0  0  0  0  0  0  0  0  0  0  0  0
    2.7259   -8.9907    0.0000 C   0  0  0  0  0  0  0  0  0  0  0  0
    2.0114   -9.4032    0.0000 C   0  0  0  0  0  0  0  0  0  0  0  0
    1.2969   -8.9907    0.0000 C   0  0  0  0  0  0  0  0  0  0  0  0
    0.5824   -9.4032    0.0000 C   0  0  0  0  0  0  0  0  0  0  0  0
    9.8706   -7.3407    0.0000 O   0  0  0  0  0  0  0  0  0  0  0  0
  2  3  1  0  0  0  0
  1  3  1  0  0  0  0
  1  4  2  0  0  0  0
  1  5  1  0  0  0  0
  6  7  1  0  0  0  0
  7  8  3  0  0  0  0
  8  9  1  0  0  0  0
  9 10  1  0  0  0  0
 10 11  1  0  0  0  0
 11 12  1  0  0  0  0
 12 13  1  0  0  0  0
 13 14  1  0  0  0  0
 14 15  1  0  0  0  0
 15 16  1  0  0  0  0
 16 17  1  0  0  0  0
 17 18  1  0  0  0  0
 18 19  1  0  0  0  0
  6 20  2  0  0  0  0
  2  6  1  0  0  0  0
M  END
>  <cdx:groupId>
8361

>  <cdx:fragmentId>
8315

$$$$
