610016.cdx
  Mrv1902 05222410262D          

 17 17  0  0  0  0            999 V2000
   16.1403  -16.7869    0.0000 C   0  0  0  0  0  0  0  0  0  0  0  0
   16.1403  -15.9619    0.0000 C   0  0  0  0  0  0  0  0  0  0  0  0
   15.4258  -15.5494    0.0000 C   0  0  0  0  0  0  0  0  0  0  0  0
   14.7113  -15.9619    0.0000 C   0  0  0  0  0  0  0  0  0  0  0  0
   14.7113  -16.7869    0.0000 C   0  0  0  0  0  0  0  0  0  0  0  0
   15.4258  -17.1994    0.0000 C   0  0  0  0  0  0  0  0  0  0  0  0
   16.8548  -17.1994    0.0000 C   0  0  0  0  0  0  0  0  0  0  0  0
   16.8548  -18.0244    0.0000 O   0  0  0  0  0  0  0  0  0  0  0  0
   17.5692  -16.7869    0.0000 O   0  0  0  0  0  0  0  0  0  0  0  0
   16.8548  -15.5494    0.0000 C   0  0  0  0  0  0  0  0  0  0  0  0
   16.8548  -14.7244    0.0000 O   0  0  0  0  0  0  0  0  0  0  0  0
   17.5692  -15.9619    0.0000 O   0  0  0  0  0  0  0  0  0  0  0  0
   13.9969  -15.5494    0.0000 C   0  0  0  0  0  0  0  0  0  0  0  0
   13.9969  -14.7244    0.0000 O   0  0  0  0  0  0  0  0  0  0  0  0
   13.2824  -15.9619    0.0000 O   0  0  0  0  0  0  0  0  0  0  0  0
   18.2837  -15.5494    0.0000 C   0  0  0  0  0  0  0  0  0  0  0  0
   18.2837  -17.1994    0.0000 C   0  0  0  0  0  0  0  0  0  0  0  0
  1  2  1  0  0  0  0
  2  3  2  0  0  0  0
  3  4  1  0  0  0  0
  4  5  2  0  0  0  0
  5  6  1  0  0  0  0
  1  6  2  0  0  0  0
  7  8  2  0  0  0  0
  7  9  1  0  0  0  0
  1  7  1  0  0  0  0
 10 11  2  0  0  0  0
 10 12  1  0  0  0  0
  2 10  1  0  0  0  0
 13 14  2  0  0  0  0
 13 15  1  0  0  0  0
  4 13  1  0  0  0  0
 12 16  1  0  0  0  0
  9 17  1  0  0  0  0
M  END
>  <cdx:groupId>
8296

>  <cdx:fragmentId>
8248

$$$$
