610097.cdx
  Mrv1902 05222410202D          

 15 16  0  0  0  0            999 V2000
   16.5914  -15.9619    0.0000 C   0  0  0  0  0  0  0  0  0  0  0  0
   17.3058  -16.3744    0.0000 N   0  0  0  0  0  0  0  0  0  0  0  0
   17.3058  -17.1994    0.0000 C   0  0  0  0  0  0  0  0  0  0  0  0
   16.5914  -17.6119    0.0000 C   0  0  0  0  0  0  0  0  0  0  0  0
   15.8769  -17.1994    0.0000 C   0  0  0  0  0  0  0  0  0  0  0  0
   15.1624  -17.6119    0.0000 C   0  0  0  0  0  0  0  0  0  0  0  0
   14.4480  -17.1994    0.0000 C   0  0  0  0  0  0  0  0  0  0  0  0
   14.4480  -16.3744    0.0000 C   0  0  0  0  0  0  0  0  0  0  0  0
   15.1624  -15.9619    0.0000 C   0  0  0  0  0  0  0  0  0  0  0  0
   15.8769  -16.3744    0.0000 C   0  0  0  0  0  0  0  0  0  0  0  0
   16.5914  -15.1369    0.0000 O   0  0  0  0  0  0  0  0  0  0  0  0
   13.7335  -15.9619    0.0000 O   0  0  0  0  0  0  0  0  0  0  0  0
   13.0190  -16.3744    0.0000 C   0  0  0  0  0  0  0  0  0  0  0  0
   13.7335  -17.6119    0.0000 O   0  0  0  0  0  0  0  0  0  0  0  0
   13.0190  -17.1994    0.0000 C   0  0  0  0  0  0  0  0  0  0  0  0
  1  2  1  0  0  0  0
  2  3  1  0  0  0  0
  3  4  1  0  0  0  0
  4  5  1  0  0  0  0
  5  6  1  0  0  0  0
  6  7  2  0  0  0  0
  7  8  1  0  0  0  0
  8  9  2  0  0  0  0
  9 10  1  0  0  0  0
  1 10  1  0  0  0  0
  5 10  2  0  0  0  0
  1 11  2  0  0  0  0
 12 13  1  0  0  0  0
  8 12  1  0  0  0  0
 14 15  1  0  0  0  0
  7 14  1  0  0  0  0
M  END
>  <cdx:groupId>
8541

>  <cdx:fragmentId>
8498

$$$$
