61007.cdx
  Mrv1902 05222410262D          

 13 13  0  0  0  0            999 V2000
    7.8244   -2.6889    0.0000 C   0  0  0  0  0  0  0  0  0  0  0  0
    7.1099   -2.2764    0.0000 C   0  0  0  0  0  0  0  0  0  0  0  0
    6.3954   -2.6889    0.0000 C   0  0  0  0  0  0  0  0  0  0  0  0
    5.6810   -2.2764    0.0000 C   0  0  0  0  0  0  0  0  0  0  0  0
    7.1099   -1.4514    0.0000 O   0  0  0  0  0  0  0  0  0  0  0  0
    4.9665   -2.6889    0.0000 C   0  0  0  0  0  0  0  0  0  0  0  0
    4.2520   -2.2764    0.0000 C   0  0  0  0  0  0  0  0  0  0  0  0
    3.5376   -2.6889    0.0000 C   0  0  0  0  0  0  0  0  0  0  0  0
    3.5376   -3.5139    0.0000 C   0  0  0  0  0  0  0  0  0  0  0  0
    4.2520   -3.9264    0.0000 C   0  0  0  0  0  0  0  0  0  0  0  0
    4.9665   -3.5139    0.0000 C   0  0  0  0  0  0  0  0  0  0  0  0
    2.8231   -3.9264    0.0000 O   0  0  0  0  0  0  0  0  0  0  0  0
    2.1086   -3.5139    0.0000 C   0  0  0  0  0  0  0  0  0  0  0  0
  1  2  1  0  0  0  0
  2  3  1  0  0  0  0
  3  4  1  0  0  0  0
  2  5  2  0  0  0  0
  6  7  1  0  0  0  0
  7  8  2  0  0  0  0
  8  9  1  0  0  0  0
  9 10  2  0  0  0  0
 10 11  1  0  0  0  0
  6 11  2  0  0  0  0
 12 13  1  0  0  0  0
  9 12  1  0  0  0  0
  4  6  1  0  0  0  0
M  END
>  <cdx:groupId>
78

>  <cdx:fragmentId>
52

$$$$
