610062.cdx
  Mrv1902 05222410242D          

 22 24  0  0  0  0            999 V2000
   10.7742   -8.8243    0.0000 O   0  0  0  0  0  0  0  0  0  0  0  0
   11.2591   -8.1569    0.0000 C   0  0  0  0  0  0  0  0  0  0  0  0
   10.7742   -7.4894    0.0000 O   0  0  0  0  0  0  0  0  0  0  0  0
    9.9896   -7.7444    0.0000 C   0  0  0  0  0  0  0  0  0  0  0  0
    9.9896   -8.5694    0.0000 C   0  0  0  0  0  0  0  0  0  0  0  0
    9.2751   -7.3319    0.0000 C   0  0  0  0  0  0  0  0  0  0  0  0
    8.5606   -7.7444    0.0000 C   0  0  0  0  0  0  0  0  0  0  0  0
    8.5606   -8.5694    0.0000 C   0  0  0  0  0  0  0  0  0  0  0  0
    9.2751   -8.9819    0.0000 C   0  0  0  0  0  0  0  0  0  0  0  0
    7.8462   -9.8069    0.0000 O   0  5  0  0  0  0  0  0  0  0  0  0
    6.4172   -4.0319    0.0000 C   0  0  0  0  0  0  0  0  0  0  0  0
    5.7027   -3.6194    0.0000 C   0  0  0  0  0  0  0  0  0  0  0  0
    4.9883   -4.0319    0.0000 C   0  0  0  0  0  0  0  0  0  0  0  0
    4.9883   -4.8569    0.0000 C   0  0  0  0  0  0  0  0  0  0  0  0
    5.7027   -5.2694    0.0000 C   0  0  0  0  0  0  0  0  0  0  0  0
    6.4172   -4.8569    0.0000 C   0  0  0  0  0  0  0  0  0  0  0  0
    7.1317   -5.2694    0.0000 C   0  0  0  0  0  0  0  0  0  0  0  0
    7.1317   -6.0944    0.0000 C   0  0  0  0  0  0  0  0  0  0  0  0
    7.8462   -6.5069    0.0000 N   0  0  0  0  0  0  0  0  0  0  0  0
    7.8462   -7.3319    0.0000 C   0  0  0  0  0  0  0  0  0  0  0  0
    7.1317   -8.5694    0.0000 O   0  0  0  0  0  0  0  0  0  0  0  0
    7.8462   -8.9819    0.0000 N   0  3  0  0  0  0  0  0  0  0  0  0
 19 18  1  0  0  0  0
 17 16  1  0  0  0  0
 16 11  2  0  0  0  0
 12 11  1  0  0  0  0
 13 12  2  0  0  0  0
 14 13  1  0  0  0  0
 15 14  2  0  0  0  0
 16 15  1  0  0  0  0
 18 17  1  0  0  0  0
 20 19  2  0  0  0  0
 22 10  1  0  0  0  0
 22 21  2  0  0  0  0
  1  2  1  0  0  0  0
  2  3  1  0  0  0  0
  3  4  1  0  0  0  0
  4  5  1  0  0  0  0
  1  5  1  0  0  0  0
  6  7  1  0  0  0  0
  7  8  2  0  0  0  0
  8  9  1  0  0  0  0
  9  5  2  0  0  0  0
  6  4  2  0  0  0  0
  8 22  1  0  0  0  0
 20  7  1  0  0  0  0
M  CHG  2  10  -1  22   1
M  END
>  <cdx:fragmentId>
8443

$$$$
