610037.cdx
  Mrv1902 05222410182D          

 15 15  0  0  0  0            999 V2000
    7.9607   -6.7029    0.0000 C   0  0  0  0  0  0  0  0  0  0  0  0
    7.2463   -6.2904    0.0000 C   0  0  0  0  0  0  0  0  0  0  0  0
    7.9607   -7.5279    0.0000 C   0  0  0  0  0  0  0  0  0  0  0  0
    7.2463   -7.9404    0.0000 C   0  0  0  0  0  0  0  0  0  0  0  0
    7.2463   -8.7654    0.0000 C   0  0  0  0  0  0  0  0  0  0  0  0
    7.9607   -9.1779    0.0000 C   0  0  0  0  0  0  0  0  0  0  0  0
    8.6752   -8.7654    0.0000 C   0  0  0  0  0  0  0  0  0  0  0  0
    8.6752   -7.9404    0.0000 C   0  0  0  0  0  0  0  0  0  0  0  0
    6.5318   -7.5279    0.0000 O   0  0  0  0  0  0  0  0  0  0  0  0
    5.8173   -7.9404    0.0000 Si  0  0  0  0  0  0  0  0  0  0  0  0
    5.1028   -8.3529    0.0000 C   0  0  0  0  0  0  0  0  0  0  0  0
    6.2298   -8.6548    0.0000 C   0  0  0  0  0  0  0  0  0  0  0  0
    5.4048   -7.2259    0.0000 C   0  0  0  0  0  0  0  0  0  0  0  0
    9.3897   -9.1779    0.0000 C   0  0  0  0  0  0  0  0  0  0  0  0
    8.6752   -6.2904    0.0000 O   0  0  0  0  0  0  0  0  0  0  0  0
  1  2  1  0  0  0  0
  3  4  1  0  0  0  0
  4  5  2  0  0  0  0
  5  6  1  0  0  0  0
  6  7  2  0  0  0  0
  7  8  1  0  0  0  0
  3  8  2  0  0  0  0
 10 11  1  0  0  0  0
 10 12  1  0  0  0  0
 10 13  1  0  0  0  0
  9 10  1  0  0  0  0
  4  9  1  0  0  0  0
  7 14  1  0  0  0  0
  1  3  1  0  0  0  0
  1 15  2  0  0  0  0
M  END
>  <cdx:fragmentId>
8377

$$$$
