6101.cdx
  Mrv1902 05222410182D          

 24 26  0  0  0  0            999 V2000
    8.5627   -5.0531    0.0000 C   0  0  0  0  0  0  0  0  0  0  0  0
    8.5627   -5.8781    0.0000 C   0  0  0  0  0  0  0  0  0  0  0  0
    9.2771   -6.2906    0.0000 C   0  0  0  0  0  0  0  0  0  0  0  0
    9.9916   -5.8781    0.0000 C   0  0  0  0  0  0  0  0  0  0  0  0
    9.9916   -5.0531    0.0000 C   0  0  0  0  0  0  0  0  0  0  0  0
    9.2771   -4.6406    0.0000 C   0  0  0  0  0  0  0  0  0  0  0  0
    7.9793   -4.4698    0.0000 C   0  0  0  0  0  0  0  0  0  0  0  0
    7.7658   -5.2667    0.0000 C   0  0  0  0  0  0  0  0  0  0  0  0
    9.2771   -7.1156    0.0000 O   0  0  0  0  0  0  0  0  0  0  0  0
    7.1189   -7.5281    0.0000 C   0  0  2  0  0  0  0  0  0  0  0  0
    7.1189   -8.3531    0.0000 C   0  0  2  0  0  0  0  0  0  0  0  0
    7.8334   -8.7656    0.0000 C   0  0  1  0  0  0  0  0  0  0  0  0
    8.5478   -8.3531    0.0000 C   0  0  2  0  0  0  0  0  0  0  0  0
    8.5478   -7.5281    0.0000 C   0  0  1  0  0  0  0  0  0  0  0  0
    7.8334   -7.1156    0.0000 O   0  0  0  0  0  0  0  0  0  0  0  0
    6.4044   -7.1156    0.0000 C   0  0  0  0  0  0  0  0  0  0  0  0
    7.8334   -9.5906    0.0000 O   0  0  0  0  0  0  0  0  0  0  0  0
    6.4044   -8.7656    0.0000 O   0  0  0  0  0  0  0  0  0  0  0  0
    9.2623   -8.7656    0.0000 O   0  0  0  0  0  0  0  0  0  0  0  0
    5.6900   -7.5281    0.0000 O   0  0  0  0  0  0  0  0  0  0  0  0
   10.6047   -4.5011    0.0000 C   0  0  0  0  0  0  0  0  0  0  0  0
   10.2691   -3.7474    0.0000 O   0  0  0  0  0  0  0  0  0  0  0  0
    9.4487   -3.8337    0.0000 C   0  0  0  0  0  0  0  0  0  0  0  0
    8.8653   -3.2503    0.0000 O   0  0  0  0  0  0  0  0  0  0  0  0
  1  2  1  0  0  0  0
  2  3  1  0  0  0  0
  3  4  1  0  0  0  0
  4  5  1  0  0  0  0
  5  6  2  0  0  0  0
  6  1  1  0  0  0  0
  1  7  1  0  0  0  0
  1  8  1  0  0  0  0
 10 11  1  0  0  0  0
 11 12  1  0  0  0  0
 12 13  1  0  0  0  0
 13 14  1  0  0  0  0
 14 15  1  0  0  0  0
 15 10  1  0  0  0  0
 10 16  1  1  0  0  0
 12 17  1  1  0  0  0
 11 18  1  6  0  0  0
 13 19  1  6  0  0  0
 16 20  1  0  0  0  0
  3  9  1  0  0  0  0
 14  9  1  1  0  0  0
  5 21  1  0  0  0  0
 21 22  1  0  0  0  0
 22 23  1  0  0  0  0
 23  6  1  0  0  0  0
 23 24  2  0  0  0  0
M  END
>  <cdx:fragmentId>
34

$$$$
