61020.cdx
  Mrv1902 05222410192D          

  6  5  0  0  0  0            999 V2000
    4.0836   -2.5429    0.0000 C   0  0  0  0  0  0  0  0  0  0  0  0
    4.7981   -2.9554    0.0000 C   0  0  0  0  0  0  0  0  0  0  0  0
    5.5125   -2.5429    0.0000 C   0  0  0  0  0  0  0  0  0  0  0  0
    5.5125   -1.7179    0.0000 C   0  0  0  0  0  0  0  0  0  0  0  0
    3.3691   -2.9554    0.0000 O   0  0  0  0  0  0  0  0  0  0  0  0
    6.2270   -2.9554    0.0000 C   0  0  0  0  0  0  0  0  0  0  0  0
  1  2  1  0  0  0  0
  2  3  2  0  0  0  0
  3  4  1  0  0  0  0
  1  5  2  0  0  0  0
  3  6  1  0  0  0  0
M  END
>  <cdx:groupId>
19

>  <cdx:fragmentId>
5

$$$$
