61024.cdx
  Mrv1902 05222410192D          

 14 13  0  0  0  0            999 V2000
    3.8477   -2.8264    0.0000 C   0  0  0  0  0  0  0  0  0  0  0  0
    3.1333   -3.2389    0.0000 C   0  0  0  0  0  0  0  0  0  0  0  0
    3.1333   -4.0639    0.0000 C   0  0  0  0  0  0  0  0  0  0  0  0
    3.8477   -2.0014    0.0000 O   0  0  0  0  0  0  0  0  0  0  0  0
    4.5622   -3.2389    0.0000 O   0  0  0  0  0  0  0  0  0  0  0  0
    2.4188   -2.8264    0.0000 C   0  0  0  0  0  0  0  0  0  0  0  0
    5.2767   -2.8264    0.0000 C   0  0  0  0  0  0  0  0  0  0  0  0
    5.9911   -3.2389    0.0000 C   0  0  0  0  0  0  0  0  0  0  0  0
    6.7056   -2.8264    0.0000 C   0  0  0  0  0  0  0  0  0  0  0  0
    7.4201   -3.2389    0.0000 C   0  0  0  0  0  0  0  0  0  0  0  0
    8.1346   -2.8264    0.0000 C   0  0  0  0  0  0  0  0  0  0  0  0
    8.8490   -3.2389    0.0000 C   0  0  0  0  0  0  0  0  0  0  0  0
    9.5635   -2.8264    0.0000 C   0  0  0  0  0  0  0  0  0  0  0  0
   10.2780   -3.2389    0.0000 C   0  0  0  0  0  0  0  0  0  0  0  0
  1  2  1  0  0  0  0
  2  3  1  0  0  0  0
  1  4  2  0  0  0  0
  1  5  1  0  0  0  0
  2  6  1  0  0  0  0
  7  8  1  0  0  0  0
  8  9  1  0  0  0  0
  9 10  1  0  0  0  0
 10 11  1  0  0  0  0
 11 12  1  0  0  0  0
 12 13  1  0  0  0  0
 13 14  1  0  0  0  0
  5  7  1  0  0  0  0
M  END
>  <cdx:groupId>
43

>  <cdx:fragmentId>
17

$$$$
