61040.cdx
  Mrv1902 05222410222D          

 13 12  0  0  0  0            999 V2000
    2.8403   -3.4710    0.0000 C   0  0  0  0  0  0  0  0  0  0  0  0
    2.1258   -3.8835    0.0000 O   0  0  0  0  0  0  0  0  0  0  0  0
    3.5547   -3.8835    0.0000 O   0  0  0  0  0  0  0  0  0  0  0  0
    3.5547   -2.2335    0.0000 C   0  0  0  0  0  0  0  0  0  0  0  0
    4.2692   -2.6460    0.0000 C   0  0  0  0  0  0  0  0  0  0  0  0
    4.2692   -3.4710    0.0000 C   0  0  0  0  0  0  0  0  0  0  0  0
    4.9837   -3.8835    0.0000 C   0  0  0  0  0  0  0  0  0  0  0  0
    5.6982   -3.4710    0.0000 C   0  0  0  0  0  0  0  0  0  0  0  0
    6.4126   -3.8835    0.0000 C   0  0  0  0  0  0  0  0  0  0  0  0
    7.1271   -3.4710    0.0000 C   0  0  0  0  0  0  0  0  0  0  0  0
    7.1271   -2.6460    0.0000 C   0  0  0  0  0  0  0  0  0  0  0  0
    7.8416   -3.8835    0.0000 C   0  0  0  0  0  0  0  0  0  0  0  0
    4.2692   -4.2960    0.0000 C   0  0  0  0  0  0  0  0  0  0  0  0
  1  2  2  0  0  0  0
  1  3  1  0  0  0  0
  4  5  2  0  0  0  0
  5  6  1  0  0  0  0
  6  7  1  0  0  0  0
  7  8  1  0  0  0  0
  8  9  1  0  0  0  0
  9 10  2  0  0  0  0
 10 11  1  0  0  0  0
 10 12  1  0  0  0  0
  6 13  1  0  0  0  0
  3  6  1  0  0  0  0
M  END
>  <cdx:groupId>
40

>  <cdx:fragmentId>
11

$$$$
