61041.cdx
  Mrv1902 05222410232D          

 11 11  0  0  0  0            999 V2000
    4.7259   -3.5369    0.0000 C   0  0  0  0  0  0  0  0  0  0  0  0
    4.0114   -3.9494    0.0000 C   0  0  0  0  0  0  0  0  0  0  0  0
    3.2969   -3.5369    0.0000 C   0  0  0  0  0  0  0  0  0  0  0  0
    3.2969   -2.7119    0.0000 C   0  0  0  0  0  0  0  0  0  0  0  0
    4.0114   -2.2994    0.0000 C   0  0  0  0  0  0  0  0  0  0  0  0
    4.7259   -2.7119    0.0000 C   0  0  0  0  0  0  0  0  0  0  0  0
    5.4403   -3.9494    0.0000 C   0  0  0  0  0  0  0  0  0  0  0  0
    6.1548   -3.5369    0.0000 O   0  0  0  0  0  0  0  0  0  0  0  0
    5.1384   -1.9975    0.0000 C   0  0  0  0  0  0  0  0  0  0  0  0
    5.5509   -2.7119    0.0000 C   0  0  0  0  0  0  0  0  0  0  0  0
    4.0114   -4.7744    0.0000 C   0  0  0  0  0  0  0  0  0  0  0  0
  1  2  2  0  0  0  0
  2  3  1  0  0  0  0
  3  4  2  0  0  0  0
  4  5  1  0  0  0  0
  5  6  1  0  0  0  0
  1  6  1  0  0  0  0
  7  8  2  0  0  0  0
  1  7  1  0  0  0  0
  6  9  1  0  0  0  0
  6 10  1  0  0  0  0
  2 11  1  0  0  0  0
M  END
>  <cdx:groupId>
35

>  <cdx:fragmentId>
5

$$$$
