61048.cdx
  Mrv1902 05222410262D          

 13 13  0  0  0  0            999 V2000
    4.6333   -2.5916    0.0000 C   0  0  0  0  0  0  0  0  0  0  0  0
    3.9189   -3.0041    0.0000 C   0  0  0  0  0  0  0  0  0  0  0  0
    3.9189   -3.8291    0.0000 C   0  0  0  0  0  0  0  0  0  0  0  0
    3.2044   -4.2416    0.0000 C   0  0  0  0  0  0  0  0  0  0  0  0
    2.4899   -3.8291    0.0000 C   0  0  0  0  0  0  0  0  0  0  0  0
    2.4899   -3.0041    0.0000 C   0  0  0  0  0  0  0  0  0  0  0  0
    3.2044   -2.5916    0.0000 C   0  0  0  0  0  0  0  0  0  0  0  0
    4.6333   -1.7666    0.0000 O   0  0  0  0  0  0  0  0  0  0  0  0
    5.3478   -3.0041    0.0000 O   0  0  0  0  0  0  0  0  0  0  0  0
    6.0623   -2.5916    0.0000 C   0  0  0  0  0  0  0  0  0  0  0  0
    6.7767   -3.0041    0.0000 C   0  0  0  0  0  0  0  0  0  0  0  0
    7.4912   -2.5916    0.0000 C   0  0  0  0  0  0  0  0  0  0  0  0
    6.7767   -3.8291    0.0000 C   0  0  0  0  0  0  0  0  0  0  0  0
  1  2  1  0  0  0  0
  2  3  1  0  0  0  0
  3  4  2  0  0  0  0
  4  5  1  0  0  0  0
  5  6  2  0  0  0  0
  6  7  1  0  0  0  0
  2  7  2  0  0  0  0
  1  8  2  0  0  0  0
  1  9  1  0  0  0  0
 10 11  1  0  0  0  0
 11 12  1  0  0  0  0
 13 11  1  0  0  0  0
  9 10  1  0  0  0  0
M  END
>  <cdx:groupId>
41

>  <cdx:fragmentId>
5

$$$$
