610544.cdx
  Mrv1902 05222410192D          

 36 36  0  0  0  0            999 V2000
   15.1505   -9.2072    0.0000 C   0  0  0  0  0  0  0  0  0  0  0  0
   14.4360   -8.7947    0.0000 C   0  0  0  0  0  0  0  0  0  0  0  0
   13.7215   -9.2072    0.0000 C   0  0  0  0  0  0  0  0  0  0  0  0
   13.0071   -8.7947    0.0000 C   0  0  0  0  0  0  0  0  0  0  0  0
   12.2926   -9.2072    0.0000 C   0  0  0  0  0  0  0  0  0  0  0  0
   11.5781   -8.7947    0.0000 C   0  0  0  0  0  0  0  0  0  0  0  0
   10.8637   -9.2072    0.0000 C   0  0  0  0  0  0  0  0  0  0  0  0
   10.1492   -8.7947    0.0000 C   0  0  0  0  0  0  0  0  0  0  0  0
    9.4347   -9.2072    0.0000 C   0  0  0  0  0  0  0  0  0  0  0  0
    8.7203   -8.7947    0.0000 C   0  0  0  0  0  0  0  0  0  0  0  0
    8.0058   -9.2072    0.0000 C   0  0  0  0  0  0  0  0  0  0  0  0
    7.2913   -8.7947    0.0000 C   0  0  0  0  0  0  0  0  0  0  0  0
    6.5768   -9.2072    0.0000 C   0  0  0  0  0  0  0  0  0  0  0  0
    5.8624   -8.7947    0.0000 C   0  0  2  0  0  0  0  0  0  0  0  0
    5.8624   -7.9697    0.0000 C   0  0  0  0  0  0  0  0  0  0  0  0
    6.5768   -7.5572    0.0000 C   0  0  0  0  0  0  0  0  0  0  0  0
   15.1505  -10.0322    0.0000 O   0  0  0  0  0  0  0  0  0  0  0  0
   15.8650   -8.7947    0.0000 O   0  0  0  0  0  0  0  0  0  0  0  0
    5.8624   -9.6197    0.0000 C   0  0  0  0  0  0  0  0  0  0  0  0
   11.5781   -7.9697    0.0000 C   0  0  0  0  0  0  0  0  0  0  0  0
   14.4360   -7.9697    0.0000 C   0  0  0  0  0  0  0  0  0  0  0  0
    8.7203   -7.9697    0.0000 C   0  0  0  0  0  0  0  0  0  0  0  0
    8.0058   -7.5572    0.0000 O   0  0  0  0  0  0  0  0  0  0  0  0
   13.0071   -7.9697    0.0000 O   0  0  0  0  0  0  0  0  0  0  0  0
    3.7202  -10.0344    0.0000 O   0  0  0  0  0  0  0  0  0  0  0  0
    2.2900   -9.2116    0.0000 O   0  0  0  0  0  0  0  0  0  0  0  0
    2.2875   -7.5616    0.0000 O   0  0  0  0  0  0  0  0  0  0  0  0
    3.0001   -6.3230    0.0000 O   0  0  0  0  0  0  0  0  0  0  0  0
    3.7152   -6.7344    0.0000 C   0  0  0  0  0  0  0  0  0  0  0  0
    3.7164   -7.5594    0.0000 C   0  0  2  0  0  0  0  0  0  0  0  0
    3.0026   -7.9730    0.0000 C   0  0  2  0  0  0  0  0  0  0  0  0
    3.0039   -8.7980    0.0000 C   0  0  1  0  0  0  0  0  0  0  0  0
    3.7190   -9.2094    0.0000 C   0  0  2  0  0  0  0  0  0  0  0  0
    4.4328   -8.7958    0.0000 C   0  0  1  0  0  0  0  0  0  0  0  0
    4.4315   -7.9708    0.0000 O   0  0  0  0  0  0  0  0  0  0  0  0
    5.1479   -9.2072    0.0000 O   0  0  0  0  0  0  0  0  0  0  0  0
 34 36  1  1  0  0  0
 33 25  1  6  0  0  0
 32 26  1  1  0  0  0
 31 27  1  6  0  0  0
 30 29  1  1  0  0  0
 29 28  1  0  0  0  0
 35 30  1  0  0  0  0
 31 30  1  0  0  0  0
 32 31  1  0  0  0  0
 33 32  1  0  0  0  0
 34 33  1  0  0  0  0
 35 34  1  0  0  0  0
  1  2  1  0  0  0  0
  2  3  2  0  0  0  0
  3  4  1  0  0  0  0
  4  5  1  0  0  0  0
  5  6  1  0  0  0  0
  6  7  2  0  0  0  0
  7  8  1  0  0  0  0
  8  9  1  0  0  0  0
  9 10  1  0  0  0  0
 10 11  2  0  0  0  0
 11 12  1  0  0  0  0
 12 13  1  0  0  0  0
 13 14  1  0  0  0  0
 14 15  1  0  0  0  0
 15 16  2  0  0  0  0
  1 17  2  0  0  0  0
  1 18  1  0  0  0  0
 14 36  1  0  0  0  0
 14 19  1  1  0  0  0
  6 20  1  0  0  0  0
  2 21  1  0  0  0  0
 22 23  1  0  0  0  0
 10 22  1  0  0  0  0
  4 24  1  0  0  0  0
M  END
>  <cdx:fragmentId>
5

$$$$
