61050.cdx
  Mrv1902 05222410212D          

 18 18  0  0  0  0            999 V2000
    4.3536   -4.6383    0.0000 C   0  0  0  0  0  0  0  0  0  0  0  0
    4.3536   -5.4633    0.0000 C   0  0  0  0  0  0  0  0  0  0  0  0
    3.6391   -5.8758    0.0000 C   0  0  0  0  0  0  0  0  0  0  0  0
    2.9246   -5.4633    0.0000 C   0  0  0  0  0  0  0  0  0  0  0  0
    2.9246   -4.6383    0.0000 C   0  0  0  0  0  0  0  0  0  0  0  0
    3.6391   -4.2258    0.0000 C   0  0  0  0  0  0  0  0  0  0  0  0
    5.7825   -4.6383    0.0000 C   0  0  0  0  0  0  0  0  0  0  0  0
    5.0680   -4.2258    0.0000 C   0  0  0  0  0  0  0  0  0  0  0  0
    5.7825   -5.4633    0.0000 O   0  0  0  0  0  0  0  0  0  0  0  0
    6.4970   -4.2258    0.0000 O   0  0  0  0  0  0  0  0  0  0  0  0
    7.2115   -4.6383    0.0000 C   0  0  0  0  0  0  0  0  0  0  0  0
    7.9259   -4.2258    0.0000 C   0  0  0  0  0  0  0  0  0  0  0  0
    8.6404   -4.6383    0.0000 C   0  0  0  0  0  0  0  0  0  0  0  0
    9.3549   -4.2258    0.0000 C   0  0  0  0  0  0  0  0  0  0  0  0
   10.0693   -4.6383    0.0000 C   0  0  0  0  0  0  0  0  0  0  0  0
   10.7838   -4.2258    0.0000 C   0  0  0  0  0  0  0  0  0  0  0  0
   11.4983   -4.6383    0.0000 C   0  0  0  0  0  0  0  0  0  0  0  0
   12.2127   -4.2258    0.0000 C   0  0  0  0  0  0  0  0  0  0  0  0
  1  2  1  0  0  0  0
  2  3  2  0  0  0  0
  3  4  1  0  0  0  0
  4  5  2  0  0  0  0
  5  6  1  0  0  0  0
  1  6  2  0  0  0  0
  7  8  1  0  0  0  0
  7  9  2  0  0  0  0
  7 10  1  0  0  0  0
  1  8  1  0  0  0  0
 11 12  1  0  0  0  0
 12 13  1  0  0  0  0
 13 14  1  0  0  0  0
 14 15  1  0  0  0  0
 15 16  1  0  0  0  0
 16 17  1  0  0  0  0
 17 18  1  0  0  0  0
 10 11  1  0  0  0  0
M  END
>  <cdx:fragmentId>
5

$$$$
