610548.cdx
  Mrv1902 05222410272D          

 76 80  0  0  0  0            999 V2000
   14.9200   -6.2785    0.0000 O   0  0  0  0  0  0  0  0  0  0  0  0
   14.2055   -6.6910    0.0000 C   0  0  2  0  0  0  0  0  0  0  0  0
   13.4910   -6.2785    0.0000 C   0  0  1  0  0  0  0  0  0  0  0  0
   13.4910   -5.4535    0.0000 C   0  0  1  0  0  0  0  0  0  0  0  0
   14.2055   -5.0410    0.0000 C   0  0  2  0  0  0  0  0  0  0  0  0
   14.9200   -5.4535    0.0000 C   0  0  2  0  0  0  0  0  0  0  0  0
   12.7766   -6.6910    0.0000 O   0  0  0  0  0  0  0  0  0  0  0  0
   12.7766   -5.0410    0.0000 O   0  0  0  0  0  0  0  0  0  0  0  0
   14.2055   -4.2160    0.0000 O   0  0  0  0  0  0  0  0  0  0  0  0
   15.6344   -5.0410    0.0000 C   0  0  0  0  0  0  0  0  0  0  0  0
   14.2055   -7.5160    0.0000 O   0  0  0  0  0  0  0  0  0  0  0  0
   13.4910   -7.9285    0.0000 C   0  0  0  0  0  0  0  0  0  0  0  0
   14.2055   -9.1660    0.0000 O   0  0  0  0  0  0  0  0  0  0  0  0
   13.4910   -8.7535    0.0000 C   0  0  1  0  0  0  0  0  0  0  0  0
   12.7766   -9.1660    0.0000 C   0  0  2  0  0  0  0  0  0  0  0  0
   12.7766   -9.9910    0.0000 C   0  0  1  0  0  0  0  0  0  0  0  0
   13.4910  -10.4035    0.0000 C   0  0  2  0  0  0  0  0  0  0  0  0
   14.2055   -9.9910    0.0000 C   0  0  2  0  0  0  0  0  0  0  0  0
   13.4910  -11.2285    0.0000 O   0  0  0  0  0  0  0  0  0  0  0  0
   12.0621  -10.4035    0.0000 O   0  0  0  0  0  0  0  0  0  0  0  0
   12.0621   -8.7535    0.0000 O   0  0  0  0  0  0  0  0  0  0  0  0
   14.9200  -10.4035    0.0000 O   0  0  0  0  0  0  0  0  0  0  0  0
   17.0634   -9.9910    0.0000 O   0  0  0  0  0  0  0  0  0  0  0  0
   16.3489  -10.4035    0.0000 C   0  0  2  0  0  0  0  0  0  0  0  0
   15.6344   -9.9910    0.0000 C   0  0  1  0  0  0  0  0  0  0  0  0
   15.6344   -9.1660    0.0000 C   0  0  2  0  0  0  0  0  0  0  0  0
   16.3489   -8.7535    0.0000 C   0  0  1  0  0  0  0  0  0  0  0  0
   17.0634   -9.1660    0.0000 C   0  0  1  0  0  0  0  0  0  0  0  0
   17.7779   -8.7535    0.0000 C   0  0  0  0  0  0  0  0  0  0  0  0
   18.4923   -9.1660    0.0000 O   0  0  0  0  0  0  0  0  0  0  0  0
   16.3489   -7.9285    0.0000 O   0  0  0  0  0  0  0  0  0  0  0  0
   14.9200   -8.7535    0.0000 O   0  0  0  0  0  0  0  0  0  0  0  0
   16.3489  -11.2285    0.0000 O   0  0  0  0  0  0  0  0  0  0  0  0
   15.6344  -11.6410    0.0000 C   0  0  0  0  0  0  0  0  0  0  0  0
   15.6344  -12.4660    0.0000 C   0  0  0  0  0  0  0  0  0  0  0  0
   14.9200  -12.8785    0.0000 C   0  0  0  0  0  0  0  0  0  0  0  0
   14.2055  -12.4660    0.0000 C   0  0  0  0  0  0  0  0  0  0  0  0
   13.4910  -12.8785    0.0000 C   0  0  0  0  0  0  0  0  0  0  0  0
   12.7766  -12.4660    0.0000 C   0  0  0  0  0  0  0  0  0  0  0  0
   12.0621  -12.8785    0.0000 C   0  0  0  0  0  0  0  0  0  0  0  0
   11.3476  -12.4660    0.0000 C   0  0  0  0  0  0  0  0  0  0  0  0
   10.6331  -12.8785    0.0000 C   0  0  0  0  0  0  0  0  0  0  0  0
    9.9187  -12.4660    0.0000 C   0  0  0  0  0  0  0  0  0  0  0  0
    9.2042  -12.8785    0.0000 C   0  0  0  0  0  0  0  0  0  0  0  0
    8.4897  -12.4660    0.0000 C   0  0  0  0  0  0  0  0  0  0  0  0
    7.7753  -12.8785    0.0000 C   0  0  0  0  0  0  0  0  0  0  0  0
    7.0608  -12.4660    0.0000 C   0  0  2  0  0  0  0  0  0  0  0  0
    7.0608  -11.6410    0.0000 C   0  0  0  0  0  0  0  0  0  0  0  0
    7.7753  -11.2285    0.0000 C   0  0  0  0  0  0  0  0  0  0  0  0
    7.0608  -13.2910    0.0000 C   0  0  0  0  0  0  0  0  0  0  0  0
    9.9187  -11.6410    0.0000 C   0  0  0  0  0  0  0  0  0  0  0  0
   12.7766  -11.6410    0.0000 C   0  0  0  0  0  0  0  0  0  0  0  0
   16.3489  -12.8785    0.0000 C   0  0  0  0  0  0  0  0  0  0  0  0
    3.4884  -12.8786    0.0000 O   0  0  0  0  0  0  0  0  0  0  0  0
    3.4884  -11.2286    0.0000 O   0  0  0  0  0  0  0  0  0  0  0  0
    4.2028   -9.9910    0.0000 O   0  0  0  0  0  0  0  0  0  0  0  0
    4.9173  -10.4035    0.0000 C   0  0  0  0  0  0  0  0  0  0  0  0
    4.9175  -15.3535    0.0000 O   0  0  0  0  0  0  0  0  0  0  0  0
    3.4885  -16.1786    0.0000 O   0  0  0  0  0  0  0  0  0  0  0  0
    2.0596  -15.3536    0.0000 O   0  0  0  0  0  0  0  0  0  0  0  0
    2.0595  -12.8786    0.0000 O   0  0  0  0  0  0  0  0  0  0  0  0
    2.0595  -13.7036    0.0000 C   0  0  0  0  0  0  0  0  0  0  0  0
    2.7740  -14.1161    0.0000 C   0  0  2  0  0  0  0  0  0  0  0  0
    2.7740  -14.9411    0.0000 C   0  0  2  0  0  0  0  0  0  0  0  0
    3.4885  -15.3536    0.0000 C   0  0  1  0  0  0  0  0  0  0  0  0
    4.2030  -14.9410    0.0000 C   0  0  2  0  0  0  0  0  0  0  0  0
    4.2029  -14.1160    0.0000 C   0  0  1  0  0  0  0  0  0  0  0  0
    3.4885  -13.7036    0.0000 O   0  0  0  0  0  0  0  0  0  0  0  0
    4.9174  -13.7035    0.0000 O   0  0  0  0  0  0  0  0  0  0  0  0
    4.9173  -11.2285    0.0000 C   0  0  2  0  0  0  0  0  0  0  0  0
    4.2029  -11.6410    0.0000 C   0  0  2  0  0  0  0  0  0  0  0  0
    4.2029  -12.4660    0.0000 C   0  0  1  0  0  0  0  0  0  0  0  0
    4.9174  -12.8785    0.0000 C   0  0  2  0  0  0  0  0  0  0  0  0
    5.6318  -12.4660    0.0000 C   0  0  1  0  0  0  0  0  0  0  0  0
    5.6318  -11.6410    0.0000 O   0  0  0  0  0  0  0  0  0  0  0  0
    6.3463  -12.8785    0.0000 O   0  0  0  0  0  0  0  0  0  0  0  0
 74 76  1  1  0  0  0
 72 54  1  1  0  0  0
 71 55  1  6  0  0  0
 70 57  1  1  0  0  0
 57 56  1  0  0  0  0
 73 69  1  6  0  0  0
 67 69  1  1  0  0  0
 66 58  1  6  0  0  0
 65 59  1  1  0  0  0
 64 60  1  6  0  0  0
 63 62  1  1  0  0  0
 62 61  1  0  0  0  0
 68 63  1  0  0  0  0
 64 63  1  0  0  0  0
 65 64  1  0  0  0  0
 66 65  1  0  0  0  0
 67 66  1  0  0  0  0
 68 67  1  0  0  0  0
 75 70  1  0  0  0  0
 71 70  1  0  0  0  0
 72 71  1  0  0  0  0
 73 72  1  0  0  0  0
 74 73  1  0  0  0  0
  1  2  1  0  0  0  0
  2  3  1  0  0  0  0
  3  4  1  0  0  0  0
  4  5  1  0  0  0  0
  5  6  1  0  0  0  0
  1  6  1  0  0  0  0
  3  7  1  6  0  0  0
  4  8  1  6  0  0  0
  5  9  1  1  0  0  0
  6 10  1  6  0  0  0
 11 12  1  0  0  0  0
 13 14  1  0  0  0  0
 14 15  1  0  0  0  0
 15 16  1  0  0  0  0
 16 17  1  0  0  0  0
 17 18  1  0  0  0  0
 13 18  1  0  0  0  0
 17 19  1  6  0  0  0
 16 20  1  1  0  0  0
 15 21  1  6  0  0  0
 23 24  1  0  0  0  0
 24 25  1  0  0  0  0
 25 26  1  0  0  0  0
 26 27  1  0  0  0  0
 27 28  1  0  0  0  0
 23 28  1  0  0  0  0
 29 30  1  0  0  0  0
 28 29  1  1  0  0  0
 27 31  1  6  0  0  0
 26 32  1  1  0  0  0
 34 35  1  0  0  0  0
 35 36  2  0  0  0  0
 36 37  1  0  0  0  0
 37 38  1  0  0  0  0
 38 39  1  0  0  0  0
 39 40  2  0  0  0  0
 40 41  1  0  0  0  0
 41 42  1  0  0  0  0
 42 43  1  0  0  0  0
 43 44  2  0  0  0  0
 44 45  1  0  0  0  0
 45 46  1  0  0  0  0
 46 47  1  0  0  0  0
 47 48  1  0  0  0  0
 48 49  2  0  0  0  0
 33 34  1  0  0  0  0
 47 50  1  1  0  0  0
 43 51  1  0  0  0  0
 39 52  1  0  0  0  0
 35 53  1  0  0  0  0
 75 74  1  0  0  0  0
 47 76  1  0  0  0  0
 24 33  1  1  0  0  0
 25 22  1  6  0  0  0
 18 22  1  1  0  0  0
 14 12  1  1  0  0  0
  2 11  1  1  0  0  0
M  END
>  <cdx:fragmentId>
127

$$$$
