61057.cdx
  Mrv1902 05222410222D          

 31 35  0  0  0  0            999 V2000
    9.2907   -8.4635    0.0000 O   0  0  0  0  0  0  0  0  0  0  0  0
   10.0015   -8.0448    0.0000 C   0  0  0  0  0  0  0  0  0  0  0  0
    9.9943   -7.2198    0.0000 C   0  0  0  0  0  0  0  0  0  0  0  0
    9.2763   -6.8136    0.0000 C   0  0  0  0  0  0  0  0  0  0  0  0
    8.5655   -7.2323    0.0000 C   0  0  0  0  0  0  0  0  0  0  0  0
    8.5726   -8.0572    0.0000 C   0  0  0  0  0  0  0  0  0  0  0  0
    9.2691   -5.9886    0.0000 C   0  0  0  0  0  0  0  0  0  0  0  0
    8.5511   -5.5823    0.0000 O   0  0  0  0  0  0  0  0  0  0  0  0
    7.8402   -6.0010    0.0000 C   0  0  0  0  0  0  0  0  0  0  0  0
    7.8474   -6.8260    0.0000 C   0  0  0  0  0  0  0  0  0  0  0  0
   10.7052   -6.8011    0.0000 C   0  0  0  0  0  0  0  0  0  0  0  0
   10.6980   -5.9762    0.0000 C   0  0  0  0  0  0  0  0  0  0  0  0
    9.9800   -5.5699    0.0000 C   0  0  0  0  0  0  0  0  0  0  0  0
    7.1366   -7.2447    0.0000 C   0  0  0  0  0  0  0  0  0  0  0  0
    7.1437   -8.0697    0.0000 C   0  0  0  0  0  0  0  0  0  0  0  0
    7.8618   -8.4759    0.0000 C   0  0  0  0  0  0  0  0  0  0  0  0
    6.4329   -8.4884    0.0000 O   0  0  0  0  0  0  0  0  0  0  0  0
    7.8690   -9.3009    0.0000 O   0  0  0  0  0  0  0  0  0  0  0  0
    5.7149   -8.0821    0.0000 C   0  0  2  0  0  0  0  0  0  0  0  0
   11.4089   -5.5575    0.0000 O   0  0  0  0  0  0  0  0  0  0  0  0
    9.9728   -4.7449    0.0000 O   0  0  0  0  0  0  0  0  0  0  0  0
   10.7196   -8.4511    0.0000 O   0  0  0  0  0  0  0  0  0  0  0  0
    7.1222   -5.5948    0.0000 O   0  0  0  0  0  0  0  0  0  0  0  0
    5.6215   -7.2624    0.0000 O   0  0  0  0  0  0  0  0  0  0  0  0
    4.8131   -7.0979    0.0000 C   0  0  1  0  0  0  0  0  0  0  0  0
    4.4068   -7.8160    0.0000 C   0  0  2  0  0  0  0  0  0  0  0  0
    4.9641   -8.4242    0.0000 C   0  0  2  0  0  0  0  0  0  0  0  0
    3.5871   -7.9093    0.0000 O   0  0  0  0  0  0  0  0  0  0  0  0
    4.7996   -9.2327    0.0000 O   0  0  0  0  0  0  0  0  0  0  0  0
    4.4709   -6.3472    0.0000 C   0  0  0  0  0  0  0  0  0  0  0  0
    3.6497   -6.2681    0.0000 O   0  0  0  0  0  0  0  0  0  0  0  0
  1  2  1  0  0  0  0
  2  3  1  0  0  0  0
  3  4  1  0  0  0  0
  4  5  1  0  0  0  0
  5  6  2  0  0  0  0
  6  1  1  0  0  0  0
  4  7  2  0  0  0  0
  7  8  1  0  0  0  0
  8  9  1  0  0  0  0
  9 10  1  0  0  0  0
 10  5  1  0  0  0  0
  3 11  2  0  0  0  0
 11 12  1  0  0  0  0
 12 13  2  0  0  0  0
 13  7  1  0  0  0  0
 10 14  2  0  0  0  0
 14 15  1  0  0  0  0
 15 16  2  0  0  0  0
 16  6  1  0  0  0  0
 15 17  1  0  0  0  0
 18 16  1  0  0  0  0
 19 17  1  1  0  0  0
 12 20  1  0  0  0  0
 21 13  1  0  0  0  0
  2 22  2  0  0  0  0
  9 23  2  0  0  0  0
 19 24  1  0  0  0  0
 24 25  1  0  0  0  0
 25 26  1  0  0  0  0
 26 27  1  0  0  0  0
 27 19  1  0  0  0  0
 26 28  1  6  0  0  0
 27 29  1  1  0  0  0
 25 30  1  1  0  0  0
 30 31  1  0  0  0  0
M  END
>  <cdx:fragmentId>
5

$$$$
