6105.cdx
  Mrv1902 05222410202D          

 26 29  0  0  0  0            999 V2000
    4.1420   -4.9019    0.0000 C   0  0  0  0  0  0  0  0  0  0  0  0
    4.1420   -5.7269    0.0000 C   0  0  0  0  0  0  0  0  0  0  0  0
    4.8565   -6.1394    0.0000 C   0  0  0  0  0  0  0  0  0  0  0  0
    5.5710   -5.7269    0.0000 C   0  0  0  0  0  0  0  0  0  0  0  0
    5.5710   -4.9019    0.0000 C   0  0  0  0  0  0  0  0  0  0  0  0
    4.8565   -4.4894    0.0000 C   0  0  0  0  0  0  0  0  0  0  0  0
    6.2854   -6.1394    0.0000 C   0  0  0  0  0  0  0  0  0  0  0  0
    6.9999   -5.7269    0.0000 C   0  0  0  0  0  0  0  0  0  0  0  0
    6.9999   -4.9019    0.0000 C   0  0  0  0  0  0  0  0  0  0  0  0
    6.2854   -4.4894    0.0000 O   0  0  0  0  0  0  0  0  0  0  0  0
    7.7144   -6.1394    0.0000 C   0  0  0  0  0  0  0  0  0  0  0  0
    8.4289   -5.7269    0.0000 C   0  0  0  0  0  0  0  0  0  0  0  0
    8.4289   -4.9019    0.0000 C   0  0  0  0  0  0  0  0  0  0  0  0
    9.1433   -6.1394    0.0000 C   0  0  0  0  0  0  0  0  0  0  0  0
    9.8578   -5.7269    0.0000 C   0  0  0  0  0  0  0  0  0  0  0  0
    9.8578   -4.9019    0.0000 C   0  0  0  0  0  0  0  0  0  0  0  0
    9.1433   -4.4894    0.0000 C   0  0  0  0  0  0  0  0  0  0  0  0
   10.6424   -5.9818    0.0000 O   0  0  0  0  0  0  0  0  0  0  0  0
   11.1273   -5.3144    0.0000 C   0  0  0  0  0  0  0  0  0  0  0  0
   10.6424   -4.6469    0.0000 O   0  0  0  0  0  0  0  0  0  0  0  0
    4.8565   -3.6644    0.0000 C   0  0  0  0  0  0  0  0  0  0  0  0
    3.4276   -4.4894    0.0000 O   0  0  0  0  0  0  0  0  0  0  0  0
    3.4276   -6.1394    0.0000 C   0  0  0  0  0  0  0  0  0  0  0  0
    4.8565   -6.9644    0.0000 O   0  0  0  0  0  0  0  0  0  0  0  0
    6.2854   -6.9644    0.0000 O   0  0  0  0  0  0  0  0  0  0  0  0
    2.7131   -4.9019    0.0000 C   0  0  0  0  0  0  0  0  0  0  0  0
  1  2  2  0  0  0  0
  2  3  1  0  0  0  0
  3  4  2  0  0  0  0
  4  5  1  0  0  0  0
  5  6  2  0  0  0  0
  6  1  1  0  0  0  0
  4  7  1  0  0  0  0
  7  8  1  0  0  0  0
  8  9  1  0  0  0  0
  9 10  1  0  0  0  0
 10  5  1  0  0  0  0
  8 11  1  0  0  0  0
 11 12  1  0  0  0  0
 12 13  1  0  0  0  0
 12 14  2  0  0  0  0
 14 15  1  0  0  0  0
 15 16  2  0  0  0  0
 16 17  1  0  0  0  0
 17 13  2  0  0  0  0
 15 18  1  0  0  0  0
 18 19  1  0  0  0  0
 19 20  1  0  0  0  0
 20 16  1  0  0  0  0
  6 21  1  0  0  0  0
  1 22  1  0  0  0  0
  2 23  1  0  0  0  0
  3 24  1  0  0  0  0
  7 25  2  0  0  0  0
 22 26  1  0  0  0  0
M  END
>  <cdx:fragmentId>
5

$$$$
