61079.cdx
  Mrv1902 05222410202D          

 19 20  0  0  0  0            999 V2000
    5.0033   -2.8319    0.0000 C   0  0  0  0  0  0  0  0  0  0  0  0
    4.1876   -2.9548    0.0000 C   0  0  0  0  0  0  0  0  0  0  0  0
    5.3047   -2.0639    0.0000 O   0  0  0  0  0  0  0  0  0  0  0  0
    5.5177   -3.4769    0.0000 O   0  0  0  0  0  0  0  0  0  0  0  0
    6.2105   -2.5381    0.0000 C   0  0  0  0  0  0  0  0  0  0  0  0
    6.3335   -3.3539    0.0000 C   0  0  0  0  0  0  0  0  0  0  0  0
    6.9785   -2.8395    0.0000 C   0  0  0  0  0  0  0  0  0  0  0  0
    9.0818   -5.4097    0.0000 C   0  0  0  0  0  0  0  0  0  0  0  0
    9.5668   -4.7422    0.0000 C   0  0  0  0  0  0  0  0  0  0  0  0
    9.0818   -4.0748    0.0000 C   0  0  0  0  0  0  0  0  0  0  0  0
    8.2972   -4.3297    0.0000 C   0  0  0  0  0  0  0  0  0  0  0  0
    7.6522   -3.8153    0.0000 C   0  0  0  0  0  0  0  0  0  0  0  0
    6.8479   -3.9989    0.0000 C   0  0  0  0  0  0  0  0  0  0  0  0
    6.4899   -4.7422    0.0000 C   0  0  0  0  0  0  0  0  0  0  0  0
    6.8479   -5.4855    0.0000 C   0  0  0  0  0  0  0  0  0  0  0  0
    7.6522   -5.6691    0.0000 C   0  0  0  0  0  0  0  0  0  0  0  0
    8.2972   -5.1547    0.0000 C   0  0  0  0  0  0  0  0  0  0  0  0
    7.8358   -6.4734    0.0000 C   0  0  0  0  0  0  0  0  0  0  0  0
    9.3368   -3.2902    0.0000 C   0  0  0  0  0  0  0  0  0  0  0  0
  1  2  1  0  0  0  0
  1  3  2  0  0  0  0
  1  4  1  0  0  0  0
  5  6  1  0  0  0  0
  6  7  1  0  0  0  0
  8  9  1  0  0  0  0
  9 10  1  0  0  0  0
 10 11  1  0  0  0  0
 11 12  1  0  0  0  0
 12 13  1  0  0  0  0
 13 14  1  0  0  0  0
 14 15  1  0  0  0  0
 15 16  1  0  0  0  0
 16 17  1  0  0  0  0
  8 17  1  0  0  0  0
 11 17  2  0  0  0  0
 16 18  1  0  0  0  0
 10 19  1  0  0  0  0
  6 13  1  0  0  0  0
  4  6  1  0  0  0  0
M  END
>  <cdx:fragmentId>
88

$$$$
