61098.cdx
  Mrv1902 05222410242D          

 15 14  0  0  0  0            999 V2000
    3.5516   -4.1310    0.0000 C   0  0  0  0  0  0  0  0  0  0  0  0
    2.8371   -4.5435    0.0000 C   0  0  0  0  0  0  0  0  0  0  0  0
    2.1226   -4.1310    0.0000 C   0  0  0  0  0  0  0  0  0  0  0  0
    3.5516   -3.3060    0.0000 O   0  0  0  0  0  0  0  0  0  0  0  0
    4.2660   -4.5435    0.0000 O   0  0  0  0  0  0  0  0  0  0  0  0
    4.9805   -4.1310    0.0000 C   0  0  0  0  0  0  0  0  0  0  0  0
    5.6950   -4.5435    0.0000 C   0  0  0  0  0  0  0  0  0  0  0  0
    6.4095   -4.1310    0.0000 C   0  0  0  0  0  0  0  0  0  0  0  0
    7.1239   -4.5435    0.0000 C   0  0  0  0  0  0  0  0  0  0  0  0
    7.8384   -4.1310    0.0000 C   0  0  0  0  0  0  0  0  0  0  0  0
    8.5529   -4.5435    0.0000 C   0  0  0  0  0  0  0  0  0  0  0  0
    7.8384   -3.3060    0.0000 C   0  0  0  0  0  0  0  0  0  0  0  0
    4.9805   -3.3060    0.0000 C   0  0  0  0  0  0  0  0  0  0  0  0
    4.2660   -2.8935    0.0000 C   0  0  0  0  0  0  0  0  0  0  0  0
    4.9805   -4.9560    0.0000 C   0  0  0  0  0  0  0  0  0  0  0  0
  1  2  1  0  0  0  0
  2  3  1  0  0  0  0
  1  4  2  0  0  0  0
  1  5  1  0  0  0  0
  6  7  1  0  0  0  0
  7  8  1  0  0  0  0
  8  9  1  0  0  0  0
  9 10  2  0  0  0  0
 10 11  1  0  0  0  0
 10 12  1  0  0  0  0
  6 13  1  0  0  0  0
 13 14  2  0  0  0  0
  6 15  1  0  0  0  0
  5  6  1  0  0  0  0
M  END
>  <cdx:groupId>
46

>  <cdx:fragmentId>
15

$$$$
