61096.cdx
  Mrv1902 05222410232D          

 13 12  0  0  0  0            999 V2000
    3.4146   -3.1839    0.0000 C   0  0  0  0  0  0  0  0  0  0  0  0
    2.7001   -3.5964    0.0000 C   0  0  0  0  0  0  0  0  0  0  0  0
    1.9857   -3.1839    0.0000 C   0  0  0  0  0  0  0  0  0  0  0  0
    3.4146   -2.3589    0.0000 O   0  0  0  0  0  0  0  0  0  0  0  0
    4.1291   -3.5964    0.0000 O   0  0  0  0  0  0  0  0  0  0  0  0
    4.8435   -3.1839    0.0000 C   0  0  0  0  0  0  0  0  0  0  0  0
    5.5580   -3.5964    0.0000 C   0  0  0  0  0  0  0  0  0  0  0  0
    6.2725   -3.1839    0.0000 C   0  0  0  0  0  0  0  0  0  0  0  0
    6.9870   -3.5964    0.0000 C   0  0  0  0  0  0  0  0  0  0  0  0
    7.7014   -3.1839    0.0000 C   0  0  0  0  0  0  0  0  0  0  0  0
    8.4159   -3.5964    0.0000 C   0  0  0  0  0  0  0  0  0  0  0  0
    9.1304   -3.1839    0.0000 C   0  0  0  0  0  0  0  0  0  0  0  0
    9.8448   -3.5964    0.0000 C   0  0  0  0  0  0  0  0  0  0  0  0
  1  2  1  0  0  0  0
  2  3  1  0  0  0  0
  1  4  2  0  0  0  0
  1  5  1  0  0  0  0
  6  7  1  0  0  0  0
  7  8  1  0  0  0  0
  8  9  1  0  0  0  0
  9 10  1  0  0  0  0
 10 11  1  0  0  0  0
 11 12  1  0  0  0  0
 12 13  1  0  0  0  0
  5  6  1  0  0  0  0
M  END
>  <cdx:groupId>
40

>  <cdx:fragmentId>
15

$$$$
