611207.cdx
  Mrv1902 05222410222D          

 34 37  0  0  0  0            999 V2000
    3.4236   -7.6481    0.0000 C   0  0  0  0  0  0  0  0  0  0  0  0
    3.4236   -8.4731    0.0000 C   0  0  0  0  0  0  0  0  0  0  0  0
    4.1381   -8.8856    0.0000 C   0  0  0  0  0  0  0  0  0  0  0  0
    4.8526   -8.4731    0.0000 C   0  0  0  0  0  0  0  0  0  0  0  0
    4.8526   -7.6481    0.0000 C   0  0  2  0  0  0  0  0  0  0  0  0
    4.1381   -7.2356    0.0000 C   0  0  0  0  0  0  0  0  0  0  0  0
    5.5670   -8.8856    0.0000 C   0  0  0  0  0  0  0  0  0  0  0  0
    6.2815   -8.4731    0.0000 C   0  0  0  0  0  0  0  0  0  0  0  0
    6.2815   -7.6481    0.0000 C   0  0  2  0  0  0  0  0  0  0  0  0
    5.5670   -7.2356    0.0000 C   0  0  2  0  0  0  0  0  0  0  0  0
    6.9960   -7.2356    0.0000 C   0  0  1  0  0  0  0  0  0  0  0  0
    6.9960   -6.4106    0.0000 C   0  0  2  0  0  0  0  0  0  0  0  0
    6.2815   -5.9981    0.0000 C   0  0  0  0  0  0  0  0  0  0  0  0
    5.5670   -6.4106    0.0000 C   0  0  0  0  0  0  0  0  0  0  0  0
    7.7806   -7.4906    0.0000 C   0  0  0  0  0  0  0  0  0  0  0  0
    8.2655   -6.8231    0.0000 C   0  0  0  0  0  0  0  0  0  0  0  0
    7.7806   -6.1557    0.0000 C   0  0  2  0  0  0  0  0  0  0  0  0
    7.9941   -5.3588    0.0000 C   0  0  1  0  0  0  0  0  0  0  0  0
    8.7910   -5.1453    0.0000 C   0  0  0  0  0  0  0  0  0  0  0  0
    2.7092   -8.8856    0.0000 O   0  0  0  0  0  0  0  0  0  0  0  0
    4.8526   -6.8231    0.0000 C   0  0  0  0  0  0  0  0  0  0  0  0
    6.9960   -5.5856    0.0000 C   0  0  0  0  0  0  0  0  0  0  0  0
    7.4108   -4.7755    0.0000 C   0  0  0  0  0  0  0  0  0  0  0  0
    9.0046   -4.3484    0.0000 C   0  0  0  0  0  0  0  0  0  0  0  0
    9.7900   -4.1250    0.0000 C   0  0  2  0  0  0  0  0  0  0  0  0
   10.0035   -3.3281    0.0000 C   0  0  0  0  0  0  0  0  0  0  0  0
   10.8004   -3.1146    0.0000 C   0  0  0  0  0  0  0  0  0  0  0  0
    9.4202   -2.7447    0.0000 C   0  0  0  0  0  0  0  0  0  0  0  0
   10.3734   -4.7084    0.0000 C   0  0  0  0  0  0  0  0  0  0  0  0
   11.1703   -4.4948    0.0000 C   0  0  0  0  0  0  0  0  0  0  0  0
    5.5670   -8.0606    0.0000 H   0  0  0  0  0  0  0  0  0  0  0  0
    6.2815   -6.8231    0.0000 H   0  0  0  0  0  0  0  0  0  0  0  0
    6.9960   -8.0606    0.0000 H   0  0  0  0  0  0  0  0  0  0  0  0
    8.5775   -5.9422    0.0000 H   0  0  0  0  0  0  0  0  0  0  0  0
  1  2  1  0  0  0  0
  2  3  1  0  0  0  0
  3  4  2  0  0  0  0
  4  5  1  0  0  0  0
  5  6  1  0  0  0  0
  6  1  1  0  0  0  0
  4  7  1  0  0  0  0
  7  8  1  0  0  0  0
  8  9  1  0  0  0  0
  9 10  1  0  0  0  0
 10  5  1  0  0  0  0
  9 11  1  0  0  0  0
 11 12  1  0  0  0  0
 12 13  1  0  0  0  0
 13 14  1  0  0  0  0
 14 10  1  0  0  0  0
 11 15  1  0  0  0  0
 15 16  1  0  0  0  0
 16 17  1  0  0  0  0
 17 12  1  0  0  0  0
 17 18  1  0  0  0  0
 18 19  1  0  0  0  0
  2 20  2  0  0  0  0
  5 21  1  1  0  0  0
 12 22  1  1  0  0  0
 18 23  1  6  0  0  0
 19 24  2  0  0  0  0
 25 24  1  0  0  0  0
 25 26  1  0  0  0  0
 26 27  1  0  0  0  0
 26 28  1  0  0  0  0
 25 29  1  6  0  0  0
 29 30  1  0  0  0  0
 10 31  1  6  0  0  0
  9 32  1  1  0  0  0
 11 33  1  6  0  0  0
 17 34  1  6  0  0  0
M  END
>  <cdx:fragmentId>
5

$$$$
