61131.cdx
  Mrv1902 05222410202D          

 14 14  0  0  0  0            999 V2000
    6.1581   -8.8539    0.0000 C   0  0  0  0  0  0  0  0  0  0  0  0
    6.1581   -9.6789    0.0000 C   0  0  0  0  0  0  0  0  0  0  0  0
    6.8725  -10.0914    0.0000 C   0  0  0  0  0  0  0  0  0  0  0  0
    7.5870   -9.6789    0.0000 C   0  0  0  0  0  0  0  0  0  0  0  0
    7.5870   -8.8539    0.0000 C   0  0  0  0  0  0  0  0  0  0  0  0
    6.8725   -8.4414    0.0000 C   0  0  0  0  0  0  0  0  0  0  0  0
    8.3015   -8.4414    0.0000 C   0  0  0  0  0  0  0  0  0  0  0  0
    5.3612   -9.0674    0.0000 C   0  0  0  0  0  0  0  0  0  0  0  0
    5.7456   -8.1394    0.0000 C   0  0  0  0  0  0  0  0  0  0  0  0
    6.8725   -7.6164    0.0000 C   0  0  0  0  0  0  0  0  0  0  0  0
    7.5870   -7.2039    0.0000 C   0  0  0  0  0  0  0  0  0  0  0  0
    7.5870   -6.3789    0.0000 C   0  0  0  0  0  0  0  0  0  0  0  0
    6.8725   -5.9664    0.0000 O   0  0  0  0  0  0  0  0  0  0  0  0
    8.3015   -5.9664    0.0000 C   0  0  0  0  0  0  0  0  0  0  0  0
  1  2  1  0  0  0  0
  2  3  1  0  0  0  0
  3  4  1  0  0  0  0
  4  5  1  0  0  0  0
  5  6  2  0  0  0  0
  6  1  1  0  0  0  0
  5  7  1  0  0  0  0
  1  8  1  0  0  0  0
  1  9  1  0  0  0  0
  6 10  1  0  0  0  0
 10 11  2  0  0  0  0
 11 12  1  0  0  0  0
 12 13  2  0  0  0  0
 12 14  1  0  0  0  0
M  END
>  <cdx:fragmentId>
5

$$$$
