611672.cdx
  Mrv1902 05222410192D          

 17 19  0  0  0  0            999 V2000
   13.2157  -16.0666    0.0000 C   0  0  0  0  0  0  0  0  0  0  0  0
   13.2157  -16.8916    0.0000 C   0  0  0  0  0  0  0  0  0  0  0  0
   13.9301  -17.3041    0.0000 C   0  0  0  0  0  0  0  0  0  0  0  0
   14.6446  -16.8916    0.0000 C   0  0  0  0  0  0  0  0  0  0  0  0
   15.3591  -17.3041    0.0000 C   0  0  0  0  0  0  0  0  0  0  0  0
   16.0735  -16.8916    0.0000 C   0  0  0  0  0  0  0  0  0  0  0  0
   16.0735  -16.0666    0.0000 C   0  0  0  0  0  0  0  0  0  0  0  0
   15.3591  -15.6541    0.0000 C   0  0  0  0  0  0  0  0  0  0  0  0
   14.6446  -16.0666    0.0000 C   0  0  0  0  0  0  0  0  0  0  0  0
   13.9301  -15.6541    0.0000 O   0  0  0  0  0  0  0  0  0  0  0  0
   16.8582  -15.8117    0.0000 O   0  0  0  0  0  0  0  0  0  0  0  0
   16.8582  -17.1465    0.0000 C   0  0  0  0  0  0  0  0  0  0  0  0
   17.3431  -16.4791    0.0000 C   0  0  0  0  0  0  0  0  0  0  0  0
   12.5012  -15.6541    0.0000 O   0  0  0  0  0  0  0  0  0  0  0  0
   18.1681  -16.4791    0.0000 C   0  0  0  0  0  0  0  0  0  0  0  0
   18.5806  -17.1936    0.0000 C   0  0  0  0  0  0  0  0  0  0  0  0
   18.5806  -15.7646    0.0000 C   0  0  0  0  0  0  0  0  0  0  0  0
  1  2  1  0  0  0  0
  2  3  2  0  0  0  0
  3  4  1  0  0  0  0
  4  5  2  0  0  0  0
  5  6  1  0  0  0  0
  6  7  2  0  0  0  0
  7  8  1  0  0  0  0
  8  9  2  0  0  0  0
  4  9  1  0  0  0  0
  9 10  1  0  0  0  0
  1 10  1  0  0  0  0
 12 13  1  0  0  0  0
 11 13  1  0  0  0  0
 12  6  1  0  0  0  0
 11  7  1  0  0  0  0
  1 14  2  0  0  0  0
 15 16  2  0  0  0  0
 15 17  1  0  0  0  0
 13 15  1  0  0  0  0
M  END
>  <cdx:groupId>
8601

>  <cdx:fragmentId>
8551

$$$$
