611945.cdx
  Mrv1902 05222410232D          

 16 17  0  0  0  0            999 V2000
    8.3223   -7.4202    0.0000 Si  0  0  0  0  0  0  0  0  0  0  0  0
    8.7348   -6.7057    0.0000 C   0  0  0  0  0  0  0  0  0  0  0  0
    7.9098   -8.1347    0.0000 C   0  0  0  0  0  0  0  0  0  0  0  0
    9.0367   -7.8327    0.0000 C   0  0  0  0  0  0  0  0  0  0  0  0
    7.6078   -7.0077    0.0000 C   0  0  0  0  0  0  0  0  0  0  0  0
    6.8933   -7.4202    0.0000 C   0  0  0  0  0  0  0  0  0  0  0  0
    6.8933   -8.2452    0.0000 C   0  0  0  0  0  0  0  0  0  0  0  0
    6.1788   -8.6577    0.0000 C   0  0  0  0  0  0  0  0  0  0  0  0
    5.4644   -8.2452    0.0000 C   0  0  0  0  0  0  0  0  0  0  0  0
    5.4644   -7.4202    0.0000 C   0  0  0  0  0  0  0  0  0  0  0  0
    6.1788   -7.0077    0.0000 C   0  0  0  0  0  0  0  0  0  0  0  0
    7.6078   -6.1827    0.0000 C   0  0  0  0  0  0  0  0  0  0  0  0
    6.9403   -5.6978    0.0000 C   0  0  0  0  0  0  0  0  0  0  0  0
    7.1953   -4.9132    0.0000 C   0  0  0  0  0  0  0  0  0  0  0  0
    8.0203   -4.9132    0.0000 C   0  0  0  0  0  0  0  0  0  0  0  0
    8.2752   -5.6978    0.0000 C   0  0  0  0  0  0  0  0  0  0  0  0
  1  2  1  0  0  0  0
  1  3  1  0  0  0  0
  1  4  1  0  0  0  0
  6  7  1  0  0  0  0
  7  8  2  0  0  0  0
  8  9  1  0  0  0  0
  9 10  2  0  0  0  0
 10 11  1  0  0  0  0
  6 11  2  0  0  0  0
  5  6  1  0  0  0  0
 12 13  1  0  0  0  0
 13 14  1  0  0  0  0
 14 15  1  0  0  0  0
 15 16  1  0  0  0  0
 12 16  1  0  0  0  0
  5 12  2  0  0  0  0
  1  5  1  0  0  0  0
M  END
>  <cdx:groupId>
8655

>  <cdx:fragmentId>
8619

$$$$
