612.cdx
  Mrv1902 05222410232D          

  6  5  0  0  0  0            999 V2000
    4.0811   -2.9777    0.0000 C   0  0  0  0  0  0  0  0  0  0  0  0
    3.3667   -3.3902    0.0000 C   0  0  0  0  0  0  0  0  0  0  0  0
    2.6522   -2.9777    0.0000 O   0  0  0  0  0  0  0  0  0  0  0  0
    4.0811   -2.1527    0.0000 O   0  0  0  0  0  0  0  0  0  0  0  0
    4.7956   -3.3902    0.0000 O   0  0  0  0  0  0  0  0  0  0  0  0
    3.3667   -4.2152    0.0000 C   0  0  0  0  0  0  0  0  0  0  0  0
  1  2  1  0  0  0  0
  2  3  1  0  0  0  0
  1  4  2  0  0  0  0
  1  5  1  0  0  0  0
  2  6  1  0  0  0  0
M  END
>  <cdx:groupId>
19

>  <cdx:fragmentId>
5

$$$$
