133612180.cdx
  Mrv1902 05222410202D          

 17 18  0  0  0  0            999 V2000
   12.7314   -9.6937    0.0000 C   0  0  0  0  0  0  0  0  0  0  0  0
   13.4458   -9.2813    0.0000 C   0  0  0  0  0  0  0  0  0  0  0  0
   13.4458   -8.4563    0.0000 C   0  0  0  0  0  0  0  0  0  0  0  0
   12.7314  -10.5188    0.0000 O   0  0  0  0  0  0  0  0  0  0  0  0
   12.0169   -9.2813    0.0000 O   0  0  0  0  0  0  0  0  0  0  0  0
   14.8748   -9.2813    0.0000 C   0  0  0  0  0  0  0  0  0  0  0  0
   14.1603   -9.6937    0.0000 C   0  0  2  0  0  0  0  0  0  0  0  0
   14.1603  -10.5188    0.0000 C   0  0  0  0  0  0  0  0  0  0  0  0
   14.8748  -10.9313    0.0000 C   0  0  0  0  0  0  0  0  0  0  0  0
   15.5893  -10.5188    0.0000 C   0  0  2  0  0  0  0  0  0  0  0  0
   16.3037  -10.9313    0.0000 C   0  0  0  0  0  0  0  0  0  0  0  0
   17.0182  -10.5188    0.0000 C   0  0  0  0  0  0  0  0  0  0  0  0
   17.0182   -9.6937    0.0000 C   0  0  0  0  0  0  0  0  0  0  0  0
   16.3037   -9.2813    0.0000 C   0  0  2  0  0  0  0  0  0  0  0  0
   15.5893   -9.6937    0.0000 C   0  0  0  0  0  0  0  0  0  0  0  0
   16.3037   -8.4563    0.0000 C   0  0  0  0  0  0  0  0  0  0  0  0
   15.5893  -11.3438    0.0000 C   0  0  0  0  0  0  0  0  0  0  0  0
  1  2  1  0  0  0  0
  2  3  2  0  0  0  0
  1  4  2  0  0  0  0
  1  5  1  0  0  0  0
  6  7  1  0  0  0  0
  7  8  1  0  0  0  0
  8  9  1  0  0  0  0
  9 10  1  0  0  0  0
 10 11  1  0  0  0  0
 11 12  1  0  0  0  0
 12 13  1  0  0  0  0
 13 14  1  0  0  0  0
 14 15  1  0  0  0  0
  6 15  2  0  0  0  0
 10 15  1  0  0  0  0
 14 16  1  6  0  0  0
 10 17  1  6  0  0  0
  7  2  1  6  0  0  0
M  END
>  <cdx:groupId>
71484

>  <cdx:fragmentId>
71445

$$$$
