6122.cdx
  Mrv1902 05222410272D          

 17 18  0  0  0  0            999 V2000
    7.6345   -7.1981    0.0000 C   0  0  1  0  0  0  0  0  0  0  0  0
    7.6345   -8.0231    0.0000 C   0  0  2  0  0  0  0  0  0  0  0  0
    8.3490   -8.4356    0.0000 C   0  0  0  0  0  0  0  0  0  0  0  0
    9.0635   -8.0231    0.0000 C   0  0  1  0  0  0  0  0  0  0  0  0
    9.0635   -7.1981    0.0000 C   0  0  0  0  0  0  0  0  0  0  0  0
    8.3490   -6.7856    0.0000 C   0  0  0  0  0  0  0  0  0  0  0  0
    6.8499   -6.9432    0.0000 C   0  0  0  0  0  0  0  0  0  0  0  0
    6.3650   -7.6106    0.0000 C   0  0  0  0  0  0  0  0  0  0  0  0
    6.8499   -8.2781    0.0000 C   0  0  2  0  0  0  0  0  0  0  0  0
    6.6364   -9.0750    0.0000 C   0  0  0  0  0  0  0  0  0  0  0  0
    7.6345   -8.8481    0.0000 O   0  0  0  0  0  0  0  0  0  0  0  0
    7.6345   -6.3731    0.0000 C   0  0  0  0  0  0  0  0  0  0  0  0
    9.7779   -8.4356    0.0000 C   0  0  0  0  0  0  0  0  0  0  0  0
    5.8395   -9.2885    0.0000 O   0  0  0  0  0  0  0  0  0  0  0  0
    7.2197   -9.6583    0.0000 C   0  0  0  0  0  0  0  0  0  0  0  0
   10.4924   -8.0231    0.0000 C   0  0  0  0  0  0  0  0  0  0  0  0
    9.7779   -9.2606    0.0000 C   0  0  0  0  0  0  0  0  0  0  0  0
  1  2  1  0  0  0  0
  2  3  1  0  0  0  0
  3  4  1  0  0  0  0
  4  5  1  0  0  0  0
  5  6  1  0  0  0  0
  6  1  1  0  0  0  0
  1  7  1  0  0  0  0
  7  8  1  0  0  0  0
  8  9  1  0  0  0  0
  9  2  1  0  0  0  0
  9 10  1  1  0  0  0
  2 11  1  1  0  0  0
  1 12  1  1  0  0  0
  4 13  1  1  0  0  0
 10 14  2  0  0  0  0
 10 15  1  0  0  0  0
 13 16  1  0  0  0  0
 13 17  2  0  0  0  0
M  END
>  <cdx:fragmentId>
5

$$$$
