612527.cdx
  Mrv1902 05222410222D          

 17 18  0  0  0  0            999 V2000
   17.6313  -15.9619    0.0000 C   0  0  0  0  0  0  0  0  0  0  0  0
   18.0438  -15.2475    0.0000 C   0  0  0  0  0  0  0  0  0  0  0  0
   16.3214  -15.2945    0.0000 O   0  0  0  0  0  0  0  0  0  0  0  0
   16.8063  -15.9619    0.0000 C   0  0  0  0  0  0  0  0  0  0  0  0
   16.3214  -16.6294    0.0000 C   0  0  0  0  0  0  0  0  0  0  0  0
   15.5368  -16.3744    0.0000 C   0  0  0  0  0  0  0  0  0  0  0  0
   14.8223  -16.7869    0.0000 C   0  0  0  0  0  0  0  0  0  0  0  0
   14.1078  -16.3744    0.0000 C   0  0  0  0  0  0  0  0  0  0  0  0
   14.1078  -15.5494    0.0000 C   0  0  0  0  0  0  0  0  0  0  0  0
   14.8223  -15.1369    0.0000 C   0  0  0  0  0  0  0  0  0  0  0  0
   15.5368  -15.5494    0.0000 C   0  0  0  0  0  0  0  0  0  0  0  0
   13.3933  -15.1369    0.0000 O   0  0  0  0  0  0  0  0  0  0  0  0
   12.6789  -15.5494    0.0000 C   0  0  0  0  0  0  0  0  0  0  0  0
   13.3933  -16.7869    0.0000 C   0  0  0  0  0  0  0  0  0  0  0  0
   13.3933  -17.6119    0.0000 O   0  0  0  0  0  0  0  0  0  0  0  0
   12.6789  -16.3744    0.0000 C   0  0  0  0  0  0  0  0  0  0  0  0
   18.0438  -16.6764    0.0000 O   0  0  0  0  0  0  0  0  0  0  0  0
  1  2  1  0  0  0  0
  3  4  1  0  0  0  0
  4  5  2  0  0  0  0
  5  6  1  0  0  0  0
  6  7  1  0  0  0  0
  7  8  2  0  0  0  0
  8  9  1  0  0  0  0
  9 10  2  0  0  0  0
 10 11  1  0  0  0  0
  6 11  2  0  0  0  0
  3 11  1  0  0  0  0
 12 13  1  0  0  0  0
  9 12  1  0  0  0  0
 14 15  2  0  0  0  0
 14 16  1  0  0  0  0
  8 14  1  0  0  0  0
  1  4  1  0  0  0  0
  1 17  2  0  0  0  0
M  END
>  <cdx:groupId>
8715

>  <cdx:fragmentId>
8670

$$$$
