12612679.cdx
  Mrv1902 05222410222D          

 16 17  0  0  0  0            999 V2000
    6.9578  -14.2207    0.0000 C   0  0  0  0  0  0  0  0  0  0  0  0
    6.2433  -14.6332    0.0000 C   0  0  0  0  0  0  0  0  0  0  0  0
    6.2433  -15.4582    0.0000 C   0  0  0  0  0  0  0  0  0  0  0  0
    6.9578  -15.8707    0.0000 C   0  0  0  0  0  0  0  0  0  0  0  0
    7.6722  -15.4582    0.0000 C   0  0  1  0  0  0  0  0  0  0  0  0
    8.3867  -15.8707    0.0000 C   0  0  1  0  0  0  0  0  0  0  0  0
    9.1012  -15.4582    0.0000 C   0  0  0  0  0  0  0  0  0  0  0  0
    9.1012  -14.6332    0.0000 C   0  0  0  0  0  0  0  0  0  0  0  0
    8.3867  -14.2207    0.0000 C   0  0  1  0  0  0  0  0  0  0  0  0
    7.6722  -14.6332    0.0000 C   0  0  0  0  0  0  0  0  0  0  0  0
    5.5288  -14.2207    0.0000 O   0  0  0  0  0  0  0  0  0  0  0  0
    7.6722  -12.9832    0.0000 C   0  0  0  0  0  0  0  0  0  0  0  0
    8.3867  -13.3957    0.0000 C   0  0  0  0  0  0  0  0  0  0  0  0
    9.1012  -12.9832    0.0000 C   0  0  0  0  0  0  0  0  0  0  0  0
    8.3867  -16.6957    0.0000 C   0  0  0  0  0  0  0  0  0  0  0  0
    7.6722  -16.2832    0.0000 H   0  0  0  0  0  0  0  0  0  0  0  0
  1  2  1  0  0  0  0
  2  3  1  0  0  0  0
  3  4  1  0  0  0  0
  4  5  1  0  0  0  0
  5  6  1  0  0  0  0
  6  7  1  0  0  0  0
  7  8  1  0  0  0  0
  8  9  1  0  0  0  0
  9 10  1  0  0  0  0
  1 10  2  0  0  0  0
  5 10  1  0  0  0  0
  2 11  2  0  0  0  0
 12 13  1  0  0  0  0
 13 14  1  0  0  0  0
  9 13  1  1  0  0  0
  6 15  1  1  0  0  0
  5 16  1  1  0  0  0
M  END
>  <cdx:groupId>
93234

>  <cdx:fragmentId>
93188

$$$$
