61275.cdx
  Mrv1902 05222410252D          

 11 11  0  0  0  0            999 V2000
    7.3928   -5.4809    0.0000 C   0  0  0  0  0  0  0  0  0  0  0  0
    7.3893   -4.6559    0.0000 C   0  0  0  0  0  0  0  0  0  0  0  0
    8.1021   -4.2404    0.0000 C   0  0  0  0  0  0  0  0  0  0  0  0
    8.8183   -4.6499    0.0000 C   0  0  0  0  0  0  0  0  0  0  0  0
    8.8217   -5.4749    0.0000 C   0  0  0  0  0  0  0  0  0  0  0  0
    8.1090   -5.8904    0.0000 O   0  0  0  0  0  0  0  0  0  0  0  0
    6.6800   -5.8963    0.0000 C   0  0  0  0  0  0  0  0  0  0  0  0
    6.6835   -6.7213    0.0000 C   0  0  0  0  0  0  0  0  0  0  0  0
    7.3997   -7.1309    0.0000 C   0  0  0  0  0  0  0  0  0  0  0  0
    5.9707   -7.1368    0.0000 C   0  0  0  0  0  0  0  0  0  0  0  0
    8.0987   -3.4154    0.0000 C   0  0  0  0  0  0  0  0  0  0  0  0
  1  2  1  0  0  0  0
  2  3  1  0  0  0  0
  3  4  2  0  0  0  0
  4  5  1  0  0  0  0
  5  6  1  0  0  0  0
  1  6  1  0  0  0  0
  7  8  2  0  0  0  0
  8  9  1  0  0  0  0
  8 10  1  0  0  0  0
  1  7  1  0  0  0  0
  3 11  1  0  0  0  0
M  END
>  <cdx:fragmentId>
44

$$$$
