61290.cdx
  Mrv1902 05222410202D          

 13 12  0  0  0  0            999 V2000
    5.2222   -3.0464    0.0000 C   0  0  0  0  0  0  0  0  0  0  0  0
    5.9367   -2.6339    0.0000 C   0  0  0  0  0  0  0  0  0  0  0  0
    6.6511   -3.0464    0.0000 C   0  0  0  0  0  0  0  0  0  0  0  0
    7.3656   -2.6339    0.0000 C   0  0  0  0  0  0  0  0  0  0  0  0
    8.0801   -3.0464    0.0000 C   0  0  0  0  0  0  0  0  0  0  0  0
    8.7946   -2.6339    0.0000 C   0  0  0  0  0  0  0  0  0  0  0  0
    9.5090   -3.0464    0.0000 C   0  0  0  0  0  0  0  0  0  0  0  0
    9.5090   -3.8714    0.0000 C   0  0  0  0  0  0  0  0  0  0  0  0
    5.2222   -3.8714    0.0000 O   0  0  0  0  0  0  0  0  0  0  0  0
    4.5077   -2.6339    0.0000 O   0  0  0  0  0  0  0  0  0  0  0  0
   10.2235   -2.6339    0.0000 C   0  0  0  0  0  0  0  0  0  0  0  0
    6.6511   -3.8714    0.0000 C   0  0  0  0  0  0  0  0  0  0  0  0
    3.7933   -3.0464    0.0000 C   0  0  0  0  0  0  0  0  0  0  0  0
  1  2  1  0  0  0  0
  2  3  1  0  0  0  0
  3  4  1  0  0  0  0
  4  5  1  0  0  0  0
  5  6  1  0  0  0  0
  6  7  2  0  0  0  0
  7  8  1  0  0  0  0
  1  9  2  0  0  0  0
  1 10  1  0  0  0  0
  7 11  1  0  0  0  0
  3 12  1  0  0  0  0
 10 13  1  0  0  0  0
M  END
>  <cdx:fragmentId>
5

$$$$
