61303.cdx
  Mrv1902 05222410252D          

 16 15  0  0  0  0            999 V2000
   11.7457   -4.4864    0.0000 C   0  0  0  0  0  0  0  0  0  0  0  0
   11.0312   -4.0739    0.0000 C   0  0  0  0  0  0  0  0  0  0  0  0
   10.3167   -4.4864    0.0000 C   0  0  0  0  0  0  0  0  0  0  0  0
    9.6023   -4.0739    0.0000 C   0  0  0  0  0  0  0  0  0  0  0  0
    8.8878   -4.4864    0.0000 C   0  0  0  0  0  0  0  0  0  0  0  0
    8.1733   -4.0739    0.0000 C   0  0  0  0  0  0  0  0  0  0  0  0
    7.4588   -4.4864    0.0000 C   0  0  0  0  0  0  0  0  0  0  0  0
    6.7444   -4.0739    0.0000 C   0  0  0  0  0  0  0  0  0  0  0  0
    6.0299   -4.4864    0.0000 C   0  0  0  0  0  0  0  0  0  0  0  0
    5.3154   -4.0739    0.0000 C   0  0  0  0  0  0  0  0  0  0  0  0
    4.6010   -4.4864    0.0000 C   0  0  0  0  0  0  0  0  0  0  0  0
    3.8865   -4.0739    0.0000 C   0  0  0  0  0  0  0  0  0  0  0  0
    3.1720   -4.4864    0.0000 C   0  0  0  0  0  0  0  0  0  0  0  0
    2.4575   -4.0739    0.0000 C   0  0  0  0  0  0  0  0  0  0  0  0
    1.7431   -4.4864    0.0000 C   0  0  0  0  0  0  0  0  0  0  0  0
   11.0312   -3.2489    0.0000 O   0  0  0  0  0  0  0  0  0  0  0  0
  1  2  1  0  0  0  0
  2  3  1  0  0  0  0
  3  4  1  0  0  0  0
  4  5  1  0  0  0  0
  5  6  1  0  0  0  0
  6  7  1  0  0  0  0
  7  8  1  0  0  0  0
  8  9  1  0  0  0  0
  9 10  1  0  0  0  0
 10 11  1  0  0  0  0
 11 12  1  0  0  0  0
 12 13  1  0  0  0  0
 13 14  1  0  0  0  0
 14 15  1  0  0  0  0
  2 16  2  0  0  0  0
M  END
>  <cdx:groupId>
49

>  <cdx:fragmentId>
5

$$$$
