61304.cdx
  Mrv1902 05222410242D          

 13 12  0  0  0  0            999 V2000
    4.2256   -2.9502    0.0000 C   0  0  0  0  0  0  0  0  0  0  0  0
    3.5111   -3.3627    0.0000 C   0  0  0  0  0  0  0  0  0  0  0  0
    3.5111   -4.1877    0.0000 C   0  0  0  0  0  0  0  0  0  0  0  0
    4.2256   -2.1252    0.0000 O   0  0  0  0  0  0  0  0  0  0  0  0
    4.9401   -3.3627    0.0000 O   0  0  0  0  0  0  0  0  0  0  0  0
    2.7966   -2.9502    0.0000 C   0  0  0  0  0  0  0  0  0  0  0  0
    5.6545   -2.9502    0.0000 C   0  0  0  0  0  0  0  0  0  0  0  0
    6.3690   -3.3627    0.0000 C   0  0  0  0  0  0  0  0  0  0  0  0
    7.0835   -2.9502    0.0000 C   0  0  0  0  0  0  0  0  0  0  0  0
    7.7979   -3.3627    0.0000 C   0  0  0  0  0  0  0  0  0  0  0  0
    8.5124   -2.9502    0.0000 C   0  0  0  0  0  0  0  0  0  0  0  0
    9.2269   -3.3627    0.0000 C   0  0  0  0  0  0  0  0  0  0  0  0
    9.9414   -2.9502    0.0000 C   0  0  0  0  0  0  0  0  0  0  0  0
  1  2  1  0  0  0  0
  2  3  1  0  0  0  0
  1  4  2  0  0  0  0
  1  5  1  0  0  0  0
  2  6  1  0  0  0  0
  7  8  1  0  0  0  0
  8  9  1  0  0  0  0
  9 10  1  0  0  0  0
 10 11  1  0  0  0  0
 11 12  1  0  0  0  0
 12 13  1  0  0  0  0
  5  7  1  0  0  0  0
M  END
>  <cdx:groupId>
40

>  <cdx:fragmentId>
17

$$$$
