613047.cdx
  Mrv1902 05222410262D          

 37 42  0  0  0  0            999 V2000
    8.2140   -5.9018    0.0000 C   0  0  0  0  0  0  0  0  0  0  0  0
    7.3891   -5.9031    0.0000 C   0  0  0  0  0  0  0  0  0  0  0  0
    6.8067   -6.4874    0.0000 C   0  0  0  0  0  0  0  0  0  0  0  0
    6.8080   -7.3124    0.0000 C   0  0  0  0  0  0  0  0  0  0  0  0
    7.3923   -7.8948    0.0000 C   0  0  0  0  0  0  0  0  0  0  0  0
    8.2173   -7.8935    0.0000 C   0  0  2  0  0  0  0  0  0  0  0  0
    8.7997   -7.3092    0.0000 C   0  0  0  0  0  0  0  0  0  0  0  0
    8.7984   -6.4842    0.0000 C   0  0  2  0  0  0  0  0  0  0  0  0
    9.5601   -6.1672    0.0000 C   0  0  0  0  0  0  0  0  0  0  0  0
    9.5625   -7.6236    0.0000 C   0  0  0  0  0  0  0  0  0  0  0  0
    7.1742   -5.1066    0.0000 C   0  0  0  0  0  0  0  0  0  0  0  0
    6.3770   -4.8944    0.0000 C   0  0  0  0  0  0  0  0  0  0  0  0
    5.7946   -5.4787    0.0000 C   0  0  0  0  0  0  0  0  0  0  0  0
    6.0094   -6.2752    0.0000 C   0  0  0  0  0  0  0  0  0  0  0  0
    6.0115   -7.5273    0.0000 C   0  0  0  0  0  0  0  0  0  0  0  0
    5.7993   -8.3245    0.0000 C   0  0  0  0  0  0  0  0  0  0  0  0
    6.3836   -8.9069    0.0000 C   0  0  0  0  0  0  0  0  0  0  0  0
    7.1801   -8.6921    0.0000 C   0  0  0  0  0  0  0  0  0  0  0  0
    5.2982   -6.6933    0.0000 O   0  0  0  0  0  0  0  0  0  0  0  0
    4.5805   -6.2864    0.0000 C   0  0  0  0  0  0  0  0  0  0  0  0
    5.2938   -7.1204    0.0000 O   0  0  0  0  0  0  0  0  0  0  0  0
    4.5826   -7.5385    0.0000 C   0  0  0  0  0  0  0  0  0  0  0  0
    5.0648   -8.7003    0.0000 O   0  0  0  0  0  0  0  0  0  0  0  0
    5.1952   -9.5149    0.0000 C   0  0  0  0  0  0  0  0  0  0  0  0
    6.0103   -9.6426    0.0000 O   0  0  0  0  0  0  0  0  0  0  0  0
    6.0012   -4.1599    0.0000 O   0  0  0  0  0  0  0  0  0  0  0  0
    5.1866   -4.2903    0.0000 C   0  0  0  0  0  0  0  0  0  0  0  0
    5.0589   -5.1054    0.0000 O   0  0  0  0  0  0  0  0  0  0  0  0
    8.5343   -8.6552    0.0000 O   0  0  0  0  0  0  0  0  0  0  0  0
    9.3524   -8.7615    0.0000 C   0  0  0  0  0  0  0  0  0  0  0  0
    9.8536   -8.1061    0.0000 O   0  0  0  0  0  0  0  0  0  0  0  0
    9.6694   -9.5232    0.0000 C   0  0  0  0  0  0  0  0  0  0  0  0
    9.1683  -10.1785    0.0000 C   0  0  0  0  0  0  0  0  0  0  0  0
    9.4852  -10.9402    0.0000 C   0  0  0  0  0  0  0  0  0  0  0  0
   10.3034  -11.0465    0.0000 C   0  0  0  0  0  0  0  0  0  0  0  0
   10.8045  -10.3912    0.0000 C   0  0  0  0  0  0  0  0  0  0  0  0
   10.4875   -9.6295    0.0000 C   0  0  0  0  0  0  0  0  0  0  0  0
  1  2  1  0  0  0  0
  2  3  2  0  0  0  0
  3  4  1  0  0  0  0
  4  5  2  0  0  0  0
  5  6  1  0  0  0  0
  6  7  1  0  0  0  0
  7  8  1  0  0  0  0
  8  1  1  0  0  0  0
  8  9  1  1  0  0  0
  7 10  2  0  0  0  0
  2 11  1  0  0  0  0
 11 12  2  0  0  0  0
 12 13  1  0  0  0  0
 13 14  2  0  0  0  0
 14  3  1  0  0  0  0
  4 15  1  0  0  0  0
 15 16  2  0  0  0  0
 16 17  1  0  0  0  0
 17 18  2  0  0  0  0
 18  5  1  0  0  0  0
 14 19  1  0  0  0  0
 19 20  1  0  0  0  0
 15 21  1  0  0  0  0
 21 22  1  0  0  0  0
 16 23  1  0  0  0  0
 23 24  1  0  0  0  0
 24 25  1  0  0  0  0
 25 17  1  0  0  0  0
 12 26  1  0  0  0  0
 26 27  1  0  0  0  0
 27 28  1  0  0  0  0
 28 13  1  0  0  0  0
  6 29  1  6  0  0  0
 29 30  1  0  0  0  0
 30 31  2  0  0  0  0
 30 32  1  0  0  0  0
 32 33  2  0  0  0  0
 33 34  1  0  0  0  0
 34 35  2  0  0  0  0
 35 36  1  0  0  0  0
 36 37  2  0  0  0  0
 37 32  1  0  0  0  0
M  END
>  <cdx:fragmentId>
760

$$$$
