613180.cdx
  Mrv1902 05222410252D          

 31 34  0  0  0  0            999 V2000
    8.2029   -4.5794    0.0000 C   0  0  0  0  0  0  0  0  0  0  0  0
    7.4213   -4.8436    0.0000 C   0  0  0  0  0  0  0  0  0  0  0  0
    9.5443   -7.2594    0.0000 H   0  0  0  0  0  0  0  0  0  0  0  0
    9.1890   -7.4962    0.0000 H   0  0  0  0  0  0  0  0  0  0  0  0
    6.7084   -6.9120    0.0000 H   0  0  0  0  0  0  0  0  0  0  0  0
    7.8028   -7.9641    0.0000 O   0  0  0  0  0  0  0  0  0  0  0  0
    6.8002   -9.3374    0.0000 O   0  0  0  0  0  0  0  0  0  0  0  0
    9.7680   -9.3343    0.0000 O   0  0  0  0  0  0  0  0  0  0  0  0
    8.9513   -9.4513    0.0000 C   0  0  0  0  0  0  0  0  0  0  0  0
    4.8573   -8.1723    0.0000 C   0  0  0  0  0  0  0  0  0  0  0  0
   10.0142   -5.4754    0.0000 C   0  0  0  0  0  0  0  0  0  0  0  0
   10.2784   -6.2570    0.0000 C   0  0  0  0  0  0  0  0  0  0  0  0
    6.4979   -6.2288    0.0000 C   0  0  0  0  0  0  0  0  0  0  0  0
    5.9509   -9.5955    0.0000 O   0  0  0  0  0  0  0  0  0  0  0  0
    7.3068   -6.3907    0.0000 C   0  0  2  0  0  0  0  0  0  0  0  0
    7.8516   -5.7711    0.0000 C   0  0  0  0  0  0  0  0  0  0  0  0
    8.6605   -5.9331    0.0000 C   0  0  1  0  0  0  0  0  0  0  0  0
    9.4695   -6.0950    0.0000 C   0  0  0  0  0  0  0  0  0  0  0  0
    8.9247   -6.7146    0.0000 C   0  0  1  0  0  0  0  0  0  0  0  0
    8.3800   -7.3342    0.0000 C   0  0  2  0  0  0  0  0  0  0  0  0
    8.7578   -8.0677    0.0000 C   0  0  0  0  0  0  0  0  0  0  0  0
    8.4199   -8.8203    0.0000 C   0  0  0  0  0  0  0  0  0  0  0  0
    7.6208   -9.0254    0.0000 C   0  0  0  0  0  0  0  0  0  0  0  0
    6.9622   -8.5285    0.0000 C   0  0  1  0  0  0  0  0  0  0  0  0
    6.1847   -8.8044    0.0000 C   0  0  0  0  0  0  0  0  0  0  0  0
    5.6820   -8.1502    0.0000 C   0  0  0  0  0  0  0  0  0  0  0  0
    6.1489   -7.4700    0.0000 C   0  0  0  0  0  0  0  0  0  0  0  0
    6.9401   -7.7038    0.0000 C   0  0  1  0  0  0  0  0  0  0  0  0
    7.5711   -7.1723    0.0000 C   0  0  2  0  0  0  0  0  0  0  0  0
    8.8225   -5.1241    0.0000 O   0  0  0  0  0  0  0  0  0  0  0  0
    8.3648   -3.7705    0.0000 O   0  0  0  0  0  0  0  0  0  0  0  0
 19  3  1  6  0  0  0
 20  4  1  1  0  0  0
 28  5  1  6  0  0  0
 17 30  1  6  0  0  0
 29  6  1  6  0  0  0
 24  7  1  1  0  0  0
 22  9  1  0  0  0  0
  9  8  1  0  0  0  0
 26 10  1  0  0  0  0
 18 11  1  0  0  0  0
 18 12  1  0  0  0  0
 15 13  1  6  0  0  0
 25 14  2  0  0  0  0
 28 24  1  0  0  0  0
 19 17  1  0  0  0  0
 29 20  1  0  0  0  0
 29 15  1  0  0  0  0
 16 15  1  0  0  0  0
 17 16  1  0  0  0  0
 18 17  1  0  0  0  0
 19 18  1  0  0  0  0
 20 19  1  0  0  0  0
 21 20  1  0  0  0  0
 22 21  2  0  0  0  0
 23 22  1  0  0  0  0
 24 23  1  0  0  0  0
 25 24  1  0  0  0  0
 26 25  1  0  0  0  0
 27 26  2  0  0  0  0
 28 27  1  0  0  0  0
 29 28  1  0  0  0  0
  1 30  1  0  0  0  0
  1  2  1  0  0  0  0
  1 31  2  0  0  0  0
M  END
>  <cdx:groupId>
71754

>  <cdx:fragmentId>
71669

$$$$
