6132.cdx
  Mrv1902 05222410272D          

 32 35  0  0  0  0            999 V2000
    6.2365   -7.0429    0.0000 C   0  0  2  0  0  0  0  0  0  0  0  0
    5.5385   -6.6031    0.0000 C   0  0  2  0  0  0  0  0  0  0  0  0
    4.8086   -6.9876    0.0000 C   0  0  1  0  0  0  0  0  0  0  0  0
    4.7767   -7.8120    0.0000 C   0  0  2  0  0  0  0  0  0  0  0  0
    5.4747   -8.2518    0.0000 C   0  0  1  0  0  0  0  0  0  0  0  0
    6.2046   -7.8673    0.0000 O   0  0  0  0  0  0  0  0  0  0  0  0
    6.9664   -6.6584    0.0000 C   0  0  0  0  0  0  0  0  0  0  0  0
    4.1106   -6.5478    0.0000 O   0  0  0  0  0  0  0  0  0  0  0  0
    5.5704   -5.7787    0.0000 O   0  0  0  0  0  0  0  0  0  0  0  0
    4.0468   -8.1966    0.0000 O   0  0  0  0  0  0  0  0  0  0  0  0
    6.9983   -5.8340    0.0000 O   0  0  0  0  0  0  0  0  0  0  0  0
    4.0228   -9.0606    0.0000 O   0  0  0  0  0  0  0  0  0  0  0  0
   10.4106  -12.0409    0.0000 O   0  0  0  0  0  0  0  0  0  0  0  0
    8.2733  -11.5974    0.0000 C   0  0  0  0  0  0  0  0  0  0  0  0
    8.9818  -12.0202    0.0000 C   0  0  0  0  0  0  0  0  0  0  0  0
    9.7021  -11.6181    0.0000 C   0  0  0  0  0  0  0  0  0  0  0  0
    9.7141  -10.7932    0.0000 C   0  0  0  0  0  0  0  0  0  0  0  0
    9.0057  -10.3704    0.0000 C   0  0  0  0  0  0  0  0  0  0  0  0
    8.2853  -10.7725    0.0000 C   0  0  0  0  0  0  0  0  0  0  0  0
    5.4158  -11.5560    0.0000 O   0  0  0  0  0  0  0  0  0  0  0  0
    6.8446  -11.5767    0.0000 O   0  0  0  0  0  0  0  0  0  0  0  0
    6.8565  -10.7518    0.0000 C   0  0  0  0  0  0  0  0  0  0  0  0
    7.5769  -10.3497    0.0000 C   0  0  0  0  0  0  0  0  0  0  0  0
    7.5888   -9.5248    0.0000 C   0  0  0  0  0  0  0  0  0  0  0  0
    6.8804   -9.1020    0.0000 O   0  0  0  0  0  0  0  0  0  0  0  0
    5.4277  -10.7311    0.0000 C   0  0  0  0  0  0  0  0  0  0  0  0
    6.1481  -10.3290    0.0000 C   0  0  0  0  0  0  0  0  0  0  0  0
    6.1600   -9.5041    0.0000 C   0  0  0  0  0  0  0  0  0  0  0  0
    5.4516   -9.0813    0.0000 C   0  0  0  0  0  0  0  0  0  0  0  0
    4.7312   -9.4834    0.0000 C   0  0  0  0  0  0  0  0  0  0  0  0
    4.7193  -10.3083    0.0000 C   0  0  0  0  0  0  0  0  0  0  0  0
    6.1892   -8.6643    0.0000 H   0  0  0  0  0  0  0  0  0  0  0  0
  5 29  1  0  0  0  0
  1  2  1  0  0  0  0
  2  3  1  0  0  0  0
  3  4  1  0  0  0  0
  4  5  1  0  0  0  0
  5  6  1  0  0  0  0
  6  1  1  0  0  0  0
  1  7  1  1  0  0  0
  3  8  1  1  0  0  0
  2  9  1  6  0  0  0
  4 10  1  6  0  0  0
  7 11  1  0  0  0  0
 30 12  1  0  0  0  0
 16 13  1  0  0  0  0
 14 19  1  0  0  0  0
 15 14  2  0  0  0  0
 16 15  1  0  0  0  0
 17 16  2  0  0  0  0
 18 17  1  0  0  0  0
 19 18  2  0  0  0  0
 23 19  1  0  0  0  0
 26 20  1  0  0  0  0
 22 21  2  0  0  0  0
 22 27  1  0  0  0  0
 23 22  1  0  0  0  0
 24 23  2  0  0  0  0
 25 24  1  0  0  0  0
 28 25  1  0  0  0  0
 26 31  2  0  0  0  0
 27 26  1  0  0  0  0
 28 27  2  0  0  0  0
 29 28  1  0  0  0  0
 30 29  2  0  0  0  0
 31 30  1  0  0  0  0
  5 32  1  6  0  0  0
M  END
>  <cdx:fragmentId>
5

$$$$
