6134.cdx
  Mrv1902 05222410262D          

 23 24  0  0  0  0            999 V2000
    3.5714   -3.7202    0.0000 O   0  0  0  0  0  0  0  0  0  0  0  0
    2.8569   -4.1327    0.0000 C   0  0  1  0  0  0  0  0  0  0  0  0
    2.1425   -3.7202    0.0000 C   0  0  1  0  0  0  0  0  0  0  0  0
    2.1425   -2.8952    0.0000 C   0  0  1  0  0  0  0  0  0  0  0  0
    2.8569   -2.4827    0.0000 C   0  0  2  0  0  0  0  0  0  0  0  0
    3.5714   -2.8952    0.0000 C   0  0  2  0  0  0  0  0  0  0  0  0
    1.4280   -4.1327    0.0000 O   0  0  0  0  0  0  0  0  0  0  0  0
    1.4280   -2.4827    0.0000 O   0  0  0  0  0  0  0  0  0  0  0  0
    2.8569   -1.6577    0.0000 O   0  0  0  0  0  0  0  0  0  0  0  0
    4.2859   -2.4827    0.0000 O   0  0  0  0  0  0  0  0  0  0  0  0
    6.4293   -2.8952    0.0000 O   0  0  0  0  0  0  0  0  0  0  0  0
    5.7148   -2.4827    0.0000 C   0  0  1  0  0  0  0  0  0  0  0  0
    5.0003   -2.8952    0.0000 C   0  0  2  0  0  0  0  0  0  0  0  0
    5.0003   -3.7202    0.0000 C   0  0  1  0  0  0  0  0  0  0  0  0
    5.7148   -4.1327    0.0000 C   0  0  2  0  0  0  0  0  0  0  0  0
    6.4293   -3.7202    0.0000 C   0  0  2  0  0  0  0  0  0  0  0  0
    5.7148   -1.6577    0.0000 C   0  0  0  0  0  0  0  0  0  0  0  0
    5.0003   -1.2452    0.0000 O   0  0  0  0  0  0  0  0  0  0  0  0
    7.1438   -4.1327    0.0000 O   0  0  0  0  0  0  0  0  0  0  0  0
    5.7148   -4.9577    0.0000 O   0  0  0  0  0  0  0  0  0  0  0  0
    4.2859   -4.1327    0.0000 O   0  0  0  0  0  0  0  0  0  0  0  0
    2.8569   -4.9577    0.0000 C   0  0  0  0  0  0  0  0  0  0  0  0
    2.1425   -5.3702    0.0000 O   0  0  0  0  0  0  0  0  0  0  0  0
  1  2  1  0  0  0  0
  2  3  1  0  0  0  0
  3  4  1  0  0  0  0
  4  5  1  0  0  0  0
  5  6  1  0  0  0  0
  1  6  1  0  0  0  0
  3  7  1  6  0  0  0
  4  8  1  6  0  0  0
  5  9  1  1  0  0  0
 11 12  1  0  0  0  0
 12 13  1  0  0  0  0
 13 14  1  0  0  0  0
 14 15  1  0  0  0  0
 15 16  1  0  0  0  0
 11 16  1  0  0  0  0
 17 18  1  0  0  0  0
 12 17  1  1  0  0  0
 16 19  1  1  0  0  0
 15 20  1  6  0  0  0
 14 21  1  1  0  0  0
 13 10  1  6  0  0  0
  6 10  1  6  0  0  0
 22 23  1  0  0  0  0
  2 22  1  6  0  0  0
M  END
>  <cdx:groupId>
72

>  <cdx:fragmentId>
25

$$$$
