61342.cdx
  Mrv1902 05222410192D          

 17 16  0  0  0  0            999 V2000
    6.8615   -3.0396    0.0000 C   0  0  0  0  0  0  0  0  0  0  0  0
    6.1470   -3.4521    0.0000 C   0  0  0  0  0  0  0  0  0  0  0  0
    5.4326   -3.0396    0.0000 C   0  0  0  0  0  0  0  0  0  0  0  0
    4.7181   -3.4521    0.0000 C   0  0  0  0  0  0  0  0  0  0  0  0
    4.0036   -3.0396    0.0000 C   0  0  0  0  0  0  0  0  0  0  0  0
    3.2892   -3.4521    0.0000 C   0  0  0  0  0  0  0  0  0  0  0  0
    2.5747   -3.0396    0.0000 C   0  0  0  0  0  0  0  0  0  0  0  0
    1.8602   -3.4521    0.0000 C   0  0  0  0  0  0  0  0  0  0  0  0
    6.8615   -2.2146    0.0000 O   0  0  0  0  0  0  0  0  0  0  0  0
    7.5760   -3.4521    0.0000 O   0  0  0  0  0  0  0  0  0  0  0  0
    8.2905   -3.0396    0.0000 C   0  0  0  0  0  0  0  0  0  0  0  0
    9.0049   -3.4521    0.0000 C   0  0  0  0  0  0  0  0  0  0  0  0
    9.7194   -3.0396    0.0000 C   0  0  0  0  0  0  0  0  0  0  0  0
   10.4339   -3.4521    0.0000 C   0  0  0  0  0  0  0  0  0  0  0  0
   11.1483   -3.0396    0.0000 C   0  0  0  0  0  0  0  0  0  0  0  0
   11.8628   -3.4521    0.0000 C   0  0  0  0  0  0  0  0  0  0  0  0
   12.5773   -3.0396    0.0000 C   0  0  0  0  0  0  0  0  0  0  0  0
  1  2  1  0  0  0  0
  2  3  1  0  0  0  0
  3  4  1  0  0  0  0
  4  5  1  0  0  0  0
  5  6  1  0  0  0  0
  6  7  1  0  0  0  0
  7  8  1  0  0  0  0
  1  9  2  0  0  0  0
  1 10  1  0  0  0  0
 11 12  1  0  0  0  0
 12 13  1  0  0  0  0
 13 14  1  0  0  0  0
 14 15  1  0  0  0  0
 15 16  1  0  0  0  0
 16 17  1  0  0  0  0
 10 11  1  0  0  0  0
M  END
>  <cdx:groupId>
52

>  <cdx:fragmentId>
5

$$$$
