44613554.cdx
  Mrv1902 05222410232D          

 19 18  0  0  0  0            999 V2000
   12.5326  -13.8264    0.0000 C   0  0  0  0  0  0  0  0  0  0  0  0
   11.8181  -13.4139    0.0000 C   0  0  0  0  0  0  0  0  0  0  0  0
   10.9931  -13.4139    0.0000 C   0  0  0  0  0  0  0  0  0  0  0  0
   10.2786  -13.8264    0.0000 C   0  0  0  0  0  0  0  0  0  0  0  0
    9.5641  -14.2389    0.0000 C   0  0  0  0  0  0  0  0  0  0  0  0
    8.8497  -14.6514    0.0000 C   0  0  0  0  0  0  0  0  0  0  0  0
    8.1352  -15.0639    0.0000 C   0  0  0  0  0  0  0  0  0  0  0  0
    7.4207  -15.4764    0.0000 C   0  0  0  0  0  0  0  0  0  0  0  0
    6.7063  -15.0639    0.0000 C   0  0  0  0  0  0  0  0  0  0  0  0
    5.9918  -15.4764    0.0000 C   0  0  0  0  0  0  0  0  0  0  0  0
    5.2773  -15.0639    0.0000 C   0  0  0  0  0  0  0  0  0  0  0  0
    4.5629  -15.4764    0.0000 C   0  0  0  0  0  0  0  0  0  0  0  0
    3.8484  -15.0639    0.0000 C   0  0  0  0  0  0  0  0  0  0  0  0
    3.1339  -15.4764    0.0000 C   0  0  2  0  0  0  0  0  0  0  0  0
    2.4194  -15.0639    0.0000 C   0  0  0  0  0  0  0  0  0  0  0  0
    1.7050  -15.4764    0.0000 C   0  0  0  0  0  0  0  0  0  0  0  0
    0.9905  -15.0639    0.0000 C   0  0  0  0  0  0  0  0  0  0  0  0
   13.2470  -13.4139    0.0000 O   0  0  0  0  0  0  0  0  0  0  0  0
    3.1339  -16.3014    0.0000 O   0  0  0  0  0  0  0  0  0  0  0  0
  1  2  1  0  0  0  0
  2  3  2  0  0  0  0
  3  4  1  0  0  0  0
  4  5  3  0  0  0  0
  5  6  1  0  0  0  0
  6  7  3  0  0  0  0
  7  8  1  0  0  0  0
  8  9  2  0  0  0  0
  9 10  1  0  0  0  0
 10 11  2  0  0  0  0
 11 12  1  0  0  0  0
 12 13  1  0  0  0  0
 13 14  1  0  0  0  0
 14 15  1  0  0  0  0
 15 16  1  0  0  0  0
 16 17  1  0  0  0  0
  1 18  1  0  0  0  0
 14 19  1  1  0  0  0
M  END
>  <cdx:groupId>
171687

>  <cdx:fragmentId>
171634

$$$$
