61361.cdx
  Mrv1902 05222410282D          

 14 15  0  0  0  0            999 V2000
    6.1174   -5.6389    0.0000 O   0  0  0  0  0  0  0  0  0  0  0  0
    5.8624   -4.8543    0.0000 C   0  0  0  0  0  0  0  0  0  0  0  0
    6.3474   -4.1868    0.0000 O   0  0  0  0  0  0  0  0  0  0  0  0
    5.8624   -3.5194    0.0000 C   0  0  0  0  0  0  0  0  0  0  0  0
    5.0778   -3.7743    0.0000 C   0  0  0  0  0  0  0  0  0  0  0  0
    4.3633   -3.3618    0.0000 C   0  0  0  0  0  0  0  0  0  0  0  0
    3.6489   -3.7743    0.0000 C   0  0  0  0  0  0  0  0  0  0  0  0
    3.6489   -4.5993    0.0000 C   0  0  0  0  0  0  0  0  0  0  0  0
    4.3633   -5.0118    0.0000 C   0  0  0  0  0  0  0  0  0  0  0  0
    5.0778   -4.5993    0.0000 C   0  0  0  0  0  0  0  0  0  0  0  0
    6.1174   -2.7348    0.0000 C   0  0  0  0  0  0  0  0  0  0  0  0
    6.9244   -2.5632    0.0000 C   0  0  0  0  0  0  0  0  0  0  0  0
    7.1793   -1.7786    0.0000 C   0  0  0  0  0  0  0  0  0  0  0  0
    7.9863   -1.6071    0.0000 C   0  0  0  0  0  0  0  0  0  0  0  0
  1  2  2  0  0  0  0
  2  3  1  0  0  0  0
  3  4  1  0  0  0  0
  4  5  1  0  0  0  0
  5  6  1  0  0  0  0
  6  7  2  0  0  0  0
  7  8  1  0  0  0  0
  8  9  2  0  0  0  0
  9 10  1  0  0  0  0
  2 10  1  0  0  0  0
  5 10  2  0  0  0  0
 11 12  1  0  0  0  0
 12 13  1  0  0  0  0
 13 14  1  0  0  0  0
  4 11  1  0  0  0  0
M  END
>  <cdx:groupId>
45

>  <cdx:fragmentId>
5

$$$$
