61416.cdx
  Mrv1902 05222410262D          

 17 16  0  0  0  0            999 V2000
    5.5082   -3.1771    0.0000 C   0  0  0  0  0  0  0  0  0  0  0  0
    4.7937   -2.7646    0.0000 C   0  0  0  0  0  0  0  0  0  0  0  0
    4.0793   -3.1771    0.0000 C   0  0  0  0  0  0  0  0  0  0  0  0
    3.3648   -2.7646    0.0000 C   0  0  0  0  0  0  0  0  0  0  0  0
    2.6503   -3.1771    0.0000 C   0  0  0  0  0  0  0  0  0  0  0  0
    5.5082   -4.0021    0.0000 O   0  0  0  0  0  0  0  0  0  0  0  0
    6.2227   -2.7646    0.0000 O   0  0  0  0  0  0  0  0  0  0  0  0
    6.9371   -3.1771    0.0000 C   0  0  0  0  0  0  0  0  0  0  0  0
    7.6516   -2.7646    0.0000 C   0  0  0  0  0  0  0  0  0  0  0  0
    8.3661   -3.1771    0.0000 C   0  0  0  0  0  0  0  0  0  0  0  0
    8.3661   -4.0021    0.0000 C   0  0  0  0  0  0  0  0  0  0  0  0
    9.0806   -2.7646    0.0000 C   0  0  0  0  0  0  0  0  0  0  0  0
    9.7950   -3.1771    0.0000 C   0  0  0  0  0  0  0  0  0  0  0  0
   10.5095   -2.7646    0.0000 C   0  0  0  0  0  0  0  0  0  0  0  0
   11.2240   -3.1771    0.0000 C   0  0  0  0  0  0  0  0  0  0  0  0
   11.9384   -2.7646    0.0000 C   0  0  0  0  0  0  0  0  0  0  0  0
   11.2240   -4.0021    0.0000 C   0  0  0  0  0  0  0  0  0  0  0  0
  1  2  1  0  0  0  0
  2  3  1  0  0  0  0
  3  4  1  0  0  0  0
  4  5  1  0  0  0  0
  1  6  2  0  0  0  0
  1  7  1  0  0  0  0
  8  9  1  0  0  0  0
  9 10  1  0  0  0  0
 10 11  1  0  0  0  0
 10 12  1  0  0  0  0
 12 13  1  0  0  0  0
 13 14  1  0  0  0  0
 14 15  2  0  0  0  0
 15 16  1  0  0  0  0
 15 17  1  0  0  0  0
  7  8  1  0  0  0  0
M  END
>  <cdx:fragmentId>
19

$$$$
