61455.cdx
  Mrv1902 05222410202D          

 13 12  0  0  0  0            999 V2000
    5.9644   -5.4939    0.0000 C   0  0  0  0  0  0  0  0  0  0  0  0
    5.2500   -5.9064    0.0000 C   0  0  0  0  0  0  0  0  0  0  0  0
    4.5355   -5.4939    0.0000 C   0  0  0  0  0  0  0  0  0  0  0  0
    4.5355   -4.6689    0.0000 C   0  0  0  0  0  0  0  0  0  0  0  0
    5.9644   -4.6689    0.0000 O   0  0  0  0  0  0  0  0  0  0  0  0
    6.6789   -5.9064    0.0000 O   0  0  0  0  0  0  0  0  0  0  0  0
    3.8210   -5.9064    0.0000 C   0  0  0  0  0  0  0  0  0  0  0  0
    7.3934   -5.4939    0.0000 C   0  0  0  0  0  0  0  0  0  0  0  0
    8.1078   -5.9064    0.0000 C   0  0  0  0  0  0  0  0  0  0  0  0
    8.8223   -5.4939    0.0000 C   0  0  0  0  0  0  0  0  0  0  0  0
    9.5368   -5.9064    0.0000 C   0  0  0  0  0  0  0  0  0  0  0  0
   10.2513   -5.4939    0.0000 C   0  0  0  0  0  0  0  0  0  0  0  0
   10.9657   -5.9064    0.0000 C   0  0  0  0  0  0  0  0  0  0  0  0
  1  2  1  0  0  0  0
  2  3  1  0  0  0  0
  3  4  1  0  0  0  0
  1  5  2  0  0  0  0
  1  6  1  0  0  0  0
  3  7  1  0  0  0  0
  8  9  1  0  0  0  0
  9 10  1  0  0  0  0
 10 11  1  0  0  0  0
 11 12  1  0  0  0  0
 12 13  1  0  0  0  0
  6  8  1  0  0  0  0
M  END
>  <cdx:fragmentId>
5

$$$$
