6146.cdx
  Mrv1902 05222410252D          

 25 26  0  0  0  0            999 V2000
    4.3412   -8.2010    0.0000 C   0  0  0  0  0  0  0  0  0  0  0  0
    5.0557   -8.6135    0.0000 C   0  0  0  0  0  0  0  0  0  0  0  0
    5.7701   -8.2010    0.0000 C   0  0  0  0  0  0  0  0  0  0  0  0
    6.4846   -8.6135    0.0000 C   0  0  0  0  0  0  0  0  0  0  0  0
    7.1991   -8.2010    0.0000 C   0  0  0  0  0  0  0  0  0  0  0  0
    7.9136   -8.6135    0.0000 C   0  0  0  0  0  0  0  0  0  0  0  0
    8.6280   -8.2010    0.0000 C   0  0  0  0  0  0  0  0  0  0  0  0
    5.7701   -7.3760    0.0000 O   0  0  0  0  0  0  0  0  0  0  0  0
    3.6267   -8.6135    0.0000 C   0  0  0  0  0  0  0  0  0  0  0  0
    3.6267   -9.4385    0.0000 C   0  0  0  0  0  0  0  0  0  0  0  0
    2.9123   -9.8510    0.0000 C   0  0  0  0  0  0  0  0  0  0  0  0
    2.1978   -9.4385    0.0000 C   0  0  0  0  0  0  0  0  0  0  0  0
    2.1978   -8.6135    0.0000 C   0  0  0  0  0  0  0  0  0  0  0  0
    2.9123   -8.2010    0.0000 C   0  0  0  0  0  0  0  0  0  0  0  0
    7.1991   -7.3760    0.0000 O   0  0  0  0  0  0  0  0  0  0  0  0
    7.9136   -6.9635    0.0000 C   0  0  0  0  0  0  0  0  0  0  0  0
    9.3425   -8.6135    0.0000 C   0  0  0  0  0  0  0  0  0  0  0  0
   10.0570   -8.2010    0.0000 C   0  0  0  0  0  0  0  0  0  0  0  0
   10.7714   -8.6135    0.0000 C   0  0  0  0  0  0  0  0  0  0  0  0
   10.7714   -9.4385    0.0000 C   0  0  0  0  0  0  0  0  0  0  0  0
   10.0570   -9.8510    0.0000 C   0  0  0  0  0  0  0  0  0  0  0  0
    9.3425   -9.4385    0.0000 C   0  0  0  0  0  0  0  0  0  0  0  0
   11.4859   -8.2010    0.0000 O   0  0  0  0  0  0  0  0  0  0  0  0
   12.2004   -8.6135    0.0000 C   0  0  0  0  0  0  0  0  0  0  0  0
   11.4859   -9.8510    0.0000 O   0  0  0  0  0  0  0  0  0  0  0  0
  1  2  1  0  0  0  0
  2  3  1  0  0  0  0
  3  4  1  0  0  0  0
  4  5  1  0  0  0  0
  5  6  1  0  0  0  0
  6  7  1  0  0  0  0
  3  8  2  0  0  0  0
  9 10  1  0  0  0  0
 10 11  2  0  0  0  0
 11 12  1  0  0  0  0
 12 13  2  0  0  0  0
 13 14  1  0  0  0  0
  9 14  2  0  0  0  0
  1  9  1  0  0  0  0
 15 16  1  0  0  0  0
  5 15  1  0  0  0  0
 17 18  1  0  0  0  0
 18 19  2  0  0  0  0
 19 20  1  0  0  0  0
 20 21  2  0  0  0  0
 21 22  1  0  0  0  0
 17 22  2  0  0  0  0
 23 24  1  0  0  0  0
 19 23  1  0  0  0  0
 20 25  1  0  0  0  0
  7 17  1  0  0  0  0
M  END
>  <cdx:fragmentId>
5

$$$$
