615675.cdx
  Mrv1902 05222410212D          

 38 39  0  0  0  0            999 V2000
    6.7933   -7.8371    0.0000 C   0  0  0  0  0  0  0  0  0  0  0  0
    6.7264   -8.6594    0.0000 C   0  0  0  0  0  0  0  0  0  0  0  0
    7.4051   -9.1285    0.0000 C   0  0  0  0  0  0  0  0  0  0  0  0
    8.1507   -8.7753    0.0000 C   0  0  0  0  0  0  0  0  0  0  0  0
    8.8293   -9.2444    0.0000 C   0  0  0  0  0  0  0  0  0  0  0  0
    9.5749   -8.8912    0.0000 C   0  0  0  0  0  0  0  0  0  0  0  0
   10.2536   -9.3603    0.0000 C   0  0  0  0  0  0  0  0  0  0  0  0
   10.9991   -9.0071    0.0000 C   0  0  0  0  0  0  0  0  0  0  0  0
   11.6778   -9.4762    0.0000 C   0  0  0  0  0  0  0  0  0  0  0  0
   12.4234   -9.1230    0.0000 C   0  0  0  0  0  0  0  0  0  0  0  0
   12.4903   -8.3007    0.0000 C   0  0  0  0  0  0  0  0  0  0  0  0
    9.6418   -8.0689    0.0000 C   0  0  0  0  0  0  0  0  0  0  0  0
   13.1020   -9.5920    0.0000 C   0  0  0  0  0  0  0  0  0  0  0  0
    5.0101   -9.9289    0.0000 C   0  0  0  0  0  0  0  0  0  0  0  0
    5.8284   -9.8234    0.0000 C   0  0  0  0  0  0  0  0  0  0  0  0
    5.9809   -9.0126    0.0000 C   0  0  2  0  0  0  0  0  0  0  0  0
    5.2569   -8.6170    0.0000 C   0  0  2  0  0  0  0  0  0  0  0  0
    4.6569   -9.1833    0.0000 C   0  0  1  0  0  0  0  0  0  0  0  0
    4.2526   -8.4642    0.0000 C   0  0  1  0  0  0  0  0  0  0  0  0
    3.4276   -8.4548    0.0000 C   0  0  0  0  0  0  0  0  0  0  0  0
    3.0070   -9.1645    0.0000 C   0  0  0  0  0  0  0  0  0  0  0  0
    3.4114   -9.8837    0.0000 C   0  0  0  0  0  0  0  0  0  0  0  0
    4.2363   -9.8930    0.0000 C   0  0  2  0  0  0  0  0  0  0  0  0
    2.1984   -7.7263    0.0000 C   0  0  0  0  0  0  0  0  0  0  0  0
    3.0233   -7.7357    0.0000 C   0  0  0  0  0  0  0  0  0  0  0  0
    3.4439   -7.0260    0.0000 C   0  0  0  0  0  0  0  0  0  0  0  0
    1.7940   -7.0072    0.0000 O   0  0  0  0  0  0  0  0  0  0  0  0
    4.2269  -10.7180    0.0000 O   0  0  0  0  0  0  0  0  0  0  0  0
    4.6732   -7.7545    0.0000 C   0  0  0  0  0  0  0  0  0  0  0  0
    4.2689   -7.0353    0.0000 C   0  0  0  0  0  0  0  0  0  0  0  0
    4.6895   -6.3256    0.0000 C   0  0  0  0  0  0  0  0  0  0  0  0
    4.2851   -5.6065    0.0000 O   0  0  0  0  0  0  0  0  0  0  0  0
    4.9461  -10.3136    0.0000 C   0  0  0  0  0  0  0  0  0  0  0  0
    5.1514   -7.7988    0.0000 O   0  0  0  0  0  0  0  0  0  0  0  0
    7.5389   -7.4839    0.0000 O   0  0  0  0  0  0  0  0  0  0  0  0
    6.9272   -6.1925    0.0000 O   0  0  0  0  0  0  0  0  0  0  0  0
    8.3514   -6.3084    0.0000 C   0  0  0  0  0  0  0  0  0  0  0  0
    7.6058   -6.6616    0.0000 C   0  0  0  0  0  0  0  0  0  0  0  0
 35  1  1  0  0  0  0
 38 35  1  0  0  0  0
 38 36  2  0  0  0  0
 38 37  1  0  0  0  0
  1  2  1  0  0  0  0
  2  3  2  0  0  0  0
  3  4  1  0  0  0  0
  4  5  2  0  0  0  0
  5  6  1  0  0  0  0
  6  7  1  0  0  0  0
  7  8  1  0  0  0  0
  8  9  1  0  0  0  0
  9 10  2  0  0  0  0
 10 11  1  0  0  0  0
  6 12  2  0  0  0  0
 10 13  1  0  0  0  0
 14 15  1  0  0  0  0
 15 16  1  0  0  0  0
 16 17  1  0  0  0  0
 17 18  1  0  0  0  0
 18 19  1  0  0  0  0
 19 20  1  0  0  0  0
 20 21  1  0  0  0  0
 21 22  1  0  0  0  0
 22 23  1  0  0  0  0
 18 14  1  6  0  0  0
 23 18  1  0  0  0  0
 24 25  1  0  0  0  0
 25 26  1  0  0  0  0
 24 27  2  0  0  0  0
 20 25  2  0  0  0  0
 23 28  1  1  0  0  0
 29 30  1  0  0  0  0
 30 31  1  0  0  0  0
 31 32  1  0  0  0  0
 19 29  1  1  0  0  0
 23 33  1  0  0  0  0
 17 34  1  6  0  0  0
 16  2  1  6  0  0  0
M  END
>  <cdx:fragmentId>
252997

$$$$
