6165.cdx
  Mrv1902 05222410222D          

 11 11  0  0  0  0            999 V2000
    6.2659   -6.3187    0.0000 C   0  0  0  0  0  0  0  0  0  0  0  0
    5.8534   -7.0331    0.0000 C   0  0  0  0  0  0  0  0  0  0  0  0
    6.2659   -7.7476    0.0000 C   0  0  0  0  0  0  0  0  0  0  0  0
    7.0909   -7.7476    0.0000 C   0  0  0  0  0  0  0  0  0  0  0  0
    7.5034   -7.0331    0.0000 C   0  0  0  0  0  0  0  0  0  0  0  0
    7.0909   -6.3187    0.0000 C   0  0  0  0  0  0  0  0  0  0  0  0
    7.5034   -5.6042    0.0000 C   0  0  0  0  0  0  0  0  0  0  0  0
    7.5034   -8.4621    0.0000 O   0  0  0  0  0  0  0  0  0  0  0  0
    8.3284   -8.4621    0.0000 C   0  0  0  0  0  0  0  0  0  0  0  0
    5.0284   -7.0331    0.0000 O   0  0  0  0  0  0  0  0  0  0  0  0
    4.6159   -7.7476    0.0000 C   0  0  0  0  0  0  0  0  0  0  0  0
  1  2  2  0  0  0  0
  2  3  1  0  0  0  0
  3  4  2  0  0  0  0
  4  5  1  0  0  0  0
  5  6  2  0  0  0  0
  6  1  1  0  0  0  0
  6  7  1  0  0  0  0
  4  8  1  0  0  0  0
  8  9  1  0  0  0  0
  2 10  1  0  0  0  0
 10 11  1  0  0  0  0
M  END
>  <cdx:fragmentId>
5

$$$$
