616835.cdx
  Mrv1902 05222410232D          

 17 18  0  0  0  0            999 V2000
   14.2233  -17.1879    0.0000 C   0  0  0  0  0  0  0  0  0  0  0  0
   14.6358  -16.4734    0.0000 C   0  0  0  0  0  0  0  0  0  0  0  0
   14.6358  -17.9024    0.0000 O   0  0  0  0  0  0  0  0  0  0  0  0
   13.3983  -17.1879    0.0000 O   0  0  0  0  0  0  0  0  0  0  0  0
   15.9457  -17.1409    0.0000 C   0  0  0  0  0  0  0  0  0  0  0  0
   15.4608  -16.4734    0.0000 C   0  0  0  0  0  0  0  0  0  0  0  0
   15.9457  -15.8060    0.0000 C   0  0  0  0  0  0  0  0  0  0  0  0
   16.7303  -16.0609    0.0000 C   0  0  0  0  0  0  0  0  0  0  0  0
   17.4448  -15.6484    0.0000 C   0  0  0  0  0  0  0  0  0  0  0  0
   18.1592  -16.0609    0.0000 C   0  0  0  0  0  0  0  0  0  0  0  0
   18.1592  -16.8859    0.0000 C   0  0  0  0  0  0  0  0  0  0  0  0
   17.4448  -17.2984    0.0000 C   0  0  0  0  0  0  0  0  0  0  0  0
   16.7303  -16.8859    0.0000 C   0  0  0  0  0  0  0  0  0  0  0  0
   17.4448  -14.8234    0.0000 O   0  0  0  0  0  0  0  0  0  0  0  0
   15.6907  -17.9255    0.0000 O   0  0  0  0  0  0  0  0  0  0  0  0
   17.8573  -18.0129    0.0000 C   0  0  0  0  0  0  0  0  0  0  0  0
   17.0323  -18.0129    0.0000 C   0  0  0  0  0  0  0  0  0  0  0  0
  1  2  1  0  0  0  0
  1  3  2  0  0  0  0
  1  4  1  0  0  0  0
  5  6  1  0  0  0  0
  6  7  1  0  0  0  0
  7  8  1  0  0  0  0
  8  9  1  0  0  0  0
  9 10  1  0  0  0  0
 10 11  1  0  0  0  0
 11 12  1  0  0  0  0
 12 13  1  0  0  0  0
  5 13  1  0  0  0  0
  8 13  2  0  0  0  0
  9 14  2  0  0  0  0
  5 15  2  0  0  0  0
 12 16  1  0  0  0  0
 12 17  1  0  0  0  0
  2  6  1  0  0  0  0
M  END
>  <cdx:groupId>
8888

>  <cdx:fragmentId>
8847

$$$$
