617058.cdx
  Mrv1902 05222410222D          

 42 46  0  0  0  0            999 V2000
    4.6438   -8.6858    0.0000 O   0  0  0  0  0  0  0  0  0  0  0  0
    3.9299   -7.4479    0.0000 O   0  0  0  0  0  0  0  0  0  0  0  0
    3.9295   -8.2729    0.0000 C   0  0  2  0  0  0  0  0  0  0  0  0
    3.2149   -8.6851    0.0000 C   0  0  1  0  0  0  0  0  0  0  0  0
    2.5006   -8.2722    0.0000 C   0  0  2  0  0  0  0  0  0  0  0  0
    2.5010   -7.4472    0.0000 C   0  0  1  0  0  0  0  0  0  0  0  0
    3.2157   -7.0351    0.0000 C   0  0  1  0  0  0  0  0  0  0  0  0
    3.2161   -6.2101    0.0000 C   0  0  0  0  0  0  0  0  0  0  0  0
    2.5018   -5.7972    0.0000 O   0  0  0  0  0  0  0  0  0  0  0  0
    1.7867   -7.0344    0.0000 O   0  0  0  0  0  0  0  0  0  0  0  0
    1.7859   -8.6844    0.0000 O   0  0  0  0  0  0  0  0  0  0  0  0
    3.2145   -9.5101    0.0000 O   0  0  0  0  0  0  0  0  0  0  0  0
    9.6451   -8.2733    0.0000 O   0  0  0  0  0  0  0  0  0  0  0  0
   12.5030   -5.7983    0.0000 C   0  0  0  0  0  0  0  0  0  0  0  0
    8.2162   -9.9233    0.0000 O   0  0  0  0  0  0  0  0  0  0  0  0
    6.7872  -10.7483    0.0000 O   0  0  0  0  0  0  0  0  0  0  0  0
    5.3583   -9.9233    0.0000 O   0  0  0  0  0  0  0  0  0  0  0  0
    5.3583   -8.2733    0.0000 C   0  0  0  0  0  0  0  0  0  0  0  0
    6.0728   -8.6858    0.0000 C   0  0  2  0  0  0  0  0  0  0  0  0
    6.0728   -9.5108    0.0000 C   0  0  2  0  0  0  0  0  0  0  0  0
    6.7872   -9.9233    0.0000 C   0  0  1  0  0  0  0  0  0  0  0  0
    7.5017   -9.5108    0.0000 C   0  0  2  0  0  0  0  0  0  0  0  0
    7.5017   -8.6858    0.0000 C   0  0  1  0  0  0  0  0  0  0  0  0
    6.7872   -8.2733    0.0000 O   0  0  0  0  0  0  0  0  0  0  0  0
    8.2162   -8.2733    0.0000 O   0  0  0  0  0  0  0  0  0  0  0  0
   11.0741   -8.2733    0.0000 O   0  0  0  0  0  0  0  0  0  0  0  0
    8.2162   -5.7983    0.0000 C   0  0  0  0  0  0  0  0  0  0  0  0
    7.5017   -6.2108    0.0000 C   0  0  0  0  0  0  0  0  0  0  0  0
    7.5017   -7.0358    0.0000 C   0  0  0  0  0  0  0  0  0  0  0  0
    8.2162   -7.4483    0.0000 C   0  0  0  0  0  0  0  0  0  0  0  0
   11.0741   -7.4483    0.0000 C   0  0  0  0  0  0  0  0  0  0  0  0
   10.3596   -7.0358    0.0000 C   0  0  0  0  0  0  0  0  0  0  0  0
    9.6451   -7.4483    0.0000 C   0  0  0  0  0  0  0  0  0  0  0  0
    8.9306   -7.0358    0.0000 C   0  0  0  0  0  0  0  0  0  0  0  0
    8.9306   -6.2108    0.0000 C   0  0  0  0  0  0  0  0  0  0  0  0
    9.6451   -5.7983    0.0000 C   0  0  0  0  0  0  0  0  0  0  0  0
   10.3596   -6.2108    0.0000 C   0  0  0  0  0  0  0  0  0  0  0  0
   11.0741   -5.7983    0.0000 C   0  0  0  0  0  0  0  0  0  0  0  0
   11.7885   -6.2108    0.0000 C   0  0  0  0  0  0  0  0  0  0  0  0
   11.7885   -7.0358    0.0000 O   0  0  0  0  0  0  0  0  0  0  0  0
    6.7872   -5.7983    0.0000 O   0  0  0  0  0  0  0  0  0  0  0  0
    6.0728   -6.2108    0.0000 C   0  0  0  0  0  0  0  0  0  0  0  0
 33 13  1  0  0  0  0
 39 14  1  0  0  0  0
 30 25  1  0  0  0  0
 23 25  1  1  0  0  0
 22 15  1  6  0  0  0
 21 16  1  1  0  0  0
 20 17  1  6  0  0  0
 19 18  1  1  0  0  0
 18  1  1  0  0  0  0
 24 19  1  0  0  0  0
 20 19  1  0  0  0  0
 21 20  1  0  0  0  0
 22 21  1  0  0  0  0
 23 22  1  0  0  0  0
 24 23  1  0  0  0  0
 31 26  2  0  0  0  0
 30 34  1  0  0  0  0
 27 35  1  0  0  0  0
 28 27  2  0  0  0  0
 29 28  1  0  0  0  0
 30 29  2  0  0  0  0
 40 31  1  0  0  0  0
 32 31  1  0  0  0  0
 37 32  2  0  0  0  0
 33 32  1  0  0  0  0
 34 33  2  0  0  0  0
 35 34  1  0  0  0  0
 36 35  2  0  0  0  0
 37 36  1  0  0  0  0
 38 37  1  0  0  0  0
 39 38  2  0  0  0  0
 40 39  1  0  0  0  0
  2  3  1  0  0  0  0
  3  4  1  0  0  0  0
  4  5  1  0  0  0  0
  5  6  1  0  0  0  0
  6  7  1  0  0  0  0
  2  7  1  0  0  0  0
  8  9  1  0  0  0  0
  7  8  1  1  0  0  0
  6 10  1  6  0  0  0
  5 11  1  1  0  0  0
  4 12  1  6  0  0  0
  3  1  1  1  0  0  0
 28 41  1  0  0  0  0
 41 42  1  0  0  0  0
M  END
>  <cdx:fragmentId>
253675

$$$$
