61738.cdx
  Mrv1902 05222410242D          

 12 12  0  0  0  0            999 V2000
    6.4298   -4.7770    0.0000 C   0  0  0  0  0  0  0  0  0  0  0  0
    7.1443   -5.1895    0.0000 C   0  0  0  0  0  0  0  0  0  0  0  0
    7.8587   -4.7770    0.0000 C   0  0  0  0  0  0  0  0  0  0  0  0
    8.5732   -5.1895    0.0000 C   0  0  0  0  0  0  0  0  0  0  0  0
    9.2877   -4.7770    0.0000 C   0  0  0  0  0  0  0  0  0  0  0  0
   10.0022   -5.1895    0.0000 C   0  0  0  0  0  0  0  0  0  0  0  0
    6.4298   -3.9520    0.0000 O   0  0  0  0  0  0  0  0  0  0  0  0
    4.8221   -6.1815    0.0000 C   0  0  0  0  0  0  0  0  0  0  0  0
    4.4096   -5.4671    0.0000 C   0  0  0  0  0  0  0  0  0  0  0  0
    4.9617   -4.8540    0.0000 C   0  0  0  0  0  0  0  0  0  0  0  0
    5.7153   -5.1895    0.0000 C   0  0  0  0  0  0  0  0  0  0  0  0
    5.6291   -6.0100    0.0000 O   0  0  0  0  0  0  0  0  0  0  0  0
 12  8  1  0  0  0  0
  9  8  2  0  0  0  0
 10  9  1  0  0  0  0
 11 10  2  0  0  0  0
 12 11  1  0  0  0  0
  1  2  1  0  0  0  0
  2  3  1  0  0  0  0
  3  4  1  0  0  0  0
  4  5  1  0  0  0  0
  5  6  1  0  0  0  0
  1  7  2  0  0  0  0
 11  1  1  0  0  0  0
M  END
>  <cdx:fragmentId>
15

$$$$
