617604.cdx
  Mrv1902 05222410182D          

 18 20  0  0  0  0            999 V2000
   16.1875  -16.5807    0.0000 C   0  0  0  0  0  0  0  0  0  0  0  0
   15.4731  -16.1682    0.0000 C   0  0  0  0  0  0  0  0  0  0  0  0
   15.4731  -15.3432    0.0000 C   0  0  0  0  0  0  0  0  0  0  0  0
   16.1875  -14.9307    0.0000 C   0  0  0  0  0  0  0  0  0  0  0  0
   16.9020  -15.3432    0.0000 C   0  0  0  0  0  0  0  0  0  0  0  0
   16.9020  -16.1682    0.0000 O   0  0  0  0  0  0  0  0  0  0  0  0
   16.1875  -17.4057    0.0000 C   0  0  0  0  0  0  0  0  0  0  0  0
   15.4731  -17.8182    0.0000 C   0  0  0  0  0  0  0  0  0  0  0  0
   14.7586  -17.4057    0.0000 C   0  0  0  0  0  0  0  0  0  0  0  0
   14.0441  -17.8182    0.0000 C   0  0  0  0  0  0  0  0  0  0  0  0
   13.3296  -17.4057    0.0000 C   0  0  0  0  0  0  0  0  0  0  0  0
   13.3296  -16.5807    0.0000 C   0  0  0  0  0  0  0  0  0  0  0  0
   14.0441  -16.1682    0.0000 C   0  0  0  0  0  0  0  0  0  0  0  0
   14.7586  -16.5807    0.0000 C   0  0  0  0  0  0  0  0  0  0  0  0
   14.7586  -14.9307    0.0000 O   0  0  0  0  0  0  0  0  0  0  0  0
   17.6165  -14.9307    0.0000 C   0  0  0  0  0  0  0  0  0  0  0  0
   16.9020  -17.8182    0.0000 O   0  0  0  0  0  0  0  0  0  0  0  0
   17.6165  -17.4057    0.0000 C   0  0  0  0  0  0  0  0  0  0  0  0
  1  2  1  0  0  0  0
  2  3  1  0  0  0  0
  3  4  1  0  0  0  0
  4  5  2  0  0  0  0
  5  6  1  0  0  0  0
  1  6  1  0  0  0  0
  7  8  1  0  0  0  0
  8  9  2  0  0  0  0
  9 10  1  0  0  0  0
 10 11  2  0  0  0  0
 11 12  1  0  0  0  0
 12 13  2  0  0  0  0
 13 14  1  0  0  0  0
  9 14  1  0  0  0  0
  7  1  2  0  0  0  0
 14  2  2  0  0  0  0
  3 15  2  0  0  0  0
  5 16  1  0  0  0  0
 17 18  1  0  0  0  0
  7 17  1  0  0  0  0
M  END
>  <cdx:groupId>
8948

>  <cdx:fragmentId>
8907

$$$$
