61812.cdx
  Mrv1902 05222410182D          

 11 10  0  0  0  0            999 V2000
    5.0564   -3.2183    0.0000 C   0  0  0  0  0  0  0  0  0  0  0  0
    4.3419   -3.6308    0.0000 C   0  0  0  0  0  0  0  0  0  0  0  0
    3.6275   -3.2183    0.0000 C   0  0  0  0  0  0  0  0  0  0  0  0
    2.9130   -3.6308    0.0000 C   0  0  0  0  0  0  0  0  0  0  0  0
    5.0564   -2.3933    0.0000 O   0  0  0  0  0  0  0  0  0  0  0  0
    5.7709   -3.6308    0.0000 O   0  0  0  0  0  0  0  0  0  0  0  0
    4.3419   -4.4558    0.0000 C   0  0  0  0  0  0  0  0  0  0  0  0
    6.4853   -3.2183    0.0000 C   0  0  0  0  0  0  0  0  0  0  0  0
    7.1998   -3.6308    0.0000 C   0  0  0  0  0  0  0  0  0  0  0  0
    7.9143   -3.2183    0.0000 C   0  0  0  0  0  0  0  0  0  0  0  0
    8.6288   -3.6308    0.0000 C   0  0  0  0  0  0  0  0  0  0  0  0
  1  2  1  0  0  0  0
  2  3  1  0  0  0  0
  3  4  1  0  0  0  0
  1  5  2  0  0  0  0
  1  6  1  0  0  0  0
  2  7  1  0  0  0  0
  8  9  1  0  0  0  0
  9 10  1  0  0  0  0
 10 11  1  0  0  0  0
  6  8  1  0  0  0  0
M  END
>  <cdx:groupId>
34

>  <cdx:fragmentId>
5

$$$$
