618101.cdx
  Mrv1902 05222410272D          

 24 27  0  0  0  0            999 V2000
    7.0087   -7.4824    0.0000 C   0  0  0  0  0  0  0  0  0  0  0  0
    7.0087   -8.3074    0.0000 C   0  0  0  0  0  0  0  0  0  0  0  0
    6.2942   -8.7199    0.0000 C   0  0  0  0  0  0  0  0  0  0  0  0
    5.5797   -8.3074    0.0000 C   0  0  0  0  0  0  0  0  0  0  0  0
    4.8653   -8.7199    0.0000 C   0  0  0  0  0  0  0  0  0  0  0  0
    4.1508   -8.3074    0.0000 C   0  0  0  0  0  0  0  0  0  0  0  0
    4.1508   -7.4824    0.0000 C   0  0  0  0  0  0  0  0  0  0  0  0
    4.8653   -7.0699    0.0000 C   0  0  0  0  0  0  0  0  0  0  0  0
    5.5797   -7.4824    0.0000 C   0  0  0  0  0  0  0  0  0  0  0  0
    6.2942   -7.0699    0.0000 O   0  0  0  0  0  0  0  0  0  0  0  0
    6.2942   -9.5449    0.0000 O   0  0  0  0  0  0  0  0  0  0  0  0
    3.4363   -7.0699    0.0000 O   0  0  0  0  0  0  0  0  0  0  0  0
   10.5810   -9.5449    0.0000 C   0  0  0  0  0  0  0  0  0  0  0  0
   10.5810   -8.7199    0.0000 C   0  0  0  0  0  0  0  0  0  0  0  0
    9.8666   -8.3074    0.0000 C   0  0  0  0  0  0  0  0  0  0  0  0
    9.1521   -8.7199    0.0000 C   0  0  0  0  0  0  0  0  0  0  0  0
    8.4376   -8.3074    0.0000 C   0  0  0  0  0  0  0  0  0  0  0  0
    7.7231   -8.7199    0.0000 C   0  0  0  0  0  0  0  0  0  0  0  0
    7.7231   -9.5449    0.0000 C   0  0  0  0  0  0  0  0  0  0  0  0
    8.4376   -9.9574    0.0000 C   0  0  0  0  0  0  0  0  0  0  0  0
    9.1521   -9.5449    0.0000 C   0  0  0  0  0  0  0  0  0  0  0  0
    9.8666   -9.9574    0.0000 O   0  0  0  0  0  0  0  0  0  0  0  0
   10.9935  -10.2594    0.0000 C   0  0  0  0  0  0  0  0  0  0  0  0
   11.4060   -9.5449    0.0000 C   0  0  0  0  0  0  0  0  0  0  0  0
  1  2  2  0  0  0  0
  2  3  1  0  0  0  0
  3  4  1  0  0  0  0
  4  5  1  0  0  0  0
  5  6  2  0  0  0  0
  6  7  1  0  0  0  0
  7  8  2  0  0  0  0
  8  9  1  0  0  0  0
  4  9  2  0  0  0  0
  9 10  1  0  0  0  0
  1 10  1  0  0  0  0
  3 11  2  0  0  0  0
  7 12  1  0  0  0  0
 13 14  1  0  0  0  0
 14 15  1  0  0  0  0
 15 16  1  0  0  0  0
 16 17  1  0  0  0  0
 17 18  2  0  0  0  0
 18 19  1  0  0  0  0
 19 20  2  0  0  0  0
 20 21  1  0  0  0  0
 16 21  2  0  0  0  0
 21 22  1  0  0  0  0
 13 22  1  0  0  0  0
 13 23  1  0  0  0  0
 13 24  1  0  0  0  0
  2 18  1  0  0  0  0
M  END
>  <cdx:groupId>
253829

>  <cdx:fragmentId>
253781

$$$$
