61814.cdx
  Mrv1902 05222410192D          

 10 10  0  0  0  0            999 V2000
    8.1591   -6.0225    0.0000 C   0  0  0  0  0  0  0  0  0  0  0  0
    7.4447   -5.6100    0.0000 C   0  0  0  0  0  0  0  0  0  0  0  0
    7.4447   -4.7850    0.0000 C   0  0  0  0  0  0  0  0  0  0  0  0
    6.7302   -4.3725    0.0000 C   0  0  0  0  0  0  0  0  0  0  0  0
    6.0157   -4.7850    0.0000 C   0  0  0  0  0  0  0  0  0  0  0  0
    6.0157   -5.6100    0.0000 C   0  0  0  0  0  0  0  0  0  0  0  0
    6.7302   -6.0225    0.0000 C   0  0  0  0  0  0  0  0  0  0  0  0
    8.8736   -5.6100    0.0000 O   0  0  0  0  0  0  0  0  0  0  0  0
    5.3013   -4.3725    0.0000 C   0  0  0  0  0  0  0  0  0  0  0  0
    8.1591   -4.3725    0.0000 C   0  0  0  0  0  0  0  0  0  0  0  0
  1  2  1  0  0  0  0
  2  3  1  0  0  0  0
  3  4  2  0  0  0  0
  4  5  1  0  0  0  0
  5  6  2  0  0  0  0
  6  7  1  0  0  0  0
  2  7  2  0  0  0  0
  1  8  2  0  0  0  0
  5  9  1  0  0  0  0
  3 10  1  0  0  0  0
M  END
>  <cdx:fragmentId>
5

$$$$
