6184.cdx
  Mrv1902 05222410262D          

  7  6  0  0  0  0            999 V2000
    2.4410   -2.7571    0.0000 C   0  0  0  0  0  0  0  0  0  0  0  0
    3.1555   -3.1696    0.0000 C   0  0  0  0  0  0  0  0  0  0  0  0
    3.8699   -2.7571    0.0000 C   0  0  0  0  0  0  0  0  0  0  0  0
    4.5844   -3.1696    0.0000 C   0  0  0  0  0  0  0  0  0  0  0  0
    5.2989   -2.7571    0.0000 C   0  0  0  0  0  0  0  0  0  0  0  0
    6.0134   -3.1696    0.0000 C   0  0  0  0  0  0  0  0  0  0  0  0
    1.7265   -3.1696    0.0000 O   0  0  0  0  0  0  0  0  0  0  0  0
  1  2  1  0  0  0  0
  2  3  1  0  0  0  0
  3  4  1  0  0  0  0
  4  5  1  0  0  0  0
  5  6  1  0  0  0  0
  1  7  2  0  0  0  0
M  END
>  <cdx:groupId>
22

>  <cdx:fragmentId>
5

$$$$
