6185.cdx
  Mrv1902 05222410252D          

 28 29  0  0  0  0            999 V2000
    5.8007   -8.5263    0.0000 C   0  0  0  0  0  0  0  0  0  0  0  0
    5.0819   -8.9312    0.0000 C   0  0  0  0  0  0  0  0  0  0  0  0
    4.3718   -8.5112    0.0000 C   0  0  0  0  0  0  0  0  0  0  0  0
    3.6530   -8.9162    0.0000 C   0  0  0  0  0  0  0  0  0  0  0  0
    3.6444   -9.7412    0.0000 C   0  0  0  0  0  0  0  0  0  0  0  0
    4.3545  -10.1611    0.0000 C   0  0  0  0  0  0  0  0  0  0  0  0
    5.0732   -9.7562    0.0000 C   0  0  0  0  0  0  0  0  0  0  0  0
    2.9430   -8.4962    0.0000 O   0  0  0  0  0  0  0  0  0  0  0  0
    2.9256  -10.1461    0.0000 O   0  0  0  0  0  0  0  0  0  0  0  0
    4.3458  -10.9861    0.0000 O   0  0  0  0  0  0  0  0  0  0  0  0
    5.0559  -11.4061    0.0000 C   0  0  0  0  0  0  0  0  0  0  0  0
    2.9516   -7.6713    0.0000 C   0  0  0  0  0  0  0  0  0  0  0  0
    6.5108   -8.9463    0.0000 C   0  0  0  0  0  0  0  0  0  0  0  0
    7.2295   -8.5413    0.0000 C   0  0  0  0  0  0  0  0  0  0  0  0
    7.9396   -8.9613    0.0000 O   0  0  0  0  0  0  0  0  0  0  0  0
    7.2382   -7.7163    0.0000 O   0  0  0  0  0  0  0  0  0  0  0  0
    8.6584   -8.5563    0.0000 C   0  0  1  0  0  0  0  0  0  0  0  0
    9.3640   -8.9837    0.0000 C   0  0  1  0  0  0  0  0  0  0  0  0
   10.0870   -8.5864    0.0000 C   0  0  1  0  0  0  0  0  0  0  0  0
   10.0870   -7.7615    0.0000 C   0  0  0  0  0  0  0  0  0  0  0  0
    9.3640   -7.3341    0.0000 C   0  0  1  0  0  0  0  0  0  0  0  0
    8.6584   -7.7315    0.0000 C   0  0  0  0  0  0  0  0  0  0  0  0
    9.3467   -9.8086    0.0000 O   0  0  0  0  0  0  0  0  0  0  0  0
    8.9515   -6.6196    0.0000 O   0  0  0  0  0  0  0  0  0  0  0  0
    9.8450   -6.6825    0.0000 C   0  0  0  0  0  0  0  0  0  0  0  0
   10.6700   -6.6825    0.0000 O   0  0  0  0  0  0  0  0  0  0  0  0
    9.4325   -5.9680    0.0000 O   0  0  0  0  0  0  0  0  0  0  0  0
   10.7971   -9.0063    0.0000 O   0  0  0  0  0  0  0  0  0  0  0  0
  1  2  1  0  0  0  0
  2  3  2  0  0  0  0
  3  4  1  0  0  0  0
  4  5  2  0  0  0  0
  5  6  1  0  0  0  0
  6  7  2  0  0  0  0
  7  2  1  0  0  0  0
  4  8  1  0  0  0  0
  5  9  1  0  0  0  0
  6 10  1  0  0  0  0
 10 11  1  0  0  0  0
  8 12  1  0  0  0  0
  1 13  2  0  0  0  0
 13 14  1  0  0  0  0
 14 15  1  0  0  0  0
 14 16  2  0  0  0  0
 17 15  1  6  0  0  0
 17 18  1  0  0  0  0
 18 19  1  0  0  0  0
 19 20  1  0  0  0  0
 20 21  1  0  0  0  0
 21 22  1  0  0  0  0
 22 17  1  0  0  0  0
 18 23  1  1  0  0  0
 21 24  1  1  0  0  0
 21 25  1  0  0  0  0
 25 26  1  0  0  0  0
 25 27  2  0  0  0  0
 19 28  1  1  0  0  0
M  END
>  <cdx:fragmentId>
115

$$$$
