618899.cdx
  Mrv1902 05222410182D          

 70 77  0  0  0  0            999 V2000
   17.1965   -5.4493    0.0000 C   0  0  0  0  0  0  0  0  0  0  0  0
   16.9416   -6.2339    0.0000 C   0  0  0  0  0  0  0  0  0  0  0  0
   16.1346   -6.4055    0.0000 C   0  0  1  0  0  0  0  0  0  0  0  0
   15.5826   -5.7924    0.0000 C   0  0  0  0  0  0  0  0  0  0  0  0
   19.0654   -4.3216    0.0000 C   0  0  0  0  0  0  0  0  0  0  0  0
   13.6661   -8.2700    0.0000 C   0  0  2  0  0  0  0  0  0  0  0  0
   12.9516   -7.8575    0.0000 C   0  0  0  0  0  0  0  0  0  0  0  0
   12.9516   -8.6825    0.0000 C   0  0  1  0  0  0  0  0  0  0  0  0
   12.2371   -8.2700    0.0000 C   0  0  0  0  0  0  0  0  0  0  0  0
   11.5227   -8.6825    0.0000 C   0  0  0  0  0  0  0  0  0  0  0  0
   11.5227   -9.5075    0.0000 C   0  0  1  0  0  0  0  0  0  0  0  0
   12.2371   -9.9200    0.0000 C   0  0  0  0  0  0  0  0  0  0  0  0
   12.9516   -9.5075    0.0000 C   0  0  2  0  0  0  0  0  0  0  0  0
   13.6661   -9.9200    0.0000 C   0  0  0  0  0  0  0  0  0  0  0  0
   14.3806   -9.5075    0.0000 C   0  0  0  0  0  0  0  0  0  0  0  0
   14.3806   -8.6825    0.0000 C   0  0  1  0  0  0  0  0  0  0  0  0
   15.0950   -8.2700    0.0000 C   0  0  2  0  0  0  0  0  0  0  0  0
   15.8796   -8.5250    0.0000 C   0  0  0  0  0  0  0  0  0  0  0  0
   16.3646   -7.8575    0.0000 C   0  0  1  0  0  0  0  0  0  0  0  0
   15.8796   -7.1901    0.0000 C   0  0  1  0  0  0  0  0  0  0  0  0
   15.0950   -7.4450    0.0000 C   0  0  1  0  0  0  0  0  0  0  0  0
   14.3806   -7.0325    0.0000 C   0  0  0  0  0  0  0  0  0  0  0  0
   13.6661   -7.4450    0.0000 C   0  0  1  0  0  0  0  0  0  0  0  0
   15.1813   -6.6246    0.0000 C   0  0  0  0  0  0  0  0  0  0  0  0
   15.0950   -9.0950    0.0000 C   0  0  0  0  0  0  0  0  0  0  0  0
   12.6496  -10.6345    0.0000 C   0  0  0  0  0  0  0  0  0  0  0  0
   11.8246  -10.6345    0.0000 C   0  0  0  0  0  0  0  0  0  0  0  0
   12.9516   -7.0325    0.0000 O   0  0  0  0  0  0  0  0  0  0  0  0
   17.1896   -7.8575    0.0000 O   0  0  0  0  0  0  0  0  0  0  0  0
   10.8082   -9.9200    0.0000 O   0  0  0  0  0  0  0  0  0  0  0  0
   10.0937   -8.6825    0.0000 O   0  0  0  0  0  0  0  0  0  0  0  0
   10.0937   -9.5075    0.0000 C   0  0  2  0  0  0  0  0  0  0  0  0
    9.3793   -9.9200    0.0000 C   0  0  1  0  0  0  0  0  0  0  0  0
    8.6648   -9.5075    0.0000 C   0  0  2  0  0  0  0  0  0  0  0  0
    8.6648   -8.6825    0.0000 C   0  0  1  0  0  0  0  0  0  0  0  0
    9.3793   -8.2700    0.0000 C   0  0  1  0  0  0  0  0  0  0  0  0
    9.3793   -7.4450    0.0000 C   0  0  0  0  0  0  0  0  0  0  0  0
    8.6648   -7.0325    0.0000 O   0  0  0  0  0  0  0  0  0  0  0  0
    7.9503   -8.2700    0.0000 O   0  0  0  0  0  0  0  0  0  0  0  0
    9.3793  -10.7450    0.0000 O   0  0  0  0  0  0  0  0  0  0  0  0
    7.9503   -9.9200    0.0000 O   0  0  0  0  0  0  0  0  0  0  0  0
    7.2358   -8.6825    0.0000 O   0  0  0  0  0  0  0  0  0  0  0  0
    7.2358   -9.5075    0.0000 C   0  0  2  0  0  0  0  0  0  0  0  0
    6.5214   -9.9200    0.0000 C   0  0  1  0  0  0  0  0  0  0  0  0
    5.8069   -9.5075    0.0000 C   0  0  2  0  0  0  0  0  0  0  0  0
    5.8069   -8.6825    0.0000 C   0  0  1  0  0  0  0  0  0  0  0  0
    6.5214   -8.2700    0.0000 C   0  0  1  0  0  0  0  0  0  0  0  0
    6.5214  -10.7450    0.0000 O   0  0  0  0  0  0  0  0  0  0  0  0
    5.0924  -10.7450    0.0000 O   0  0  0  0  0  0  0  0  0  0  0  0
    5.8069  -11.1575    0.0000 C   0  0  2  0  0  0  0  0  0  0  0  0
    5.8069  -11.9825    0.0000 C   0  0  1  0  0  0  0  0  0  0  0  0
    5.0924  -12.3950    0.0000 C   0  0  2  0  0  0  0  0  0  0  0  0
    4.3780  -11.9825    0.0000 C   0  0  1  0  0  0  0  0  0  0  0  0
    4.3780  -11.1575    0.0000 C   0  0  1  0  0  0  0  0  0  0  0  0
    3.6635  -10.7450    0.0000 C   0  0  0  0  0  0  0  0  0  0  0  0
    2.9490  -11.1575    0.0000 O   0  0  0  0  0  0  0  0  0  0  0  0
    3.6635  -12.3950    0.0000 O   0  0  0  0  0  0  0  0  0  0  0  0
    5.0924  -13.2200    0.0000 O   0  0  0  0  0  0  0  0  0  0  0  0
    6.5214  -12.3950    0.0000 O   0  0  0  0  0  0  0  0  0  0  0  0
    6.5214   -7.4450    0.0000 C   0  0  0  0  0  0  0  0  0  0  0  0
    5.8069   -7.0325    0.0000 O   0  0  0  0  0  0  0  0  0  0  0  0
    5.0924   -8.2700    0.0000 O   0  0  0  0  0  0  0  0  0  0  0  0
    5.0924   -9.9200    0.0000 O   0  0  0  0  0  0  0  0  0  0  0  0
   12.9516  -10.3325    0.0000 H   0  0  0  0  0  0  0  0  0  0  0  0
   14.3806   -7.8575    0.0000 H   0  0  0  0  0  0  0  0  0  0  0  0
   18.5555   -5.8909    0.0000 O   0  0  0  0  0  0  0  0  0  0  0  0
   18.0035   -5.2778    0.0000 C   0  0  0  0  0  0  0  0  0  0  0  0
   18.2584   -4.4932    0.0000 C   0  0  0  0  0  0  0  0  0  0  0  0
   17.7064   -3.8801    0.0000 C   0  0  0  0  0  0  0  0  0  0  0  0
   16.6945   -7.0610    0.0000 H   0  0  0  0  0  0  0  0  0  0  0  0
 68  5  1  0  0  0  0
 67 66  2  0  0  0  0
 68 67  1  0  0  0  0
 69 68  1  0  0  0  0
 67  1  1  0  0  0  0
  1  2  1  0  0  0  0
  2  3  1  0  0  0  0
  3  4  1  6  0  0  0
  6  7  1  1  0  0  0
  8  7  1  1  0  0  0
  8  9  1  0  0  0  0
  9 10  1  0  0  0  0
 10 11  1  0  0  0  0
 11 12  1  0  0  0  0
 12 13  1  0  0  0  0
 13 14  1  0  0  0  0
 14 15  1  0  0  0  0
 15 16  1  0  0  0  0
 16 17  1  0  0  0  0
 17 18  1  0  0  0  0
 18 19  1  0  0  0  0
 19 20  1  0  0  0  0
 20 21  1  0  0  0  0
 21 22  1  0  0  0  0
 22 23  1  0  0  0  0
  6 23  1  0  0  0  0
  6 16  1  0  0  0  0
 17 21  1  0  0  0  0
  8 13  1  0  0  0  0
  6  8  1  0  0  0  0
 21 24  1  1  0  0  0
 17 25  1  6  0  0  0
 12 26  1  0  0  0  0
 12 27  1  0  0  0  0
 23 28  1  6  0  0  0
 19 29  1  1  0  0  0
 31 32  1  0  0  0  0
 32 33  1  0  0  0  0
 33 34  1  0  0  0  0
 34 35  1  0  0  0  0
 35 36  1  0  0  0  0
 31 36  1  0  0  0  0
 37 38  1  0  0  0  0
 36 37  1  1  0  0  0
 35 39  1  6  0  0  0
 33 40  1  6  0  0  0
 42 43  1  0  0  0  0
 43 44  1  0  0  0  0
 44 45  1  0  0  0  0
 45 46  1  0  0  0  0
 46 47  1  0  0  0  0
 42 47  1  0  0  0  0
 49 50  1  0  0  0  0
 50 51  1  0  0  0  0
 51 52  1  0  0  0  0
 52 53  1  0  0  0  0
 53 54  1  0  0  0  0
 49 54  1  0  0  0  0
 55 56  1  0  0  0  0
 54 55  1  1  0  0  0
 53 57  1  6  0  0  0
 52 58  1  1  0  0  0
 51 59  1  6  0  0  0
 50 48  1  1  0  0  0
 44 48  1  6  0  0  0
 60 61  1  0  0  0  0
 47 60  1  1  0  0  0
 46 62  1  6  0  0  0
 45 63  1  1  0  0  0
 43 41  1  1  0  0  0
 34 41  1  1  0  0  0
 32 30  1  1  0  0  0
 11 30  1  1  0  0  0
 20  3  1  0  0  0  0
 13 64  1  6  0  0  0
 16 65  1  1  0  0  0
 20 70  1  6  0  0  0
M  END
>  <cdx:fragmentId>
109

$$$$
