618896.cdx
  Mrv1902 05222410272D          

 57 63  0  0  0  0            999 V2000
   10.9419   -6.0691    0.0000 C   0  0  0  0  0  0  0  0  0  0  0  0
   10.6870   -6.8538    0.0000 C   0  0  0  0  0  0  0  0  0  0  0  0
    9.8800   -7.0253    0.0000 C   0  0  1  0  0  0  0  0  0  0  0  0
    9.3280   -6.4122    0.0000 C   0  0  0  0  0  0  0  0  0  0  0  0
   12.8108   -4.9415    0.0000 C   0  0  0  0  0  0  0  0  0  0  0  0
    7.4115   -8.8898    0.0000 C   0  0  2  0  0  0  0  0  0  0  0  0
    6.6971   -8.4773    0.0000 C   0  0  0  0  0  0  0  0  0  0  0  0
    6.6971   -9.3023    0.0000 C   0  0  1  0  0  0  0  0  0  0  0  0
    5.9826   -8.8898    0.0000 C   0  0  0  0  0  0  0  0  0  0  0  0
    5.2681   -9.3023    0.0000 C   0  0  0  0  0  0  0  0  0  0  0  0
    5.2681  -10.1273    0.0000 C   0  0  1  0  0  0  0  0  0  0  0  0
    5.9826  -10.5398    0.0000 C   0  0  0  0  0  0  0  0  0  0  0  0
    6.6971  -10.1273    0.0000 C   0  0  2  0  0  0  0  0  0  0  0  0
    7.4115  -10.5398    0.0000 C   0  0  0  0  0  0  0  0  0  0  0  0
    8.1260  -10.1273    0.0000 C   0  0  0  0  0  0  0  0  0  0  0  0
    8.1260   -9.3023    0.0000 C   0  0  1  0  0  0  0  0  0  0  0  0
    8.8405   -8.8898    0.0000 C   0  0  2  0  0  0  0  0  0  0  0  0
    9.6251   -9.1448    0.0000 C   0  0  0  0  0  0  0  0  0  0  0  0
   10.1100   -8.4773    0.0000 C   0  0  1  0  0  0  0  0  0  0  0  0
    9.6251   -7.8099    0.0000 C   0  0  1  0  0  0  0  0  0  0  0  0
    8.8405   -8.0648    0.0000 C   0  0  1  0  0  0  0  0  0  0  0  0
    8.1260   -7.6523    0.0000 C   0  0  0  0  0  0  0  0  0  0  0  0
    7.4115   -8.0648    0.0000 C   0  0  1  0  0  0  0  0  0  0  0  0
   10.9350   -8.4773    0.0000 O   0  0  0  0  0  0  0  0  0  0  0  0
   10.9350   -9.9063    0.0000 O   0  0  0  0  0  0  0  0  0  0  0  0
   11.3475   -9.1918    0.0000 C   0  0  2  0  0  0  0  0  0  0  0  0
   12.1725   -9.1918    0.0000 C   0  0  1  0  0  0  0  0  0  0  0  0
   12.5850   -9.9063    0.0000 C   0  0  2  0  0  0  0  0  0  0  0  0
   12.1725  -10.6208    0.0000 C   0  0  2  0  0  0  0  0  0  0  0  0
   11.3475  -10.6208    0.0000 C   0  0  0  0  0  0  0  0  0  0  0  0
   12.5850  -11.3352    0.0000 O   0  0  0  0  0  0  0  0  0  0  0  0
   13.4100   -9.9063    0.0000 O   0  0  0  0  0  0  0  0  0  0  0  0
   12.5850   -8.4773    0.0000 O   0  0  0  0  0  0  0  0  0  0  0  0
    8.9267   -7.2444    0.0000 C   0  0  0  0  0  0  0  0  0  0  0  0
    8.8405   -9.7148    0.0000 C   0  0  0  0  0  0  0  0  0  0  0  0
    6.3951  -11.2543    0.0000 C   0  0  0  0  0  0  0  0  0  0  0  0
    5.5701  -11.2543    0.0000 C   0  0  0  0  0  0  0  0  0  0  0  0
    6.6971   -7.6523    0.0000 O   0  0  0  0  0  0  0  0  0  0  0  0
    6.6971  -10.9523    0.0000 H   0  0  0  0  0  0  0  0  0  0  0  0
    8.1260   -8.4773    0.0000 H   0  0  0  0  0  0  0  0  0  0  0  0
   12.3009   -6.5107    0.0000 O   0  0  0  0  0  0  0  0  0  0  0  0
   11.7489   -5.8976    0.0000 C   0  0  0  0  0  0  0  0  0  0  0  0
   12.0038   -5.1130    0.0000 C   0  0  0  0  0  0  0  0  0  0  0  0
   11.4518   -4.4999    0.0000 C   0  0  0  0  0  0  0  0  0  0  0  0
    3.1245  -11.3645    0.0000 O   0  0  0  0  0  0  0  0  0  0  0  0
    1.6958  -10.5392    0.0000 O   0  0  0  0  0  0  0  0  0  0  0  0
    1.6961   -8.8892    0.0000 O   0  0  0  0  0  0  0  0  0  0  0  0
    2.4109   -7.6519    0.0000 O   0  0  0  0  0  0  0  0  0  0  0  0
    3.1253   -8.0645    0.0000 C   0  0  0  0  0  0  0  0  0  0  0  0
    3.1251   -8.8895    0.0000 C   0  0  2  0  0  0  0  0  0  0  0  0
    2.4105   -9.3019    0.0000 C   0  0  2  0  0  0  0  0  0  0  0  0
    2.4103  -10.1269    0.0000 C   0  0  1  0  0  0  0  0  0  0  0  0
    3.1247  -10.5395    0.0000 C   0  0  2  0  0  0  0  0  0  0  0  0
    3.8393  -10.1272    0.0000 C   0  0  1  0  0  0  0  0  0  0  0  0
    3.8394   -9.3022    0.0000 O   0  0  0  0  0  0  0  0  0  0  0  0
    4.5536  -10.5398    0.0000 O   0  0  0  0  0  0  0  0  0  0  0  0
   10.4399   -7.6808    0.0000 H   0  0  0  0  0  0  0  0  0  0  0  0
 43  5  1  0  0  0  0
 42 41  2  0  0  0  0
 43 42  1  0  0  0  0
 44 43  1  0  0  0  0
 54 56  1  1  0  0  0
 53 45  1  6  0  0  0
 52 46  1  1  0  0  0
 51 47  1  6  0  0  0
 50 49  1  1  0  0  0
 49 48  1  0  0  0  0
 55 50  1  0  0  0  0
 51 50  1  0  0  0  0
 52 51  1  0  0  0  0
 53 52  1  0  0  0  0
 54 53  1  0  0  0  0
 55 54  1  0  0  0  0
 42  1  1  0  0  0  0
  1  2  1  0  0  0  0
  2  3  1  0  0  0  0
  3  4  1  6  0  0  0
  6  7  1  1  0  0  0
  8  7  1  1  0  0  0
  8  9  1  0  0  0  0
  9 10  1  0  0  0  0
 10 11  1  0  0  0  0
 11 12  1  0  0  0  0
 12 13  1  0  0  0  0
 13 14  1  0  0  0  0
 14 15  1  0  0  0  0
 15 16  1  0  0  0  0
 16 17  1  0  0  0  0
 17 18  1  0  0  0  0
 18 19  1  0  0  0  0
 19 20  1  0  0  0  0
 20 21  1  0  0  0  0
 21 22  1  0  0  0  0
 22 23  1  0  0  0  0
  6 23  1  0  0  0  0
  6 16  1  0  0  0  0
 17 21  1  0  0  0  0
  8 13  1  0  0  0  0
  6  8  1  0  0  0  0
 25 26  1  0  0  0  0
 26 27  1  0  0  0  0
 27 28  1  0  0  0  0
 28 29  1  0  0  0  0
 29 30  1  0  0  0  0
 25 30  1  0  0  0  0
 29 31  1  1  0  0  0
 28 32  1  1  0  0  0
 27 33  1  6  0  0  0
 26 24  1  1  0  0  0
 19 24  1  1  0  0  0
 11 56  1  1  0  0  0
 21 34  1  1  0  0  0
 17 35  1  6  0  0  0
 12 36  1  0  0  0  0
 12 37  1  0  0  0  0
 23 38  1  6  0  0  0
 20  3  1  0  0  0  0
 13 39  1  6  0  0  0
 16 40  1  1  0  0  0
 20 57  1  6  0  0  0
M  END
>  <cdx:fragmentId>
23

$$$$
