618894.cdx
  Mrv1902 05222410282D          

 48 53  0  0  0  0            999 V2000
   11.1618   -5.7762    0.0000 C   0  0  0  0  0  0  0  0  0  0  0  0
   10.9069   -6.5608    0.0000 C   0  0  0  0  0  0  0  0  0  0  0  0
   10.0999   -6.7323    0.0000 C   0  0  1  0  0  0  0  0  0  0  0  0
    9.5479   -6.1192    0.0000 C   0  0  0  0  0  0  0  0  0  0  0  0
   13.0307   -4.6485    0.0000 C   0  0  0  0  0  0  0  0  0  0  0  0
    7.6314   -8.5969    0.0000 C   0  0  2  0  0  0  0  0  0  0  0  0
    6.9169   -8.1844    0.0000 C   0  0  0  0  0  0  0  0  0  0  0  0
    6.9169   -9.0094    0.0000 C   0  0  1  0  0  0  0  0  0  0  0  0
    6.2025   -8.5969    0.0000 C   0  0  0  0  0  0  0  0  0  0  0  0
    5.4880   -9.0094    0.0000 C   0  0  0  0  0  0  0  0  0  0  0  0
    5.4880   -9.8344    0.0000 C   0  0  1  0  0  0  0  0  0  0  0  0
    6.2025  -10.2469    0.0000 C   0  0  0  0  0  0  0  0  0  0  0  0
    6.9169   -9.8344    0.0000 C   0  0  2  0  0  0  0  0  0  0  0  0
    7.6314  -10.2469    0.0000 C   0  0  0  0  0  0  0  0  0  0  0  0
    8.3459   -9.8344    0.0000 C   0  0  0  0  0  0  0  0  0  0  0  0
    8.3459   -9.0094    0.0000 C   0  0  1  0  0  0  0  0  0  0  0  0
    9.0604   -8.5969    0.0000 C   0  0  2  0  0  0  0  0  0  0  0  0
    9.8450   -8.8518    0.0000 C   0  0  0  0  0  0  0  0  0  0  0  0
   10.3299   -8.1844    0.0000 C   0  0  1  0  0  0  0  0  0  0  0  0
    9.8450   -7.5169    0.0000 C   0  0  1  0  0  0  0  0  0  0  0  0
    9.0604   -7.7719    0.0000 C   0  0  1  0  0  0  0  0  0  0  0  0
    8.3459   -7.3594    0.0000 C   0  0  0  0  0  0  0  0  0  0  0  0
    7.6314   -7.7719    0.0000 C   0  0  1  0  0  0  0  0  0  0  0  0
    9.1466   -6.9514    0.0000 C   0  0  0  0  0  0  0  0  0  0  0  0
    9.0604   -9.4219    0.0000 C   0  0  0  0  0  0  0  0  0  0  0  0
    6.6150  -10.9613    0.0000 C   0  0  0  0  0  0  0  0  0  0  0  0
    5.7900  -10.9613    0.0000 C   0  0  0  0  0  0  0  0  0  0  0  0
    6.9169   -7.3594    0.0000 O   0  0  0  0  0  0  0  0  0  0  0  0
   11.1549   -8.1844    0.0000 O   0  0  0  0  0  0  0  0  0  0  0  0
    6.9169  -10.6594    0.0000 H   0  0  0  0  0  0  0  0  0  0  0  0
    8.3459   -8.1844    0.0000 H   0  0  0  0  0  0  0  0  0  0  0  0
   12.5208   -6.2177    0.0000 O   0  0  0  0  0  0  0  0  0  0  0  0
   11.9688   -5.6046    0.0000 C   0  0  0  0  0  0  0  0  0  0  0  0
   12.2237   -4.8200    0.0000 C   0  0  0  0  0  0  0  0  0  0  0  0
   11.6717   -4.2069    0.0000 C   0  0  0  0  0  0  0  0  0  0  0  0
    3.3444  -11.0715    0.0000 O   0  0  0  0  0  0  0  0  0  0  0  0
    1.9157  -10.2461    0.0000 O   0  0  0  0  0  0  0  0  0  0  0  0
    1.9161   -8.5961    0.0000 O   0  0  0  0  0  0  0  0  0  0  0  0
    2.6308   -7.3588    0.0000 O   0  0  0  0  0  0  0  0  0  0  0  0
    3.3452   -7.7715    0.0000 C   0  0  0  0  0  0  0  0  0  0  0  0
    3.3450   -8.5965    0.0000 C   0  0  2  0  0  0  0  0  0  0  0  0
    2.6304   -9.0088    0.0000 C   0  0  2  0  0  0  0  0  0  0  0  0
    2.6302   -9.8338    0.0000 C   0  0  1  0  0  0  0  0  0  0  0  0
    3.3446  -10.2465    0.0000 C   0  0  2  0  0  0  0  0  0  0  0  0
    4.0592   -9.8342    0.0000 C   0  0  1  0  0  0  0  0  0  0  0  0
    4.0594   -9.0092    0.0000 O   0  0  0  0  0  0  0  0  0  0  0  0
    4.7735  -10.2469    0.0000 O   0  0  0  0  0  0  0  0  0  0  0  0
   10.6419   -7.3034    0.0000 H   0  0  0  0  0  0  0  0  0  0  0  0
 34  5  1  0  0  0  0
 33 32  2  0  0  0  0
 34 33  1  0  0  0  0
 35 34  1  0  0  0  0
 45 47  1  1  0  0  0
 44 36  1  6  0  0  0
 43 37  1  1  0  0  0
 42 38  1  6  0  0  0
 41 40  1  1  0  0  0
 40 39  1  0  0  0  0
 46 41  1  0  0  0  0
 42 41  1  0  0  0  0
 43 42  1  0  0  0  0
 44 43  1  0  0  0  0
 45 44  1  0  0  0  0
 46 45  1  0  0  0  0
 33  1  1  0  0  0  0
  1  2  1  0  0  0  0
  2  3  1  0  0  0  0
  3  4  1  6  0  0  0
  6  7  1  1  0  0  0
  8  7  1  1  0  0  0
  8  9  1  0  0  0  0
  9 10  1  0  0  0  0
 10 11  1  0  0  0  0
 11 12  1  0  0  0  0
 12 13  1  0  0  0  0
 13 14  1  0  0  0  0
 14 15  1  0  0  0  0
 15 16  1  0  0  0  0
 16 17  1  0  0  0  0
 17 18  1  0  0  0  0
 18 19  1  0  0  0  0
 19 20  1  0  0  0  0
 20 21  1  0  0  0  0
 21 22  1  0  0  0  0
 22 23  1  0  0  0  0
  6 23  1  0  0  0  0
  6 16  1  0  0  0  0
 17 21  1  0  0  0  0
  8 13  1  0  0  0  0
  6  8  1  0  0  0  0
 11 47  1  1  0  0  0
 21 24  1  1  0  0  0
 17 25  1  6  0  0  0
 12 26  1  0  0  0  0
 12 27  1  0  0  0  0
 23 28  1  6  0  0  0
 19 29  1  1  0  0  0
 20  3  1  0  0  0  0
 13 30  1  6  0  0  0
 16 31  1  1  0  0  0
 20 48  1  6  0  0  0
M  END
>  <cdx:fragmentId>
23

$$$$
