618834.cdx
  Mrv1902 05222410252D          

 18 19  0  0  0  0            999 V2000
   11.2890   -5.5423    0.0000 C   0  0  0  0  0  0  0  0  0  0  0  0
    7.0021   -7.1923    0.0000 F   0  0  0  0  0  0  0  0  0  0  0  0
    6.2877   -6.7798    0.0000 C   0  0  0  0  0  0  0  0  0  0  0  0
    5.5732   -7.1923    0.0000 C   0  0  0  0  0  0  0  0  0  0  0  0
    4.8587   -6.7798    0.0000 C   0  0  0  0  0  0  0  0  0  0  0  0
    4.8587   -5.9548    0.0000 C   0  0  0  0  0  0  0  0  0  0  0  0
    5.5732   -5.5423    0.0000 C   0  0  0  0  0  0  0  0  0  0  0  0
    6.2877   -5.9548    0.0000 C   0  0  0  0  0  0  0  0  0  0  0  0
    7.0021   -5.5423    0.0000 O   0  0  0  0  0  0  0  0  0  0  0  0
   10.5745   -5.9548    0.0000 O   0  0  0  0  0  0  0  0  0  0  0  0
    9.8600   -4.7173    0.0000 O   0  0  0  0  0  0  0  0  0  0  0  0
    9.1455   -6.7798    0.0000 C   0  0  0  0  0  0  0  0  0  0  0  0
    8.4311   -7.1923    0.0000 C   0  0  0  0  0  0  0  0  0  0  0  0
    7.7166   -6.7798    0.0000 C   0  0  0  0  0  0  0  0  0  0  0  0
    7.7166   -5.9548    0.0000 C   0  0  0  0  0  0  0  0  0  0  0  0
    8.4311   -5.5423    0.0000 C   0  0  0  0  0  0  0  0  0  0  0  0
    9.1455   -5.9548    0.0000 C   0  0  0  0  0  0  0  0  0  0  0  0
    9.8600   -5.5423    0.0000 C   0  0  0  0  0  0  0  0  0  0  0  0
 10  1  1  0  0  0  0
 14  2  1  0  0  0  0
 15  9  1  0  0  0  0
  9  8  1  0  0  0  0
  8  3  2  0  0  0  0
  4  3  1  0  0  0  0
  5  4  2  0  0  0  0
  6  5  1  0  0  0  0
  7  6  2  0  0  0  0
  8  7  1  0  0  0  0
 18 10  1  0  0  0  0
 18 11  2  0  0  0  0
 17 12  2  0  0  0  0
 13 12  1  0  0  0  0
 14 13  2  0  0  0  0
 15 14  1  0  0  0  0
 16 15  2  0  0  0  0
 17 16  1  0  0  0  0
 18 17  1  0  0  0  0
M  END
>  <cdx:fragmentId>
9023

$$$$
