618898.cdx
  Mrv1902 05222410182D          

 68 75  0  0  0  0            999 V2000
   11.2857   -4.8866    0.0000 C   0  0  0  0  0  0  0  0  0  0  0  0
   11.0308   -5.6713    0.0000 C   0  0  0  0  0  0  0  0  0  0  0  0
   10.2238   -5.8428    0.0000 C   0  0  1  0  0  0  0  0  0  0  0  0
    9.6717   -5.2297    0.0000 C   0  0  0  0  0  0  0  0  0  0  0  0
   13.1546   -3.7590    0.0000 C   0  0  0  0  0  0  0  0  0  0  0  0
    7.7553   -7.7073    0.0000 C   0  0  2  0  0  0  0  0  0  0  0  0
    7.0408   -7.2948    0.0000 C   0  0  0  0  0  0  0  0  0  0  0  0
    7.0408   -8.1198    0.0000 C   0  0  1  0  0  0  0  0  0  0  0  0
    6.3263   -7.7073    0.0000 C   0  0  0  0  0  0  0  0  0  0  0  0
    5.6119   -8.1198    0.0000 C   0  0  0  0  0  0  0  0  0  0  0  0
    5.6119   -8.9448    0.0000 C   0  0  1  0  0  0  0  0  0  0  0  0
    6.3263   -9.3573    0.0000 C   0  0  0  0  0  0  0  0  0  0  0  0
    7.0408   -8.9448    0.0000 C   0  0  2  0  0  0  0  0  0  0  0  0
    7.7553   -9.3573    0.0000 C   0  0  0  0  0  0  0  0  0  0  0  0
    8.4697   -8.9448    0.0000 C   0  0  0  0  0  0  0  0  0  0  0  0
    8.4697   -8.1198    0.0000 C   0  0  1  0  0  0  0  0  0  0  0  0
    9.1842   -7.7073    0.0000 C   0  0  2  0  0  0  0  0  0  0  0  0
    9.9688   -7.9623    0.0000 C   0  0  0  0  0  0  0  0  0  0  0  0
   10.4538   -7.2948    0.0000 C   0  0  1  0  0  0  0  0  0  0  0  0
    9.9688   -6.6274    0.0000 C   0  0  1  0  0  0  0  0  0  0  0  0
    9.1842   -6.8823    0.0000 C   0  0  1  0  0  0  0  0  0  0  0  0
    8.4697   -6.4698    0.0000 C   0  0  0  0  0  0  0  0  0  0  0  0
    7.7553   -6.8823    0.0000 C   0  0  1  0  0  0  0  0  0  0  0  0
   11.2788   -7.2948    0.0000 O   0  0  0  0  0  0  0  0  0  0  0  0
   11.2788   -8.7238    0.0000 O   0  0  0  0  0  0  0  0  0  0  0  0
   11.6913   -8.0093    0.0000 C   0  0  2  0  0  0  0  0  0  0  0  0
   12.5163   -8.0093    0.0000 C   0  0  1  0  0  0  0  0  0  0  0  0
   12.9288   -8.7238    0.0000 C   0  0  2  0  0  0  0  0  0  0  0  0
   12.5163   -9.4383    0.0000 C   0  0  2  0  0  0  0  0  0  0  0  0
   11.6913   -9.4383    0.0000 C   0  0  0  0  0  0  0  0  0  0  0  0
   12.9288  -10.1527    0.0000 O   0  0  0  0  0  0  0  0  0  0  0  0
   13.7538   -8.7238    0.0000 O   0  0  0  0  0  0  0  0  0  0  0  0
   12.9288   -7.2948    0.0000 O   0  0  0  0  0  0  0  0  0  0  0  0
    9.2705   -6.0619    0.0000 C   0  0  0  0  0  0  0  0  0  0  0  0
    9.1842   -8.5323    0.0000 C   0  0  0  0  0  0  0  0  0  0  0  0
    6.7388  -10.0718    0.0000 C   0  0  0  0  0  0  0  0  0  0  0  0
    5.9138  -10.0718    0.0000 C   0  0  0  0  0  0  0  0  0  0  0  0
    7.0408   -6.4698    0.0000 O   0  0  0  0  0  0  0  0  0  0  0  0
    7.0408   -9.7698    0.0000 H   0  0  0  0  0  0  0  0  0  0  0  0
    8.4697   -7.2948    0.0000 H   0  0  0  0  0  0  0  0  0  0  0  0
   12.6447   -5.3282    0.0000 O   0  0  0  0  0  0  0  0  0  0  0  0
   12.0927   -4.7151    0.0000 C   0  0  0  0  0  0  0  0  0  0  0  0
   12.3476   -3.9305    0.0000 C   0  0  0  0  0  0  0  0  0  0  0  0
   11.7956   -3.3174    0.0000 C   0  0  0  0  0  0  0  0  0  0  0  0
    2.0395   -9.3570    0.0000 O   0  0  0  0  0  0  0  0  0  0  0  0
    2.0397   -7.7070    0.0000 O   0  0  0  0  0  0  0  0  0  0  0  0
    2.7543   -6.4696    0.0000 O   0  0  0  0  0  0  0  0  0  0  0  0
    3.4687   -6.8822    0.0000 C   0  0  0  0  0  0  0  0  0  0  0  0
    3.4682  -11.8322    0.0000 O   0  0  0  0  0  0  0  0  0  0  0  0
    2.0391  -12.6570    0.0000 O   0  0  0  0  0  0  0  0  0  0  0  0
    0.6103  -11.8319    0.0000 O   0  0  0  0  0  0  0  0  0  0  0  0
    0.6106   -9.3569    0.0000 O   0  0  0  0  0  0  0  0  0  0  0  0
    0.6105  -10.1819    0.0000 C   0  0  0  0  0  0  0  0  0  0  0  0
    1.3249  -10.5944    0.0000 C   0  0  2  0  0  0  0  0  0  0  0  0
    1.3248  -11.4194    0.0000 C   0  0  2  0  0  0  0  0  0  0  0  0
    2.0392  -11.8320    0.0000 C   0  0  1  0  0  0  0  0  0  0  0  0
    2.7537  -11.4196    0.0000 C   0  0  2  0  0  0  0  0  0  0  0  0
    2.7538  -10.5946    0.0000 C   0  0  1  0  0  0  0  0  0  0  0  0
    2.0394  -10.1820    0.0000 O   0  0  0  0  0  0  0  0  0  0  0  0
    3.4684  -10.1822    0.0000 O   0  0  0  0  0  0  0  0  0  0  0  0
    3.4686   -7.7072    0.0000 C   0  0  2  0  0  0  0  0  0  0  0  0
    2.7541   -8.1196    0.0000 C   0  0  2  0  0  0  0  0  0  0  0  0
    2.7540   -8.9446    0.0000 C   0  0  1  0  0  0  0  0  0  0  0  0
    3.4685   -9.3572    0.0000 C   0  0  2  0  0  0  0  0  0  0  0  0
    4.1830   -8.9448    0.0000 C   0  0  1  0  0  0  0  0  0  0  0  0
    4.1831   -8.1198    0.0000 O   0  0  0  0  0  0  0  0  0  0  0  0
    4.8974   -9.3573    0.0000 O   0  0  0  0  0  0  0  0  0  0  0  0
   10.7837   -6.4983    0.0000 H   0  0  0  0  0  0  0  0  0  0  0  0
 43  5  1  0  0  0  0
 42 41  2  0  0  0  0
 43 42  1  0  0  0  0
 44 43  1  0  0  0  0
 65 67  1  1  0  0  0
 63 45  1  1  0  0  0
 62 46  1  6  0  0  0
 61 48  1  1  0  0  0
 48 47  1  0  0  0  0
 64 60  1  6  0  0  0
 58 60  1  1  0  0  0
 57 49  1  6  0  0  0
 56 50  1  1  0  0  0
 55 51  1  6  0  0  0
 54 53  1  1  0  0  0
 53 52  1  0  0  0  0
 59 54  1  0  0  0  0
 55 54  1  0  0  0  0
 56 55  1  0  0  0  0
 57 56  1  0  0  0  0
 58 57  1  0  0  0  0
 59 58  1  0  0  0  0
 66 61  1  0  0  0  0
 62 61  1  0  0  0  0
 63 62  1  0  0  0  0
 64 63  1  0  0  0  0
 65 64  1  0  0  0  0
 42  1  1  0  0  0  0
  1  2  1  0  0  0  0
  2  3  1  0  0  0  0
  3  4  1  6  0  0  0
  6  7  1  1  0  0  0
  8  7  1  1  0  0  0
  8  9  1  0  0  0  0
  9 10  1  0  0  0  0
 10 11  1  0  0  0  0
 11 12  1  0  0  0  0
 12 13  1  0  0  0  0
 13 14  1  0  0  0  0
 14 15  1  0  0  0  0
 15 16  1  0  0  0  0
 16 17  1  0  0  0  0
 17 18  1  0  0  0  0
 18 19  1  0  0  0  0
 19 20  1  0  0  0  0
 20 21  1  0  0  0  0
 21 22  1  0  0  0  0
 22 23  1  0  0  0  0
  6 23  1  0  0  0  0
  6 16  1  0  0  0  0
 17 21  1  0  0  0  0
  8 13  1  0  0  0  0
  6  8  1  0  0  0  0
 25 26  1  0  0  0  0
 26 27  1  0  0  0  0
 27 28  1  0  0  0  0
 28 29  1  0  0  0  0
 29 30  1  0  0  0  0
 25 30  1  0  0  0  0
 29 31  1  1  0  0  0
 28 32  1  1  0  0  0
 27 33  1  6  0  0  0
 26 24  1  1  0  0  0
 19 24  1  1  0  0  0
 21 34  1  1  0  0  0
 17 35  1  6  0  0  0
 12 36  1  0  0  0  0
 12 37  1  0  0  0  0
 23 38  1  6  0  0  0
 66 65  1  0  0  0  0
 11 67  1  1  0  0  0
 20  3  1  0  0  0  0
 13 39  1  6  0  0  0
 16 40  1  1  0  0  0
 20 68  1  6  0  0  0
M  END
>  <cdx:fragmentId>
23

$$$$
