618895.cdx
  Mrv1902 05222410282D          

 46 51  0  0  0  0            999 V2000
    9.1558   -6.0691    0.0000 C   0  0  0  0  0  0  0  0  0  0  0  0
    8.9008   -6.8538    0.0000 C   0  0  0  0  0  0  0  0  0  0  0  0
    8.0939   -7.0253    0.0000 C   0  0  1  0  0  0  0  0  0  0  0  0
    7.5418   -6.4122    0.0000 C   0  0  0  0  0  0  0  0  0  0  0  0
   11.0246   -4.9415    0.0000 C   0  0  0  0  0  0  0  0  0  0  0  0
    5.6253   -8.8898    0.0000 C   0  0  2  0  0  0  0  0  0  0  0  0
    4.9109   -8.4773    0.0000 C   0  0  0  0  0  0  0  0  0  0  0  0
    4.9109   -9.3023    0.0000 C   0  0  1  0  0  0  0  0  0  0  0  0
    4.1964   -8.8898    0.0000 C   0  0  0  0  0  0  0  0  0  0  0  0
    3.4819   -9.3023    0.0000 C   0  0  0  0  0  0  0  0  0  0  0  0
    3.4819  -10.1273    0.0000 C   0  0  1  0  0  0  0  0  0  0  0  0
    4.1964  -10.5398    0.0000 C   0  0  0  0  0  0  0  0  0  0  0  0
    4.9109  -10.1273    0.0000 C   0  0  2  0  0  0  0  0  0  0  0  0
    5.6253  -10.5398    0.0000 C   0  0  0  0  0  0  0  0  0  0  0  0
    6.3398  -10.1273    0.0000 C   0  0  0  0  0  0  0  0  0  0  0  0
    6.3398   -9.3023    0.0000 C   0  0  1  0  0  0  0  0  0  0  0  0
    7.0543   -8.8898    0.0000 C   0  0  2  0  0  0  0  0  0  0  0  0
    7.8389   -9.1448    0.0000 C   0  0  0  0  0  0  0  0  0  0  0  0
    8.3238   -8.4773    0.0000 C   0  0  1  0  0  0  0  0  0  0  0  0
    7.8389   -7.8099    0.0000 C   0  0  1  0  0  0  0  0  0  0  0  0
    7.0543   -8.0648    0.0000 C   0  0  1  0  0  0  0  0  0  0  0  0
    6.3398   -7.6523    0.0000 C   0  0  0  0  0  0  0  0  0  0  0  0
    5.6253   -8.0648    0.0000 C   0  0  1  0  0  0  0  0  0  0  0  0
    9.1488   -8.4773    0.0000 O   0  0  0  0  0  0  0  0  0  0  0  0
    9.1488   -9.9063    0.0000 O   0  0  0  0  0  0  0  0  0  0  0  0
    9.5613   -9.1918    0.0000 C   0  0  2  0  0  0  0  0  0  0  0  0
   10.3863   -9.1918    0.0000 C   0  0  1  0  0  0  0  0  0  0  0  0
   10.7988   -9.9063    0.0000 C   0  0  2  0  0  0  0  0  0  0  0  0
   10.3863  -10.6208    0.0000 C   0  0  2  0  0  0  0  0  0  0  0  0
    9.5613  -10.6208    0.0000 C   0  0  0  0  0  0  0  0  0  0  0  0
   10.7988  -11.3352    0.0000 O   0  0  0  0  0  0  0  0  0  0  0  0
   11.6238   -9.9063    0.0000 O   0  0  0  0  0  0  0  0  0  0  0  0
   10.7988   -8.4773    0.0000 O   0  0  0  0  0  0  0  0  0  0  0  0
    7.1405   -7.2444    0.0000 C   0  0  0  0  0  0  0  0  0  0  0  0
    7.0543   -9.7148    0.0000 C   0  0  0  0  0  0  0  0  0  0  0  0
    4.6089  -11.2543    0.0000 C   0  0  0  0  0  0  0  0  0  0  0  0
    3.7839  -11.2543    0.0000 C   0  0  0  0  0  0  0  0  0  0  0  0
    4.9109   -7.6523    0.0000 O   0  0  0  0  0  0  0  0  0  0  0  0
    2.7675  -10.5398    0.0000 O   0  0  0  0  0  0  0  0  0  0  0  0
    4.9109  -10.9523    0.0000 H   0  0  0  0  0  0  0  0  0  0  0  0
    6.3398   -8.4773    0.0000 H   0  0  0  0  0  0  0  0  0  0  0  0
   10.5148   -6.5107    0.0000 O   0  0  0  0  0  0  0  0  0  0  0  0
    9.9627   -5.8976    0.0000 C   0  0  0  0  0  0  0  0  0  0  0  0
   10.2177   -5.1130    0.0000 C   0  0  0  0  0  0  0  0  0  0  0  0
    9.6656   -4.4999    0.0000 C   0  0  0  0  0  0  0  0  0  0  0  0
    8.6538   -7.6808    0.0000 H   0  0  0  0  0  0  0  0  0  0  0  0
 44  5  1  0  0  0  0
 43 42  2  0  0  0  0
 44 43  1  0  0  0  0
 45 44  1  0  0  0  0
 43  1  1  0  0  0  0
  1  2  1  0  0  0  0
  2  3  1  0  0  0  0
  3  4  1  6  0  0  0
  6  7  1  1  0  0  0
  8  7  1  1  0  0  0
  8  9  1  0  0  0  0
  9 10  1  0  0  0  0
 10 11  1  0  0  0  0
 11 12  1  0  0  0  0
 12 13  1  0  0  0  0
 13 14  1  0  0  0  0
 14 15  1  0  0  0  0
 15 16  1  0  0  0  0
 16 17  1  0  0  0  0
 17 18  1  0  0  0  0
 18 19  1  0  0  0  0
 19 20  1  0  0  0  0
 20 21  1  0  0  0  0
 21 22  1  0  0  0  0
 22 23  1  0  0  0  0
  6 23  1  0  0  0  0
  6 16  1  0  0  0  0
 17 21  1  0  0  0  0
  8 13  1  0  0  0  0
  6  8  1  0  0  0  0
 25 26  1  0  0  0  0
 26 27  1  0  0  0  0
 27 28  1  0  0  0  0
 28 29  1  0  0  0  0
 29 30  1  0  0  0  0
 25 30  1  0  0  0  0
 29 31  1  1  0  0  0
 28 32  1  1  0  0  0
 27 33  1  6  0  0  0
 26 24  1  1  0  0  0
 19 24  1  1  0  0  0
 21 34  1  1  0  0  0
 17 35  1  6  0  0  0
 12 36  1  0  0  0  0
 12 37  1  0  0  0  0
 23 38  1  6  0  0  0
 11 39  1  1  0  0  0
 20  3  1  0  0  0  0
 13 40  1  6  0  0  0
 16 41  1  1  0  0  0
 20 46  1  6  0  0  0
M  END
>  <cdx:fragmentId>
23

$$$$
