618897.cdx
  Mrv1902 05222410272D          

 59 65  0  0  0  0            999 V2000
   11.9181   -4.7174    0.0000 C   0  0  0  0  0  0  0  0  0  0  0  0
   11.6631   -5.5020    0.0000 C   0  0  0  0  0  0  0  0  0  0  0  0
   10.8562   -5.6735    0.0000 C   0  0  1  0  0  0  0  0  0  0  0  0
   10.3041   -5.0605    0.0000 C   0  0  0  0  0  0  0  0  0  0  0  0
   13.7870   -3.5897    0.0000 C   0  0  0  0  0  0  0  0  0  0  0  0
    8.3877   -7.5381    0.0000 C   0  0  2  0  0  0  0  0  0  0  0  0
    7.6732   -7.1256    0.0000 C   0  0  0  0  0  0  0  0  0  0  0  0
    7.6732   -7.9506    0.0000 C   0  0  1  0  0  0  0  0  0  0  0  0
    6.9587   -7.5381    0.0000 C   0  0  0  0  0  0  0  0  0  0  0  0
    6.2443   -7.9506    0.0000 C   0  0  0  0  0  0  0  0  0  0  0  0
    6.2443   -8.7756    0.0000 C   0  0  1  0  0  0  0  0  0  0  0  0
    6.9587   -9.1881    0.0000 C   0  0  0  0  0  0  0  0  0  0  0  0
    7.6732   -8.7756    0.0000 C   0  0  2  0  0  0  0  0  0  0  0  0
    8.3877   -9.1881    0.0000 C   0  0  0  0  0  0  0  0  0  0  0  0
    9.1021   -8.7756    0.0000 C   0  0  0  0  0  0  0  0  0  0  0  0
    9.1021   -7.9506    0.0000 C   0  0  1  0  0  0  0  0  0  0  0  0
    9.8166   -7.5381    0.0000 C   0  0  2  0  0  0  0  0  0  0  0  0
   10.6012   -7.7930    0.0000 C   0  0  0  0  0  0  0  0  0  0  0  0
   11.0862   -7.1256    0.0000 C   0  0  1  0  0  0  0  0  0  0  0  0
   10.6012   -6.4582    0.0000 C   0  0  1  0  0  0  0  0  0  0  0  0
    9.8166   -6.7131    0.0000 C   0  0  1  0  0  0  0  0  0  0  0  0
    9.1021   -6.3006    0.0000 C   0  0  0  0  0  0  0  0  0  0  0  0
    8.3877   -6.7131    0.0000 C   0  0  1  0  0  0  0  0  0  0  0  0
    9.9028   -5.8926    0.0000 C   0  0  0  0  0  0  0  0  0  0  0  0
    9.8166   -8.3631    0.0000 C   0  0  0  0  0  0  0  0  0  0  0  0
    7.3712   -9.9026    0.0000 C   0  0  0  0  0  0  0  0  0  0  0  0
    6.5462   -9.9026    0.0000 C   0  0  0  0  0  0  0  0  0  0  0  0
    7.6732   -6.3006    0.0000 O   0  0  0  0  0  0  0  0  0  0  0  0
   11.9112   -7.1256    0.0000 O   0  0  0  0  0  0  0  0  0  0  0  0
    7.6732   -9.6006    0.0000 H   0  0  0  0  0  0  0  0  0  0  0  0
    9.1021   -7.1256    0.0000 H   0  0  0  0  0  0  0  0  0  0  0  0
   13.2771   -5.1590    0.0000 O   0  0  0  0  0  0  0  0  0  0  0  0
   12.7251   -4.5459    0.0000 C   0  0  0  0  0  0  0  0  0  0  0  0
   12.9800   -3.7613    0.0000 C   0  0  0  0  0  0  0  0  0  0  0  0
   12.4280   -3.1482    0.0000 C   0  0  0  0  0  0  0  0  0  0  0  0
    2.6719   -9.1923    0.0000 O   0  0  0  0  0  0  0  0  0  0  0  0
    2.6695   -7.5423    0.0000 O   0  0  0  0  0  0  0  0  0  0  0  0
    3.3822   -6.3037    0.0000 O   0  0  0  0  0  0  0  0  0  0  0  0
    4.0973   -6.7152    0.0000 C   0  0  0  0  0  0  0  0  0  0  0  0
    4.1044  -11.6652    0.0000 O   0  0  0  0  0  0  0  0  0  0  0  0
    2.6767  -12.4922    0.0000 O   0  0  0  0  0  0  0  0  0  0  0  0
    1.2465  -11.6693    0.0000 O   0  0  0  0  0  0  0  0  0  0  0  0
    0.5297  -10.4318    0.0000 O   0  0  0  0  0  0  0  0  0  0  0  0
    1.2442  -10.0193    0.0000 C   0  0  0  0  0  0  0  0  0  0  0  0
    1.9592  -10.4308    0.0000 C   0  0  2  0  0  0  0  0  0  0  0  0
    1.9604  -11.2558    0.0000 C   0  0  2  0  0  0  0  0  0  0  0  0
    2.6755  -11.6672    0.0000 C   0  0  1  0  0  0  0  0  0  0  0  0
    3.3894  -11.2537    0.0000 C   0  0  2  0  0  0  0  0  0  0  0  0
    3.3882  -10.4287    0.0000 C   0  0  1  0  0  0  0  0  0  0  0  0
    2.6731  -10.0172    0.0000 O   0  0  0  0  0  0  0  0  0  0  0  0
    4.1020  -10.0152    0.0000 O   0  0  0  0  0  0  0  0  0  0  0  0
    4.0985   -7.5402    0.0000 C   0  0  2  0  0  0  0  0  0  0  0  0
    3.3846   -7.9537    0.0000 C   0  0  2  0  0  0  0  0  0  0  0  0
    3.3858   -8.7787    0.0000 C   0  0  1  0  0  0  0  0  0  0  0  0
    4.1008   -9.1902    0.0000 C   0  0  2  0  0  0  0  0  0  0  0  0
    4.8147   -8.7766    0.0000 C   0  0  1  0  0  0  0  0  0  0  0  0
    4.8135   -7.9516    0.0000 O   0  0  0  0  0  0  0  0  0  0  0  0
    5.5298   -9.1881    0.0000 O   0  0  0  0  0  0  0  0  0  0  0  0
   11.4161   -6.3291    0.0000 H   0  0  0  0  0  0  0  0  0  0  0  0
 34  5  1  0  0  0  0
 33 32  2  0  0  0  0
 34 33  1  0  0  0  0
 35 34  1  0  0  0  0
 56 58  1  1  0  0  0
 54 36  1  1  0  0  0
 53 37  1  6  0  0  0
 52 39  1  1  0  0  0
 39 38  1  0  0  0  0
 55 51  1  6  0  0  0
 49 51  1  1  0  0  0
 48 40  1  6  0  0  0
 47 41  1  1  0  0  0
 46 42  1  6  0  0  0
 45 44  1  1  0  0  0
 44 43  1  0  0  0  0
 50 45  1  0  0  0  0
 46 45  1  0  0  0  0
 47 46  1  0  0  0  0
 48 47  1  0  0  0  0
 49 48  1  0  0  0  0
 50 49  1  0  0  0  0
 57 52  1  0  0  0  0
 53 52  1  0  0  0  0
 54 53  1  0  0  0  0
 55 54  1  0  0  0  0
 56 55  1  0  0  0  0
 33  1  1  0  0  0  0
  1  2  1  0  0  0  0
  2  3  1  0  0  0  0
  3  4  1  6  0  0  0
  6  7  1  1  0  0  0
  8  7  1  1  0  0  0
  8  9  1  0  0  0  0
  9 10  1  0  0  0  0
 10 11  1  0  0  0  0
 11 12  1  0  0  0  0
 12 13  1  0  0  0  0
 13 14  1  0  0  0  0
 14 15  1  0  0  0  0
 15 16  1  0  0  0  0
 16 17  1  0  0  0  0
 17 18  1  0  0  0  0
 18 19  1  0  0  0  0
 19 20  1  0  0  0  0
 20 21  1  0  0  0  0
 21 22  1  0  0  0  0
 22 23  1  0  0  0  0
  6 23  1  0  0  0  0
  6 16  1  0  0  0  0
 17 21  1  0  0  0  0
  8 13  1  0  0  0  0
  6  8  1  0  0  0  0
 21 24  1  1  0  0  0
 17 25  1  6  0  0  0
 12 26  1  0  0  0  0
 12 27  1  0  0  0  0
 23 28  1  6  0  0  0
 19 29  1  1  0  0  0
 57 56  1  0  0  0  0
 11 58  1  1  0  0  0
 20  3  1  0  0  0  0
 13 30  1  6  0  0  0
 16 31  1  1  0  0  0
 20 59  1  6  0  0  0
M  END
>  <cdx:fragmentId>
23

$$$$
