101618812.cdx
  Mrv1902 05222410212D          

 22 22  0  0  0  0            999 V2000
    1.8545   -8.1659    0.0000 C   0  0  0  0  0  0  0  0  0  0  0  0
    1.1400   -8.5784    0.0000 C   0  0  0  0  0  0  0  0  0  0  0  0
    1.8545   -7.3409    0.0000 O   0  0  0  0  0  0  0  0  0  0  0  0
    2.5689   -8.5784    0.0000 O   0  0  0  0  0  0  0  0  0  0  0  0
    2.5689   -6.9284    0.0000 C   0  0  0  0  0  0  0  0  0  0  0  0
    3.2834   -7.3409    0.0000 C   0  0  0  0  0  0  0  0  0  0  0  0
    3.2834   -8.1659    0.0000 C   0  0  0  0  0  0  0  0  0  0  0  0
    3.9979   -8.5784    0.0000 C   0  0  0  0  0  0  0  0  0  0  0  0
    4.7123   -8.9909    0.0000 C   0  0  0  0  0  0  0  0  0  0  0  0
    5.4268   -9.4034    0.0000 C   0  0  0  0  0  0  0  0  0  0  0  0
    6.1413   -9.8159    0.0000 C   0  0  0  0  0  0  0  0  0  0  0  0
    6.8557  -10.2284    0.0000 C   0  0  0  0  0  0  0  0  0  0  0  0
    7.9827   -9.1014    0.0000 O   0  0  0  0  0  0  0  0  0  0  0  0
    7.5702   -9.8159    0.0000 C   0  0  1  0  0  0  0  0  0  0  0  0
    8.3952   -9.8159    0.0000 C   0  0  2  0  0  0  0  0  0  0  0  0
    9.1097  -10.2284    0.0000 C   0  0  0  0  0  0  0  0  0  0  0  0
    9.8242   -9.8159    0.0000 C   0  0  0  0  0  0  0  0  0  0  0  0
   10.5386  -10.2284    0.0000 C   0  0  0  0  0  0  0  0  0  0  0  0
   11.2531   -9.8159    0.0000 C   0  0  0  0  0  0  0  0  0  0  0  0
   11.9676  -10.2284    0.0000 C   0  0  0  0  0  0  0  0  0  0  0  0
   12.6820   -9.8159    0.0000 C   0  0  0  0  0  0  0  0  0  0  0  0
   13.3965  -10.2284    0.0000 C   0  0  0  0  0  0  0  0  0  0  0  0
  1  2  1  0  0  0  0
  1  3  2  0  0  0  0
  1  4  1  0  0  0  0
  5  6  2  0  0  0  0
  6  7  1  0  0  0  0
  7  8  1  0  0  0  0
  8  9  3  0  0  0  0
  9 10  1  0  0  0  0
 10 11  3  0  0  0  0
 11 12  1  0  0  0  0
 13 14  1  0  0  0  0
 14 15  1  0  0  0  0
 13 15  1  0  0  0  0
 16 17  1  0  0  0  0
 17 18  1  0  0  0  0
 18 19  1  0  0  0  0
 19 20  1  0  0  0  0
 20 21  1  0  0  0  0
 21 22  2  0  0  0  0
 15 16  1  1  0  0  0
 14 12  1  1  0  0  0
  4  7  1  0  0  0  0
M  END
>  <cdx:groupId>
253902

>  <cdx:fragmentId>
253869

$$$$
