6188￭ﾙﾕ￬ﾝﾸ.cdx
  Mrv1902 05222410212D          

 32 33  0  0  0  0            999 V2000
    2.6977   -7.3722    0.0000 C   0  0  0  0  0  0  0  0  0  0  0  0
    2.6977   -8.1972    0.0000 C   0  0  0  0  0  0  0  0  0  0  0  0
    3.4122   -8.6097    0.0000 C   0  0  0  0  0  0  0  0  0  0  0  0
    4.1266   -8.1972    0.0000 C   0  0  0  0  0  0  0  0  0  0  0  0
    4.1266   -7.3722    0.0000 C   0  0  0  0  0  0  0  0  0  0  0  0
    3.4122   -6.9597    0.0000 C   0  0  0  0  0  0  0  0  0  0  0  0
    4.8411   -6.9597    0.0000 C   0  0  0  0  0  0  0  0  0  0  0  0
    5.5556   -7.3722    0.0000 C   0  0  0  0  0  0  0  0  0  0  0  0
    6.2701   -6.9597    0.0000 C   0  0  0  0  0  0  0  0  0  0  0  0
    6.9845   -7.3722    0.0000 C   0  0  0  0  0  0  0  0  0  0  0  0
    7.6990   -6.9597    0.0000 C   0  0  0  0  0  0  0  0  0  0  0  0
    8.4135   -7.3722    0.0000 C   0  0  0  0  0  0  0  0  0  0  0  0
    9.1279   -6.9597    0.0000 C   0  0  0  0  0  0  0  0  0  0  0  0
    9.8424   -7.3722    0.0000 C   0  0  0  0  0  0  0  0  0  0  0  0
   10.5569   -6.9597    0.0000 C   0  0  0  0  0  0  0  0  0  0  0  0
   11.2714   -7.3722    0.0000 C   0  0  0  0  0  0  0  0  0  0  0  0
    1.9832   -6.9597    0.0000 O   0  0  0  0  0  0  0  0  0  0  0  0
    1.9832   -8.6097    0.0000 O   0  0  0  0  0  0  0  0  0  0  0  0
    6.2701   -6.1347    0.0000 O   0  0  0  0  0  0  0  0  0  0  0  0
    7.6990   -6.1347    0.0000 O   0  0  0  0  0  0  0  0  0  0  0  0
    1.2688   -7.3722    0.0000 C   0  0  0  0  0  0  0  0  0  0  0  0
   10.0180   -5.6668    0.0000 C   0  0  2  0  0  0  0  0  0  0  0  0
   10.0232   -4.8418    0.0000 C   0  0  2  0  0  0  0  0  0  0  0  0
    9.3113   -4.4249    0.0000 C   0  0  1  0  0  0  0  0  0  0  0  0
    8.5942   -4.8329    0.0000 C   0  0  2  0  0  0  0  0  0  0  0  0
    8.5891   -5.6579    0.0000 C   0  0  1  0  0  0  0  0  0  0  0  0
    9.3010   -6.0748    0.0000 O   0  0  0  0  0  0  0  0  0  0  0  0
   10.7299   -6.0837    0.0000 C   0  0  0  0  0  0  0  0  0  0  0  0
    9.3164   -3.5999    0.0000 O   0  0  0  0  0  0  0  0  0  0  0  0
   10.7402   -4.4337    0.0000 O   0  0  0  0  0  0  0  0  0  0  0  0
    7.8824   -4.4160    0.0000 O   0  0  0  0  0  0  0  0  0  0  0  0
   11.4470   -5.6756    0.0000 O   0  0  0  0  0  0  0  0  0  0  0  0
  1  2  2  0  0  0  0
  2  3  1  0  0  0  0
  3  4  2  0  0  0  0
  4  5  1  0  0  0  0
  5  6  2  0  0  0  0
  6  1  1  0  0  0  0
  5  7  1  0  0  0  0
  7  8  1  0  0  0  0
  8  9  1  0  0  0  0
  9 10  1  0  0  0  0
 10 11  1  0  0  0  0
 11 12  1  0  0  0  0
 12 13  1  0  0  0  0
 13 14  1  0  0  0  0
 14 15  1  0  0  0  0
 15 16  1  0  0  0  0
  1 17  1  0  0  0  0
  2 18  1  0  0  0  0
  9 19  1  0  0  0  0
 11 20  1  0  0  0  0
 17 21  1  0  0  0  0
 22 23  1  0  0  0  0
 23 24  1  0  0  0  0
 24 25  1  0  0  0  0
 25 26  1  0  0  0  0
 26 27  1  0  0  0  0
 27 22  1  0  0  0  0
 22 28  1  1  0  0  0
 24 29  1  1  0  0  0
 23 30  1  6  0  0  0
 25 31  1  6  0  0  0
 28 32  1  0  0  0  0
 26 20  1  1  0  0  0
M  END
>  <cdx:fragmentId>
5

$$$$
