61896.cdx
  Mrv1902 05222410252D          

 10  9  0  0  0  0            999 V2000
    3.0526   -2.6338    0.0000 C   0  0  0  0  0  0  0  0  0  0  0  0
    3.7671   -3.0463    0.0000 C   0  0  0  0  0  0  0  0  0  0  0  0
    4.4815   -2.6338    0.0000 C   0  0  0  0  0  0  0  0  0  0  0  0
    5.1960   -3.0463    0.0000 C   0  0  0  0  0  0  0  0  0  0  0  0
    5.9105   -2.6338    0.0000 C   0  0  0  0  0  0  0  0  0  0  0  0
    6.6249   -3.0463    0.0000 C   0  0  0  0  0  0  0  0  0  0  0  0
    7.3394   -2.6338    0.0000 C   0  0  0  0  0  0  0  0  0  0  0  0
    8.0539   -3.0463    0.0000 C   0  0  0  0  0  0  0  0  0  0  0  0
    8.7684   -2.6338    0.0000 C   0  0  0  0  0  0  0  0  0  0  0  0
    2.3381   -3.0463    0.0000 O   0  0  0  0  0  0  0  0  0  0  0  0
  1  2  1  0  0  0  0
  2  3  2  0  0  0  0
  3  4  1  0  0  0  0
  4  5  1  0  0  0  0
  5  6  1  0  0  0  0
  6  7  1  0  0  0  0
  7  8  1  0  0  0  0
  8  9  1  0  0  0  0
  1 10  1  0  0  0  0
M  END
>  <cdx:groupId>
31

>  <cdx:fragmentId>
5

$$$$
