61914.cdx
  Mrv1902 05222410232D          

 10  9  0  0  0  0            999 V2000
    4.4715   -3.4314    0.0000 C   0  0  0  0  0  0  0  0  0  0  0  0
    3.7570   -3.8439    0.0000 C   0  0  0  0  0  0  0  0  0  0  0  0
    3.0426   -3.4314    0.0000 C   0  0  0  0  0  0  0  0  0  0  0  0
    3.0426   -2.6064    0.0000 C   0  0  0  0  0  0  0  0  0  0  0  0
    4.4715   -2.6064    0.0000 O   0  0  0  0  0  0  0  0  0  0  0  0
    5.1860   -3.8439    0.0000 O   0  0  0  0  0  0  0  0  0  0  0  0
    2.3281   -3.8439    0.0000 C   0  0  0  0  0  0  0  0  0  0  0  0
    5.9004   -3.4314    0.0000 C   0  0  0  0  0  0  0  0  0  0  0  0
    6.6149   -3.8439    0.0000 C   0  0  0  0  0  0  0  0  0  0  0  0
    5.9004   -2.6064    0.0000 C   0  0  0  0  0  0  0  0  0  0  0  0
  1  2  1  0  0  0  0
  2  3  1  0  0  0  0
  3  4  1  0  0  0  0
  1  5  2  0  0  0  0
  1  6  1  0  0  0  0
  3  7  1  0  0  0  0
  8  9  1  0  0  0  0
  8 10  1  0  0  0  0
  6  8  1  0  0  0  0
M  END
>  <cdx:groupId>
31

>  <cdx:fragmentId>
5

$$$$
