61926.cdx
  Mrv1902 05222410242D          

  7  6  0  0  0  0            999 V2000
    5.0093   -3.0721    0.0000 C   0  0  0  0  0  0  0  0  0  0  0  0
    5.7238   -3.4846    0.0000 C   0  0  0  0  0  0  0  0  0  0  0  0
    6.4383   -3.0721    0.0000 C   0  0  0  0  0  0  0  0  0  0  0  0
    9.2962   -3.0721    0.0000 C   0  0  0  0  0  0  0  0  0  0  0  0
    7.1527   -3.4846    0.0000 S   0  0  0  0  0  0  0  0  0  0  0  0
    8.5817   -3.4846    0.0000 S   0  0  0  0  0  0  0  0  0  0  0  0
    7.8672   -3.0721    0.0000 S   0  0  0  0  0  0  0  0  0  0  0  0
  5  3  1  0  0  0  0
  2  1  2  0  0  0  0
  3  2  1  0  0  0  0
  6  4  1  0  0  0  0
  7  5  1  0  0  0  0
  7  6  1  0  0  0  0
M  END
>  <cdx:groupId>
22

>  <cdx:fragmentId>
5

$$$$
