61942.cdx
  Mrv1902 05222410282D          

 12 13  0  0  0  0            999 V2000
    8.1880   -5.9445    0.0000 C   0  0  0  0  0  0  0  0  0  0  0  0
    7.4735   -5.5320    0.0000 C   0  0  0  0  0  0  0  0  0  0  0  0
    6.7591   -5.9445    0.0000 C   0  0  0  0  0  0  0  0  0  0  0  0
    6.7591   -6.7695    0.0000 C   0  0  0  0  0  0  0  0  0  0  0  0
    7.4735   -7.1820    0.0000 C   0  0  0  0  0  0  0  0  0  0  0  0
    8.1880   -6.7695    0.0000 C   0  0  0  0  0  0  0  0  0  0  0  0
    8.9025   -6.3570    0.0000 O   0  0  0  0  0  0  0  0  0  0  0  0
    7.4735   -4.7070    0.0000 O   0  0  0  0  0  0  0  0  0  0  0  0
    6.0446   -4.7070    0.0000 C   0  0  0  0  0  0  0  0  0  0  0  0
    6.0446   -5.5320    0.0000 C   0  0  0  0  0  0  0  0  0  0  0  0
    5.3301   -5.9445    0.0000 C   0  0  0  0  0  0  0  0  0  0  0  0
    8.6005   -7.4840    0.0000 C   0  0  0  0  0  0  0  0  0  0  0  0
  1  2  1  0  0  0  0
  2  3  1  0  0  0  0
  3  4  1  0  0  0  0
  4  5  1  0  0  0  0
  5  6  1  0  0  0  0
  6  7  1  0  0  0  0
  1  7  1  0  0  0  0
  1  6  1  0  0  0  0
  2  8  2  0  0  0  0
  9 10  1  0  0  0  0
 10 11  1  0  0  0  0
  3 10  2  0  0  0  0
  6 12  1  0  0  0  0
M  END
>  <cdx:fragmentId>
5

$$$$
