6195.cdx
  Mrv1902 05222410242D          

 24 26  0  0  0  0            999 V2000
    3.8395  -10.0031    0.0000 C   0  0  0  0  0  0  0  0  0  0  0  0
    3.8395  -10.8281    0.0000 C   0  0  0  0  0  0  0  0  0  0  0  0
    4.5540  -11.2406    0.0000 C   0  0  1  0  0  0  0  0  0  0  0  0
    5.2685  -10.8281    0.0000 C   0  0  1  0  0  0  0  0  0  0  0  0
    5.2685  -10.0031    0.0000 C   0  0  2  0  0  0  0  0  0  0  0  0
    4.5540   -9.5906    0.0000 C   0  0  0  0  0  0  0  0  0  0  0  0
    5.9829  -11.2406    0.0000 C   0  0  0  0  0  0  0  0  0  0  0  0
    6.6974  -10.8281    0.0000 C   0  0  0  0  0  0  0  0  0  0  0  0
    6.6974  -10.0031    0.0000 C   0  0  0  0  0  0  0  0  0  0  0  0
    5.9829   -9.5906    0.0000 C   0  0  2  0  0  0  0  0  0  0  0  0
    7.4119   -9.5906    0.0000 C   0  0  0  0  0  0  0  0  0  0  0  0
    6.6974   -8.3531    0.0000 C   0  0  0  0  0  0  0  0  0  0  0  0
    5.9829   -8.7656    0.0000 C   0  0  0  0  0  0  0  0  0  0  0  0
    6.6974   -7.5281    0.0000 C   0  0  0  0  0  0  0  0  0  0  0  0
    5.9829   -7.1156    0.0000 C   0  0  0  0  0  0  0  0  0  0  0  0
    7.3105   -6.9761    0.0000 C   0  0  0  0  0  0  0  0  0  0  0  0
    6.9749   -6.2224    0.0000 C   0  0  0  0  0  0  0  0  0  0  0  0
    6.1545   -6.3087    0.0000 O   0  0  0  0  0  0  0  0  0  0  0  0
    5.1861   -7.3292    0.0000 O   0  0  0  0  0  0  0  0  0  0  0  0
    4.1415  -11.9551    0.0000 C   0  0  0  0  0  0  0  0  0  0  0  0
    5.2685   -9.1781    0.0000 C   0  0  0  0  0  0  0  0  0  0  0  0
    4.9665  -11.9551    0.0000 C   0  0  0  0  0  0  0  0  0  0  0  0
    5.2685  -11.6531    0.0000 H   0  0  0  0  0  0  0  0  0  0  0  0
    6.6974   -9.1781    0.0000 H   0  0  0  0  0  0  0  0  0  0  0  0
  1  2  1  0  0  0  0
  2  3  1  0  0  0  0
  3  4  1  0  0  0  0
  4  5  1  0  0  0  0
  5  6  1  0  0  0  0
  6  1  1  0  0  0  0
  4  7  1  0  0  0  0
  7  8  1  0  0  0  0
  8  9  1  0  0  0  0
  9 10  1  0  0  0  0
 10  5  1  0  0  0  0
  9 11  2  0  0  0  0
 12 13  2  0  0  0  0
 13 10  1  0  0  0  0
 12 14  1  0  0  0  0
 14 15  1  0  0  0  0
 14 16  2  0  0  0  0
 16 17  1  0  0  0  0
 17 18  1  0  0  0  0
 18 15  1  0  0  0  0
 15 19  2  0  0  0  0
  3 20  1  1  0  0  0
  5 21  1  1  0  0  0
  3 22  1  6  0  0  0
  4 23  1  6  0  0  0
 10 24  1  6  0  0  0
M  END
>  <cdx:fragmentId>
5

$$$$
