6196.cdx
  Mrv1902 05222410242D          

 26 27  0  0  0  0            999 V2000
    3.8395   -8.5594    0.0000 C   0  0  0  0  0  0  0  0  0  0  0  0
    3.8395   -9.3844    0.0000 C   0  0  0  0  0  0  0  0  0  0  0  0
    4.5540   -9.7969    0.0000 C   0  0  1  0  0  0  0  0  0  0  0  0
    5.2685   -9.3844    0.0000 C   0  0  1  0  0  0  0  0  0  0  0  0
    5.2685   -8.5594    0.0000 C   0  0  2  0  0  0  0  0  0  0  0  0
    4.5540   -8.1469    0.0000 C   0  0  0  0  0  0  0  0  0  0  0  0
    5.9829   -9.7969    0.0000 C   0  0  0  0  0  0  0  0  0  0  0  0
    6.6974   -9.3844    0.0000 C   0  0  0  0  0  0  0  0  0  0  0  0
    6.6974   -8.5594    0.0000 C   0  0  0  0  0  0  0  0  0  0  0  0
    5.9829   -8.1469    0.0000 C   0  0  2  0  0  0  0  0  0  0  0  0
    7.4119   -8.1469    0.0000 C   0  0  0  0  0  0  0  0  0  0  0  0
    6.6974   -6.9094    0.0000 C   0  0  0  0  0  0  0  0  0  0  0  0
    5.9829   -7.3219    0.0000 C   0  0  0  0  0  0  0  0  0  0  0  0
    6.6974   -6.0844    0.0000 C   0  0  0  0  0  0  0  0  0  0  0  0
    5.9829   -5.6719    0.0000 C   0  0  0  0  0  0  0  0  0  0  0  0
    7.4119   -5.6719    0.0000 C   0  0  0  0  0  0  0  0  0  0  0  0
    7.4119   -4.8469    0.0000 O   0  0  0  0  0  0  0  0  0  0  0  0
    6.6974   -4.4344    0.0000 O   0  0  0  0  0  0  0  0  0  0  0  0
    5.9829   -4.8469    0.0000 C   0  0  0  0  0  0  0  0  0  0  0  0
    5.2685   -4.4344    0.0000 O   0  0  0  0  0  0  0  0  0  0  0  0
    8.1264   -6.0844    0.0000 O   0  0  0  0  0  0  0  0  0  0  0  0
    4.1415  -10.5113    0.0000 C   0  0  0  0  0  0  0  0  0  0  0  0
    5.2685   -7.7344    0.0000 C   0  0  0  0  0  0  0  0  0  0  0  0
    4.9665  -10.5113    0.0000 C   0  0  0  0  0  0  0  0  0  0  0  0
    5.2685  -10.2094    0.0000 H   0  0  0  0  0  0  0  0  0  0  0  0
    6.6974   -7.7344    0.0000 H   0  0  0  0  0  0  0  0  0  0  0  0
  1  2  1  0  0  0  0
  2  3  1  0  0  0  0
  3  4  1  0  0  0  0
  4  5  1  0  0  0  0
  5  6  1  0  0  0  0
  6  1  1  0  0  0  0
  4  7  1  0  0  0  0
  7  8  1  0  0  0  0
  8  9  1  0  0  0  0
  9 10  1  0  0  0  0
 10  5  1  0  0  0  0
  9 11  2  0  0  0  0
 12 13  1  0  0  0  0
 13 10  1  0  0  0  0
 12 14  2  0  0  0  0
 14 15  1  0  0  0  0
 14 16  1  0  0  0  0
 16 17  2  0  0  0  0
 18 19  2  0  0  0  0
 19 15  1  0  0  0  0
 20 19  1  0  0  0  0
 16 21  1  0  0  0  0
  3 22  1  1  0  0  0
  5 23  1  1  0  0  0
  3 24  1  6  0  0  0
  4 25  1  6  0  0  0
 10 26  1  6  0  0  0
M  END
>  <cdx:fragmentId>
5

$$$$
