619674.cdx
  Mrv1902 05222410212D          

 21 23  0  0  0  0            999 V2000
   10.6321   -8.8643    0.0000 O   0  0  0  0  0  0  0  0  0  0  0  0
   10.7183   -8.0438    0.0000 N   0  0  0  0  0  0  0  0  0  0  0  0
    9.9647   -7.7082    0.0000 C   0  0  0  0  0  0  0  0  0  0  0  0
    9.4126   -8.3213    0.0000 C   0  0  0  0  0  0  0  0  0  0  0  0
    9.8251   -9.0358    0.0000 N   0  0  0  0  0  0  0  0  0  0  0  0
    9.7931   -6.9012    0.0000 N   0  0  0  0  0  0  0  0  0  0  0  0
    7.3727   -7.6921    0.0000 O   0  0  0  0  0  0  0  0  0  0  0  0
    8.1796   -7.5206    0.0000 N   0  0  0  0  0  0  0  0  0  0  0  0
    8.5921   -8.2351    0.0000 C   0  0  0  0  0  0  0  0  0  0  0  0
    8.0401   -8.8482    0.0000 N   0  0  0  0  0  0  0  0  0  0  0  0
    7.2864   -8.5126    0.0000 C   0  0  0  0  0  0  0  0  0  0  0  0
    6.5720   -8.9251    0.0000 C   0  0  0  0  0  0  0  0  0  0  0  0
    6.5720   -9.7501    0.0000 C   0  0  0  0  0  0  0  0  0  0  0  0
    5.8575  -10.1626    0.0000 C   0  0  0  0  0  0  0  0  0  0  0  0
    5.1430   -9.7501    0.0000 C   0  0  0  0  0  0  0  0  0  0  0  0
    5.1430   -8.9251    0.0000 C   0  0  0  0  0  0  0  0  0  0  0  0
    5.8575   -8.5126    0.0000 C   0  0  0  0  0  0  0  0  0  0  0  0
    4.4285   -8.5126    0.0000 N   0  3  0  0  0  0  0  0  0  0  0  0
    4.4285   -7.6876    0.0000 O   0  0  0  0  0  0  0  0  0  0  0  0
    3.7141   -8.9251    0.0000 O   0  5  0  0  0  0  0  0  0  0  0  0
    7.2864  -10.1626    0.0000 Cl  0  0  0  0  0  0  0  0  0  0  0  0
  1  2  1  0  0  0  0
  2  3  2  0  0  0  0
  3  4  1  0  0  0  0
  4  5  2  0  0  0  0
  1  5  1  0  0  0  0
  3  6  1  0  0  0  0
  7  8  1  0  0  0  0
  8  9  2  0  0  0  0
  9 10  1  0  0  0  0
 10 11  2  0  0  0  0
  7 11  1  0  0  0  0
 12 13  1  0  0  0  0
 13 14  2  0  0  0  0
 14 15  1  0  0  0  0
 15 16  2  0  0  0  0
 16 17  1  0  0  0  0
 12 17  2  0  0  0  0
 18 19  2  0  0  0  0
 18 20  1  0  0  0  0
 16 18  1  0  0  0  0
 13 21  1  0  0  0  0
 11 12  1  0  0  0  0
  4  9  1  0  0  0  0
M  CHG  2  18   1  20  -1
M  END
>  <cdx:fragmentId>
9162

$$$$
