6199.cdx
  Mrv1902 05222410232D          

 14 16  0  0  0  0            999 V2000
    5.3374   -5.9535    0.0000 C   0  0  0  0  0  0  0  0  0  0  0  0
    5.3374   -6.7785    0.0000 C   0  0  0  0  0  0  0  0  0  0  0  0
    6.0519   -7.1910    0.0000 C   0  0  0  0  0  0  0  0  0  0  0  0
    6.7663   -6.7785    0.0000 C   0  0  0  0  0  0  0  0  0  0  0  0
    7.4808   -7.1910    0.0000 C   0  0  0  0  0  0  0  0  0  0  0  0
    8.1953   -6.7785    0.0000 C   0  0  0  0  0  0  0  0  0  0  0  0
    8.1953   -5.9535    0.0000 C   0  0  0  0  0  0  0  0  0  0  0  0
    7.4808   -5.5410    0.0000 C   0  0  0  0  0  0  0  0  0  0  0  0
    6.7663   -5.9535    0.0000 C   0  0  0  0  0  0  0  0  0  0  0  0
    6.0519   -5.5410    0.0000 O   0  0  0  0  0  0  0  0  0  0  0  0
    8.9799   -5.6985    0.0000 O   0  0  0  0  0  0  0  0  0  0  0  0
    8.9799   -7.0334    0.0000 C   0  0  0  0  0  0  0  0  0  0  0  0
    9.4648   -6.3660    0.0000 C   0  0  0  0  0  0  0  0  0  0  0  0
    4.6229   -5.5410    0.0000 O   0  0  0  0  0  0  0  0  0  0  0  0
  1  2  1  0  0  0  0
  2  3  2  0  0  0  0
  3  4  1  0  0  0  0
  4  5  2  0  0  0  0
  5  6  1  0  0  0  0
  6  7  2  0  0  0  0
  7  8  1  0  0  0  0
  8  9  2  0  0  0  0
  4  9  1  0  0  0  0
  9 10  1  0  0  0  0
  1 10  1  0  0  0  0
 12 13  2  0  0  0  0
 11 13  1  0  0  0  0
 12  6  1  0  0  0  0
 11  7  1  0  0  0  0
  1 14  2  0  0  0  0
M  END
>  <cdx:fragmentId>
5

$$$$
