61997.cdx
  Mrv1902 05222410272D          

 15 15  0  0  0  0            999 V2000
    4.7653   -4.4973    0.0000 C   0  0  0  0  0  0  0  0  0  0  0  0
    4.0508   -4.0848    0.0000 C   0  0  0  0  0  0  0  0  0  0  0  0
    3.3363   -4.4973    0.0000 C   0  0  0  0  0  0  0  0  0  0  0  0
    3.3363   -5.3223    0.0000 C   0  0  0  0  0  0  0  0  0  0  0  0
    4.0508   -5.7348    0.0000 C   0  0  0  0  0  0  0  0  0  0  0  0
    4.7653   -5.3223    0.0000 C   0  0  0  0  0  0  0  0  0  0  0  0
    5.4798   -5.7348    0.0000 C   0  0  0  0  0  0  0  0  0  0  0  0
    6.1942   -5.3223    0.0000 C   0  0  0  0  0  0  0  0  0  0  0  0
    9.7666   -5.7348    0.0000 C   0  0  0  0  0  0  0  0  0  0  0  0
    6.9087   -5.7348    0.0000 O   0  0  0  0  0  0  0  0  0  0  0  0
    7.6232   -4.4973    0.0000 O   0  0  0  0  0  0  0  0  0  0  0  0
    9.0521   -4.4973    0.0000 C   0  0  0  0  0  0  0  0  0  0  0  0
    9.0521   -5.3223    0.0000 C   0  0  0  0  0  0  0  0  0  0  0  0
    8.3376   -5.7348    0.0000 C   0  0  0  0  0  0  0  0  0  0  0  0
    7.6232   -5.3223    0.0000 C   0  0  0  0  0  0  0  0  0  0  0  0
 10  8  1  0  0  0  0
  7  6  1  0  0  0  0
  6  1  2  0  0  0  0
  2  1  1  0  0  0  0
  3  2  2  0  0  0  0
  4  3  1  0  0  0  0
  5  4  2  0  0  0  0
  6  5  1  0  0  0  0
  8  7  1  0  0  0  0
 13  9  1  0  0  0  0
 15 10  1  0  0  0  0
 15 11  2  0  0  0  0
 13 12  1  0  0  0  0
 14 13  2  0  0  0  0
 15 14  1  0  0  0  0
M  END
>  <cdx:groupId>
47

>  <cdx:fragmentId>
23

$$$$
