620900.cdx
  Mrv1902 05222410192D          

 19 20  0  0  0  0            999 V2000
    9.0319   -7.6397    0.0000 C   0  0  0  0  0  0  0  0  0  0  0  0
    8.3174   -7.2272    0.0000 O   0  0  0  0  0  0  0  0  0  0  0  0
   10.4608   -8.4647    0.0000 C   0  0  0  0  0  0  0  0  0  0  0  0
    8.3174   -9.7022    0.0000 O   0  0  0  0  0  0  0  0  0  0  0  0
    9.7463   -9.7022    0.0000 C   0  0  0  0  0  0  0  0  0  0  0  0
    9.7463   -8.8772    0.0000 C   0  0  0  0  0  0  0  0  0  0  0  0
    9.0319   -8.4647    0.0000 C   0  0  0  0  0  0  0  0  0  0  0  0
    8.3174   -8.8772    0.0000 C   0  0  0  0  0  0  0  0  0  0  0  0
    4.0306   -7.2272    0.0000 O   0  0  0  0  0  0  0  0  0  0  0  0
    5.4595   -7.2272    0.0000 O   0  0  0  0  0  0  0  0  0  0  0  0
    6.1740   -7.6397    0.0000 C   0  0  0  0  0  0  0  0  0  0  0  0
    6.8885   -7.2272    0.0000 C   0  0  0  0  0  0  0  0  0  0  0  0
    7.6029   -7.6397    0.0000 C   0  0  0  0  0  0  0  0  0  0  0  0
    7.6029   -8.4647    0.0000 C   0  0  0  0  0  0  0  0  0  0  0  0
    6.8885   -8.8772    0.0000 C   0  0  0  0  0  0  0  0  0  0  0  0
    6.1740   -8.4647    0.0000 C   0  0  0  0  0  0  0  0  0  0  0  0
    5.4595   -8.8772    0.0000 C   0  0  0  0  0  0  0  0  0  0  0  0
    4.7450   -8.4647    0.0000 C   0  0  0  0  0  0  0  0  0  0  0  0
    4.7450   -7.6397    0.0000 C   0  0  0  0  0  0  0  0  0  0  0  0
 13  2  1  0  0  0  0
  2  1  1  0  0  0  0
 14  8  1  0  0  0  0
  6  3  1  0  0  0  0
  8  4  2  0  0  0  0
  6  5  1  0  0  0  0
  7  6  2  0  0  0  0
  8  7  1  0  0  0  0
 19  9  2  0  0  0  0
 19 10  1  0  0  0  0
 11 10  1  0  0  0  0
 16 11  2  0  0  0  0
 12 11  1  0  0  0  0
 13 12  2  0  0  0  0
 14 13  1  0  0  0  0
 15 14  2  0  0  0  0
 16 15  1  0  0  0  0
 17 16  1  0  0  0  0
 18 17  2  0  0  0  0
 19 18  1  0  0  0  0
M  END
>  <cdx:fragmentId>
5

$$$$
