6209.cdx
  Mrv1902 05222410232D          

 32 36  0  0  0  0            999 V2000
    4.4789   -7.3563    0.0000 C   0  0  0  0  0  0  0  0  0  0  0  0
    4.4789   -8.1813    0.0000 C   0  0  1  0  0  0  0  0  0  0  0  0
    5.1934   -8.5938    0.0000 C   0  0  0  0  0  0  0  0  0  0  0  0
    5.9078   -8.1813    0.0000 C   0  0  1  0  0  0  0  0  0  0  0  0
    5.9078   -7.3563    0.0000 C   0  0  2  0  0  0  0  0  0  0  0  0
    5.1934   -6.9438    0.0000 C   0  0  0  0  0  0  0  0  0  0  0  0
    6.6223   -8.5938    0.0000 C   0  0  0  0  0  0  0  0  0  0  0  0
    7.3368   -8.1813    0.0000 C   0  0  0  0  0  0  0  0  0  0  0  0
    7.3368   -7.3563    0.0000 C   0  0  1  0  0  0  0  0  0  0  0  0
    6.6223   -6.9438    0.0000 C   0  0  0  0  0  0  0  0  0  0  0  0
    8.0513   -6.9438    0.0000 C   0  0  0  0  0  0  0  0  0  0  0  0
    8.0513   -6.1188    0.0000 C   0  0  1  0  0  0  0  0  0  0  0  0
    7.3368   -5.7062    0.0000 C   0  0  0  0  0  0  0  0  0  0  0  0
    6.6223   -6.1188    0.0000 C   0  0  0  0  0  0  0  0  0  0  0  0
    8.0513   -5.2938    0.0000 C   0  0  0  0  0  0  0  0  0  0  0  0
    5.9078   -6.5313    0.0000 C   0  0  0  0  0  0  0  0  0  0  0  0
    3.7644   -8.5938    0.0000 O   0  0  0  0  0  0  0  0  0  0  0  0
    6.6000   -9.1300    0.0000 O   0  0  0  0  0  0  0  0  0  0  0  0
    7.8375   -8.3050    0.0000 O   0  0  0  0  0  0  0  0  0  0  0  0
    8.8359   -7.1987    0.0000 C   0  0  0  0  0  0  0  0  0  0  0  0
    9.3208   -6.5313    0.0000 C   0  0  0  0  0  0  0  0  0  0  0  0
    8.8359   -5.8638    0.0000 C   0  0  2  0  0  0  0  0  0  0  0  0
    9.0908   -5.0792    0.0000 C   0  0  2  0  0  0  0  0  0  0  0  0
    9.6328   -5.6503    0.0000 H   0  0  0  0  0  0  0  0  0  0  0  0
    8.5388   -4.4661    0.0000 C   0  0  0  0  0  0  0  0  0  0  0  0
    9.8978   -4.9077    0.0000 C   0  0  0  0  0  0  0  0  0  0  0  0
   10.1527   -4.1230    0.0000 C   0  0  0  0  0  0  0  0  0  0  0  0
   10.9597   -3.9515    0.0000 C   0  0  1  0  0  0  0  0  0  0  0  0
   11.2146   -3.1669    0.0000 C   0  0  0  0  0  0  0  0  0  0  0  0
   10.6626   -2.5538    0.0000 C   0  0  0  0  0  0  0  0  0  0  0  0
   12.0216   -2.9954    0.0000 C   0  0  0  0  0  0  0  0  0  0  0  0
   11.5117   -4.5646    0.0000 C   0  0  0  0  0  0  0  0  0  0  0  0
  1  2  1  0  0  0  0
  2  3  1  0  0  0  0
  3  4  1  0  0  0  0
  4  5  1  0  0  0  0
  5  6  1  0  0  0  0
  6  1  1  0  0  0  0
  4  7  1  0  0  0  0
  7  8  2  0  0  0  0
  8  9  1  0  0  0  0
  9 10  1  0  0  0  0
 10  5  1  0  0  0  0
  9 11  1  0  0  0  0
 11 12  1  0  0  0  0
 12 13  1  0  0  0  0
 13 14  1  0  0  0  0
 14 10  1  0  0  0  0
 12 15  1  1  0  0  0
  5 16  1  1  0  0  0
  2 17  1  1  0  0  0
  4 18  1  6  0  0  0
 18 19  1  0  0  0  0
  9 19  1  6  0  0  0
 11 20  1  0  0  0  0
 20 21  1  0  0  0  0
 21 22  1  0  0  0  0
 22 12  1  0  0  0  0
 22 23  1  0  0  0  0
 22 24  1  6  0  0  0
 23 25  1  6  0  0  0
 23 26  1  0  0  0  0
 26 27  2  0  0  0  0
 27 28  1  0  0  0  0
 28 29  1  0  0  0  0
 29 30  1  0  0  0  0
 29 31  1  0  0  0  0
 28 32  1  1  0  0  0
M  END
>  <cdx:fragmentId>
5

$$$$
