6213.cdx
  Mrv1902 05222410222D          

  5  4  0  0  0  0            999 V2000
    3.0277   -3.9264    0.0000 C   0  0  0  0  0  0  0  0  0  0  0  0
    3.8527   -3.9264    0.0000 S   0  0  0  0  0  0  0  0  0  0  0  0
    3.8527   -4.7514    0.0000 O   0  0  0  0  0  0  0  0  0  0  0  0
    3.8527   -3.1014    0.0000 O   0  0  0  0  0  0  0  0  0  0  0  0
    4.6777   -3.9264    0.0000 C   0  0  0  0  0  0  0  0  0  0  0  0
  2  3  2  0  0  0  0
  2  4  2  0  0  0  0
  2  5  1  0  0  0  0
  1  2  1  0  0  0  0
M  END
>  <cdx:groupId>
16

>  <cdx:fragmentId>
7

$$$$
