621441.cdx
  Mrv1902 05222410262D          

 30 32  0  0  0  0            999 V2000
    5.4767   -7.1043    0.0000 C   0  0  0  0  0  0  0  0  0  0  0  0
    2.6161   -4.6325    0.0000 C   0  0  0  0  0  0  0  0  0  0  0  0
    4.0450   -4.6309    0.0000 C   0  0  0  0  0  0  0  0  0  0  0  0
    3.3310   -5.0442    0.0000 C   0  0  0  0  0  0  0  0  0  0  0  0
    3.3319   -5.8692    0.0000 C   0  0  0  0  0  0  0  0  0  0  0  0
    4.0469   -6.2809    0.0000 C   0  0  0  0  0  0  0  0  0  0  0  0
    4.0478   -7.1059    0.0000 C   0  0  0  0  0  0  0  0  0  0  0  0
    4.7627   -7.5176    0.0000 C   0  0  0  0  0  0  0  0  0  0  0  0
    4.7636   -8.3426    0.0000 C   0  0  0  0  0  0  0  0  0  0  0  0
    5.4785   -8.7543    0.0000 C   0  0  0  0  0  0  0  0  0  0  0  0
    4.0523  -11.2309    0.0000 O   0  0  0  0  0  0  0  0  0  0  0  0
    3.3360   -9.9934    0.0000 C   0  0  0  0  0  0  0  0  0  0  0  0
    4.0505   -9.5809    0.0000 O   0  0  0  0  0  0  0  0  0  0  0  0
    6.1953  -10.8160    0.0000 C   0  0  0  0  0  0  0  0  0  0  0  0
    5.4813  -11.2293    0.0000 C   0  0  0  0  0  0  0  0  0  0  0  0
    4.7663  -10.8176    0.0000 C   0  0  0  0  0  0  0  0  0  0  0  0
    4.7654   -9.9926    0.0000 C   0  0  0  0  0  0  0  0  0  0  0  0
    5.4794   -9.5793    0.0000 C   0  0  0  0  0  0  0  0  0  0  0  0
    6.1944   -9.9910    0.0000 C   0  0  0  0  0  0  0  0  0  0  0  0
    6.9787   -9.7352    0.0000 C   0  0  0  0  0  0  0  0  0  0  0  0
    7.4644  -10.4021    0.0000 C   0  0  0  0  0  0  0  0  0  0  0  0
    6.9802  -11.0701    0.0000 O   0  0  0  0  0  0  0  0  0  0  0  0
    9.9378   -8.9705    0.0000 O   0  0  0  0  0  0  0  0  0  0  0  0
    9.9409  -11.8284    0.0000 O   0  0  0  0  0  0  0  0  0  0  0  0
    8.7026  -11.1152    0.0000 C   0  0  0  0  0  0  0  0  0  0  0  0
    8.2894  -10.4012    0.0000 C   0  0  0  0  0  0  0  0  0  0  0  0
    8.7011   -9.6863    0.0000 C   0  0  0  0  0  0  0  0  0  0  0  0
    9.5261   -9.6854    0.0000 C   0  0  0  0  0  0  0  0  0  0  0  0
    9.9394  -10.3994    0.0000 C   0  0  0  0  0  0  0  0  0  0  0  0
    9.5276  -11.1143    0.0000 C   0  0  0  0  0  0  0  0  0  0  0  0
 26 21  1  0  0  0  0
 18 10  1  0  0  0  0
  8  1  1  0  0  0  0
  4  2  1  0  0  0  0
  4  3  1  0  0  0  0
  5  4  2  0  0  0  0
  6  5  1  0  0  0  0
  7  6  1  0  0  0  0
  8  7  1  0  0  0  0
  9  8  2  0  0  0  0
 10  9  1  0  0  0  0
 16 11  1  0  0  0  0
 17 13  1  0  0  0  0
 13 12  1  0  0  0  0
 22 14  1  0  0  0  0
 19 14  2  0  0  0  0
 15 14  1  0  0  0  0
 16 15  2  0  0  0  0
 17 16  1  0  0  0  0
 18 17  2  0  0  0  0
 19 18  1  0  0  0  0
 20 19  1  0  0  0  0
 21 20  2  0  0  0  0
 22 21  1  0  0  0  0
 28 23  1  0  0  0  0
 30 24  1  0  0  0  0
 30 25  2  0  0  0  0
 26 25  1  0  0  0  0
 27 26  2  0  0  0  0
 28 27  1  0  0  0  0
 29 28  2  0  0  0  0
 30 29  1  0  0  0  0
M  END
>  <cdx:fragmentId>
55822

$$$$
