10621611.cdx
  Mrv1902 05222410182D          

 29 31  0  0  0  0            999 V2000
    5.6034   -6.7677    0.0000 C   0  0  0  0  0  0  0  0  0  0  0  0
    6.3178   -6.3552    0.0000 C   0  0  0  0  0  0  0  0  0  0  0  0
    6.3178   -5.5302    0.0000 C   0  0  0  0  0  0  0  0  0  0  0  0
    5.6034   -7.5927    0.0000 O   0  0  0  0  0  0  0  0  0  0  0  0
    4.8889   -6.3552    0.0000 O   0  0  0  0  0  0  0  0  0  0  0  0
    7.7468   -6.3552    0.0000 C   0  0  0  0  0  0  0  0  0  0  0  0
    7.0323   -6.7677    0.0000 C   0  0  1  0  0  0  0  0  0  0  0  0
    7.0323   -7.5927    0.0000 C   0  0  0  0  0  0  0  0  0  0  0  0
    7.7468   -8.0052    0.0000 C   0  0  0  0  0  0  0  0  0  0  0  0
    8.4613   -7.5927    0.0000 C   0  0  1  0  0  0  0  0  0  0  0  0
    9.1757   -8.0052    0.0000 C   0  0  1  0  0  0  0  0  0  0  0  0
    9.8902   -7.5927    0.0000 C   0  0  0  0  0  0  0  0  0  0  0  0
    9.8902   -6.7677    0.0000 C   0  0  0  0  0  0  0  0  0  0  0  0
    9.1757   -6.3552    0.0000 C   0  0  1  0  0  0  0  0  0  0  0  0
    8.4613   -6.7677    0.0000 C   0  0  0  0  0  0  0  0  0  0  0  0
    9.1757   -8.8302    0.0000 O   0  0  0  0  0  0  0  0  0  0  0  0
    7.7468   -8.8302    0.0000 O   0  0  0  0  0  0  0  0  0  0  0  0
    8.4613   -9.2427    0.0000 C   0  0  2  0  0  0  0  0  0  0  0  0
    8.4613  -10.0677    0.0000 C   0  0  1  0  0  0  0  0  0  0  0  0
    7.7468  -10.4802    0.0000 C   0  0  2  0  0  0  0  0  0  0  0  0
    7.0323  -10.0677    0.0000 C   0  0  1  0  0  0  0  0  0  0  0  0
    7.0323   -9.2427    0.0000 C   0  0  1  0  0  0  0  0  0  0  0  0
    6.3178   -8.8302    0.0000 C   0  0  0  0  0  0  0  0  0  0  0  0
    5.6034   -9.2427    0.0000 O   0  0  0  0  0  0  0  0  0  0  0  0
    6.3178  -10.4802    0.0000 O   0  0  0  0  0  0  0  0  0  0  0  0
    7.7468  -11.3052    0.0000 O   0  0  0  0  0  0  0  0  0  0  0  0
    9.1757  -10.4802    0.0000 O   0  0  0  0  0  0  0  0  0  0  0  0
    9.1757   -5.5302    0.0000 C   0  0  0  0  0  0  0  0  0  0  0  0
    8.4613   -8.4177    0.0000 C   0  0  0  0  0  0  0  0  0  0  0  0
  1  2  1  0  0  0  0
  2  3  2  0  0  0  0
  1  4  2  0  0  0  0
  1  5  1  0  0  0  0
  6  7  1  0  0  0  0
  7  8  1  0  0  0  0
  8  9  1  0  0  0  0
  9 10  1  0  0  0  0
 10 11  1  0  0  0  0
 11 12  1  0  0  0  0
 12 13  1  0  0  0  0
 13 14  1  0  0  0  0
 14 15  1  0  0  0  0
  6 15  2  0  0  0  0
 10 15  1  0  0  0  0
 17 18  1  0  0  0  0
 18 19  1  0  0  0  0
 19 20  1  0  0  0  0
 20 21  1  0  0  0  0
 21 22  1  0  0  0  0
 17 22  1  0  0  0  0
 23 24  1  0  0  0  0
 22 23  1  1  0  0  0
 21 25  1  6  0  0  0
 20 26  1  1  0  0  0
 19 27  1  6  0  0  0
 18 16  1  1  0  0  0
 11 16  1  1  0  0  0
 14 28  1  1  0  0  0
 10 29  1  1  0  0  0
  7  2  1  1  0  0  0
M  END
>  <cdx:groupId>
55995

>  <cdx:fragmentId>
55941

$$$$
