62187.cdx
  Mrv1902 05222410252D          

 21 24  0  0  0  0            999 V2000
    9.2054   -8.9416    0.0000 O   0  0  0  0  0  0  0  0  0  0  0  0
    9.6903   -8.2742    0.0000 C   0  0  0  0  0  0  0  0  0  0  0  0
    9.2054   -7.6067    0.0000 C   0  0  0  0  0  0  0  0  0  0  0  0
    8.4208   -7.8617    0.0000 C   0  0  0  0  0  0  0  0  0  0  0  0
    7.7063   -7.4492    0.0000 C   0  0  0  0  0  0  0  0  0  0  0  0
    6.9918   -7.8617    0.0000 C   0  0  0  0  0  0  0  0  0  0  0  0
    6.9918   -8.6867    0.0000 C   0  0  0  0  0  0  0  0  0  0  0  0
    7.7063   -9.0992    0.0000 C   0  0  0  0  0  0  0  0  0  0  0  0
    8.4208   -8.6867    0.0000 C   0  0  0  0  0  0  0  0  0  0  0  0
    7.7063   -9.9242    0.0000 C   0  0  0  0  0  0  0  0  0  0  0  0
    6.9918  -10.3367    0.0000 C   0  0  0  0  0  0  0  0  0  0  0  0
    6.2774   -9.9242    0.0000 C   0  0  0  0  0  0  0  0  0  0  0  0
    5.5629  -10.3367    0.0000 C   0  0  0  0  0  0  0  0  0  0  0  0
    4.8484   -9.9242    0.0000 C   0  0  0  0  0  0  0  0  0  0  0  0
    4.8484   -9.0992    0.0000 C   0  0  0  0  0  0  0  0  0  0  0  0
    5.5629   -8.6867    0.0000 C   0  0  0  0  0  0  0  0  0  0  0  0
    6.2774   -9.0992    0.0000 C   0  0  0  0  0  0  0  0  0  0  0  0
    5.5629  -11.1617    0.0000 O   0  0  0  0  0  0  0  0  0  0  0  0
    6.2774   -7.4492    0.0000 O   0  0  0  0  0  0  0  0  0  0  0  0
    7.7063   -6.6242    0.0000 O   0  0  0  0  0  0  0  0  0  0  0  0
    9.4603   -6.8221    0.0000 C   0  0  0  0  0  0  0  0  0  0  0  0
  1  2  1  0  0  0  0
  2  3  2  0  0  0  0
  3  4  1  0  0  0  0
  4  5  1  0  0  0  0
  5  6  1  0  0  0  0
  6  7  1  0  0  0  0
  7  8  1  0  0  0  0
  8  9  1  0  0  0  0
  4  9  2  0  0  0  0
  1  9  1  0  0  0  0
 10 11  1  0  0  0  0
 11 12  2  0  0  0  0
 12 13  1  0  0  0  0
 13 14  1  0  0  0  0
 14 15  1  0  0  0  0
 15 16  1  0  0  0  0
 16 17  1  0  0  0  0
 12 17  1  0  0  0  0
 17  7  2  0  0  0  0
 10  8  2  0  0  0  0
 13 18  2  0  0  0  0
  6 19  2  0  0  0  0
  5 20  2  0  0  0  0
  3 21  1  0  0  0  0
M  END
>  <cdx:fragmentId>
38554

$$$$
