62204.cdx
  Mrv1902 05222410222D          

  5  4  0  0  0  0            999 V2000
    6.2463   -4.4481    0.0000 C   0  0  0  0  0  0  0  0  0  0  0  0
    6.9608   -4.0356    0.0000 C   0  0  0  0  0  0  0  0  0  0  0  0
    7.6752   -4.4481    0.0000 C   0  0  0  0  0  0  0  0  0  0  0  0
    8.3897   -4.0356    0.0000 C   0  0  0  0  0  0  0  0  0  0  0  0
    9.1042   -4.4481    0.0000 C   0  0  0  0  0  0  0  0  0  0  0  0
  1  2  2  0  0  0  0
  2  3  1  0  0  0  0
  3  4  2  0  0  0  0
  4  5  1  0  0  0  0
M  END
>  <cdx:fragmentId>
5

$$$$
