6222.cdx
  Mrv1902 05222410242D          

 18 19  0  0  0  0            999 V2000
    8.0718   -6.2906    0.0000 C   0  0  2  0  0  0  0  0  0  0  0  0
    8.0718   -5.4656    0.0000 C   0  0  0  0  0  0  0  0  0  0  0  0
    7.3573   -5.0531    0.0000 C   0  0  0  0  0  0  0  0  0  0  0  0
    6.6429   -5.4656    0.0000 C   0  0  2  0  0  0  0  0  0  0  0  0
    6.6429   -6.2906    0.0000 C   0  0  2  0  0  0  0  0  0  0  0  0
    7.3574   -6.7031    0.0000 C   0  0  0  0  0  0  0  0  0  0  0  0
    5.9284   -5.0532    0.0000 C   0  0  0  0  0  0  0  0  0  0  0  0
    5.2139   -5.4657    0.0000 C   0  0  0  0  0  0  0  0  0  0  0  0
    5.2139   -6.2907    0.0000 C   0  0  0  0  0  0  0  0  0  0  0  0
    5.9284   -6.7032    0.0000 C   0  0  0  0  0  0  0  0  0  0  0  0
    8.7863   -6.7031    0.0000 C   0  0  0  0  0  0  0  0  0  0  0  0
    6.6428   -4.6406    0.0000 C   0  0  0  0  0  0  0  0  0  0  0  0
    8.3738   -7.4176    0.0000 C   0  0  0  0  0  0  0  0  0  0  0  0
    9.2808   -5.9606    0.0000 C   0  0  0  0  0  0  0  0  0  0  0  0
    6.6429   -7.1156    0.0000 H   0  0  0  0  0  0  0  0  0  0  0  0
    5.9284   -7.5282    0.0000 C   0  0  0  0  0  0  0  0  0  0  0  0
    9.5008   -7.1156    0.0000 O   0  0  0  0  0  0  0  0  0  0  0  0
    8.0718   -7.1156    0.0000 H   0  0  0  0  0  0  0  0  0  0  0  0
  1  2  1  0  0  0  0
  2  3  1  0  0  0  0
  3  4  1  0  0  0  0
  4  5  1  0  0  0  0
  5  6  1  0  0  0  0
  6  1  1  0  0  0  0
  4  7  1  0  0  0  0
  7  8  2  0  0  0  0
  8  9  1  0  0  0  0
  9 10  2  0  0  0  0
 10  5  1  0  0  0  0
  1 11  1  0  0  0  0
  4 12  1  1  0  0  0
 11 13  1  0  0  0  0
 11 14  1  0  0  0  0
  5 15  1  1  0  0  0
 10 16  1  6  0  0  0
 11 17  1  0  0  0  0
  1 18  1  6  0  0  0
M  END
>  <cdx:fragmentId>
5

$$$$
