62258.cdx
  Mrv1902 05222410202D          

 11 11  0  0  0  0            999 V2000
    6.3882   -8.0528    0.0000 C   0  0  0  0  0  0  0  0  0  0  0  0
    7.1022   -7.6395    0.0000 C   0  0  1  0  0  0  0  0  0  0  0  0
    7.1013   -6.8145    0.0000 N   0  0  0  0  0  0  0  0  0  0  0  0
    5.6732   -7.6410    0.0000 O   0  0  0  0  0  0  0  0  0  0  0  0
    6.3891   -8.8778    0.0000 C   0  0  0  0  0  0  0  0  0  0  0  0
    7.1040   -9.2895    0.0000 C   0  0  0  0  0  0  0  0  0  0  0  0
    7.1049  -10.1145    0.0000 C   0  0  0  0  0  0  0  0  0  0  0  0
    6.3909  -10.5278    0.0000 C   0  0  0  0  0  0  0  0  0  0  0  0
    5.6760  -10.1160    0.0000 C   0  0  0  0  0  0  0  0  0  0  0  0
    5.6750   -9.2910    0.0000 C   0  0  0  0  0  0  0  0  0  0  0  0
    7.8171   -8.0512    0.0000 C   0  0  0  0  0  0  0  0  0  0  0  0
  1  2  1  0  0  0  0
  2  3  1  1  0  0  0
  1  4  2  0  0  0  0
  5  6  1  0  0  0  0
  6  7  2  0  0  0  0
  7  8  1  0  0  0  0
  8  9  2  0  0  0  0
  9 10  1  0  0  0  0
  5 10  2  0  0  0  0
  1  5  1  0  0  0  0
  2 11  1  0  0  0  0
M  END
>  <cdx:fragmentId>
13

$$$$
