622536.cdx
  Mrv1902 05222410182D          

 18 18  0  0  0  0            999 V2000
   13.7714  -17.8922    0.0000 C   0  0  0  0  0  0  0  0  0  0  0  0
   14.4859  -17.4797    0.0000 C   0  0  0  0  0  0  0  0  0  0  0  0
   14.4859  -16.6547    0.0000 C   0  0  0  0  0  0  0  0  0  0  0  0
   15.2004  -16.2422    0.0000 C   0  0  0  0  0  0  0  0  0  0  0  0
   15.9149  -16.6547    0.0000 C   0  0  0  0  0  0  0  0  0  0  0  0
   15.9149  -17.4797    0.0000 C   0  0  0  0  0  0  0  0  0  0  0  0
   15.2004  -17.8922    0.0000 C   0  0  0  0  0  0  0  0  0  0  0  0
   13.0570  -17.4797    0.0000 O   0  0  0  0  0  0  0  0  0  0  0  0
   16.6293  -17.8922    0.0000 O   0  0  0  0  0  0  0  0  0  0  0  0
   17.3438  -17.4797    0.0000 Si  0  0  0  0  0  0  0  0  0  0  0  0
   18.0583  -17.0672    0.0000 C   0  0  0  0  0  0  0  0  0  0  0  0
   17.3438  -16.6547    0.0000 C   0  0  0  0  0  0  0  0  0  0  0  0
   18.0583  -17.8922    0.0000 C   0  0  0  0  0  0  0  0  0  0  0  0
   13.7714  -16.2422    0.0000 O   0  0  0  0  0  0  0  0  0  0  0  0
   13.7714  -15.4172    0.0000 Si  0  0  0  0  0  0  0  0  0  0  0  0
   13.7714  -14.5922    0.0000 C   0  0  0  0  0  0  0  0  0  0  0  0
   14.4859  -15.0047    0.0000 C   0  0  0  0  0  0  0  0  0  0  0  0
   13.0570  -15.0047    0.0000 C   0  0  0  0  0  0  0  0  0  0  0  0
  1  2  1  0  0  0  0
  2  3  1  0  0  0  0
  3  4  2  0  0  0  0
  4  5  1  0  0  0  0
  5  6  2  0  0  0  0
  6  7  1  0  0  0  0
  2  7  2  0  0  0  0
  1  8  2  0  0  0  0
 10 11  1  0  0  0  0
 10 12  1  0  0  0  0
 10 13  1  0  0  0  0
  9 10  1  0  0  0  0
  6  9  1  0  0  0  0
 15 16  1  0  0  0  0
 15 17  1  0  0  0  0
 15 18  1  0  0  0  0
 14 15  1  0  0  0  0
  3 14  1  0  0  0  0
M  END
>  <cdx:groupId>
9382

>  <cdx:fragmentId>
9331

$$$$
