6228.cdx
  Mrv1902 05222410202D          

  5  4  0  0  0  0            999 V2000
    3.7602   -2.8177    0.0000 C   0  0  0  0  0  0  0  0  0  0  0  0
    3.0457   -2.4052    0.0000 O   0  0  0  0  0  0  0  0  0  0  0  0
    4.4747   -2.4052    0.0000 N   0  0  0  0  0  0  0  0  0  0  0  0
    4.4747   -1.5802    0.0000 C   0  0  0  0  0  0  0  0  0  0  0  0
    5.1891   -2.8177    0.0000 C   0  0  0  0  0  0  0  0  0  0  0  0
  1  2  2  0  0  0  0
  1  3  1  0  0  0  0
  3  4  1  0  0  0  0
  3  5  1  0  0  0  0
M  END
>  <cdx:groupId>
16

>  <cdx:fragmentId>
5

$$$$
