623191.cdx
  Mrv1902 05222410262D          

 22 24  0  0  0  0            999 V2000
    3.9168  -10.8064    0.0000 C   0  0  0  0  0  0  0  0  0  0  0  0
    3.9168  -11.6314    0.0000 C   0  0  0  0  0  0  0  0  0  0  0  0
    4.6313  -12.0439    0.0000 C   0  0  0  0  0  0  0  0  0  0  0  0
    5.3457  -11.6314    0.0000 C   0  0  0  0  0  0  0  0  0  0  0  0
    5.3457  -10.8064    0.0000 C   0  0  0  0  0  0  0  0  0  0  0  0
    4.6313  -10.3939    0.0000 C   0  0  0  0  0  0  0  0  0  0  0  0
    6.0602  -10.3939    0.0000 C   0  0  2  0  0  0  0  0  0  0  0  0
    3.2023  -12.0439    0.0000 O   0  0  0  0  0  0  0  0  0  0  0  0
    6.8571  -10.1804    0.0000 C   0  0  1  0  0  0  0  0  0  0  0  0
    5.7750   -9.6800    0.0000 O   0  0  0  0  0  0  0  0  0  0  0  0
    7.7000  -10.5875    0.0000 C   0  0  2  0  0  0  0  0  0  0  0  0
    6.6436   -9.3835    0.0000 C   0  0  2  0  0  0  0  0  0  0  0  0
    8.0300   -9.4875    0.0000 C   0  0  0  0  0  0  0  0  0  0  0  0
    7.0675   -8.6075    0.0000 C   0  0  0  0  0  0  0  0  0  0  0  0
    8.3875  -10.1200    0.0000 C   0  0  0  0  0  0  0  0  0  0  0  0
    6.8571  -11.0054    0.0000 H   0  0  0  0  0  0  0  0  0  0  0  0
    6.4301   -8.5866    0.0000 H   0  0  0  0  0  0  0  0  0  0  0  0
    7.6509   -8.0241    0.0000 C   0  0  0  0  0  0  0  0  0  0  0  0
    6.8540   -7.8106    0.0000 C   0  0  0  0  0  0  0  0  0  0  0  0
    7.4865  -11.3844    0.0000 C   0  0  0  0  0  0  0  0  0  0  0  0
    8.1125  -11.3020    0.0000 C   0  0  0  0  0  0  0  0  0  0  0  0
    8.9375  -11.3020    0.0000 C   0  0  0  0  0  0  0  0  0  0  0  0
  1  2  2  0  0  0  0
  2  3  1  0  0  0  0
  3  4  2  0  0  0  0
  4  5  1  0  0  0  0
  5  6  2  0  0  0  0
  6  1  1  0  0  0  0
  7  5  1  1  0  0  0
  2  8  1  0  0  0  0
  7  9  1  0  0  0  0
  7 10  1  0  0  0  0
  9 11  1  0  0  0  0
 10 12  1  0  0  0  0
 12 13  1  0  0  0  0
 12 14  1  0  0  0  0
 14  9  1  0  0  0  0
 13 15  1  0  0  0  0
 11 15  1  0  0  0  0
  9 16  1  1  0  0  0
 12 17  1  6  0  0  0
 14 18  1  0  0  0  0
 14 19  1  0  0  0  0
 11 20  1  6  0  0  0
 11 21  1  0  0  0  0
 21 22  2  0  0  0  0
M  END
>  <cdx:fragmentId>
67

$$$$
