62323.cdx
  Mrv1902 05222410272D          

  5  4  0  0  0  0            999 V2000
    6.6934   -9.7337    0.0000 C   0  0  0  0  0  0  0  0  0  0  0  0
    6.6950   -8.9087    0.0000 C   0  0  0  0  0  0  0  0  0  0  0  0
    7.4103   -8.4976    0.0000 C   0  0  0  0  0  0  0  0  0  0  0  0
    8.1256   -8.0866    0.0000 C   0  0  0  0  0  0  0  0  0  0  0  0
    5.9814   -8.4948    0.0000 C   0  0  0  0  0  0  0  0  0  0  0  0
  1  2  2  0  0  0  0
  2  3  1  0  0  0  0
  3  4  3  0  0  0  0
  2  5  1  0  0  0  0
M  END
>  <cdx:fragmentId>
5

$$$$
