62328.cdx
  Mrv1902 05222410182D          

 15 15  0  0  0  0            999 V2000
    6.8750   -5.4307    0.0000 C   0  0  0  0  0  0  0  0  0  0  0  0
    6.1604   -5.8428    0.0000 C   0  0  0  0  0  0  0  0  0  0  0  0
    6.1600   -6.6678    0.0000 C   0  0  0  0  0  0  0  0  0  0  0  0
    6.8742   -7.0807    0.0000 C   0  0  0  0  0  0  0  0  0  0  0  0
    7.5889   -6.6686    0.0000 C   0  0  0  0  0  0  0  0  0  0  0  0
    7.5893   -5.8436    0.0000 C   0  0  0  0  0  0  0  0  0  0  0  0
    6.8738   -7.9057    0.0000 C   0  0  0  0  0  0  0  0  0  0  0  0
    6.8755   -4.6057    0.0000 C   0  0  0  0  0  0  0  0  0  0  0  0
    6.0505   -4.6057    0.0000 C   0  0  0  0  0  0  0  0  0  0  0  0
    7.7005   -4.6057    0.0000 C   0  0  0  0  0  0  0  0  0  0  0  0
    6.8759   -3.7807    0.0000 O   0  0  0  0  0  0  0  0  0  0  0  0
    7.5905   -3.3686    0.0000 C   0  0  0  0  0  0  0  0  0  0  0  0
    8.3048   -3.7814    0.0000 O   0  0  0  0  0  0  0  0  0  0  0  0
    7.5909   -2.5436    0.0000 C   0  0  0  0  0  0  0  0  0  0  0  0
    8.3056   -2.1314    0.0000 C   0  0  0  0  0  0  0  0  0  0  0  0
  1  2  1  0  0  0  0
  2  3  1  0  0  0  0
  3  4  1  0  0  0  0
  4  5  2  0  0  0  0
  5  6  1  0  0  0  0
  1  6  1  0  0  0  0
  4  7  1  0  0  0  0
  1  8  1  0  0  0  0
  8  9  1  0  0  0  0
  8 10  1  0  0  0  0
  8 11  1  0  0  0  0
 11 12  1  0  0  0  0
 12 13  2  0  0  0  0
 12 14  1  0  0  0  0
 14 15  1  0  0  0  0
M  END
>  <cdx:fragmentId>
50

$$$$
