62348.cdx
  Mrv1902 05222410212D          

 11 11  0  0  0  0            999 V2000
    8.4116   -6.9033    0.0000 C   0  0  0  0  0  0  0  0  0  0  0  0
    7.6971   -6.4908    0.0000 C   0  0  0  0  0  0  0  0  0  0  0  0
    6.9826   -6.9033    0.0000 C   0  0  0  0  0  0  0  0  0  0  0  0
    6.2682   -6.4908    0.0000 C   0  0  0  0  0  0  0  0  0  0  0  0
    6.2682   -5.6658    0.0000 C   0  0  0  0  0  0  0  0  0  0  0  0
    6.9826   -5.2533    0.0000 C   0  0  0  0  0  0  0  0  0  0  0  0
    7.6971   -5.6658    0.0000 C   0  0  0  0  0  0  0  0  0  0  0  0
    5.5537   -6.9033    0.0000 O   0  0  0  0  0  0  0  0  0  0  0  0
    4.8392   -6.4908    0.0000 C   0  0  0  0  0  0  0  0  0  0  0  0
    5.5537   -5.2533    0.0000 O   0  0  0  0  0  0  0  0  0  0  0  0
    9.1261   -6.4908    0.0000 O   0  0  0  0  0  0  0  0  0  0  0  0
  1  2  1  0  0  0  0
  2  3  1  0  0  0  0
  3  4  2  0  0  0  0
  4  5  1  0  0  0  0
  5  6  2  0  0  0  0
  6  7  1  0  0  0  0
  2  7  2  0  0  0  0
  8  9  1  0  0  0  0
  4  8  1  0  0  0  0
  5 10  1  0  0  0  0
  1 11  1  0  0  0  0
M  END
>  <cdx:groupId>
35

>  <cdx:fragmentId>
5

$$$$
