62367.cdx
  Mrv1902 05222410232D          

 11 12  0  0  0  0            999 V2000
    6.9249   -4.4509    0.0000 C   0  0  0  0  0  0  0  0  0  0  0  0
    7.7095   -4.1960    0.0000 C   0  0  0  0  0  0  0  0  0  0  0  0
    8.1944   -4.8634    0.0000 C   0  0  0  0  0  0  0  0  0  0  0  0
    7.7095   -5.5308    0.0000 C   0  0  0  0  0  0  0  0  0  0  0  0
    6.9249   -5.2759    0.0000 C   0  0  0  0  0  0  0  0  0  0  0  0
    6.2104   -4.8634    0.0000 C   0  0  0  0  0  0  0  0  0  0  0  0
    8.1220   -3.4815    0.0000 O   0  0  0  0  0  0  0  0  0  0  0  0
    7.2970   -3.4815    0.0000 C   0  0  0  0  0  0  0  0  0  0  0  0
    6.5893   -6.0296    0.0000 C   0  0  0  0  0  0  0  0  0  0  0  0
    7.0743   -6.6970    0.0000 C   0  0  0  0  0  0  0  0  0  0  0  0
    5.7689   -6.1158    0.0000 C   0  0  0  0  0  0  0  0  0  0  0  0
  1  2  1  0  0  0  0
  2  3  1  0  0  0  0
  3  4  1  0  0  0  0
  4  5  1  0  0  0  0
  5  6  1  0  0  0  0
  1  6  1  0  0  0  0
  1  5  1  0  0  0  0
  2  7  1  0  0  0  0
  2  8  1  0  0  0  0
  9 10  1  0  0  0  0
  9 11  1  0  0  0  0
  5  9  1  0  0  0  0
M  END
>  <cdx:fragmentId>
5

$$$$
