6238.cdx
  Mrv1902 05222410232D          

 27 30  0  0  0  0            999 V2000
    5.6709   -7.0351    0.0000 C   0  0  0  0  0  0  0  0  0  0  0  0
    4.9564   -7.4476    0.0000 C   0  0  0  0  0  0  0  0  0  0  0  0
    4.9564   -8.2726    0.0000 C   0  0  0  0  0  0  0  0  0  0  0  0
    5.6709   -8.6851    0.0000 C   0  0  0  0  0  0  0  0  0  0  0  0
    6.3853   -8.2726    0.0000 C   0  0  0  0  0  0  0  0  0  0  0  0
    7.0998   -8.6851    0.0000 C   0  0  0  0  0  0  0  0  0  0  0  0
    7.8143   -8.2726    0.0000 C   0  0  0  0  0  0  0  0  0  0  0  0
    7.8143   -7.4476    0.0000 C   0  0  1  0  0  0  0  0  0  0  0  0
    8.5287   -7.0351    0.0000 C   0  0  2  0  0  0  0  0  0  0  0  0
    9.3134   -7.2901    0.0000 C   0  0  0  0  0  0  0  0  0  0  0  0
    9.7983   -6.6226    0.0000 C   0  0  0  0  0  0  0  0  0  0  0  0
    9.3134   -5.9552    0.0000 C   0  0  2  0  0  0  0  0  0  0  0  0
    8.5287   -6.2101    0.0000 C   0  0  1  0  0  0  0  0  0  0  0  0
    7.8143   -5.7976    0.0000 C   0  0  0  0  0  0  0  0  0  0  0  0
    7.0998   -6.2101    0.0000 C   0  0  0  0  0  0  0  0  0  0  0  0
    7.0998   -7.0351    0.0000 C   0  0  2  0  0  0  0  0  0  0  0  0
    6.3853   -7.4476    0.0000 C   0  0  1  0  0  0  0  0  0  0  0  0
    4.2419   -8.6851    0.0000 O   0  0  0  0  0  0  0  0  0  0  0  0
    8.6150   -5.3897    0.0000 C   0  0  0  0  0  0  0  0  0  0  0  0
    6.3853   -6.6226    0.0000 C   0  0  0  0  0  0  0  0  0  0  0  0
    9.1418   -5.1482    0.0000 O   0  0  0  0  0  0  0  0  0  0  0  0
    9.9265   -5.4032    0.0000 C   0  0  0  0  0  0  0  0  0  0  0  0
    9.7549   -4.5962    0.0000 O   0  0  0  0  0  0  0  0  0  0  0  0
   10.7111   -5.6581    0.0000 C   0  0  0  0  0  0  0  0  0  0  0  0
    7.8143   -6.6226    0.0000 H   0  0  0  0  0  0  0  0  0  0  0  0
    7.0998   -7.8601    0.0000 H   0  0  0  0  0  0  0  0  0  0  0  0
    8.5287   -7.8601    0.0000 H   0  0  0  0  0  0  0  0  0  0  0  0
  1  2  1  0  0  0  0
  2  3  1  0  0  0  0
  3  4  1  0  0  0  0
  4  5  2  0  0  0  0
  5  6  1  0  0  0  0
  6  7  1  0  0  0  0
  7  8  1  0  0  0  0
  8  9  1  0  0  0  0
  9 10  1  0  0  0  0
 10 11  1  0  0  0  0
 11 12  1  0  0  0  0
 12 13  1  0  0  0  0
  9 13  1  0  0  0  0
 13 14  1  0  0  0  0
 14 15  1  0  0  0  0
 15 16  1  0  0  0  0
  8 16  1  0  0  0  0
 16 17  1  0  0  0  0
  5 17  1  0  0  0  0
  1 17  1  0  0  0  0
  3 18  2  0  0  0  0
 13 19  1  1  0  0  0
 17 20  1  1  0  0  0
 12 21  1  6  0  0  0
 22 23  2  0  0  0  0
 22 24  1  0  0  0  0
 12 22  1  1  0  0  0
  8 25  1  1  0  0  0
 16 26  1  6  0  0  0
  9 27  1  6  0  0  0
M  END
>  <cdx:groupId>
86

>  <cdx:fragmentId>
5

$$$$
