623940.cdx
  Mrv1902 05222410192D          

 21 24  0  0  0  0            999 V2000
    6.0117  -10.9826    0.0000 C   0  0  0  0  0  0  0  0  0  0  0  0
   10.3096   -7.3254    0.0000 C   0  0  0  0  0  0  0  0  0  0  0  0
    6.7463   -7.2741    0.0000 O   0  0  0  0  0  0  0  0  0  0  0  0
    9.5952   -8.9396    0.0000 O   0  0  0  0  0  0  0  0  0  0  0  0
    6.7374   -8.9240    0.0000 C   0  0  0  0  0  0  0  0  0  0  0  0
    6.0252   -8.5077    0.0000 C   0  0  0  0  0  0  0  0  0  0  0  0
    5.3085   -8.9163    0.0000 C   0  0  0  0  0  0  0  0  0  0  0  0
    5.3040   -9.7413    0.0000 C   0  0  0  0  0  0  0  0  0  0  0  0
    6.0162  -10.1576    0.0000 C   0  0  0  0  0  0  0  0  0  0  0  0
    6.7329   -9.7490    0.0000 C   0  0  0  0  0  0  0  0  0  0  0  0
    7.4451  -10.1654    0.0000 C   0  0  0  0  0  0  0  0  0  0  0  0
    8.1618   -9.7568    0.0000 C   0  0  0  0  0  0  0  0  0  0  0  0
    8.1753   -7.2818    0.0000 C   0  0  0  0  0  0  0  0  0  0  0  0
    7.4586   -7.6904    0.0000 C   0  0  0  0  0  0  0  0  0  0  0  0
    7.4541   -8.5154    0.0000 C   0  0  0  0  0  0  0  0  0  0  0  0
    8.1663   -8.9318    0.0000 C   0  0  0  0  0  0  0  0  0  0  0  0
    8.8830   -8.5232    0.0000 C   0  0  0  0  0  0  0  0  0  0  0  0
    8.8875   -7.6982    0.0000 C   0  0  0  0  0  0  0  0  0  0  0  0
    9.5036   -7.1495    0.0000 C   0  0  0  0  0  0  0  0  0  0  0  0
    9.1721   -6.3940    0.0000 C   0  0  0  0  0  0  0  0  0  0  0  0
    8.3512   -6.4758    0.0000 O   0  0  0  0  0  0  0  0  0  0  0  0
  9  1  1  0  0  0  0
 19  2  1  0  0  0  0
 14  3  2  0  0  0  0
 17  4  2  0  0  0  0
  5 15  2  0  0  0  0
 12 16  2  0  0  0  0
 10  5  1  0  0  0  0
  6  5  1  0  0  0  0
  7  6  2  0  0  0  0
  8  7  1  0  0  0  0
  9  8  2  0  0  0  0
 10  9  1  0  0  0  0
 11 10  2  0  0  0  0
 12 11  1  0  0  0  0
 21 13  1  0  0  0  0
 18 13  2  0  0  0  0
 14 13  1  0  0  0  0
 15 14  1  0  0  0  0
 16 15  1  0  0  0  0
 17 16  1  0  0  0  0
 18 17  1  0  0  0  0
 19 18  1  0  0  0  0
 20 19  2  0  0  0  0
 21 20  1  0  0  0  0
M  END
>  <cdx:groupId>
9454

>  <cdx:fragmentId>
9391

$$$$
