624013.cdx
  Mrv1902 05222410262D          

 21 23  0  0  0  0            999 V2000
    8.2378   -8.8493    0.0000 C   0  0  0  0  0  0  0  0  0  0  0  0
    8.9522   -9.2618    0.0000 C   0  0  0  0  0  0  0  0  0  0  0  0
    8.9522  -10.0868    0.0000 C   0  0  0  0  0  0  0  0  0  0  0  0
    8.2378  -10.4993    0.0000 C   0  0  0  0  0  0  0  0  0  0  0  0
    7.5233  -10.0868    0.0000 C   0  0  0  0  0  0  0  0  0  0  0  0
    6.8088  -10.4993    0.0000 C   0  0  0  0  0  0  0  0  0  0  0  0
    6.0944  -10.0868    0.0000 C   0  0  0  0  0  0  0  0  0  0  0  0
    6.0944   -9.2618    0.0000 C   0  0  0  0  0  0  0  0  0  0  0  0
    6.8088   -8.8493    0.0000 C   0  0  0  0  0  0  0  0  0  0  0  0
    7.5233   -9.2618    0.0000 C   0  0  0  0  0  0  0  0  0  0  0  0
    8.2378   -8.0243    0.0000 O   0  0  0  0  0  0  0  0  0  0  0  0
    9.6667   -8.8493    0.0000 O   0  0  0  0  0  0  0  0  0  0  0  0
    6.8088   -8.0243    0.0000 N   0  0  0  0  0  0  0  0  0  0  0  0
    6.0944   -7.6118    0.0000 C   0  0  0  0  0  0  0  0  0  0  0  0
    6.0944   -6.7868    0.0000 C   0  0  0  0  0  0  0  0  0  0  0  0
    5.3799   -6.3743    0.0000 C   0  0  0  0  0  0  0  0  0  0  0  0
    4.6654   -6.7868    0.0000 C   0  0  0  0  0  0  0  0  0  0  0  0
    4.6654   -7.6118    0.0000 C   0  0  0  0  0  0  0  0  0  0  0  0
    5.3799   -8.0243    0.0000 C   0  0  0  0  0  0  0  0  0  0  0  0
    3.9509   -8.0243    0.0000 C   0  0  0  0  0  0  0  0  0  0  0  0
    6.8088   -6.3743    0.0000 C   0  0  0  0  0  0  0  0  0  0  0  0
  1  2  1  0  0  0  0
  2  3  1  0  0  0  0
  3  4  2  0  0  0  0
  4  5  1  0  0  0  0
  5  6  1  0  0  0  0
  6  7  2  0  0  0  0
  7  8  1  0  0  0  0
  8  9  2  0  0  0  0
  9 10  1  0  0  0  0
  1 10  1  0  0  0  0
  5 10  2  0  0  0  0
  1 11  2  0  0  0  0
  2 12  2  0  0  0  0
 13 14  1  0  0  0  0
 14 15  1  0  0  0  0
 15 16  2  0  0  0  0
 16 17  1  0  0  0  0
 17 18  2  0  0  0  0
 18 19  1  0  0  0  0
 14 19  2  0  0  0  0
 18 20  1  0  0  0  0
 15 21  1  0  0  0  0
  9 13  1  0  0  0  0
M  END
>  <cdx:fragmentId>
9461

$$$$
