62433.cdx
  Mrv1902 05222410242D          

 12 11  0  0  0  0            999 V2000
    5.5720   -2.5652    0.0000 C   0  0  0  0  0  0  0  0  0  0  0  0
    4.8576   -2.9777    0.0000 C   0  0  0  0  0  0  0  0  0  0  0  0
    4.1431   -2.5652    0.0000 C   0  0  0  0  0  0  0  0  0  0  0  0
    3.4286   -2.9777    0.0000 C   0  0  0  0  0  0  0  0  0  0  0  0
    2.7141   -2.5652    0.0000 C   0  0  0  0  0  0  0  0  0  0  0  0
    5.5720   -1.7402    0.0000 O   0  0  0  0  0  0  0  0  0  0  0  0
    6.2865   -2.9777    0.0000 O   0  0  0  0  0  0  0  0  0  0  0  0
    7.0010   -2.5652    0.0000 C   0  0  0  0  0  0  0  0  0  0  0  0
    7.7154   -2.9777    0.0000 C   0  0  0  0  0  0  0  0  0  0  0  0
    8.4299   -2.5652    0.0000 C   0  0  0  0  0  0  0  0  0  0  0  0
    9.1444   -2.9777    0.0000 C   0  0  0  0  0  0  0  0  0  0  0  0
    9.8589   -2.5652    0.0000 C   0  0  0  0  0  0  0  0  0  0  0  0
  1  2  1  0  0  0  0
  2  3  1  0  0  0  0
  3  4  1  0  0  0  0
  4  5  1  0  0  0  0
  1  6  2  0  0  0  0
  1  7  1  0  0  0  0
  8  9  1  0  0  0  0
  9 10  1  0  0  0  0
 10 11  1  0  0  0  0
 11 12  1  0  0  0  0
  7  8  1  0  0  0  0
M  END
>  <cdx:groupId>
37

>  <cdx:fragmentId>
5

$$$$
