62445.cdx
  Mrv1902 05222410272D          

 12 11  0  0  0  0            999 V2000
    5.7370   -2.5583    0.0000 C   0  0  0  0  0  0  0  0  0  0  0  0
    5.0226   -2.9708    0.0000 C   0  0  0  0  0  0  0  0  0  0  0  0
    4.3081   -2.5583    0.0000 C   0  0  0  0  0  0  0  0  0  0  0  0
    4.3081   -1.7333    0.0000 C   0  0  0  0  0  0  0  0  0  0  0  0
    5.7370   -1.7333    0.0000 O   0  0  0  0  0  0  0  0  0  0  0  0
    6.4515   -2.9708    0.0000 O   0  0  0  0  0  0  0  0  0  0  0  0
    3.5936   -2.9708    0.0000 C   0  0  0  0  0  0  0  0  0  0  0  0
    7.1660   -2.5583    0.0000 C   0  0  0  0  0  0  0  0  0  0  0  0
    7.8804   -2.9708    0.0000 C   0  0  0  0  0  0  0  0  0  0  0  0
    8.5949   -2.5583    0.0000 C   0  0  0  0  0  0  0  0  0  0  0  0
    9.3094   -2.9708    0.0000 C   0  0  0  0  0  0  0  0  0  0  0  0
    7.8804   -3.7958    0.0000 C   0  0  0  0  0  0  0  0  0  0  0  0
  1  2  1  0  0  0  0
  2  3  1  0  0  0  0
  3  4  1  0  0  0  0
  1  5  2  0  0  0  0
  1  6  1  0  0  0  0
  3  7  1  0  0  0  0
  8  9  1  0  0  0  0
  9 10  1  0  0  0  0
 10 11  1  0  0  0  0
  9 12  1  0  0  0  0
  6  8  1  0  0  0  0
M  END
>  <cdx:groupId>
37

>  <cdx:fragmentId>
5

$$$$
