62465.cdx
  Mrv1902 05222410192D          

 11 11  0  0  0  0            999 V2000
    6.5472   -2.5446    0.0000 C   0  0  0  0  0  0  0  0  0  0  0  0
    6.5472   -3.3696    0.0000 C   0  0  0  0  0  0  0  0  0  0  0  0
    5.8327   -3.7821    0.0000 C   0  0  0  0  0  0  0  0  0  0  0  0
    5.1183   -3.3696    0.0000 C   0  0  0  0  0  0  0  0  0  0  0  0
    5.1183   -2.5446    0.0000 C   0  0  0  0  0  0  0  0  0  0  0  0
    5.8327   -2.1321    0.0000 C   0  0  0  0  0  0  0  0  0  0  0  0
    7.2617   -2.1321    0.0000 O   0  0  0  0  0  0  0  0  0  0  0  0
    7.2617   -3.7821    0.0000 O   0  0  0  0  0  0  0  0  0  0  0  0
    7.9762   -3.3696    0.0000 C   0  0  0  0  0  0  0  0  0  0  0  0
    4.4038   -3.7821    0.0000 C   0  0  0  0  0  0  0  0  0  0  0  0
    3.6893   -3.3696    0.0000 C   0  0  0  0  0  0  0  0  0  0  0  0
  1  2  1  0  0  0  0
  2  3  2  0  0  0  0
  3  4  1  0  0  0  0
  4  5  2  0  0  0  0
  5  6  1  0  0  0  0
  1  6  2  0  0  0  0
  1  7  1  0  0  0  0
  8  9  1  0  0  0  0
  2  8  1  0  0  0  0
 10 11  1  0  0  0  0
  4 10  1  0  0  0  0
M  END
>  <cdx:groupId>
35

>  <cdx:fragmentId>
5

$$$$
