101625117.cdx
  Mrv1902 05222410202D          

 19 18  0  0  0  0            999 V2000
   12.9840   -8.8686    0.0000 C   0  0  0  0  0  0  0  0  0  0  0  0
   12.2695   -9.2811    0.0000 C   0  0  0  0  0  0  0  0  0  0  0  0
   11.5551   -8.8686    0.0000 C   0  0  0  0  0  0  0  0  0  0  0  0
   10.8406   -9.2811    0.0000 C   0  0  0  0  0  0  0  0  0  0  0  0
   10.1261   -8.8686    0.0000 C   0  0  0  0  0  0  0  0  0  0  0  0
    9.4117   -9.2811    0.0000 C   0  0  0  0  0  0  0  0  0  0  0  0
    8.6972   -9.6936    0.0000 C   0  0  0  0  0  0  0  0  0  0  0  0
    7.9827  -10.1061    0.0000 C   0  0  0  0  0  0  0  0  0  0  0  0
    7.2682   -9.6936    0.0000 C   0  0  0  0  0  0  0  0  0  0  0  0
    6.5538  -10.1061    0.0000 C   0  0  0  0  0  0  0  0  0  0  0  0
    5.8393   -9.6936    0.0000 C   0  0  0  0  0  0  0  0  0  0  0  0
    5.1248  -10.1061    0.0000 C   0  0  0  0  0  0  0  0  0  0  0  0
    4.4104   -9.6936    0.0000 C   0  0  0  0  0  0  0  0  0  0  0  0
    3.6959  -10.1061    0.0000 C   0  0  0  0  0  0  0  0  0  0  0  0
    2.9814   -9.6936    0.0000 C   0  0  0  0  0  0  0  0  0  0  0  0
    2.2670  -10.1061    0.0000 C   0  0  0  0  0  0  0  0  0  0  0  0
    1.5525   -9.6936    0.0000 C   0  0  0  0  0  0  0  0  0  0  0  0
   11.9676   -8.1541    0.0000 O   0  0  0  0  0  0  0  0  0  0  0  0
   11.1426   -8.1541    0.0000 O   0  0  0  0  0  0  0  0  0  0  0  0
  1  2  2  0  0  0  0
  2  3  1  0  0  0  0
  3  4  1  0  0  0  0
  4  5  2  0  0  0  0
  5  6  1  0  0  0  0
  6  7  3  0  0  0  0
  7  8  1  0  0  0  0
  8  9  1  0  0  0  0
  9 10  2  0  0  0  0
 10 11  1  0  0  0  0
 11 12  1  0  0  0  0
 12 13  1  0  0  0  0
 13 14  1  0  0  0  0
 14 15  1  0  0  0  0
 15 16  1  0  0  0  0
 16 17  1  0  0  0  0
  3 18  1  0  0  0  0
  3 19  1  0  0  0  0
M  END
>  <cdx:groupId>
255298

>  <cdx:fragmentId>
255245

$$$$
