101625116.cdx
  Mrv1902 05222410202D          

 19 19  0  0  0  0            999 V2000
   13.0393   -8.9555    0.0000 C   0  0  0  0  0  0  0  0  0  0  0  0
   12.3248   -9.3680    0.0000 C   0  0  0  0  0  0  0  0  0  0  0  0
   11.6103   -8.9555    0.0000 C   0  0  0  0  0  0  0  0  0  0  0  0
   10.8959   -9.3680    0.0000 C   0  0  0  0  0  0  0  0  0  0  0  0
   10.1814   -8.9555    0.0000 C   0  0  0  0  0  0  0  0  0  0  0  0
    9.4669   -9.3680    0.0000 C   0  0  0  0  0  0  0  0  0  0  0  0
    8.7525   -9.7805    0.0000 C   0  0  0  0  0  0  0  0  0  0  0  0
    8.0380  -10.1930    0.0000 C   0  0  0  0  0  0  0  0  0  0  0  0
   11.6103   -8.1305    0.0000 O   0  0  0  0  0  0  0  0  0  0  0  0
    6.9110   -9.0660    0.0000 O   0  0  0  0  0  0  0  0  0  0  0  0
    7.3235   -9.7805    0.0000 C   0  0  1  0  0  0  0  0  0  0  0  0
    6.4985   -9.7805    0.0000 C   0  0  2  0  0  0  0  0  0  0  0  0
    5.7840  -10.1930    0.0000 C   0  0  0  0  0  0  0  0  0  0  0  0
    5.0696   -9.7805    0.0000 C   0  0  0  0  0  0  0  0  0  0  0  0
    4.3551  -10.1930    0.0000 C   0  0  0  0  0  0  0  0  0  0  0  0
    3.6406   -9.7805    0.0000 C   0  0  0  0  0  0  0  0  0  0  0  0
    2.9262  -10.1930    0.0000 C   0  0  0  0  0  0  0  0  0  0  0  0
    2.2117   -9.7805    0.0000 C   0  0  0  0  0  0  0  0  0  0  0  0
    1.4972  -10.1930    0.0000 C   0  0  0  0  0  0  0  0  0  0  0  0
  1  2  2  0  0  0  0
  2  3  1  0  0  0  0
  3  4  1  0  0  0  0
  4  5  2  0  0  0  0
  5  6  1  0  0  0  0
  6  7  3  0  0  0  0
  7  8  1  0  0  0  0
  3  9  1  0  0  0  0
 10 11  1  0  0  0  0
 11 12  1  0  0  0  0
 10 12  1  0  0  0  0
 13 14  1  0  0  0  0
 14 15  1  0  0  0  0
 15 16  1  0  0  0  0
 16 17  1  0  0  0  0
 17 18  1  0  0  0  0
 18 19  1  0  0  0  0
 12 13  1  6  0  0  0
 11  8  1  6  0  0  0
M  END
>  <cdx:groupId>
255237

>  <cdx:fragmentId>
255207

$$$$
