15625232.cdx
  Mrv1902 05222410232D          

 17 19  0  0  0  0            999 V2000
    7.0089  -14.6276    0.0000 C   0  0  1  0  0  0  0  0  0  0  0  0
    6.2944  -15.0401    0.0000 C   0  0  2  0  0  0  0  0  0  0  0  0
    6.2944  -15.8651    0.0000 C   0  0  0  0  0  0  0  0  0  0  0  0
    7.0089  -16.2776    0.0000 C   0  0  0  0  0  0  0  0  0  0  0  0
    7.7234  -15.8651    0.0000 C   0  0  0  0  0  0  0  0  0  0  0  0
    8.4378  -16.2776    0.0000 C   0  0  0  0  0  0  0  0  0  0  0  0
    9.1523  -15.8651    0.0000 C   0  0  0  0  0  0  0  0  0  0  0  0
    9.1523  -15.0401    0.0000 C   0  0  0  0  0  0  0  0  0  0  0  0
    8.4378  -14.6276    0.0000 C   0  0  1  0  0  0  0  0  0  0  0  0
    7.7234  -15.0401    0.0000 C   0  0  1  0  0  0  0  0  0  0  0  0
    6.2944  -14.2151    0.0000 C   0  0  0  0  0  0  0  0  0  0  0  0
    7.7234  -14.2151    0.0000 C   0  0  0  0  0  0  0  0  0  0  0  0
    8.4378  -13.8026    0.0000 C   0  0  0  0  0  0  0  0  0  0  0  0
    5.5800  -13.8026    0.0000 C   0  0  0  0  0  0  0  0  0  0  0  0
    6.2944  -13.3901    0.0000 C   0  0  0  0  0  0  0  0  0  0  0  0
    5.4694  -15.0401    0.0000 H   0  0  0  0  0  0  0  0  0  0  0  0
    7.4214  -13.9131    0.0000 H   0  0  0  0  0  0  0  0  0  0  0  0
  1  2  1  0  0  0  0
  2  3  1  0  0  0  0
  3  4  2  0  0  0  0
  4  5  1  0  0  0  0
  5  6  2  0  0  0  0
  6  7  1  0  0  0  0
  7  8  1  0  0  0  0
  8  9  1  0  0  0  0
  9 10  1  0  0  0  0
  1 10  1  0  0  0  0
  5 10  1  0  0  0  0
 11  1  1  0  0  0  0
 11  2  1  0  0  0  0
 10 12  1  1  0  0  0
  9 13  1  1  0  0  0
 11 14  1  0  0  0  0
 11 15  1  0  0  0  0
  2 16  1  1  0  0  0
  1 17  1  1  0  0  0
M  END
>  <cdx:groupId>
115241

>  <cdx:fragmentId>
115191

$$$$
