625383.cdx
  Mrv1902 05222410252D          

 21 23  0  0  0  0            999 V2000
   13.7900  -14.5602    0.0000 C   0  0  0  0  0  0  0  0  0  0  0  0
   13.7900  -15.3852    0.0000 C   0  0  0  0  0  0  0  0  0  0  0  0
   14.5045  -15.7977    0.0000 C   0  0  0  0  0  0  0  0  0  0  0  0
   15.2190  -15.3852    0.0000 C   0  0  0  0  0  0  0  0  0  0  0  0
   15.2190  -14.5602    0.0000 C   0  0  0  0  0  0  0  0  0  0  0  0
   14.5045  -14.1477    0.0000 O   0  0  0  0  0  0  0  0  0  0  0  0
   15.9334  -14.1477    0.0000 C   0  0  0  0  0  0  0  0  0  0  0  0
   16.6479  -14.5602    0.0000 C   0  0  0  0  0  0  0  0  0  0  0  0
   16.6479  -15.3852    0.0000 C   0  0  0  0  0  0  0  0  0  0  0  0
   15.9334  -15.7977    0.0000 C   0  0  0  0  0  0  0  0  0  0  0  0
   17.4325  -14.3053    0.0000 O   0  0  0  0  0  0  0  0  0  0  0  0
   17.4325  -15.6401    0.0000 C   0  0  0  0  0  0  0  0  0  0  0  0
   17.9174  -14.9727    0.0000 C   0  0  0  0  0  0  0  0  0  0  0  0
   13.0755  -14.1477    0.0000 O   0  0  0  0  0  0  0  0  0  0  0  0
   15.9334  -16.6227    0.0000 O   0  0  0  0  0  0  0  0  0  0  0  0
   16.6479  -17.0352    0.0000 C   0  0  0  0  0  0  0  0  0  0  0  0
   16.6479  -17.8602    0.0000 C   0  0  0  0  0  0  0  0  0  0  0  0
   17.3624  -18.2727    0.0000 C   0  0  0  0  0  0  0  0  0  0  0  0
   17.3624  -19.0977    0.0000 C   0  0  0  0  0  0  0  0  0  0  0  0
   15.9334  -18.2727    0.0000 O   0  0  0  0  0  0  0  0  0  0  0  0
   18.0768  -17.8602    0.0000 C   0  0  0  0  0  0  0  0  0  0  0  0
  1  2  1  0  0  0  0
  2  3  2  0  0  0  0
  3  4  1  0  0  0  0
  4  5  1  0  0  0  0
  5  6  1  0  0  0  0
  1  6  1  0  0  0  0
  7  8  1  0  0  0  0
  8  9  2  0  0  0  0
  9 10  1  0  0  0  0
  4 10  2  0  0  0  0
  5  7  2  0  0  0  0
 12 13  2  0  0  0  0
 11 13  1  0  0  0  0
  9 12  1  0  0  0  0
  8 11  1  0  0  0  0
  1 14  2  0  0  0  0
 16 17  1  0  0  0  0
 17 18  1  0  0  0  0
 18 19  1  0  0  0  0
 15 16  1  0  0  0  0
 17 20  2  0  0  0  0
 18 21  1  0  0  0  0
 10 15  1  0  0  0  0
M  END
>  <cdx:fragmentId>
9529

$$$$
