62531.cdx
  Mrv1902 05222410262D          

 23 22  0  0  0  0            999 V2000
    1.8612  -10.2421    0.0000 O   0  0  0  0  0  0  0  0  0  0  0  0
    0.4323   -9.4171    0.0000 O   0  0  0  0  0  0  0  0  0  0  0  0
    1.1467   -9.0046    0.0000 C   0  0  0  0  0  0  0  0  0  0  0  0
    1.8612   -9.4171    0.0000 C   0  0  1  0  0  0  0  0  0  0  0  0
    2.5756   -9.0046    0.0000 C   0  0  0  0  0  0  0  0  0  0  0  0
    3.2904   -9.4171    0.0000 O   0  0  0  0  0  0  0  0  0  0  0  0
    4.0048   -8.1796    0.0000 O   0  0  0  0  0  0  0  0  0  0  0  0
   14.7218   -9.4171    0.0000 C   0  0  0  0  0  0  0  0  0  0  0  0
   14.0074   -9.0046    0.0000 C   0  0  0  0  0  0  0  0  0  0  0  0
   13.2929   -9.4171    0.0000 C   0  0  0  0  0  0  0  0  0  0  0  0
   12.5785   -9.0046    0.0000 C   0  0  0  0  0  0  0  0  0  0  0  0
   11.8638   -9.4171    0.0000 C   0  0  0  0  0  0  0  0  0  0  0  0
   11.1493   -9.0046    0.0000 C   0  0  0  0  0  0  0  0  0  0  0  0
   10.4349   -9.4171    0.0000 C   0  0  0  0  0  0  0  0  0  0  0  0
    9.7204   -9.0046    0.0000 C   0  0  0  0  0  0  0  0  0  0  0  0
    9.0060   -9.4171    0.0000 C   0  0  0  0  0  0  0  0  0  0  0  0
    8.2915   -9.0046    0.0000 C   0  0  0  0  0  0  0  0  0  0  0  0
    7.5771   -9.4171    0.0000 C   0  0  0  0  0  0  0  0  0  0  0  0
    6.8626   -9.0046    0.0000 C   0  0  0  0  0  0  0  0  0  0  0  0
    6.1482   -9.4171    0.0000 C   0  0  0  0  0  0  0  0  0  0  0  0
    5.4337   -9.0046    0.0000 C   0  0  0  0  0  0  0  0  0  0  0  0
    4.7193   -9.4171    0.0000 C   0  0  0  0  0  0  0  0  0  0  0  0
    4.0048   -9.0046    0.0000 C   0  0  0  0  0  0  0  0  0  0  0  0
  6  5  1  0  0  0  0
  4  1  1  1  0  0  0
  3  2  1  0  0  0  0
  4  3  1  0  0  0  0
  5  4  1  0  0  0  0
 23  6  1  0  0  0  0
 23  7  2  0  0  0  0
  9  8  1  0  0  0  0
 10  9  1  0  0  0  0
 11 10  1  0  0  0  0
 12 11  1  0  0  0  0
 13 12  1  0  0  0  0
 14 13  1  0  0  0  0
 15 14  1  0  0  0  0
 16 15  1  0  0  0  0
 17 16  1  0  0  0  0
 18 17  1  0  0  0  0
 19 18  1  0  0  0  0
 20 19  1  0  0  0  0
 21 20  1  0  0  0  0
 22 21  1  0  0  0  0
 23 22  1  0  0  0  0
M  END
>  <cdx:fragmentId>
180

$$$$
