62530.cdx
  Mrv1902 05222410272D          

 15 15  0  0  0  0            999 V2000
    6.1421   -5.6631    0.0000 C   0  0  0  0  0  0  0  0  0  0  0  0
    6.9671   -5.6631    0.0000 C   0  0  0  0  0  0  0  0  0  0  0  0
    7.7921   -5.6626    0.0000 C   0  0  0  0  0  0  0  0  0  0  0  0
    5.5387   -6.4889    0.0000 O   0  0  0  0  0  0  0  0  0  0  0  0
    6.2539   -7.7260    0.0000 C   0  0  0  0  0  0  0  0  0  0  0  0
    6.9686   -8.1381    0.0000 C   0  0  0  0  0  0  0  0  0  0  0  0
    7.6828   -7.7252    0.0000 C   0  0  0  0  0  0  0  0  0  0  0  0
    7.6823   -6.9002    0.0000 C   0  0  0  0  0  0  0  0  0  0  0  0
    6.9676   -6.4881    0.0000 C   0  0  0  0  0  0  0  0  0  0  0  0
    6.2534   -6.9010    0.0000 C   0  0  0  0  0  0  0  0  0  0  0  0
    6.9669   -4.8381    0.0000 C   0  0  0  0  0  0  0  0  0  0  0  0
    7.6812   -4.4254    0.0000 C   0  0  0  0  0  0  0  0  0  0  0  0
    7.2687   -3.7109    0.0000 C   0  0  0  0  0  0  0  0  0  0  0  0
    8.0937   -5.1398    0.0000 C   0  0  0  0  0  0  0  0  0  0  0  0
    8.3956   -4.0127    0.0000 C   0  0  0  0  0  0  0  0  0  0  0  0
  9  2  1  0  0  0  0
  2  1  1  0  0  0  0
  3  2  1  0  0  0  0
 10  4  1  0  0  0  0
 10  5  2  0  0  0  0
  6  5  1  0  0  0  0
  7  6  2  0  0  0  0
  8  7  1  0  0  0  0
  9  8  2  0  0  0  0
 10  9  1  0  0  0  0
  2 11  1  0  0  0  0
 11 12  1  0  0  0  0
 12 13  1  0  0  0  0
 12 14  1  0  0  0  0
 12 15  1  0  0  0  0
M  END
>  <cdx:fragmentId>
119

$$$$
