6254.cdx
  Mrv1902 05222410272D          

 21 23  0  0  0  0            999 V2000
    4.0372  -11.6105    0.0000 O   0  0  0  0  0  0  0  0  0  0  0  0
   10.4674   -8.7230    0.0000 O   0  0  0  0  0  0  0  0  0  0  0  0
    8.3240   -9.1355    0.0000 C   0  0  0  0  0  0  0  0  0  0  0  0
    9.0385   -8.7230    0.0000 C   0  0  0  0  0  0  0  0  0  0  0  0
    9.7529   -9.1355    0.0000 C   0  0  0  0  0  0  0  0  0  0  0  0
    9.7529   -9.9605    0.0000 C   0  0  0  0  0  0  0  0  0  0  0  0
    9.0385  -10.3730    0.0000 C   0  0  0  0  0  0  0  0  0  0  0  0
    8.3240   -9.9605    0.0000 C   0  0  0  0  0  0  0  0  0  0  0  0
    3.3227  -10.3730    0.0000 C   0  0  0  0  0  0  0  0  0  0  0  0
    4.0372   -9.9605    0.0000 O   0  0  0  0  0  0  0  0  0  0  0  0
    6.8951  -12.4355    0.0000 O   0  0  0  0  0  0  0  0  0  0  0  0
    6.8951   -9.9605    0.0000 O   0  0  0  0  0  0  0  0  0  0  0  0
    6.1806  -10.3730    0.0000 C   0  0  0  0  0  0  0  0  0  0  0  0
    5.4661   -9.9605    0.0000 C   0  0  0  0  0  0  0  0  0  0  0  0
    4.7517  -10.3730    0.0000 C   0  0  0  0  0  0  0  0  0  0  0  0
    4.7517  -11.1980    0.0000 C   0  0  0  0  0  0  0  0  0  0  0  0
    5.4661  -11.6105    0.0000 C   0  0  0  0  0  0  0  0  0  0  0  0
    6.1806  -11.1980    0.0000 C   0  0  0  0  0  0  0  0  0  0  0  0
    6.8951  -11.6105    0.0000 C   0  0  0  0  0  0  0  0  0  0  0  0
    7.6095  -11.1980    0.0000 C   0  0  0  0  0  0  0  0  0  0  0  0
    7.6095  -10.3730    0.0000 C   0  0  1  0  0  0  0  0  0  0  0  0
 16  1  1  0  0  0  0
 21  8  1  6  0  0  0
  5  2  1  0  0  0  0
  8  3  2  0  0  0  0
  4  3  1  0  0  0  0
  5  4  2  0  0  0  0
  6  5  1  0  0  0  0
  7  6  2  0  0  0  0
  8  7  1  0  0  0  0
 15 10  1  0  0  0  0
 10  9  1  0  0  0  0
 19 11  2  0  0  0  0
 21 12  1  0  0  0  0
 13 12  1  0  0  0  0
 18 13  2  0  0  0  0
 14 13  1  0  0  0  0
 15 14  2  0  0  0  0
 16 15  1  0  0  0  0
 17 16  2  0  0  0  0
 18 17  1  0  0  0  0
 19 18  1  0  0  0  0
 20 19  1  0  0  0  0
 21 20  1  0  0  0  0
M  END
>  <cdx:fragmentId>
5

$$$$
