62592.cdx
  Mrv1902 05222410232D          

 13 12  0  0  0  0            999 V2000
    5.7901   -3.6514    0.0000 C   0  0  0  0  0  0  0  0  0  0  0  0
    5.0756   -3.2389    0.0000 C   0  0  0  0  0  0  0  0  0  0  0  0
    4.3611   -3.6514    0.0000 C   0  0  0  0  0  0  0  0  0  0  0  0
    3.6467   -3.2389    0.0000 C   0  0  0  0  0  0  0  0  0  0  0  0
    5.7901   -4.4764    0.0000 O   0  0  0  0  0  0  0  0  0  0  0  0
    6.5045   -3.2389    0.0000 O   0  0  0  0  0  0  0  0  0  0  0  0
    7.2190   -3.6514    0.0000 C   0  0  0  0  0  0  0  0  0  0  0  0
    7.9335   -3.2389    0.0000 C   0  0  0  0  0  0  0  0  0  0  0  0
    8.6480   -3.6514    0.0000 C   0  0  0  0  0  0  0  0  0  0  0  0
    9.3624   -3.2389    0.0000 C   0  0  0  0  0  0  0  0  0  0  0  0
   10.0769   -3.6514    0.0000 C   0  0  0  0  0  0  0  0  0  0  0  0
   10.7914   -3.2389    0.0000 C   0  0  0  0  0  0  0  0  0  0  0  0
   11.5058   -3.6514    0.0000 C   0  0  0  0  0  0  0  0  0  0  0  0
  1  2  1  0  0  0  0
  2  3  1  0  0  0  0
  3  4  1  0  0  0  0
  1  5  2  0  0  0  0
  1  6  1  0  0  0  0
  7  8  1  0  0  0  0
  8  9  1  0  0  0  0
  9 10  1  0  0  0  0
 10 11  1  0  0  0  0
 11 12  1  0  0  0  0
 12 13  1  0  0  0  0
  6  7  1  0  0  0  0
M  END
>  <cdx:fragmentId>
17

$$$$
