626354.cdx
  Mrv1902 05222410182D          

 22 25  0  0  0  0            999 V2000
    6.4511   -9.0902    0.0000 C   0  0  0  0  0  0  0  0  0  0  0  0
    5.6261   -9.0862    0.0000 C   0  0  0  0  0  0  0  0  0  0  0  0
    6.0498   -6.7238    0.0000 C   0  0  0  0  0  0  0  0  0  0  0  0
    5.3334   -7.1328    0.0000 C   0  0  0  0  0  0  0  0  0  0  0  0
    5.3295   -7.9578    0.0000 C   0  0  0  0  0  0  0  0  0  0  0  0
    6.0420   -8.3737    0.0000 C   0  0  0  0  0  0  0  0  0  0  0  0
    8.1873   -7.9715    0.0000 C   0  0  0  0  0  0  0  0  0  0  0  0
    7.4709   -8.3805    0.0000 C   0  0  0  0  0  0  0  0  0  0  0  0
    6.7584   -7.9646    0.0000 C   0  0  0  0  0  0  0  0  0  0  0  0
    6.7623   -7.1397    0.0000 C   0  0  0  0  0  0  0  0  0  0  0  0
    6.7702   -5.4896    0.0000 O   0  0  0  0  0  0  0  0  0  0  0  0
    7.4827   -5.9055    0.0000 C   0  0  0  0  0  0  0  0  0  0  0  0
    7.4788   -6.7305    0.0000 C   0  0  0  0  0  0  0  0  0  0  0  0
    8.1913   -7.1464    0.0000 C   0  0  0  0  0  0  0  0  0  0  0  0
    9.6202   -7.1532    0.0000 O   0  0  0  0  0  0  0  0  0  0  0  0
    8.9077   -6.7373    0.0000 C   0  0  0  0  0  0  0  0  0  0  0  0
    8.9116   -5.9124    0.0000 C   0  0  0  0  0  0  0  0  0  0  0  0
    8.1991   -5.4965    0.0000 C   0  0  0  0  0  0  0  0  0  0  0  0
    8.3746   -4.6902    0.0000 O   0  0  0  0  0  0  0  0  0  0  0  0
    9.1954   -4.6079    0.0000 C   0  0  0  0  0  0  0  0  0  0  0  0
    9.5273   -5.3631    0.0000 C   0  0  0  0  0  0  0  0  0  0  0  0
   10.3336   -5.5386    0.0000 C   0  0  0  0  0  0  0  0  0  0  0  0
  6  1  1  0  0  0  0
  6  2  1  0  0  0  0
 10  3  1  0  0  0  0
  4  3  1  0  0  0  0
  5  4  1  0  0  0  0
  6  5  1  0  0  0  0
  9  6  1  0  0  0  0
 14  7  1  0  0  0  0
  8  7  2  0  0  0  0
  9  8  1  0  0  0  0
 10  9  2  0  0  0  0
 13 10  1  0  0  0  0
 12 11  2  0  0  0  0
 18 12  1  0  0  0  0
 13 12  1  0  0  0  0
 14 13  2  0  0  0  0
 16 14  1  0  0  0  0
 16 15  2  0  0  0  0
 17 16  1  0  0  0  0
 21 17  1  0  0  0  0
 18 17  2  0  0  0  0
 19 18  1  0  0  0  0
 20 19  1  0  0  0  0
 21 20  2  0  0  0  0
 22 21  1  0  0  0  0
M  END
>  <cdx:fragmentId>
1

$$$$
