626411.cdx
  Mrv1902 05222410272D          

 18 19  0  0  0  0            999 V2000
    7.9126   -7.4893    0.0000 C   0  0  0  0  0  0  0  0  0  0  0  0
    8.7196   -7.3177    0.0000 C   0  0  0  0  0  0  0  0  0  0  0  0
    7.6577   -8.2739    0.0000 C   0  0  2  0  0  0  0  0  0  0  0  0
    8.1426   -8.9413    0.0000 C   0  0  0  0  0  0  0  0  0  0  0  0
    7.6577   -9.6088    0.0000 C   0  0  0  0  0  0  0  0  0  0  0  0
    6.8731   -9.3538    0.0000 C   0  0  2  0  0  0  0  0  0  0  0  0
    6.1586   -9.7663    0.0000 C   0  0  0  0  0  0  0  0  0  0  0  0
    5.4441   -9.3538    0.0000 C   0  0  0  0  0  0  0  0  0  0  0  0
    5.4441   -8.5288    0.0000 C   0  0  0  0  0  0  0  0  0  0  0  0
    6.1586   -8.1163    0.0000 C   0  0  1  0  0  0  0  0  0  0  0  0
    6.8731   -8.5288    0.0000 C   0  0  1  0  0  0  0  0  0  0  0  0
    6.8731   -6.8788    0.0000 C   0  0  0  0  0  0  0  0  0  0  0  0
    6.1586   -7.2913    0.0000 C   0  0  0  0  0  0  0  0  0  0  0  0
    5.4441   -6.8788    0.0000 C   0  0  0  0  0  0  0  0  0  0  0  0
    6.1586  -10.5913    0.0000 C   0  0  0  0  0  0  0  0  0  0  0  0
    7.3606   -6.8762    0.0000 O   0  0  0  0  0  0  0  0  0  0  0  0
    6.9593  -10.1743    0.0000 H   0  0  0  0  0  0  0  0  0  0  0  0
    6.9593   -7.7083    0.0000 H   0  0  0  0  0  0  0  0  0  0  0  0
  1  2  1  0  0  0  0
  3  4  1  0  0  0  0
  4  5  1  0  0  0  0
  5  6  1  0  0  0  0
  6  7  1  0  0  0  0
  7  8  1  0  0  0  0
  8  9  1  0  0  0  0
  9 10  1  0  0  0  0
 10 11  1  0  0  0  0
  3 11  1  0  0  0  0
  6 11  1  0  0  0  0
 12 13  1  0  0  0  0
 13 14  1  0  0  0  0
 10 13  1  6  0  0  0
  7 15  2  0  0  0  0
  3  1  1  6  0  0  0
  1 16  2  0  0  0  0
  6 17  1  1  0  0  0
 11 18  1  6  0  0  0
M  END
>  <cdx:fragmentId>
56982

$$$$
