626544.cdx
  Mrv1902 05222410192D          

 20 21  0  0  0  0            999 V2000
    7.9402  -11.3948    0.0000 C   0  0  0  0  0  0  0  0  0  0  0  0
    7.2291  -10.9765    0.0000 C   0  0  0  0  0  0  0  0  0  0  0  0
    7.2358  -10.1515    0.0000 C   0  0  0  0  0  0  0  0  0  0  0  0
    7.9536   -9.7448    0.0000 C   0  0  0  0  0  0  0  0  0  0  0  0
    8.6647  -10.1631    0.0000 C   0  0  0  0  0  0  0  0  0  0  0  0
    8.6580  -10.9881    0.0000 C   0  0  0  0  0  0  0  0  0  0  0  0
    7.9335  -12.2198    0.0000 O   0  0  0  0  0  0  0  0  0  0  0  0
    8.6847   -7.6882    0.0000 C   0  0  0  0  0  0  0  0  0  0  0  0
    8.6780   -8.5132    0.0000 C   0  0  0  0  0  0  0  0  0  0  0  0
    7.9603   -8.9199    0.0000 C   0  0  1  0  0  0  0  0  0  0  0  0
    7.2492   -8.5016    0.0000 C   0  0  0  0  0  0  0  0  0  0  0  0
    6.5314   -8.9083    0.0000 C   0  0  0  0  0  0  0  0  0  0  0  0
    7.9736   -7.2699    0.0000 C   0  0  0  0  0  0  0  0  0  0  0  0
    7.9803   -6.4449    0.0000 C   0  0  0  0  0  0  0  0  0  0  0  0
    7.2692   -6.0267    0.0000 C   0  0  0  0  0  0  0  0  0  0  0  0
    6.5514   -6.4334    0.0000 C   0  0  0  0  0  0  0  0  0  0  0  0
    6.5447   -7.2583    0.0000 C   0  0  0  0  0  0  0  0  0  0  0  0
    7.2558   -7.6766    0.0000 C   0  0  0  0  0  0  0  0  0  0  0  0
    5.8403   -6.0151    0.0000 O   0  0  0  0  0  0  0  0  0  0  0  0
    5.1258   -6.4276    0.0000 C   0  0  0  0  0  0  0  0  0  0  0  0
  1  2  1  0  0  0  0
  2  3  2  0  0  0  0
  3  4  1  0  0  0  0
  4  5  2  0  0  0  0
  5  6  1  0  0  0  0
  1  6  2  0  0  0  0
  1  7  1  0  0  0  0
  8  9  2  0  0  0  0
 10  9  1  6  0  0  0
 10 11  1  0  0  0  0
 11 12  2  0  0  0  0
 13 14  1  0  0  0  0
 14 15  2  0  0  0  0
 15 16  1  0  0  0  0
 16 17  2  0  0  0  0
 17 18  1  0  0  0  0
 13 18  2  0  0  0  0
 19 20  1  0  0  0  0
 16 19  1  0  0  0  0
  8 13  1  0  0  0  0
  4 10  1  0  0  0  0
M  END
>  <cdx:groupId>
144329

>  <cdx:fragmentId>
144295

$$$$
