6267.cdx
  Mrv1902 05222410202D          

  9  8  0  0  0  0            999 V2000
    8.4645   -8.4754    0.0000 O   0  0  0  0  0  0  0  0  0  0  0  0
    7.7500   -9.7129    0.0000 O   0  0  0  0  0  0  0  0  0  0  0  0
    7.0355   -8.4754    0.0000 C   0  0  1  0  0  0  0  0  0  0  0  0
    7.7500   -8.8879    0.0000 C   0  0  0  0  0  0  0  0  0  0  0  0
    6.3210   -8.8879    0.0000 N   0  0  0  0  0  0  0  0  0  0  0  0
    7.0355   -7.6504    0.0000 C   0  0  0  0  0  0  0  0  0  0  0  0
    6.3210   -7.2379    0.0000 C   0  0  0  0  0  0  0  0  0  0  0  0
    6.3210   -6.4129    0.0000 N   0  0  0  0  0  0  0  0  0  0  0  0
    5.6066   -7.6504    0.0000 O   0  0  0  0  0  0  0  0  0  0  0  0
  4  1  1  0  0  0  0
  4  2  2  0  0  0  0
  4  3  1  0  0  0  0
  3  5  1  1  0  0  0
  3  6  1  0  0  0  0
  6  7  1  0  0  0  0
  7  8  1  0  0  0  0
  7  9  2  0  0  0  0
M  END
>  <cdx:fragmentId>
32

$$$$
