6268.cdx
  Mrv1902 05222410272D          

 11 12  0  0  0  0            999 V2000
    7.7597   -6.8092    0.0000 C   0  0  0  0  0  0  0  0  0  0  0  0
    7.2527   -6.0769    0.0000 C   0  0  0  0  0  0  0  0  0  0  0  0
    6.0485   -7.0576    0.0000 C   0  0  0  0  0  0  0  0  0  0  0  0
    5.5000   -6.6275    0.0000 C   0  0  0  0  0  0  0  0  0  0  0  0
    5.9476   -6.0243    0.0000 C   0  0  0  0  0  0  0  0  0  0  0  0
    6.8996   -6.5785    0.0000 C   0  0  0  0  0  0  0  0  0  0  0  0
    6.8506   -5.3851    0.0000 C   0  0  0  0  0  0  0  0  0  0  0  0
    8.5847   -6.8092    0.0000 C   0  0  0  0  0  0  0  0  0  0  0  0
    7.6519   -7.6271    0.0000 C   0  0  0  0  0  0  0  0  0  0  0  0
    6.0500   -7.7275    0.0000 C   0  0  0  0  0  0  0  0  0  0  0  0
    5.3355   -8.1400    0.0000 O   0  0  0  0  0  0  0  0  0  0  0  0
  6  1  1  0  0  0  0
  1  2  1  0  0  0  0
  2  7  1  0  0  0  0
  6  3  1  0  0  0  0
  3  4  1  0  0  0  0
  4  5  1  0  0  0  0
  2  5  1  0  0  0  0
  6  7  1  0  0  0  0
  1  8  1  0  0  0  0
  1  9  1  0  0  0  0
  3 10  1  0  0  0  0
 10 11  2  0  0  0  0
M  END
>  <cdx:fragmentId>
835

$$$$
