626899.cdx
  Mrv1902 05222410222D          

 22 24  0  0  0  0            999 V2000
   17.2549  -15.6309    0.0000 C   0  0  0  0  0  0  0  0  0  0  0  0
   17.2549  -14.8059    0.0000 O   0  0  0  0  0  0  0  0  0  0  0  0
   17.9694  -16.0434    0.0000 C   0  0  0  0  0  0  0  0  0  0  0  0
   17.9694  -16.8684    0.0000 C   0  0  0  0  0  0  0  0  0  0  0  0
   18.6839  -17.2809    0.0000 C   0  0  0  0  0  0  0  0  0  0  0  0
   17.2549  -17.2809    0.0000 C   0  0  0  0  0  0  0  0  0  0  0  0
   16.5405  -16.8684    0.0000 C   0  0  0  0  0  0  0  0  0  0  0  0
   15.8260  -17.2809    0.0000 C   0  0  0  0  0  0  0  0  0  0  0  0
   15.8260  -18.1059    0.0000 O   0  0  0  0  0  0  0  0  0  0  0  0
   15.1115  -16.8684    0.0000 C   0  0  0  0  0  0  0  0  0  0  0  0
   14.3970  -17.2809    0.0000 C   0  0  0  0  0  0  0  0  0  0  0  0
   13.6826  -16.8684    0.0000 C   0  0  0  0  0  0  0  0  0  0  0  0
   12.9681  -17.2809    0.0000 O   0  0  0  0  0  0  0  0  0  0  0  0
   13.6826  -16.0434    0.0000 C   0  0  0  0  0  0  0  0  0  0  0  0
   14.3970  -15.6309    0.0000 C   0  0  0  0  0  0  0  0  0  0  0  0
   14.3970  -14.8059    0.0000 O   0  0  0  0  0  0  0  0  0  0  0  0
   15.1115  -16.0434    0.0000 C   0  0  0  0  0  0  0  0  0  0  0  0
   15.8260  -15.6309    0.0000 C   0  0  0  0  0  0  0  0  0  0  0  0
   15.8260  -14.8059    0.0000 O   0  0  0  0  0  0  0  0  0  0  0  0
   16.5405  -16.0434    0.0000 C   0  0  0  0  0  0  0  0  0  0  0  0
   12.2536  -16.8684    0.0000 C   0  0  0  0  0  0  0  0  0  0  0  0
   17.9694  -14.3934    0.0000 C   0  0  0  0  0  0  0  0  0  0  0  0
  1  2  1  0  0  0  0
  1  3  1  0  0  0  0
  3  4  2  0  0  0  0
  4  5  1  0  0  0  0
  4  6  1  0  0  0  0
  6  7  2  0  0  0  0
  7  8  1  0  0  0  0
  8  9  2  0  0  0  0
  8 10  1  0  0  0  0
 10 11  1  0  0  0  0
 11 12  2  0  0  0  0
 12 13  1  0  0  0  0
 12 14  1  0  0  0  0
 14 15  2  0  0  0  0
 15 16  1  0  0  0  0
 15 17  1  0  0  0  0
 10 17  2  0  0  0  0
 17 18  1  0  0  0  0
 18 19  2  0  0  0  0
 18 20  1  0  0  0  0
  1 20  2  0  0  0  0
  7 20  1  0  0  0  0
 13 21  1  0  0  0  0
  2 22  1  0  0  0  0
M  END
>  <cdx:groupId>
9699

>  <cdx:fragmentId>
9634

$$$$
