11062697.cdx
  Mrv1902 05222410282D          

 11 10  0  0  0  0            999 V2000
    8.4967   -9.4704    0.0000 C   0  0  0  0  0  0  0  0  0  0  0  0
    7.7822   -9.8829    0.0000 C   0  0  1  0  0  0  0  0  0  0  0  0
    7.0678   -9.4704    0.0000 C   0  0  0  0  0  0  0  0  0  0  0  0
    6.3533   -9.8829    0.0000 C   0  0  0  0  0  0  0  0  0  0  0  0
    8.4967   -8.6454    0.0000 O   0  0  0  0  0  0  0  0  0  0  0  0
    9.2112   -9.8829    0.0000 O   0  0  0  0  0  0  0  0  0  0  0  0
    6.3533  -10.7079    0.0000 O   0  0  0  0  0  0  0  0  0  0  0  0
    5.6388   -9.4704    0.0000 O   0  0  0  0  0  0  0  0  0  0  0  0
    7.7822  -10.7079    0.0000 O   0  0  0  0  0  0  0  0  0  0  0  0
    9.9256   -9.4704    0.0000 C   0  0  0  0  0  0  0  0  0  0  0  0
    4.9244   -9.8829    0.0000 C   0  0  0  0  0  0  0  0  0  0  0  0
  1  2  1  0  0  0  0
  2  3  1  0  0  0  0
  3  4  1  0  0  0  0
  1  5  2  0  0  0  0
  1  6  1  0  0  0  0
  4  7  2  0  0  0  0
  4  8  1  0  0  0  0
  2  9  1  6  0  0  0
  6 10  1  0  0  0  0
  8 11  1  0  0  0  0
M  END
>  <cdx:groupId>
2290

>  <cdx:fragmentId>
2261

$$$$
