11062751.cdx
  Mrv1902 05222410242D          

 12 13  0  0  0  0            999 V2000
    9.0493  -12.3744    0.0000 O   0  0  0  0  0  0  0  0  0  0  0  0
    8.5644  -11.7070    0.0000 C   0  0  0  0  0  0  0  0  0  0  0  0
    7.7797  -11.9619    0.0000 C   0  0  0  0  0  0  0  0  0  0  0  0
    7.7797  -12.7869    0.0000 C   0  0  0  0  0  0  0  0  0  0  0  0
    8.5644  -13.0419    0.0000 C   0  0  0  0  0  0  0  0  0  0  0  0
    7.0653  -13.1994    0.0000 C   0  0  0  0  0  0  0  0  0  0  0  0
    6.3508  -12.7869    0.0000 C   0  0  0  0  0  0  0  0  0  0  0  0
    6.3508  -11.9619    0.0000 C   0  0  0  0  0  0  0  0  0  0  0  0
    7.0653  -11.5494    0.0000 C   0  0  0  0  0  0  0  0  0  0  0  0
    8.8193  -10.9224    0.0000 O   0  0  0  0  0  0  0  0  0  0  0  0
    7.0653  -10.7244    0.0000 O   0  0  0  0  0  0  0  0  0  0  0  0
    5.6363  -13.1994    0.0000 O   0  0  0  0  0  0  0  0  0  0  0  0
  1  2  1  0  0  0  0
  2  3  1  0  0  0  0
  3  4  1  0  0  0  0
  4  5  1  0  0  0  0
  1  5  1  0  0  0  0
  6  7  1  0  0  0  0
  7  8  2  0  0  0  0
  8  9  1  0  0  0  0
  9  3  2  0  0  0  0
  6  4  2  0  0  0  0
  2 10  2  0  0  0  0
  9 11  1  0  0  0  0
  7 12  1  0  0  0  0
M  END
>  <cdx:groupId>
65967

>  <cdx:fragmentId>
65933

$$$$
