6276.cdx
  Mrv1902 05222410182D          

  6  5  0  0  0  0            999 V2000
    2.8480   -2.1804    0.0000 C   0  0  0  0  0  0  0  0  0  0  0  0
    3.5625   -2.5929    0.0000 C   0  0  0  0  0  0  0  0  0  0  0  0
    4.2770   -2.1804    0.0000 C   0  0  0  0  0  0  0  0  0  0  0  0
    4.9914   -2.5929    0.0000 C   0  0  0  0  0  0  0  0  0  0  0  0
    5.7059   -2.1804    0.0000 C   0  0  0  0  0  0  0  0  0  0  0  0
    2.1336   -2.5929    0.0000 O   0  0  0  0  0  0  0  0  0  0  0  0
  1  2  1  0  0  0  0
  2  3  1  0  0  0  0
  3  4  1  0  0  0  0
  4  5  1  0  0  0  0
  1  6  1  0  0  0  0
M  END
>  <cdx:groupId>
19

>  <cdx:fragmentId>
5

$$$$
