6279.cdx
  Mrv1902 05222410272D          

 36 39  0  0  0  0            999 V2000
    4.0458   -5.6100    0.0000 C   0  0  0  0  0  0  0  0  0  0  0  0
    4.0458   -6.4350    0.0000 C   0  0  0  0  0  0  0  0  0  0  0  0
    4.7602   -6.8475    0.0000 C   0  0  0  0  0  0  0  0  0  0  0  0
    5.4747   -6.4350    0.0000 C   0  0  0  0  0  0  0  0  0  0  0  0
    5.4747   -5.6100    0.0000 C   0  0  0  0  0  0  0  0  0  0  0  0
    4.7602   -5.1975    0.0000 C   0  0  0  0  0  0  0  0  0  0  0  0
    6.1892   -6.8475    0.0000 C   0  0  0  0  0  0  0  0  0  0  0  0
    6.9037   -6.4350    0.0000 C   0  0  0  0  0  0  0  0  0  0  0  0
    6.9037   -5.6100    0.0000 C   0  0  0  0  0  0  0  0  0  0  0  0
    6.1892   -5.1975    0.0000 O   0  0  0  0  0  0  0  0  0  0  0  0
    7.6181   -5.1975    0.0000 C   0  0  0  0  0  0  0  0  0  0  0  0
    7.6181   -4.3725    0.0000 C   0  0  0  0  0  0  0  0  0  0  0  0
    8.3326   -5.6100    0.0000 C   0  0  0  0  0  0  0  0  0  0  0  0
    9.0471   -5.1975    0.0000 C   0  0  0  0  0  0  0  0  0  0  0  0
    9.0471   -4.3725    0.0000 C   0  0  0  0  0  0  0  0  0  0  0  0
    8.3326   -3.9600    0.0000 C   0  0  0  0  0  0  0  0  0  0  0  0
    4.7602   -7.6725    0.0000 O   0  0  0  0  0  0  0  0  0  0  0  0
    6.1892   -7.6725    0.0000 O   0  0  0  0  0  0  0  0  0  0  0  0
    3.3313   -5.1975    0.0000 O   0  0  0  0  0  0  0  0  0  0  0  0
    7.6181   -6.8475    0.0000 O   0  0  0  0  0  0  0  0  0  0  0  0
    8.3326   -3.1350    0.0000 O   0  0  0  0  0  0  0  0  0  0  0  0
    9.7615   -3.9600    0.0000 O   0  0  0  0  0  0  0  0  0  0  0  0
    6.8996   -8.9226    0.0000 C   0  0  2  0  0  0  0  0  0  0  0  0
    7.6121   -9.3385    0.0000 C   0  0  2  0  0  0  0  0  0  0  0  0
    8.3285   -8.9294    0.0000 C   0  0  1  0  0  0  0  0  0  0  0  0
    8.3324   -8.1044    0.0000 C   0  0  2  0  0  0  0  0  0  0  0  0
    7.6199   -7.6885    0.0000 C   0  0  1  0  0  0  0  0  0  0  0  0
    6.9035   -8.0976    0.0000 O   0  0  0  0  0  0  0  0  0  0  0  0
    6.1831   -9.3317    0.0000 C   0  0  0  0  0  0  0  0  0  0  0  0
    9.0410   -9.3452    0.0000 O   0  0  0  0  0  0  0  0  0  0  0  0
    9.0488   -7.6953    0.0000 O   0  0  0  0  0  0  0  0  0  0  0  0
    7.6082  -10.1635    0.0000 O   0  0  0  0  0  0  0  0  0  0  0  0
    6.1792  -10.1567    0.0000 O   0  0  0  0  0  0  0  0  0  0  0  0
    3.3313   -6.8475    0.0000 O   0  0  0  0  0  0  0  0  0  0  0  0
    2.6168   -6.4350    0.0000 C   0  0  0  0  0  0  0  0  0  0  0  0
    2.6168   -5.6100    0.0000 C   0  0  0  0  0  0  0  0  0  0  0  0
  1  2  2  0  0  0  0
  2  3  1  0  0  0  0
  3  4  2  0  0  0  0
  4  5  1  0  0  0  0
  5  6  2  0  0  0  0
  6  1  1  0  0  0  0
  4  7  1  0  0  0  0
  7  8  1  0  0  0  0
  8  9  2  0  0  0  0
  9 10  1  0  0  0  0
 10  5  1  0  0  0  0
  9 11  1  0  0  0  0
 11 12  1  0  0  0  0
 11 13  2  0  0  0  0
 13 14  1  0  0  0  0
 14 15  2  0  0  0  0
 15 16  1  0  0  0  0
 16 12  2  0  0  0  0
  3 17  1  0  0  0  0
 18  7  2  0  0  0  0
  1 19  1  0  0  0  0
  8 20  1  0  0  0  0
 16 21  1  0  0  0  0
 15 22  1  0  0  0  0
 23 24  1  0  0  0  0
 24 25  1  0  0  0  0
 25 26  1  0  0  0  0
 26 27  1  0  0  0  0
 27 28  1  0  0  0  0
 28 23  1  0  0  0  0
 23 29  1  1  0  0  0
 25 30  1  1  0  0  0
 26 31  1  6  0  0  0
 24 32  1  6  0  0  0
 29 33  1  0  0  0  0
 27 20  1  1  0  0  0
  2 34  1  0  0  0  0
 34 35  1  0  0  0  0
 19 36  1  0  0  0  0
M  END
>  <cdx:fragmentId>
5

$$$$
