628136.cdx
  Mrv1902 05222410222D          

 27 28  0  0  0  0            999 V2000
   11.5671   -7.9837    0.0000 C   0  0  0  0  0  0  0  0  0  0  0  0
   10.8526   -7.5712    0.0000 C   0  0  0  0  0  0  0  0  0  0  0  0
   10.1381   -7.9837    0.0000 C   0  0  0  0  0  0  0  0  0  0  0  0
    9.4236   -7.5712    0.0000 C   0  0  0  0  0  0  0  0  0  0  0  0
   10.8526   -6.7462    0.0000 O   0  0  0  0  0  0  0  0  0  0  0  0
    8.7092   -7.1587    0.0000 C   0  0  0  0  0  0  0  0  0  0  0  0
    7.9947   -7.5712    0.0000 C   0  0  1  0  0  0  0  0  0  0  0  0
    7.2802   -7.1587    0.0000 C   0  0  0  0  0  0  0  0  0  0  0  0
    7.2802   -6.3337    0.0000 C   0  0  2  0  0  0  0  0  0  0  0  0
    7.9947   -5.9212    0.0000 C   0  0  0  0  0  0  0  0  0  0  0  0
    8.7092   -6.3337    0.0000 C   0  0  0  0  0  0  0  0  0  0  0  0
    6.5658   -5.9212    0.0000 O   0  0  0  0  0  0  0  0  0  0  0  0
    5.8513   -6.3337    0.0000 C   0  0  1  0  0  0  0  0  0  0  0  0
    5.8513   -7.1587    0.0000 C   0  0  2  0  0  0  0  0  0  0  0  0
    6.5658   -7.5712    0.0000 O   0  0  0  0  0  0  0  0  0  0  0  0
    5.1368   -7.5712    0.0000 C   0  0  1  0  0  0  0  0  0  0  0  0
    5.1368   -8.3962    0.0000 O   0  0  0  0  0  0  0  0  0  0  0  0
    4.4224   -7.1587    0.0000 C   0  0  2  0  0  0  0  0  0  0  0  0
    3.7079   -7.5712    0.0000 O   0  0  0  0  0  0  0  0  0  0  0  0
    4.4224   -6.3337    0.0000 C   0  0  2  0  0  0  0  0  0  0  0  0
    5.1368   -5.9212    0.0000 O   0  0  0  0  0  0  0  0  0  0  0  0
    3.7079   -5.9212    0.0000 C   0  0  0  0  0  0  0  0  0  0  0  0
    2.9934   -6.3337    0.0000 O   0  0  0  0  0  0  0  0  0  0  0  0
    8.4072   -8.2856    0.0000 O   0  0  0  0  0  0  0  0  0  0  0  0
    9.1217   -5.6192    0.0000 C   0  0  0  0  0  0  0  0  0  0  0  0
    9.5342   -6.3337    0.0000 C   0  0  0  0  0  0  0  0  0  0  0  0
    7.5822   -8.2856    0.0000 C   0  0  0  0  0  0  0  0  0  0  0  0
  1  2  1  0  0  0  0
  2  3  1  0  0  0  0
  3  4  2  0  0  0  0
  2  5  2  0  0  0  0
  6  7  1  0  0  0  0
  7  8  1  0  0  0  0
  8  9  1  0  0  0  0
  9 10  1  0  0  0  0
 10 11  1  0  0  0  0
  6 11  1  0  0  0  0
 13 14  1  0  0  0  0
 14 15  1  6  0  0  0
 14 16  1  0  0  0  0
 16 17  1  1  0  0  0
 16 18  1  0  0  0  0
 18 19  1  6  0  0  0
 18 20  1  0  0  0  0
 20 21  1  0  0  0  0
 20 22  1  1  0  0  0
 22 23  1  0  0  0  0
 13 21  1  0  0  0  0
 13 12  1  1  0  0  0
  9 12  1  1  0  0  0
  7 24  1  6  0  0  0
 11 25  1  0  0  0  0
 11 26  1  0  0  0  0
  7 27  1  1  0  0  0
  4  6  2  0  0  0  0
M  END
>  <cdx:fragmentId>
115274

$$$$
