62842.cdx
  Mrv1902 05222410182D          

 11 10  0  0  0  0            999 V2000
    8.7005   -3.4752    0.0000 C   0  0  0  0  0  0  0  0  0  0  0  0
    7.9861   -3.0627    0.0000 C   0  0  0  0  0  0  0  0  0  0  0  0
    7.2716   -2.6502    0.0000 C   0  0  0  0  0  0  0  0  0  0  0  0
    7.6841   -1.9357    0.0000 C   0  0  0  0  0  0  0  0  0  0  0  0
    6.8591   -1.9357    0.0000 O   0  0  0  0  0  0  0  0  0  0  0  0
    6.5571   -3.0627    0.0000 C   0  0  0  0  0  0  0  0  0  0  0  0
    5.8426   -2.6502    0.0000 C   0  0  0  0  0  0  0  0  0  0  0  0
    5.1282   -3.0627    0.0000 C   0  0  0  0  0  0  0  0  0  0  0  0
    4.4137   -2.6502    0.0000 C   0  0  0  0  0  0  0  0  0  0  0  0
    3.6992   -3.0627    0.0000 C   0  0  0  0  0  0  0  0  0  0  0  0
    4.4137   -1.8252    0.0000 C   0  0  0  0  0  0  0  0  0  0  0  0
  1  2  3  0  0  0  0
  2  3  1  0  0  0  0
  3  4  1  0  0  0  0
  3  5  1  0  0  0  0
  3  6  1  0  0  0  0
  6  7  1  0  0  0  0
  7  8  1  0  0  0  0
  8  9  2  0  0  0  0
  9 10  1  0  0  0  0
  9 11  1  0  0  0  0
M  END
>  <cdx:fragmentId>
3

$$$$
