62913.cdx
  Mrv1902 05222410282D          

  9  9  0  0  0  0            999 V2000
    7.6508   -4.6032    0.0000 O   0  0  0  0  0  0  0  0  0  0  0  0
    8.3224   -5.0824    0.0000 C   0  0  0  0  0  0  0  0  0  0  0  0
    8.0741   -5.8691    0.0000 C   0  0  0  0  0  0  0  0  0  0  0  0
    7.2492   -5.8762    0.0000 C   0  0  0  0  0  0  0  0  0  0  0  0
    6.9875   -5.0938    0.0000 C   0  0  0  0  0  0  0  0  0  0  0  0
    6.2008   -4.8455    0.0000 C   0  0  0  0  0  0  0  0  0  0  0  0
    5.5924   -5.4028    0.0000 C   0  0  0  0  0  0  0  0  0  0  0  0
    9.1048   -4.8208    0.0000 C   0  0  0  0  0  0  0  0  0  0  0  0
    9.7226   -5.3675    0.0000 C   0  0  0  0  0  0  0  0  0  0  0  0
  1  2  1  0  0  0  0
  2  3  1  0  0  0  0
  3  4  1  0  0  0  0
  4  5  1  0  0  0  0
  1  5  1  0  0  0  0
  6  7  1  0  0  0  0
  5  6  1  0  0  0  0
  8  9  1  0  0  0  0
  2  8  1  0  0  0  0
M  END
>  <cdx:fragmentId>
5

$$$$
