629131.cdx
  Mrv1902 05222410262D          

 43 47  0  0  0  0            999 V2000
    7.6286   -9.8904    0.0000 H   0  0  0  0  0  0  0  0  0  0  0  0
    9.0575   -6.5904    0.0000 C   0  0  0  0  0  0  0  0  0  0  0  0
    9.0575   -5.7654    0.0000 C   0  0  0  0  0  0  0  0  0  0  0  0
    9.7720   -5.3529    0.0000 C   0  0  0  0  0  0  0  0  0  0  0  0
    9.7720   -7.0029    0.0000 O   0  0  0  0  0  0  0  0  0  0  0  0
    8.3430   -7.0029    0.0000 O   0  0  0  0  0  0  0  0  0  0  0  0
    9.7720   -4.5279    0.0000 C   0  0  0  0  0  0  0  0  0  0  0  0
    9.0575   -4.1154    0.0000 C   0  0  0  0  0  0  0  0  0  0  0  0
    9.0575   -3.2904    0.0000 C   0  0  0  0  0  0  0  0  0  0  0  0
    9.7720   -2.8779    0.0000 C   0  0  0  0  0  0  0  0  0  0  0  0
   10.4865   -3.2904    0.0000 C   0  0  0  0  0  0  0  0  0  0  0  0
   10.4865   -4.1154    0.0000 C   0  0  0  0  0  0  0  0  0  0  0  0
    8.3430  -12.7779    0.0000 O   0  0  0  0  0  0  0  0  0  0  0  0
    5.4852  -12.7779    0.0000 O   0  0  0  0  0  0  0  0  0  0  0  0
   10.4865  -10.7154    0.0000 O   0  0  0  0  0  0  0  0  0  0  0  0
    9.7720  -10.3029    0.0000 C   0  0  0  0  0  0  0  0  0  0  0  0
    6.9141  -12.7779    0.0000 O   0  0  0  0  0  0  0  0  0  0  0  0
    7.6286  -10.7154    0.0000 C   0  0  0  0  0  0  0  0  0  0  0  0
    6.9141  -10.3029    0.0000 C   0  0  2  0  0  0  0  0  0  0  0  0
    6.1996  -10.7154    0.0000 C   0  0  0  0  0  0  0  0  0  0  0  0
    5.4852  -10.3029    0.0000 C   0  0  0  0  0  0  0  0  0  0  0  0
    4.7707  -10.7154    0.0000 C   0  0  0  0  0  0  0  0  0  0  0  0
    4.7707  -11.5404    0.0000 C   0  0  0  0  0  0  0  0  0  0  0  0
    5.4852  -11.9529    0.0000 C   0  0  0  0  0  0  0  0  0  0  0  0
    6.1996  -11.5404    0.0000 C   0  0  0  0  0  0  0  0  0  0  0  0
    6.9141  -11.9529    0.0000 C   0  0  0  0  0  0  0  0  0  0  0  0
    7.6286  -11.5404    0.0000 C   0  0  0  0  0  0  0  0  0  0  0  0
    8.3430  -11.9529    0.0000 C   0  0  0  0  0  0  0  0  0  0  0  0
    9.0575  -11.5404    0.0000 C   0  0  0  0  0  0  0  0  0  0  0  0
    9.0575  -10.7154    0.0000 C   0  0  0  0  0  0  0  0  0  0  0  0
    8.3430  -10.3029    0.0000 C   0  0  0  0  0  0  0  0  0  0  0  0
    9.7720   -2.0529    0.0000 O   0  0  0  0  0  0  0  0  0  0  0  0
    8.3430   -7.8279    0.0000 C   0  0  0  0  0  0  0  0  0  0  0  0
    6.9141   -7.0029    0.0000 O   0  0  0  0  0  0  0  0  0  0  0  0
    5.4852   -7.8279    0.0000 O   0  0  0  0  0  0  0  0  0  0  0  0
    5.4852   -9.4779    0.0000 O   0  0  0  0  0  0  0  0  0  0  0  0
    6.9141   -9.4779    0.0000 C   0  0  1  0  0  0  0  0  0  0  0  0
    6.1996   -9.0654    0.0000 C   0  0  1  0  0  0  0  0  0  0  0  0
    6.1996   -8.2404    0.0000 C   0  0  2  0  0  0  0  0  0  0  0  0
    6.9141   -7.8279    0.0000 C   0  0  1  0  0  0  0  0  0  0  0  0
    7.6286   -8.2404    0.0000 C   0  0  2  0  0  0  0  0  0  0  0  0
    7.6286   -9.0654    0.0000 O   0  0  0  0  0  0  0  0  0  0  0  0
    6.1996   -9.8904    0.0000 H   0  0  0  0  0  0  0  0  0  0  0  0
 37  1  1  6  0  0  0
 37 19  1  0  0  0  0
 28 13  1  0  0  0  0
 24 14  1  0  0  0  0
 30 16  1  0  0  0  0
 16 15  1  0  0  0  0
 26 17  2  0  0  0  0
 31 18  2  0  0  0  0
 27 18  1  0  0  0  0
 19 18  1  0  0  0  0
 19 20  1  0  0  0  0
 25 20  2  0  0  0  0
 21 20  1  0  0  0  0
 22 21  2  0  0  0  0
 23 22  1  0  0  0  0
 24 23  2  0  0  0  0
 25 24  1  0  0  0  0
 26 25  1  0  0  0  0
 27 26  1  0  0  0  0
 28 27  2  0  0  0  0
 29 28  1  0  0  0  0
 30 29  2  0  0  0  0
 31 30  1  0  0  0  0
 41 33  1  1  0  0  0
 40 34  1  6  0  0  0
 39 35  1  1  0  0  0
 38 36  1  6  0  0  0
 37 42  1  0  0  0  0
 38 37  1  0  0  0  0
 39 38  1  0  0  0  0
 40 39  1  0  0  0  0
 41 40  1  0  0  0  0
 42 41  1  0  0  0  0
  2  3  1  0  0  0  0
  3  4  2  0  0  0  0
  2  5  2  0  0  0  0
  2  6  1  0  0  0  0
  7  8  1  0  0  0  0
  8  9  2  0  0  0  0
  9 10  1  0  0  0  0
 10 11  2  0  0  0  0
 11 12  1  0  0  0  0
  7 12  2  0  0  0  0
 10 32  1  0  0  0  0
  4  7  1  0  0  0  0
  6 33  1  0  0  0  0
 19 43  1  1  0  0  0
M  END
>  <cdx:fragmentId>
49

$$$$
