6293.cdx
  Mrv1902 05222410272D          

 18 20  0  0  0  0            999 V2000
    8.6284   -4.2564    0.0000 C   0  0  0  0  0  0  0  0  0  0  0  0
    9.3429   -4.6689    0.0000 C   0  0  0  0  0  0  0  0  0  0  0  0
    9.3429   -5.4939    0.0000 C   0  0  0  0  0  0  0  0  0  0  0  0
    8.6284   -5.9064    0.0000 C   0  0  0  0  0  0  0  0  0  0  0  0
    7.9139   -5.4939    0.0000 C   0  0  0  0  0  0  0  0  0  0  0  0
    7.1995   -5.9064    0.0000 C   0  0  0  0  0  0  0  0  0  0  0  0
    6.4850   -5.4939    0.0000 C   0  0  0  0  0  0  0  0  0  0  0  0
    5.7705   -5.9064    0.0000 C   0  0  0  0  0  0  0  0  0  0  0  0
    5.0561   -5.4939    0.0000 C   0  0  0  0  0  0  0  0  0  0  0  0
    5.0561   -4.6689    0.0000 C   0  0  0  0  0  0  0  0  0  0  0  0
    5.7705   -4.2564    0.0000 C   0  0  0  0  0  0  0  0  0  0  0  0
    6.4850   -4.6689    0.0000 C   0  0  0  0  0  0  0  0  0  0  0  0
    7.1995   -4.2564    0.0000 C   0  0  0  0  0  0  0  0  0  0  0  0
    7.9139   -4.6689    0.0000 C   0  0  0  0  0  0  0  0  0  0  0  0
    7.1995   -3.4314    0.0000 O   0  0  0  0  0  0  0  0  0  0  0  0
    7.1995   -6.7314    0.0000 O   0  0  0  0  0  0  0  0  0  0  0  0
   10.0573   -4.2564    0.0000 O   0  0  0  0  0  0  0  0  0  0  0  0
    8.6284   -3.4314    0.0000 O   0  0  0  0  0  0  0  0  0  0  0  0
  1  2  1  0  0  0  0
  2  3  2  0  0  0  0
  3  4  1  0  0  0  0
  4  5  2  0  0  0  0
  5  6  1  0  0  0  0
  6  7  1  0  0  0  0
  7  8  1  0  0  0  0
  8  9  2  0  0  0  0
  9 10  1  0  0  0  0
 10 11  2  0  0  0  0
 11 12  1  0  0  0  0
  7 12  2  0  0  0  0
 12 13  1  0  0  0  0
 13 14  1  0  0  0  0
  5 14  1  0  0  0  0
  1 14  2  0  0  0  0
 13 15  2  0  0  0  0
  6 16  2  0  0  0  0
  2 17  1  0  0  0  0
  1 18  1  0  0  0  0
M  END
>  <cdx:fragmentId>
5

$$$$
