6298.cdx
  Mrv1902 05222410202D          

 23 25  0  0  0  0            999 V2000
    9.0172   -7.9819    0.0000 O   0  0  0  0  0  0  0  0  0  0  0  0
   10.4461   -5.5069    0.0000 O   0  0  0  0  0  0  0  0  0  0  0  0
    9.0172   -4.6819    0.0000 O   0  0  0  0  0  0  0  0  0  0  0  0
    6.1593   -4.6819    0.0000 O   0  0  0  0  0  0  0  0  0  0  0  0
    4.7304   -7.1569    0.0000 O   0  0  0  0  0  0  0  0  0  0  0  0
    7.5882   -4.6819    0.0000 O   0  0  0  0  0  0  0  0  0  0  0  0
    6.1593   -5.5069    0.0000 C   0  0  0  0  0  0  0  0  0  0  0  0
    5.4448   -5.9194    0.0000 C   0  0  0  0  0  0  0  0  0  0  0  0
    5.4448   -6.7444    0.0000 C   0  0  0  0  0  0  0  0  0  0  0  0
    6.1593   -7.1569    0.0000 C   0  0  0  0  0  0  0  0  0  0  0  0
    7.5882   -5.5069    0.0000 C   0  0  0  0  0  0  0  0  0  0  0  0
    6.8738   -5.9194    0.0000 C   0  0  0  0  0  0  0  0  0  0  0  0
    6.8738   -6.7444    0.0000 C   0  0  0  0  0  0  0  0  0  0  0  0
    7.5882   -7.1569    0.0000 O   0  0  0  0  0  0  0  0  0  0  0  0
    9.0172   -5.5069    0.0000 C   0  0  0  0  0  0  0  0  0  0  0  0
    8.3027   -5.9194    0.0000 C   0  0  0  0  0  0  0  0  0  0  0  0
    8.3027   -6.7444    0.0000 C   0  0  0  0  0  0  0  0  0  0  0  0
    9.0172   -7.1569    0.0000 C   0  0  0  0  0  0  0  0  0  0  0  0
    9.7317   -6.7444    0.0000 C   0  0  0  0  0  0  0  0  0  0  0  0
    9.7317   -5.9194    0.0000 C   0  0  0  0  0  0  0  0  0  0  0  0
    9.7317   -8.3944    0.0000 C   0  0  0  0  0  0  0  0  0  0  0  0
   11.1606   -5.9194    0.0000 C   0  0  0  0  0  0  0  0  0  0  0  0
    9.7317   -4.2694    0.0000 C   0  0  0  0  0  0  0  0  0  0  0  0
 18  1  1  0  0  0  0
 20  2  1  0  0  0  0
 15  3  1  0  0  0  0
  7  4  1  0  0  0  0
  9  5  1  0  0  0  0
 11  6  2  0  0  0  0
  7 12  2  0  0  0  0
  8  7  1  0  0  0  0
  9  8  2  0  0  0  0
 10  9  1  0  0  0  0
 13 10  2  0  0  0  0
 11 16  1  0  0  0  0
 12 11  1  0  0  0  0
 13 12  1  0  0  0  0
 14 13  1  0  0  0  0
 17 14  1  0  0  0  0
 15 20  1  0  0  0  0
 16 15  2  0  0  0  0
 17 16  1  0  0  0  0
 18 17  2  0  0  0  0
 19 18  1  0  0  0  0
 20 19  2  0  0  0  0
  1 21  1  0  0  0  0
  2 22  1  0  0  0  0
  3 23  1  0  0  0  0
M  END
>  <cdx:fragmentId>
5

$$$$
