629995.cdx
  Mrv1902 05222410222D          

 55 58  0  0  0  0            999 V2000
    5.4071   -9.0689    0.0000 C   0  0  0  0  0  0  0  0  0  0  0  0
    4.6926   -9.4814    0.0000 C   0  0  0  0  0  0  0  0  0  0  0  0
    5.4071   -8.2439    0.0000 O   0  0  0  0  0  0  0  0  0  0  0  0
    6.1215   -9.4814    0.0000 O   0  0  0  0  0  0  0  0  0  0  0  0
    7.5505   -7.8314    0.0000 O   0  0  0  0  0  0  0  0  0  0  0  0
    6.8360   -8.2439    0.0000 C   0  0  1  0  0  0  0  0  0  0  0  0
    6.8360   -9.0689    0.0000 C   0  0  2  0  0  0  0  0  0  0  0  0
    7.5505   -9.4814    0.0000 C   0  0  1  0  0  0  0  0  0  0  0  0
    8.2649   -9.0689    0.0000 C   0  0  2  0  0  0  0  0  0  0  0  0
    8.2649   -8.2439    0.0000 C   0  0  2  0  0  0  0  0  0  0  0  0
    7.5505  -10.3064    0.0000 O   0  0  0  0  0  0  0  0  0  0  0  0
    6.1215  -10.3064    0.0000 O   0  0  0  0  0  0  0  0  0  0  0  0
    6.8360  -10.7189    0.0000 C   0  0  2  0  0  0  0  0  0  0  0  0
    6.8360  -11.5439    0.0000 C   0  0  1  0  0  0  0  0  0  0  0  0
    6.1215  -11.9564    0.0000 C   0  0  1  0  0  0  0  0  0  0  0  0
    5.4071  -11.5439    0.0000 C   0  0  2  0  0  0  0  0  0  0  0  0
    5.4071  -10.7189    0.0000 C   0  0  2  0  0  0  0  0  0  0  0  0
    4.6926  -10.3064    0.0000 C   0  0  0  0  0  0  0  0  0  0  0  0
    4.6926  -11.9564    0.0000 O   0  0  0  0  0  0  0  0  0  0  0  0
    6.1215  -12.7814    0.0000 O   0  0  0  0  0  0  0  0  0  0  0  0
    7.5505  -11.9564    0.0000 O   0  0  0  0  0  0  0  0  0  0  0  0
    6.1215   -7.8314    0.0000 C   0  0  0  0  0  0  0  0  0  0  0  0
    6.1215   -7.0064    0.0000 O   0  0  0  0  0  0  0  0  0  0  0  0
   11.1228   -8.2439    0.0000 C   0  0  0  0  0  0  0  0  0  0  0  0
   11.8373   -7.8314    0.0000 C   0  0  0  0  0  0  0  0  0  0  0  0
   12.5518   -8.2439    0.0000 C   0  0  0  0  0  0  0  0  0  0  0  0
   12.5518   -9.0689    0.0000 C   0  0  0  0  0  0  0  0  0  0  0  0
   11.8373   -9.4814    0.0000 C   0  0  0  0  0  0  0  0  0  0  0  0
   11.1228   -9.0689    0.0000 C   0  0  0  0  0  0  0  0  0  0  0  0
   13.2662   -9.4814    0.0000 O   0  0  0  0  0  0  0  0  0  0  0  0
   13.2662   -7.8314    0.0000 O   0  0  0  0  0  0  0  0  0  0  0  0
    8.9794  -10.3064    0.0000 C   0  0  0  0  0  0  0  0  0  0  0  0
    9.6939  -10.7189    0.0000 O   0  0  0  0  0  0  0  0  0  0  0  0
    8.2649  -10.7189    0.0000 C   0  0  0  0  0  0  0  0  0  0  0  0
    3.9781   -5.7689    0.0000 O   0  0  0  0  0  0  0  0  0  0  0  0
    3.2636   -7.8314    0.0000 C   0  0  0  0  0  0  0  0  0  0  0  0
    3.2636   -7.0064    0.0000 C   0  0  0  0  0  0  0  0  0  0  0  0
    3.9781   -6.5939    0.0000 C   0  0  0  0  0  0  0  0  0  0  0  0
    4.6926   -7.0064    0.0000 C   0  0  0  0  0  0  0  0  0  0  0  0
    4.6926   -7.8314    0.0000 C   0  0  0  0  0  0  0  0  0  0  0  0
    3.9781   -8.2439    0.0000 C   0  0  0  0  0  0  0  0  0  0  0  0
    3.9781   -9.0689    0.0000 C   0  0  0  0  0  0  0  0  0  0  0  0
   10.4084   -7.8314    0.0000 C   0  0  0  0  0  0  0  0  0  0  0  0
    9.6939   -8.2439    0.0000 C   0  0  0  0  0  0  0  0  0  0  0  0
    8.9794   -7.8314    0.0000 O   0  0  0  0  0  0  0  0  0  0  0  0
    8.9794   -9.4814    0.0000 O   0  0  0  0  0  0  0  0  0  0  0  0
    7.5505  -12.7814    0.0000 C   0  0  0  0  0  0  0  0  0  0  0  0
    6.8360  -13.1939    0.0000 C   0  0  0  0  0  0  0  0  0  0  0  0
    8.2649  -13.1939    0.0000 O   0  0  0  0  0  0  0  0  0  0  0  0
    5.4071  -13.1939    0.0000 C   0  0  0  0  0  0  0  0  0  0  0  0
    5.4071  -14.0189    0.0000 O   0  0  0  0  0  0  0  0  0  0  0  0
    4.6926  -12.7814    0.0000 C   0  0  0  0  0  0  0  0  0  0  0  0
    3.9781  -11.5439    0.0000 C   0  0  0  0  0  0  0  0  0  0  0  0
    3.2636  -11.9564    0.0000 C   0  0  0  0  0  0  0  0  0  0  0  0
    3.9781  -10.7189    0.0000 O   0  0  0  0  0  0  0  0  0  0  0  0
 42 41  1  0  0  0  0
 38 35  1  0  0  0  0
 41 36  2  0  0  0  0
 37 36  1  0  0  0  0
 38 37  2  0  0  0  0
 39 38  1  0  0  0  0
 40 39  2  0  0  0  0
 41 40  1  0  0  0  0
 43 24  1  0  0  0  0
 45 44  1  0  0  0  0
 44 43  1  0  0  0  0
 46 32  1  0  0  0  0
  1  2  1  0  0  0  0
  2 42  2  0  0  0  0
  1  3  2  0  0  0  0
  1  4  1  0  0  0  0
  5  6  1  0  0  0  0
  6  7  1  0  0  0  0
  7  8  1  0  0  0  0
  8  9  1  0  0  0  0
  9 10  1  0  0  0  0
  5 10  1  0  0  0  0
 12 13  1  0  0  0  0
 13 14  1  0  0  0  0
 14 15  1  0  0  0  0
 15 16  1  0  0  0  0
 16 17  1  0  0  0  0
 12 17  1  0  0  0  0
 17 18  1  6  0  0  0
 16 19  1  1  0  0  0
 15 20  1  6  0  0  0
 14 21  1  6  0  0  0
 13 11  1  1  0  0  0
  8 11  1  1  0  0  0
 22 23  1  0  0  0  0
  6 22  1  1  0  0  0
 24 25  1  0  0  0  0
 25 26  2  0  0  0  0
 26 27  1  0  0  0  0
 27 28  2  0  0  0  0
 28 29  1  0  0  0  0
 24 29  2  0  0  0  0
 27 30  1  0  0  0  0
 26 31  1  0  0  0  0
 10 45  1  1  0  0  0
 32 33  2  0  0  0  0
 32 34  1  0  0  0  0
  9 46  1  6  0  0  0
  7  4  1  6  0  0  0
 21 47  1  0  0  0  0
 47 48  1  0  0  0  0
 47 49  2  0  0  0  0
 20 50  1  0  0  0  0
 50 51  2  0  0  0  0
 50 52  1  0  0  0  0
 19 53  1  0  0  0  0
 53 54  1  0  0  0  0
 53 55  2  0  0  0  0
M  END
>  <cdx:groupId>
136007

>  <cdx:fragmentId>
135907

$$$$
