630005.cdx
  Mrv1902 05222410242D          

 28 30  0  0  0  0            999 V2000
    6.9117  -10.1807    0.0000 O   0  0  0  0  0  0  0  0  0  0  0  0
    3.3063   -9.0432    0.0000 O   0  0  0  0  0  0  0  0  0  0  0  0
    3.1416  -10.4627    0.0000 C   0  0  0  0  0  0  0  0  0  0  0  0
    3.9611  -10.5577    0.0000 O   0  0  0  0  0  0  0  0  0  0  0  0
    5.4373   -8.5712    0.0000 C   0  0  0  0  0  0  0  0  0  0  0  0
    4.6178   -8.4761    0.0000 C   0  0  0  0  0  0  0  0  0  0  0  0
    4.1258   -9.1383    0.0000 C   0  0  0  0  0  0  0  0  0  0  0  0
    4.4532   -9.8955    0.0000 C   0  0  0  0  0  0  0  0  0  0  0  0
    5.2727   -9.9906    0.0000 C   0  0  0  0  0  0  0  0  0  0  0  0
    5.7648   -9.3284    0.0000 C   0  0  0  0  0  0  0  0  0  0  0  0
    6.5843   -9.4235    0.0000 C   0  0  2  0  0  0  0  0  0  0  0  0
    8.0354  -10.1928    0.0000 O   0  0  0  0  0  0  0  0  0  0  0  0
    8.3790   -9.4428    0.0000 C   0  0  0  0  0  0  0  0  0  0  0  0
    6.8299   -7.9740    0.0000 C   0  0  0  0  0  0  0  0  0  0  0  0
    7.0764   -8.7613    0.0000 C   0  0  2  0  0  0  0  0  0  0  0  0
    7.9013   -8.7702    0.0000 C   0  0  1  0  0  0  0  0  0  0  0  0
    8.1647   -7.9884    0.0000 C   0  0  2  0  0  0  0  0  0  0  0  0
    7.5025   -7.4963    0.0000 O   0  0  0  0  0  0  0  0  0  0  0  0
   10.8871   -5.6388    0.0000 C   0  0  0  0  0  0  0  0  0  0  0  0
   10.0997   -5.8853    0.0000 O   0  0  0  0  0  0  0  0  0  0  0  0
   11.3140   -7.0025    0.0000 O   0  0  0  0  0  0  0  0  0  0  0  0
   10.3464   -8.0540    0.0000 C   0  0  0  0  0  0  0  0  0  0  0  0
    9.5591   -8.3005    0.0000 C   0  0  0  0  0  0  0  0  0  0  0  0
    8.9520   -7.7419    0.0000 C   0  0  0  0  0  0  0  0  0  0  0  0
    9.1322   -6.9368    0.0000 C   0  0  0  0  0  0  0  0  0  0  0  0
    9.9195   -6.6903    0.0000 C   0  0  0  0  0  0  0  0  0  0  0  0
   10.5266   -7.2489    0.0000 C   0  0  0  0  0  0  0  0  0  0  0  0
    6.2602   -8.6411    0.0000 H   0  0  0  0  0  0  0  0  0  0  0  0
 17 24  1  6  0  0  0
 15 11  1  0  0  0  0
 11  1  1  6  0  0  0
 11 10  1  0  0  0  0
  7  2  1  0  0  0  0
  8  4  1  0  0  0  0
  4  3  1  0  0  0  0
 10  5  2  0  0  0  0
  6  5  1  0  0  0  0
  7  6  2  0  0  0  0
  8  7  1  0  0  0  0
  9  8  2  0  0  0  0
 10  9  1  0  0  0  0
 16 13  1  1  0  0  0
 13 12  1  0  0  0  0
 18 14  1  0  0  0  0
 15 14  1  0  0  0  0
 16 15  1  0  0  0  0
 17 16  1  0  0  0  0
 18 17  1  0  0  0  0
 26 20  1  0  0  0  0
 20 19  1  0  0  0  0
 27 21  1  0  0  0  0
 27 22  2  0  0  0  0
 23 22  1  0  0  0  0
 24 23  2  0  0  0  0
 25 24  1  0  0  0  0
 26 25  2  0  0  0  0
 27 26  1  0  0  0  0
 15 28  1  1  0  0  0
M  END
>  <cdx:groupId>
136320

>  <cdx:fragmentId>
136274

$$$$
