6303.cdx
  Mrv1902 05222410182D          

 18 20  0  0  0  0            999 V2000
    7.6972   -4.3748    0.0000 O   0  0  0  0  0  0  0  0  0  0  0  0
    6.9126   -4.6297    0.0000 C   0  0  2  0  0  0  0  0  0  0  0  0
    6.4277   -3.9623    0.0000 C   0  0  1  0  0  0  0  0  0  0  0  0
    6.9126   -3.2948    0.0000 C   0  0  0  0  0  0  0  0  0  0  0  0
    7.6972   -3.5498    0.0000 C   0  0  1  0  0  0  0  0  0  0  0  0
    5.6027   -3.9623    0.0000 O   0  0  0  0  0  0  0  0  0  0  0  0
    8.3646   -3.0649    0.0000 C   0  0  0  0  0  0  0  0  0  0  0  0
    8.3646   -2.2399    0.0000 O   0  0  0  0  0  0  0  0  0  0  0  0
    6.6576   -6.7492    0.0000 N   0  0  0  0  0  0  0  0  0  0  0  0
    7.1426   -6.0818    0.0000 C   0  0  0  0  0  0  0  0  0  0  0  0
    6.6576   -5.4143    0.0000 N   0  0  0  0  0  0  0  0  0  0  0  0
    5.8730   -5.6693    0.0000 C   0  0  0  0  0  0  0  0  0  0  0  0
    5.1586   -5.2568    0.0000 N   0  0  0  0  0  0  0  0  0  0  0  0
    4.4441   -5.6693    0.0000 C   0  0  0  0  0  0  0  0  0  0  0  0
    4.4441   -6.4943    0.0000 N   0  0  0  0  0  0  0  0  0  0  0  0
    5.1586   -6.9068    0.0000 C   0  0  0  0  0  0  0  0  0  0  0  0
    5.8730   -6.4943    0.0000 C   0  0  0  0  0  0  0  0  0  0  0  0
    5.1586   -7.7318    0.0000 N   0  0  0  0  0  0  0  0  0  0  0  0
  1  2  1  0  0  0  0
  2  3  1  0  0  0  0
  3  4  1  0  0  0  0
  4  5  1  0  0  0  0
  1  5  1  0  0  0  0
  3  6  1  6  0  0  0
  7  8  1  0  0  0  0
  5  7  1  1  0  0  0
  9 10  2  0  0  0  0
 10 11  1  0  0  0  0
 11 12  1  0  0  0  0
 12 13  2  0  0  0  0
 13 14  1  0  0  0  0
 14 15  2  0  0  0  0
 15 16  1  0  0  0  0
 16 17  2  0  0  0  0
  9 17  1  0  0  0  0
 12 17  1  0  0  0  0
 16 18  1  0  0  0  0
  2 11  1  1  0  0  0
M  END
>  <cdx:fragmentId>
21

$$$$
