630341.cdx
  Mrv1902 05222410222D          

 42 46  0  0  0  0            999 V2000
    4.1299   -9.7735    0.0000 O   0  0  0  0  0  0  0  0  0  0  0  0
    2.7009   -8.9485    0.0000 O   0  0  0  0  0  0  0  0  0  0  0  0
    1.9865   -7.7110    0.0000 O   0  0  0  0  0  0  0  0  0  0  0  0
    2.7009   -7.2985    0.0000 C   0  0  0  0  0  0  0  0  0  0  0  0
    4.3442  -10.1447    0.0000 O   0  0  0  0  0  0  0  0  0  0  0  0
    4.3442  -11.7947    0.0000 O   0  0  0  0  0  0  0  0  0  0  0  0
    5.7732  -12.6197    0.0000 O   0  0  0  0  0  0  0  0  0  0  0  0
    7.2021  -11.7947    0.0000 C   0  0  0  0  0  0  0  0  0  0  0  0
    6.4876  -11.3822    0.0000 C   0  0  1  0  0  0  0  0  0  0  0  0
    5.7732  -11.7947    0.0000 C   0  0  1  0  0  0  0  0  0  0  0  0
    5.0587  -11.3822    0.0000 C   0  0  2  0  0  0  0  0  0  0  0  0
    5.0587  -10.5572    0.0000 C   0  0  2  0  0  0  0  0  0  0  0  0
    5.7732  -10.1447    0.0000 C   0  0  1  0  0  0  0  0  0  0  0  0
    6.4876  -10.5572    0.0000 O   0  0  0  0  0  0  0  0  0  0  0  0
    5.7732   -9.0722    0.0000 O   0  0  0  0  0  0  0  0  0  0  0  0
    3.4154   -7.7110    0.0000 C   0  0  2  0  0  0  0  0  0  0  0  0
    3.4154   -8.5360    0.0000 C   0  0  2  0  0  0  0  0  0  0  0  0
    4.1299   -8.9485    0.0000 C   0  0  1  0  0  0  0  0  0  0  0  0
    4.8443   -8.5360    0.0000 C   0  0  2  0  0  0  0  0  0  0  0  0
    4.8443   -7.7110    0.0000 C   0  0  1  0  0  0  0  0  0  0  0  0
    4.1299   -7.2985    0.0000 O   0  0  0  0  0  0  0  0  0  0  0  0
    5.5588   -7.2985    0.0000 O   0  0  0  0  0  0  0  0  0  0  0  0
    6.9878   -9.7735    0.0000 O   0  0  0  0  0  0  0  0  0  0  0  0
   12.7035   -6.4735    0.0000 C   0  0  0  0  0  0  0  0  0  0  0  0
   11.9890   -6.0610    0.0000 O   0  0  0  0  0  0  0  0  0  0  0  0
    9.8456   -6.4735    0.0000 C   0  0  0  0  0  0  0  0  0  0  0  0
   10.5601   -6.0610    0.0000 C   0  0  0  0  0  0  0  0  0  0  0  0
   11.2746   -6.4735    0.0000 C   0  0  0  0  0  0  0  0  0  0  0  0
   11.2746   -7.2985    0.0000 C   0  0  0  0  0  0  0  0  0  0  0  0
   10.5601   -7.7110    0.0000 C   0  0  0  0  0  0  0  0  0  0  0  0
    9.8456   -7.2985    0.0000 C   0  0  0  0  0  0  0  0  0  0  0  0
    8.4167   -9.7735    0.0000 O   0  0  0  0  0  0  0  0  0  0  0  0
    8.4167   -7.2985    0.0000 O   0  0  0  0  0  0  0  0  0  0  0  0
    7.7022   -7.7110    0.0000 C   0  0  0  0  0  0  0  0  0  0  0  0
    6.9878   -7.2985    0.0000 C   0  0  0  0  0  0  0  0  0  0  0  0
    6.2733   -7.7110    0.0000 C   0  0  0  0  0  0  0  0  0  0  0  0
    6.2733   -8.5360    0.0000 C   0  0  0  0  0  0  0  0  0  0  0  0
    6.9878   -8.9485    0.0000 C   0  0  0  0  0  0  0  0  0  0  0  0
    7.7022   -8.5360    0.0000 C   0  0  0  0  0  0  0  0  0  0  0  0
    8.4167   -8.9485    0.0000 C   0  0  0  0  0  0  0  0  0  0  0  0
    9.1312   -8.5360    0.0000 C   0  0  0  0  0  0  0  0  0  0  0  0
    9.1312   -7.7110    0.0000 C   0  0  1  0  0  0  0  0  0  0  0  0
 36 22  1  0  0  0  0
 20 22  1  1  0  0  0
 18  1  1  1  0  0  0
 17  2  1  6  0  0  0
 16  4  1  1  0  0  0
  4  3  1  0  0  0  0
 19 15  1  6  0  0  0
 13 15  1  6  0  0  0
 12  5  1  1  0  0  0
 11  6  1  1  0  0  0
 10  7  1  6  0  0  0
  9  8  1  1  0  0  0
 14  9  1  0  0  0  0
 10  9  1  0  0  0  0
 11 10  1  0  0  0  0
 12 11  1  0  0  0  0
 13 12  1  0  0  0  0
 14 13  1  0  0  0  0
 21 16  1  0  0  0  0
 17 16  1  0  0  0  0
 18 17  1  0  0  0  0
 19 18  1  0  0  0  0
 20 19  1  0  0  0  0
 21 20  1  0  0  0  0
 38 23  1  0  0  0  0
 42 31  1  6  0  0  0
 28 25  1  0  0  0  0
 25 24  1  0  0  0  0
 31 26  2  0  0  0  0
 27 26  1  0  0  0  0
 28 27  2  0  0  0  0
 29 28  1  0  0  0  0
 30 29  2  0  0  0  0
 31 30  1  0  0  0  0
 40 32  2  0  0  0  0
 42 33  1  0  0  0  0
 34 33  1  0  0  0  0
 39 34  2  0  0  0  0
 35 34  1  0  0  0  0
 36 35  2  0  0  0  0
 37 36  1  0  0  0  0
 38 37  2  0  0  0  0
 39 38  1  0  0  0  0
 40 39  1  0  0  0  0
 41 40  1  0  0  0  0
 42 41  1  0  0  0  0
M  END
>  <cdx:fragmentId>
61

$$$$
