630456.cdx
  Mrv1902 05222410182D          

 56 62  0  0  0  0            999 V2000
   19.4327  -20.6351    0.0000 C   0  0  0  0  0  0  0  0  0  0  0  0
   20.0581  -21.1733    0.0000 C   0  0  0  0  0  0  0  0  0  0  0  0
   19.5861  -19.8245    0.0000 O   0  0  0  0  0  0  0  0  0  0  0  0
   18.6540  -20.9076    0.0000 O   0  0  0  0  0  0  0  0  0  0  0  0
   16.1527  -18.7551    0.0000 C   0  0  0  0  0  0  0  0  0  0  0  0
   16.7781  -19.2932    0.0000 C   0  0  0  0  0  0  0  0  0  0  0  0
   17.5568  -19.0207    0.0000 C   0  0  0  0  0  0  0  0  0  0  0  0
   18.1821  -19.5589    0.0000 C   0  0  0  0  0  0  0  0  0  0  0  0
   18.0287  -20.3695    0.0000 C   0  0  0  0  0  0  0  0  0  0  0  0
   17.2500  -20.6420    0.0000 C   0  0  0  0  0  0  0  0  0  0  0  0
   16.6247  -20.1038    0.0000 C   0  0  0  0  0  0  0  0  0  0  0  0
   15.8460  -20.3763    0.0000 O   0  0  0  0  0  0  0  0  0  0  0  0
   15.2206  -19.8382    0.0000 C   0  0  0  0  0  0  0  0  0  0  0  0
   14.4419  -20.1106    0.0000 C   0  0  0  0  0  0  0  0  0  0  0  0
   13.8166  -19.5725    0.0000 C   0  0  0  0  0  0  0  0  0  0  0  0
   13.9700  -18.7619    0.0000 C   0  0  0  0  0  0  0  0  0  0  0  0
   14.7487  -18.4894    0.0000 C   0  0  0  0  0  0  0  0  0  0  0  0
   15.3740  -19.0276    0.0000 C   0  0  0  0  0  0  0  0  0  0  0  0
   16.3981  -17.4581    0.0000 C   0  0  0  0  0  0  0  0  0  0  0  0
   15.7728  -16.9199    0.0000 C   0  0  0  0  0  0  0  0  0  0  0  0
   15.9262  -16.1093    0.0000 C   0  0  0  0  0  0  0  0  0  0  0  0
   16.7049  -15.8368    0.0000 C   0  0  0  0  0  0  0  0  0  0  0  0
   17.3302  -16.3750    0.0000 C   0  0  0  0  0  0  0  0  0  0  0  0
   17.1768  -17.1856    0.0000 C   0  0  0  0  0  0  0  0  0  0  0  0
   14.9941  -17.1924    0.0000 C   0  0  0  0  0  0  0  0  0  0  0  0
   14.3893  -16.6313    0.0000 N   0  0  0  0  0  0  0  0  0  0  0  0
   14.8407  -18.0030    0.0000 O   0  0  0  0  0  0  0  0  0  0  0  0
   14.5729  -13.9732    0.0000 C   0  0  0  0  0  0  0  0  0  0  0  0
   15.3772  -14.1568    0.0000 C   0  0  0  0  0  0  0  0  0  0  0  0
   15.7352  -14.9001    0.0000 C   0  0  0  0  0  0  0  0  0  0  0  0
   15.3772  -15.6434    0.0000 C   0  0  0  0  0  0  0  0  0  0  0  0
   14.5729  -15.8270    0.0000 C   0  0  0  0  0  0  0  0  0  0  0  0
   13.9279  -15.3126    0.0000 C   0  0  0  0  0  0  0  0  0  0  0  0
   13.2829  -15.8270    0.0000 C   0  0  0  0  0  0  0  0  0  0  0  0
   12.4786  -15.6434    0.0000 C   0  0  0  0  0  0  0  0  0  0  0  0
   12.1206  -14.9001    0.0000 C   0  0  0  0  0  0  0  0  0  0  0  0
   12.4786  -14.1568    0.0000 C   0  0  0  0  0  0  0  0  0  0  0  0
   13.2829  -13.9732    0.0000 C   0  0  0  0  0  0  0  0  0  0  0  0
   13.9279  -14.4876    0.0000 C   0  0  0  0  0  0  0  0  0  0  0  0
   15.9384  -13.5520    0.0000 C   0  0  0  0  0  0  0  0  0  0  0  0
   15.6952  -12.7637    0.0000 C   0  0  0  0  0  0  0  0  0  0  0  0
   14.8909  -12.5801    0.0000 C   0  0  0  0  0  0  0  0  0  0  0  0
   14.3297  -13.1849    0.0000 C   0  0  0  0  0  0  0  0  0  0  0  0
   11.9642  -16.2884    0.0000 O   0  0  0  0  0  0  0  0  0  0  0  0
   11.2956  -14.9001    0.0000 O   0  0  0  0  0  0  0  0  0  0  0  0
   10.8831  -15.6146    0.0000 C   0  0  0  0  0  0  0  0  0  0  0  0
   16.2563  -12.1589    0.0000 O   0  0  0  0  0  0  0  0  0  0  0  0
   17.0607  -12.3425    0.0000 C   0  0  0  0  0  0  0  0  0  0  0  0
   14.6477  -11.7917    0.0000 O   0  0  0  0  0  0  0  0  0  0  0  0
   13.8434  -11.6082    0.0000 C   0  0  0  0  0  0  0  0  0  0  0  0
   13.5254  -13.0013    0.0000 O   0  0  0  0  0  0  0  0  0  0  0  0
   12.9421  -13.5846    0.0000 C   0  0  0  0  0  0  0  0  0  0  0  0
   13.0379  -19.8450    0.0000 O   0  0  0  0  0  0  0  0  0  0  0  0
   12.4126  -19.3069    0.0000 C   0  0  0  0  0  0  0  0  0  0  0  0
   12.5660  -18.4962    0.0000 O   0  0  0  0  0  0  0  0  0  0  0  0
   11.6339  -19.5793    0.0000 C   0  0  0  0  0  0  0  0  0  0  0  0
  1  2  1  0  0  0  0
  1  3  2  0  0  0  0
  1  4  1  0  0  0  0
  5  6  1  0  0  0  0
  6  7  1  0  0  0  0
  7  8  2  0  0  0  0
  8  9  1  0  0  0  0
  9 10  2  0  0  0  0
 10 11  1  0  0  0  0
  6 11  2  0  0  0  0
 11 12  1  0  0  0  0
 12 13  1  0  0  0  0
 13 14  1  0  0  0  0
 14 15  2  0  0  0  0
 15 16  1  0  0  0  0
 16 17  2  0  0  0  0
 17 18  1  0  0  0  0
 13 18  2  0  0  0  0
  5 18  1  0  0  0  0
 19 20  1  0  0  0  0
 20 21  2  0  0  0  0
 21 22  1  0  0  0  0
 22 23  2  0  0  0  0
 23 24  1  0  0  0  0
 19 24  2  0  0  0  0
 25 26  1  0  0  0  0
 25 27  2  0  0  0  0
 28 29  1  0  0  0  0
 29 30  1  0  0  0  0
 30 31  1  0  0  0  0
 31 32  1  0  0  0  0
 32 33  1  0  0  0  0
 33 34  2  0  0  0  0
 34 35  1  0  0  0  0
 35 36  1  0  0  0  0
 36 37  2  0  0  0  0
 37 38  1  0  0  0  0
 38 39  2  0  0  0  0
 28 39  1  0  0  0  0
 33 39  1  0  0  0  0
 40 41  1  0  0  0  0
 41 42  2  0  0  0  0
 42 43  1  0  0  0  0
 43 28  2  0  0  0  0
 40 29  2  0  0  0  0
 35 44  2  0  0  0  0
 45 46  1  0  0  0  0
 36 45  1  0  0  0  0
 47 48  1  0  0  0  0
 41 47  1  0  0  0  0
 49 50  1  0  0  0  0
 42 49  1  0  0  0  0
 51 52  1  0  0  0  0
 43 51  1  0  0  0  0
 26 32  1  0  0  0  0
 20 25  1  0  0  0  0
  5 19  1  0  0  0  0
 54 55  2  0  0  0  0
 54 56  1  0  0  0  0
 53 54  1  0  0  0  0
 15 53  1  0  0  0  0
  4  9  1  0  0  0  0
M  END
>  <cdx:groupId>
10052

>  <cdx:fragmentId>
9935

$$$$
