14630492.cdx
  Mrv1902 05222410192D          

 25 29  0  0  0  0            999 V2000
    7.4657  -14.9768    0.0000 C   0  0  0  0  0  0  0  0  0  0  0  0
    6.6810  -14.7219    0.0000 C   0  0  0  0  0  0  0  0  0  0  0  0
    5.9666  -15.1344    0.0000 C   0  0  0  0  0  0  0  0  0  0  0  0
    5.2521  -14.7219    0.0000 C   0  0  0  0  0  0  0  0  0  0  0  0
    4.5376  -15.1344    0.0000 C   0  0  0  0  0  0  0  0  0  0  0  0
    3.8232  -14.7219    0.0000 C   0  0  0  0  0  0  0  0  0  0  0  0
    3.8232  -13.8969    0.0000 C   0  0  0  0  0  0  0  0  0  0  0  0
    4.5376  -13.4844    0.0000 O   0  0  0  0  0  0  0  0  0  0  0  0
    5.2521  -13.8969    0.0000 C   0  0  0  0  0  0  0  0  0  0  0  0
    5.9666  -13.4844    0.0000 C   0  0  0  0  0  0  0  0  0  0  0  0
    6.6810  -13.8969    0.0000 C   0  0  0  0  0  0  0  0  0  0  0  0
    7.4657  -13.6420    0.0000 O   0  0  0  0  0  0  0  0  0  0  0  0
    7.9506  -14.3094    0.0000 C   0  0  0  0  0  0  0  0  0  0  0  0
    8.7711  -14.3956    0.0000 C   0  0  0  0  0  0  0  0  0  0  0  0
    9.2560  -13.7282    0.0000 C   0  0  0  0  0  0  0  0  0  0  0  0
   10.0765  -13.8144    0.0000 C   0  0  0  0  0  0  0  0  0  0  0  0
   10.4120  -14.5681    0.0000 C   0  0  0  0  0  0  0  0  0  0  0  0
    9.9271  -15.2355    0.0000 C   0  0  0  0  0  0  0  0  0  0  0  0
    9.1066  -15.1493    0.0000 C   0  0  0  0  0  0  0  0  0  0  0  0
    8.6217  -15.8167    0.0000 O   0  0  0  0  0  0  0  0  0  0  0  0
    7.8012  -15.7305    0.0000 C   0  0  0  0  0  0  0  0  0  0  0  0
    7.3163  -16.3979    0.0000 O   0  0  0  0  0  0  0  0  0  0  0  0
    2.9982  -13.8969    0.0000 C   0  0  0  0  0  0  0  0  0  0  0  0
    3.4107  -13.1824    0.0000 C   0  0  0  0  0  0  0  0  0  0  0  0
   11.2325  -14.6543    0.0000 O   0  0  0  0  0  0  0  0  0  0  0  0
  1  2  1  0  0  0  0
  2  3  1  0  0  0  0
  3  4  2  0  0  0  0
  4  5  1  0  0  0  0
  5  6  2  0  0  0  0
  6  7  1  0  0  0  0
  7  8  1  0  0  0  0
  8  9  1  0  0  0  0
  9 10  2  0  0  0  0
 10 11  1  0  0  0  0
 11 12  1  0  0  0  0
 12 13  1  0  0  0  0
 13 14  1  0  0  0  0
 14 15  1  0  0  0  0
 15 16  2  0  0  0  0
 16 17  1  0  0  0  0
 17 18  2  0  0  0  0
 18 19  1  0  0  0  0
 19 20  1  0  0  0  0
 20 21  1  0  0  0  0
  1 21  1  0  0  0  0
  1 13  2  0  0  0  0
 14 19  2  0  0  0  0
  2 11  2  0  0  0  0
  4  9  1  0  0  0  0
 21 22  2  0  0  0  0
  7 23  1  0  0  0  0
  7 24  1  0  0  0  0
 17 25  1  0  0  0  0
M  END
>  <cdx:groupId>
108469

>  <cdx:fragmentId>
108393

$$$$
