630439.cdx
  Mrv1902 05222410252D          

 58 64  0  0  0  0            999 V2000
    8.3850   -7.9920    0.0000 C   0  0  2  0  0  0  0  0  0  0  0  0
    7.6705   -7.5795    0.0000 C   0  0  0  0  0  0  0  0  0  0  0  0
    7.6705   -8.4045    0.0000 C   0  0  1  0  0  0  0  0  0  0  0  0
    6.9560   -7.9920    0.0000 C   0  0  0  0  0  0  0  0  0  0  0  0
    6.2416   -8.4045    0.0000 C   0  0  0  0  0  0  0  0  0  0  0  0
    6.2416   -9.2295    0.0000 C   0  0  1  0  0  0  0  0  0  0  0  0
    6.9560   -9.6420    0.0000 C   0  0  0  0  0  0  0  0  0  0  0  0
    7.6705   -9.2295    0.0000 C   0  0  2  0  0  0  0  0  0  0  0  0
    8.3850   -9.6420    0.0000 C   0  0  0  0  0  0  0  0  0  0  0  0
    9.0994   -9.2295    0.0000 C   0  0  0  0  0  0  0  0  0  0  0  0
    9.0994   -8.4045    0.0000 C   0  0  1  0  0  0  0  0  0  0  0  0
    9.8139   -7.9920    0.0000 C   0  0  2  0  0  0  0  0  0  0  0  0
   10.5985   -8.2470    0.0000 C   0  0  0  0  0  0  0  0  0  0  0  0
   11.0835   -7.5795    0.0000 C   0  0  1  0  0  0  0  0  0  0  0  0
   10.5985   -6.9121    0.0000 C   0  0  1  0  0  0  0  0  0  0  0  0
    9.8139   -7.1670    0.0000 C   0  0  1  0  0  0  0  0  0  0  0  0
    9.0994   -6.7545    0.0000 C   0  0  0  0  0  0  0  0  0  0  0  0
    8.3850   -7.1670    0.0000 C   0  0  1  0  0  0  0  0  0  0  0  0
    9.9001   -6.3465    0.0000 C   0  0  0  0  0  0  0  0  0  0  0  0
    9.8139   -8.8170    0.0000 C   0  0  0  0  0  0  0  0  0  0  0  0
    7.3685  -10.3565    0.0000 C   0  0  0  0  0  0  0  0  0  0  0  0
    6.5435  -10.3565    0.0000 C   0  0  0  0  0  0  0  0  0  0  0  0
   10.3014   -5.5144    0.0000 C   0  0  0  0  0  0  0  0  0  0  0  0
   10.8535   -6.1275    0.0000 C   0  0  2  0  0  0  0  0  0  0  0  0
   11.6604   -5.9559    0.0000 C   0  0  0  0  0  0  0  0  0  0  0  0
   11.9154   -5.1713    0.0000 C   0  0  0  0  0  0  0  0  0  0  0  0
   12.7224   -4.9998    0.0000 C   0  0  1  0  0  0  0  0  0  0  0  0
   12.9773   -4.2152    0.0000 C   0  0  0  0  0  0  0  0  0  0  0  0
   12.4253   -3.6021    0.0000 C   0  0  0  0  0  0  0  0  0  0  0  0
   13.7843   -4.0436    0.0000 C   0  0  0  0  0  0  0  0  0  0  0  0
   13.2744   -5.6129    0.0000 O   0  0  0  0  0  0  0  0  0  0  0  0
    7.6705   -6.7545    0.0000 O   0  0  0  0  0  0  0  0  0  0  0  0
   11.9085   -7.5795    0.0000 O   0  0  0  0  0  0  0  0  0  0  0  0
    7.6705  -10.0545    0.0000 H   0  0  0  0  0  0  0  0  0  0  0  0
    9.0994   -7.5795    0.0000 H   0  0  0  0  0  0  0  0  0  0  0  0
    5.5271   -9.6420    0.0000 O   0  0  0  0  0  0  0  0  0  0  0  0
    2.6692   -9.6455    0.0000 O   0  0  0  0  0  0  0  0  0  0  0  0
    2.6672   -7.9955    0.0000 O   0  0  0  0  0  0  0  0  0  0  0  0
    3.3802   -6.7571    0.0000 O   0  0  0  0  0  0  0  0  0  0  0  0
    4.0951   -7.1688    0.0000 C   0  0  0  0  0  0  0  0  0  0  0  0
    4.0961   -7.9938    0.0000 C   0  0  2  0  0  0  0  0  0  0  0  0
    3.3822   -8.4071    0.0000 C   0  0  2  0  0  0  0  0  0  0  0  0
    3.3832   -9.2321    0.0000 C   0  0  1  0  0  0  0  0  0  0  0  0
    4.0981   -9.6438    0.0000 C   0  0  2  0  0  0  0  0  0  0  0  0
    4.8121   -9.2304    0.0000 C   0  0  1  0  0  0  0  0  0  0  0  0
    4.8111   -8.4054    0.0000 O   0  0  0  0  0  0  0  0  0  0  0  0
    4.0991  -10.4688    0.0000 O   0  0  0  0  0  0  0  0  0  0  0  0
    1.2413  -10.4722    0.0000 C   0  0  0  0  0  0  0  0  0  0  0  0
    1.2433  -12.1222    0.0000 O   0  0  0  0  0  0  0  0  0  0  0  0
    2.6732  -12.9455    0.0000 O   0  0  0  0  0  0  0  0  0  0  0  0
    4.1011  -12.1188    0.0000 O   0  0  0  0  0  0  0  0  0  0  0  0
    1.9562  -10.8839    0.0000 C   0  0  1  0  0  0  0  0  0  0  0  0
    1.9572  -11.7089    0.0000 C   0  0  1  0  0  0  0  0  0  0  0  0
    2.6722  -12.1205    0.0000 C   0  0  2  0  0  0  0  0  0  0  0  0
    3.3862  -11.7071    0.0000 C   0  0  2  0  0  0  0  0  0  0  0  0
    3.3852  -10.8821    0.0000 C   0  0  1  0  0  0  0  0  0  0  0  0
    2.6702  -10.4705    0.0000 O   0  0  0  0  0  0  0  0  0  0  0  0
   11.4134   -6.7830    0.0000 H   0  0  0  0  0  0  0  0  0  0  0  0
 56 47  1  1  0  0  0
 44 47  1  6  0  0  0
 45 36  1  1  0  0  0
 43 37  1  1  0  0  0
 42 38  1  6  0  0  0
 41 40  1  1  0  0  0
 40 39  1  0  0  0  0
 46 41  1  0  0  0  0
 42 41  1  0  0  0  0
 43 42  1  0  0  0  0
 44 43  1  0  0  0  0
 45 44  1  0  0  0  0
 46 45  1  0  0  0  0
 52 48  1  6  0  0  0
 53 49  1  1  0  0  0
 54 50  1  6  0  0  0
 55 51  1  6  0  0  0
 57 52  1  0  0  0  0
 53 52  1  0  0  0  0
 54 53  1  0  0  0  0
 55 54  1  0  0  0  0
 56 55  1  0  0  0  0
 57 56  1  0  0  0  0
  1  2  1  1  0  0  0
  3  2  1  1  0  0  0
  3  4  1  0  0  0  0
  4  5  1  0  0  0  0
  5  6  1  0  0  0  0
  6  7  1  0  0  0  0
  7  8  1  0  0  0  0
  8  9  1  0  0  0  0
  9 10  1  0  0  0  0
 10 11  1  0  0  0  0
 11 12  1  0  0  0  0
 12 13  1  0  0  0  0
 13 14  1  0  0  0  0
 14 15  1  0  0  0  0
 15 16  1  0  0  0  0
 16 17  1  0  0  0  0
 17 18  1  0  0  0  0
  1 18  1  0  0  0  0
  1 11  1  0  0  0  0
 12 16  1  0  0  0  0
  3  8  1  0  0  0  0
  1  3  1  0  0  0  0
 16 19  1  1  0  0  0
 12 20  1  6  0  0  0
  7 21  1  0  0  0  0
  7 22  1  0  0  0  0
 24 23  1  6  0  0  0
 24 25  1  0  0  0  0
 25 26  1  0  0  0  0
 26 27  1  0  0  0  0
 27 28  1  0  0  0  0
 28 29  1  0  0  0  0
 28 30  1  0  0  0  0
 27 31  1  1  0  0  0
 15 24  1  0  0  0  0
 18 32  1  6  0  0  0
 14 33  1  1  0  0  0
  6 36  1  1  0  0  0
  8 34  1  6  0  0  0
 11 35  1  1  0  0  0
 15 58  1  6  0  0  0
M  END
>  <cdx:fragmentId>
49

$$$$
