630655.cdx
  Mrv1902 05222410182D          

 70 77  0  0  0  0            999 V2000
    8.9212   -7.1484    0.0000 C   0  0  2  0  0  0  0  0  0  0  0  0
    8.2067   -6.7359    0.0000 C   0  0  0  0  0  0  0  0  0  0  0  0
    8.2067   -7.5609    0.0000 C   0  0  1  0  0  0  0  0  0  0  0  0
    7.4923   -7.1484    0.0000 C   0  0  0  0  0  0  0  0  0  0  0  0
    6.7778   -7.5609    0.0000 C   0  0  0  0  0  0  0  0  0  0  0  0
    6.7778   -8.3859    0.0000 C   0  0  1  0  0  0  0  0  0  0  0  0
    7.4923   -8.7984    0.0000 C   0  0  0  0  0  0  0  0  0  0  0  0
    8.2067   -8.3859    0.0000 C   0  0  2  0  0  0  0  0  0  0  0  0
    8.9212   -8.7984    0.0000 C   0  0  0  0  0  0  0  0  0  0  0  0
    9.6357   -8.3859    0.0000 C   0  0  0  0  0  0  0  0  0  0  0  0
    9.6357   -7.5609    0.0000 C   0  0  1  0  0  0  0  0  0  0  0  0
   10.3502   -7.1484    0.0000 C   0  0  2  0  0  0  0  0  0  0  0  0
   11.1348   -7.4034    0.0000 C   0  0  0  0  0  0  0  0  0  0  0  0
   11.6197   -6.7359    0.0000 C   0  0  1  0  0  0  0  0  0  0  0  0
   11.1348   -6.0685    0.0000 C   0  0  1  0  0  0  0  0  0  0  0  0
   10.3502   -6.3234    0.0000 C   0  0  1  0  0  0  0  0  0  0  0  0
    9.6357   -5.9109    0.0000 C   0  0  0  0  0  0  0  0  0  0  0  0
    8.9212   -6.3234    0.0000 C   0  0  1  0  0  0  0  0  0  0  0  0
   10.4364   -5.5030    0.0000 C   0  0  0  0  0  0  0  0  0  0  0  0
   10.3502   -7.9734    0.0000 C   0  0  0  0  0  0  0  0  0  0  0  0
    7.9048   -9.5129    0.0000 C   0  0  0  0  0  0  0  0  0  0  0  0
    7.0798   -9.5129    0.0000 C   0  0  0  0  0  0  0  0  0  0  0  0
   10.8377   -4.6708    0.0000 C   0  0  0  0  0  0  0  0  0  0  0  0
   11.3897   -5.2839    0.0000 C   0  0  2  0  0  0  0  0  0  0  0  0
   12.1967   -5.1123    0.0000 C   0  0  0  0  0  0  0  0  0  0  0  0
   12.4516   -4.3277    0.0000 C   0  0  0  0  0  0  0  0  0  0  0  0
   13.2586   -4.1562    0.0000 C   0  0  1  0  0  0  0  0  0  0  0  0
   13.5135   -3.3716    0.0000 C   0  0  0  0  0  0  0  0  0  0  0  0
   12.9615   -2.7585    0.0000 C   0  0  0  0  0  0  0  0  0  0  0  0
   14.3205   -3.2000    0.0000 C   0  0  0  0  0  0  0  0  0  0  0  0
   13.8106   -4.7693    0.0000 O   0  0  0  0  0  0  0  0  0  0  0  0
    8.2067   -5.9109    0.0000 O   0  0  0  0  0  0  0  0  0  0  0  0
   12.4447   -6.7359    0.0000 O   0  0  0  0  0  0  0  0  0  0  0  0
    8.2067   -9.2109    0.0000 H   0  0  0  0  0  0  0  0  0  0  0  0
    9.6357   -6.7359    0.0000 H   0  0  0  0  0  0  0  0  0  0  0  0
    6.0633   -8.7984    0.0000 O   0  0  0  0  0  0  0  0  0  0  0  0
    3.2055   -8.7948    0.0000 O   0  0  0  0  0  0  0  0  0  0  0  0
    3.2075   -7.1448    0.0000 O   0  0  0  0  0  0  0  0  0  0  0  0
    3.9236   -5.9082    0.0000 O   0  0  0  0  0  0  0  0  0  0  0  0
    4.6375   -6.3216    0.0000 C   0  0  0  0  0  0  0  0  0  0  0  0
    4.6365   -7.1466    0.0000 C   0  0  2  0  0  0  0  0  0  0  0  0
    3.9215   -7.5582    0.0000 C   0  0  2  0  0  0  0  0  0  0  0  0
    3.9204   -8.3832    0.0000 C   0  0  1  0  0  0  0  0  0  0  0  0
    4.6344   -8.7966    0.0000 C   0  0  2  0  0  0  0  0  0  0  0  0
    5.3494   -8.3850    0.0000 C   0  0  1  0  0  0  0  0  0  0  0  0
    5.3504   -7.5600    0.0000 O   0  0  0  0  0  0  0  0  0  0  0  0
    4.6333   -9.6216    0.0000 O   0  0  0  0  0  0  0  0  0  0  0  0
    4.6313  -11.2716    0.0000 O   0  0  0  0  0  0  0  0  0  0  0  0
    1.7734  -11.2680    0.0000 O   0  0  0  0  0  0  0  0  0  0  0  0
    1.7765   -8.7930    0.0000 O   0  0  0  0  0  0  0  0  0  0  0  0
    1.7755   -9.6180    0.0000 C   0  0  0  0  0  0  0  0  0  0  0  0
    2.4894  -10.0314    0.0000 C   0  0  2  0  0  0  0  0  0  0  0  0
    2.4884  -10.8564    0.0000 C   0  0  2  0  0  0  0  0  0  0  0  0
    3.2023  -11.2698    0.0000 C   0  0  1  0  0  0  0  0  0  0  0  0
    3.9173  -10.8582    0.0000 C   0  0  2  0  0  0  0  0  0  0  0  0
    3.9184  -10.0332    0.0000 C   0  0  1  0  0  0  0  0  0  0  0  0
    3.2044   -9.6198    0.0000 O   0  0  0  0  0  0  0  0  0  0  0  0
    3.2013  -12.0948    0.0000 O   0  0  0  0  0  0  0  0  0  0  0  0
    0.3444  -11.2662    0.0000 O   0  0  0  0  0  0  0  0  0  0  0  0
    0.3434  -12.0912    0.0000 C   0  0  0  0  0  0  0  0  0  0  0  0
    0.3413  -13.7412    0.0000 O   0  0  0  0  0  0  0  0  0  0  0  0
    1.7692  -14.5680    0.0000 O   0  0  0  0  0  0  0  0  0  0  0  0
    3.1992  -13.7448    0.0000 O   0  0  0  0  0  0  0  0  0  0  0  0
    1.0573  -12.5046    0.0000 C   0  0  2  0  0  0  0  0  0  0  0  0
    1.0563  -13.3296    0.0000 C   0  0  2  0  0  0  0  0  0  0  0  0
    1.7703  -13.7430    0.0000 C   0  0  1  0  0  0  0  0  0  0  0  0
    2.4852  -13.3314    0.0000 C   0  0  2  0  0  0  0  0  0  0  0  0
    2.4863  -12.5064    0.0000 C   0  0  1  0  0  0  0  0  0  0  0  0
    1.7723  -12.0930    0.0000 O   0  0  0  0  0  0  0  0  0  0  0  0
   11.9496   -5.9394    0.0000 H   0  0  0  0  0  0  0  0  0  0  0  0
 68 58  1  1  0  0  0
 54 58  1  1  0  0  0
 56 47  1  1  0  0  0
 44 47  1  6  0  0  0
 45 36  1  1  0  0  0
 43 37  1  1  0  0  0
 42 38  1  6  0  0  0
 41 40  1  1  0  0  0
 40 39  1  0  0  0  0
 46 41  1  0  0  0  0
 42 41  1  0  0  0  0
 43 42  1  0  0  0  0
 44 43  1  0  0  0  0
 45 44  1  0  0  0  0
 46 45  1  0  0  0  0
 55 48  1  6  0  0  0
 53 49  1  6  0  0  0
 52 51  1  1  0  0  0
 51 50  1  0  0  0  0
 57 52  1  0  0  0  0
 53 52  1  0  0  0  0
 54 53  1  0  0  0  0
 55 54  1  0  0  0  0
 56 55  1  0  0  0  0
 57 56  1  0  0  0  0
 64 60  1  1  0  0  0
 60 59  1  0  0  0  0
 65 61  1  6  0  0  0
 66 62  1  1  0  0  0
 67 63  1  6  0  0  0
 69 64  1  0  0  0  0
 65 64  1  0  0  0  0
 66 65  1  0  0  0  0
 67 66  1  0  0  0  0
 68 67  1  0  0  0  0
 69 68  1  0  0  0  0
  1  2  1  1  0  0  0
  3  2  1  1  0  0  0
  3  4  1  0  0  0  0
  4  5  1  0  0  0  0
  5  6  1  0  0  0  0
  6  7  1  0  0  0  0
  7  8  1  0  0  0  0
  8  9  1  0  0  0  0
  9 10  1  0  0  0  0
 10 11  1  0  0  0  0
 11 12  1  0  0  0  0
 12 13  1  0  0  0  0
 13 14  1  0  0  0  0
 14 15  1  0  0  0  0
 15 16  1  0  0  0  0
 16 17  1  0  0  0  0
 17 18  1  0  0  0  0
  1 18  1  0  0  0  0
  1 11  1  0  0  0  0
 12 16  1  0  0  0  0
  3  8  1  0  0  0  0
  1  3  1  0  0  0  0
 16 19  1  1  0  0  0
 12 20  1  6  0  0  0
  7 21  1  0  0  0  0
  7 22  1  0  0  0  0
 24 23  1  6  0  0  0
 24 25  1  0  0  0  0
 25 26  1  0  0  0  0
 26 27  1  0  0  0  0
 27 28  1  0  0  0  0
 28 29  1  0  0  0  0
 28 30  1  0  0  0  0
 27 31  1  1  0  0  0
 15 24  1  0  0  0  0
 18 32  1  6  0  0  0
 14 33  1  1  0  0  0
  6 36  1  1  0  0  0
  8 34  1  6  0  0  0
 11 35  1  1  0  0  0
 15 70  1  6  0  0  0
M  END
>  <cdx:fragmentId>
73

$$$$
