630656.cdx
  Mrv1902 05222410192D          

 78 86  0  0  0  0            999 V2000
   13.6698   -5.8339    0.0000 C   0  0  2  0  0  0  0  0  0  0  0  0
   12.9554   -5.4214    0.0000 C   0  0  0  0  0  0  0  0  0  0  0  0
   12.9554   -6.2464    0.0000 C   0  0  1  0  0  0  0  0  0  0  0  0
   12.2409   -5.8339    0.0000 C   0  0  0  0  0  0  0  0  0  0  0  0
   11.5264   -6.2464    0.0000 C   0  0  0  0  0  0  0  0  0  0  0  0
   11.5264   -7.0714    0.0000 C   0  0  1  0  0  0  0  0  0  0  0  0
   12.2409   -7.4839    0.0000 C   0  0  0  0  0  0  0  0  0  0  0  0
   12.9554   -7.0714    0.0000 C   0  0  2  0  0  0  0  0  0  0  0  0
   13.6698   -7.4839    0.0000 C   0  0  0  0  0  0  0  0  0  0  0  0
   14.3843   -7.0714    0.0000 C   0  0  0  0  0  0  0  0  0  0  0  0
   14.3843   -6.2464    0.0000 C   0  0  1  0  0  0  0  0  0  0  0  0
   15.0988   -5.8339    0.0000 C   0  0  2  0  0  0  0  0  0  0  0  0
   15.8834   -6.0888    0.0000 C   0  0  0  0  0  0  0  0  0  0  0  0
   16.3683   -5.4214    0.0000 C   0  0  1  0  0  0  0  0  0  0  0  0
   15.8834   -4.7539    0.0000 C   0  0  1  0  0  0  0  0  0  0  0  0
   15.0988   -5.0089    0.0000 C   0  0  1  0  0  0  0  0  0  0  0  0
   14.3843   -4.5964    0.0000 C   0  0  0  0  0  0  0  0  0  0  0  0
   13.6698   -5.0089    0.0000 C   0  0  1  0  0  0  0  0  0  0  0  0
   17.1933   -5.4214    0.0000 O   0  0  0  0  0  0  0  0  0  0  0  0
   17.1933   -6.8503    0.0000 O   0  0  0  0  0  0  0  0  0  0  0  0
   17.6058   -6.1358    0.0000 C   0  0  2  0  0  0  0  0  0  0  0  0
   18.4308   -6.1358    0.0000 C   0  0  1  0  0  0  0  0  0  0  0  0
   18.8433   -6.8503    0.0000 C   0  0  2  0  0  0  0  0  0  0  0  0
   18.4308   -7.5648    0.0000 C   0  0  2  0  0  0  0  0  0  0  0  0
   17.6058   -7.5648    0.0000 C   0  0  0  0  0  0  0  0  0  0  0  0
   18.8433   -8.2793    0.0000 O   0  0  0  0  0  0  0  0  0  0  0  0
   19.6683   -6.8503    0.0000 O   0  0  0  0  0  0  0  0  0  0  0  0
   18.8433   -5.4214    0.0000 O   0  0  0  0  0  0  0  0  0  0  0  0
   15.5863   -3.3562    0.0000 C   0  0  0  0  0  0  0  0  0  0  0  0
   16.1383   -3.9693    0.0000 C   0  0  2  0  0  0  0  0  0  0  0  0
   16.9453   -3.7978    0.0000 C   0  0  0  0  0  0  0  0  0  0  0  0
   17.2002   -3.0132    0.0000 C   0  0  0  0  0  0  0  0  0  0  0  0
   18.0072   -2.8416    0.0000 C   0  0  0  0  0  0  0  0  0  0  0  0
   18.2622   -2.0570    0.0000 C   0  0  0  0  0  0  0  0  0  0  0  0
   17.7101   -1.4439    0.0000 C   0  0  0  0  0  0  0  0  0  0  0  0
   19.0691   -1.8855    0.0000 C   0  0  0  0  0  0  0  0  0  0  0  0
   15.1850   -4.1884    0.0000 C   0  0  0  0  0  0  0  0  0  0  0  0
   15.0988   -6.6589    0.0000 C   0  0  0  0  0  0  0  0  0  0  0  0
   12.6534   -8.1983    0.0000 C   0  0  0  0  0  0  0  0  0  0  0  0
   11.8284   -8.1983    0.0000 C   0  0  0  0  0  0  0  0  0  0  0  0
   12.9554   -4.5964    0.0000 O   0  0  0  0  0  0  0  0  0  0  0  0
   12.9554   -7.8964    0.0000 H   0  0  0  0  0  0  0  0  0  0  0  0
   14.3843   -5.4214    0.0000 H   0  0  0  0  0  0  0  0  0  0  0  0
    7.9541   -7.4802    0.0000 O   0  0  0  0  0  0  0  0  0  0  0  0
    7.9562   -5.8302    0.0000 O   0  0  0  0  0  0  0  0  0  0  0  0
    8.6722   -4.5937    0.0000 O   0  0  0  0  0  0  0  0  0  0  0  0
    9.3861   -5.0071    0.0000 C   0  0  0  0  0  0  0  0  0  0  0  0
   10.8119   -7.4839    0.0000 O   0  0  0  0  0  0  0  0  0  0  0  0
    9.3851   -5.8321    0.0000 C   0  0  2  0  0  0  0  0  0  0  0  0
    8.6701   -6.2437    0.0000 C   0  0  2  0  0  0  0  0  0  0  0  0
    8.6691   -7.0687    0.0000 C   0  0  1  0  0  0  0  0  0  0  0  0
    9.3830   -7.4821    0.0000 C   0  0  2  0  0  0  0  0  0  0  0  0
   10.0980   -7.0705    0.0000 C   0  0  1  0  0  0  0  0  0  0  0  0
   10.0990   -6.2455    0.0000 O   0  0  0  0  0  0  0  0  0  0  0  0
    9.3820   -8.3071    0.0000 O   0  0  0  0  0  0  0  0  0  0  0  0
    9.3799   -9.9571    0.0000 O   0  0  0  0  0  0  0  0  0  0  0  0
    6.5220   -9.9534    0.0000 O   0  0  0  0  0  0  0  0  0  0  0  0
    5.8096   -8.7159    0.0000 O   0  0  0  0  0  0  0  0  0  0  0  0
    6.5241   -8.3034    0.0000 C   0  0  0  0  0  0  0  0  0  0  0  0
    7.2380   -8.7168    0.0000 C   0  0  2  0  0  0  0  0  0  0  0  0
    7.2370   -9.5418    0.0000 C   0  0  2  0  0  0  0  0  0  0  0  0
    7.9509   -9.9552    0.0000 C   0  0  1  0  0  0  0  0  0  0  0  0
    8.6659   -9.5437    0.0000 C   0  0  2  0  0  0  0  0  0  0  0  0
    8.6670   -8.7187    0.0000 C   0  0  1  0  0  0  0  0  0  0  0  0
    7.9530   -8.3052    0.0000 O   0  0  0  0  0  0  0  0  0  0  0  0
    7.9499  -10.7802    0.0000 O   0  0  0  0  0  0  0  0  0  0  0  0
    4.3775  -11.1891    0.0000 O   0  0  0  0  0  0  0  0  0  0  0  0
    5.0920  -10.7766    0.0000 C   0  0  0  0  0  0  0  0  0  0  0  0
    5.0899  -12.4266    0.0000 O   0  0  0  0  0  0  0  0  0  0  0  0
    6.5178  -13.2534    0.0000 O   0  0  0  0  0  0  0  0  0  0  0  0
    7.9478  -12.4302    0.0000 O   0  0  0  0  0  0  0  0  0  0  0  0
    5.8059  -11.1900    0.0000 C   0  0  2  0  0  0  0  0  0  0  0  0
    5.8049  -12.0150    0.0000 C   0  0  2  0  0  0  0  0  0  0  0  0
    6.5188  -12.4284    0.0000 C   0  0  1  0  0  0  0  0  0  0  0  0
    7.2338  -12.0168    0.0000 C   0  0  2  0  0  0  0  0  0  0  0  0
    7.2349  -11.1918    0.0000 C   0  0  1  0  0  0  0  0  0  0  0  0
    6.5209  -10.7784    0.0000 O   0  0  0  0  0  0  0  0  0  0  0  0
   16.6982   -4.6249    0.0000 H   0  0  0  0  0  0  0  0  0  0  0  0
 76 66  1  1  0  0  0
 62 66  1  1  0  0  0
 64 55  1  1  0  0  0
 52 55  1  6  0  0  0
 51 44  1  1  0  0  0
 50 45  1  6  0  0  0
 49 47  1  1  0  0  0
 47 46  1  0  0  0  0
 53 48  1  1  0  0  0
 54 49  1  0  0  0  0
 50 49  1  0  0  0  0
 51 50  1  0  0  0  0
 52 51  1  0  0  0  0
 53 52  1  0  0  0  0
 54 53  1  0  0  0  0
 63 56  1  6  0  0  0
 61 57  1  6  0  0  0
 60 59  1  1  0  0  0
 59 58  1  0  0  0  0
 65 60  1  0  0  0  0
 61 60  1  0  0  0  0
 62 61  1  0  0  0  0
 63 62  1  0  0  0  0
 64 63  1  0  0  0  0
 65 64  1  0  0  0  0
 72 68  1  1  0  0  0
 68 67  1  0  0  0  0
 73 69  1  6  0  0  0
 74 70  1  1  0  0  0
 75 71  1  6  0  0  0
 77 72  1  0  0  0  0
 73 72  1  0  0  0  0
 74 73  1  0  0  0  0
 75 74  1  0  0  0  0
 76 75  1  0  0  0  0
 77 76  1  0  0  0  0
  1  2  1  1  0  0  0
  3  2  1  1  0  0  0
  3  4  1  0  0  0  0
  4  5  1  0  0  0  0
  5  6  1  0  0  0  0
  6  7  1  0  0  0  0
  7  8  1  0  0  0  0
  8  9  1  0  0  0  0
  9 10  1  0  0  0  0
 10 11  1  0  0  0  0
 11 12  1  0  0  0  0
 12 13  1  0  0  0  0
 13 14  1  0  0  0  0
 14 15  1  0  0  0  0
 15 16  1  0  0  0  0
 16 17  1  0  0  0  0
 17 18  1  0  0  0  0
  1 18  1  0  0  0  0
  1 11  1  0  0  0  0
 12 16  1  0  0  0  0
  3  8  1  0  0  0  0
  1  3  1  0  0  0  0
 20 21  1  0  0  0  0
 21 22  1  0  0  0  0
 22 23  1  0  0  0  0
 23 24  1  0  0  0  0
 24 25  1  0  0  0  0
 20 25  1  0  0  0  0
 24 26  1  1  0  0  0
 23 27  1  1  0  0  0
 22 28  1  6  0  0  0
 21 19  1  1  0  0  0
 14 19  1  1  0  0  0
 30 29  1  6  0  0  0
 30 31  1  0  0  0  0
 31 32  1  0  0  0  0
 32 33  1  0  0  0  0
 33 34  2  0  0  0  0
 34 35  1  0  0  0  0
 34 36  1  0  0  0  0
 15 30  1  0  0  0  0
 16 37  1  1  0  0  0
 12 38  1  6  0  0  0
  7 39  1  0  0  0  0
  7 40  1  0  0  0  0
 18 41  1  6  0  0  0
  6 48  1  1  0  0  0
  8 42  1  6  0  0  0
 11 43  1  1  0  0  0
 15 78  1  6  0  0  0
M  END
>  <cdx:fragmentId>
65

$$$$
