63083.cdx
  Mrv1902 05222410212D          

 26 29  0  0  0  0            999 V2000
    9.3006  -11.3377    0.0000 N   0  3  0  0  0  0  0  0  0  0  0  0
   10.0150  -10.9250    0.0000 C   0  0  0  0  0  0  0  0  0  0  0  0
   10.0152  -10.1000    0.0000 C   0  0  0  0  0  0  0  0  0  0  0  0
    9.3012   -9.6868    0.0000 C   0  0  0  0  0  0  0  0  0  0  0  0
    8.5867  -10.0993    0.0000 C   0  0  0  0  0  0  0  0  0  0  0  0
    7.8722   -9.6868    0.0000 C   0  0  0  0  0  0  0  0  0  0  0  0
    7.1578  -10.0993    0.0000 C   0  0  0  0  0  0  0  0  0  0  0  0
    7.1578  -10.9243    0.0000 C   0  0  0  0  0  0  0  0  0  0  0  0
    7.8722  -11.3368    0.0000 C   0  0  0  0  0  0  0  0  0  0  0  0
    8.5867  -10.9243    0.0000 C   0  0  2  0  0  0  0  0  0  0  0  0
    7.8722   -8.8618    0.0000 C   0  0  0  0  0  0  0  0  0  0  0  0
    8.5867   -8.4493    0.0000 C   0  0  0  0  0  0  0  0  0  0  0  0
    9.3012   -8.8618    0.0000 C   0  0  0  0  0  0  0  0  0  0  0  0
    6.4433  -11.3368    0.0000 C   0  0  0  0  0  0  0  0  0  0  0  0
    5.7288  -10.9243    0.0000 C   0  0  0  0  0  0  0  0  0  0  0  0
    5.7288  -10.0993    0.0000 C   0  0  0  0  0  0  0  0  0  0  0  0
    6.4433   -9.6868    0.0000 C   0  0  0  0  0  0  0  0  0  0  0  0
    7.1578   -8.4493    0.0000 O   0  0  0  0  0  0  0  0  0  0  0  0
    8.5867   -7.6243    0.0000 O   0  0  0  0  0  0  0  0  0  0  0  0
    8.8881  -12.0522    0.0000 C   0  0  0  0  0  0  0  0  0  0  0  0
    9.7131  -12.0522    0.0000 C   0  0  0  0  0  0  0  0  0  0  0  0
    6.4433   -8.8618    0.0000 O   0  0  0  0  0  0  0  0  0  0  0  0
    5.7288   -8.4493    0.0000 C   0  0  0  0  0  0  0  0  0  0  0  0
    5.0144   -9.6868    0.0000 O   0  0  0  0  0  0  0  0  0  0  0  0
    4.2999  -10.0993    0.0000 C   0  0  0  0  0  0  0  0  0  0  0  0
    8.5867  -11.7493    0.0000 H   0  0  0  0  0  0  0  0  0  0  0  0
  1  2  1  0  0  0  0
  2  3  1  0  0  0  0
  3  4  1  0  0  0  0
  4  5  1  0  0  0  0
  5  6  2  0  0  0  0
  6  7  1  0  0  0  0
  7  8  1  0  0  0  0
  8  9  1  0  0  0  0
  9 10  1  0  0  0  0
  1 10  1  0  0  0  0
  5 10  1  0  0  0  0
 11 12  2  0  0  0  0
 12 13  1  0  0  0  0
 13  4  2  0  0  0  0
 11  6  1  0  0  0  0
 14 15  1  0  0  0  0
 15 16  2  0  0  0  0
 16 17  1  0  0  0  0
 17  7  2  0  0  0  0
 14  8  2  0  0  0  0
 11 18  1  0  0  0  0
 12 19  1  0  0  0  0
  1 20  1  0  0  0  0
  1 21  1  0  0  0  0
 22 23  1  0  0  0  0
 17 22  1  0  0  0  0
 24 25  1  0  0  0  0
 16 24  1  0  0  0  0
 10 26  1  6  0  0  0
M  CHG  1   1   1
M  END
>  <cdx:fragmentId>
15251

$$$$
