21631052.cdx
  Mrv1902 05222410242D          

 13 13  0  0  0  0            999 V2000
    6.6249  -15.7724    0.0000 C   0  0  0  0  0  0  0  0  0  0  0  0
    6.2670  -15.0291    0.0000 C   0  0  0  0  0  0  0  0  0  0  0  0
    6.6249  -14.2858    0.0000 C   0  0  0  0  0  0  0  0  0  0  0  0
    7.4292  -14.1022    0.0000 C   0  0  1  0  0  0  0  0  0  0  0  0
    8.0742  -14.6166    0.0000 C   0  0  2  0  0  0  0  0  0  0  0  0
    8.0742  -15.4416    0.0000 C   0  0  0  0  0  0  0  0  0  0  0  0
    7.4292  -15.9560    0.0000 C   0  0  0  0  0  0  0  0  0  0  0  0
    6.1105  -16.4174    0.0000 O   0  0  0  0  0  0  0  0  0  0  0  0
    8.8992  -15.4416    0.0000 C   0  0  0  0  0  0  0  0  0  0  0  0
    8.4867  -16.1561    0.0000 C   0  0  0  0  0  0  0  0  0  0  0  0
    5.4420  -15.0291    0.0000 C   0  0  0  0  0  0  0  0  0  0  0  0
    8.7887  -14.2041    0.0000 O   0  0  0  0  0  0  0  0  0  0  0  0
    7.6128  -13.2979    0.0000 O   0  0  0  0  0  0  0  0  0  0  0  0
  1  2  1  0  0  0  0
  2  3  2  0  0  0  0
  3  4  1  0  0  0  0
  4  5  1  0  0  0  0
  5  6  1  0  0  0  0
  6  7  1  0  0  0  0
  1  7  1  0  0  0  0
  1  8  2  0  0  0  0
  6  9  1  0  0  0  0
  6 10  1  0  0  0  0
  2 11  1  0  0  0  0
  5 12  1  1  0  0  0
  4 13  1  6  0  0  0
M  END
>  <cdx:groupId>
136551

>  <cdx:fragmentId>
136515

$$$$
