6311.cdx
  Mrv1902 05222410192D          

 33 38  0  0  0  0            999 V2000
    3.4889   -9.4256    0.0000 C   0  0  0  0  0  0  0  0  0  0  0  0
    3.4889  -10.2506    0.0000 C   0  0  0  0  0  0  0  0  0  0  0  0
    4.2034  -10.6631    0.0000 C   0  0  0  0  0  0  0  0  0  0  0  0
    4.9178  -10.2506    0.0000 C   0  0  0  0  0  0  0  0  0  0  0  0
    4.9178   -9.4256    0.0000 C   0  0  0  0  0  0  0  0  0  0  0  0
    4.2034   -9.0131    0.0000 C   0  0  0  0  0  0  0  0  0  0  0  0
    5.6323  -10.6631    0.0000 C   0  0  2  0  0  0  0  0  0  0  0  0
    6.3468  -10.2506    0.0000 N   0  0  0  0  0  0  0  0  0  0  0  0
    6.3468   -9.4256    0.0000 C   0  0  1  0  0  0  0  0  0  0  0  0
    5.6323   -9.0131    0.0000 C   0  0  2  0  0  0  0  0  0  0  0  0
    7.0613   -9.0131    0.0000 C   0  0  0  0  0  0  0  0  0  0  0  0
    7.0613   -8.1881    0.0000 C   0  0  0  0  0  0  0  0  0  0  0  0
    6.3468   -7.7756    0.0000 C   0  0  1  0  0  0  0  0  0  0  0  0
    5.6323   -8.1881    0.0000 C   0  0  2  0  0  0  0  0  0  0  0  0
    7.7757   -9.4256    0.0000 C   0  0  0  0  0  0  0  0  0  0  0  0
    8.4902   -9.0131    0.0000 C   0  0  0  0  0  0  0  0  0  0  0  0
    8.4902   -8.1881    0.0000 C   0  0  0  0  0  0  0  0  0  0  0  0
    7.7757   -7.7756    0.0000 C   0  0  0  0  0  0  0  0  0  0  0  0
    2.8758  -10.8027    0.0000 O   0  0  0  0  0  0  0  0  0  0  0  0
    3.2114  -11.5563    0.0000 C   0  0  0  0  0  0  0  0  0  0  0  0
    4.0318  -11.4701    0.0000 O   0  0  0  0  0  0  0  0  0  0  0  0
    9.2748   -9.2681    0.0000 O   0  0  0  0  0  0  0  0  0  0  0  0
    9.7597   -8.6006    0.0000 C   0  0  0  0  0  0  0  0  0  0  0  0
    9.2748   -7.9332    0.0000 O   0  0  0  0  0  0  0  0  0  0  0  0
    4.9178   -8.6006    0.0000 C   0  0  0  0  0  0  0  0  0  0  0  0
    7.0613  -10.6631    0.0000 C   0  0  0  0  0  0  0  0  0  0  0  0
    5.6323  -11.4881    0.0000 C   0  0  0  0  0  0  0  0  0  0  0  0
    7.0613   -9.8381    0.0000 H   0  0  0  0  0  0  0  0  0  0  0  0
    6.3468   -6.9506    0.0000 H   0  0  0  0  0  0  0  0  0  0  0  0
    4.9178   -7.7756    0.0000 O   0  0  0  0  0  0  0  0  0  0  0  0
    6.3468  -11.9006    0.0000 C   0  0  0  0  0  0  0  0  0  0  0  0
    6.3468  -12.7256    0.0000 C   0  0  0  0  0  0  0  0  0  0  0  0
    7.0613  -11.4881    0.0000 O   0  0  0  0  0  0  0  0  0  0  0  0
  1  2  2  0  0  0  0
  2  3  1  0  0  0  0
  3  4  2  0  0  0  0
  4  5  1  0  0  0  0
  5  6  2  0  0  0  0
  6  1  1  0  0  0  0
  4  7  1  0  0  0  0
  7  8  1  0  0  0  0
  8  9  1  0  0  0  0
  9 10  1  0  0  0  0
 10  5  1  0  0  0  0
  9 11  1  0  0  0  0
 11 12  2  0  0  0  0
 12 13  1  0  0  0  0
 13 14  1  0  0  0  0
 14 10  1  0  0  0  0
 11 15  1  0  0  0  0
 15 16  2  0  0  0  0
 16 17  1  0  0  0  0
 17 18  2  0  0  0  0
 18 12  1  0  0  0  0
  2 19  1  0  0  0  0
 19 20  1  0  0  0  0
 20 21  1  0  0  0  0
 21  3  1  0  0  0  0
 16 22  1  0  0  0  0
 22 23  1  0  0  0  0
 23 24  1  0  0  0  0
 24 17  1  0  0  0  0
 10 25  1  6  0  0  0
  8 26  1  0  0  0  0
  7 27  1  6  0  0  0
  9 28  1  6  0  0  0
 13 29  1  6  0  0  0
 14 30  1  1  0  0  0
 27 31  1  0  0  0  0
 31 32  1  0  0  0  0
 31 33  2  0  0  0  0
M  END
>  <cdx:fragmentId>
5

$$$$
