631102.cdx
  Mrv1902 05222410222D          

 47 53  0  0  0  0            999 V2000
    9.7905   -6.6825    0.0000 C   0  0  2  0  0  0  0  0  0  0  0  0
    9.7905   -7.5075    0.0000 C   0  0  0  0  0  0  0  0  0  0  0  0
   10.5050   -7.9200    0.0000 C   0  0  1  0  0  0  0  0  0  0  0  0
   11.2195   -7.5075    0.0000 C   0  0  1  0  0  0  0  0  0  0  0  0
   11.2195   -6.6825    0.0000 C   0  0  0  0  0  0  0  0  0  0  0  0
   10.5050   -6.2700    0.0000 C   0  0  1  0  0  0  0  0  0  0  0  0
   10.5050   -5.4450    0.0000 C   0  0  0  0  0  0  0  0  0  0  0  0
   11.8525   -6.2975    0.0000 O   0  0  0  0  0  0  0  0  0  0  0  0
   10.5050   -7.0950    0.0000 C   0  0  2  0  0  0  0  0  0  0  0  0
    9.0761   -6.2700    0.0000 O   0  0  0  0  0  0  0  0  0  0  0  0
   11.8525   -7.8925    0.0000 O   0  0  0  0  0  0  0  0  0  0  0  0
   11.2195   -8.3325    0.0000 O   0  0  0  0  0  0  0  0  0  0  0  0
    9.9000   -7.8650    0.0000 C   0  0  0  0  0  0  0  0  0  0  0  0
    9.9000   -8.6900    0.0000 O   0  0  0  0  0  0  0  0  0  0  0  0
   11.8525   -7.0950    0.0000 C   0  0  1  0  0  0  0  0  0  0  0  0
    9.1815   -9.0955    0.0000 C   0  0  0  0  0  0  0  0  0  0  0  0
    8.4711   -8.6760    0.0000 O   0  0  0  0  0  0  0  0  0  0  0  0
    9.1734   -9.9204    0.0000 C   0  0  0  0  0  0  0  0  0  0  0  0
    9.8838  -10.3399    0.0000 C   0  0  0  0  0  0  0  0  0  0  0  0
    9.8757  -11.1649    0.0000 C   0  0  0  0  0  0  0  0  0  0  0  0
    9.1573  -11.5704    0.0000 C   0  0  0  0  0  0  0  0  0  0  0  0
    8.4469  -11.1509    0.0000 C   0  0  0  0  0  0  0  0  0  0  0  0
    8.4550  -10.3259    0.0000 C   0  0  0  0  0  0  0  0  0  0  0  0
    8.3616   -6.6825    0.0000 C   0  0  2  0  0  0  0  0  0  0  0  0
    7.6471   -6.2700    0.0000 O   0  0  0  0  0  0  0  0  0  0  0  0
    6.9326   -6.6825    0.0000 C   0  0  1  0  0  0  0  0  0  0  0  0
    6.9326   -7.5075    0.0000 C   0  0  2  0  0  0  0  0  0  0  0  0
    7.6471   -7.9200    0.0000 C   0  0  1  0  0  0  0  0  0  0  0  0
    8.3616   -7.5075    0.0000 C   0  0  1  0  0  0  0  0  0  0  0  0
    6.2182   -6.2700    0.0000 C   0  0  0  0  0  0  0  0  0  0  0  0
    7.6471   -8.7450    0.0000 O   0  0  0  0  0  0  0  0  0  0  0  0
    9.0761   -7.9200    0.0000 O   0  0  0  0  0  0  0  0  0  0  0  0
    6.2182   -7.9200    0.0000 O   0  0  0  0  0  0  0  0  0  0  0  0
    5.5037   -6.6825    0.0000 O   0  0  0  0  0  0  0  0  0  0  0  0
   10.5050   -8.7450    0.0000 H   0  0  0  0  0  0  0  0  0  0  0  0
   12.7600   -7.0675    0.0000 H   0  0  0  0  0  0  0  0  0  0  0  0
    4.7892   -6.2700    0.0000 C   0  0  0  0  0  0  0  0  0  0  0  0
    4.0748   -6.6825    0.0000 C   0  0  0  0  0  0  0  0  0  0  0  0
    4.7892   -5.4450    0.0000 O   0  0  0  0  0  0  0  0  0  0  0  0
    3.3603   -6.2700    0.0000 C   0  0  0  0  0  0  0  0  0  0  0  0
    2.6458   -6.6825    0.0000 C   0  0  0  0  0  0  0  0  0  0  0  0
    2.6458   -7.5075    0.0000 C   0  0  0  0  0  0  0  0  0  0  0  0
    3.3603   -7.9200    0.0000 C   0  0  0  0  0  0  0  0  0  0  0  0
    4.0748   -7.5075    0.0000 C   0  0  0  0  0  0  0  0  0  0  0  0
    1.9313   -7.9200    0.0000 O   0  0  0  0  0  0  0  0  0  0  0  0
    1.2169   -7.5075    0.0000 C   0  0  0  0  0  0  0  0  0  0  0  0
    9.1492  -12.3953    0.0000 O   0  0  0  0  0  0  0  0  0  0  0  0
  1  2  1  0  0  0  0
  2  3  1  0  0  0  0
  3  4  1  0  0  0  0
  4  5  1  0  0  0  0
  5  6  1  0  0  0  0
  6  1  1  0  0  0  0
  6  7  1  6  0  0  0
  6  8  1  0  0  0  0
  3  9  1  0  0  0  0
  1 10  1  1  0  0  0
  4 11  1  0  0  0  0
  4 12  1  6  0  0  0
  9  1  1  0  0  0  0
  9 13  1  1  0  0  0
 13 14  1  0  0  0  0
 11 15  1  0  0  0  0
  8 15  1  0  0  0  0
  9 15  1  0  0  0  0
 14 16  1  0  0  0  0
 16 17  2  0  0  0  0
 16 18  1  0  0  0  0
 18 19  2  0  0  0  0
 19 20  1  0  0  0  0
 20 21  2  0  0  0  0
 21 22  1  0  0  0  0
 22 23  2  0  0  0  0
 23 18  1  0  0  0  0
 24 10  1  1  0  0  0
 24 25  1  0  0  0  0
 25 26  1  0  0  0  0
 26 27  1  0  0  0  0
 27 28  1  0  0  0  0
 28 29  1  0  0  0  0
 29 24  1  0  0  0  0
 26 30  1  1  0  0  0
 28 31  1  1  0  0  0
 29 32  1  6  0  0  0
 27 33  1  6  0  0  0
 30 34  1  0  0  0  0
  3 35  1  1  0  0  0
 15 36  1  1  0  0  0
 34 37  1  0  0  0  0
 37 38  1  0  0  0  0
 37 39  2  0  0  0  0
 38 40  2  0  0  0  0
 40 41  1  0  0  0  0
 41 42  2  0  0  0  0
 42 43  1  0  0  0  0
 43 44  2  0  0  0  0
 44 38  1  0  0  0  0
 42 45  1  0  0  0  0
 45 46  1  0  0  0  0
 21 47  1  0  0  0  0
M  END
>  <cdx:fragmentId>
197

$$$$
