631108.cdx
  Mrv1902 05222410262D          

 25 27  0  0  0  0            999 V2000
    7.0136   -6.1600    0.0000 C   0  0  1  0  0  0  0  0  0  0  0  0
    7.0136   -6.9850    0.0000 O   0  0  0  0  0  0  0  0  0  0  0  0
    6.2991   -7.3975    0.0000 C   0  0  2  0  0  0  0  0  0  0  0  0
    5.5846   -6.9850    0.0000 O   0  0  0  0  0  0  0  0  0  0  0  0
    4.8701   -7.3975    0.0000 C   0  0  1  0  0  0  0  0  0  0  0  0
    4.8701   -8.2225    0.0000 C   0  0  2  0  0  0  0  0  0  0  0  0
    5.5846   -8.6350    0.0000 C   0  0  1  0  0  0  0  0  0  0  0  0
    6.2991   -8.2225    0.0000 C   0  0  1  0  0  0  0  0  0  0  0  0
    4.1557   -6.9850    0.0000 C   0  0  0  0  0  0  0  0  0  0  0  0
    5.5846   -9.4600    0.0000 O   0  0  0  0  0  0  0  0  0  0  0  0
    7.0136   -8.6350    0.0000 O   0  0  0  0  0  0  0  0  0  0  0  0
    4.1557   -8.6350    0.0000 O   0  0  0  0  0  0  0  0  0  0  0  0
    3.4412   -7.3975    0.0000 O   0  0  0  0  0  0  0  0  0  0  0  0
    7.6725   -6.7375    0.0000 C   0  0  0  0  0  0  0  0  0  0  0  0
    5.9675   -5.8025    0.0000 C   0  0  1  0  0  0  0  0  0  0  0  0
    7.7000   -4.4825    0.0000 C   0  0  0  0  0  0  0  0  0  0  0  0
    5.3630   -6.1050    0.0000 C   0  0  0  0  0  0  0  0  0  0  0  0
    5.4941   -5.1091    0.0000 C   0  0  0  0  0  0  0  0  0  0  0  0
    6.8000   -5.3631    0.0000 C   0  0  1  0  0  0  0  0  0  0  0  0
    8.2225   -5.5825    0.0000 C   0  0  0  0  0  0  0  0  0  0  0  0
    8.5250   -6.5175    0.0000 C   0  0  0  0  0  0  0  0  0  0  0  0
    7.5965   -7.4244    0.0000 C   0  0  0  0  0  0  0  0  0  0  0  0
    5.7077   -4.3122    0.0000 O   0  0  0  0  0  0  0  0  0  0  0  0
    6.5865   -4.5662    0.0000 H   0  0  0  0  0  0  0  0  0  0  0  0
    8.6350   -4.8680    0.0000 O   0  0  0  0  0  0  0  0  0  0  0  0
  1  2  1  1  0  0  0
  3  2  1  1  0  0  0
  3  4  1  0  0  0  0
  4  5  1  0  0  0  0
  5  6  1  0  0  0  0
  6  7  1  0  0  0  0
  7  8  1  0  0  0  0
  8  3  1  0  0  0  0
  5  9  1  1  0  0  0
  7 10  1  1  0  0  0
  8 11  1  6  0  0  0
  6 12  1  6  0  0  0
  9 13  1  0  0  0  0
  1 14  1  0  0  0  0
  1 15  1  0  0  0  0
  1 16  1  0  0  0  0
 15 17  1  6  0  0  0
 15 18  1  0  0  0  0
 15 19  1  0  0  0  0
 19 20  1  0  0  0  0
 20 21  1  0  0  0  0
 21 14  2  0  0  0  0
 14 22  1  0  0  0  0
 19 16  1  0  0  0  0
 18 23  1  0  0  0  0
 19 24  1  6  0  0  0
 20 25  2  0  0  0  0
M  END
>  <cdx:fragmentId>
197

$$$$
