631692.cdx
  Mrv1902 05222410252D          

 44 48  0  0  0  0            999 V2000
    5.4095   -8.6710    0.0000 C   0  0  2  0  0  0  0  0  0  0  0  0
    6.1239   -9.0835    0.0000 C   0  0  2  0  0  0  0  0  0  0  0  0
    6.1239   -9.9085    0.0000 C   0  0  0  0  0  0  0  0  0  0  0  0
    5.4095  -10.3210    0.0000 C   0  0  0  0  0  0  0  0  0  0  0  0
    4.6950   -9.9085    0.0000 C   0  0  0  0  0  0  0  0  0  0  0  0
    3.9805  -10.3210    0.0000 C   0  0  0  0  0  0  0  0  0  0  0  0
    3.2661   -9.9085    0.0000 C   0  0  0  0  0  0  0  0  0  0  0  0
    3.2661   -9.0835    0.0000 C   0  0  0  0  0  0  0  0  0  0  0  0
    3.9805   -8.6710    0.0000 C   0  0  0  0  0  0  0  0  0  0  0  0
    4.6950   -9.0835    0.0000 C   0  0  0  0  0  0  0  0  0  0  0  0
    6.8384   -8.6710    0.0000 C   0  0  0  0  0  0  0  0  0  0  0  0
    6.8384   -7.8460    0.0000 O   0  0  0  0  0  0  0  0  0  0  0  0
    7.5529   -9.0835    0.0000 N   0  0  0  0  0  0  0  0  0  0  0  0
    6.8384  -10.3210    0.0000 C   0  0  0  0  0  0  0  0  0  0  0  0
    6.8384  -11.1460    0.0000 O   0  0  0  0  0  0  0  0  0  0  0  0
    7.5529   -9.9085    0.0000 N   0  0  0  0  0  0  0  0  0  0  0  0
    8.2674  -10.3210    0.0000 C   0  0  0  0  0  0  0  0  0  0  0  0
    8.9818   -9.9085    0.0000 C   0  0  0  0  0  0  0  0  0  0  0  0
    9.6963  -10.3210    0.0000 C   0  0  0  0  0  0  0  0  0  0  0  0
   10.4108   -9.9085    0.0000 C   0  0  0  0  0  0  0  0  0  0  0  0
   11.1252  -10.3210    0.0000 C   0  0  0  0  0  0  0  0  0  0  0  0
   11.1252  -11.1460    0.0000 C   0  0  0  0  0  0  0  0  0  0  0  0
   10.4108  -11.5585    0.0000 C   0  0  0  0  0  0  0  0  0  0  0  0
    9.6963  -11.1460    0.0000 C   0  0  0  0  0  0  0  0  0  0  0  0
   11.8397  -11.5585    0.0000 O   0  0  0  0  0  0  0  0  0  0  0  0
    8.2674   -8.6710    0.0000 C   0  0  0  0  0  0  0  0  0  0  0  0
    8.9818   -9.0835    0.0000 C   0  0  0  0  0  0  0  0  0  0  0  0
    9.6963   -8.6710    0.0000 C   0  0  0  0  0  0  0  0  0  0  0  0
    9.6963   -7.8460    0.0000 C   0  0  0  0  0  0  0  0  0  0  0  0
   10.4108   -7.4335    0.0000 C   0  0  0  0  0  0  0  0  0  0  0  0
   11.1252   -7.8460    0.0000 C   0  0  0  0  0  0  0  0  0  0  0  0
   11.1252   -8.6710    0.0000 C   0  0  0  0  0  0  0  0  0  0  0  0
   10.4108   -9.0835    0.0000 C   0  0  0  0  0  0  0  0  0  0  0  0
   11.8397   -7.4335    0.0000 O   0  0  0  0  0  0  0  0  0  0  0  0
    2.5516   -8.6710    0.0000 O   0  0  0  0  0  0  0  0  0  0  0  0
    2.5516  -10.3210    0.0000 O   0  0  0  0  0  0  0  0  0  0  0  0
    5.4095   -7.8460    0.0000 C   0  0  0  0  0  0  0  0  0  0  0  0
    4.6950   -7.4335    0.0000 C   0  0  0  0  0  0  0  0  0  0  0  0
    4.6950   -6.6085    0.0000 C   0  0  0  0  0  0  0  0  0  0  0  0
    5.4095   -6.1960    0.0000 C   0  0  0  0  0  0  0  0  0  0  0  0
    6.1239   -6.6085    0.0000 C   0  0  0  0  0  0  0  0  0  0  0  0
    6.1239   -7.4335    0.0000 C   0  0  0  0  0  0  0  0  0  0  0  0
    5.4095   -5.3710    0.0000 O   0  0  0  0  0  0  0  0  0  0  0  0
    3.9805   -6.1960    0.0000 O   0  0  0  0  0  0  0  0  0  0  0  0
  1  2  1  0  0  0  0
  2  3  1  0  0  0  0
  3  4  2  0  0  0  0
  4  5  1  0  0  0  0
  5  6  1  0  0  0  0
  6  7  2  0  0  0  0
  7  8  1  0  0  0  0
  8  9  2  0  0  0  0
  9 10  1  0  0  0  0
  1 10  1  0  0  0  0
  5 10  2  0  0  0  0
 11 12  2  0  0  0  0
 11 13  1  0  0  0  0
  2 11  1  1  0  0  0
 14 15  2  0  0  0  0
 14 16  1  0  0  0  0
  3 14  1  0  0  0  0
 17 18  1  0  0  0  0
 18 19  1  0  0  0  0
 19 20  1  0  0  0  0
 20 21  2  0  0  0  0
 21 22  1  0  0  0  0
 22 23  2  0  0  0  0
 23 24  1  0  0  0  0
 19 24  2  0  0  0  0
 22 25  1  0  0  0  0
 16 17  1  0  0  0  0
 26 27  1  0  0  0  0
 27 28  1  0  0  0  0
 28 29  1  0  0  0  0
 29 30  2  0  0  0  0
 30 31  1  0  0  0  0
 31 32  2  0  0  0  0
 32 33  1  0  0  0  0
 28 33  2  0  0  0  0
 31 34  1  0  0  0  0
 13 26  1  0  0  0  0
  8 35  1  0  0  0  0
  7 36  1  0  0  0  0
 37 38  1  0  0  0  0
 38 39  2  0  0  0  0
 39 40  1  0  0  0  0
 40 41  2  0  0  0  0
 41 42  1  0  0  0  0
 37 42  2  0  0  0  0
 40 43  1  0  0  0  0
 39 44  1  0  0  0  0
  1 37  1  6  0  0  0
M  END
>  <cdx:fragmentId>
5

$$$$
