631793.cdx
  Mrv1902 05222410282D          

 27 31  0  0  0  0            999 V2000
   16.1710  -15.7983    0.0000 C   0  0  0  0  0  0  0  0  0  0  0  0
   16.5835  -15.0838    0.0000 C   0  0  0  0  0  0  0  0  0  0  0  0
   17.4085  -15.0838    0.0000 C   0  0  0  0  0  0  0  0  0  0  0  0
   17.8210  -14.3694    0.0000 C   0  0  0  0  0  0  0  0  0  0  0  0
   17.4085  -13.6549    0.0000 C   0  0  0  0  0  0  0  0  0  0  0  0
   16.5835  -13.6549    0.0000 C   0  0  0  0  0  0  0  0  0  0  0  0
   16.1710  -14.3694    0.0000 C   0  0  0  0  0  0  0  0  0  0  0  0
   14.8611  -16.4658    0.0000 O   0  0  0  0  0  0  0  0  0  0  0  0
   15.3460  -15.7983    0.0000 C   0  0  0  0  0  0  0  0  0  0  0  0
   14.8611  -15.1309    0.0000 C   0  0  0  0  0  0  0  0  0  0  0  0
   14.0765  -15.3858    0.0000 C   0  0  0  0  0  0  0  0  0  0  0  0
   14.0765  -16.2108    0.0000 C   0  0  0  0  0  0  0  0  0  0  0  0
   13.3620  -14.9733    0.0000 C   0  0  0  0  0  0  0  0  0  0  0  0
   12.6475  -15.3858    0.0000 C   0  0  0  0  0  0  0  0  0  0  0  0
   12.6475  -16.2108    0.0000 C   0  0  0  0  0  0  0  0  0  0  0  0
   13.3620  -16.6233    0.0000 C   0  0  0  0  0  0  0  0  0  0  0  0
   15.1160  -14.3463    0.0000 C   0  0  0  0  0  0  0  0  0  0  0  0
   17.4040  -16.5990    0.0000 O   0  0  0  0  0  0  0  0  0  0  0  0
   16.5835  -16.5128    0.0000 C   0  0  0  0  0  0  0  0  0  0  0  0
   16.2480  -17.2665    0.0000 C   0  0  0  0  0  0  0  0  0  0  0  0
   16.8610  -17.8185    0.0000 C   0  0  0  0  0  0  0  0  0  0  0  0
   17.5755  -17.4060    0.0000 C   0  0  0  0  0  0  0  0  0  0  0  0
   16.8610  -18.6435    0.0000 C   0  0  0  0  0  0  0  0  0  0  0  0
   17.5755  -19.0560    0.0000 C   0  0  0  0  0  0  0  0  0  0  0  0
   18.2900  -18.6435    0.0000 C   0  0  0  0  0  0  0  0  0  0  0  0
   18.2900  -17.8185    0.0000 C   0  0  0  0  0  0  0  0  0  0  0  0
   15.4410  -17.4380    0.0000 C   0  0  0  0  0  0  0  0  0  0  0  0
  1  2  1  0  0  0  0
  2  3  1  0  0  0  0
  3  4  2  0  0  0  0
  4  5  1  0  0  0  0
  5  6  2  0  0  0  0
  6  7  1  0  0  0  0
  2  7  2  0  0  0  0
  8  9  1  0  0  0  0
  9 10  2  0  0  0  0
 10 11  1  0  0  0  0
 11 12  1  0  0  0  0
  8 12  1  0  0  0  0
 13 14  1  0  0  0  0
 14 15  2  0  0  0  0
 15 16  1  0  0  0  0
 16 12  2  0  0  0  0
 13 11  2  0  0  0  0
 10 17  1  0  0  0  0
  1  9  1  0  0  0  0
 18 19  1  0  0  0  0
 19 20  2  0  0  0  0
 20 21  1  0  0  0  0
 21 22  1  0  0  0  0
 18 22  1  0  0  0  0
 23 24  1  0  0  0  0
 24 25  2  0  0  0  0
 25 26  1  0  0  0  0
 26 22  2  0  0  0  0
 23 21  2  0  0  0  0
 20 27  1  0  0  0  0
  1 19  1  0  0  0  0
M  END
>  <cdx:groupId>
10152

>  <cdx:fragmentId>
10084

$$$$
