11631807.cdx
  Mrv1902 05222410262D          

 27 29  0  0  0  0            999 V2000
    7.6252  -14.6135    0.0000 C   0  0  1  0  0  0  0  0  0  0  0  0
    8.3396  -14.2010    0.0000 C   0  0  1  0  0  0  0  0  0  0  0  0
    8.3396  -13.3760    0.0000 C   0  0  1  0  0  0  0  0  0  0  0  0
    7.6252  -12.9635    0.0000 C   0  0  0  0  0  0  0  0  0  0  0  0
    6.9107  -13.3760    0.0000 C   0  0  0  0  0  0  0  0  0  0  0  0
    6.9107  -14.2010    0.0000 O   0  0  0  0  0  0  0  0  0  0  0  0
    9.1243  -13.1211    0.0000 C   0  0  0  0  0  0  0  0  0  0  0  0
    9.6092  -13.7885    0.0000 C   0  0  1  0  0  0  0  0  0  0  0  0
    9.1243  -14.4559    0.0000 C   0  0  0  0  0  0  0  0  0  0  0  0
    7.6252  -12.1385    0.0000 C   0  0  0  0  0  0  0  0  0  0  0  0
    6.9107  -11.7260    0.0000 O   0  0  0  0  0  0  0  0  0  0  0  0
    7.6252  -15.4385    0.0000 O   0  0  0  0  0  0  0  0  0  0  0  0
    6.1962  -15.4385    0.0000 O   0  0  0  0  0  0  0  0  0  0  0  0
    6.9107  -15.8510    0.0000 C   0  0  2  0  0  0  0  0  0  0  0  0
    6.9107  -16.6760    0.0000 C   0  0  1  0  0  0  0  0  0  0  0  0
    6.1962  -17.0885    0.0000 C   0  0  2  0  0  0  0  0  0  0  0  0
    5.4818  -16.6760    0.0000 C   0  0  1  0  0  0  0  0  0  0  0  0
    5.4818  -15.8510    0.0000 C   0  0  1  0  0  0  0  0  0  0  0  0
    4.7673  -15.4385    0.0000 C   0  0  0  0  0  0  0  0  0  0  0  0
    4.0528  -15.8510    0.0000 O   0  0  0  0  0  0  0  0  0  0  0  0
    4.7673  -17.0885    0.0000 O   0  0  0  0  0  0  0  0  0  0  0  0
    6.1962  -17.9135    0.0000 O   0  0  0  0  0  0  0  0  0  0  0  0
    7.6252  -17.0885    0.0000 O   0  0  0  0  0  0  0  0  0  0  0  0
    9.3792  -15.2406    0.0000 C   0  0  0  0  0  0  0  0  0  0  0  0
   10.4342  -13.7885    0.0000 O   0  0  0  0  0  0  0  0  0  0  0  0
    8.4259  -12.5555    0.0000 H   0  0  0  0  0  0  0  0  0  0  0  0
    8.4259  -15.0215    0.0000 H   0  0  0  0  0  0  0  0  0  0  0  0
  1  2  1  0  0  0  0
  2  3  1  0  0  0  0
  3  4  1  0  0  0  0
  4  5  2  0  0  0  0
  5  6  1  0  0  0  0
  1  6  1  0  0  0  0
  7  8  1  0  0  0  0
  8  9  1  0  0  0  0
  9  2  1  0  0  0  0
  7  3  1  0  0  0  0
 10 11  2  0  0  0  0
  4 10  1  0  0  0  0
 13 14  1  0  0  0  0
 14 15  1  0  0  0  0
 15 16  1  0  0  0  0
 16 17  1  0  0  0  0
 17 18  1  0  0  0  0
 13 18  1  0  0  0  0
 19 20  1  0  0  0  0
 18 19  1  1  0  0  0
 17 21  1  6  0  0  0
 16 22  1  1  0  0  0
 15 23  1  6  0  0  0
 14 12  1  1  0  0  0
  1 12  1  6  0  0  0
  9 24  2  0  0  0  0
  8 25  1  6  0  0  0
  3 26  1  6  0  0  0
  2 27  1  6  0  0  0
M  END
>  <cdx:groupId>
77128

>  <cdx:fragmentId>
77072

$$$$
