631864.cdx
  Mrv1902 05222410232D          

 26 28  0  0  0  0            999 V2000
    7.9818   -7.2616    0.0000 C   0  0  0  0  0  0  0  0  0  0  0  0
    8.6997   -6.8551    0.0000 C   0  0  0  0  0  0  0  0  0  0  0  0
    8.7065   -6.0301    0.0000 C   0  0  0  0  0  0  0  0  0  0  0  0
    7.9955   -5.6117    0.0000 C   0  0  0  0  0  0  0  0  0  0  0  0
    7.2776   -6.0183    0.0000 C   0  0  0  0  0  0  0  0  0  0  0  0
    6.5666   -5.5998    0.0000 C   0  0  0  0  0  0  0  0  0  0  0  0
    5.8487   -6.0064    0.0000 C   0  0  2  0  0  0  0  0  0  0  0  0
    5.8419   -6.8314    0.0000 C   0  0  1  0  0  0  0  0  0  0  0  0
    6.5529   -7.2498    0.0000 C   0  0  1  0  0  0  0  0  0  0  0  0
    7.2708   -6.8432    0.0000 C   0  0  0  0  0  0  0  0  0  0  0  0
    9.4107   -7.2735    0.0000 O   0  0  0  0  0  0  0  0  0  0  0  0
    9.4244   -5.6235    0.0000 O   0  0  0  0  0  0  0  0  0  0  0  0
   10.1354   -6.0420    0.0000 C   0  0  0  0  0  0  0  0  0  0  0  0
    5.1240   -7.2379    0.0000 C   0  0  0  0  0  0  0  0  0  0  0  0
    4.4130   -6.8195    0.0000 O   0  0  0  0  0  0  0  0  0  0  0  0
    5.1377   -5.5880    0.0000 C   0  0  0  0  0  0  0  0  0  0  0  0
    4.4198   -5.9945    0.0000 O   0  0  0  0  0  0  0  0  0  0  0  0
    6.5461   -8.0748    0.0000 C   0  0  0  0  0  0  0  0  0  0  0  0
    7.2571   -8.4932    0.0000 C   0  0  0  0  0  0  0  0  0  0  0  0
    7.2502   -9.3181    0.0000 C   0  0  0  0  0  0  0  0  0  0  0  0
    6.5324   -9.7247    0.0000 C   0  0  0  0  0  0  0  0  0  0  0  0
    5.8214   -9.3063    0.0000 C   0  0  0  0  0  0  0  0  0  0  0  0
    5.8282   -8.4813    0.0000 C   0  0  0  0  0  0  0  0  0  0  0  0
    7.9613   -9.7366    0.0000 O   0  0  0  0  0  0  0  0  0  0  0  0
    8.6791   -9.3300    0.0000 C   0  0  0  0  0  0  0  0  0  0  0  0
    6.5255  -10.5497    0.0000 O   0  0  0  0  0  0  0  0  0  0  0  0
  1  2  1  0  0  0  0
  2  3  2  0  0  0  0
  3  4  1  0  0  0  0
  4  5  2  0  0  0  0
  5  6  1  0  0  0  0
  6  7  1  0  0  0  0
  7  8  1  0  0  0  0
  8  9  1  0  0  0  0
  9 10  1  0  0  0  0
  1 10  2  0  0  0  0
  5 10  1  0  0  0  0
  2 11  1  0  0  0  0
 12 13  1  0  0  0  0
  3 12  1  0  0  0  0
 14 15  1  0  0  0  0
  8 14  1  1  0  0  0
 16 17  1  0  0  0  0
  7 16  1  6  0  0  0
 18 19  1  0  0  0  0
 19 20  2  0  0  0  0
 20 21  1  0  0  0  0
 21 22  2  0  0  0  0
 22 23  1  0  0  0  0
 18 23  2  0  0  0  0
 24 25  1  0  0  0  0
 20 24  1  0  0  0  0
 21 26  1  0  0  0  0
  9 18  1  1  0  0  0
M  END
>  <cdx:fragmentId>
77139

$$$$
