632255.cdx
  Mrv1902 05222410182D          

 27 29  0  0  0  0            999 V2000
    7.7960   -7.0107    0.0000 C   0  0  0  0  0  0  0  0  0  0  0  0
    7.7960   -7.8357    0.0000 C   0  0  0  0  0  0  0  0  0  0  0  0
    7.0815   -8.2482    0.0000 C   0  0  0  0  0  0  0  0  0  0  0  0
    7.0815   -9.0732    0.0000 O   0  0  0  0  0  0  0  0  0  0  0  0
    6.3670   -7.8357    0.0000 C   0  0  0  0  0  0  0  0  0  0  0  0
    5.6526   -8.2482    0.0000 C   0  0  0  0  0  0  0  0  0  0  0  0
    4.9381   -7.8357    0.0000 C   0  0  0  0  0  0  0  0  0  0  0  0
    4.9381   -7.0107    0.0000 C   0  0  0  0  0  0  0  0  0  0  0  0
    5.6526   -6.5982    0.0000 C   0  0  0  0  0  0  0  0  0  0  0  0
    6.3670   -7.0107    0.0000 C   0  0  0  0  0  0  0  0  0  0  0  0
    7.0815   -6.5982    0.0000 O   0  0  0  0  0  0  0  0  0  0  0  0
    8.5105   -6.5982    0.0000 C   0  0  0  0  0  0  0  0  0  0  0  0
    9.2249   -7.0107    0.0000 C   0  0  0  0  0  0  0  0  0  0  0  0
    9.9394   -6.5982    0.0000 C   0  0  0  0  0  0  0  0  0  0  0  0
    9.9394   -5.7732    0.0000 C   0  0  0  0  0  0  0  0  0  0  0  0
    9.2249   -5.3607    0.0000 C   0  0  0  0  0  0  0  0  0  0  0  0
    8.5105   -5.7732    0.0000 C   0  0  0  0  0  0  0  0  0  0  0  0
   10.6539   -5.3607    0.0000 O   0  0  0  0  0  0  0  0  0  0  0  0
   11.3683   -5.7732    0.0000 C   0  0  0  0  0  0  0  0  0  0  0  0
   10.6539   -7.0107    0.0000 O   0  0  0  0  0  0  0  0  0  0  0  0
   11.3683   -6.5982    0.0000 C   0  0  0  0  0  0  0  0  0  0  0  0
    5.6526   -5.7732    0.0000 O   0  0  0  0  0  0  0  0  0  0  0  0
    4.9381   -5.3607    0.0000 C   0  0  0  0  0  0  0  0  0  0  0  0
    4.2236   -6.5982    0.0000 O   0  0  0  0  0  0  0  0  0  0  0  0
    3.5092   -7.0107    0.0000 C   0  0  0  0  0  0  0  0  0  0  0  0
    4.2236   -8.2482    0.0000 O   0  0  0  0  0  0  0  0  0  0  0  0
    5.6526   -9.0732    0.0000 O   0  0  0  0  0  0  0  0  0  0  0  0
  1  2  2  0  0  0  0
  2  3  1  0  0  0  0
  3  4  2  0  0  0  0
  3  5  1  0  0  0  0
  5  6  1  0  0  0  0
  6  7  2  0  0  0  0
  7  8  1  0  0  0  0
  8  9  2  0  0  0  0
  9 10  1  0  0  0  0
  5 10  2  0  0  0  0
 10 11  1  0  0  0  0
  1 11  1  0  0  0  0
  1 12  1  0  0  0  0
 12 13  1  0  0  0  0
 13 14  2  0  0  0  0
 14 15  1  0  0  0  0
 15 16  2  0  0  0  0
 16 17  1  0  0  0  0
 12 17  2  0  0  0  0
 18 19  1  0  0  0  0
 15 18  1  0  0  0  0
 20 21  1  0  0  0  0
 14 20  1  0  0  0  0
 22 23  1  0  0  0  0
  9 22  1  0  0  0  0
 24 25  1  0  0  0  0
  8 24  1  0  0  0  0
  7 26  1  0  0  0  0
  6 27  1  0  0  0  0
M  END
>  <cdx:fragmentId>
10162

$$$$
