6323.cdx
  Mrv1902 05222410262D          

 25 27  0  0  0  0            999 V2000
    4.4445   -5.5344    0.0000 C   0  0  0  0  0  0  0  0  0  0  0  0
    4.4445   -6.3594    0.0000 C   0  0  0  0  0  0  0  0  0  0  0  0
    5.1590   -6.7719    0.0000 C   0  0  0  0  0  0  0  0  0  0  0  0
    5.8735   -6.3594    0.0000 C   0  0  0  0  0  0  0  0  0  0  0  0
    5.8735   -5.5344    0.0000 C   0  0  0  0  0  0  0  0  0  0  0  0
    5.1590   -5.1219    0.0000 C   0  0  0  0  0  0  0  0  0  0  0  0
    6.5879   -6.7719    0.0000 C   0  0  0  0  0  0  0  0  0  0  0  0
    7.3024   -6.3594    0.0000 C   0  0  0  0  0  0  0  0  0  0  0  0
    7.3024   -5.5344    0.0000 C   0  0  0  0  0  0  0  0  0  0  0  0
    6.5879   -5.1219    0.0000 O   0  0  0  0  0  0  0  0  0  0  0  0
    8.0169   -6.7719    0.0000 C   0  0  0  0  0  0  0  0  0  0  0  0
    8.7314   -6.3594    0.0000 C   0  0  0  0  0  0  0  0  0  0  0  0
    8.7314   -5.5344    0.0000 C   0  0  0  0  0  0  0  0  0  0  0  0
    9.4458   -6.7719    0.0000 C   0  0  0  0  0  0  0  0  0  0  0  0
   10.1603   -6.3594    0.0000 C   0  0  0  0  0  0  0  0  0  0  0  0
   10.1603   -5.5344    0.0000 C   0  0  0  0  0  0  0  0  0  0  0  0
    9.4458   -5.1219    0.0000 C   0  0  0  0  0  0  0  0  0  0  0  0
    5.1590   -4.2969    0.0000 C   0  0  0  0  0  0  0  0  0  0  0  0
    3.7301   -5.1219    0.0000 O   0  0  0  0  0  0  0  0  0  0  0  0
    3.7301   -6.7719    0.0000 C   0  0  0  0  0  0  0  0  0  0  0  0
    5.1590   -7.5969    0.0000 O   0  0  0  0  0  0  0  0  0  0  0  0
    6.5879   -7.5969    0.0000 O   0  0  0  0  0  0  0  0  0  0  0  0
   10.8748   -5.1219    0.0000 O   0  0  0  0  0  0  0  0  0  0  0  0
   11.5892   -5.5344    0.0000 C   0  0  0  0  0  0  0  0  0  0  0  0
    3.0156   -6.3594    0.0000 O   0  0  0  0  0  0  0  0  0  0  0  0
  1  2  2  0  0  0  0
  2  3  1  0  0  0  0
  3  4  2  0  0  0  0
  4  5  1  0  0  0  0
  5  6  2  0  0  0  0
  6  1  1  0  0  0  0
  4  7  1  0  0  0  0
  7  8  1  0  0  0  0
  8  9  2  0  0  0  0
  9 10  1  0  0  0  0
 10  5  1  0  0  0  0
  8 11  1  1  0  0  0
 11 12  1  0  0  0  0
 12 13  1  0  0  0  0
 12 14  2  0  0  0  0
 14 15  1  0  0  0  0
 15 16  2  0  0  0  0
 16 17  1  0  0  0  0
 17 13  2  0  0  0  0
  6 18  1  0  0  0  0
  1 19  1  0  0  0  0
  2 20  1  0  0  0  0
  3 21  1  0  0  0  0
  7 22  2  0  0  0  0
 16 23  1  0  0  0  0
 23 24  1  0  0  0  0
 20 25  2  0  0  0  0
M  END
>  <cdx:fragmentId>
5

$$$$
