6326.cdx
  Mrv1902 05222410282D          

  2  1  0  0  0  0            999 V2000
    3.1721   -3.5062    0.0000 C   0  0  0  0  0  0  0  0  0  0  0  0
    3.9971   -3.5062    0.0000 C   0  0  0  0  0  0  0  0  0  0  0  0
  1  2  3  0  0  0  0
M  END
>  <cdx:groupId>
7

>  <cdx:fragmentId>
5

$$$$
