632954.cdx
  Mrv1902 05222410232D          

 40 43  0  0  0  0            999 V2000
   10.0726   -5.8266    0.0000 C   0  0  0  0  0  0  0  0  0  0  0  0
    9.8176   -6.6113    0.0000 C   0  0  0  0  0  0  0  0  0  0  0  0
    9.0107   -6.7828    0.0000 C   0  0  0  0  0  0  0  0  0  0  0  0
    8.7557   -7.5674    0.0000 C   0  0  0  0  0  0  0  0  0  0  0  0
    7.9487   -7.7389    0.0000 C   0  0  1  0  0  0  0  0  0  0  0  0
    7.3967   -7.1259    0.0000 C   0  0  0  0  0  0  0  0  0  0  0  0
    8.4586   -6.1697    0.0000 O   0  0  0  0  0  0  0  0  0  0  0  0
    9.5205   -5.2136    0.0000 C   0  0  0  0  0  0  0  0  0  0  0  0
    4.0513   -9.6035    0.0000 C   0  0  0  0  0  0  0  0  0  0  0  0
    3.3368  -10.0160    0.0000 C   0  0  0  0  0  0  0  0  0  0  0  0
    3.3368  -10.8410    0.0000 C   0  0  0  0  0  0  0  0  0  0  0  0
    4.0513  -11.2535    0.0000 C   0  0  0  0  0  0  0  0  0  0  0  0
    4.7658  -10.8410    0.0000 C   0  0  2  0  0  0  0  0  0  0  0  0
    5.4802  -11.2535    0.0000 C   0  0  0  0  0  0  0  0  0  0  0  0
    6.1947  -10.8410    0.0000 C   0  0  1  0  0  0  0  0  0  0  0  0
    6.1947  -10.0160    0.0000 C   0  0  0  0  0  0  0  0  0  0  0  0
    6.9092   -9.6035    0.0000 C   0  0  2  0  0  0  0  0  0  0  0  0
    7.6938   -9.8584    0.0000 C   0  0  2  0  0  0  0  0  0  0  0  0
    8.1787   -9.1910    0.0000 C   0  0  0  0  0  0  0  0  0  0  0  0
    7.6938   -8.5236    0.0000 C   0  0  1  0  0  0  0  0  0  0  0  0
    6.9092   -8.7785    0.0000 C   0  0  1  0  0  0  0  0  0  0  0  0
    6.1947   -8.3660    0.0000 C   0  0  0  0  0  0  0  0  0  0  0  0
    5.4802   -8.7785    0.0000 C   0  0  0  0  0  0  0  0  0  0  0  0
    5.4802   -9.6035    0.0000 C   0  0  0  0  0  0  0  0  0  0  0  0
    4.7658  -10.0160    0.0000 C   0  0  1  0  0  0  0  0  0  0  0  0
    4.7658   -8.3660    0.0000 O   0  0  0  0  0  0  0  0  0  0  0  0
    2.6224  -11.2535    0.0000 O   0  0  0  0  0  0  0  0  0  0  0  0
    6.9092  -10.4285    0.0000 C   0  0  0  0  0  0  0  0  0  0  0  0
    6.9092   -7.9535    0.0000 C   0  0  0  0  0  0  0  0  0  0  0  0
    4.7658   -9.1910    0.0000 C   0  0  0  0  0  0  0  0  0  0  0  0
    4.4638  -11.9680    0.0000 C   0  0  0  0  0  0  0  0  0  0  0  0
    3.6388  -11.9680    0.0000 C   0  0  0  0  0  0  0  0  0  0  0  0
    7.9487  -10.6431    0.0000 O   0  0  0  0  0  0  0  0  0  0  0  0
    6.9092  -11.2535    0.0000 O   0  0  0  0  0  0  0  0  0  0  0  0
   11.9414   -4.6990    0.0000 C   0  0  0  0  0  0  0  0  0  0  0  0
    4.7658  -11.6660    0.0000 H   0  0  0  0  0  0  0  0  0  0  0  0
   11.1345   -4.8705    0.0000 O   0  0  0  0  0  0  0  0  0  0  0  0
   11.4316   -6.2682    0.0000 O   0  0  0  0  0  0  0  0  0  0  0  0
   10.8795   -5.6551    0.0000 C   0  0  0  0  0  0  0  0  0  0  0  0
    8.4784   -8.2686    0.0000 H   0  0  0  0  0  0  0  0  0  0  0  0
 37 35  1  0  0  0  0
 39 37  1  0  0  0  0
 39 38  2  0  0  0  0
 39  1  1  0  0  0  0
  1  2  1  0  0  0  0
  2  3  1  0  0  0  0
  3  4  1  0  0  0  0
  4  5  1  0  0  0  0
  5  6  1  6  0  0  0
  3  7  2  0  0  0  0
  1  8  1  0  0  0  0
  9 10  1  0  0  0  0
 10 11  1  0  0  0  0
 11 12  1  0  0  0  0
 12 13  1  0  0  0  0
 13 14  1  0  0  0  0
 14 15  1  0  0  0  0
 15 16  1  0  0  0  0
 16 17  1  0  0  0  0
 17 18  1  0  0  0  0
 18 19  1  0  0  0  0
 20 19  1  0  0  0  0
 20 21  1  0  0  0  0
 17 21  1  0  0  0  0
 21 22  1  0  0  0  0
 22 23  1  0  0  0  0
 23 24  1  0  0  0  0
 16 24  2  0  0  0  0
 24 25  1  0  0  0  0
 13 25  1  0  0  0  0
  9 25  1  0  0  0  0
 23 26  2  0  0  0  0
 11 27  2  0  0  0  0
 17 28  1  6  0  0  0
 21 29  1  1  0  0  0
 25 30  1  1  0  0  0
 12 31  1  0  0  0  0
 12 32  1  0  0  0  0
 18 33  1  6  0  0  0
 15 34  1  1  0  0  0
  5 20  1  0  0  0  0
 13 36  1  6  0  0  0
 20 40  1  6  0  0  0
M  END
>  <cdx:fragmentId>
137218

$$$$
