632979.cdx
  Mrv1902 05222410252D          

 33 35  0  0  0  0            999 V2000
    8.3342   -8.9889    0.0000 C   0  0  0  0  0  0  0  0  0  0  0  0
    9.0486   -8.5764    0.0000 C   0  0  0  0  0  0  0  0  0  0  0  0
    9.7631   -8.9889    0.0000 C   0  0  0  0  0  0  0  0  0  0  0  0
   10.4776   -8.5764    0.0000 C   0  0  0  0  0  0  0  0  0  0  0  0
   11.1920   -8.9889    0.0000 C   0  0  0  0  0  0  0  0  0  0  0  0
   11.1921   -9.8139    0.0000 C   0  0  0  0  0  0  0  0  0  0  0  0
   10.4776  -10.2264    0.0000 C   0  0  0  0  0  0  0  0  0  0  0  0
    9.7631   -9.8139    0.0000 C   0  0  0  0  0  0  0  0  0  0  0  0
   11.9065   -8.5764    0.0000 O   0  0  0  0  0  0  0  0  0  0  0  0
   12.6210   -8.9889    0.0000 C   0  0  0  0  0  0  0  0  0  0  0  0
   11.9065  -10.2264    0.0000 O   0  0  0  0  0  0  0  0  0  0  0  0
    7.6197  -10.2264    0.0000 O   0  0  0  0  0  0  0  0  0  0  0  0
    4.7618  -10.2264    0.0000 O   0  0  0  0  0  0  0  0  0  0  0  0
    7.6197   -8.5764    0.0000 O   0  0  0  0  0  0  0  0  0  0  0  0
    4.0473   -8.9889    0.0000 O   0  0  0  0  0  0  0  0  0  0  0  0
    4.7618   -8.5764    0.0000 C   0  0  0  0  0  0  0  0  0  0  0  0
    5.4763   -8.9889    0.0000 C   0  0  2  0  0  0  0  0  0  0  0  0
    5.4763   -9.8139    0.0000 C   0  0  2  0  0  0  0  0  0  0  0  0
    6.1908  -10.2264    0.0000 C   0  0  1  0  0  0  0  0  0  0  0  0
    6.9052   -9.8139    0.0000 C   0  0  2  0  0  0  0  0  0  0  0  0
    6.9052   -8.9889    0.0000 C   0  0  1  0  0  0  0  0  0  0  0  0
    6.1908   -8.5764    0.0000 O   0  0  0  0  0  0  0  0  0  0  0  0
    6.1908  -11.0514    0.0000 O   0  0  0  0  0  0  0  0  0  0  0  0
    3.3329  -11.0514    0.0000 C   0  0  0  0  0  0  0  0  0  0  0  0
    3.3329  -12.7014    0.0000 O   0  0  0  0  0  0  0  0  0  0  0  0
    4.7618  -13.5264    0.0000 O   0  0  0  0  0  0  0  0  0  0  0  0
    6.1907  -12.7014    0.0000 O   0  0  0  0  0  0  0  0  0  0  0  0
    4.0473  -11.4639    0.0000 C   0  0  1  0  0  0  0  0  0  0  0  0
    4.0473  -12.2889    0.0000 C   0  0  1  0  0  0  0  0  0  0  0  0
    4.7618  -12.7014    0.0000 C   0  0  2  0  0  0  0  0  0  0  0  0
    5.4763  -12.2889    0.0000 C   0  0  2  0  0  0  0  0  0  0  0  0
    5.4763  -11.4639    0.0000 C   0  0  1  0  0  0  0  0  0  0  0  0
    4.7618  -11.0514    0.0000 O   0  0  0  0  0  0  0  0  0  0  0  0
 32 23  1  1  0  0  0
 19 23  1  1  0  0  0
 20 12  1  6  0  0  0
 18 13  1  6  0  0  0
 21 14  1  1  0  0  0
 17 16  1  1  0  0  0
 16 15  1  0  0  0  0
 22 17  1  0  0  0  0
 18 17  1  0  0  0  0
 19 18  1  0  0  0  0
 20 19  1  0  0  0  0
 21 20  1  0  0  0  0
 22 21  1  0  0  0  0
 28 24  1  6  0  0  0
 29 25  1  1  0  0  0
 30 26  1  6  0  0  0
 31 27  1  6  0  0  0
 33 28  1  0  0  0  0
 29 28  1  0  0  0  0
 30 29  1  0  0  0  0
 31 30  1  0  0  0  0
 32 31  1  0  0  0  0
 33 32  1  0  0  0  0
  1  2  1  0  0  0  0
 14  1  1  0  0  0  0
  3  4  1  0  0  0  0
  4  5  2  0  0  0  0
  5  6  1  0  0  0  0
  6  7  2  0  0  0  0
  7  8  1  0  0  0  0
  3  8  2  0  0  0  0
  9 10  1  0  0  0  0
  5  9  1  0  0  0  0
  6 11  1  0  0  0  0
  2  3  1  0  0  0  0
M  END
>  <cdx:groupId>
137551

>  <cdx:fragmentId>
137497

$$$$
