632955.cdx
  Mrv1902 05222410232D          

 40 43  0  0  0  0            999 V2000
   10.4744   -5.5241    0.0000 C   0  0  0  0  0  0  0  0  0  0  0  0
   10.2194   -6.3088    0.0000 C   0  0  0  0  0  0  0  0  0  0  0  0
    9.4124   -6.4803    0.0000 C   0  0  0  0  0  0  0  0  0  0  0  0
    9.1575   -7.2649    0.0000 C   0  0  0  0  0  0  0  0  0  0  0  0
    8.3505   -7.4364    0.0000 C   0  0  1  0  0  0  0  0  0  0  0  0
    7.7985   -6.8234    0.0000 C   0  0  0  0  0  0  0  0  0  0  0  0
    8.8604   -5.8672    0.0000 O   0  0  0  0  0  0  0  0  0  0  0  0
    9.9223   -4.9111    0.0000 C   0  0  0  0  0  0  0  0  0  0  0  0
    4.4531   -9.3010    0.0000 C   0  0  0  0  0  0  0  0  0  0  0  0
    3.7386   -9.7135    0.0000 C   0  0  0  0  0  0  0  0  0  0  0  0
    3.7386  -10.5385    0.0000 C   0  0  1  0  0  0  0  0  0  0  0  0
    4.4531  -10.9510    0.0000 C   0  0  0  0  0  0  0  0  0  0  0  0
    5.1676  -10.5385    0.0000 C   0  0  2  0  0  0  0  0  0  0  0  0
    5.8820  -10.9510    0.0000 C   0  0  0  0  0  0  0  0  0  0  0  0
    6.5965  -10.5385    0.0000 C   0  0  1  0  0  0  0  0  0  0  0  0
    6.5965   -9.7135    0.0000 C   0  0  0  0  0  0  0  0  0  0  0  0
    7.3110   -9.3010    0.0000 C   0  0  2  0  0  0  0  0  0  0  0  0
    8.0956   -9.5559    0.0000 C   0  0  0  0  0  0  0  0  0  0  0  0
    8.5805   -8.8885    0.0000 C   0  0  0  0  0  0  0  0  0  0  0  0
    8.0956   -8.2211    0.0000 C   0  0  1  0  0  0  0  0  0  0  0  0
    7.3110   -8.4760    0.0000 C   0  0  1  0  0  0  0  0  0  0  0  0
    6.5965   -8.0635    0.0000 C   0  0  0  0  0  0  0  0  0  0  0  0
    5.8820   -8.4760    0.0000 C   0  0  0  0  0  0  0  0  0  0  0  0
    5.8820   -9.3010    0.0000 C   0  0  0  0  0  0  0  0  0  0  0  0
    5.1676   -9.7135    0.0000 C   0  0  1  0  0  0  0  0  0  0  0  0
    8.3505  -10.3406    0.0000 O   0  0  0  0  0  0  0  0  0  0  0  0
    5.1676   -8.0635    0.0000 O   0  0  0  0  0  0  0  0  0  0  0  0
    7.3110  -10.1260    0.0000 C   0  0  0  0  0  0  0  0  0  0  0  0
    7.3110   -7.6510    0.0000 C   0  0  0  0  0  0  0  0  0  0  0  0
    5.1676   -8.8885    0.0000 C   0  0  0  0  0  0  0  0  0  0  0  0
    4.8656  -11.6655    0.0000 C   0  0  0  0  0  0  0  0  0  0  0  0
    4.0406  -11.6655    0.0000 C   0  0  0  0  0  0  0  0  0  0  0  0
    7.3110  -10.9510    0.0000 O   0  0  0  0  0  0  0  0  0  0  0  0
    3.0242  -10.9510    0.0000 O   0  0  0  0  0  0  0  0  0  0  0  0
   12.3432   -4.3965    0.0000 C   0  0  0  0  0  0  0  0  0  0  0  0
    5.1676  -11.3635    0.0000 H   0  0  0  0  0  0  0  0  0  0  0  0
   11.5363   -4.5680    0.0000 O   0  0  0  0  0  0  0  0  0  0  0  0
   11.8334   -5.9657    0.0000 O   0  0  0  0  0  0  0  0  0  0  0  0
   11.2813   -5.3526    0.0000 C   0  0  0  0  0  0  0  0  0  0  0  0
    8.8802   -7.9661    0.0000 H   0  0  0  0  0  0  0  0  0  0  0  0
 37 35  1  0  0  0  0
 39 37  1  0  0  0  0
 39 38  2  0  0  0  0
 39  1  1  0  0  0  0
  1  2  1  0  0  0  0
  2  3  1  0  0  0  0
  3  4  1  0  0  0  0
  4  5  1  0  0  0  0
  5  6  1  6  0  0  0
  3  7  2  0  0  0  0
  1  8  1  0  0  0  0
  9 10  1  0  0  0  0
 10 11  1  0  0  0  0
 11 12  1  0  0  0  0
 12 13  1  0  0  0  0
 13 14  1  0  0  0  0
 14 15  1  0  0  0  0
 15 16  1  0  0  0  0
 16 17  1  0  0  0  0
 17 18  1  0  0  0  0
 18 19  1  0  0  0  0
 20 19  1  0  0  0  0
 20 21  1  0  0  0  0
 17 21  1  0  0  0  0
 21 22  1  0  0  0  0
 22 23  1  0  0  0  0
 23 24  1  0  0  0  0
 16 24  2  0  0  0  0
 24 25  1  0  0  0  0
 13 25  1  0  0  0  0
  9 25  1  0  0  0  0
 18 26  2  0  0  0  0
 23 27  2  0  0  0  0
 17 28  1  6  0  0  0
 21 29  1  1  0  0  0
 25 30  1  1  0  0  0
 12 31  1  0  0  0  0
 12 32  1  0  0  0  0
 15 33  1  1  0  0  0
 11 34  1  1  0  0  0
  5 20  1  0  0  0  0
 13 36  1  6  0  0  0
 20 40  1  6  0  0  0
M  END
>  <cdx:fragmentId>
137347

$$$$
