632998.cdx
  Mrv1902 05222410222D          

 20 21  0  0  0  0            999 V2000
    8.6446  -11.4647    0.0000 C   0  0  0  0  0  0  0  0  0  0  0  0
    9.1295  -10.7973    0.0000 C   0  0  0  0  0  0  0  0  0  0  0  0
    8.6446  -10.1298    0.0000 C   0  0  1  0  0  0  0  0  0  0  0  0
    7.8600  -10.3848    0.0000 C   0  0  1  0  0  0  0  0  0  0  0  0
    7.2149   -9.8704    0.0000 C   0  0  0  0  0  0  0  0  0  0  0  0
    6.4106  -10.0540    0.0000 C   0  0  0  0  0  0  0  0  0  0  0  0
    6.0527  -10.7973    0.0000 C   0  0  0  0  0  0  0  0  0  0  0  0
    6.4106  -11.5406    0.0000 C   0  0  0  0  0  0  0  0  0  0  0  0
    7.2149  -11.7242    0.0000 C   0  0  2  0  0  0  0  0  0  0  0  0
    7.8600  -11.2098    0.0000 C   0  0  2  0  0  0  0  0  0  0  0  0
    5.2277  -10.7973    0.0000 O   0  0  0  0  0  0  0  0  0  0  0  0
    6.1977   -8.6410    0.0000 C   0  0  0  0  0  0  0  0  0  0  0  0
    5.8963   -9.4090    0.0000 C   0  0  0  0  0  0  0  0  0  0  0  0
    5.0805   -9.5319    0.0000 C   0  0  0  0  0  0  0  0  0  0  0  0
    7.7983  -12.3075    0.0000 C   0  0  0  0  0  0  0  0  0  0  0  0
    9.2577   -9.5778    0.0000 C   0  0  0  0  0  0  0  0  0  0  0  0
    7.0014  -12.5210    0.0000 O   0  0  0  0  0  0  0  0  0  0  0  0
    8.4731   -9.3229    0.0000 O   0  0  0  0  0  0  0  0  0  0  0  0
    8.0073   -9.5730    0.0000 H   0  0  0  0  0  0  0  0  0  0  0  0
    8.1460  -11.9836    0.0000 H   0  0  0  0  0  0  0  0  0  0  0  0
  1  2  1  0  0  0  0
  2  3  1  0  0  0  0
  3  4  1  0  0  0  0
  4  5  1  0  0  0  0
  5  6  1  0  0  0  0
  6  7  1  0  0  0  0
  7  8  1  0  0  0  0
  8  9  1  0  0  0  0
  9 10  1  0  0  0  0
  1 10  1  0  0  0  0
  4 10  1  0  0  0  0
  7 11  2  0  0  0  0
 12 13  1  0  0  0  0
 13 14  1  0  0  0  0
  6 13  2  0  0  0  0
  9 15  1  6  0  0  0
  3 16  1  1  0  0  0
  9 17  1  1  0  0  0
  3 18  1  6  0  0  0
  4 19  1  1  0  0  0
 10 20  1  6  0  0  0
M  END
>  <cdx:fragmentId>
2015

$$$$
