10633476.cdx
  Mrv1902 05222410222D          

 19 21  0  0  0  0            999 V2000
    8.3630   -7.6571    0.0000 O   0  0  0  0  0  0  0  0  0  0  0  0
    8.8480   -8.3245    0.0000 C   0  0  0  0  0  0  0  0  0  0  0  0
    8.3630   -8.9919    0.0000 C   0  0  2  0  0  0  0  0  0  0  0  0
    7.5784   -8.7370    0.0000 C   0  0  1  0  0  0  0  0  0  0  0  0
    6.8639   -9.1495    0.0000 C   0  0  0  0  0  0  0  0  0  0  0  0
    6.1495   -8.7370    0.0000 C   0  0  0  0  0  0  0  0  0  0  0  0
    6.1495   -7.9120    0.0000 C   0  0  1  0  0  0  0  0  0  0  0  0
    6.8639   -7.4995    0.0000 C   0  0  0  0  0  0  0  0  0  0  0  0
    7.5784   -7.9120    0.0000 C   0  0  1  0  0  0  0  0  0  0  0  0
    5.4350   -7.4995    0.0000 C   0  0  0  0  0  0  0  0  0  0  0  0
    4.7205   -7.9120    0.0000 C   0  0  0  0  0  0  0  0  0  0  0  0
    4.7205   -8.7370    0.0000 C   0  0  0  0  0  0  0  0  0  0  0  0
    5.4350   -9.1495    0.0000 C   0  0  2  0  0  0  0  0  0  0  0  0
    9.6730   -8.3245    0.0000 O   0  0  0  0  0  0  0  0  0  0  0  0
    6.1495   -7.0870    0.0000 C   0  0  0  0  0  0  0  0  0  0  0  0
    5.4350   -9.9745    0.0000 C   0  0  0  0  0  0  0  0  0  0  0  0
    8.6180   -9.7766    0.0000 C   0  0  0  0  0  0  0  0  0  0  0  0
    7.6647   -9.5575    0.0000 H   0  0  0  0  0  0  0  0  0  0  0  0
    7.6647   -7.0915    0.0000 H   0  0  0  0  0  0  0  0  0  0  0  0
  1  2  1  0  0  0  0
  2  3  1  0  0  0  0
  3  4  1  0  0  0  0
  4  5  1  0  0  0  0
  5  6  2  0  0  0  0
  6  7  1  0  0  0  0
  7  8  1  0  0  0  0
  8  9  1  0  0  0  0
  4  9  1  0  0  0  0
  1  9  1  0  0  0  0
 10 11  1  0  0  0  0
 11 12  1  0  0  0  0
 12 13  1  0  0  0  0
 13  6  1  0  0  0  0
 10  7  1  0  0  0  0
  2 14  2  0  0  0  0
  7 15  1  1  0  0  0
 13 16  1  1  0  0  0
  3 17  1  1  0  0  0
  4 18  1  6  0  0  0
  9 19  1  6  0  0  0
M  END
>  <cdx:groupId>
56063

>  <cdx:fragmentId>
56007

$$$$
