63382.cdx
  Mrv1902 05222410182D          

 11 12  0  0  0  0            999 V2000
    7.4290   -5.4976    0.0000 N   0  0  0  0  0  0  0  0  0  0  0  0
    8.1434   -5.9101    0.0000 C   0  0  0  0  0  0  0  0  0  0  0  0
    8.1434   -6.7351    0.0000 N   0  0  0  0  0  0  0  0  0  0  0  0
    7.4290   -7.1476    0.0000 C   0  0  0  0  0  0  0  0  0  0  0  0
    6.7145   -6.7351    0.0000 C   0  0  0  0  0  0  0  0  0  0  0  0
    6.0000   -7.1476    0.0000 C   0  0  0  0  0  0  0  0  0  0  0  0
    5.2856   -6.7351    0.0000 C   0  0  0  0  0  0  0  0  0  0  0  0
    5.2856   -5.9101    0.0000 C   0  0  0  0  0  0  0  0  0  0  0  0
    6.0000   -5.4976    0.0000 C   0  0  0  0  0  0  0  0  0  0  0  0
    6.7145   -5.9101    0.0000 C   0  0  0  0  0  0  0  0  0  0  0  0
    7.4290   -7.9726    0.0000 O   0  0  0  0  0  0  0  0  0  0  0  0
  1  2  2  0  0  0  0
  2  3  1  0  0  0  0
  3  4  1  0  0  0  0
  4  5  1  0  0  0  0
  5  6  1  0  0  0  0
  6  7  2  0  0  0  0
  7  8  1  0  0  0  0
  8  9  2  0  0  0  0
  9 10  1  0  0  0  0
  1 10  1  0  0  0  0
  5 10  2  0  0  0  0
  4 11  2  0  0  0  0
M  END
>  <cdx:fragmentId>
5

$$$$
