634812.cdx
  Mrv1902 05222410202D          

 34 37  0  0  0  0            999 V2000
    7.9101   -8.9285    0.0000 C   0  0  0  0  0  0  0  0  0  0  0  0
    7.9101   -9.7535    0.0000 C   0  0  0  0  0  0  0  0  0  0  0  0
    7.1956  -10.1660    0.0000 C   0  0  0  0  0  0  0  0  0  0  0  0
    6.4812   -9.7535    0.0000 C   0  0  0  0  0  0  0  0  0  0  0  0
    6.4812   -8.9285    0.0000 C   0  0  0  0  0  0  0  0  0  0  0  0
    7.1956   -8.5160    0.0000 C   0  0  0  0  0  0  0  0  0  0  0  0
    8.6246   -8.5160    0.0000 O   0  0  0  0  0  0  0  0  0  0  0  0
    7.1956   -7.6910    0.0000 C   0  0  0  0  0  0  0  0  0  0  0  0
    5.7667  -10.1660    0.0000 C   0  0  0  0  0  0  0  0  0  0  0  0
    8.6246  -10.1660    0.0000 C   0  0  0  0  0  0  0  0  0  0  0  0
    6.3706   -7.6910    0.0000 C   0  0  0  0  0  0  0  0  0  0  0  0
    8.0206   -7.6910    0.0000 C   0  0  0  0  0  0  0  0  0  0  0  0
    7.1956   -6.8660    0.0000 C   0  0  0  0  0  0  0  0  0  0  0  0
    9.3391  -10.5785    0.0000 C   0  0  0  0  0  0  0  0  0  0  0  0
    9.0371   -9.4515    0.0000 C   0  0  0  0  0  0  0  0  0  0  0  0
    8.2121  -10.8805    0.0000 C   0  0  0  0  0  0  0  0  0  0  0  0
    5.0522  -10.5785    0.0000 C   0  0  0  0  0  0  0  0  0  0  0  0
    5.3542   -9.4515    0.0000 C   0  0  0  0  0  0  0  0  0  0  0  0
    6.1792  -10.8805    0.0000 C   0  0  0  0  0  0  0  0  0  0  0  0
    7.9101   -6.4535    0.0000 C   0  0  0  0  0  0  0  0  0  0  0  0
    7.9101   -5.6285    0.0000 C   0  0  0  0  0  0  0  0  0  0  0  0
    7.1956   -5.2160    0.0000 C   0  0  0  0  0  0  0  0  0  0  0  0
    6.4812   -5.6285    0.0000 C   0  0  0  0  0  0  0  0  0  0  0  0
    6.4812   -6.4535    0.0000 C   0  0  0  0  0  0  0  0  0  0  0  0
    9.3391  -11.4035    0.0000 C   0  0  0  0  0  0  0  0  0  0  0  0
   10.0535  -11.8160    0.0000 C   0  0  0  0  0  0  0  0  0  0  0  0
   10.7680  -11.4035    0.0000 C   0  0  0  0  0  0  0  0  0  0  0  0
   10.7680  -10.5785    0.0000 C   0  0  0  0  0  0  0  0  0  0  0  0
   10.0535  -10.1660    0.0000 C   0  0  0  0  0  0  0  0  0  0  0  0
    4.3378  -10.1660    0.0000 C   0  0  0  0  0  0  0  0  0  0  0  0
    3.6233  -10.5785    0.0000 C   0  0  0  0  0  0  0  0  0  0  0  0
    3.6233  -11.4035    0.0000 C   0  0  0  0  0  0  0  0  0  0  0  0
    4.3378  -11.8160    0.0000 C   0  0  0  0  0  0  0  0  0  0  0  0
    5.0522  -11.4035    0.0000 C   0  0  0  0  0  0  0  0  0  0  0  0
  1  2  1  0  0  0  0
  2  3  2  0  0  0  0
  3  4  1  0  0  0  0
  4  5  2  0  0  0  0
  5  6  1  0  0  0  0
  1  6  2  0  0  0  0
  1  7  1  0  0  0  0
  6  8  1  0  0  0  0
  4  9  1  0  0  0  0
  2 10  1  0  0  0  0
  8 11  1  0  0  0  0
  8 12  1  0  0  0  0
  8 13  1  0  0  0  0
 10 14  1  0  0  0  0
 10 15  1  0  0  0  0
 10 16  1  0  0  0  0
  9 17  1  0  0  0  0
  9 18  1  0  0  0  0
  9 19  1  0  0  0  0
 13 20  2  0  0  0  0
 20 21  1  0  0  0  0
 21 22  2  0  0  0  0
 22 23  1  0  0  0  0
 23 24  2  0  0  0  0
 24 13  1  0  0  0  0
 14 25  2  0  0  0  0
 25 26  1  0  0  0  0
 26 27  2  0  0  0  0
 27 28  1  0  0  0  0
 28 29  2  0  0  0  0
 29 14  1  0  0  0  0
 17 30  2  0  0  0  0
 30 31  1  0  0  0  0
 31 32  2  0  0  0  0
 32 33  1  0  0  0  0
 33 34  2  0  0  0  0
 34 17  1  0  0  0  0
M  END
>  <cdx:fragmentId>
25

$$$$
