635353.cdx
  Mrv1902 05222410252D          

 70 78  0  0  0  0            999 V2000
   15.0895   -9.8236    0.0000 C   0  0  2  0  0  0  0  0  0  0  0  0
   14.3750  -10.2361    0.0000 C   0  0  2  0  0  0  0  0  0  0  0  0
   14.3750  -11.0611    0.0000 C   0  0  0  0  0  0  0  0  0  0  0  0
   13.6606  -11.4736    0.0000 C   0  0  0  0  0  0  0  0  0  0  0  0
   12.9461  -11.0611    0.0000 C   0  0  1  0  0  0  0  0  0  0  0  0
   12.2316  -11.4736    0.0000 C   0  0  0  0  0  0  0  0  0  0  0  0
   11.5171  -11.0611    0.0000 C   0  0  2  0  0  0  0  0  0  0  0  0
   11.5171  -10.2361    0.0000 C   0  0  0  0  0  0  0  0  0  0  0  0
   12.2316   -9.8236    0.0000 C   0  0  0  0  0  0  0  0  0  0  0  0
   12.9461  -10.2361    0.0000 C   0  0  2  0  0  0  0  0  0  0  0  0
   13.6606   -9.8236    0.0000 C   0  0  1  0  0  0  0  0  0  0  0  0
   13.6606   -8.9986    0.0000 C   0  0  0  0  0  0  0  0  0  0  0  0
   14.3750   -8.5861    0.0000 C   0  0  0  0  0  0  0  0  0  0  0  0
   15.0895   -8.9986    0.0000 C   0  0  2  0  0  0  0  0  0  0  0  0
   12.9461   -9.4111    0.0000 C   0  0  0  0  0  0  0  0  0  0  0  0
   12.6441  -12.1880    0.0000 C   0  0  0  0  0  0  0  0  0  0  0  0
   11.8191  -12.1880    0.0000 C   0  0  0  0  0  0  0  0  0  0  0  0
   14.3750   -9.4111    0.0000 C   0  0  0  0  0  0  0  0  0  0  0  0
   12.9461  -11.8861    0.0000 H   0  0  0  0  0  0  0  0  0  0  0  0
   13.6606  -10.6486    0.0000 H   0  0  0  0  0  0  0  0  0  0  0  0
    7.9716   -9.7779    0.0000 O   0  0  0  0  0  0  0  0  0  0  0  0
    8.6992   -8.5635    0.0000 O   0  0  0  0  0  0  0  0  0  0  0  0
    9.4136   -8.9760    0.0000 C   0  0  0  0  0  0  0  0  0  0  0  0
   10.8027  -11.4736    0.0000 O   0  0  0  0  0  0  0  0  0  0  0  0
    7.9452  -11.4277    0.0000 O   0  0  0  0  0  0  0  0  0  0  0  0
    9.4004   -9.8009    0.0000 C   0  0  2  0  0  0  0  0  0  0  0  0
    8.6794  -10.2018    0.0000 C   0  0  2  0  0  0  0  0  0  0  0  0
    8.6662  -11.0267    0.0000 C   0  0  1  0  0  0  0  0  0  0  0  0
    9.3739  -11.4506    0.0000 C   0  0  2  0  0  0  0  0  0  0  0  0
   10.0949  -11.0497    0.0000 C   0  0  1  0  0  0  0  0  0  0  0  0
   10.1082  -10.2248    0.0000 O   0  0  0  0  0  0  0  0  0  0  0  0
    9.3607  -12.2755    0.0000 O   0  0  0  0  0  0  0  0  0  0  0  0
    9.7659  -12.9941    0.0000 C   0  0  2  0  0  0  0  0  0  0  0  0
    9.3349  -13.6976    0.0000 O   0  0  0  0  0  0  0  0  0  0  0  0
    9.7286  -14.4226    0.0000 C   0  0  2  0  0  0  0  0  0  0  0  0
   10.5531  -14.4177    0.0000 C   0  0  1  0  0  0  0  0  0  0  0  0
   10.9840  -13.6878    0.0000 C   0  0  2  0  0  0  0  0  0  0  0  0
   10.5905  -12.9892    0.0000 C   0  0  1  0  0  0  0  0  0  0  0  0
    9.3089  -15.1329    0.0000 C   0  0  0  0  0  0  0  0  0  0  0  0
   11.8090  -13.6961    0.0000 O   0  0  0  0  0  0  0  0  0  0  0  0
   10.9643  -15.1329    0.0000 O   0  0  0  0  0  0  0  0  0  0  0  0
   11.0046  -12.2757    0.0000 O   0  0  0  0  0  0  0  0  0  0  0  0
   15.8040  -10.2361    0.0000 C   0  0  0  0  0  0  0  0  0  0  0  0
   16.5184   -9.8236    0.0000 O   0  0  0  0  0  0  0  0  0  0  0  0
   16.5184   -8.9986    0.0000 C   0  0  2  0  0  0  0  0  0  0  0  0
   15.8040   -8.5861    0.0000 C   0  0  2  0  0  0  0  0  0  0  0  0
   17.1315   -8.4465    0.0000 O   0  0  0  0  0  0  0  0  0  0  0  0
   16.7960   -7.6929    0.0000 C   0  0  0  0  0  0  0  0  0  0  0  0
   15.9755   -7.7791    0.0000 C   0  0  2  0  0  0  0  0  0  0  0  0
   15.2610   -7.3666    0.0000 O   0  0  0  0  0  0  0  0  0  0  0  0
   15.7620   -6.9822    0.0000 C   0  0  0  0  0  0  0  0  0  0  0  0
   17.2085   -6.9784    0.0000 C   0  0  0  0  0  0  0  0  0  0  0  0
   18.0335   -6.9784    0.0000 C   0  0  0  0  0  0  0  0  0  0  0  0
   18.4460   -6.2639    0.0000 C   0  0  0  0  0  0  0  0  0  0  0  0
   19.2710   -6.2639    0.0000 C   0  0  0  0  0  0  0  0  0  0  0  0
   18.0335   -5.5495    0.0000 C   0  0  0  0  0  0  0  0  0  0  0  0
   16.0050   -9.6525    0.0000 C   0  0  0  0  0  0  0  0  0  0  0  0
   15.0895   -8.1736    0.0000 H   0  0  0  0  0  0  0  0  0  0  0  0
   15.8040   -9.4111    0.0000 H   0  0  0  0  0  0  0  0  0  0  0  0
    7.2374  -11.0038    0.0000 C   0  0  2  0  0  0  0  0  0  0  0  0
    7.2572  -10.1790    0.0000 O   0  0  0  0  0  0  0  0  0  0  0  0
    6.5528   -9.7495    0.0000 C   0  0  1  0  0  0  0  0  0  0  0  0
    5.8286  -10.1448    0.0000 C   0  0  2  0  0  0  0  0  0  0  0  0
    5.8286  -10.9695    0.0000 C   0  0  1  0  0  0  0  0  0  0  0  0
    6.5528  -11.3990    0.0000 C   0  0  1  0  0  0  0  0  0  0  0  0
    6.5726   -8.9248    0.0000 C   0  0  0  0  0  0  0  0  0  0  0  0
    5.1118  -11.3778    0.0000 O   0  0  0  0  0  0  0  0  0  0  0  0
    5.1192   -9.7237    0.0000 O   0  0  0  0  0  0  0  0  0  0  0  0
    6.5479  -12.2240    0.0000 O   0  0  0  0  0  0  0  0  0  0  0  0
    5.8682   -8.4953    0.0000 O   0  0  0  0  0  0  0  0  0  0  0  0
 27 21  1  6  0  0  0
 26 23  1  1  0  0  0
 23 22  1  0  0  0  0
 30 24  1  1  0  0  0
 28 25  1  1  0  0  0
 31 26  1  0  0  0  0
 27 26  1  0  0  0  0
 28 27  1  0  0  0  0
 29 28  1  0  0  0  0
 30 29  1  0  0  0  0
 31 30  1  0  0  0  0
  1  2  1  0  0  0  0
  2  3  1  0  0  0  0
  3  4  1  0  0  0  0
  4  5  1  0  0  0  0
  5  6  1  0  0  0  0
  6  7  1  0  0  0  0
  7  8  1  0  0  0  0
  8  9  1  0  0  0  0
  9 10  1  0  0  0  0
 10 11  1  0  0  0  0
 11 12  1  0  0  0  0
 12 13  1  0  0  0  0
 13 14  1  0  0  0  0
  1 14  1  0  0  0  0
  2 11  1  0  0  0  0
  5 10  1  0  0  0  0
 10 15  1  1  0  0  0
  6 16  1  0  0  0  0
  6 17  1  0  0  0  0
  2 18  1  1  0  0  0
  7 24  1  1  0  0  0
  5 19  1  6  0  0  0
 11 20  1  6  0  0  0
 29 32  1  6  0  0  0
 33 32  1  1  0  0  0
 33 34  1  0  0  0  0
 34 35  1  0  0  0  0
 35 36  1  0  0  0  0
 36 37  1  0  0  0  0
 37 38  1  0  0  0  0
 38 33  1  0  0  0  0
 35 39  1  6  0  0  0
 37 40  1  6  0  0  0
 36 41  1  1  0  0  0
 38 42  1  6  0  0  0
  1 43  1  6  0  0  0
 43 44  1  0  0  0  0
 44 45  1  0  0  0  0
 45 46  1  0  0  0  0
 46 14  1  0  0  0  0
 45 47  1  1  0  0  0
 47 48  1  0  0  0  0
 48 49  1  0  0  0  0
 49 46  1  0  0  0  0
 49 50  1  1  0  0  0
 49 51  1  0  0  0  0
 48 52  1  0  0  0  0
 52 53  1  0  0  0  0
 53 54  2  0  0  0  0
 54 55  1  0  0  0  0
 54 56  1  0  0  0  0
 45 57  1  0  0  0  0
 57  1  1  0  0  0  0
 14 58  1  1  0  0  0
 46 59  1  6  0  0  0
 60 25  1  1  0  0  0
 60 61  1  0  0  0  0
 61 62  1  0  0  0  0
 62 63  1  0  0  0  0
 63 64  1  0  0  0  0
 64 65  1  0  0  0  0
 65 60  1  0  0  0  0
 62 66  1  1  0  0  0
 64 67  1  1  0  0  0
 63 68  1  6  0  0  0
 65 69  1  6  0  0  0
 66 70  1  0  0  0  0
M  END
>  <cdx:fragmentId>
256303

$$$$
