6354.cdx
  Mrv1902 05222410232D          

  3  3  0  0  0  0            999 V2000
    5.9157   -3.6985    0.0000 O   0  0  0  0  0  0  0  0  0  0  0  0
    6.3282   -2.9840    0.0000 C   0  0  0  0  0  0  0  0  0  0  0  0
    6.7407   -3.6985    0.0000 C   0  0  0  0  0  0  0  0  0  0  0  0
  1  2  1  0  0  0  0
  2  3  1  0  0  0  0
  1  3  1  0  0  0  0
M  END
>  <cdx:groupId>
11

>  <cdx:fragmentId>
5

$$$$
