635590.cdx
  Mrv1902 05222410242D          

 27 30  0  0  0  0            999 V2000
    8.9065   -9.1317    0.0000 O   0  0  0  0  0  0  0  0  0  0  0  0
    8.1920   -8.7192    0.0000 C   0  0  1  0  0  0  0  0  0  0  0  0
    7.4775   -9.1317    0.0000 C   0  0  0  0  0  0  0  0  0  0  0  0
    7.4775   -9.9567    0.0000 C   0  0  1  0  0  0  0  0  0  0  0  0
    6.7631  -10.3692    0.0000 C   0  0  1  0  0  0  0  0  0  0  0  0
    6.7631  -11.1942    0.0000 C   0  0  1  0  0  0  0  0  0  0  0  0
    7.4775  -11.6067    0.0000 C   0  0  0  0  0  0  0  0  0  0  0  0
    8.1920  -11.1942    0.0000 C   0  0  0  0  0  0  0  0  0  0  0  0
    8.1920  -10.3692    0.0000 C   0  0  2  0  0  0  0  0  0  0  0  0
    8.9065   -9.9567    0.0000 C   0  0  0  0  0  0  0  0  0  0  0  0
    6.0486  -11.6067    0.0000 C   0  0  0  0  0  0  0  0  0  0  0  0
    5.3341  -11.1942    0.0000 C   0  0  0  0  0  0  0  0  0  0  0  0
    5.3341  -10.3692    0.0000 C   0  0  0  0  0  0  0  0  0  0  0  0
    6.0486   -9.9567    0.0000 C   0  0  0  0  0  0  0  0  0  0  0  0
    6.0486  -12.4317    0.0000 C   0  0  0  0  0  0  0  0  0  0  0  0
    6.7631  -12.8442    0.0000 O   0  0  0  0  0  0  0  0  0  0  0  0
    5.3341  -12.8442    0.0000 O   0  0  0  0  0  0  0  0  0  0  0  0
    9.6210  -10.3692    0.0000 O   0  0  0  0  0  0  0  0  0  0  0  0
    7.4775  -10.7817    0.0000 C   0  0  0  0  0  0  0  0  0  0  0  0
    6.7631  -12.0192    0.0000 C   0  0  0  0  0  0  0  0  0  0  0  0
    8.6045   -6.6247    0.0000 O   0  0  0  0  0  0  0  0  0  0  0  0
    8.8595   -7.4093    0.0000 C   0  0  0  0  0  0  0  0  0  0  0  0
    8.1920   -7.8942    0.0000 C   0  0  0  0  0  0  0  0  0  0  0  0
    7.5246   -7.4093    0.0000 C   0  0  0  0  0  0  0  0  0  0  0  0
    7.7795   -6.6247    0.0000 C   0  0  0  0  0  0  0  0  0  0  0  0
    8.9065  -10.7817    0.0000 H   0  0  0  0  0  0  0  0  0  0  0  0
    6.7631   -9.5442    0.0000 H   0  0  0  0  0  0  0  0  0  0  0  0
  1  2  1  0  0  0  0
  2  3  1  0  0  0  0
  3  4  1  0  0  0  0
  4  5  1  0  0  0  0
  5  6  1  0  0  0  0
  6  7  1  0  0  0  0
  7  8  1  0  0  0  0
  8  9  1  0  0  0  0
  4  9  1  0  0  0  0
  9 10  1  0  0  0  0
  1 10  1  0  0  0  0
 11 12  2  0  0  0  0
 12 13  1  0  0  0  0
 13 14  1  0  0  0  0
 14  5  1  0  0  0  0
 11  6  1  0  0  0  0
 15 16  2  0  0  0  0
 15 17  1  0  0  0  0
 11 15  1  0  0  0  0
 10 18  2  0  0  0  0
  4 19  1  1  0  0  0
  6 20  1  6  0  0  0
 21 22  1  0  0  0  0
 22 23  2  0  0  0  0
 23 24  1  0  0  0  0
 24 25  2  0  0  0  0
 21 25  1  0  0  0  0
  2 23  1  1  0  0  0
  9 26  1  6  0  0  0
  5 27  1  6  0  0  0
M  END
>  <cdx:groupId>
108610

>  <cdx:fragmentId>
108529

$$$$
