635556.cdx
  Mrv1902 05222410242D          

 41 43  0  0  0  0            999 V2000
    9.6459   -6.0714    0.0000 C   0  0  1  0  0  0  0  0  0  0  0  0
    8.9314   -6.4839    0.0000 C   0  0  0  0  0  0  0  0  0  0  0  0
    8.9314   -7.3090    0.0000 C   0  0  2  0  0  0  0  0  0  0  0  0
    9.6459   -7.7215    0.0000 C   0  0  1  0  0  0  0  0  0  0  0  0
   10.3604   -7.3090    0.0000 C   0  0  1  0  0  0  0  0  0  0  0  0
   10.3604   -6.4839    0.0000 C   0  0  0  0  0  0  0  0  0  0  0  0
    9.6459   -5.2464    0.0000 C   0  0  0  0  0  0  0  0  0  0  0  0
    8.9314   -4.8339    0.0000 O   0  0  0  0  0  0  0  0  0  0  0  0
   10.3604   -4.8339    0.0000 O   0  0  0  0  0  0  0  0  0  0  0  0
    9.6459   -8.5465    0.0000 O   0  0  0  0  0  0  0  0  0  0  0  0
    8.9314   -8.9590    0.0000 C   0  0  0  0  0  0  0  0  0  0  0  0
    8.9314   -9.7840    0.0000 C   0  0  0  0  0  0  0  0  0  0  0  0
    8.2170  -10.1965    0.0000 C   0  0  0  0  0  0  0  0  0  0  0  0
    8.2170   -8.5465    0.0000 O   0  0  0  0  0  0  0  0  0  0  0  0
    8.2170  -11.0215    0.0000 C   0  0  0  0  0  0  0  0  0  0  0  0
    8.9314  -11.4340    0.0000 C   0  0  0  0  0  0  0  0  0  0  0  0
    8.9314  -12.2590    0.0000 C   0  0  0  0  0  0  0  0  0  0  0  0
    8.2170  -12.6715    0.0000 C   0  0  0  0  0  0  0  0  0  0  0  0
    7.5025  -12.2590    0.0000 C   0  0  0  0  0  0  0  0  0  0  0  0
    7.5025  -11.4340    0.0000 C   0  0  0  0  0  0  0  0  0  0  0  0
    6.7880  -12.6715    0.0000 O   0  0  0  0  0  0  0  0  0  0  0  0
    6.7880  -13.4965    0.0000 C   0  0  0  0  0  0  0  0  0  0  0  0
    9.6459  -12.6715    0.0000 O   0  0  0  0  0  0  0  0  0  0  0  0
    9.6459  -13.4965    0.0000 C   0  0  0  0  0  0  0  0  0  0  0  0
    8.2170  -13.4965    0.0000 O   0  0  0  0  0  0  0  0  0  0  0  0
   11.0748   -7.7215    0.0000 O   0  0  0  0  0  0  0  0  0  0  0  0
    8.9314   -5.6589    0.0000 O   0  0  0  0  0  0  0  0  0  0  0  0
    8.2170   -7.7215    0.0000 O   0  0  0  0  0  0  0  0  0  0  0  0
   10.3604   -4.0089    0.0000 C   0  0  0  0  0  0  0  0  0  0  0  0
    4.6446   -9.7840    0.0000 O   0  0  0  0  0  0  0  0  0  0  0  0
    3.2157   -8.9590    0.0000 O   0  0  0  0  0  0  0  0  0  0  0  0
    4.6446   -7.3090    0.0000 C   0  0  0  0  0  0  0  0  0  0  0  0
    3.9301   -7.7215    0.0000 C   0  0  0  0  0  0  0  0  0  0  0  0
    3.9301   -8.5465    0.0000 C   0  0  0  0  0  0  0  0  0  0  0  0
    4.6446   -8.9590    0.0000 C   0  0  0  0  0  0  0  0  0  0  0  0
    5.3591   -8.5465    0.0000 C   0  0  0  0  0  0  0  0  0  0  0  0
    5.3591   -7.7215    0.0000 C   0  0  0  0  0  0  0  0  0  0  0  0
    7.5025   -6.4840    0.0000 O   0  0  0  0  0  0  0  0  0  0  0  0
    6.0735   -7.3090    0.0000 C   0  0  0  0  0  0  0  0  0  0  0  0
    6.7880   -7.7215    0.0000 C   0  0  0  0  0  0  0  0  0  0  0  0
    7.5025   -7.3090    0.0000 C   0  0  0  0  0  0  0  0  0  0  0  0
 39 37  1  0  0  0  0
 35 30  1  0  0  0  0
 34 31  1  0  0  0  0
 37 32  2  0  0  0  0
 33 32  1  0  0  0  0
 34 33  2  0  0  0  0
 35 34  1  0  0  0  0
 36 35  2  0  0  0  0
 37 36  1  0  0  0  0
 41 38  2  0  0  0  0
 40 39  2  0  0  0  0
 41 40  1  0  0  0  0
  1  2  1  0  0  0  0
  2  3  1  0  0  0  0
  3  4  1  0  0  0  0
  4  5  1  0  0  0  0
  5  6  1  0  0  0  0
  1  6  1  0  0  0  0
  7  8  2  0  0  0  0
  7  9  1  0  0  0  0
  1  7  1  0  0  0  0
 11 12  1  0  0  0  0
 12 13  2  0  0  0  0
 11 14  2  0  0  0  0
 15 16  1  0  0  0  0
 16 17  2  0  0  0  0
 17 18  1  0  0  0  0
 18 19  2  0  0  0  0
 19 20  1  0  0  0  0
 15 20  2  0  0  0  0
 21 22  1  0  0  0  0
 19 21  1  0  0  0  0
 23 24  1  0  0  0  0
 17 23  1  0  0  0  0
 18 25  1  0  0  0  0
 13 15  1  0  0  0  0
 10 11  1  0  0  0  0
  4 10  1  1  0  0  0
  5 26  1  1  0  0  0
  1 27  1  1  0  0  0
 28 41  1  0  0  0  0
  3 28  1  6  0  0  0
  9 29  1  0  0  0  0
M  END
>  <cdx:fragmentId>
77257

$$$$
