21635746.cdx
  Mrv1902 05222410232D          

 56 62  0  0  0  0            999 V2000
   11.5417   -4.9668    0.0000 O   0  0  0  0  0  0  0  0  0  0  0  0
   10.9896   -5.5799    0.0000 C   0  0  1  0  0  0  0  0  0  0  0  0
   10.2360   -5.2444    0.0000 C   0  0  0  0  0  0  0  0  0  0  0  0
   10.3222   -4.4239    0.0000 C   0  0  0  0  0  0  0  0  0  0  0  0
   11.1292   -4.2524    0.0000 C   0  0  0  0  0  0  0  0  0  0  0  0
    9.5215   -5.6569    0.0000 O   0  0  0  0  0  0  0  0  0  0  0  0
   12.2796   -3.3696    0.0000 C   0  0  0  0  0  0  0  0  0  0  0  0
   11.4647   -3.4987    0.0000 C   0  0  0  0  0  0  0  0  0  0  0  0
   10.9798   -2.8312    0.0000 C   0  0  0  0  0  0  0  0  0  0  0  0
   11.5417   -6.1930    0.0000 C   0  0  0  0  0  0  0  0  0  0  0  0
    7.0922   -7.4445    0.0000 C   0  0  0  0  0  0  0  0  0  0  0  0
    6.3777   -7.8570    0.0000 C   0  0  0  0  0  0  0  0  0  0  0  0
    6.3777   -8.6820    0.0000 C   0  0  2  0  0  0  0  0  0  0  0  0
    7.0922   -9.0945    0.0000 C   0  0  0  0  0  0  0  0  0  0  0  0
    7.8067   -8.6820    0.0000 C   0  0  0  0  0  0  0  0  0  0  0  0
    8.5211   -9.0945    0.0000 C   0  0  0  0  0  0  0  0  0  0  0  0
    9.2356   -8.6820    0.0000 C   0  0  0  0  0  0  0  0  0  0  0  0
    9.2356   -7.8570    0.0000 C   0  0  1  0  0  0  0  0  0  0  0  0
    9.9501   -7.4445    0.0000 C   0  0  2  0  0  0  0  0  0  0  0  0
   10.7347   -7.6994    0.0000 C   0  0  0  0  0  0  0  0  0  0  0  0
   11.2196   -7.0320    0.0000 C   0  0  2  0  0  0  0  0  0  0  0  0
   10.7347   -6.3645    0.0000 C   0  0  1  0  0  0  0  0  0  0  0  0
    9.9501   -6.6195    0.0000 C   0  0  1  0  0  0  0  0  0  0  0  0
    9.2356   -6.2070    0.0000 C   0  0  0  0  0  0  0  0  0  0  0  0
    8.5211   -6.6195    0.0000 C   0  0  0  0  0  0  0  0  0  0  0  0
    8.5211   -7.4445    0.0000 C   0  0  1  0  0  0  0  0  0  0  0  0
    7.8067   -7.8570    0.0000 C   0  0  2  0  0  0  0  0  0  0  0  0
    7.8067   -6.2070    0.0000 O   0  0  0  0  0  0  0  0  0  0  0  0
    9.9501   -8.2695    0.0000 C   0  0  0  0  0  0  0  0  0  0  0  0
   10.0363   -5.7990    0.0000 C   0  0  0  0  0  0  0  0  0  0  0  0
    8.5211   -8.2695    0.0000 C   0  0  0  0  0  0  0  0  0  0  0  0
    7.5047   -9.8090    0.0000 C   0  0  0  0  0  0  0  0  0  0  0  0
    6.6797   -9.8090    0.0000 C   0  0  0  0  0  0  0  0  0  0  0  0
   12.0446   -7.0320    0.0000 O   0  0  0  0  0  0  0  0  0  0  0  0
    5.6633   -9.0945    0.0000 O   0  0  0  0  0  0  0  0  0  0  0  0
    4.2343   -9.0945    0.0000 O   0  0  0  0  0  0  0  0  0  0  0  0
    4.9488   -8.6820    0.0000 C   0  0  2  0  0  0  0  0  0  0  0  0
    4.9488   -7.8570    0.0000 C   0  0  1  0  0  0  0  0  0  0  0  0
    4.2343   -7.4445    0.0000 C   0  0  2  0  0  0  0  0  0  0  0  0
    3.5198   -7.8570    0.0000 C   0  0  1  0  0  0  0  0  0  0  0  0
    3.5198   -8.6820    0.0000 C   0  0  0  0  0  0  0  0  0  0  0  0
    5.6633   -7.4445    0.0000 O   0  0  0  0  0  0  0  0  0  0  0  0
    4.9488   -6.2070    0.0000 O   0  0  0  0  0  0  0  0  0  0  0  0
    5.6633   -6.6195    0.0000 C   0  0  2  0  0  0  0  0  0  0  0  0
    6.3777   -6.2070    0.0000 C   0  0  1  0  0  0  0  0  0  0  0  0
    6.3777   -5.3820    0.0000 C   0  0  1  0  0  0  0  0  0  0  0  0
    5.6633   -4.9695    0.0000 C   0  0  2  0  0  0  0  0  0  0  0  0
    4.9488   -5.3820    0.0000 C   0  0  2  0  0  0  0  0  0  0  0  0
    4.2343   -4.9695    0.0000 C   0  0  0  0  0  0  0  0  0  0  0  0
    5.6633   -4.1445    0.0000 O   0  0  0  0  0  0  0  0  0  0  0  0
    7.0922   -4.9695    0.0000 O   0  0  0  0  0  0  0  0  0  0  0  0
    7.0922   -6.6195    0.0000 O   0  0  0  0  0  0  0  0  0  0  0  0
    2.8054   -7.4445    0.0000 O   0  0  0  0  0  0  0  0  0  0  0  0
    4.2343   -6.6195    0.0000 O   0  0  0  0  0  0  0  0  0  0  0  0
    9.2356   -7.0320    0.0000 H   0  0  0  0  0  0  0  0  0  0  0  0
    7.8067   -7.0320    0.0000 H   0  0  0  0  0  0  0  0  0  0  0  0
  1  2  1  0  0  0  0
  2  3  1  0  0  0  0
  3  4  1  0  0  0  0
  4  5  2  0  0  0  0
  1  5  1  0  0  0  0
  3  6  2  0  0  0  0
  7  8  1  0  0  0  0
  8  9  1  0  0  0  0
  5  8  1  0  0  0  0
  2 10  1  6  0  0  0
 11 12  1  0  0  0  0
 12 13  1  0  0  0  0
 13 14  1  0  0  0  0
 14 15  1  0  0  0  0
 15 16  2  0  0  0  0
 16 17  1  0  0  0  0
 17 18  1  0  0  0  0
 18 19  1  0  0  0  0
 19 20  1  0  0  0  0
 20 21  1  0  0  0  0
 22 21  1  1  0  0  0
 22 23  1  0  0  0  0
 19 23  1  0  0  0  0
 23 24  1  0  0  0  0
 24 25  1  0  0  0  0
 25 26  1  0  0  0  0
 18 26  1  0  0  0  0
 26 27  1  0  0  0  0
 15 27  1  0  0  0  0
 11 27  1  0  0  0  0
 25 28  2  0  0  0  0
 19 29  1  6  0  0  0
 23 30  1  1  0  0  0
 26 31  1  1  0  0  0
 14 32  1  0  0  0  0
 14 33  1  0  0  0  0
 21 34  1  6  0  0  0
 36 37  1  0  0  0  0
 37 38  1  0  0  0  0
 38 39  1  0  0  0  0
 39 40  1  0  0  0  0
 40 41  1  0  0  0  0
 36 41  1  0  0  0  0
 43 44  1  0  0  0  0
 44 45  1  0  0  0  0
 45 46  1  0  0  0  0
 46 47  1  0  0  0  0
 47 48  1  0  0  0  0
 43 48  1  0  0  0  0
 48 49  1  1  0  0  0
 47 50  1  6  0  0  0
 46 51  1  1  0  0  0
 45 52  1  1  0  0  0
 44 42  1  6  0  0  0
 38 42  1  1  0  0  0
 40 53  1  1  0  0  0
 39 54  1  6  0  0  0
 37 35  1  6  0  0  0
 13 35  1  6  0  0  0
  2 22  1  0  0  0  0
 18 55  1  1  0  0  0
 27 56  1  6  0  0  0
M  END
>  <cdx:groupId>
398

>  <cdx:fragmentId>
247

$$$$
