636089.cdx
  Mrv1902 05222410252D          

 36 39  0  0  0  0            999 V2000
    9.7066   -7.5422    0.0000 C   0  0  0  0  0  0  0  0  0  0  0  0
    9.4517   -8.3268    0.0000 C   0  0  0  0  0  0  0  0  0  0  0  0
    8.6447   -8.4984    0.0000 C   0  0  1  0  0  0  0  0  0  0  0  0
    8.0927   -7.8853    0.0000 C   0  0  0  0  0  0  0  0  0  0  0  0
    4.7473  -10.3629    0.0000 C   0  0  0  0  0  0  0  0  0  0  0  0
    4.0328  -10.7754    0.0000 C   0  0  0  0  0  0  0  0  0  0  0  0
    4.0328  -11.6004    0.0000 C   0  0  0  0  0  0  0  0  0  0  0  0
    4.7473  -12.0129    0.0000 C   0  0  0  0  0  0  0  0  0  0  0  0
    5.4617  -11.6004    0.0000 C   0  0  2  0  0  0  0  0  0  0  0  0
    6.1762  -12.0129    0.0000 C   0  0  0  0  0  0  0  0  0  0  0  0
    6.8907  -11.6004    0.0000 C   0  0  1  0  0  0  0  0  0  0  0  0
    6.8907  -10.7754    0.0000 C   0  0  0  0  0  0  0  0  0  0  0  0
    7.6051  -10.3629    0.0000 C   0  0  2  0  0  0  0  0  0  0  0  0
    8.3898  -10.6179    0.0000 C   0  0  0  0  0  0  0  0  0  0  0  0
    8.8747   -9.9504    0.0000 C   0  0  0  0  0  0  0  0  0  0  0  0
    8.3898   -9.2830    0.0000 C   0  0  1  0  0  0  0  0  0  0  0  0
    7.6051   -9.5379    0.0000 C   0  0  1  0  0  0  0  0  0  0  0  0
    6.8907   -9.1254    0.0000 C   0  0  0  0  0  0  0  0  0  0  0  0
    6.1762   -9.5379    0.0000 C   0  0  0  0  0  0  0  0  0  0  0  0
    6.1762  -10.3629    0.0000 C   0  0  0  0  0  0  0  0  0  0  0  0
    5.4617  -10.7754    0.0000 C   0  0  1  0  0  0  0  0  0  0  0  0
    8.6447  -11.4025    0.0000 O   0  0  0  0  0  0  0  0  0  0  0  0
    5.4617   -9.1254    0.0000 O   0  0  0  0  0  0  0  0  0  0  0  0
    3.3183  -12.0129    0.0000 O   0  0  0  0  0  0  0  0  0  0  0  0
    7.6914  -11.1834    0.0000 C   0  0  0  0  0  0  0  0  0  0  0  0
    7.6914   -8.7175    0.0000 C   0  0  0  0  0  0  0  0  0  0  0  0
    5.4617   -9.9504    0.0000 C   0  0  0  0  0  0  0  0  0  0  0  0
    5.1598  -12.7274    0.0000 C   0  0  0  0  0  0  0  0  0  0  0  0
    4.3348  -12.7274    0.0000 C   0  0  0  0  0  0  0  0  0  0  0  0
    7.6051  -12.0129    0.0000 O   0  0  0  0  0  0  0  0  0  0  0  0
   11.5755   -6.4145    0.0000 C   0  0  0  0  0  0  0  0  0  0  0  0
    5.4617  -12.4254    0.0000 H   0  0  0  0  0  0  0  0  0  0  0  0
   10.7685   -6.5861    0.0000 O   0  0  0  0  0  0  0  0  0  0  0  0
   11.0656   -7.9838    0.0000 O   0  0  0  0  0  0  0  0  0  0  0  0
   10.5136   -7.3707    0.0000 C   0  0  0  0  0  0  0  0  0  0  0  0
    9.1744   -9.0281    0.0000 H   0  0  0  0  0  0  0  0  0  0  0  0
 33 31  1  0  0  0  0
 35 33  1  0  0  0  0
 35 34  2  0  0  0  0
 35  1  1  0  0  0  0
  1  2  1  0  0  0  0
  2  3  1  0  0  0  0
  3  4  1  6  0  0  0
  5  6  1  0  0  0  0
  6  7  1  0  0  0  0
  7  8  1  0  0  0  0
  8  9  1  0  0  0  0
  9 10  1  0  0  0  0
 10 11  1  0  0  0  0
 11 12  1  0  0  0  0
 12 13  1  0  0  0  0
 13 14  1  0  0  0  0
 14 15  1  0  0  0  0
 16 15  1  0  0  0  0
 16 17  1  0  0  0  0
 13 17  1  0  0  0  0
 17 18  1  0  0  0  0
 18 19  1  0  0  0  0
 19 20  1  0  0  0  0
 12 20  2  0  0  0  0
 20 21  1  0  0  0  0
  9 21  1  0  0  0  0
  5 21  1  0  0  0  0
 14 22  2  0  0  0  0
 19 23  2  0  0  0  0
  7 24  2  0  0  0  0
 13 25  1  6  0  0  0
 17 26  1  1  0  0  0
 21 27  1  1  0  0  0
  8 28  1  0  0  0  0
  8 29  1  0  0  0  0
 11 30  1  1  0  0  0
  3 16  1  0  0  0  0
  9 32  1  6  0  0  0
 16 36  1  6  0  0  0
M  END
>  <cdx:fragmentId>
137710

$$$$
