636085.cdx
  Mrv1902 05222410212D          

 40 43  0  0  0  0            999 V2000
   10.1001   -6.6516    0.0000 C   0  0  0  0  0  0  0  0  0  0  0  0
    9.8451   -7.4363    0.0000 C   0  0  0  0  0  0  0  0  0  0  0  0
    9.0382   -7.6078    0.0000 C   0  0  0  0  0  0  0  0  0  0  0  0
    8.7832   -8.3924    0.0000 C   0  0  0  0  0  0  0  0  0  0  0  0
    7.9762   -8.5639    0.0000 C   0  0  1  0  0  0  0  0  0  0  0  0
    7.4242   -7.9509    0.0000 C   0  0  0  0  0  0  0  0  0  0  0  0
    8.4861   -6.9947    0.0000 O   0  0  0  0  0  0  0  0  0  0  0  0
    9.5480   -6.0386    0.0000 C   0  0  0  0  0  0  0  0  0  0  0  0
    4.0788  -10.4285    0.0000 C   0  0  0  0  0  0  0  0  0  0  0  0
    3.3643  -10.8410    0.0000 C   0  0  0  0  0  0  0  0  0  0  0  0
    3.3643  -11.6660    0.0000 C   0  0  0  0  0  0  0  0  0  0  0  0
    4.0788  -12.0785    0.0000 C   0  0  0  0  0  0  0  0  0  0  0  0
    4.7933  -11.6660    0.0000 C   0  0  2  0  0  0  0  0  0  0  0  0
    5.5077  -12.0785    0.0000 C   0  0  0  0  0  0  0  0  0  0  0  0
    6.2222  -11.6660    0.0000 C   0  0  0  0  0  0  0  0  0  0  0  0
    6.2222  -10.8410    0.0000 C   0  0  0  0  0  0  0  0  0  0  0  0
    6.9367  -10.4285    0.0000 C   0  0  2  0  0  0  0  0  0  0  0  0
    7.7213  -10.6834    0.0000 C   0  0  2  0  0  0  0  0  0  0  0  0
    8.2062  -10.0160    0.0000 C   0  0  0  0  0  0  0  0  0  0  0  0
    7.7213   -9.3486    0.0000 C   0  0  1  0  0  0  0  0  0  0  0  0
    6.9367   -9.6035    0.0000 C   0  0  1  0  0  0  0  0  0  0  0  0
    6.2222   -9.1910    0.0000 C   0  0  0  0  0  0  0  0  0  0  0  0
    5.5077   -9.6035    0.0000 C   0  0  0  0  0  0  0  0  0  0  0  0
    5.5077  -10.4285    0.0000 C   0  0  0  0  0  0  0  0  0  0  0  0
    4.7933  -10.8410    0.0000 C   0  0  1  0  0  0  0  0  0  0  0  0
    4.7933   -9.1910    0.0000 O   0  0  0  0  0  0  0  0  0  0  0  0
    6.9367  -12.0785    0.0000 O   0  0  0  0  0  0  0  0  0  0  0  0
    2.6499  -12.0785    0.0000 O   0  0  0  0  0  0  0  0  0  0  0  0
    6.9367  -11.2535    0.0000 C   0  0  0  0  0  0  0  0  0  0  0  0
    6.9367   -8.7785    0.0000 C   0  0  0  0  0  0  0  0  0  0  0  0
    4.7933  -10.0160    0.0000 C   0  0  0  0  0  0  0  0  0  0  0  0
    4.4913  -12.7930    0.0000 C   0  0  0  0  0  0  0  0  0  0  0  0
    3.6663  -12.7930    0.0000 C   0  0  0  0  0  0  0  0  0  0  0  0
    7.9762  -11.4681    0.0000 O   0  0  0  0  0  0  0  0  0  0  0  0
   11.9689   -5.5240    0.0000 C   0  0  0  0  0  0  0  0  0  0  0  0
    4.7933  -12.4910    0.0000 H   0  0  0  0  0  0  0  0  0  0  0  0
   11.1620   -5.6955    0.0000 O   0  0  0  0  0  0  0  0  0  0  0  0
   11.4591   -7.0932    0.0000 O   0  0  0  0  0  0  0  0  0  0  0  0
   10.9070   -6.4801    0.0000 C   0  0  0  0  0  0  0  0  0  0  0  0
    8.5059   -9.0936    0.0000 H   0  0  0  0  0  0  0  0  0  0  0  0
 37 35  1  0  0  0  0
 39 37  1  0  0  0  0
 39 38  2  0  0  0  0
 39  1  1  0  0  0  0
  1  2  1  0  0  0  0
  2  3  1  0  0  0  0
  3  4  1  0  0  0  0
  4  5  1  0  0  0  0
  5  6  1  6  0  0  0
  3  7  2  0  0  0  0
  1  8  1  0  0  0  0
  9 10  1  0  0  0  0
 10 11  1  0  0  0  0
 11 12  1  0  0  0  0
 12 13  1  0  0  0  0
 13 14  1  0  0  0  0
 14 15  1  0  0  0  0
 15 16  1  0  0  0  0
 16 17  1  0  0  0  0
 17 18  1  0  0  0  0
 18 19  1  0  0  0  0
 20 19  1  0  0  0  0
 20 21  1  0  0  0  0
 17 21  1  0  0  0  0
 21 22  1  0  0  0  0
 22 23  1  0  0  0  0
 23 24  1  0  0  0  0
 16 24  2  0  0  0  0
 24 25  1  0  0  0  0
 13 25  1  0  0  0  0
  9 25  1  0  0  0  0
 23 26  2  0  0  0  0
 15 27  2  0  0  0  0
 11 28  2  0  0  0  0
 17 29  1  6  0  0  0
 21 30  1  1  0  0  0
 25 31  1  1  0  0  0
 12 32  1  0  0  0  0
 12 33  1  0  0  0  0
 18 34  1  6  0  0  0
  5 20  1  0  0  0  0
 13 36  1  6  0  0  0
 20 40  1  6  0  0  0
M  END
>  <cdx:fragmentId>
137587

$$$$
