6361.cdx
  Mrv1902 05222410212D          

 26 28  0  0  0  0            999 V2000
    3.8808   -6.4556    0.0000 C   0  0  0  0  0  0  0  0  0  0  0  0
    3.8808   -7.2806    0.0000 C   0  0  0  0  0  0  0  0  0  0  0  0
    4.5952   -7.6931    0.0000 C   0  0  0  0  0  0  0  0  0  0  0  0
    5.3097   -7.2806    0.0000 C   0  0  0  0  0  0  0  0  0  0  0  0
    5.3097   -6.4556    0.0000 C   0  0  0  0  0  0  0  0  0  0  0  0
    4.5952   -6.0431    0.0000 C   0  0  0  0  0  0  0  0  0  0  0  0
    6.0242   -7.6931    0.0000 C   0  0  0  0  0  0  0  0  0  0  0  0
    6.7387   -7.2806    0.0000 C   0  0  0  0  0  0  0  0  0  0  0  0
    6.7387   -6.4556    0.0000 C   0  0  2  0  0  0  0  0  0  0  0  0
    6.0242   -6.0431    0.0000 O   0  0  0  0  0  0  0  0  0  0  0  0
    7.4531   -6.0431    0.0000 C   0  0  0  0  0  0  0  0  0  0  0  0
    7.4531   -5.2181    0.0000 C   0  0  0  0  0  0  0  0  0  0  0  0
    8.1676   -6.4556    0.0000 C   0  0  0  0  0  0  0  0  0  0  0  0
    8.8821   -6.0431    0.0000 C   0  0  0  0  0  0  0  0  0  0  0  0
    8.8821   -5.2181    0.0000 C   0  0  0  0  0  0  0  0  0  0  0  0
    8.1676   -4.8056    0.0000 C   0  0  0  0  0  0  0  0  0  0  0  0
    9.5965   -4.8056    0.0000 O   0  0  0  0  0  0  0  0  0  0  0  0
    6.0242   -8.5181    0.0000 O   0  0  0  0  0  0  0  0  0  0  0  0
    3.1663   -6.0431    0.0000 O   0  0  0  0  0  0  0  0  0  0  0  0
    4.5952   -8.5181    0.0000 O   0  0  0  0  0  0  0  0  0  0  0  0
    9.5965   -6.4556    0.0000 O   0  0  0  0  0  0  0  0  0  0  0  0
    3.1663   -7.6931    0.0000 C   0  0  0  0  0  0  0  0  0  0  0  0
    3.1663   -8.5181    0.0000 C   0  0  0  0  0  0  0  0  0  0  0  0
    2.4518   -8.9306    0.0000 C   0  0  0  0  0  0  0  0  0  0  0  0
    1.7374   -8.5181    0.0000 C   0  0  0  0  0  0  0  0  0  0  0  0
    2.4518   -9.7556    0.0000 C   0  0  0  0  0  0  0  0  0  0  0  0
  1  2  2  0  0  0  0
  2  3  1  0  0  0  0
  3  4  2  0  0  0  0
  4  5  1  0  0  0  0
  5  6  2  0  0  0  0
  6  1  1  0  0  0  0
  4  7  1  0  0  0  0
  7  8  1  0  0  0  0
  8  9  1  0  0  0  0
  9 10  1  0  0  0  0
 10  5  1  0  0  0  0
  9 11  1  6  0  0  0
 11 12  1  0  0  0  0
 11 13  2  0  0  0  0
 13 14  1  0  0  0  0
 14 15  2  0  0  0  0
 15 16  1  0  0  0  0
 16 12  2  0  0  0  0
 15 17  1  0  0  0  0
  7 18  2  0  0  0  0
  1 19  1  0  0  0  0
  3 20  1  0  0  0  0
 14 21  1  0  0  0  0
  2 22  1  0  0  0  0
 22 23  1  0  0  0  0
 23 24  2  0  0  0  0
 24 25  1  0  0  0  0
 24 26  1  0  0  0  0
M  END
>  <cdx:fragmentId>
5

$$$$
