636282.cdx
  Mrv1902 05222410222D          

 67 74  0  0  0  0            999 V2000
    4.7706   -6.5260    0.0000 O   0  0  0  0  0  0  0  0  0  0  0  0
    4.0561   -6.9385    0.0000 C   0  0  2  0  0  0  0  0  0  0  0  0
    3.3417   -6.5260    0.0000 C   0  0  1  0  0  0  0  0  0  0  0  0
    3.3417   -5.7010    0.0000 C   0  0  1  0  0  0  0  0  0  0  0  0
    4.0561   -5.2885    0.0000 C   0  0  2  0  0  0  0  0  0  0  0  0
    4.7706   -5.7010    0.0000 C   0  0  2  0  0  0  0  0  0  0  0  0
    2.6272   -6.9385    0.0000 O   0  0  0  0  0  0  0  0  0  0  0  0
    2.6272   -5.2885    0.0000 O   0  0  0  0  0  0  0  0  0  0  0  0
    4.0561   -4.4635    0.0000 O   0  0  0  0  0  0  0  0  0  0  0  0
    5.4851   -5.2885    0.0000 C   0  0  0  0  0  0  0  0  0  0  0  0
    4.0561   -7.7635    0.0000 O   0  0  0  0  0  0  0  0  0  0  0  0
    5.4851   -9.4135    0.0000 O   0  0  0  0  0  0  0  0  0  0  0  0
    4.7706   -9.0010    0.0000 C   0  0  1  0  0  0  0  0  0  0  0  0
    4.7706   -8.1760    0.0000 C   0  0  2  0  0  0  0  0  0  0  0  0
    5.4851   -7.7635    0.0000 C   0  0  1  0  0  0  0  0  0  0  0  0
    6.1995   -8.1760    0.0000 C   0  0  2  0  0  0  0  0  0  0  0  0
    6.1995   -9.0010    0.0000 C   0  0  2  0  0  0  0  0  0  0  0  0
    4.0561   -9.4135    0.0000 C   0  0  0  0  0  0  0  0  0  0  0  0
    3.3417   -9.0010    0.0000 O   0  0  0  0  0  0  0  0  0  0  0  0
    1.9127   -9.0010    0.0000 O   0  0  0  0  0  0  0  0  0  0  0  0
    2.6272   -9.4135    0.0000 C   0  0  2  0  0  0  0  0  0  0  0  0
    2.6272  -10.2385    0.0000 C   0  0  1  0  0  0  0  0  0  0  0  0
    1.9127  -10.6510    0.0000 C   0  0  2  0  0  0  0  0  0  0  0  0
    1.1982  -10.2385    0.0000 C   0  0  1  0  0  0  0  0  0  0  0  0
    1.1982   -9.4135    0.0000 C   0  0  1  0  0  0  0  0  0  0  0  0
    0.4838   -9.0010    0.0000 C   0  0  0  0  0  0  0  0  0  0  0  0
    0.4838  -10.6510    0.0000 O   0  0  0  0  0  0  0  0  0  0  0  0
    1.9127  -11.4760    0.0000 O   0  0  0  0  0  0  0  0  0  0  0  0
    3.3417  -10.6510    0.0000 O   0  0  0  0  0  0  0  0  0  0  0  0
    6.9140   -7.7635    0.0000 O   0  0  0  0  0  0  0  0  0  0  0  0
    5.4851   -6.9385    0.0000 O   0  0  0  0  0  0  0  0  0  0  0  0
    6.9140   -9.4135    0.0000 O   0  0  0  0  0  0  0  0  0  0  0  0
    8.3429   -7.7635    0.0000 C   0  0  0  0  0  0  0  0  0  0  0  0
    7.6285   -8.1760    0.0000 C   0  0  0  0  0  0  0  0  0  0  0  0
    7.6285   -9.0010    0.0000 C   0  0  1  0  0  0  0  0  0  0  0  0
    8.3429   -9.4135    0.0000 C   0  0  2  0  0  0  0  0  0  0  0  0
    9.0574   -9.0010    0.0000 C   0  0  2  0  0  0  0  0  0  0  0  0
    9.7719   -9.4135    0.0000 C   0  0  0  0  0  0  0  0  0  0  0  0
   10.4864   -9.0010    0.0000 C   0  0  0  0  0  0  0  0  0  0  0  0
   10.4864   -8.1760    0.0000 C   0  0  1  0  0  0  0  0  0  0  0  0
   11.2008   -7.7635    0.0000 C   0  0  2  0  0  0  0  0  0  0  0  0
   11.9153   -8.1760    0.0000 C   0  0  0  0  0  0  0  0  0  0  0  0
   12.6298   -7.7635    0.0000 C   0  0  1  0  0  0  0  0  0  0  0  0
   12.6298   -6.9385    0.0000 C   0  0  1  0  0  0  0  0  0  0  0  0
   13.3442   -6.5260    0.0000 C   0  0  0  0  0  0  0  0  0  0  0  0
   13.3442   -5.7010    0.0000 C   0  0  0  0  0  0  0  0  0  0  0  0
   12.6298   -5.2885    0.0000 C   0  0  1  0  0  0  0  0  0  0  0  0
   11.9153   -5.7010    0.0000 C   0  0  0  0  0  0  0  0  0  0  0  0
   11.9153   -6.5260    0.0000 C   0  0  1  0  0  0  0  0  0  0  0  0
   11.2008   -6.9385    0.0000 C   0  0  0  0  0  0  0  0  0  0  0  0
   10.4864   -6.5260    0.0000 C   0  0  0  0  0  0  0  0  0  0  0  0
    9.7719   -6.9385    0.0000 C   0  0  0  0  0  0  0  0  0  0  0  0
    9.7719   -7.7635    0.0000 C   0  0  0  0  0  0  0  0  0  0  0  0
    9.0574   -8.1760    0.0000 C   0  0  1  0  0  0  0  0  0  0  0  0
    9.0574   -7.3510    0.0000 C   0  0  0  0  0  0  0  0  0  0  0  0
   12.2173   -4.5740    0.0000 C   0  0  0  0  0  0  0  0  0  0  0  0
   13.0423   -4.5740    0.0000 C   0  0  0  0  0  0  0  0  0  0  0  0
   11.2008   -8.5885    0.0000 C   0  0  0  0  0  0  0  0  0  0  0  0
   10.4864   -7.3510    0.0000 C   0  0  0  0  0  0  0  0  0  0  0  0
    8.7554  -10.1279    0.0000 C   0  0  0  0  0  0  0  0  0  0  0  0
    7.9304  -10.1279    0.0000 C   0  0  0  0  0  0  0  0  0  0  0  0
   13.3442   -7.3510    0.0000 C   0  0  0  0  0  0  0  0  0  0  0  0
   14.0587   -6.9385    0.0000 O   0  0  0  0  0  0  0  0  0  0  0  0
   13.3442   -8.1760    0.0000 O   0  0  0  0  0  0  0  0  0  0  0  0
    0.4838   -8.1760    0.0000 O   0  0  0  0  0  0  0  0  0  0  0  0
    9.0574   -9.8260    0.0000 H   0  0  0  0  0  0  0  0  0  0  0  0
   11.9153   -7.3510    0.0000 H   0  0  0  0  0  0  0  0  0  0  0  0
  1  2  1  0  0  0  0
  2  3  1  0  0  0  0
  3  4  1  0  0  0  0
  4  5  1  0  0  0  0
  5  6  1  0  0  0  0
  1  6  1  0  0  0  0
  3  7  1  6  0  0  0
  4  8  1  6  0  0  0
  5  9  1  1  0  0  0
  6 10  1  6  0  0  0
 12 13  1  0  0  0  0
 13 14  1  0  0  0  0
 14 15  1  0  0  0  0
 15 16  1  0  0  0  0
 16 17  1  0  0  0  0
 12 17  1  0  0  0  0
 20 21  1  0  0  0  0
 21 22  1  0  0  0  0
 22 23  1  0  0  0  0
 23 24  1  0  0  0  0
 24 25  1  0  0  0  0
 20 25  1  0  0  0  0
 25 26  1  1  0  0  0
 24 27  1  6  0  0  0
 23 28  1  1  0  0  0
 22 29  1  6  0  0  0
 21 19  1  1  0  0  0
 18 19  1  0  0  0  0
 13 18  1  6  0  0  0
 16 30  1  1  0  0  0
 15 31  1  6  0  0  0
 33 34  1  0  0  0  0
 34 35  1  0  0  0  0
 35 36  1  0  0  0  0
 36 37  1  0  0  0  0
 37 38  1  0  0  0  0
 38 39  1  0  0  0  0
 39 40  1  0  0  0  0
 40 41  1  0  0  0  0
 41 42  1  0  0  0  0
 42 43  1  0  0  0  0
 43 44  1  0  0  0  0
 44 45  1  0  0  0  0
 45 46  1  0  0  0  0
 46 47  1  0  0  0  0
 47 48  1  0  0  0  0
 48 49  1  0  0  0  0
 44 49  1  0  0  0  0
 49 50  1  0  0  0  0
 41 50  1  0  0  0  0
 50 51  2  0  0  0  0
 51 52  1  0  0  0  0
 52 53  2  0  0  0  0
 40 53  1  0  0  0  0
 53 54  1  0  0  0  0
 37 54  1  0  0  0  0
 33 54  1  0  0  0  0
 54 55  1  1  0  0  0
 47 56  1  1  0  0  0
 47 57  1  6  0  0  0
 41 58  1  6  0  0  0
 40 59  1  1  0  0  0
 36 60  1  6  0  0  0
 36 61  1  1  0  0  0
 62 63  1  0  0  0  0
 44 62  1  1  0  0  0
 43 64  1  1  0  0  0
 35 32  1  1  0  0  0
 17 32  1  6  0  0  0
 14 11  1  1  0  0  0
  2 11  1  1  0  0  0
 26 65  1  0  0  0  0
 37 66  1  6  0  0  0
 49 67  1  1  0  0  0
M  END
>  <cdx:fragmentId>
138146

$$$$
