6363.cdx
  Mrv1902 05222410212D          

  4  3  0  0  0  0            999 V2000
    8.2935   -6.5107    0.0000 C   0  0  0  0  0  0  0  0  0  0  0  0
    7.5790   -6.0982    0.0000 C   0  0  0  0  0  0  0  0  0  0  0  0
    6.8645   -6.5107    0.0000 C   0  0  0  0  0  0  0  0  0  0  0  0
    7.5790   -5.2732    0.0000 N   0  0  0  0  0  0  0  0  0  0  0  0
  1  2  1  0  0  0  0
  2  3  1  0  0  0  0
  2  4  1  0  0  0  0
M  END
>  <cdx:fragmentId>
5

$$$$
