636462.cdx
  Mrv1902 05222410242D          

 17 19  0  0  0  0            999 V2000
    5.6758   -7.1174    0.0000 C   0  0  0  0  0  0  0  0  0  0  0  0
    5.6758   -6.2924    0.0000 C   0  0  0  0  0  0  0  0  0  0  0  0
    6.3903   -5.8799    0.0000 C   0  0  0  0  0  0  0  0  0  0  0  0
    7.1048   -6.2924    0.0000 C   0  0  0  0  0  0  0  0  0  0  0  0
    7.1048   -7.1174    0.0000 C   0  0  0  0  0  0  0  0  0  0  0  0
    6.3903   -7.5299    0.0000 O   0  0  0  0  0  0  0  0  0  0  0  0
    7.8192   -7.5299    0.0000 C   0  0  0  0  0  0  0  0  0  0  0  0
    8.5337   -7.1174    0.0000 C   0  0  0  0  0  0  0  0  0  0  0  0
    8.5337   -6.2924    0.0000 C   0  0  0  0  0  0  0  0  0  0  0  0
    7.8192   -5.8799    0.0000 C   0  0  0  0  0  0  0  0  0  0  0  0
    9.8033   -6.7049    0.0000 O   0  0  0  0  0  0  0  0  0  0  0  0
    9.3183   -6.0375    0.0000 C   0  0  0  0  0  0  0  0  0  0  0  0
    9.3183   -7.3724    0.0000 C   0  0  0  0  0  0  0  0  0  0  0  0
    9.5733   -5.2529    0.0000 O   0  0  0  0  0  0  0  0  0  0  0  0
    5.2633   -7.8319    0.0000 C   0  0  0  0  0  0  0  0  0  0  0  0
    4.8508   -7.1174    0.0000 C   0  0  0  0  0  0  0  0  0  0  0  0
    7.8192   -5.0549    0.0000 O   0  0  0  0  0  0  0  0  0  0  0  0
  1  2  1  0  0  0  0
  2  3  2  0  0  0  0
  3  4  1  0  0  0  0
  4  5  1  0  0  0  0
  5  6  1  0  0  0  0
  1  6  1  0  0  0  0
  7  8  1  0  0  0  0
  8  9  2  0  0  0  0
  9 10  1  0  0  0  0
  4 10  2  0  0  0  0
  5  7  2  0  0  0  0
 11 12  1  0  0  0  0
 11 13  1  0  0  0  0
  9 12  1  0  0  0  0
  8 13  1  0  0  0  0
 12 14  2  0  0  0  0
  1 15  1  0  0  0  0
  1 16  1  0  0  0  0
 10 17  1  0  0  0  0
M  END
>  <cdx:fragmentId>
10466

$$$$
