636458.cdx
  Mrv1902 05222410252D          

 18 19  0  0  0  0            999 V2000
    5.3905   -8.3600    0.0000 C   0  0  0  0  0  0  0  0  0  0  0  0
    5.3905   -9.1850    0.0000 C   0  0  0  0  0  0  0  0  0  0  0  0
    6.1050   -9.5975    0.0000 C   0  0  0  0  0  0  0  0  0  0  0  0
    6.8195   -9.1850    0.0000 C   0  0  0  0  0  0  0  0  0  0  0  0
    6.8195   -8.3600    0.0000 C   0  0  0  0  0  0  0  0  0  0  0  0
    6.1050   -7.9475    0.0000 C   0  0  0  0  0  0  0  0  0  0  0  0
    7.5339   -9.5975    0.0000 C   0  0  0  0  0  0  0  0  0  0  0  0
    8.2484   -9.1850    0.0000 C   0  0  0  0  0  0  0  0  0  0  0  0
    8.2484   -8.3600    0.0000 C   0  0  0  0  0  0  0  0  0  0  0  0
    7.5339   -7.9475    0.0000 C   0  0  0  0  0  0  0  0  0  0  0  0
    9.0330   -9.4399    0.0000 C   0  0  0  0  0  0  0  0  0  0  0  0
    9.5180   -8.7725    0.0000 C   0  0  0  0  0  0  0  0  0  0  0  0
    9.0330   -8.1051    0.0000 O   0  0  0  0  0  0  0  0  0  0  0  0
    7.2320   -9.0745    0.0000 C   0  0  0  0  0  0  0  0  0  0  0  0
    6.1050  -10.4225    0.0000 C   0  0  0  0  0  0  0  0  0  0  0  0
    9.2880  -10.2246    0.0000 C   0  0  0  0  0  0  0  0  0  0  0  0
    6.4070   -8.4705    0.0000 H   0  0  0  0  0  0  0  0  0  0  0  0
    5.8915   -7.1506    0.0000 H   0  0  0  0  0  0  0  0  0  0  0  0
  1  2  1  0  0  0  0
  2  3  1  0  0  0  0
  3  4  2  0  0  0  0
  5  6  2  0  0  0  0
  6  1  1  0  0  0  0
  4  7  1  0  0  0  0
  7  8  1  0  0  0  0
  8  9  2  0  0  0  0
  9 10  1  0  0  0  0
 10  5  1  0  0  0  0
  8 11  1  0  0  0  0
 11 12  2  0  0  0  0
 12 13  1  0  0  0  0
 13  9  1  0  0  0  0
  5 14  1  0  0  0  0
  3 15  1  0  0  0  0
 11 16  1  0  0  0  0
  4 17  1  0  0  0  0
  6 18  1  0  0  0  0
M  END
>  <cdx:fragmentId>
10488

$$$$
