636442.cdx
  Mrv1902 05222410222D          

 19 21  0  0  0  0            999 V2000
    9.1198   -7.3367    0.0000 C   0  0  0  0  0  0  0  0  0  0  0  0
    9.6047   -6.6693    0.0000 C   0  0  0  0  0  0  0  0  0  0  0  0
    9.1198   -6.0019    0.0000 C   0  0  2  0  0  0  0  0  0  0  0  0
    8.3351   -6.2568    0.0000 C   0  0  1  0  0  0  0  0  0  0  0  0
    7.6901   -5.7424    0.0000 C   0  0  1  0  0  0  0  0  0  0  0  0
    6.8858   -5.9260    0.0000 C   0  0  1  0  0  0  0  0  0  0  0  0
    6.5279   -6.6693    0.0000 C   0  0  0  0  0  0  0  0  0  0  0  0
    6.8858   -7.4126    0.0000 C   0  0  0  0  0  0  0  0  0  0  0  0
    7.6901   -7.5962    0.0000 C   0  0  0  0  0  0  0  0  0  0  0  0
    8.3351   -7.0818    0.0000 C   0  0  0  0  0  0  0  0  0  0  0  0
    7.1290   -5.1377    0.0000 C   0  0  0  0  0  0  0  0  0  0  0  0
    6.3714   -8.0576    0.0000 O   0  0  0  0  0  0  0  0  0  0  0  0
    9.3747   -5.2172    0.0000 C   0  0  0  0  0  0  0  0  0  0  0  0
    7.8737   -8.4005    0.0000 C   0  0  0  0  0  0  0  0  0  0  0  0
    6.5678   -4.5329    0.0000 C   0  0  0  0  0  0  0  0  0  0  0  0
    7.3722   -4.3493    0.0000 C   0  0  0  0  0  0  0  0  0  0  0  0
    6.1178   -5.6246    0.0000 H   0  0  0  0  0  0  0  0  0  0  0  0
    8.4784   -5.4443    0.0000 H   0  0  0  0  0  0  0  0  0  0  0  0
    8.1377   -5.0494    0.0000 H   0  0  0  0  0  0  0  0  0  0  0  0
  1  2  1  0  0  0  0
  2  3  1  0  0  0  0
  3  4  1  0  0  0  0
  4  5  1  0  0  0  0
  5  6  1  0  0  0  0
  6  7  1  0  0  0  0
  7  8  1  0  0  0  0
  8  9  1  0  0  0  0
  9 10  2  0  0  0  0
  1 10  1  0  0  0  0
  4 10  1  0  0  0  0
 11  5  1  0  0  0  0
 11  6  1  0  0  0  0
  8 12  2  0  0  0  0
  3 13  1  6  0  0  0
  9 14  1  0  0  0  0
 11 15  1  0  0  0  0
 11 16  1  0  0  0  0
  6 17  1  6  0  0  0
  4 18  1  1  0  0  0
  5 19  1  6  0  0  0
M  END
>  <cdx:fragmentId>
10368

$$$$
