636516.cdx
  Mrv1902 05222410242D          

 37 41  0  0  0  0            999 V2000
   10.1437   -8.0031    0.0000 C   0  0  0  0  0  0  0  0  0  0  0  0
    4.4279   -9.6531    0.0000 C   0  0  1  0  0  0  0  0  0  0  0  0
    3.7135  -10.0656    0.0000 O   0  0  0  0  0  0  0  0  0  0  0  0
    4.4279   -8.8281    0.0000 C   0  0  0  0  0  0  0  0  0  0  0  0
    5.1424   -8.4156    0.0000 C   0  0  0  0  0  0  0  0  0  0  0  0
    5.1424  -10.0656    0.0000 C   0  0  2  0  0  0  0  0  0  0  0  0
    5.5549  -10.7800    0.0000 C   0  0  0  0  0  0  0  0  0  0  0  0
    4.7299  -10.7800    0.0000 C   0  0  0  0  0  0  0  0  0  0  0  0
    5.8569   -9.6531    0.0000 C   0  0  2  0  0  0  0  0  0  0  0  0
    6.5713  -10.0656    0.0000 C   0  0  0  0  0  0  0  0  0  0  0  0
    7.2858   -9.6531    0.0000 C   0  0  0  0  0  0  0  0  0  0  0  0
    7.2858   -8.8281    0.0000 C   0  0  1  0  0  0  0  0  0  0  0  0
    7.2858   -8.0031    0.0000 C   0  0  0  0  0  0  0  0  0  0  0  0
    8.0003   -8.4156    0.0000 C   0  0  2  0  0  0  0  0  0  0  0  0
    8.0003   -9.2406    0.0000 C   0  0  0  0  0  0  0  0  0  0  0  0
    8.7148   -8.8281    0.0000 C   0  0  0  0  0  0  0  0  0  0  0  0
    9.4292   -8.4156    0.0000 C   0  0  0  0  0  0  0  0  0  0  0  0
    9.4292   -7.5906    0.0000 C   0  0  2  0  0  0  0  0  0  0  0  0
   10.1437   -7.1781    0.0000 C   0  0  0  0  0  0  0  0  0  0  0  0
   10.1437   -6.3531    0.0000 C   0  0  0  0  0  0  0  0  0  0  0  0
    9.4292   -5.9406    0.0000 C   0  0  1  0  0  0  0  0  0  0  0  0
    9.4292   -5.1156    0.0000 C   0  0  0  0  0  0  0  0  0  0  0  0
    8.7148   -6.3531    0.0000 C   0  0  2  0  0  0  0  0  0  0  0  0
    8.0003   -5.9406    0.0000 C   0  0  0  0  0  0  0  0  0  0  0  0
    8.7148   -7.1781    0.0000 C   0  0  1  0  0  0  0  0  0  0  0  0
    8.7148   -8.0031    0.0000 H   0  0  0  0  0  0  0  0  0  0  0  0
    8.0003   -7.5906    0.0000 C   0  0  0  0  0  0  0  0  0  0  0  0
    7.2858   -7.1781    0.0000 C   0  0  0  0  0  0  0  0  0  0  0  0
    6.5713   -7.5906    0.0000 C   0  0  0  0  0  0  0  0  0  0  0  0
    6.5713   -8.4156    0.0000 C   0  0  2  0  0  0  0  0  0  0  0  0
    5.8569   -8.8281    0.0000 C   0  0  1  0  0  0  0  0  0  0  0  0
    5.8569   -8.0031    0.0000 C   0  0  0  0  0  0  0  0  0  0  0  0
   10.1437   -8.8281    0.0000 O   0  0  0  0  0  0  0  0  0  0  0  0
   10.8582   -7.5906    0.0000 O   0  0  0  0  0  0  0  0  0  0  0  0
   11.5726   -8.0031    0.0000 C   0  0  0  0  0  0  0  0  0  0  0  0
    6.5713   -9.2406    0.0000 H   0  0  0  0  0  0  0  0  0  0  0  0
    5.8569  -10.4781    0.0000 H   0  0  0  0  0  0  0  0  0  0  0  0
  2  3  1  1  0  0  0
  2  4  1  0  0  0  0
  4  5  1  0  0  0  0
  2  6  1  0  0  0  0
  6  7  1  6  0  0  0
  6  8  1  1  0  0  0
  6  9  1  0  0  0  0
  9 10  1  0  0  0  0
 10 11  1  0  0  0  0
 11 12  1  0  0  0  0
 12 13  1  1  0  0  0
 12 14  1  0  0  0  0
 14 15  1  6  0  0  0
 14 16  1  0  0  0  0
 16 17  1  0  0  0  0
 17 18  1  0  0  0  0
 18  1  1  1  0  0  0
 18 19  1  0  0  0  0
 19 20  1  0  0  0  0
 20 21  1  0  0  0  0
 21 22  1  6  0  0  0
 21 23  1  0  0  0  0
 23 24  1  1  0  0  0
 23 25  1  0  0  0  0
 25 26  1  1  0  0  0
 18 25  1  0  0  0  0
 25 27  1  0  0  0  0
 14 27  1  0  0  0  0
 27 28  2  0  0  0  0
 28 29  1  0  0  0  0
 29 30  1  0  0  0  0
 12 30  1  0  0  0  0
 30 31  1  0  0  0  0
  5 31  1  0  0  0  0
  9 31  1  0  0  0  0
 31 32  1  1  0  0  0
  1 33  2  0  0  0  0
  1 34  1  0  0  0  0
 34 35  1  0  0  0  0
 30 36  1  6  0  0  0
  9 37  1  6  0  0  0
M  END
>  <cdx:fragmentId>
10511

$$$$
