636537.cdx
  Mrv1902 05222410212D          

 20 22  0  0  0  0            999 V2000
    3.4158   -8.6359    0.0000 C   0  0  0  0  0  0  0  0  0  0  0  0
    2.8768   -9.2606    0.0000 C   0  0  0  0  0  0  0  0  0  0  0  0
    3.3164  -10.0076    0.0000 C   0  0  0  0  0  0  0  0  0  0  0  0
    4.1076   -9.7775    0.0000 C   0  0  0  0  0  0  0  0  0  0  0  0
    4.1764   -8.9554    0.0000 N   0  0  0  0  0  0  0  0  0  0  0  0
    4.8644   -7.7029    0.0000 O   0  0  0  0  0  0  0  0  0  0  0  0
    4.8819   -8.5277    0.0000 C   0  0  0  0  0  0  0  0  0  0  0  0
    5.6050   -8.9250    0.0000 C   0  0  0  0  0  0  0  0  0  0  0  0
    6.3105   -8.4974    0.0000 C   0  0  0  0  0  0  0  0  0  0  0  0
    7.0336   -8.8946    0.0000 C   0  0  0  0  0  0  0  0  0  0  0  0
    7.7391   -8.4670    0.0000 C   0  0  0  0  0  0  0  0  0  0  0  0
    9.2052  -10.0827    0.0000 C   0  0  0  0  0  0  0  0  0  0  0  0
    8.4814   -9.6854    0.0000 C   0  0  0  0  0  0  0  0  0  0  0  0
    8.4621   -8.8643    0.0000 C   0  0  0  0  0  0  0  0  0  0  0  0
    9.1651   -8.4324    0.0000 C   0  0  0  0  0  0  0  0  0  0  0  0
    9.8886   -8.8322    0.0000 C   0  0  0  0  0  0  0  0  0  0  0  0
    9.9093   -9.6566    0.0000 C   0  0  0  0  0  0  0  0  0  0  0  0
   10.7372   -9.8621    0.0000 O   0  0  0  0  0  0  0  0  0  0  0  0
   11.1291   -9.1482    0.0000 C   0  0  0  0  0  0  0  0  0  0  0  0
   10.6022   -8.5251    0.0000 O   0  0  0  0  0  0  0  0  0  0  0  0
 16 20  1  0  0  0  0
  1  5  1  0  0  0  0
  2  1  1  0  0  0  0
  3  2  1  0  0  0  0
  4  3  1  0  0  0  0
  5  4  1  0  0  0  0
  7  5  1  0  0  0  0
  7  6  2  0  0  0  0
  8  7  1  0  0  0  0
  9  8  2  0  0  0  0
 10  9  1  0  0  0  0
 11 10  2  0  0  0  0
 14 11  1  0  0  0  0
 12 17  1  0  0  0  0
 13 12  2  0  0  0  0
 14 13  1  0  0  0  0
 15 14  2  0  0  0  0
 16 15  1  0  0  0  0
 17 16  2  0  0  0  0
 18 17  1  0  0  0  0
 19 18  1  0  0  0  0
 20 19  1  0  0  0  0
M  END
>  <cdx:fragmentId>
10629

$$$$
