636636.cdx
  Mrv1902 05222410182D          

 25 27  0  0  0  0            999 V2000
    9.9590   -8.5958    0.0000 C   0  0  0  0  0  0  0  0  0  0  0  0
   10.6744   -9.0067    0.0000 C   0  0  0  0  0  0  0  0  0  0  0  0
   11.3879   -8.5925    0.0000 C   0  0  0  0  0  0  0  0  0  0  0  0
   11.3860   -7.7675    0.0000 C   0  0  0  0  0  0  0  0  0  0  0  0
   10.6706   -7.3567    0.0000 C   0  0  0  0  0  0  0  0  0  0  0  0
    9.9571   -7.7708    0.0000 C   0  0  0  0  0  0  0  0  0  0  0  0
   12.1034   -9.0034    0.0000 O   0  0  0  0  0  0  0  0  0  0  0  0
    9.2416   -7.3600    0.0000 C   0  0  0  0  0  0  0  0  0  0  0  0
    8.5281   -7.7742    0.0000 O   0  0  0  0  0  0  0  0  0  0  0  0
    7.8127   -7.3633    0.0000 C   0  0  0  0  0  0  0  0  0  0  0  0
    7.0992   -7.7775    0.0000 C   0  0  0  0  0  0  0  0  0  0  0  0
    6.3838   -7.3667    0.0000 C   0  0  0  0  0  0  0  0  0  0  0  0
    5.6703   -7.7808    0.0000 C   0  0  0  0  0  0  0  0  0  0  0  0
    5.6722   -8.6058    0.0000 C   0  0  0  0  0  0  0  0  0  0  0  0
    6.3876   -9.0167    0.0000 C   0  0  0  0  0  0  0  0  0  0  0  0
    7.1011   -8.6025    0.0000 C   0  0  0  0  0  0  0  0  0  0  0  0
    4.9587   -9.0200    0.0000 O   0  0  0  0  0  0  0  0  0  0  0  0
    2.1008   -9.0266    0.0000 O   0  0  0  0  0  0  0  0  0  0  0  0
    3.5259   -7.3733    0.0000 C   0  0  0  0  0  0  0  0  0  0  0  0
    2.8124   -7.7875    0.0000 C   0  0  0  0  0  0  0  0  0  0  0  0
    2.8143   -8.6125    0.0000 C   0  0  0  0  0  0  0  0  0  0  0  0
    3.5297   -9.0233    0.0000 C   0  0  0  0  0  0  0  0  0  0  0  0
    4.2432   -8.6091    0.0000 C   0  0  0  0  0  0  0  0  0  0  0  0
    4.2413   -7.7841    0.0000 C   0  0  0  0  0  0  0  0  0  0  0  0
    4.9548   -7.3700    0.0000 C   0  0  0  0  0  0  0  0  0  0  0  0
  1  2  2  0  0  0  0
  2  3  1  0  0  0  0
  3  4  2  0  0  0  0
  4  5  1  0  0  0  0
  5  6  2  0  0  0  0
  6  1  1  0  0  0  0
  3  7  1  0  0  0  0
  6  8  1  0  0  0  0
  8  9  1  0  0  0  0
  9 10  1  0  0  0  0
 10 11  1  0  0  0  0
 11 12  2  0  0  0  0
 12 13  1  0  0  0  0
 13 14  2  0  0  0  0
 14 15  1  0  0  0  0
 15 16  2  0  0  0  0
 16 11  1  0  0  0  0
 21 18  1  0  0  0  0
 13 25  1  0  0  0  0
 14 17  1  0  0  0  0
 19 24  1  0  0  0  0
 20 19  2  0  0  0  0
 21 20  1  0  0  0  0
 22 21  2  0  0  0  0
 23 22  1  0  0  0  0
 24 23  2  0  0  0  0
 25 24  1  0  0  0  0
M  END
>  <cdx:fragmentId>
10678

$$$$
