636638.cdx
  Mrv1902 05222410282D          

 25 27  0  0  0  0            999 V2000
    9.4118   -8.0589    0.0000 C   0  0  0  0  0  0  0  0  0  0  0  0
    8.6987   -7.6440    0.0000 C   0  0  0  0  0  0  0  0  0  0  0  0
    7.9829   -8.0540    0.0000 C   0  0  0  0  0  0  0  0  0  0  0  0
    7.2698   -7.6391    0.0000 C   0  0  0  0  0  0  0  0  0  0  0  0
    6.5539   -8.0491    0.0000 C   0  0  0  0  0  0  0  0  0  0  0  0
    6.5511   -8.8741    0.0000 C   0  0  0  0  0  0  0  0  0  0  0  0
    7.2642   -9.2891    0.0000 C   0  0  0  0  0  0  0  0  0  0  0  0
    7.9801   -8.8790    0.0000 C   0  0  0  0  0  0  0  0  0  0  0  0
    5.8352   -9.2842    0.0000 O   0  0  0  0  0  0  0  0  0  0  0  0
    2.9774   -9.2744    0.0000 O   0  0  0  0  0  0  0  0  0  0  0  0
    4.4119   -7.6293    0.0000 C   0  0  0  0  0  0  0  0  0  0  0  0
    3.6961   -8.0394    0.0000 C   0  0  0  0  0  0  0  0  0  0  0  0
    3.6933   -8.8644    0.0000 C   0  0  0  0  0  0  0  0  0  0  0  0
    4.4063   -9.2793    0.0000 C   0  0  0  0  0  0  0  0  0  0  0  0
    5.1222   -8.8693    0.0000 C   0  0  0  0  0  0  0  0  0  0  0  0
    5.1250   -8.0443    0.0000 C   0  0  0  0  0  0  0  0  0  0  0  0
    5.8409   -7.6342    0.0000 C   0  0  0  0  0  0  0  0  0  0  0  0
    9.4076   -8.8839    0.0000 C   0  0  0  0  0  0  0  0  0  0  0  0
   10.1199   -9.3000    0.0000 C   0  0  0  0  0  0  0  0  0  0  0  0
   10.8365   -8.8839    0.0000 C   0  0  0  0  0  0  0  0  0  0  0  0
   10.8365   -8.0589    0.0000 C   0  0  0  0  0  0  0  0  0  0  0  0
   10.1199   -7.6427    0.0000 C   0  0  0  0  0  0  0  0  0  0  0  0
   11.5515   -9.2955    0.0000 O   0  0  0  0  0  0  0  0  0  0  0  0
    7.2614  -10.1141    0.0000 C   0  0  0  0  0  0  0  0  0  0  0  0
    7.9744  -10.5290    0.0000 O   0  0  0  0  0  0  0  0  0  0  0  0
  1  2  1  0  0  0  0
  2  3  1  0  0  0  0
  3  4  2  0  0  0  0
  4  5  1  0  0  0  0
  5  6  2  0  0  0  0
  6  7  1  0  0  0  0
  7  8  2  0  0  0  0
  8  3  1  0  0  0  0
 13 10  1  0  0  0  0
  5 17  1  0  0  0  0
  6  9  1  0  0  0  0
 11 16  1  0  0  0  0
 12 11  2  0  0  0  0
 13 12  1  0  0  0  0
 14 13  2  0  0  0  0
 15 14  1  0  0  0  0
 16 15  2  0  0  0  0
 17 16  1  0  0  0  0
  1 18  2  0  0  0  0
 18 19  1  0  0  0  0
 19 20  2  0  0  0  0
 20 21  1  0  0  0  0
 21 22  2  0  0  0  0
 22  1  1  0  0  0  0
 20 23  1  0  0  0  0
  7 24  1  0  0  0  0
 24 25  1  0  0  0  0
M  END
>  <cdx:fragmentId>
10678

$$$$
