636639.cdx
  Mrv1902 05222410282D          

 25 27  0  0  0  0            999 V2000
    9.4118   -8.0589    0.0000 C   0  0  0  0  0  0  0  0  0  0  0  0
    8.6987   -7.6440    0.0000 C   0  0  0  0  0  0  0  0  0  0  0  0
    7.9829   -8.0540    0.0000 C   0  0  0  0  0  0  0  0  0  0  0  0
    7.2698   -7.6391    0.0000 C   0  0  0  0  0  0  0  0  0  0  0  0
    6.5539   -8.0491    0.0000 C   0  0  0  0  0  0  0  0  0  0  0  0
    6.5511   -8.8741    0.0000 C   0  0  0  0  0  0  0  0  0  0  0  0
    7.2642   -9.2891    0.0000 C   0  0  0  0  0  0  0  0  0  0  0  0
    7.9801   -8.8790    0.0000 C   0  0  0  0  0  0  0  0  0  0  0  0
    2.9774   -9.2744    0.0000 O   0  0  0  0  0  0  0  0  0  0  0  0
    4.4119   -7.6293    0.0000 C   0  0  0  0  0  0  0  0  0  0  0  0
    3.6961   -8.0394    0.0000 C   0  0  0  0  0  0  0  0  0  0  0  0
    3.6933   -8.8644    0.0000 C   0  0  0  0  0  0  0  0  0  0  0  0
    4.4063   -9.2793    0.0000 C   0  0  0  0  0  0  0  0  0  0  0  0
    5.1222   -8.8693    0.0000 C   0  0  0  0  0  0  0  0  0  0  0  0
    5.1250   -8.0443    0.0000 C   0  0  0  0  0  0  0  0  0  0  0  0
    5.8409   -7.6342    0.0000 C   0  0  0  0  0  0  0  0  0  0  0  0
    9.4076   -8.8839    0.0000 C   0  0  0  0  0  0  0  0  0  0  0  0
   10.1199   -9.3000    0.0000 C   0  0  0  0  0  0  0  0  0  0  0  0
   10.8365   -8.8839    0.0000 C   0  0  0  0  0  0  0  0  0  0  0  0
   10.8365   -8.0589    0.0000 C   0  0  0  0  0  0  0  0  0  0  0  0
   10.1199   -7.6427    0.0000 C   0  0  0  0  0  0  0  0  0  0  0  0
   11.5515   -9.2955    0.0000 O   0  0  0  0  0  0  0  0  0  0  0  0
    8.6931   -9.2939    0.0000 O   0  0  0  0  0  0  0  0  0  0  0  0
   11.5515   -7.6473    0.0000 C   0  0  0  0  0  0  0  0  0  0  0  0
   12.2655   -8.0607    0.0000 O   0  0  0  0  0  0  0  0  0  0  0  0
  1  2  1  0  0  0  0
  2  3  1  0  0  0  0
  3  4  2  0  0  0  0
  4  5  1  0  0  0  0
  5  6  2  0  0  0  0
  6  7  1  0  0  0  0
  7  8  2  0  0  0  0
  8  3  1  0  0  0  0
 12  9  1  0  0  0  0
  5 16  1  0  0  0  0
 10 15  1  0  0  0  0
 11 10  2  0  0  0  0
 12 11  1  0  0  0  0
 13 12  2  0  0  0  0
 14 13  1  0  0  0  0
 15 14  2  0  0  0  0
 16 15  1  0  0  0  0
  1 17  2  0  0  0  0
 17 18  1  0  0  0  0
 18 19  2  0  0  0  0
 19 20  1  0  0  0  0
 20 21  2  0  0  0  0
 21  1  1  0  0  0  0
 19 22  1  0  0  0  0
  8 23  1  0  0  0  0
 20 24  1  0  0  0  0
 24 25  1  0  0  0  0
M  END
>  <cdx:fragmentId>
10678

$$$$
