636637.cdx
  Mrv1902 05222410192D          

 19 20  0  0  0  0            999 V2000
   10.7043   -8.0589    0.0000 O   0  0  0  0  0  0  0  0  0  0  0  0
    9.9912   -7.6440    0.0000 C   0  0  0  0  0  0  0  0  0  0  0  0
    9.2754   -8.0540    0.0000 C   0  0  0  0  0  0  0  0  0  0  0  0
    8.5623   -7.6391    0.0000 C   0  0  0  0  0  0  0  0  0  0  0  0
    7.8464   -8.0491    0.0000 C   0  0  0  0  0  0  0  0  0  0  0  0
    7.8436   -8.8741    0.0000 C   0  0  0  0  0  0  0  0  0  0  0  0
    8.5567   -9.2891    0.0000 C   0  0  0  0  0  0  0  0  0  0  0  0
    9.2726   -8.8790    0.0000 C   0  0  0  0  0  0  0  0  0  0  0  0
    7.1277   -9.2842    0.0000 O   0  0  0  0  0  0  0  0  0  0  0  0
    4.2699   -9.2744    0.0000 O   0  0  0  0  0  0  0  0  0  0  0  0
    5.7044   -7.6293    0.0000 C   0  0  0  0  0  0  0  0  0  0  0  0
    4.9886   -8.0394    0.0000 C   0  0  0  0  0  0  0  0  0  0  0  0
    4.9858   -8.8644    0.0000 C   0  0  0  0  0  0  0  0  0  0  0  0
    5.6988   -9.2793    0.0000 C   0  0  0  0  0  0  0  0  0  0  0  0
    6.4147   -8.8693    0.0000 C   0  0  0  0  0  0  0  0  0  0  0  0
    6.4175   -8.0443    0.0000 C   0  0  0  0  0  0  0  0  0  0  0  0
    7.1334   -7.6342    0.0000 C   0  0  0  0  0  0  0  0  0  0  0  0
    4.2755   -7.6245    0.0000 C   0  0  0  0  0  0  0  0  0  0  0  0
    3.5596   -8.0345    0.0000 O   0  0  0  0  0  0  0  0  0  0  0  0
  1  2  1  0  0  0  0
  2  3  1  0  0  0  0
  3  4  2  0  0  0  0
  4  5  1  0  0  0  0
  5  6  2  0  0  0  0
  6  7  1  0  0  0  0
  7  8  2  0  0  0  0
  8  3  1  0  0  0  0
 13 10  1  0  0  0  0
  5 17  1  0  0  0  0
  6  9  1  0  0  0  0
 11 16  1  0  0  0  0
 12 11  2  0  0  0  0
 13 12  1  0  0  0  0
 14 13  2  0  0  0  0
 15 14  1  0  0  0  0
 16 15  2  0  0  0  0
 17 16  1  0  0  0  0
 12 18  1  0  0  0  0
 18 19  1  0  0  0  0
M  END
>  <cdx:fragmentId>
10678

$$$$
