636642.cdx
  Mrv1902 05222410202D          

 25 27  0  0  0  0            999 V2000
    4.1024   -6.9988    0.0000 C   0  0  0  0  0  0  0  0  0  0  0  0
    4.1024   -7.8237    0.0000 C   0  0  0  0  0  0  0  0  0  0  0  0
    4.8169   -8.2363    0.0000 C   0  0  0  0  0  0  0  0  0  0  0  0
    5.5314   -7.8237    0.0000 C   0  0  0  0  0  0  0  0  0  0  0  0
    5.5314   -6.9988    0.0000 C   0  0  0  0  0  0  0  0  0  0  0  0
    4.8169   -6.5863    0.0000 C   0  0  0  0  0  0  0  0  0  0  0  0
    6.2458   -8.2363    0.0000 O   0  0  0  0  0  0  0  0  0  0  0  0
    6.9603   -7.8237    0.0000 C   0  0  0  0  0  0  0  0  0  0  0  0
    6.9603   -6.9988    0.0000 C   0  0  0  0  0  0  0  0  0  0  0  0
    6.2458   -6.5863    0.0000 C   0  0  0  0  0  0  0  0  0  0  0  0
    7.6748   -8.2363    0.0000 C   0  0  0  0  0  0  0  0  0  0  0  0
    8.3893   -7.8237    0.0000 C   0  0  0  0  0  0  0  0  0  0  0  0
    8.3893   -6.9988    0.0000 C   0  0  0  0  0  0  0  0  0  0  0  0
    7.6748   -6.5863    0.0000 C   0  0  0  0  0  0  0  0  0  0  0  0
    9.8182   -6.9988    0.0000 O   0  0  0  0  0  0  0  0  0  0  0  0
    9.1037   -6.5863    0.0000 C   0  0  0  0  0  0  0  0  0  0  0  0
    3.3880   -8.2363    0.0000 O   0  0  0  0  0  0  0  0  0  0  0  0
    7.6748   -9.0613    0.0000 C   0  0  0  0  0  0  0  0  0  0  0  0
    6.9603   -9.4738    0.0000 C   0  0  0  0  0  0  0  0  0  0  0  0
    6.2458   -9.0613    0.0000 C   0  0  0  0  0  0  0  0  0  0  0  0
    5.5314   -9.4738    0.0000 C   0  0  0  0  0  0  0  0  0  0  0  0
    5.5314  -10.2988    0.0000 C   0  0  0  0  0  0  0  0  0  0  0  0
    6.2458  -10.7112    0.0000 C   0  0  0  0  0  0  0  0  0  0  0  0
    6.9603  -10.2988    0.0000 C   0  0  0  0  0  0  0  0  0  0  0  0
    4.8169  -10.7112    0.0000 O   0  0  0  0  0  0  0  0  0  0  0  0
  1  2  2  0  0  0  0
  2  3  1  0  0  0  0
  3  4  2  0  0  0  0
  4  5  1  0  0  0  0
  5  6  2  0  0  0  0
  6  1  1  0  0  0  0
  7  8  1  0  0  0  0
  8  9  2  0  0  0  0
  9 10  1  0  0  0  0
 10  5  1  0  0  0  0
  8 11  1  0  0  0  0
 11 12  2  0  0  0  0
 12 13  1  0  0  0  0
 13 14  2  0  0  0  0
 14  9  1  0  0  0  0
 15 16  1  0  0  0  0
 16 13  1  0  0  0  0
  2 17  1  0  0  0  0
 11 18  1  0  0  0  0
 18 19  1  0  0  0  0
 19 20  2  0  0  0  0
 20 21  1  0  0  0  0
 21 22  2  0  0  0  0
 22 23  1  0  0  0  0
 23 24  2  0  0  0  0
 24 19  1  0  0  0  0
 22 25  1  0  0  0  0
M  END
>  <cdx:fragmentId>
5

$$$$
