101636767.cdx
  Mrv1902 05222410272D          

 23 24  0  0  0  0            999 V2000
    5.9989  -12.9971    0.0000 C   0  0  0  0  0  0  0  0  0  0  0  0
    5.2844  -13.4096    0.0000 C   0  0  0  0  0  0  0  0  0  0  0  0
    5.9989  -12.1721    0.0000 O   0  0  0  0  0  0  0  0  0  0  0  0
    6.7134  -13.4096    0.0000 O   0  0  0  0  0  0  0  0  0  0  0  0
    7.4278  -12.9971    0.0000 C   0  0  1  0  0  0  0  0  0  0  0  0
    8.1423  -13.4096    0.0000 C   0  0  0  0  0  0  0  0  0  0  0  0
    8.8568  -12.9971    0.0000 C   0  0  0  0  0  0  0  0  0  0  0  0
    9.5713  -13.4096    0.0000 C   0  0  0  0  0  0  0  0  0  0  0  0
   10.2857  -12.9971    0.0000 C   0  0  0  0  0  0  0  0  0  0  0  0
    9.5713  -14.2346    0.0000 C   0  0  0  0  0  0  0  0  0  0  0  0
    7.8403  -10.9025    0.0000 O   0  0  0  0  0  0  0  0  0  0  0  0
    8.0953  -11.6871    0.0000 C   0  0  0  0  0  0  0  0  0  0  0  0
    7.4278  -12.1721    0.0000 C   0  0  0  0  0  0  0  0  0  0  0  0
    6.7604  -11.6871    0.0000 C   0  0  0  0  0  0  0  0  0  0  0  0
    7.0153  -10.9025    0.0000 C   0  0  0  0  0  0  0  0  0  0  0  0
    6.5304  -10.2351    0.0000 C   0  0  0  0  0  0  0  0  0  0  0  0
    6.8660   -9.4814    0.0000 C   0  0  0  0  0  0  0  0  0  0  0  0
    6.3811   -8.8140    0.0000 C   0  0  0  0  0  0  0  0  0  0  0  0
    5.5606   -8.9002    0.0000 C   0  0  0  0  0  0  0  0  0  0  0  0
    5.2250   -9.6539    0.0000 C   0  0  0  0  0  0  0  0  0  0  0  0
    5.7099  -10.3213    0.0000 C   0  0  0  0  0  0  0  0  0  0  0  0
    4.4045   -9.7401    0.0000 O   0  0  0  0  0  0  0  0  0  0  0  0
    7.6865   -9.3952    0.0000 O   0  0  0  0  0  0  0  0  0  0  0  0
  1  2  1  0  0  0  0
  1  3  2  0  0  0  0
  1  4  1  0  0  0  0
  5  6  1  0  0  0  0
  6  7  1  0  0  0  0
  7  8  2  0  0  0  0
  8  9  1  0  0  0  0
  8 10  1  0  0  0  0
 11 12  1  0  0  0  0
 12 13  2  0  0  0  0
 13 14  1  0  0  0  0
 14 15  2  0  0  0  0
 11 15  1  0  0  0  0
 16 17  1  0  0  0  0
 17 18  2  0  0  0  0
 18 19  1  0  0  0  0
 19 20  2  0  0  0  0
 20 21  1  0  0  0  0
 16 21  2  0  0  0  0
 20 22  1  0  0  0  0
 17 23  1  0  0  0  0
 15 16  1  0  0  0  0
  5 13  1  6  0  0  0
  4  5  1  0  0  0  0
M  END
>  <cdx:groupId>
1354

>  <cdx:fragmentId>
1317

$$$$
