636811.cdx
  Mrv1902 05222410182D          

 23 26  0  0  0  0            999 V2000
   15.8994  -18.2820    0.0000 C   0  0  0  0  0  0  0  0  0  0  0  0
   15.8994  -19.1070    0.0000 C   0  0  0  0  0  0  0  0  0  0  0  0
   15.1849  -19.5195    0.0000 C   0  0  0  0  0  0  0  0  0  0  0  0
   14.4704  -19.1070    0.0000 C   0  0  0  0  0  0  0  0  0  0  0  0
   13.7560  -19.5195    0.0000 C   0  0  0  0  0  0  0  0  0  0  0  0
   13.0415  -19.1070    0.0000 C   0  0  0  0  0  0  0  0  0  0  0  0
   13.0415  -18.2820    0.0000 C   0  0  0  0  0  0  0  0  0  0  0  0
   13.7560  -17.8695    0.0000 C   0  0  0  0  0  0  0  0  0  0  0  0
   14.4704  -18.2820    0.0000 C   0  0  0  0  0  0  0  0  0  0  0  0
   15.1849  -17.8695    0.0000 O   0  0  0  0  0  0  0  0  0  0  0  0
   16.6138  -17.8695    0.0000 C   0  0  0  0  0  0  0  0  0  0  0  0
   17.3283  -18.2820    0.0000 C   0  0  0  0  0  0  0  0  0  0  0  0
   18.0428  -17.8695    0.0000 C   0  0  0  0  0  0  0  0  0  0  0  0
   18.0428  -17.0445    0.0000 C   0  0  0  0  0  0  0  0  0  0  0  0
   17.3283  -16.6320    0.0000 C   0  0  0  0  0  0  0  0  0  0  0  0
   16.6138  -17.0445    0.0000 C   0  0  0  0  0  0  0  0  0  0  0  0
   12.3270  -17.8695    0.0000 O   0  0  0  0  0  0  0  0  0  0  0  0
   11.6125  -18.2820    0.0000 C   0  0  0  0  0  0  0  0  0  0  0  0
   13.7560  -20.3445    0.0000 O   0  0  0  0  0  0  0  0  0  0  0  0
   13.0415  -20.7570    0.0000 C   0  0  0  0  0  0  0  0  0  0  0  0
   19.3123  -17.4570    0.0000 C   0  0  0  0  0  0  0  0  0  0  0  0
   18.8274  -18.1244    0.0000 O   0  0  0  0  0  0  0  0  0  0  0  0
   18.8274  -16.7895    0.0000 O   0  0  0  0  0  0  0  0  0  0  0  0
  1  2  1  0  0  0  0
  2  3  1  0  0  0  0
  3  4  1  0  0  0  0
  4  5  1  0  0  0  0
  5  6  2  0  0  0  0
  6  7  1  0  0  0  0
  7  8  2  0  0  0  0
  8  9  1  0  0  0  0
  4  9  2  0  0  0  0
  9 10  1  0  0  0  0
  1 10  1  0  0  0  0
  1 11  1  0  0  0  0
 11 12  2  0  0  0  0
 12 13  1  0  0  0  0
 13 14  2  0  0  0  0
 14 15  1  0  0  0  0
 15 16  2  0  0  0  0
 11 16  1  0  0  0  0
 17 18  1  0  0  0  0
  7 17  1  0  0  0  0
 19 20  1  0  0  0  0
  5 19  1  0  0  0  0
 21 22  1  0  0  0  0
 21 23  1  0  0  0  0
 13 22  1  0  0  0  0
 14 23  1  0  0  0  0
M  END
>  <cdx:groupId>
10819

>  <cdx:fragmentId>
10750

$$$$
