636954.cdx
  Mrv1902 05222410272D          

 20 22  0  0  0  0            999 V2000
   15.6438  -17.4255    0.0000 O   0  0  0  0  0  0  0  0  0  0  0  0
   16.4643  -17.3392    0.0000 C   0  0  0  0  0  0  0  0  0  0  0  0
   16.7998  -18.0929    0.0000 C   0  0  0  0  0  0  0  0  0  0  0  0
   16.1868  -18.6449    0.0000 C   0  0  2  0  0  0  0  0  0  0  0  0
   16.1868  -19.4699    0.0000 C   0  0  0  0  0  0  0  0  0  0  0  0
   15.4723  -19.8824    0.0000 C   0  0  0  0  0  0  0  0  0  0  0  0
   14.7578  -19.4699    0.0000 C   0  0  2  0  0  0  0  0  0  0  0  0
   14.7578  -18.6449    0.0000 C   0  0  0  0  0  0  0  0  0  0  0  0
   15.4723  -18.2324    0.0000 C   0  0  1  0  0  0  0  0  0  0  0  0
   14.0433  -18.2324    0.0000 C   0  0  0  0  0  0  0  0  0  0  0  0
   13.3289  -18.6449    0.0000 C   0  0  0  0  0  0  0  0  0  0  0  0
   13.3289  -19.4699    0.0000 C   0  0  0  0  0  0  0  0  0  0  0  0
   14.0433  -19.8824    0.0000 C   0  0  1  0  0  0  0  0  0  0  0  0
   16.8768  -16.6248    0.0000 O   0  0  0  0  0  0  0  0  0  0  0  0
   17.6068  -18.2644    0.0000 C   0  0  0  0  0  0  0  0  0  0  0  0
   14.0433  -17.4074    0.0000 C   0  0  0  0  0  0  0  0  0  0  0  0
   14.7578  -20.2949    0.0000 C   0  0  0  0  0  0  0  0  0  0  0  0
   14.0433  -20.7074    0.0000 O   0  0  0  0  0  0  0  0  0  0  0  0
   16.9404  -18.9805    0.0000 H   0  0  0  0  0  0  0  0  0  0  0  0
   14.8048  -17.7475    0.0000 H   0  0  0  0  0  0  0  0  0  0  0  0
  1  2  1  0  0  0  0
  2  3  1  0  0  0  0
  3  4  1  0  0  0  0
  4  5  1  0  0  0  0
  5  6  1  0  0  0  0
  6  7  1  0  0  0  0
  7  8  1  0  0  0  0
  8  9  1  0  0  0  0
  4  9  1  0  0  0  0
  1  9  1  0  0  0  0
 10 11  1  0  0  0  0
 11 12  1  0  0  0  0
 12 13  1  0  0  0  0
 13  7  1  0  0  0  0
 10  8  2  0  0  0  0
  2 14  2  0  0  0  0
  3 15  2  0  0  0  0
 10 16  1  0  0  0  0
  7 17  1  6  0  0  0
 13 18  1  6  0  0  0
  4 19  1  1  0  0  0
  9 20  1  6  0  0  0
M  END
>  <cdx:groupId>
10990

>  <cdx:fragmentId>
10931

$$$$
