636959.cdx
  Mrv1902 05222410192D          

 25 25  0  0  0  0            999 V2000
    2.9150   -9.0200    0.0000 O   0  0  0  0  0  0  0  0  0  0  0  0
    3.6295   -8.6075    0.0000 C   0  0  0  0  0  0  0  0  0  0  0  0
    4.3439   -9.0200    0.0000 C   0  0  0  0  0  0  0  0  0  0  0  0
    5.0584   -8.6075    0.0000 C   0  0  2  0  0  0  0  0  0  0  0  0
    4.3439   -9.8450    0.0000 O   0  0  0  0  0  0  0  0  0  0  0  0
    5.7729   -9.0200    0.0000 C   0  0  1  0  0  0  0  0  0  0  0  0
    5.0584   -7.7825    0.0000 O   0  0  0  0  0  0  0  0  0  0  0  0
    6.4874   -8.6075    0.0000 C   0  0  1  0  0  0  0  0  0  0  0  0
    5.7729   -9.8450    0.0000 O   0  0  0  0  0  0  0  0  0  0  0  0
    7.2018   -9.0200    0.0000 C   0  0  1  0  0  0  0  0  0  0  0  0
    6.4874   -7.7825    0.0000 O   0  0  0  0  0  0  0  0  0  0  0  0
    7.9163   -8.6075    0.0000 C   0  0  0  0  0  0  0  0  0  0  0  0
    7.2018   -9.8450    0.0000 O   0  0  0  0  0  0  0  0  0  0  0  0
    8.6308   -9.0200    0.0000 O   0  0  0  0  0  0  0  0  0  0  0  0
    9.3452   -8.6075    0.0000 C   0  0  0  0  0  0  0  0  0  0  0  0
   10.0597   -9.0200    0.0000 C   0  0  0  0  0  0  0  0  0  0  0  0
    9.3452   -7.7825    0.0000 O   0  0  0  0  0  0  0  0  0  0  0  0
   10.0597   -9.8450    0.0000 C   0  0  0  0  0  0  0  0  0  0  0  0
   10.7742  -10.2575    0.0000 C   0  0  0  0  0  0  0  0  0  0  0  0
   11.4887   -9.8450    0.0000 C   0  0  0  0  0  0  0  0  0  0  0  0
   11.4887   -9.0200    0.0000 C   0  0  0  0  0  0  0  0  0  0  0  0
   10.7742   -8.6075    0.0000 C   0  0  0  0  0  0  0  0  0  0  0  0
   12.2031   -8.6075    0.0000 O   0  0  0  0  0  0  0  0  0  0  0  0
   12.2031  -10.2575    0.0000 O   0  0  0  0  0  0  0  0  0  0  0  0
   10.7742  -11.0825    0.0000 O   0  0  0  0  0  0  0  0  0  0  0  0
  1  2  1  0  0  0  0
  2  3  1  0  0  0  0
  3  4  1  0  0  0  0
  3  5  2  0  0  0  0
  4  6  1  0  0  0  0
  4  7  1  1  0  0  0
  6  8  1  0  0  0  0
  6  9  1  1  0  0  0
  8 10  1  0  0  0  0
  8 11  1  6  0  0  0
 10 12  1  0  0  0  0
 10 13  1  1  0  0  0
 12 14  1  0  0  0  0
 14 15  1  0  0  0  0
 15 16  1  0  0  0  0
 15 17  2  0  0  0  0
 16 18  2  0  0  0  0
 18 19  1  0  0  0  0
 19 20  2  0  0  0  0
 20 21  1  0  0  0  0
 21 22  2  0  0  0  0
 22 16  1  0  0  0  0
 21 23  1  0  0  0  0
 20 24  1  0  0  0  0
 19 25  1  0  0  0  0
M  END
>  <cdx:fragmentId>
134

$$$$
