637090.cdx
  Mrv1902 05222410262D          

  6  5  0  0  0  0            999 V2000
   15.8689  -18.8724    0.0000 C   0  0  0  0  0  0  0  0  0  0  0  0
   15.1545  -19.2849    0.0000 C   0  0  0  0  0  0  0  0  0  0  0  0
   14.4400  -18.8724    0.0000 C   0  0  0  0  0  0  0  0  0  0  0  0
   13.7255  -19.2849    0.0000 C   0  0  0  0  0  0  0  0  0  0  0  0
   15.8689  -18.0474    0.0000 O   0  0  0  0  0  0  0  0  0  0  0  0
   16.5834  -19.2849    0.0000 O   0  0  0  0  0  0  0  0  0  0  0  0
  1  2  1  0  0  0  0
  2  3  2  0  0  0  0
  3  4  1  0  0  0  0
  1  5  2  0  0  0  0
  1  6  1  0  0  0  0
M  END
>  <cdx:groupId>
11010

>  <cdx:fragmentId>
10996

$$$$
