637110.cdx
  Mrv1902 05222410192D          

 41 44  0  0  0  0            999 V2000
    6.9465   -5.8066    0.0000 O   0  0  0  0  0  0  0  0  0  0  0  0
    8.3754   -4.9816    0.0000 O   0  0  0  0  0  0  0  0  0  0  0  0
    9.8044   -4.9816    0.0000 O   0  0  0  0  0  0  0  0  0  0  0  0
    9.8044   -5.8066    0.0000 C   0  0  0  0  0  0  0  0  0  0  0  0
    6.2320   -8.6941    0.0000 C   0  0  0  0  0  0  0  0  0  0  0  0
    6.9465   -8.2816    0.0000 O   0  0  0  0  0  0  0  0  0  0  0  0
    8.3754  -10.7566    0.0000 C   0  0  0  0  0  0  0  0  0  0  0  0
    9.8044  -10.7566    0.0000 O   0  0  0  0  0  0  0  0  0  0  0  0
   11.9478   -9.5191    0.0000 O   0  0  0  0  0  0  0  0  0  0  0  0
   12.6623   -8.2816    0.0000 C   0  0  0  0  0  0  0  0  0  0  0  0
   11.9478   -8.6941    0.0000 C   0  0  0  0  0  0  0  0  0  0  0  0
   11.2333   -8.2816    0.0000 C   0  0  0  0  0  0  0  0  0  0  0  0
    9.8044   -8.2816    0.0000 O   0  0  0  0  0  0  0  0  0  0  0  0
    9.0899   -8.6941    0.0000 C   0  0  0  0  0  0  0  0  0  0  0  0
    8.3754   -8.2816    0.0000 C   0  0  0  0  0  0  0  0  0  0  0  0
    7.6610   -8.6941    0.0000 C   0  0  0  0  0  0  0  0  0  0  0  0
    7.6610   -9.5191    0.0000 C   0  0  0  0  0  0  0  0  0  0  0  0
    8.3754   -9.9316    0.0000 C   0  0  0  0  0  0  0  0  0  0  0  0
    9.0899   -9.5191    0.0000 C   0  0  0  0  0  0  0  0  0  0  0  0
    9.8044   -9.9316    0.0000 C   0  0  0  0  0  0  0  0  0  0  0  0
   10.5189   -9.5191    0.0000 C   0  0  0  0  0  0  0  0  0  0  0  0
   10.5189   -8.6941    0.0000 C   0  0  0  0  0  0  0  0  0  0  0  0
    9.0899   -6.2191    0.0000 C   0  0  2  0  0  0  0  0  0  0  0  0
    8.3754   -5.8066    0.0000 C   0  0  2  0  0  0  0  0  0  0  0  0
    7.6610   -6.2191    0.0000 C   0  0  1  0  0  0  0  0  0  0  0  0
    7.6610   -7.0441    0.0000 C   0  0  2  0  0  0  0  0  0  0  0  0
    8.3754   -7.4566    0.0000 C   0  0  1  0  0  0  0  0  0  0  0  0
    9.0899   -7.0441    0.0000 O   0  0  0  0  0  0  0  0  0  0  0  0
    1.9452   -8.6941    0.0000 O   0  0  0  0  0  0  0  0  0  0  0  0
    3.3741   -7.0441    0.0000 C   0  0  0  0  0  0  0  0  0  0  0  0
    2.6597   -7.4566    0.0000 C   0  0  0  0  0  0  0  0  0  0  0  0
    2.6597   -8.2816    0.0000 C   0  0  0  0  0  0  0  0  0  0  0  0
    3.3741   -8.6941    0.0000 C   0  0  0  0  0  0  0  0  0  0  0  0
    4.0886   -8.2816    0.0000 C   0  0  0  0  0  0  0  0  0  0  0  0
    4.0886   -7.4566    0.0000 C   0  0  0  0  0  0  0  0  0  0  0  0
    6.9465   -7.4566    0.0000 O   0  0  0  0  0  0  0  0  0  0  0  0
    6.2320   -6.2191    0.0000 O   0  0  0  0  0  0  0  0  0  0  0  0
    4.8031   -7.0441    0.0000 C   0  0  0  0  0  0  0  0  0  0  0  0
    5.5176   -7.4566    0.0000 C   0  0  0  0  0  0  0  0  0  0  0  0
    6.2320   -7.0441    0.0000 C   0  0  0  0  0  0  0  0  0  0  0  0
    9.0899   -7.8691    0.0000 H   0  0  0  0  0  0  0  0  0  0  0  0
 26 36  1  6  0  0  0
 25  1  1  1  0  0  0
 24  2  1  6  0  0  0
 23  4  1  1  0  0  0
  4  3  1  0  0  0  0
 27 15  1  0  0  0  0
 16  6  1  0  0  0  0
  6  5  1  0  0  0  0
 18  7  1  0  0  0  0
 20  8  2  0  0  0  0
 22 12  1  0  0  0  0
 11  9  2  0  0  0  0
 11 10  1  0  0  0  0
 12 11  1  0  0  0  0
 22 13  1  0  0  0  0
 14 13  1  0  0  0  0
 19 14  2  0  0  0  0
 15 14  1  0  0  0  0
 16 15  2  0  0  0  0
 17 16  1  0  0  0  0
 18 17  2  0  0  0  0
 19 18  1  0  0  0  0
 20 19  1  0  0  0  0
 21 20  1  0  0  0  0
 22 21  2  0  0  0  0
 28 23  1  0  0  0  0
 24 23  1  0  0  0  0
 25 24  1  0  0  0  0
 26 25  1  0  0  0  0
 27 26  1  0  0  0  0
 28 27  1  0  0  0  0
 38 35  1  0  0  0  0
 32 29  1  0  0  0  0
 35 30  2  0  0  0  0
 31 30  1  0  0  0  0
 32 31  2  0  0  0  0
 33 32  1  0  0  0  0
 34 33  2  0  0  0  0
 35 34  1  0  0  0  0
 40 36  1  0  0  0  0
 40 37  2  0  0  0  0
 39 38  2  0  0  0  0
 40 39  1  0  0  0  0
 27 41  1  6  0  0  0
M  END
>  <cdx:fragmentId>
41

$$$$
