637125.cdx
  Mrv1902 05222410272D          

 23 24  0  0  0  0            999 V2000
    9.2635  -11.6681    0.0000 C   0  0  0  0  0  0  0  0  0  0  0  0
    9.2635  -10.8431    0.0000 C   0  0  0  0  0  0  0  0  0  0  0  0
    7.1201   -8.7806    0.0000 C   0  0  0  0  0  0  0  0  0  0  0  0
    6.8182   -6.0037    0.0000 C   0  0  0  0  0  0  0  0  0  0  0  0
    6.4057   -6.7181    0.0000 C   0  0  2  0  0  0  0  0  0  0  0  0
    5.6912   -7.1306    0.0000 C   0  0  0  0  0  0  0  0  0  0  0  0
    5.6912   -7.9556    0.0000 C   0  0  0  0  0  0  0  0  0  0  0  0
    6.4057   -8.3681    0.0000 C   0  0  0  0  0  0  0  0  0  0  0  0
    7.1201   -7.9556    0.0000 C   0  0  2  0  0  0  0  0  0  0  0  0
    7.1201   -7.1306    0.0000 C   0  0  1  0  0  0  0  0  0  0  0  0
    7.8346   -6.7181    0.0000 C   0  0  0  0  0  0  0  0  0  0  0  0
    8.5491   -7.1306    0.0000 C   0  0  0  0  0  0  0  0  0  0  0  0
    9.2635   -8.3681    0.0000 C   0  0  0  0  0  0  0  0  0  0  0  0
    8.5491   -7.9556    0.0000 C   0  0  0  0  0  0  0  0  0  0  0  0
    7.8346   -8.3681    0.0000 C   0  0  2  0  0  0  0  0  0  0  0  0
    7.8346   -9.1931    0.0000 C   0  0  0  0  0  0  0  0  0  0  0  0
    8.5491   -9.6056    0.0000 C   0  0  0  0  0  0  0  0  0  0  0  0
    8.5491  -10.4306    0.0000 C   0  0  0  0  0  0  0  0  0  0  0  0
    7.8346  -10.8431    0.0000 C   0  0  0  0  0  0  0  0  0  0  0  0
    5.9932   -6.0037    0.0000 C   0  0  0  0  0  0  0  0  0  0  0  0
    6.4057   -5.2892    0.0000 O   0  0  0  0  0  0  0  0  0  0  0  0
    5.1682   -6.0037    0.0000 O   0  0  0  0  0  0  0  0  0  0  0  0
    7.1201   -6.3056    0.0000 H   0  0  0  0  0  0  0  0  0  0  0  0
  2  1  2  0  0  0  0
 18  2  1  0  0  0  0
  9  3  1  6  0  0  0
  5  4  1  1  0  0  0
 10  5  1  0  0  0  0
  6  5  1  0  0  0  0
  7  6  1  0  0  0  0
  8  7  1  0  0  0  0
  9  8  1  0  0  0  0
 15  9  1  0  0  0  0
 10  9  1  0  0  0  0
 10 11  1  0  0  0  0
 12 11  1  0  0  0  0
 14 12  1  0  0  0  0
 14 13  2  0  0  0  0
 15 14  1  0  0  0  0
 15 16  1  6  0  0  0
 17 16  1  0  0  0  0
 18 17  2  0  0  0  0
 19 18  1  0  0  0  0
  5 20  1  0  0  0  0
 20 21  2  0  0  0  0
 20 22  1  0  0  0  0
 10 23  1  1  0  0  0
M  END
>  <cdx:fragmentId>
11145

$$$$
