101637226.cdx
  Mrv1902 05222410232D          

 43 50  0  0  0  0            999 V2000
    8.2918   -9.6274    0.0000 C   0  0  2  0  0  0  0  0  0  0  0  0
    9.0764   -9.3725    0.0000 C   0  0  1  0  0  0  0  0  0  0  0  0
    9.5614  -10.0399    0.0000 O   0  0  0  0  0  0  0  0  0  0  0  0
    9.0764  -10.7074    0.0000 C   0  0  0  0  0  0  0  0  0  0  0  0
    8.2918  -10.4524    0.0000 C   0  0  1  0  0  0  0  0  0  0  0  0
    7.7084  -11.0358    0.0000 C   0  0  0  0  0  0  0  0  0  0  0  0
    6.8834  -11.0358    0.0000 C   0  0  0  0  0  0  0  0  0  0  0  0
    6.3001  -10.4524    0.0000 C   0  0  2  0  0  0  0  0  0  0  0  0
    5.5856  -10.8649    0.0000 C   0  0  1  0  0  0  0  0  0  0  0  0
    5.5856  -11.6899    0.0000 C   0  0  0  0  0  0  0  0  0  0  0  0
    4.8711  -12.1024    0.0000 C   0  0  0  0  0  0  0  0  0  0  0  0
    4.1567  -11.6899    0.0000 C   0  0  0  0  0  0  0  0  0  0  0  0
    4.1567  -10.8649    0.0000 C   0  0  0  0  0  0  0  0  0  0  0  0
    4.8711  -10.4524    0.0000 C   0  0  0  0  0  0  0  0  0  0  0  0
    4.8711   -9.6274    0.0000 C   0  0  0  0  0  0  0  0  0  0  0  0
    5.5856   -9.2149    0.0000 C   0  0  2  0  0  0  0  0  0  0  0  0
    6.3001   -9.6274    0.0000 C   0  0  1  0  0  0  0  0  0  0  0  0
    6.8834   -9.0441    0.0000 C   0  0  2  0  0  0  0  0  0  0  0  0
    6.4143   -7.8903    0.0000 O   0  0  0  0  0  0  0  0  0  0  0  0
    6.9905   -7.2997    0.0000 C   0  0  0  0  0  0  0  0  0  0  0  0
    7.8115   -7.3820    0.0000 C   0  0  2  0  0  0  0  0  0  0  0  0
    8.8006   -6.9640    0.0000 C   0  0  0  0  0  0  0  0  0  0  0  0
    9.6553   -7.6119    0.0000 O   0  0  0  0  0  0  0  0  0  0  0  0
    9.5180   -8.6756    0.0000 C   0  0  2  0  0  0  0  0  0  0  0  0
    9.0783   -7.9776    0.0000 C   0  0  0  0  0  0  0  0  0  0  0  0
    8.2590   -8.0751    0.0000 C   0  0  1  0  0  0  0  0  0  0  0  0
    7.9962   -8.8572    0.0000 C   0  0  2  0  0  0  0  0  0  0  0  0
    7.7084   -9.0441    0.0000 O   0  0  0  0  0  0  0  0  0  0  0  0
    7.2208   -9.1393    0.0000 C   0  0  0  0  0  0  0  0  0  0  0  0
    9.3314  -11.4920    0.0000 O   0  0  0  0  0  0  0  0  0  0  0  0
    6.3001  -12.1024    0.0000 O   0  0  0  0  0  0  0  0  0  0  0  0
    8.9030   -6.1454    0.0000 O   0  0  0  0  0  0  0  0  0  0  0  0
    7.2208   -9.9643    0.0000 O   0  0  0  0  0  0  0  0  0  0  0  0
    8.5684   -7.5393    0.0000 C   0  0  0  0  0  0  0  0  0  0  0  0
    5.5856  -10.0399    0.0000 C   0  0  0  0  0  0  0  0  0  0  0  0
    9.9014   -9.3725    0.0000 C   0  0  0  0  0  0  0  0  0  0  0  0
    5.5856   -8.3899    0.0000 O   0  0  0  0  0  0  0  0  0  0  0  0
    8.4844  -11.2546    0.0000 O   0  0  0  0  0  0  0  0  0  0  0  0
    6.3001  -11.2774    0.0000 H   0  0  0  0  0  0  0  0  0  0  0  0
    6.1924   -8.8095    0.0000 H   0  0  0  0  0  0  0  0  0  0  0  0
    7.6882   -6.5662    0.0000 H   0  0  0  0  0  0  0  0  0  0  0  0
   10.2940   -8.9559    0.0000 H   0  0  0  0  0  0  0  0  0  0  0  0
    7.4056   -8.2811    0.0000 H   0  0  0  0  0  0  0  0  0  0  0  0
  1  2  1  0  0  0  0
  2  3  1  0  0  0  0
  3  4  1  0  0  0  0
  4  5  1  0  0  0  0
  5  6  1  0  0  0  0
  6  7  1  0  0  0  0
  7  8  1  0  0  0  0
  8  9  1  0  0  0  0
  9 10  1  0  0  0  0
 10 11  1  0  0  0  0
 11 12  2  0  0  0  0
 12 13  1  0  0  0  0
 13 14  1  0  0  0  0
 14 15  2  0  0  0  0
 15 16  1  0  0  0  0
 16 17  1  0  0  0  0
 17 18  1  0  0  0  0
 18 19  1  0  0  0  0
 19 20  1  0  0  0  0
 20 21  1  0  0  0  0
 21 22  1  0  0  0  0
 22 23  1  0  0  0  0
 23 24  1  0  0  0  0
 24 25  1  6  0  0  0
 25 26  1  0  0  0  0
 26 27  1  0  0  0  0
  1 27  1  0  0  0  0
  1 28  1  1  0  0  0
 18 28  1  6  0  0  0
 27 29  1  0  0  0  0
 29 18  1  0  0  0  0
 21 26  1  0  0  0  0
  2 24  1  0  0  0  0
  8 17  1  0  0  0  0
  9 14  1  0  0  0  0
  1  5  1  0  0  0  0
  4 30  2  0  0  0  0
 10 31  2  0  0  0  0
 22 32  2  0  0  0  0
 29 33  2  0  0  0  0
 26 34  1  6  0  0  0
  9 35  1  6  0  0  0
  2 36  1  1  0  0  0
 16 37  1  1  0  0  0
  5 38  1  6  0  0  0
  8 39  1  1  0  0  0
 17 40  1  6  0  0  0
 21 41  1  1  0  0  0
 24 42  1  0  0  0  0
 27 43  1  6  0  0  0
M  END
>  <cdx:groupId>
256963

>  <cdx:fragmentId>
256830

$$$$
