101637228.cdx
  Mrv1902 05222410222D          

 42 48  0  0  0  0            999 V2000
    8.2176  -10.2627    0.0000 C   0  0  1  0  0  0  0  0  0  0  0  0
    7.9539  -11.0444    0.0000 C   0  0  1  0  0  0  0  0  0  0  0  0
    8.2496  -11.8146    0.0000 C   0  0  1  0  0  0  0  0  0  0  0  0
    7.6662  -11.2313    0.0000 O   0  0  0  0  0  0  0  0  0  0  0  0
    6.8412  -11.2313    0.0000 C   0  0  1  0  0  0  0  0  0  0  0  0
    6.2578  -11.8146    0.0000 C   0  0  2  0  0  0  0  0  0  0  0  0
    5.5434  -11.4021    0.0000 C   0  0  1  0  0  0  0  0  0  0  0  0
    4.8289  -11.8146    0.0000 C   0  0  0  0  0  0  0  0  0  0  0  0
    4.8289  -12.6396    0.0000 C   0  0  0  0  0  0  0  0  0  0  0  0
    4.1144  -13.0521    0.0000 C   0  0  0  0  0  0  0  0  0  0  0  0
    4.1144  -13.8771    0.0000 C   0  0  0  0  0  0  0  0  0  0  0  0
    4.8289  -14.2896    0.0000 C   0  0  0  0  0  0  0  0  0  0  0  0
    5.5434  -13.8771    0.0000 C   0  0  0  0  0  0  0  0  0  0  0  0
    5.5434  -13.0521    0.0000 C   0  0  2  0  0  0  0  0  0  0  0  0
    6.2578  -12.6396    0.0000 C   0  0  1  0  0  0  0  0  0  0  0  0
    6.8412  -13.2230    0.0000 C   0  0  0  0  0  0  0  0  0  0  0  0
    7.6662  -13.2230    0.0000 C   0  0  0  0  0  0  0  0  0  0  0  0
    8.2496  -12.6396    0.0000 C   0  0  2  0  0  0  0  0  0  0  0  0
    9.0342  -12.8946    0.0000 C   0  0  0  0  0  0  0  0  0  0  0  0
    9.5191  -12.2271    0.0000 O   0  0  0  0  0  0  0  0  0  0  0  0
    9.0342  -11.5597    0.0000 C   0  0  1  0  0  0  0  0  0  0  0  0
    9.4766  -10.8632    0.0000 C   0  0  2  0  0  0  0  0  0  0  0  0
    9.8223  -10.1369    0.0000 O   0  0  0  0  0  0  0  0  0  0  0  0
    9.3665   -9.4742    0.0000 C   0  0  0  0  0  0  0  0  0  0  0  0
    8.5646   -9.5370    0.0000 C   0  0  1  0  0  0  0  0  0  0  0  0
    9.0368  -10.1652    0.0000 C   0  0  0  0  0  0  0  0  0  0  0  0
    7.2977  -10.5441    0.0000 C   0  0  0  0  0  0  0  0  0  0  0  0
    6.2578  -14.2896    0.0000 O   0  0  0  0  0  0  0  0  0  0  0  0
    9.2891  -13.6792    0.0000 O   0  0  0  0  0  0  0  0  0  0  0  0
    9.7790   -8.7597    0.0000 O   0  0  0  0  0  0  0  0  0  0  0  0
    7.1609   -9.7305    0.0000 O   0  0  0  0  0  0  0  0  0  0  0  0
    8.1521   -8.8226    0.0000 C   0  0  0  0  0  0  0  0  0  0  0  0
    9.8592  -11.5597    0.0000 C   0  0  0  0  0  0  0  0  0  0  0  0
    5.5434  -12.2271    0.0000 C   0  0  0  0  0  0  0  0  0  0  0  0
    7.5187   -9.8243    0.0000 C   0  0  0  0  0  0  0  0  0  0  0  0
    8.4422  -13.4419    0.0000 O   0  0  0  0  0  0  0  0  0  0  0  0
    5.5434  -10.5771    0.0000 O   0  0  0  0  0  0  0  0  0  0  0  0
    6.3032  -10.6059    0.0000 O   0  0  0  0  0  0  0  0  0  0  0  0
    8.7787  -11.0274    0.0000 H   0  0  0  0  0  0  0  0  0  0  0  0
    6.0098  -11.0278    0.0000 H   0  0  0  0  0  0  0  0  0  0  0  0
    6.2578  -13.4646    0.0000 H   0  0  0  0  0  0  0  0  0  0  0  0
   10.1910  -11.2757    0.0000 H   0  0  0  0  0  0  0  0  0  0  0  0
  1  2  1  0  0  0  0
  2  3  1  0  0  0  0
  3  4  1  1  0  0  0
  5  4  1  6  0  0  0
  5  6  1  0  0  0  0
  6  7  1  0  0  0  0
  7  8  1  0  0  0  0
  8  9  2  0  0  0  0
  9 10  1  0  0  0  0
 10 11  1  0  0  0  0
 11 12  2  0  0  0  0
 12 13  1  0  0  0  0
 13 14  1  0  0  0  0
 14 15  1  0  0  0  0
 15 16  1  0  0  0  0
 16 17  1  0  0  0  0
 17 18  1  0  0  0  0
 18 19  1  0  0  0  0
 19 20  1  0  0  0  0
 20 21  1  0  0  0  0
 21 22  1  0  0  0  0
 22 23  1  0  0  0  0
 23 24  1  0  0  0  0
 24 25  1  0  0  0  0
  1 25  1  0  0  0  0
  1 26  1  6  0  0  0
 22 26  1  6  0  0  0
  3 21  1  0  0  0  0
  3 18  1  0  0  0  0
  6 15  1  0  0  0  0
  9 14  1  0  0  0  0
  5 27  1  0  0  0  0
 27  2  1  0  0  0  0
 13 28  2  0  0  0  0
 19 29  2  0  0  0  0
 24 30  2  0  0  0  0
 27 31  2  0  0  0  0
 25 32  1  6  0  0  0
 21 33  1  1  0  0  0
 14 34  1  6  0  0  0
  1 35  1  0  0  0  0
 18 36  1  6  0  0  0
  7 37  1  1  0  0  0
  5 38  1  0  0  0  0
  2 39  1  6  0  0  0
  6 40  1  6  0  0  0
 15 41  1  1  0  0  0
 22 42  1  0  0  0  0
M  END
>  <cdx:groupId>
1571

>  <cdx:fragmentId>
1442

$$$$
