637282.cdx
  Mrv1902 05222410282D          

 20 22  0  0  0  0            999 V2000
    7.7228   -5.4704    0.0000 C   0  0  2  0  0  0  0  0  0  0  0  0
    7.0778   -5.9848    0.0000 C   0  0  2  0  0  0  0  0  0  0  0  0
    6.2932   -5.7299    0.0000 C   0  0  0  0  0  0  0  0  0  0  0  0
    5.8083   -6.3973    0.0000 C   0  0  0  0  0  0  0  0  0  0  0  0
    6.2932   -7.0648    0.0000 C   0  0  1  0  0  0  0  0  0  0  0  0
    7.0778   -6.8098    0.0000 C   0  0  1  0  0  0  0  0  0  0  0  0
    7.7228   -7.3242    0.0000 C   0  0  1  0  0  0  0  0  0  0  0  0
    8.5272   -7.1406    0.0000 C   0  0  1  0  0  0  0  0  0  0  0  0
    8.8851   -6.3973    0.0000 C   0  0  0  0  0  0  0  0  0  0  0  0
    8.5272   -5.6540    0.0000 C   0  0  0  0  0  0  0  0  0  0  0  0
    7.7275   -6.4625    0.0000 O   0  0  0  0  0  0  0  0  0  0  0  0
    6.2932   -7.8898    0.0000 O   0  0  0  0  0  0  0  0  0  0  0  0
    7.7228   -8.1492    0.0000 O   0  0  0  0  0  0  0  0  0  0  0  0
    8.7401   -8.5536    0.0000 C   0  0  0  0  0  0  0  0  0  0  0  0
    9.0415   -7.7856    0.0000 C   0  0  0  0  0  0  0  0  0  0  0  0
    9.8573   -7.6627    0.0000 C   0  0  0  0  0  0  0  0  0  0  0  0
    5.6801   -7.6168    0.0000 C   0  0  0  0  0  0  0  0  0  0  0  0
    7.5393   -4.6661    0.0000 C   0  0  0  0  0  0  0  0  0  0  0  0
    6.9305   -5.1731    0.0000 H   0  0  0  0  0  0  0  0  0  0  0  0
    7.0778   -7.6348    0.0000 H   0  0  0  0  0  0  0  0  0  0  0  0
  1  2  1  0  0  0  0
  2  3  1  0  0  0  0
  3  4  1  0  0  0  0
  4  5  1  0  0  0  0
  5  6  1  0  0  0  0
  6  7  1  0  0  0  0
  7  8  1  0  0  0  0
  8  9  1  0  0  0  0
  9 10  1  0  0  0  0
  1 10  1  0  0  0  0
  1 11  1  6  0  0  0
  8 11  1  6  0  0  0
  2  6  1  0  0  0  0
  5 12  1  1  0  0  0
  7 13  1  1  0  0  0
 14 15  1  0  0  0  0
 15 16  1  0  0  0  0
  8 15  1  1  0  0  0
  5 17  1  0  0  0  0
  1 18  1  1  0  0  0
  2 19  1  6  0  0  0
  6 20  1  1  0  0  0
M  END
>  <cdx:fragmentId>
11270

$$$$
