637523.cdx
  Mrv1902 05222410262D          

 13 12  0  0  0  0            999 V2000
    6.1748   -6.2346    0.0000 C   0  0  0  0  0  0  0  0  0  0  0  0
    5.4603   -6.6471    0.0000 C   0  0  0  0  0  0  0  0  0  0  0  0
    5.4603   -7.4721    0.0000 C   0  0  0  0  0  0  0  0  0  0  0  0
    4.7459   -6.2346    0.0000 C   0  0  0  0  0  0  0  0  0  0  0  0
    4.0314   -6.6471    0.0000 C   0  0  0  0  0  0  0  0  0  0  0  0
    6.1748   -5.4096    0.0000 O   0  0  0  0  0  0  0  0  0  0  0  0
    6.8893   -6.6471    0.0000 O   0  0  0  0  0  0  0  0  0  0  0  0
    7.6038   -6.2346    0.0000 C   0  0  0  0  0  0  0  0  0  0  0  0
    8.3182   -6.6471    0.0000 C   0  0  0  0  0  0  0  0  0  0  0  0
    9.0327   -6.2346    0.0000 C   0  0  0  0  0  0  0  0  0  0  0  0
    9.7472   -6.6471    0.0000 C   0  0  0  0  0  0  0  0  0  0  0  0
   10.4616   -6.2346    0.0000 C   0  0  0  0  0  0  0  0  0  0  0  0
   11.1761   -6.6471    0.0000 C   0  0  0  0  0  0  0  0  0  0  0  0
  1  2  1  0  0  0  0
  2  3  1  0  0  0  0
  2  4  2  0  0  0  0
  4  5  1  0  0  0  0
  1  6  2  0  0  0  0
  1  7  1  0  0  0  0
  8  9  1  0  0  0  0
  9 10  1  0  0  0  0
 10 11  1  0  0  0  0
 11 12  1  0  0  0  0
 12 13  1  0  0  0  0
  7  8  1  0  0  0  0
M  END
>  <cdx:fragmentId>
11512

$$$$
