637632.cdx
  Mrv1902 05222410252D          

 57 64  0  0  0  0            999 V2000
    2.7161   -8.7207    0.0000 O   0  0  0  0  0  0  0  0  0  0  0  0
    2.7161   -9.5457    0.0000 C   0  0  2  0  0  0  0  0  0  0  0  0
    2.0016   -9.9582    0.0000 C   0  0  1  0  0  0  0  0  0  0  0  0
    1.2871   -9.5457    0.0000 C   0  0  2  0  0  0  0  0  0  0  0  0
    1.2871   -8.7207    0.0000 C   0  0  1  0  0  0  0  0  0  0  0  0
    2.0016   -8.3082    0.0000 C   0  0  1  0  0  0  0  0  0  0  0  0
    2.0016  -10.7832    0.0000 O   0  0  0  0  0  0  0  0  0  0  0  0
    0.5726   -9.9582    0.0000 O   0  0  0  0  0  0  0  0  0  0  0  0
    0.5726   -8.3082    0.0000 O   0  0  0  0  0  0  0  0  0  0  0  0
    2.0016   -7.4832    0.0000 C   0  0  0  0  0  0  0  0  0  0  0  0
    1.2871   -7.0707    0.0000 O   0  0  0  0  0  0  0  0  0  0  0  0
    3.4305   -9.9582    0.0000 O   0  0  0  0  0  0  0  0  0  0  0  0
    5.5739   -8.7207    0.0000 O   0  0  0  0  0  0  0  0  0  0  0  0
    5.5739   -9.5457    0.0000 C   0  0  2  0  0  0  0  0  0  0  0  0
    4.8595   -9.9582    0.0000 C   0  0  1  0  0  0  0  0  0  0  0  0
    4.1450   -9.5457    0.0000 C   0  0  2  0  0  0  0  0  0  0  0  0
    4.1450   -8.7207    0.0000 C   0  0  2  0  0  0  0  0  0  0  0  0
    4.8595   -8.3082    0.0000 C   0  0  1  0  0  0  0  0  0  0  0  0
    4.8595   -7.4832    0.0000 C   0  0  0  0  0  0  0  0  0  0  0  0
    6.2884   -9.9582    0.0000 O   0  0  0  0  0  0  0  0  0  0  0  0
   12.0042   -7.4832    0.0000 C   0  0  0  0  0  0  0  0  0  0  0  0
   12.0042   -8.3082    0.0000 C   0  0  2  0  0  0  0  0  0  0  0  0
   11.2897   -8.7207    0.0000 C   0  0  0  0  0  0  0  0  0  0  0  0
   10.5752   -8.3082    0.0000 C   0  0  1  0  0  0  0  0  0  0  0  0
    9.8608   -8.7207    0.0000 C   0  0  2  0  0  0  0  0  0  0  0  0
    9.8608   -9.5457    0.0000 C   0  0  0  0  0  0  0  0  0  0  0  0
    9.1463   -9.9582    0.0000 C   0  0  0  0  0  0  0  0  0  0  0  0
    8.4318   -9.5457    0.0000 C   0  0  1  0  0  0  0  0  0  0  0  0
    7.7174   -9.9582    0.0000 C   0  0  1  0  0  0  0  0  0  0  0  0
    7.0029   -9.5457    0.0000 C   0  0  2  0  0  0  0  0  0  0  0  0
    7.0029   -8.7207    0.0000 C   0  0  0  0  0  0  0  0  0  0  0  0
    7.7174   -8.3082    0.0000 C   0  0  0  0  0  0  0  0  0  0  0  0
    8.4318   -8.7207    0.0000 C   0  0  2  0  0  0  0  0  0  0  0  0
    9.1463   -8.3082    0.0000 C   0  0  1  0  0  0  0  0  0  0  0  0
    9.1463   -7.4832    0.0000 C   0  0  0  0  0  0  0  0  0  0  0  0
    9.8608   -7.0707    0.0000 C   0  0  0  0  0  0  0  0  0  0  0  0
   10.5752   -7.4832    0.0000 C   0  0  0  0  0  0  0  0  0  0  0  0
   11.2897   -7.0707    0.0000 C   0  0  2  0  0  0  0  0  0  0  0  0
   11.2897   -6.2457    0.0000 C   0  0  0  0  0  0  0  0  0  0  0  0
   12.0042   -5.8332    0.0000 C   0  0  2  0  0  0  0  0  0  0  0  0
   12.7187   -6.2457    0.0000 C   0  0  0  0  0  0  0  0  0  0  0  0
   12.7187   -7.0707    0.0000 C   0  0  0  0  0  0  0  0  0  0  0  0
   11.5917   -5.1187    0.0000 C   0  0  0  0  0  0  0  0  0  0  0  0
   12.4167   -5.1187    0.0000 C   0  0  0  0  0  0  0  0  0  0  0  0
    8.4318   -7.8957    0.0000 C   0  0  0  0  0  0  0  0  0  0  0  0
    8.1299  -10.6726    0.0000 C   0  0  0  0  0  0  0  0  0  0  0  0
    7.3049  -10.6726    0.0000 C   0  0  0  0  0  0  0  0  0  0  0  0
    9.8608   -7.8957    0.0000 C   0  0  0  0  0  0  0  0  0  0  0  0
   10.5752   -9.1332    0.0000 C   0  0  0  0  0  0  0  0  0  0  0  0
   12.7187   -8.7207    0.0000 O   0  0  0  0  0  0  0  0  0  0  0  0
    3.4305   -8.3082    0.0000 O   0  0  0  0  0  0  0  0  0  0  0  0
    4.8595  -10.7832    0.0000 O   0  0  0  0  0  0  0  0  0  0  0  0
   10.5752   -6.6582    0.0000 O   0  0  0  0  0  0  0  0  0  0  0  0
   12.0042   -6.6582    0.0000 C   0  0  0  0  0  0  0  0  0  0  0  0
   11.2897   -7.8957    0.0000 H   0  0  0  0  0  0  0  0  0  0  0  0
    8.4318  -10.3707    0.0000 H   0  0  0  0  0  0  0  0  0  0  0  0
    9.1463   -9.1332    0.0000 H   0  0  0  0  0  0  0  0  0  0  0  0
  1  2  1  0  0  0  0
  2  3  1  0  0  0  0
  3  4  1  0  0  0  0
  4  5  1  0  0  0  0
  5  6  1  0  0  0  0
  1  6  1  0  0  0  0
  3  7  1  6  0  0  0
  4  8  1  1  0  0  0
  5  9  1  6  0  0  0
 10 11  1  0  0  0  0
  6 10  1  1  0  0  0
 13 14  1  0  0  0  0
 14 15  1  0  0  0  0
 15 16  1  0  0  0  0
 16 17  1  0  0  0  0
 17 18  1  0  0  0  0
 13 18  1  0  0  0  0
 18 19  1  1  0  0  0
 21 22  1  0  0  0  0
 22 23  1  0  0  0  0
 23 24  1  0  0  0  0
 24 25  1  0  0  0  0
 25 26  1  0  0  0  0
 26 27  1  0  0  0  0
 27 28  1  0  0  0  0
 28 29  1  0  0  0  0
 29 30  1  0  0  0  0
 30 31  1  0  0  0  0
 31 32  1  0  0  0  0
 32 33  1  0  0  0  0
 33 34  1  0  0  0  0
 34 35  1  0  0  0  0
 35 36  2  0  0  0  0
 36 37  1  0  0  0  0
 37 38  1  0  0  0  0
 38 39  1  0  0  0  0
 39 40  1  0  0  0  0
 40 41  1  0  0  0  0
 41 42  1  0  0  0  0
 21 42  1  0  0  0  0
 21 38  1  0  0  0  0
 24 37  1  0  0  0  0
 25 34  1  0  0  0  0
 28 33  1  0  0  0  0
 40 43  1  1  0  0  0
 40 44  1  6  0  0  0
 33 45  1  1  0  0  0
 29 46  1  6  0  0  0
 29 47  1  1  0  0  0
 25 48  1  1  0  0  0
 24 49  1  6  0  0  0
 22 50  1  1  0  0  0
 30 20  1  1  0  0  0
 14 20  1  1  0  0  0
 17 51  1  1  0  0  0
 15 52  1  6  0  0  0
 16 12  1  1  0  0  0
  2 12  1  1  0  0  0
 37 53  1  0  0  0  0
 21 54  1  0  0  0  0
 54 53  1  0  0  0  0
 38 55  1  1  0  0  0
 28 56  1  6  0  0  0
 34 57  1  6  0  0  0
M  END
>  <cdx:fragmentId>
139000

$$$$
