637654.cdx
  Mrv1902 05222410262D          

 29 32  0  0  0  0            999 V2000
    6.1011   -7.4987    0.0000 O   0  0  0  0  0  0  0  0  0  0  0  0
    6.8155   -7.9112    0.0000 C   0  0  2  0  0  0  0  0  0  0  0  0
    6.8155   -8.7362    0.0000 C   0  0  1  0  0  0  0  0  0  0  0  0
    6.1011   -9.1487    0.0000 C   0  0  2  0  0  0  0  0  0  0  0  0
    5.3866   -8.7362    0.0000 C   0  0  1  0  0  0  0  0  0  0  0  0
    5.3866   -7.9112    0.0000 C   0  0  1  0  0  0  0  0  0  0  0  0
    7.5300   -9.1487    0.0000 O   0  0  0  0  0  0  0  0  0  0  0  0
    6.1011   -9.9737    0.0000 O   0  0  0  0  0  0  0  0  0  0  0  0
    4.6721   -9.1487    0.0000 O   0  0  0  0  0  0  0  0  0  0  0  0
    4.6721   -7.4987    0.0000 C   0  0  0  0  0  0  0  0  0  0  0  0
    3.9576   -7.9112    0.0000 O   0  0  0  0  0  0  0  0  0  0  0  0
    7.5300   -7.4987    0.0000 O   0  0  0  0  0  0  0  0  0  0  0  0
    6.8155   -5.4362    0.0000 C   0  0  2  0  0  0  0  0  0  0  0  0
    7.5350   -5.6375    0.0000 O   0  0  0  0  0  0  0  0  0  0  0  0
    8.6075   -5.8575    0.0000 C   0  0  0  0  0  0  0  0  0  0  0  0
    9.0291   -6.5161    0.0000 C   0  0  0  0  0  0  0  0  0  0  0  0
    9.5140   -5.8487    0.0000 C   0  0  1  0  0  0  0  0  0  0  0  0
    9.0291   -5.1813    0.0000 C   0  0  2  0  0  0  0  0  0  0  0  0
    8.2445   -5.4362    0.0000 C   0  0  1  0  0  0  0  0  0  0  0  0
    8.2445   -6.2612    0.0000 C   0  0  2  0  0  0  0  0  0  0  0  0
    7.5300   -6.6737    0.0000 C   0  0  1  0  0  0  0  0  0  0  0  0
    6.8155   -6.2612    0.0000 O   0  0  0  0  0  0  0  0  0  0  0  0
    7.5300   -5.0237    0.0000 C   0  0  0  0  0  0  0  0  0  0  0  0
    9.2840   -4.3966    0.0000 O   0  0  0  0  0  0  0  0  0  0  0  0
    9.4416   -7.2306    0.0000 O   0  0  0  0  0  0  0  0  0  0  0  0
   10.3390   -5.8487    0.0000 Cl  0  0  0  0  0  0  0  0  0  0  0  0
    6.1011   -5.0237    0.0000 H   0  0  0  0  0  0  0  0  0  0  0  0
    8.2445   -4.6112    0.0000 H   0  0  0  0  0  0  0  0  0  0  0  0
    8.2445   -7.0862    0.0000 H   0  0  0  0  0  0  0  0  0  0  0  0
  1  2  1  0  0  0  0
  2  3  1  0  0  0  0
  3  4  1  0  0  0  0
  4  5  1  0  0  0  0
  5  6  1  0  0  0  0
  1  6  1  0  0  0  0
  3  7  1  6  0  0  0
  4  8  1  1  0  0  0
  5  9  1  6  0  0  0
 10 11  1  0  0  0  0
  6 10  1  1  0  0  0
 13 14  1  0  0  0  0
 14 15  1  0  0  0  0
 15 16  1  0  0  0  0
 16 17  1  0  0  0  0
 17 18  1  0  0  0  0
 18 19  1  0  0  0  0
 19 20  1  0  0  0  0
 20 21  1  0  0  0  0
 21 22  1  0  0  0  0
 13 22  1  0  0  0  0
 13 23  1  0  0  0  0
 23 19  1  0  0  0  0
 16 20  1  0  0  0  0
 18 24  1  6  0  0  0
 16 25  1  0  0  0  0
 17 26  1  1  0  0  0
 21 12  1  6  0  0  0
  2 12  1  1  0  0  0
 13 27  1  1  0  0  0
 19 28  1  6  0  0  0
 20 29  1  6  0  0  0
M  END
>  <cdx:fragmentId>
139562

$$$$
