637634.cdx
  Mrv1902 05222410242D          

 61 68  0  0  0  0            999 V2000
    1.8509  -11.1132    0.0000 C   0  0  0  0  0  0  0  0  0  0  0  0
    1.1364  -10.7007    0.0000 C   0  0  0  0  0  0  0  0  0  0  0  0
    1.8509  -11.9382    0.0000 O   0  0  0  0  0  0  0  0  0  0  0  0
    2.5653  -10.7007    0.0000 O   0  0  0  0  0  0  0  0  0  0  0  0
    3.2798   -8.6382    0.0000 O   0  0  0  0  0  0  0  0  0  0  0  0
    3.2798   -9.4632    0.0000 C   0  0  2  0  0  0  0  0  0  0  0  0
    2.5653   -9.8757    0.0000 C   0  0  1  0  0  0  0  0  0  0  0  0
    1.8509   -9.4632    0.0000 C   0  0  2  0  0  0  0  0  0  0  0  0
    1.8509   -8.6382    0.0000 C   0  0  1  0  0  0  0  0  0  0  0  0
    2.5653   -8.2257    0.0000 C   0  0  1  0  0  0  0  0  0  0  0  0
    2.5653   -7.4007    0.0000 C   0  0  0  0  0  0  0  0  0  0  0  0
    1.8509   -6.9882    0.0000 O   0  0  0  0  0  0  0  0  0  0  0  0
    1.1364   -8.2257    0.0000 O   0  0  0  0  0  0  0  0  0  0  0  0
    1.1364   -9.8757    0.0000 O   0  0  0  0  0  0  0  0  0  0  0  0
    3.9943   -9.8757    0.0000 O   0  0  0  0  0  0  0  0  0  0  0  0
    6.1377   -8.6382    0.0000 O   0  0  0  0  0  0  0  0  0  0  0  0
    6.1377   -9.4632    0.0000 C   0  0  2  0  0  0  0  0  0  0  0  0
    5.4232   -9.8757    0.0000 C   0  0  1  0  0  0  0  0  0  0  0  0
    4.7088   -9.4632    0.0000 C   0  0  2  0  0  0  0  0  0  0  0  0
    4.7088   -8.6382    0.0000 C   0  0  2  0  0  0  0  0  0  0  0  0
    5.4232   -8.2257    0.0000 C   0  0  1  0  0  0  0  0  0  0  0  0
    5.4232   -7.4007    0.0000 C   0  0  0  0  0  0  0  0  0  0  0  0
    6.8522   -9.8757    0.0000 O   0  0  0  0  0  0  0  0  0  0  0  0
   12.5679   -7.4007    0.0000 C   0  0  0  0  0  0  0  0  0  0  0  0
   12.5679   -8.2257    0.0000 C   0  0  2  0  0  0  0  0  0  0  0  0
   11.8535   -8.6382    0.0000 C   0  0  0  0  0  0  0  0  0  0  0  0
   11.1390   -8.2257    0.0000 C   0  0  1  0  0  0  0  0  0  0  0  0
   10.4245   -8.6382    0.0000 C   0  0  2  0  0  0  0  0  0  0  0  0
   10.4245   -9.4632    0.0000 C   0  0  0  0  0  0  0  0  0  0  0  0
    9.7100   -9.8757    0.0000 C   0  0  0  0  0  0  0  0  0  0  0  0
    8.9956   -9.4632    0.0000 C   0  0  1  0  0  0  0  0  0  0  0  0
    8.2811   -9.8757    0.0000 C   0  0  2  0  0  0  0  0  0  0  0  0
    7.5666   -9.4632    0.0000 C   0  0  2  0  0  0  0  0  0  0  0  0
    7.5666   -8.6382    0.0000 C   0  0  0  0  0  0  0  0  0  0  0  0
    8.2811   -8.2257    0.0000 C   0  0  0  0  0  0  0  0  0  0  0  0
    8.9956   -8.6382    0.0000 C   0  0  2  0  0  0  0  0  0  0  0  0
    9.7100   -8.2257    0.0000 C   0  0  1  0  0  0  0  0  0  0  0  0
    9.7100   -7.4007    0.0000 C   0  0  0  0  0  0  0  0  0  0  0  0
   10.4245   -6.9882    0.0000 C   0  0  0  0  0  0  0  0  0  0  0  0
   11.1390   -7.4007    0.0000 C   0  0  0  0  0  0  0  0  0  0  0  0
   11.8535   -6.9882    0.0000 C   0  0  2  0  0  0  0  0  0  0  0  0
   11.8535   -6.1632    0.0000 C   0  0  0  0  0  0  0  0  0  0  0  0
   12.5679   -5.7507    0.0000 C   0  0  2  0  0  0  0  0  0  0  0  0
   13.2824   -6.1632    0.0000 C   0  0  0  0  0  0  0  0  0  0  0  0
   13.2824   -6.9882    0.0000 C   0  0  0  0  0  0  0  0  0  0  0  0
   12.1554   -5.0362    0.0000 C   0  0  0  0  0  0  0  0  0  0  0  0
   12.9804   -5.0362    0.0000 C   0  0  0  0  0  0  0  0  0  0  0  0
    8.9956   -7.8132    0.0000 C   0  0  0  0  0  0  0  0  0  0  0  0
    7.8686  -10.5901    0.0000 C   0  0  0  0  0  0  0  0  0  0  0  0
   10.4245   -7.8132    0.0000 C   0  0  0  0  0  0  0  0  0  0  0  0
   11.1390   -9.0507    0.0000 C   0  0  0  0  0  0  0  0  0  0  0  0
    8.6936  -10.5901    0.0000 C   0  0  0  0  0  0  0  0  0  0  0  0
    8.2811  -11.3046    0.0000 O   0  0  0  0  0  0  0  0  0  0  0  0
   13.2824   -8.6382    0.0000 O   0  0  0  0  0  0  0  0  0  0  0  0
    3.9943   -8.2257    0.0000 O   0  0  0  0  0  0  0  0  0  0  0  0
    5.4232  -10.7007    0.0000 O   0  0  0  0  0  0  0  0  0  0  0  0
    8.9956  -10.2882    0.0000 H   0  0  0  0  0  0  0  0  0  0  0  0
    9.7100   -9.0507    0.0000 H   0  0  0  0  0  0  0  0  0  0  0  0
   11.8535   -7.8132    0.0000 H   0  0  0  0  0  0  0  0  0  0  0  0
   11.1390   -6.5757    0.0000 O   0  0  0  0  0  0  0  0  0  0  0  0
   12.5679   -6.5757    0.0000 C   0  0  0  0  0  0  0  0  0  0  0  0
  1  2  1  0  0  0  0
  1  3  2  0  0  0  0
  1  4  1  0  0  0  0
  5  6  1  0  0  0  0
  6  7  1  0  0  0  0
  7  8  1  0  0  0  0
  8  9  1  0  0  0  0
  9 10  1  0  0  0  0
  5 10  1  0  0  0  0
 11 12  1  0  0  0  0
 10 11  1  1  0  0  0
  9 13  1  6  0  0  0
  8 14  1  1  0  0  0
 16 17  1  0  0  0  0
 17 18  1  0  0  0  0
 18 19  1  0  0  0  0
 19 20  1  0  0  0  0
 20 21  1  0  0  0  0
 16 21  1  0  0  0  0
 21 22  1  1  0  0  0
 24 25  1  0  0  0  0
 25 26  1  0  0  0  0
 26 27  1  0  0  0  0
 27 28  1  0  0  0  0
 28 29  1  0  0  0  0
 29 30  1  0  0  0  0
 30 31  1  0  0  0  0
 31 32  1  0  0  0  0
 32 33  1  0  0  0  0
 33 34  1  0  0  0  0
 34 35  1  0  0  0  0
 35 36  1  0  0  0  0
 36 37  1  0  0  0  0
 37 38  1  0  0  0  0
 38 39  2  0  0  0  0
 39 40  1  0  0  0  0
 40 41  1  0  0  0  0
 41 42  1  0  0  0  0
 42 43  1  0  0  0  0
 43 44  1  0  0  0  0
 44 45  1  0  0  0  0
 24 45  1  0  0  0  0
 24 41  1  0  0  0  0
 27 40  1  0  0  0  0
 28 37  1  0  0  0  0
 31 36  1  0  0  0  0
 43 46  1  1  0  0  0
 43 47  1  6  0  0  0
 36 48  1  1  0  0  0
 32 49  1  1  0  0  0
 28 50  1  1  0  0  0
 27 51  1  6  0  0  0
 52 53  1  0  0  0  0
 32 52  1  6  0  0  0
 25 54  1  1  0  0  0
 33 23  1  1  0  0  0
 17 23  1  1  0  0  0
 20 55  1  1  0  0  0
 18 56  1  6  0  0  0
 19 15  1  1  0  0  0
  6 15  1  1  0  0  0
  7  4  1  6  0  0  0
 31 57  1  6  0  0  0
 37 58  1  6  0  0  0
 41 59  1  1  0  0  0
 40 60  1  0  0  0  0
 24 61  1  0  0  0  0
 61 60  1  0  0  0  0
M  END
>  <cdx:fragmentId>
139193

$$$$
