637631.cdx
  Mrv1902 05222410252D          

 61 68  0  0  0  0            999 V2000
    0.9046   -9.8075    0.0000 C   0  0  0  0  0  0  0  0  0  0  0  0
    0.1901  -10.2200    0.0000 C   0  0  0  0  0  0  0  0  0  0  0  0
    0.9046   -8.9825    0.0000 O   0  0  0  0  0  0  0  0  0  0  0  0
    1.6190  -10.2200    0.0000 O   0  0  0  0  0  0  0  0  0  0  0  0
    3.7624   -8.9825    0.0000 O   0  0  0  0  0  0  0  0  0  0  0  0
    3.7624   -9.8075    0.0000 C   0  0  2  0  0  0  0  0  0  0  0  0
    3.0480  -10.2200    0.0000 C   0  0  1  0  0  0  0  0  0  0  0  0
    2.3335   -9.8075    0.0000 C   0  0  2  0  0  0  0  0  0  0  0  0
    2.3335   -8.9825    0.0000 C   0  0  1  0  0  0  0  0  0  0  0  0
    3.0480   -8.5700    0.0000 C   0  0  1  0  0  0  0  0  0  0  0  0
    3.0480   -7.7450    0.0000 C   0  0  0  0  0  0  0  0  0  0  0  0
    2.3335   -7.3325    0.0000 O   0  0  0  0  0  0  0  0  0  0  0  0
    1.6190   -8.5700    0.0000 O   0  0  0  0  0  0  0  0  0  0  0  0
    3.0480  -11.0450    0.0000 O   0  0  0  0  0  0  0  0  0  0  0  0
    4.4769  -10.2200    0.0000 O   0  0  0  0  0  0  0  0  0  0  0  0
    6.6203   -8.9825    0.0000 O   0  0  0  0  0  0  0  0  0  0  0  0
    6.6203   -9.8075    0.0000 C   0  0  2  0  0  0  0  0  0  0  0  0
    5.9059  -10.2200    0.0000 C   0  0  1  0  0  0  0  0  0  0  0  0
    5.1914   -9.8075    0.0000 C   0  0  2  0  0  0  0  0  0  0  0  0
    5.1914   -8.9825    0.0000 C   0  0  2  0  0  0  0  0  0  0  0  0
    5.9059   -8.5700    0.0000 C   0  0  1  0  0  0  0  0  0  0  0  0
    5.9059   -7.7450    0.0000 C   0  0  0  0  0  0  0  0  0  0  0  0
    7.3348  -10.2200    0.0000 O   0  0  0  0  0  0  0  0  0  0  0  0
   13.0506   -7.7450    0.0000 C   0  0  0  0  0  0  0  0  0  0  0  0
   13.0506   -8.5700    0.0000 C   0  0  2  0  0  0  0  0  0  0  0  0
   12.3361   -8.9825    0.0000 C   0  0  0  0  0  0  0  0  0  0  0  0
   11.6216   -8.5700    0.0000 C   0  0  1  0  0  0  0  0  0  0  0  0
   10.9072   -8.9825    0.0000 C   0  0  2  0  0  0  0  0  0  0  0  0
   10.9072   -9.8075    0.0000 C   0  0  0  0  0  0  0  0  0  0  0  0
   10.1927  -10.2200    0.0000 C   0  0  0  0  0  0  0  0  0  0  0  0
    9.4782   -9.8075    0.0000 C   0  0  1  0  0  0  0  0  0  0  0  0
    8.7637  -10.2200    0.0000 C   0  0  2  0  0  0  0  0  0  0  0  0
    8.0493   -9.8075    0.0000 C   0  0  2  0  0  0  0  0  0  0  0  0
    8.0493   -8.9825    0.0000 C   0  0  0  0  0  0  0  0  0  0  0  0
    8.7637   -8.5700    0.0000 C   0  0  0  0  0  0  0  0  0  0  0  0
    9.4782   -8.9825    0.0000 C   0  0  2  0  0  0  0  0  0  0  0  0
   10.1927   -8.5700    0.0000 C   0  0  1  0  0  0  0  0  0  0  0  0
   10.1927   -7.7450    0.0000 C   0  0  0  0  0  0  0  0  0  0  0  0
   10.9072   -7.3325    0.0000 C   0  0  0  0  0  0  0  0  0  0  0  0
   11.6216   -7.7450    0.0000 C   0  0  0  0  0  0  0  0  0  0  0  0
   12.3361   -7.3325    0.0000 C   0  0  2  0  0  0  0  0  0  0  0  0
   12.3361   -6.5075    0.0000 C   0  0  0  0  0  0  0  0  0  0  0  0
   13.0506   -6.0950    0.0000 C   0  0  2  0  0  0  0  0  0  0  0  0
   13.7650   -6.5075    0.0000 C   0  0  0  0  0  0  0  0  0  0  0  0
   13.7650   -7.3325    0.0000 C   0  0  0  0  0  0  0  0  0  0  0  0
   12.6381   -5.3805    0.0000 C   0  0  0  0  0  0  0  0  0  0  0  0
   13.4631   -5.3805    0.0000 C   0  0  0  0  0  0  0  0  0  0  0  0
    9.4782   -8.1575    0.0000 C   0  0  0  0  0  0  0  0  0  0  0  0
    8.3512  -10.9344    0.0000 C   0  0  0  0  0  0  0  0  0  0  0  0
   10.9072   -8.1575    0.0000 C   0  0  0  0  0  0  0  0  0  0  0  0
   11.6216   -9.3950    0.0000 C   0  0  0  0  0  0  0  0  0  0  0  0
    9.1762  -10.9344    0.0000 C   0  0  0  0  0  0  0  0  0  0  0  0
    8.7637  -11.6489    0.0000 O   0  0  0  0  0  0  0  0  0  0  0  0
   13.7650   -8.9825    0.0000 O   0  0  0  0  0  0  0  0  0  0  0  0
    4.4769   -8.5700    0.0000 O   0  0  0  0  0  0  0  0  0  0  0  0
    5.9059  -11.0450    0.0000 O   0  0  0  0  0  0  0  0  0  0  0  0
    9.4782  -10.6325    0.0000 H   0  0  0  0  0  0  0  0  0  0  0  0
   10.1927   -9.3950    0.0000 H   0  0  0  0  0  0  0  0  0  0  0  0
   12.3361   -8.1575    0.0000 H   0  0  0  0  0  0  0  0  0  0  0  0
   11.6216   -6.9200    0.0000 O   0  0  0  0  0  0  0  0  0  0  0  0
   13.0506   -6.9200    0.0000 C   0  0  0  0  0  0  0  0  0  0  0  0
  1  2  1  0  0  0  0
  1  3  2  0  0  0  0
  1  4  1  0  0  0  0
  5  6  1  0  0  0  0
  6  7  1  0  0  0  0
  7  8  1  0  0  0  0
  8  9  1  0  0  0  0
  9 10  1  0  0  0  0
  5 10  1  0  0  0  0
 11 12  1  0  0  0  0
 10 11  1  1  0  0  0
  9 13  1  6  0  0  0
  7 14  1  6  0  0  0
 16 17  1  0  0  0  0
 17 18  1  0  0  0  0
 18 19  1  0  0  0  0
 19 20  1  0  0  0  0
 20 21  1  0  0  0  0
 16 21  1  0  0  0  0
 21 22  1  1  0  0  0
 24 25  1  0  0  0  0
 25 26  1  0  0  0  0
 26 27  1  0  0  0  0
 27 28  1  0  0  0  0
 28 29  1  0  0  0  0
 29 30  1  0  0  0  0
 30 31  1  0  0  0  0
 31 32  1  0  0  0  0
 32 33  1  0  0  0  0
 33 34  1  0  0  0  0
 34 35  1  0  0  0  0
 35 36  1  0  0  0  0
 36 37  1  0  0  0  0
 37 38  1  0  0  0  0
 38 39  2  0  0  0  0
 39 40  1  0  0  0  0
 40 41  1  0  0  0  0
 41 42  1  0  0  0  0
 42 43  1  0  0  0  0
 43 44  1  0  0  0  0
 44 45  1  0  0  0  0
 24 45  1  0  0  0  0
 24 41  1  0  0  0  0
 27 40  1  0  0  0  0
 28 37  1  0  0  0  0
 31 36  1  0  0  0  0
 43 46  1  1  0  0  0
 43 47  1  6  0  0  0
 36 48  1  1  0  0  0
 32 49  1  1  0  0  0
 28 50  1  1  0  0  0
 27 51  1  6  0  0  0
 52 53  1  0  0  0  0
 32 52  1  6  0  0  0
 25 54  1  1  0  0  0
 33 23  1  1  0  0  0
 17 23  1  1  0  0  0
 20 55  1  1  0  0  0
 18 56  1  6  0  0  0
 19 15  1  1  0  0  0
  6 15  1  1  0  0  0
  8  4  1  1  0  0  0
 31 57  1  6  0  0  0
 37 58  1  6  0  0  0
 41 59  1  1  0  0  0
 40 60  1  0  0  0  0
 24 61  1  0  0  0  0
 61 60  1  0  0  0  0
M  END
>  <cdx:fragmentId>
138805

$$$$
