637642.cdx
  Mrv1902 05222410272D          

 57 63  0  0  0  0            999 V2000
    2.8989   -9.1200    0.0000 O   0  0  0  0  0  0  0  0  0  0  0  0
    2.8989   -9.9450    0.0000 C   0  0  2  0  0  0  0  0  0  0  0  0
    2.1845  -10.3575    0.0000 C   0  0  1  0  0  0  0  0  0  0  0  0
    1.4700   -9.9450    0.0000 C   0  0  2  0  0  0  0  0  0  0  0  0
    1.4700   -9.1200    0.0000 C   0  0  1  0  0  0  0  0  0  0  0  0
    2.1845   -8.7075    0.0000 C   0  0  1  0  0  0  0  0  0  0  0  0
    2.1845  -11.1825    0.0000 O   0  0  0  0  0  0  0  0  0  0  0  0
    0.7555  -10.3575    0.0000 O   0  0  0  0  0  0  0  0  0  0  0  0
    0.7555   -8.7075    0.0000 O   0  0  0  0  0  0  0  0  0  0  0  0
    2.1845   -7.8825    0.0000 C   0  0  0  0  0  0  0  0  0  0  0  0
    1.4700   -7.4700    0.0000 O   0  0  0  0  0  0  0  0  0  0  0  0
    3.6134  -10.3575    0.0000 O   0  0  0  0  0  0  0  0  0  0  0  0
    5.7568   -9.1200    0.0000 O   0  0  0  0  0  0  0  0  0  0  0  0
    5.7568   -9.9450    0.0000 C   0  0  2  0  0  0  0  0  0  0  0  0
    5.0423  -10.3575    0.0000 C   0  0  1  0  0  0  0  0  0  0  0  0
    4.3279   -9.9450    0.0000 C   0  0  2  0  0  0  0  0  0  0  0  0
    4.3279   -9.1200    0.0000 C   0  0  2  0  0  0  0  0  0  0  0  0
    5.0423   -8.7075    0.0000 C   0  0  1  0  0  0  0  0  0  0  0  0
    5.0423   -7.8825    0.0000 C   0  0  0  0  0  0  0  0  0  0  0  0
    3.6134   -8.7075    0.0000 O   0  0  0  0  0  0  0  0  0  0  0  0
    5.0423  -11.1825    0.0000 O   0  0  0  0  0  0  0  0  0  0  0  0
    6.4713  -10.3575    0.0000 O   0  0  0  0  0  0  0  0  0  0  0  0
    7.9002   -8.7075    0.0000 C   0  0  0  0  0  0  0  0  0  0  0  0
    7.1857   -9.1200    0.0000 C   0  0  0  0  0  0  0  0  0  0  0  0
    7.1857   -9.9450    0.0000 C   0  0  1  0  0  0  0  0  0  0  0  0
    7.9002  -10.3575    0.0000 C   0  0  1  0  0  0  0  0  0  0  0  0
    8.6147   -9.9450    0.0000 C   0  0  2  0  0  0  0  0  0  0  0  0
    9.3292  -10.3575    0.0000 C   0  0  0  0  0  0  0  0  0  0  0  0
   10.0436   -9.9450    0.0000 C   0  0  0  0  0  0  0  0  0  0  0  0
   10.0436   -9.1200    0.0000 C   0  0  1  0  0  0  0  0  0  0  0  0
   10.7581   -8.7075    0.0000 C   0  0  2  0  0  0  0  0  0  0  0  0
   11.4726   -9.1200    0.0000 C   0  0  0  0  0  0  0  0  0  0  0  0
   12.1870   -8.7075    0.0000 C   0  0  2  0  0  0  0  0  0  0  0  0
   12.1870   -7.8825    0.0000 C   0  0  1  0  0  0  0  0  0  0  0  0
   12.9015   -7.4700    0.0000 C   0  0  0  0  0  0  0  0  0  0  0  0
   12.9015   -6.6450    0.0000 C   0  0  0  0  0  0  0  0  0  0  0  0
   12.1870   -6.2325    0.0000 C   0  0  1  0  0  0  0  0  0  0  0  0
   11.4726   -6.6450    0.0000 C   0  0  0  0  0  0  0  0  0  0  0  0
   11.4726   -7.4700    0.0000 C   0  0  0  0  0  0  0  0  0  0  0  0
   10.7581   -7.8825    0.0000 C   0  0  0  0  0  0  0  0  0  0  0  0
   10.0436   -7.4700    0.0000 C   0  0  0  0  0  0  0  0  0  0  0  0
    9.3292   -7.8825    0.0000 C   0  0  0  0  0  0  0  0  0  0  0  0
    9.3292   -8.7075    0.0000 C   0  0  2  0  0  0  0  0  0  0  0  0
    8.6147   -9.1200    0.0000 C   0  0  1  0  0  0  0  0  0  0  0  0
    8.6147   -8.2950    0.0000 C   0  0  0  0  0  0  0  0  0  0  0  0
   11.7745   -5.5180    0.0000 C   0  0  0  0  0  0  0  0  0  0  0  0
   12.5995   -5.5180    0.0000 C   0  0  0  0  0  0  0  0  0  0  0  0
   10.7581   -9.5325    0.0000 C   0  0  0  0  0  0  0  0  0  0  0  0
   10.0436   -8.2950    0.0000 C   0  0  0  0  0  0  0  0  0  0  0  0
    7.4877  -11.0719    0.0000 C   0  0  0  0  0  0  0  0  0  0  0  0
   12.9015   -8.2950    0.0000 C   0  0  0  0  0  0  0  0  0  0  0  0
   13.6160   -7.8825    0.0000 O   0  0  0  0  0  0  0  0  0  0  0  0
    8.3127  -11.0719    0.0000 C   0  0  0  0  0  0  0  0  0  0  0  0
    7.9002  -11.7864    0.0000 O   0  0  0  0  0  0  0  0  0  0  0  0
   12.9015   -9.1200    0.0000 O   0  0  0  0  0  0  0  0  0  0  0  0
    8.6147  -10.7700    0.0000 H   0  0  0  0  0  0  0  0  0  0  0  0
    9.3292   -9.5325    0.0000 H   0  0  0  0  0  0  0  0  0  0  0  0
  1  2  1  0  0  0  0
  2  3  1  0  0  0  0
  3  4  1  0  0  0  0
  4  5  1  0  0  0  0
  5  6  1  0  0  0  0
  1  6  1  0  0  0  0
  3  7  1  6  0  0  0
  4  8  1  1  0  0  0
  5  9  1  6  0  0  0
 10 11  1  0  0  0  0
  6 10  1  1  0  0  0
 13 14  1  0  0  0  0
 14 15  1  0  0  0  0
 15 16  1  0  0  0  0
 16 17  1  0  0  0  0
 17 18  1  0  0  0  0
 13 18  1  0  0  0  0
 18 19  1  1  0  0  0
 17 20  1  1  0  0  0
 15 21  1  6  0  0  0
 23 24  1  0  0  0  0
 24 25  1  0  0  0  0
 25 26  1  0  0  0  0
 26 27  1  0  0  0  0
 27 28  1  0  0  0  0
 28 29  1  0  0  0  0
 29 30  1  0  0  0  0
 30 31  1  0  0  0  0
 31 32  1  0  0  0  0
 32 33  1  0  0  0  0
 33 34  1  0  0  0  0
 34 35  1  0  0  0  0
 35 36  1  0  0  0  0
 36 37  1  0  0  0  0
 37 38  1  0  0  0  0
 38 39  1  0  0  0  0
 34 39  1  0  0  0  0
 39 40  2  0  0  0  0
 31 40  1  0  0  0  0
 40 41  1  0  0  0  0
 41 42  2  0  0  0  0
 42 43  1  0  0  0  0
 30 43  1  0  0  0  0
 43 44  1  0  0  0  0
 27 44  1  0  0  0  0
 23 44  1  0  0  0  0
 44 45  1  1  0  0  0
 37 46  1  1  0  0  0
 37 47  1  6  0  0  0
 31 48  1  6  0  0  0
 30 49  1  1  0  0  0
 26 50  1  1  0  0  0
 51 52  1  0  0  0  0
 34 51  1  1  0  0  0
 53 54  1  0  0  0  0
 26 53  1  6  0  0  0
 33 55  1  6  0  0  0
 25 22  1  1  0  0  0
 14 22  1  1  0  0  0
 16 12  1  1  0  0  0
  2 12  1  1  0  0  0
 27 56  1  6  0  0  0
 43 57  1  6  0  0  0
M  END
>  <cdx:fragmentId>
139393

$$$$
