637628.cdx
  Mrv1902 05222410212D          

 61 68  0  0  0  0            999 V2000
    0.7396   -9.7112    0.0000 C   0  0  0  0  0  0  0  0  0  0  0  0
    0.0251  -10.1237    0.0000 C   0  0  0  0  0  0  0  0  0  0  0  0
    0.7396   -8.8862    0.0000 O   0  0  0  0  0  0  0  0  0  0  0  0
    1.4540  -10.1237    0.0000 O   0  0  0  0  0  0  0  0  0  0  0  0
    3.5974   -8.8862    0.0000 O   0  0  0  0  0  0  0  0  0  0  0  0
    3.5974   -9.7112    0.0000 C   0  0  2  0  0  0  0  0  0  0  0  0
    2.8830  -10.1237    0.0000 C   0  0  1  0  0  0  0  0  0  0  0  0
    2.1685   -9.7112    0.0000 C   0  0  2  0  0  0  0  0  0  0  0  0
    2.1685   -8.8862    0.0000 C   0  0  1  0  0  0  0  0  0  0  0  0
    2.8830   -8.4737    0.0000 C   0  0  1  0  0  0  0  0  0  0  0  0
    2.8830   -7.6487    0.0000 C   0  0  0  0  0  0  0  0  0  0  0  0
    2.1685   -7.2362    0.0000 O   0  0  0  0  0  0  0  0  0  0  0  0
    1.4540   -8.4737    0.0000 O   0  0  0  0  0  0  0  0  0  0  0  0
    2.8830  -10.9487    0.0000 O   0  0  0  0  0  0  0  0  0  0  0  0
    4.3119  -10.1237    0.0000 O   0  0  0  0  0  0  0  0  0  0  0  0
    6.4553   -8.8862    0.0000 O   0  0  0  0  0  0  0  0  0  0  0  0
    6.4553   -9.7112    0.0000 C   0  0  2  0  0  0  0  0  0  0  0  0
    5.7409  -10.1237    0.0000 C   0  0  1  0  0  0  0  0  0  0  0  0
    5.0264   -9.7112    0.0000 C   0  0  2  0  0  0  0  0  0  0  0  0
    5.0264   -8.8862    0.0000 C   0  0  2  0  0  0  0  0  0  0  0  0
    5.7409   -8.4737    0.0000 C   0  0  1  0  0  0  0  0  0  0  0  0
    5.7409   -7.6487    0.0000 C   0  0  0  0  0  0  0  0  0  0  0  0
    7.1698  -10.1237    0.0000 O   0  0  0  0  0  0  0  0  0  0  0  0
   12.8856   -7.6487    0.0000 C   0  0  0  0  0  0  0  0  0  0  0  0
   12.8856   -8.4737    0.0000 C   0  0  1  0  0  0  0  0  0  0  0  0
   12.1711   -8.8862    0.0000 C   0  0  0  0  0  0  0  0  0  0  0  0
   11.4566   -8.4737    0.0000 C   0  0  1  0  0  0  0  0  0  0  0  0
   10.7422   -8.8862    0.0000 C   0  0  2  0  0  0  0  0  0  0  0  0
   10.7422   -9.7112    0.0000 C   0  0  0  0  0  0  0  0  0  0  0  0
   10.0277  -10.1237    0.0000 C   0  0  0  0  0  0  0  0  0  0  0  0
    9.3132   -9.7112    0.0000 C   0  0  1  0  0  0  0  0  0  0  0  0
    8.5987  -10.1237    0.0000 C   0  0  2  0  0  0  0  0  0  0  0  0
    7.8843   -9.7112    0.0000 C   0  0  2  0  0  0  0  0  0  0  0  0
    7.8843   -8.8862    0.0000 C   0  0  0  0  0  0  0  0  0  0  0  0
    8.5987   -8.4737    0.0000 C   0  0  0  0  0  0  0  0  0  0  0  0
    9.3132   -8.8862    0.0000 C   0  0  2  0  0  0  0  0  0  0  0  0
   10.0277   -8.4737    0.0000 C   0  0  1  0  0  0  0  0  0  0  0  0
   10.0277   -7.6487    0.0000 C   0  0  0  0  0  0  0  0  0  0  0  0
   10.7422   -7.2362    0.0000 C   0  0  0  0  0  0  0  0  0  0  0  0
   11.4566   -7.6487    0.0000 C   0  0  0  0  0  0  0  0  0  0  0  0
   12.1711   -7.2362    0.0000 C   0  0  2  0  0  0  0  0  0  0  0  0
   12.1711   -6.4112    0.0000 C   0  0  0  0  0  0  0  0  0  0  0  0
   12.8856   -5.9987    0.0000 C   0  0  2  0  0  0  0  0  0  0  0  0
   13.6000   -6.4112    0.0000 C   0  0  0  0  0  0  0  0  0  0  0  0
   13.6000   -7.2362    0.0000 C   0  0  0  0  0  0  0  0  0  0  0  0
   12.4731   -5.2842    0.0000 C   0  0  0  0  0  0  0  0  0  0  0  0
   13.2981   -5.2842    0.0000 C   0  0  0  0  0  0  0  0  0  0  0  0
    9.3132   -8.0612    0.0000 C   0  0  0  0  0  0  0  0  0  0  0  0
    8.1862  -10.8382    0.0000 C   0  0  0  0  0  0  0  0  0  0  0  0
   10.7422   -8.0612    0.0000 C   0  0  0  0  0  0  0  0  0  0  0  0
   11.4566   -9.2987    0.0000 C   0  0  0  0  0  0  0  0  0  0  0  0
    9.0112  -10.8382    0.0000 C   0  0  0  0  0  0  0  0  0  0  0  0
    8.5987  -11.5526    0.0000 O   0  0  0  0  0  0  0  0  0  0  0  0
   13.6000   -8.8862    0.0000 O   0  0  0  0  0  0  0  0  0  0  0  0
    4.3119   -8.4737    0.0000 O   0  0  0  0  0  0  0  0  0  0  0  0
    5.7409  -10.9487    0.0000 O   0  0  0  0  0  0  0  0  0  0  0  0
    9.3132  -10.5362    0.0000 H   0  0  0  0  0  0  0  0  0  0  0  0
   10.0277   -9.2987    0.0000 H   0  0  0  0  0  0  0  0  0  0  0  0
   12.1711   -8.0612    0.0000 H   0  0  0  0  0  0  0  0  0  0  0  0
   11.4566   -6.8237    0.0000 O   0  0  0  0  0  0  0  0  0  0  0  0
   12.8856   -6.8237    0.0000 C   0  0  0  0  0  0  0  0  0  0  0  0
  1  2  1  0  0  0  0
  1  3  2  0  0  0  0
  1  4  1  0  0  0  0
  5  6  1  0  0  0  0
  6  7  1  0  0  0  0
  7  8  1  0  0  0  0
  8  9  1  0  0  0  0
  9 10  1  0  0  0  0
  5 10  1  0  0  0  0
 11 12  1  0  0  0  0
 10 11  1  1  0  0  0
  9 13  1  6  0  0  0
  7 14  1  6  0  0  0
 16 17  1  0  0  0  0
 17 18  1  0  0  0  0
 18 19  1  0  0  0  0
 19 20  1  0  0  0  0
 20 21  1  0  0  0  0
 16 21  1  0  0  0  0
 21 22  1  1  0  0  0
 24 25  1  0  0  0  0
 25 26  1  0  0  0  0
 26 27  1  0  0  0  0
 27 28  1  0  0  0  0
 28 29  1  0  0  0  0
 29 30  1  0  0  0  0
 30 31  1  0  0  0  0
 31 32  1  0  0  0  0
 32 33  1  0  0  0  0
 33 34  1  0  0  0  0
 34 35  1  0  0  0  0
 35 36  1  0  0  0  0
 36 37  1  0  0  0  0
 37 38  1  0  0  0  0
 38 39  2  0  0  0  0
 39 40  1  0  0  0  0
 40 41  1  0  0  0  0
 41 42  1  0  0  0  0
 42 43  1  0  0  0  0
 43 44  1  0  0  0  0
 44 45  1  0  0  0  0
 24 45  1  0  0  0  0
 24 41  1  0  0  0  0
 27 40  1  0  0  0  0
 28 37  1  0  0  0  0
 31 36  1  0  0  0  0
 43 46  1  1  0  0  0
 43 47  1  6  0  0  0
 36 48  1  1  0  0  0
 32 49  1  1  0  0  0
 28 50  1  1  0  0  0
 27 51  1  6  0  0  0
 52 53  1  0  0  0  0
 32 52  1  6  0  0  0
 25 54  1  6  0  0  0
 33 23  1  1  0  0  0
 17 23  1  1  0  0  0
 20 55  1  1  0  0  0
 18 56  1  6  0  0  0
 19 15  1  1  0  0  0
  6 15  1  1  0  0  0
  8  4  1  1  0  0  0
 31 57  1  6  0  0  0
 37 58  1  6  0  0  0
 41 59  1  1  0  0  0
 40 60  1  0  0  0  0
 24 61  1  0  0  0  0
 61 60  1  0  0  0  0
M  END
>  <cdx:fragmentId>
138602

$$$$
