6377.cdx
  Mrv1902 05222410212D          

 24 26  0  0  0  0            999 V2000
    8.8689   -5.5894    0.0000 C   0  0  0  0  0  0  0  0  0  0  0  0
   10.2978   -7.2394    0.0000 C   0  0  0  0  0  0  0  0  0  0  0  0
   10.2978   -8.0644    0.0000 C   0  0  0  0  0  0  0  0  0  0  0  0
    3.1531   -7.2394    0.0000 C   0  0  0  0  0  0  0  0  0  0  0  0
    3.8676   -6.8269    0.0000 O   0  0  0  0  0  0  0  0  0  0  0  0
    9.5833   -8.4769    0.0000 O   0  0  0  0  0  0  0  0  0  0  0  0
    9.5833   -6.8269    0.0000 O   0  0  0  0  0  0  0  0  0  0  0  0
    8.1544   -6.0019    0.0000 O   0  0  0  0  0  0  0  0  0  0  0  0
    3.8676   -8.4769    0.0000 O   0  0  0  0  0  0  0  0  0  0  0  0
    6.7254   -6.0019    0.0000 O   0  0  0  0  0  0  0  0  0  0  0  0
    5.2965   -6.8269    0.0000 C   0  0  0  0  0  0  0  0  0  0  0  0
    4.5820   -7.2394    0.0000 C   0  0  0  0  0  0  0  0  0  0  0  0
    4.5820   -8.0644    0.0000 C   0  0  0  0  0  0  0  0  0  0  0  0
    5.2965   -8.4769    0.0000 C   0  0  0  0  0  0  0  0  0  0  0  0
    6.7254   -6.8269    0.0000 C   0  0  0  0  0  0  0  0  0  0  0  0
    6.0110   -7.2394    0.0000 C   0  0  0  0  0  0  0  0  0  0  0  0
    6.0110   -8.0644    0.0000 C   0  0  0  0  0  0  0  0  0  0  0  0
    6.7254   -8.4769    0.0000 O   0  0  0  0  0  0  0  0  0  0  0  0
    8.1544   -6.8269    0.0000 C   0  0  0  0  0  0  0  0  0  0  0  0
    7.4399   -7.2394    0.0000 C   0  0  0  0  0  0  0  0  0  0  0  0
    7.4399   -8.0644    0.0000 C   0  0  0  0  0  0  0  0  0  0  0  0
    8.1544   -8.4769    0.0000 C   0  0  0  0  0  0  0  0  0  0  0  0
    8.8689   -8.0644    0.0000 C   0  0  0  0  0  0  0  0  0  0  0  0
    8.8689   -7.2394    0.0000 C   0  0  0  0  0  0  0  0  0  0  0  0
  8  1  1  0  0  0  0
  7  2  1  0  0  0  0
  6  3  1  0  0  0  0
  5  4  1  0  0  0  0
 12  5  1  0  0  0  0
 23  6  1  0  0  0  0
 24  7  1  0  0  0  0
 19  8  1  0  0  0  0
 13  9  1  0  0  0  0
 15 10  2  0  0  0  0
 11 16  2  0  0  0  0
 12 11  1  0  0  0  0
 13 12  2  0  0  0  0
 14 13  1  0  0  0  0
 17 14  2  0  0  0  0
 15 20  1  0  0  0  0
 16 15  1  0  0  0  0
 17 16  1  0  0  0  0
 18 17  1  0  0  0  0
 21 18  1  0  0  0  0
 19 24  1  0  0  0  0
 20 19  2  0  0  0  0
 21 20  1  0  0  0  0
 22 21  2  0  0  0  0
 23 22  1  0  0  0  0
 24 23  2  0  0  0  0
M  END
>  <cdx:fragmentId>
5

$$$$
