637704.cdx
  Mrv1902 05222410202D          

 46 49  0  0  0  0            999 V2000
   10.1426   -9.2015    0.0000 C   0  0  1  0  0  0  0  0  0  0  0  0
    9.3356   -9.3730    0.0000 C   0  0  1  0  0  0  0  0  0  0  0  0
    8.7836   -8.7600    0.0000 C   0  0  0  0  0  0  0  0  0  0  0  0
   10.9889   -6.8765    0.0000 C   0  0  0  0  0  0  0  0  0  0  0  0
    5.4382  -11.2376    0.0000 C   0  0  0  0  0  0  0  0  0  0  0  0
    4.7237  -11.6501    0.0000 C   0  0  0  0  0  0  0  0  0  0  0  0
    4.7237  -12.4751    0.0000 C   0  0  2  0  0  0  0  0  0  0  0  0
    5.4382  -12.8876    0.0000 C   0  0  0  0  0  0  0  0  0  0  0  0
    6.1527  -12.4751    0.0000 C   0  0  2  0  0  0  0  0  0  0  0  0
    6.8671  -12.8876    0.0000 C   0  0  0  0  0  0  0  0  0  0  0  0
    7.5816  -12.4751    0.0000 C   0  0  0  0  0  0  0  0  0  0  0  0
    7.5816  -11.6501    0.0000 C   0  0  0  0  0  0  0  0  0  0  0  0
    8.2961  -11.2376    0.0000 C   0  0  2  0  0  0  0  0  0  0  0  0
    9.0807  -11.4925    0.0000 C   0  0  2  0  0  0  0  0  0  0  0  0
    9.5656  -10.8251    0.0000 C   0  0  0  0  0  0  0  0  0  0  0  0
    9.0807  -10.1577    0.0000 C   0  0  1  0  0  0  0  0  0  0  0  0
    8.2961  -10.4126    0.0000 C   0  0  1  0  0  0  0  0  0  0  0  0
    7.5816  -10.0001    0.0000 C   0  0  0  0  0  0  0  0  0  0  0  0
    6.8671  -10.4126    0.0000 C   0  0  0  0  0  0  0  0  0  0  0  0
    6.8671  -11.2376    0.0000 C   0  0  0  0  0  0  0  0  0  0  0  0
    6.1527  -11.6501    0.0000 C   0  0  1  0  0  0  0  0  0  0  0  0
    8.2961  -12.0626    0.0000 C   0  0  0  0  0  0  0  0  0  0  0  0
    8.2961   -9.5876    0.0000 C   0  0  0  0  0  0  0  0  0  0  0  0
    6.1527  -10.8251    0.0000 C   0  0  0  0  0  0  0  0  0  0  0  0
    5.8507  -13.6021    0.0000 C   0  0  0  0  0  0  0  0  0  0  0  0
    5.0257  -13.6021    0.0000 C   0  0  0  0  0  0  0  0  0  0  0  0
    9.3356  -12.2772    0.0000 O   0  0  0  0  0  0  0  0  0  0  0  0
   10.1426  -12.4487    0.0000 C   0  0  0  0  0  0  0  0  0  0  0  0
   10.3976  -13.2333    0.0000 O   0  0  0  0  0  0  0  0  0  0  0  0
   10.6946  -11.8356    0.0000 C   0  0  0  0  0  0  0  0  0  0  0  0
    4.0093  -12.8876    0.0000 O   0  0  0  0  0  0  0  0  0  0  0  0
    3.2948  -12.4751    0.0000 C   0  0  0  0  0  0  0  0  0  0  0  0
    3.2948  -11.6501    0.0000 O   0  0  0  0  0  0  0  0  0  0  0  0
    2.5803  -12.8876    0.0000 C   0  0  0  0  0  0  0  0  0  0  0  0
   10.6946   -9.8146    0.0000 O   0  0  0  0  0  0  0  0  0  0  0  0
   11.5016   -9.6431    0.0000 C   0  0  0  0  0  0  0  0  0  0  0  0
   12.0208  -10.2842    0.0000 O   0  0  0  0  0  0  0  0  0  0  0  0
   11.7566   -8.8585    0.0000 C   0  0  0  0  0  0  0  0  0  0  0  0
    6.1527  -13.3001    0.0000 H   0  0  0  0  0  0  0  0  0  0  0  0
   12.8421   -8.0297    0.0000 O   0  0  0  0  0  0  0  0  0  0  0  0
   12.6185   -6.6184    0.0000 O   0  0  0  0  0  0  0  0  0  0  0  0
   10.3976   -8.4169    0.0000 C   0  0  0  0  0  0  0  0  0  0  0  0
   11.2124   -8.2878    0.0000 C   0  0  0  0  0  0  0  0  0  0  0  0
   11.5081   -7.5176    0.0000 C   0  0  0  0  0  0  0  0  0  0  0  0
   12.3229   -7.3886    0.0000 C   0  0  0  0  0  0  0  0  0  0  0  0
    9.8653   -9.9027    0.0000 H   0  0  0  0  0  0  0  0  0  0  0  0
 44  4  1  0  0  0  0
 45 40  1  0  0  0  0
 45 41  2  0  0  0  0
 43 42  1  0  0  0  0
 44 43  2  0  0  0  0
 45 44  1  0  0  0  0
 42  1  1  0  0  0  0
  1  2  1  0  0  0  0
  2  3  1  6  0  0  0
  5  6  1  0  0  0  0
  6  7  1  0  0  0  0
  7  8  1  0  0  0  0
  8  9  1  0  0  0  0
  9 10  1  0  0  0  0
 10 11  1  0  0  0  0
 11 12  2  0  0  0  0
 12 13  1  0  0  0  0
 13 14  1  0  0  0  0
 14 15  1  0  0  0  0
 16 15  1  0  0  0  0
 16 17  1  0  0  0  0
 13 17  1  0  0  0  0
 17 18  1  0  0  0  0
 18 19  1  0  0  0  0
 19 20  2  0  0  0  0
 12 20  1  0  0  0  0
 20 21  1  0  0  0  0
  9 21  1  0  0  0  0
  5 21  1  0  0  0  0
 13 22  1  6  0  0  0
 17 23  1  1  0  0  0
 21 24  1  1  0  0  0
  8 25  1  0  0  0  0
  8 26  1  0  0  0  0
 28 29  2  0  0  0  0
 28 30  1  0  0  0  0
 27 28  1  0  0  0  0
 14 27  1  6  0  0  0
 32 33  2  0  0  0  0
 32 34  1  0  0  0  0
 31 32  1  0  0  0  0
  7 31  1  6  0  0  0
  2 16  1  0  0  0  0
 36 37  2  0  0  0  0
 36 38  1  0  0  0  0
 35 36  1  0  0  0  0
  1 35  1  6  0  0  0
  9 39  1  6  0  0  0
 16 46  1  6  0  0  0
M  END
>  <cdx:groupId>
139768

>  <cdx:fragmentId>
139653

$$$$
