21637711.cdx
  Mrv1902 05222410202D          

 24 25  0  0  0  0            999 V2000
    9.5684   -6.2282    0.0000 C   0  0  0  0  0  0  0  0  0  0  0  0
    8.8539   -5.8157    0.0000 C   0  0  0  0  0  0  0  0  0  0  0  0
    8.1395   -6.2282    0.0000 C   0  0  1  0  0  0  0  0  0  0  0  0
    8.1395   -7.0532    0.0000 C   0  0  0  0  0  0  0  0  0  0  0  0
    8.8539   -7.4657    0.0000 C   0  0  0  0  0  0  0  0  0  0  0  0
    9.5684   -7.0532    0.0000 C   0  0  0  0  0  0  0  0  0  0  0  0
   10.2829   -5.8157    0.0000 C   0  0  0  0  0  0  0  0  0  0  0  0
   10.2829   -4.9907    0.0000 O   0  0  0  0  0  0  0  0  0  0  0  0
   10.9974   -6.2282    0.0000 O   0  0  0  0  0  0  0  0  0  0  0  0
    7.4250   -5.8157    0.0000 O   0  0  0  0  0  0  0  0  0  0  0  0
    5.9961   -5.8157    0.0000 O   0  0  0  0  0  0  0  0  0  0  0  0
    6.7105   -6.2282    0.0000 C   0  0  2  0  0  0  0  0  0  0  0  0
    6.7105   -7.0532    0.0000 C   0  0  1  0  0  0  0  0  0  0  0  0
    5.9961   -7.4657    0.0000 C   0  0  2  0  0  0  0  0  0  0  0  0
    5.2816   -7.0532    0.0000 C   0  0  1  0  0  0  0  0  0  0  0  0
    5.2816   -6.2282    0.0000 C   0  0  1  0  0  0  0  0  0  0  0  0
    4.5671   -5.8157    0.0000 C   0  0  0  0  0  0  0  0  0  0  0  0
    3.8526   -6.2282    0.0000 O   0  0  0  0  0  0  0  0  0  0  0  0
    4.5671   -7.4657    0.0000 O   0  0  0  0  0  0  0  0  0  0  0  0
    5.9961   -8.2907    0.0000 O   0  0  0  0  0  0  0  0  0  0  0  0
    7.4250   -7.4657    0.0000 O   0  0  0  0  0  0  0  0  0  0  0  0
   10.3934   -7.0532    0.0000 C   0  0  0  0  0  0  0  0  0  0  0  0
    9.9809   -7.7676    0.0000 C   0  0  0  0  0  0  0  0  0  0  0  0
    8.8539   -4.9907    0.0000 C   0  0  0  0  0  0  0  0  0  0  0  0
  1  2  2  0  0  0  0
  2  3  1  0  0  0  0
  3  4  1  0  0  0  0
  4  5  1  0  0  0  0
  5  6  1  0  0  0  0
  1  6  1  0  0  0  0
  7  8  2  0  0  0  0
  7  9  1  0  0  0  0
  1  7  1  0  0  0  0
 11 12  1  0  0  0  0
 12 13  1  0  0  0  0
 13 14  1  0  0  0  0
 14 15  1  0  0  0  0
 15 16  1  0  0  0  0
 11 16  1  0  0  0  0
 17 18  1  0  0  0  0
 16 17  1  1  0  0  0
 15 19  1  6  0  0  0
 14 20  1  1  0  0  0
 13 21  1  6  0  0  0
 12 10  1  1  0  0  0
  3 10  1  1  0  0  0
  6 22  1  0  0  0  0
  6 23  1  0  0  0  0
  2 24  1  0  0  0  0
M  END
>  <cdx:groupId>
75

>  <cdx:fragmentId>
25

$$$$
