86063784.cdx
  Mrv1902 05222410192D          

 10 12  0  0  0  0            999 V2000
    6.0516  -14.3564    0.0000 C   0  0  0  0  0  0  0  0  0  0  0  0
    6.7660  -13.9439    0.0000 C   0  0  0  0  0  0  0  0  0  0  0  0
    7.4805  -14.3564    0.0000 C   0  0  0  0  0  0  0  0  0  0  0  0
    8.2651  -14.1015    0.0000 C   0  0  0  0  0  0  0  0  0  0  0  0
    8.7500  -14.7689    0.0000 C   0  0  0  0  0  0  0  0  0  0  0  0
    8.2651  -15.4364    0.0000 C   0  0  0  0  0  0  0  0  0  0  0  0
    7.4805  -15.1814    0.0000 N   0  0  0  0  0  0  0  0  0  0  0  0
    6.7660  -15.5939    0.0000 C   0  0  0  0  0  0  0  0  0  0  0  0
    6.0516  -15.1814    0.0000 O   0  0  0  0  0  0  0  0  0  0  0  0
    6.8640  -16.1535    0.0000 C   0  0  0  0  0  0  0  0  0  0  0  0
  1  2  1  0  0  0  0
  2  3  1  0  0  0  0
  3  4  1  0  0  0  0
  4  5  1  0  0  0  0
  5  6  1  0  0  0  0
  6  7  1  0  0  0  0
  7  8  1  0  0  0  0
  8  9  1  0  0  0  0
  1  9  1  0  0  0  0
  1 10  1  0  0  0  0
 10  6  1  0  0  0  0
  3  7  1  0  0  0  0
M  END
>  <cdx:groupId>
209508

>  <cdx:fragmentId>
209479

$$$$
