637829.cdx
  Mrv1902 05222410252D          

 23 24  0  0  0  0            999 V2000
   15.1115  -27.1300    0.0000 C   0  0  0  0  0  0  0  0  0  0  0  0
   14.3970  -27.5425    0.0000 C   0  0  0  0  0  0  0  0  0  0  0  0
   13.6826  -27.1300    0.0000 C   0  0  0  0  0  0  0  0  0  0  0  0
   12.9681  -27.5425    0.0000 C   0  0  0  0  0  0  0  0  0  0  0  0
   12.2536  -27.1300    0.0000 C   0  0  0  0  0  0  0  0  0  0  0  0
   11.5392  -27.5425    0.0000 C   0  0  0  0  0  0  0  0  0  0  0  0
   10.8247  -27.1300    0.0000 O   0  0  0  0  0  0  0  0  0  0  0  0
   11.5392  -28.3675    0.0000 C   0  0  0  0  0  0  0  0  0  0  0  0
   10.8247  -28.7800    0.0000 O   0  0  0  0  0  0  0  0  0  0  0  0
   12.2536  -28.7800    0.0000 C   0  0  0  0  0  0  0  0  0  0  0  0
   12.9681  -28.3675    0.0000 C   0  0  0  0  0  0  0  0  0  0  0  0
   15.1115  -26.3050    0.0000 O   0  0  0  0  0  0  0  0  0  0  0  0
   15.8260  -27.5425    0.0000 O   0  0  0  0  0  0  0  0  0  0  0  0
   16.5405  -27.1300    0.0000 C   0  0  0  0  0  0  0  0  0  0  0  0
   17.2549  -27.5425    0.0000 C   0  0  0  0  0  0  0  0  0  0  0  0
   17.9694  -27.1300    0.0000 C   0  0  0  0  0  0  0  0  0  0  0  0
   18.6839  -27.5425    0.0000 C   0  0  0  0  0  0  0  0  0  0  0  0
   19.3983  -27.1300    0.0000 C   0  0  0  0  0  0  0  0  0  0  0  0
   19.3983  -26.3050    0.0000 C   0  0  0  0  0  0  0  0  0  0  0  0
   18.6839  -25.8925    0.0000 C   0  0  0  0  0  0  0  0  0  0  0  0
   17.9694  -26.3050    0.0000 C   0  0  0  0  0  0  0  0  0  0  0  0
   20.1128  -25.8925    0.0000 O   0  0  0  0  0  0  0  0  0  0  0  0
   20.1128  -27.5425    0.0000 O   0  0  0  0  0  0  0  0  0  0  0  0
  1  2  1  0  0  0  0
  2  3  2  0  0  0  0
  3  4  1  0  0  0  0
  4  5  1  0  0  0  0
  5  6  2  0  0  0  0
  6  7  1  0  0  0  0
  6  8  1  0  0  0  0
  8  9  1  0  0  0  0
  8 10  2  0  0  0  0
 10 11  1  0  0  0  0
  4 11  2  0  0  0  0
  1 12  2  0  0  0  0
  1 13  1  0  0  0  0
 14 15  1  0  0  0  0
 15 16  1  0  0  0  0
 16 17  1  0  0  0  0
 17 18  2  0  0  0  0
 18 19  1  0  0  0  0
 19 20  2  0  0  0  0
 20 21  1  0  0  0  0
 16 21  2  0  0  0  0
 19 22  1  0  0  0  0
 18 23  1  0  0  0  0
 13 14  1  0  0  0  0
M  END
>  <cdx:groupId>
12115

>  <cdx:fragmentId>
12048

$$$$
