637866.cdx
  Mrv1902 05222410262D          

  8  8  0  0  0  0            999 V2000
    8.0282   -7.7944    0.0000 C   0  0  0  0  0  0  0  0  0  0  0  0
    7.2033   -7.8043    0.0000 C   0  0  0  0  0  0  0  0  0  0  0  0
    6.6129   -7.2281    0.0000 C   0  0  0  0  0  0  0  0  0  0  0  0
    6.6030   -6.4031    0.0000 C   0  0  0  0  0  0  0  0  0  0  0  0
    7.1793   -5.8128    0.0000 C   0  0  0  0  0  0  0  0  0  0  0  0
    8.0042   -5.8028    0.0000 C   0  0  0  0  0  0  0  0  0  0  0  0
    8.5946   -6.3791    0.0000 C   0  0  0  0  0  0  0  0  0  0  0  0
    8.6045   -7.2041    0.0000 C   0  0  0  0  0  0  0  0  0  0  0  0
  1  2  2  0  0  0  0
  2  3  1  0  0  0  0
  3  4  2  0  0  0  0
  4  5  1  0  0  0  0
  5  6  2  0  0  0  0
  6  7  1  0  0  0  0
  7  8  2  0  0  0  0
  1  8  1  0  0  0  0
M  END
>  <cdx:fragmentId>
12330

$$$$
