637830.cdx
  Mrv1902 05222410212D          

 58 62  0  0  0  0            999 V2000
    5.2971  -10.1414    0.0000 C   0  0  0  0  0  0  0  0  0  0  0  0
    4.5826  -10.5539    0.0000 C   0  0  0  0  0  0  0  0  0  0  0  0
    3.8681  -10.1414    0.0000 C   0  0  0  0  0  0  0  0  0  0  0  0
    5.2971   -9.3164    0.0000 O   0  0  0  0  0  0  0  0  0  0  0  0
    6.0115  -10.5539    0.0000 O   0  0  0  0  0  0  0  0  0  0  0  0
    3.1536  -10.5539    0.0000 C   0  0  0  0  0  0  0  0  0  0  0  0
    2.4392  -10.1414    0.0000 C   0  0  0  0  0  0  0  0  0  0  0  0
    1.7247  -10.5539    0.0000 C   0  0  0  0  0  0  0  0  0  0  0  0
    1.7247  -11.3789    0.0000 C   0  0  0  0  0  0  0  0  0  0  0  0
    2.4392  -11.7914    0.0000 C   0  0  0  0  0  0  0  0  0  0  0  0
    3.1536  -11.3789    0.0000 C   0  0  0  0  0  0  0  0  0  0  0  0
    1.0102  -11.7914    0.0000 O   0  0  0  0  0  0  0  0  0  0  0  0
    1.0102  -10.1414    0.0000 O   0  0  0  0  0  0  0  0  0  0  0  0
    7.4405   -8.9039    0.0000 O   0  0  0  0  0  0  0  0  0  0  0  0
    6.7260   -9.3164    0.0000 C   0  0  1  0  0  0  0  0  0  0  0  0
    6.7260  -10.1414    0.0000 C   0  0  2  0  0  0  0  0  0  0  0  0
    7.4405  -10.5539    0.0000 C   0  0  1  0  0  0  0  0  0  0  0  0
    8.1549  -10.1414    0.0000 C   0  0  2  0  0  0  0  0  0  0  0  0
    8.1549   -9.3164    0.0000 C   0  0  2  0  0  0  0  0  0  0  0  0
    7.4405  -11.3789    0.0000 O   0  0  0  0  0  0  0  0  0  0  0  0
    6.0115  -11.3789    0.0000 O   0  0  0  0  0  0  0  0  0  0  0  0
    6.7260  -11.7914    0.0000 C   0  0  2  0  0  0  0  0  0  0  0  0
    6.7260  -12.6164    0.0000 C   0  0  1  0  0  0  0  0  0  0  0  0
    6.0115  -13.0289    0.0000 C   0  0  1  0  0  0  0  0  0  0  0  0
    5.2971  -12.6164    0.0000 C   0  0  2  0  0  0  0  0  0  0  0  0
    5.2971  -11.7914    0.0000 C   0  0  2  0  0  0  0  0  0  0  0  0
    4.5826  -11.3789    0.0000 C   0  0  0  0  0  0  0  0  0  0  0  0
    4.5826  -13.0289    0.0000 O   0  0  0  0  0  0  0  0  0  0  0  0
    6.0115  -13.8539    0.0000 O   0  0  0  0  0  0  0  0  0  0  0  0
    7.4405  -13.0289    0.0000 O   0  0  0  0  0  0  0  0  0  0  0  0
    6.0115   -8.9039    0.0000 C   0  0  0  0  0  0  0  0  0  0  0  0
   11.0128   -9.3164    0.0000 C   0  0  0  0  0  0  0  0  0  0  0  0
   11.7273   -8.9039    0.0000 C   0  0  0  0  0  0  0  0  0  0  0  0
   12.4418   -9.3164    0.0000 C   0  0  0  0  0  0  0  0  0  0  0  0
   12.4418  -10.1414    0.0000 C   0  0  0  0  0  0  0  0  0  0  0  0
   11.7273  -10.5539    0.0000 C   0  0  0  0  0  0  0  0  0  0  0  0
   11.0128  -10.1414    0.0000 C   0  0  0  0  0  0  0  0  0  0  0  0
   13.1562  -10.5539    0.0000 O   0  0  0  0  0  0  0  0  0  0  0  0
   13.1562   -8.9039    0.0000 O   0  0  0  0  0  0  0  0  0  0  0  0
    8.8694  -11.3789    0.0000 C   0  0  0  0  0  0  0  0  0  0  0  0
    9.5839  -11.7914    0.0000 O   0  0  0  0  0  0  0  0  0  0  0  0
    8.1549  -11.7914    0.0000 C   0  0  0  0  0  0  0  0  0  0  0  0
    4.3617   -8.0988    0.0000 O   0  0  0  0  0  0  0  0  0  0  0  0
    3.5195   -6.6799    0.0000 O   0  0  0  0  0  0  0  0  0  0  0  0
    4.3273   -5.2411    0.0000 O   0  0  0  0  0  0  0  0  0  0  0  0
    5.5561   -4.5118    0.0000 O   0  0  0  0  0  0  0  0  0  0  0  0
    5.9772   -5.2212    0.0000 C   0  0  0  0  0  0  0  0  0  0  0  0
    5.5733   -5.9406    0.0000 C   0  0  2  0  0  0  0  0  0  0  0  0
    4.7483   -5.9506    0.0000 C   0  0  2  0  0  0  0  0  0  0  0  0
    4.3445   -6.6699    0.0000 C   0  0  1  0  0  0  0  0  0  0  0  0
    4.7655   -7.3794    0.0000 C   0  0  2  0  0  0  0  0  0  0  0  0
    5.5905   -7.3695    0.0000 C   0  0  1  0  0  0  0  0  0  0  0  0
    5.9943   -6.6501    0.0000 O   0  0  0  0  0  0  0  0  0  0  0  0
    6.0115   -8.0789    0.0000 O   0  0  0  0  0  0  0  0  0  0  0  0
   10.2984   -8.9039    0.0000 C   0  0  0  0  0  0  0  0  0  0  0  0
    9.5839   -9.3164    0.0000 C   0  0  0  0  0  0  0  0  0  0  0  0
    8.8694   -8.9039    0.0000 O   0  0  0  0  0  0  0  0  0  0  0  0
    8.8694  -10.5539    0.0000 O   0  0  0  0  0  0  0  0  0  0  0  0
 52 54  1  1  0  0  0
 51 43  1  6  0  0  0
 50 44  1  1  0  0  0
 49 45  1  6  0  0  0
 48 47  1  1  0  0  0
 47 46  1  0  0  0  0
 53 48  1  0  0  0  0
 49 48  1  0  0  0  0
 50 49  1  0  0  0  0
 51 50  1  0  0  0  0
 52 51  1  0  0  0  0
 53 52  1  0  0  0  0
 55 32  1  0  0  0  0
 57 56  1  0  0  0  0
 56 55  1  0  0  0  0
 58 40  1  0  0  0  0
  1  2  1  0  0  0  0
  2  3  2  0  0  0  0
  1  4  2  0  0  0  0
  1  5  1  0  0  0  0
  6  7  1  0  0  0  0
  7  8  2  0  0  0  0
  8  9  1  0  0  0  0
  9 10  2  0  0  0  0
 10 11  1  0  0  0  0
  6 11  2  0  0  0  0
  9 12  1  0  0  0  0
  8 13  1  0  0  0  0
  3  6  1  0  0  0  0
 14 15  1  0  0  0  0
 15 16  1  0  0  0  0
 16 17  1  0  0  0  0
 17 18  1  0  0  0  0
 18 19  1  0  0  0  0
 14 19  1  0  0  0  0
 21 22  1  0  0  0  0
 22 23  1  0  0  0  0
 23 24  1  0  0  0  0
 24 25  1  0  0  0  0
 25 26  1  0  0  0  0
 21 26  1  0  0  0  0
 26 27  1  6  0  0  0
 25 28  1  1  0  0  0
 24 29  1  6  0  0  0
 23 30  1  6  0  0  0
 22 20  1  1  0  0  0
 17 20  1  1  0  0  0
 31 54  1  0  0  0  0
 15 31  1  1  0  0  0
 32 33  1  0  0  0  0
 33 34  2  0  0  0  0
 34 35  1  0  0  0  0
 35 36  2  0  0  0  0
 36 37  1  0  0  0  0
 32 37  2  0  0  0  0
 35 38  1  0  0  0  0
 34 39  1  0  0  0  0
 19 57  1  1  0  0  0
 40 41  2  0  0  0  0
 40 42  1  0  0  0  0
 18 58  1  6  0  0  0
 16  5  1  6  0  0  0
M  END
>  <cdx:groupId>
139957

>  <cdx:fragmentId>
139822

$$$$
