6379.cdx
  Mrv1902 05222410252D          

 25 25  0  0  0  0            999 V2000
    2.2583   -6.3319    0.0000 C   0  0  0  0  0  0  0  0  0  0  0  0
    2.2583   -7.1569    0.0000 C   0  0  0  0  0  0  0  0  0  0  0  0
    2.9727   -7.5694    0.0000 C   0  0  0  0  0  0  0  0  0  0  0  0
    3.6872   -7.1569    0.0000 C   0  0  0  0  0  0  0  0  0  0  0  0
    3.6872   -6.3319    0.0000 C   0  0  0  0  0  0  0  0  0  0  0  0
    2.9727   -5.9194    0.0000 C   0  0  0  0  0  0  0  0  0  0  0  0
    1.5438   -5.9194    0.0000 O   0  0  0  0  0  0  0  0  0  0  0  0
    1.5438   -7.5694    0.0000 O   0  0  0  0  0  0  0  0  0  0  0  0
    4.4017   -5.9194    0.0000 C   0  0  0  0  0  0  0  0  0  0  0  0
    5.1162   -6.3319    0.0000 C   0  0  0  0  0  0  0  0  0  0  0  0
    5.8306   -5.9194    0.0000 C   0  0  0  0  0  0  0  0  0  0  0  0
    6.5451   -6.3319    0.0000 C   0  0  0  0  0  0  0  0  0  0  0  0
    7.2596   -5.9194    0.0000 C   0  0  0  0  0  0  0  0  0  0  0  0
    5.8306   -5.0944    0.0000 O   0  0  0  0  0  0  0  0  0  0  0  0
    7.9740   -6.3319    0.0000 C   0  0  0  0  0  0  0  0  0  0  0  0
    8.6885   -5.9194    0.0000 C   0  0  0  0  0  0  0  0  0  0  0  0
    9.4030   -6.3319    0.0000 C   0  0  0  0  0  0  0  0  0  0  0  0
    0.8293   -6.3319    0.0000 C   0  0  0  0  0  0  0  0  0  0  0  0
   10.1175   -5.9194    0.0000 C   0  0  0  0  0  0  0  0  0  0  0  0
   10.8319   -6.3319    0.0000 C   0  0  0  0  0  0  0  0  0  0  0  0
    7.9740   -7.1569    0.0000 O   0  0  0  0  0  0  0  0  0  0  0  0
   11.5464   -5.9194    0.0000 C   0  0  0  0  0  0  0  0  0  0  0  0
   12.2609   -6.3319    0.0000 C   0  0  0  0  0  0  0  0  0  0  0  0
   12.9753   -5.9194    0.0000 C   0  0  0  0  0  0  0  0  0  0  0  0
   13.6898   -6.3319    0.0000 C   0  0  0  0  0  0  0  0  0  0  0  0
  1  2  2  0  0  0  0
  2  3  1  0  0  0  0
  3  4  2  0  0  0  0
  4  5  1  0  0  0  0
  5  6  2  0  0  0  0
  6  1  1  0  0  0  0
  1  7  1  0  0  0  0
  2  8  1  0  0  0  0
  5  9  1  0  0  0  0
  9 10  1  0  0  0  0
 10 11  1  0  0  0  0
 11 12  1  0  0  0  0
 12 13  2  0  0  0  0
 11 14  2  0  0  0  0
 13 15  1  0  0  0  0
 15 16  1  0  0  0  0
 16 17  1  0  0  0  0
  7 18  1  0  0  0  0
 17 19  1  0  0  0  0
 19 20  1  0  0  0  0
 15 21  1  0  0  0  0
 20 22  1  0  0  0  0
 22 23  1  0  0  0  0
 23 24  1  0  0  0  0
 24 25  1  0  0  0  0
M  END
>  <cdx:fragmentId>
5

$$$$
