638015.cdx
  Mrv1902 05222410272D          

 21 21  0  0  0  0            999 V2000
   18.9565  -27.8864    0.0000 C   0  0  0  0  0  0  0  0  0  0  0  0
   18.2421  -27.4739    0.0000 C   0  0  0  0  0  0  0  0  0  0  0  0
   17.5276  -27.8864    0.0000 C   0  0  0  0  0  0  0  0  0  0  0  0
   16.8131  -27.4739    0.0000 C   0  0  0  0  0  0  0  0  0  0  0  0
   16.0987  -27.8864    0.0000 C   0  0  0  0  0  0  0  0  0  0  0  0
   15.3842  -27.4739    0.0000 C   0  0  0  0  0  0  0  0  0  0  0  0
   14.6697  -27.8864    0.0000 C   0  0  0  0  0  0  0  0  0  0  0  0
   13.9553  -27.4739    0.0000 C   0  0  0  0  0  0  0  0  0  0  0  0
   13.2408  -27.8864    0.0000 C   0  0  0  0  0  0  0  0  0  0  0  0
   19.6710  -27.4739    0.0000 O   0  0  0  0  0  0  0  0  0  0  0  0
   12.5263  -27.4739    0.0000 C   0  0  0  0  0  0  0  0  0  0  0  0
   11.8118  -27.8864    0.0000 C   0  0  0  0  0  0  0  0  0  0  0  0
   11.0974  -27.4739    0.0000 C   0  0  0  0  0  0  0  0  0  0  0  0
   11.0974  -26.6489    0.0000 C   0  0  0  0  0  0  0  0  0  0  0  0
   11.8118  -26.2364    0.0000 C   0  0  0  0  0  0  0  0  0  0  0  0
   12.5263  -26.6489    0.0000 C   0  0  0  0  0  0  0  0  0  0  0  0
   12.9388  -25.9344    0.0000 C   0  0  0  0  0  0  0  0  0  0  0  0
   13.3513  -26.6489    0.0000 C   0  0  0  0  0  0  0  0  0  0  0  0
   11.8118  -28.7114    0.0000 C   0  0  0  0  0  0  0  0  0  0  0  0
   14.6697  -28.7114    0.0000 C   0  0  0  0  0  0  0  0  0  0  0  0
   17.5276  -28.7114    0.0000 C   0  0  0  0  0  0  0  0  0  0  0  0
  1  2  1  0  0  0  0
  2  3  2  0  0  0  0
  3  4  1  0  0  0  0
  4  5  2  0  0  0  0
  5  6  1  0  0  0  0
  6  7  2  0  0  0  0
  7  8  1  0  0  0  0
  8  9  2  0  0  0  0
  1 10  2  0  0  0  0
 11 12  2  0  0  0  0
 12 13  1  0  0  0  0
 13 14  1  0  0  0  0
 14 15  1  0  0  0  0
 15 16  1  0  0  0  0
 11 16  1  0  0  0  0
 16 17  1  0  0  0  0
 16 18  1  0  0  0  0
 12 19  1  0  0  0  0
  9 11  1  0  0  0  0
  7 20  1  0  0  0  0
  3 21  1  0  0  0  0
M  END
>  <cdx:groupId>
12503

>  <cdx:fragmentId>
12443

$$$$
