638012.cdx
  Mrv1902 05222410282D          

 11 10  0  0  0  0            999 V2000
    6.0964   -8.6391    0.0000 C   0  0  0  0  0  0  0  0  0  0  0  0
    6.8129   -9.0480    0.0000 C   0  0  0  0  0  0  0  0  0  0  0  0
    7.5253   -8.6318    0.0000 C   0  0  0  0  0  0  0  0  0  0  0  0
    8.2419   -9.0407    0.0000 C   0  0  0  0  0  0  0  0  0  0  0  0
    8.9542   -8.6246    0.0000 C   0  0  0  0  0  0  0  0  0  0  0  0
    9.6708   -9.0334    0.0000 C   0  0  0  0  0  0  0  0  0  0  0  0
    9.6750   -9.8584    0.0000 C   0  0  0  0  0  0  0  0  0  0  0  0
   10.3832   -8.6173    0.0000 C   0  0  0  0  0  0  0  0  0  0  0  0
    6.8171   -9.8730    0.0000 C   0  0  0  0  0  0  0  0  0  0  0  0
    6.0922   -7.8141    0.0000 C   0  0  0  0  0  0  0  0  0  0  0  0
    5.3756   -7.4053    0.0000 O   0  0  0  0  0  0  0  0  0  0  0  0
  1  2  2  0  0  0  0
  2  3  1  0  0  0  0
  3  4  1  0  0  0  0
  4  5  1  0  0  0  0
  5  6  2  0  0  0  0
  6  7  1  0  0  0  0
  6  8  1  0  0  0  0
  2  9  1  0  0  0  0
  1 10  1  0  0  0  0
 10 11  2  0  0  0  0
M  END
>  <cdx:fragmentId>
12358

$$$$
