638072.cdx
  Mrv1902 05222410242D          

 30 29  0  0  0  0            999 V2000
    7.9668  -28.3498    0.0000 C   0  0  0  0  0  0  0  0  0  0  0  0
    7.9668  -27.5248    0.0000 C   0  0  0  0  0  0  0  0  0  0  0  0
    8.6813  -27.1123    0.0000 C   0  0  0  0  0  0  0  0  0  0  0  0
    9.3958  -27.5248    0.0000 C   0  0  0  0  0  0  0  0  0  0  0  0
   10.1102  -27.1123    0.0000 C   0  0  0  0  0  0  0  0  0  0  0  0
   10.8247  -27.5248    0.0000 C   0  0  0  0  0  0  0  0  0  0  0  0
   11.5392  -27.1123    0.0000 C   0  0  0  0  0  0  0  0  0  0  0  0
   12.2536  -27.5248    0.0000 C   0  0  0  0  0  0  0  0  0  0  0  0
   12.9681  -27.1123    0.0000 C   0  0  0  0  0  0  0  0  0  0  0  0
   13.6826  -27.5248    0.0000 C   0  0  0  0  0  0  0  0  0  0  0  0
   14.3970  -27.1123    0.0000 C   0  0  0  0  0  0  0  0  0  0  0  0
   15.1115  -27.5248    0.0000 C   0  0  0  0  0  0  0  0  0  0  0  0
   15.8260  -27.1123    0.0000 C   0  0  0  0  0  0  0  0  0  0  0  0
   16.5405  -27.5248    0.0000 C   0  0  0  0  0  0  0  0  0  0  0  0
   17.2549  -27.1123    0.0000 C   0  0  0  0  0  0  0  0  0  0  0  0
   17.9694  -27.5248    0.0000 C   0  0  0  0  0  0  0  0  0  0  0  0
   18.6839  -27.1123    0.0000 C   0  0  0  0  0  0  0  0  0  0  0  0
   19.3983  -27.5248    0.0000 C   0  0  0  0  0  0  0  0  0  0  0  0
   20.1128  -27.1123    0.0000 C   0  0  0  0  0  0  0  0  0  0  0  0
   20.8273  -27.5248    0.0000 C   0  0  0  0  0  0  0  0  0  0  0  0
   21.5418  -27.1123    0.0000 C   0  0  0  0  0  0  0  0  0  0  0  0
   22.2562  -27.5248    0.0000 C   0  0  0  0  0  0  0  0  0  0  0  0
   22.9707  -27.1123    0.0000 C   0  0  0  0  0  0  0  0  0  0  0  0
   22.9707  -26.2873    0.0000 C   0  0  0  0  0  0  0  0  0  0  0  0
   23.6852  -27.5248    0.0000 C   0  0  0  0  0  0  0  0  0  0  0  0
   20.1128  -26.2873    0.0000 C   0  0  0  0  0  0  0  0  0  0  0  0
   17.2549  -26.2873    0.0000 C   0  0  0  0  0  0  0  0  0  0  0  0
   13.6826  -28.3498    0.0000 C   0  0  0  0  0  0  0  0  0  0  0  0
   10.8247  -28.3498    0.0000 C   0  0  0  0  0  0  0  0  0  0  0  0
    7.2523  -27.1123    0.0000 C   0  0  0  0  0  0  0  0  0  0  0  0
  1  2  1  0  0  0  0
  2  3  2  0  0  0  0
  3  4  1  0  0  0  0
  4  5  1  0  0  0  0
  5  6  1  0  0  0  0
  6  7  2  0  0  0  0
  7  8  1  0  0  0  0
  8  9  1  0  0  0  0
  9 10  1  0  0  0  0
 10 11  2  0  0  0  0
 11 12  1  0  0  0  0
 12 13  1  0  0  0  0
 13 14  1  0  0  0  0
 14 15  2  0  0  0  0
 15 16  1  0  0  0  0
 16 17  1  0  0  0  0
 17 18  1  0  0  0  0
 18 19  2  0  0  0  0
 19 20  1  0  0  0  0
 20 21  1  0  0  0  0
 21 22  1  0  0  0  0
 22 23  2  0  0  0  0
 23 24  1  0  0  0  0
 23 25  1  0  0  0  0
 19 26  1  0  0  0  0
 15 27  1  0  0  0  0
 10 28  1  0  0  0  0
  6 29  1  0  0  0  0
  2 30  1  0  0  0  0
M  END
>  <cdx:groupId>
12652

>  <cdx:fragmentId>
12566

$$$$
