6382.cdx
  Mrv1902 05222410232D          

 19 21  0  0  0  0            999 V2000
    6.5556   -7.9100    0.0000 O   0  0  0  0  0  0  0  0  0  0  0  0
    7.2268   -8.3898    0.0000 C   0  0  0  0  0  0  0  0  0  0  0  0
    6.9779   -9.1764    0.0000 C   0  0  0  0  0  0  0  0  0  0  0  0
    6.1529   -9.1827    0.0000 C   0  0  0  0  0  0  0  0  0  0  0  0
    5.6056   -9.8000    0.0000 C   0  0  0  0  0  0  0  0  0  0  0  0
    4.7973   -9.6347    0.0000 C   0  0  0  0  0  0  0  0  0  0  0  0
    4.5364   -8.8521    0.0000 C   0  0  0  0  0  0  0  0  0  0  0  0
    5.0837   -8.2348    0.0000 C   0  0  0  0  0  0  0  0  0  0  0  0
    5.8919   -8.4001    0.0000 C   0  0  0  0  0  0  0  0  0  0  0  0
    3.7281   -8.6868    0.0000 O   0  0  0  0  0  0  0  0  0  0  0  0
    8.0094   -8.1288    0.0000 C   0  0  0  0  0  0  0  0  0  0  0  0
    8.1747   -7.3206    0.0000 C   0  0  0  0  0  0  0  0  0  0  0  0
    8.9574   -7.0596    0.0000 C   0  0  0  0  0  0  0  0  0  0  0  0
    9.5747   -7.6069    0.0000 C   0  0  0  0  0  0  0  0  0  0  0  0
    9.4094   -8.4152    0.0000 C   0  0  0  0  0  0  0  0  0  0  0  0
    8.6267   -8.6761    0.0000 C   0  0  0  0  0  0  0  0  0  0  0  0
   10.3573   -7.3459    0.0000 O   0  0  0  0  0  0  0  0  0  0  0  0
   10.5226   -6.5377    0.0000 C   0  0  0  0  0  0  0  0  0  0  0  0
    7.5574   -6.7733    0.0000 O   0  0  0  0  0  0  0  0  0  0  0  0
  1  2  1  0  0  0  0
  2  3  2  0  0  0  0
  3  4  1  0  0  0  0
  4  5  1  0  0  0  0
  5  6  2  0  0  0  0
  6  7  1  0  0  0  0
  7  8  2  0  0  0  0
  8  9  1  0  0  0  0
  4  9  2  0  0  0  0
  1  9  1  0  0  0  0
  7 10  1  0  0  0  0
 11 12  1  0  0  0  0
 12 13  2  0  0  0  0
 13 14  1  0  0  0  0
 14 15  2  0  0  0  0
 15 16  1  0  0  0  0
 11 16  2  0  0  0  0
 17 18  1  0  0  0  0
 14 17  1  0  0  0  0
 12 19  1  0  0  0  0
  2 11  1  0  0  0  0
M  END
>  <cdx:fragmentId>
5

$$$$
