638321.cdx
  Mrv1902 05222410222D          

 43 46  0  0  0  0            999 V2000
    5.3822   -7.6450    0.0000 H   0  0  0  0  0  0  0  0  0  0  0  0
    3.9302   -5.7650    0.0000 O   0  0  0  0  0  0  0  0  0  0  0  0
    4.4848   -4.0580    0.0000 O   0  0  0  0  0  0  0  0  0  0  0  0
    5.9441   -3.3043    0.0000 O   0  0  0  0  0  0  0  0  0  0  0  0
    6.2797   -4.0580    0.0000 C   0  0  0  0  0  0  0  0  0  0  0  0
    5.7947   -4.7255    0.0000 C   0  0  2  0  0  0  0  0  0  0  0  0
    4.9697   -4.7255    0.0000 C   0  0  2  0  0  0  0  0  0  0  0  0
    4.7148   -5.5101    0.0000 C   0  0  1  0  0  0  0  0  0  0  0  0
    5.3822   -5.9950    0.0000 C   0  0  0  0  0  0  0  0  0  0  0  0
    6.0497   -5.5101    0.0000 N   0  0  0  0  0  0  0  0  0  0  0  0
    4.6678   -7.2325    0.0000 O   0  0  0  0  0  0  0  0  0  0  0  0
    5.3822   -6.8200    0.0000 C   0  0  0  0  0  0  0  0  0  0  0  0
    6.0967   -8.8825    0.0000 O   0  0  0  0  0  0  0  0  0  0  0  0
    8.2401   -9.2950    0.0000 O   0  0  0  0  0  0  0  0  0  0  0  0
   12.5269   -6.8200    0.0000 O   0  0  0  0  0  0  0  0  0  0  0  0
   10.3835   -7.2325    0.0000 C   0  0  0  0  0  0  0  0  0  0  0  0
   11.0980   -6.8200    0.0000 C   0  0  0  0  0  0  0  0  0  0  0  0
   11.8125   -7.2325    0.0000 C   0  0  0  0  0  0  0  0  0  0  0  0
   11.8125   -8.0575    0.0000 C   0  0  0  0  0  0  0  0  0  0  0  0
   11.0980   -8.4700    0.0000 C   0  0  0  0  0  0  0  0  0  0  0  0
   10.3835   -8.0575    0.0000 C   0  0  0  0  0  0  0  0  0  0  0  0
    9.6691   -8.4700    0.0000 C   0  0  0  0  0  0  0  0  0  0  0  0
    8.9546   -8.0575    0.0000 C   0  0  0  0  0  0  0  0  0  0  0  0
    8.2401   -8.4700    0.0000 C   0  0  0  0  0  0  0  0  0  0  0  0
    6.0967   -9.7075    0.0000 O   0  0  0  0  0  0  0  0  0  0  0  0
    4.6678  -10.5325    0.0000 O   0  0  0  0  0  0  0  0  0  0  0  0
    3.2388   -9.7075    0.0000 O   0  0  0  0  0  0  0  0  0  0  0  0
    2.5244   -8.4700    0.0000 O   0  0  0  0  0  0  0  0  0  0  0  0
    3.2388   -8.0575    0.0000 C   0  0  0  0  0  0  0  0  0  0  0  0
    3.9533   -8.4700    0.0000 C   0  0  2  0  0  0  0  0  0  0  0  0
    3.9533   -9.2950    0.0000 C   0  0  2  0  0  0  0  0  0  0  0  0
    4.6678   -9.7075    0.0000 C   0  0  1  0  0  0  0  0  0  0  0  0
    5.3822   -9.2950    0.0000 C   0  0  2  0  0  0  0  0  0  0  0  0
    5.3822   -8.4700    0.0000 C   0  0  1  0  0  0  0  0  0  0  0  0
    4.6678   -8.0575    0.0000 O   0  0  0  0  0  0  0  0  0  0  0  0
    8.2401   -6.8200    0.0000 O   0  0  0  0  0  0  0  0  0  0  0  0
    6.8112   -9.2950    0.0000 O   0  0  0  0  0  0  0  0  0  0  0  0
    6.0967   -8.0575    0.0000 C   0  0  0  0  0  0  0  0  0  0  0  0
    6.0967   -7.2325    0.0000 C   0  0  0  0  0  0  0  0  0  0  0  0
    6.8112   -6.8200    0.0000 C   0  0  0  0  0  0  0  0  0  0  0  0
    7.5257   -7.2325    0.0000 C   0  0  0  0  0  0  0  0  0  0  0  0
    7.5257   -8.0575    0.0000 C   0  0  0  0  0  0  0  0  0  0  0  0
    6.8112   -8.4700    0.0000 C   0  0  0  0  0  0  0  0  0  0  0  0
 34  1  1  6  0  0  0
 39 12  1  0  0  0  0
 12  9  2  0  0  0  0
  8  2  1  1  0  0  0
  7  3  1  6  0  0  0
  6  5  1  1  0  0  0
  5  4  1  0  0  0  0
 10  6  1  0  0  0  0
  7  6  1  0  0  0  0
  8  7  1  0  0  0  0
  9  8  1  0  0  0  0
 10  9  1  0  0  0  0
 12 11  1  0  0  0  0
 38 13  1  0  0  0  0
 42 24  2  0  0  0  0
 24 14  1  0  0  0  0
 22 21  1  0  0  0  0
 18 15  1  0  0  0  0
 21 16  2  0  0  0  0
 17 16  1  0  0  0  0
 18 17  2  0  0  0  0
 19 18  1  0  0  0  0
 20 19  2  0  0  0  0
 21 20  1  0  0  0  0
 23 22  2  0  0  0  0
 24 23  1  0  0  0  0
 38 34  1  0  0  0  0
 33 25  1  6  0  0  0
 32 26  1  1  0  0  0
 31 27  1  6  0  0  0
 30 29  1  1  0  0  0
 29 28  1  0  0  0  0
 35 30  1  0  0  0  0
 31 30  1  0  0  0  0
 32 31  1  0  0  0  0
 33 32  1  0  0  0  0
 34 33  1  0  0  0  0
 34 35  1  0  0  0  0
 41 36  2  0  0  0  0
 43 37  2  0  0  0  0
 43 38  1  0  0  0  0
 39 38  1  0  0  0  0
 40 39  2  0  0  0  0
 41 40  1  0  0  0  0
 42 41  1  0  0  0  0
 43 42  1  0  0  0  0
M  END
>  <cdx:groupId>
2101

>  <cdx:fragmentId>
1989

$$$$
