101638318.cdx
  Mrv1902 05222410222D          

 68 75  0  0  0  0            999 V2000
    4.4104  -11.1320    0.0000 O   0  0  0  0  0  0  0  0  0  0  0  0
    3.6959  -10.7195    0.0000 C   0  0  1  0  0  0  0  0  0  0  0  0
    3.6959   -9.8945    0.0000 C   0  0  2  0  0  0  0  0  0  0  0  0
    4.4104   -9.4820    0.0000 C   0  0  1  0  0  0  0  0  0  0  0  0
    5.1248   -9.8945    0.0000 C   0  0  2  0  0  0  0  0  0  0  0  0
    5.1248  -10.7195    0.0000 C   0  0  2  0  0  0  0  0  0  0  0  0
    2.9814  -11.1320    0.0000 C   0  0  0  0  0  0  0  0  0  0  0  0
    2.9814  -11.9570    0.0000 O   0  0  0  0  0  0  0  0  0  0  0  0
    2.2670  -10.7195    0.0000 O   0  0  0  0  0  0  0  0  0  0  0  0
    4.4104   -8.6570    0.0000 O   0  0  0  0  0  0  0  0  0  0  0  0
    2.9814   -9.4820    0.0000 O   0  0  0  0  0  0  0  0  0  0  0  0
    5.8393   -9.4820    0.0000 O   0  0  0  0  0  0  0  0  0  0  0  0
    6.5538   -7.7495    0.0000 O   0  0  0  0  0  0  0  0  0  0  0  0
    5.8393   -8.1620    0.0000 C   0  0  2  0  0  0  0  0  0  0  0  0
    5.1248   -7.7495    0.0000 C   0  0  1  0  0  0  0  0  0  0  0  0
    5.1248   -6.9245    0.0000 C   0  0  2  0  0  0  0  0  0  0  0  0
    5.8393   -6.5120    0.0000 C   0  0  2  0  0  0  0  0  0  0  0  0
    6.5538   -6.9245    0.0000 C   0  0  0  0  0  0  0  0  0  0  0  0
    4.4104   -8.1620    0.0000 O   0  0  0  0  0  0  0  0  0  0  0  0
    3.6959   -6.9245    0.0000 O   0  0  0  0  0  0  0  0  0  0  0  0
    3.6959   -7.7495    0.0000 C   0  0  2  0  0  0  0  0  0  0  0  0
    2.9814   -8.1620    0.0000 C   0  0  1  0  0  0  0  0  0  0  0  0
    2.2670   -7.7495    0.0000 C   0  0  1  0  0  0  0  0  0  0  0  0
    2.2670   -6.9245    0.0000 C   0  0  2  0  0  0  0  0  0  0  0  0
    2.9814   -6.5120    0.0000 C   0  0  2  0  0  0  0  0  0  0  0  0
    2.9814   -5.6870    0.0000 C   0  0  0  0  0  0  0  0  0  0  0  0
    1.5525   -6.5120    0.0000 O   0  0  0  0  0  0  0  0  0  0  0  0
    1.5525   -8.1620    0.0000 O   0  0  0  0  0  0  0  0  0  0  0  0
    2.9814   -8.9870    0.0000 O   0  0  0  0  0  0  0  0  0  0  0  0
    5.8393   -5.6870    0.0000 O   0  0  0  0  0  0  0  0  0  0  0  0
    4.4104   -6.5120    0.0000 O   0  0  0  0  0  0  0  0  0  0  0  0
    5.8393  -11.1320    0.0000 O   0  0  0  0  0  0  0  0  0  0  0  0
    7.2682   -9.4820    0.0000 C   0  0  0  0  0  0  0  0  0  0  0  0
    6.5538   -9.8945    0.0000 C   0  0  0  0  0  0  0  0  0  0  0  0
    6.5538  -10.7195    0.0000 C   0  0  1  0  0  0  0  0  0  0  0  0
    7.2682  -11.1320    0.0000 C   0  0  2  0  0  0  0  0  0  0  0  0
    7.9827  -10.7195    0.0000 C   0  0  2  0  0  0  0  0  0  0  0  0
    8.6972  -11.1320    0.0000 C   0  0  0  0  0  0  0  0  0  0  0  0
    9.4117  -10.7195    0.0000 C   0  0  0  0  0  0  0  0  0  0  0  0
    9.4117   -9.8945    0.0000 C   0  0  1  0  0  0  0  0  0  0  0  0
   10.1261   -9.4820    0.0000 C   0  0  2  0  0  0  0  0  0  0  0  0
   10.8406   -9.8945    0.0000 C   0  0  0  0  0  0  0  0  0  0  0  0
   11.5551   -9.4820    0.0000 C   0  0  0  0  0  0  0  0  0  0  0  0
   11.5551   -8.6570    0.0000 C   0  0  1  0  0  0  0  0  0  0  0  0
   12.2695   -8.2445    0.0000 C   0  0  1  0  0  0  0  0  0  0  0  0
   12.2695   -7.4195    0.0000 C   0  0  0  0  0  0  0  0  0  0  0  0
   11.5551   -7.0070    0.0000 C   0  0  0  0  0  0  0  0  0  0  0  0
   10.8406   -7.4195    0.0000 C   0  0  0  0  0  0  0  0  0  0  0  0
   10.8406   -8.2445    0.0000 C   0  0  1  0  0  0  0  0  0  0  0  0
   10.1261   -8.6570    0.0000 C   0  0  0  0  0  0  0  0  0  0  0  0
    9.4117   -8.2445    0.0000 C   0  0  0  0  0  0  0  0  0  0  0  0
    8.6972   -8.6570    0.0000 C   0  0  0  0  0  0  0  0  0  0  0  0
    8.6972   -9.4820    0.0000 C   0  0  2  0  0  0  0  0  0  0  0  0
    7.9827   -9.8945    0.0000 C   0  0  1  0  0  0  0  0  0  0  0  0
    7.9827   -9.0695    0.0000 C   0  0  0  0  0  0  0  0  0  0  0  0
   11.1426   -6.2925    0.0000 C   0  0  0  0  0  0  0  0  0  0  0  0
   11.9676   -6.2925    0.0000 C   0  0  0  0  0  0  0  0  0  0  0  0
   12.2695   -9.0695    0.0000 C   0  0  0  0  0  0  0  0  0  0  0  0
   10.1261  -10.3070    0.0000 C   0  0  0  0  0  0  0  0  0  0  0  0
    9.4117   -9.0695    0.0000 C   0  0  0  0  0  0  0  0  0  0  0  0
    6.8557  -11.8464    0.0000 C   0  0  0  0  0  0  0  0  0  0  0  0
    7.6807  -11.8464    0.0000 C   0  0  0  0  0  0  0  0  0  0  0  0
    7.2682  -12.5609    0.0000 O   0  0  0  0  0  0  0  0  0  0  0  0
   12.9840   -8.6570    0.0000 O   0  0  0  0  0  0  0  0  0  0  0  0
    1.5525  -11.1320    0.0000 C   0  0  0  0  0  0  0  0  0  0  0  0
    7.9827  -11.5445    0.0000 H   0  0  0  0  0  0  0  0  0  0  0  0
   10.8406   -9.0695    0.0000 H   0  0  0  0  0  0  0  0  0  0  0  0
    8.6972  -10.3070    0.0000 H   0  0  0  0  0  0  0  0  0  0  0  0
  1  2  1  0  0  0  0
  2  3  1  0  0  0  0
  3  4  1  0  0  0  0
  4  5  1  0  0  0  0
  5  6  1  0  0  0  0
  1  6  1  0  0  0  0
  7  8  2  0  0  0  0
  7  9  1  0  0  0  0
  2  7  1  6  0  0  0
  4 10  1  6  0  0  0
  3 11  1  1  0  0  0
 13 14  1  0  0  0  0
 14 15  1  0  0  0  0
 15 16  1  0  0  0  0
 16 17  1  0  0  0  0
 17 18  1  0  0  0  0
 13 18  1  0  0  0  0
 20 21  1  0  0  0  0
 21 22  1  0  0  0  0
 22 23  1  0  0  0  0
 23 24  1  0  0  0  0
 24 25  1  0  0  0  0
 20 25  1  0  0  0  0
 25 26  1  6  0  0  0
 24 27  1  1  0  0  0
 23 28  1  6  0  0  0
 22 29  1  6  0  0  0
 21 19  1  1  0  0  0
 15 19  1  6  0  0  0
 17 30  1  1  0  0  0
 16 31  1  1  0  0  0
 14 12  1  1  0  0  0
  5 12  1  1  0  0  0
 33 34  1  0  0  0  0
 34 35  1  0  0  0  0
 35 36  1  0  0  0  0
 36 37  1  0  0  0  0
 37 38  1  0  0  0  0
 38 39  1  0  0  0  0
 39 40  1  0  0  0  0
 40 41  1  0  0  0  0
 41 42  1  0  0  0  0
 42 43  1  0  0  0  0
 43 44  1  0  0  0  0
 44 45  1  0  0  0  0
 45 46  1  0  0  0  0
 46 47  1  0  0  0  0
 47 48  1  0  0  0  0
 48 49  1  0  0  0  0
 44 49  1  0  0  0  0
 49 50  1  0  0  0  0
 41 50  1  0  0  0  0
 50 51  2  0  0  0  0
 51 52  1  0  0  0  0
 52 53  1  0  0  0  0
 40 53  1  0  0  0  0
 53 54  1  0  0  0  0
 37 54  1  0  0  0  0
 33 54  1  0  0  0  0
 54 55  1  1  0  0  0
 47 56  1  0  0  0  0
 47 57  1  0  0  0  0
 44 58  1  1  0  0  0
 41 59  1  6  0  0  0
 40 60  1  1  0  0  0
 36 61  1  6  0  0  0
 62 63  1  0  0  0  0
 36 62  1  1  0  0  0
 45 64  1  1  0  0  0
 35 32  1  1  0  0  0
  6 32  1  6  0  0  0
  9 65  1  0  0  0  0
 37 66  1  6  0  0  0
 49 67  1  1  0  0  0
 53 68  1  6  0  0  0
M  END
>  <cdx:fragmentId>
257134

$$$$
