638759.cdx
  Mrv1902 05222410262D          

 12 12  0  0  0  0            999 V2000
    8.0435   -5.9466    0.0000 C   0  0  0  0  0  0  0  0  0  0  0  0
    8.7580   -6.3591    0.0000 C   0  0  0  0  0  0  0  0  0  0  0  0
    9.4724   -5.9466    0.0000 C   0  0  0  0  0  0  0  0  0  0  0  0
    8.0435   -5.1216    0.0000 O   0  0  0  0  0  0  0  0  0  0  0  0
    7.3290   -6.3591    0.0000 C   0  0  0  0  0  0  0  0  0  0  0  0
    7.3290   -7.1841    0.0000 C   0  0  0  0  0  0  0  0  0  0  0  0
    6.6145   -7.5966    0.0000 C   0  0  0  0  0  0  0  0  0  0  0  0
    5.9001   -7.1841    0.0000 C   0  0  0  0  0  0  0  0  0  0  0  0
    5.9001   -6.3591    0.0000 C   0  0  0  0  0  0  0  0  0  0  0  0
    6.6145   -5.9466    0.0000 C   0  0  0  0  0  0  0  0  0  0  0  0
    5.1856   -7.5966    0.0000 O   0  0  0  0  0  0  0  0  0  0  0  0
   10.1869   -6.3591    0.0000 O   0  0  0  0  0  0  0  0  0  0  0  0
  1  2  1  0  0  0  0
  2  3  1  0  0  0  0
  1  4  2  0  0  0  0
  5  6  1  0  0  0  0
  6  7  2  0  0  0  0
  7  8  1  0  0  0  0
  8  9  2  0  0  0  0
  9 10  1  0  0  0  0
  5 10  2  0  0  0  0
  8 11  1  0  0  0  0
  1  5  1  0  0  0  0
  3 12  1  0  0  0  0
M  END
>  <cdx:fragmentId>
12873

$$$$
