639288.cdx
  Mrv1902 05222410182D          

 28 32  0  0  0  0            999 V2000
   12.8246   -8.6049    0.0000 C   0  0  0  0  0  0  0  0  0  0  0  0
   12.3397   -7.9375    0.0000 C   0  0  0  0  0  0  0  0  0  0  0  0
   12.8246   -7.2700    0.0000 C   0  0  0  0  0  0  0  0  0  0  0  0
   13.6092   -7.5250    0.0000 N   0  0  0  0  0  0  0  0  0  0  0  0
   14.3237   -7.1125    0.0000 C   0  0  0  0  0  0  0  0  0  0  0  0
   15.0381   -7.5250    0.0000 C   0  0  0  0  0  0  0  0  0  0  0  0
   15.0381   -8.3500    0.0000 C   0  0  0  0  0  0  0  0  0  0  0  0
   14.3237   -8.7625    0.0000 C   0  0  0  0  0  0  0  0  0  0  0  0
   13.6092   -8.3500    0.0000 C   0  0  1  0  0  0  0  0  0  0  0  0
   15.7526   -9.5875    0.0000 C   0  0  0  0  0  0  0  0  0  0  0  0
   16.4671  -10.0000    0.0000 C   0  0  0  0  0  0  0  0  0  0  0  0
   17.1816   -9.5875    0.0000 C   0  0  0  0  0  0  0  0  0  0  0  0
   17.1816   -8.7625    0.0000 C   0  0  0  0  0  0  0  0  0  0  0  0
   16.4671   -8.3500    0.0000 C   0  0  0  0  0  0  0  0  0  0  0  0
   16.4671   -7.5250    0.0000 C   0  0  0  0  0  0  0  0  0  0  0  0
   17.1816   -7.1125    0.0000 C   0  0  0  0  0  0  0  0  0  0  0  0
   17.1816   -6.2875    0.0000 C   0  0  0  0  0  0  0  0  0  0  0  0
   16.4671   -5.8750    0.0000 C   0  0  0  0  0  0  0  0  0  0  0  0
   15.7526   -6.2875    0.0000 C   0  0  0  0  0  0  0  0  0  0  0  0
   15.7526   -7.1125    0.0000 C   0  0  0  0  0  0  0  0  0  0  0  0
   15.7526   -8.7625    0.0000 C   0  0  0  0  0  0  0  0  0  0  0  0
   17.8960   -5.8750    0.0000 O   0  0  0  0  0  0  0  0  0  0  0  0
   18.6105   -6.2875    0.0000 C   0  0  0  0  0  0  0  0  0  0  0  0
   17.8960  -10.0000    0.0000 O   0  0  0  0  0  0  0  0  0  0  0  0
   18.6105   -9.5875    0.0000 C   0  0  0  0  0  0  0  0  0  0  0  0
   16.4671  -10.8250    0.0000 O   0  0  0  0  0  0  0  0  0  0  0  0
   17.1816  -11.2375    0.0000 C   0  0  0  0  0  0  0  0  0  0  0  0
   13.5230   -9.1705    0.0000 H   0  0  0  0  0  0  0  0  0  0  0  0
  1  2  1  0  0  0  0
  2  3  1  0  0  0  0
  3  4  1  0  0  0  0
  4  5  1  0  0  0  0
  5  6  1  0  0  0  0
  6  7  1  0  0  0  0
  7  8  1  0  0  0  0
  8  9  1  0  0  0  0
  1  9  1  0  0  0  0
  4  9  1  0  0  0  0
 10 11  2  0  0  0  0
 11 12  1  0  0  0  0
 12 13  2  0  0  0  0
 13 14  1  0  0  0  0
 14 15  2  0  0  0  0
 15 16  1  0  0  0  0
 16 17  2  0  0  0  0
 17 18  1  0  0  0  0
 18 19  2  0  0  0  0
 19 20  1  0  0  0  0
 15 20  1  0  0  0  0
 10 21  1  0  0  0  0
 14 21  1  0  0  0  0
 20  6  2  0  0  0  0
 21  7  2  0  0  0  0
 22 23  1  0  0  0  0
 17 22  1  0  0  0  0
 24 25  1  0  0  0  0
 12 24  1  0  0  0  0
 26 27  1  0  0  0  0
 11 26  1  0  0  0  0
  9 28  1  6  0  0  0
M  END
>  <cdx:groupId>
12991

>  <cdx:fragmentId>
12924

$$$$
