6395.cdx
  Mrv1902 05222410242D          

 53 58  0  0  0  0            999 V2000
   14.3928   -7.7547    0.0000 C   0  0  0  0  0  0  0  0  0  0  0  0
   14.3903   -8.5797    0.0000 C   0  0  0  0  0  0  0  0  0  0  0  0
   13.6746   -8.9899    0.0000 C   0  0  0  0  0  0  0  0  0  0  0  0
   12.9614   -8.5752    0.0000 C   0  0  0  0  0  0  0  0  0  0  0  0
   12.2456   -8.9855    0.0000 C   0  0  0  0  0  0  0  0  0  0  0  0
   11.5324   -8.5708    0.0000 C   0  0  0  0  0  0  0  0  0  0  0  0
   11.5350   -7.7458    0.0000 C   0  0  0  0  0  0  0  0  0  0  0  0
   12.2507   -7.3355    0.0000 C   0  0  0  0  0  0  0  0  0  0  0  0
   12.9639   -7.7502    0.0000 C   0  0  0  0  0  0  0  0  0  0  0  0
   13.6797   -7.3400    0.0000 O   0  0  0  0  0  0  0  0  0  0  0  0
   13.6720   -9.8149    0.0000 O   0  0  0  0  0  0  0  0  0  0  0  0
   10.8218   -7.3311    0.0000 O   0  0  0  0  0  0  0  0  0  0  0  0
   10.1073   -7.7436    0.0000 C   0  0  0  0  0  0  0  0  0  0  0  0
   15.1086   -7.3444    0.0000 C   0  0  0  0  0  0  0  0  0  0  0  0
   15.1111   -6.5194    0.0000 C   0  0  0  0  0  0  0  0  0  0  0  0
   15.8269   -6.1091    0.0000 C   0  0  0  0  0  0  0  0  0  0  0  0
   16.5401   -6.5238    0.0000 C   0  0  0  0  0  0  0  0  0  0  0  0
   16.5375   -7.3488    0.0000 C   0  0  0  0  0  0  0  0  0  0  0  0
   15.8218   -7.7591    0.0000 C   0  0  0  0  0  0  0  0  0  0  0  0
   17.2558   -6.1135    0.0000 O   0  0  0  0  0  0  0  0  0  0  0  0
   12.2431   -9.8105    0.0000 O   0  0  0  0  0  0  0  0  0  0  0  0
   10.7998  -11.4561    0.0000 O   0  0  0  0  0  0  0  0  0  0  0  0
   10.7941  -12.2810    0.0000 C   0  0  1  0  0  0  0  0  0  0  0  0
   11.5058  -12.6984    0.0000 C   0  0  2  0  0  0  0  0  0  0  0  0
   12.2231  -12.2908    0.0000 C   0  0  1  0  0  0  0  0  0  0  0  0
   12.2287  -11.4658    0.0000 C   0  0  2  0  0  0  0  0  0  0  0  0
   11.5171  -11.0485    0.0000 C   0  0  2  0  0  0  0  0  0  0  0  0
   12.9460  -11.0582    0.0000 O   0  0  0  0  0  0  0  0  0  0  0  0
   12.9347  -12.7082    0.0000 O   0  0  0  0  0  0  0  0  0  0  0  0
   11.5001  -13.5234    0.0000 O   0  0  0  0  0  0  0  0  0  0  0  0
   11.5227  -10.2235    0.0000 O   0  0  0  0  0  0  0  0  0  0  0  0
   10.1050   -8.5637    0.0000 O   0  0  0  0  0  0  0  0  0  0  0  0
   10.8167   -8.9811    0.0000 C   0  0  2  0  0  0  0  0  0  0  0  0
   10.8110   -9.8061    0.0000 C   0  0  1  0  0  0  0  0  0  0  0  0
   10.0938  -10.2137    0.0000 C   0  0  2  0  0  0  0  0  0  0  0  0
    9.3821   -9.7963    0.0000 C   0  0  1  0  0  0  0  0  0  0  0  0
    9.3878   -8.9714    0.0000 C   0  0  1  0  0  0  0  0  0  0  0  0
    8.6761   -8.5540    0.0000 C   0  0  0  0  0  0  0  0  0  0  0  0
    7.9589   -8.9616    0.0000 O   0  0  0  0  0  0  0  0  0  0  0  0
    8.6649  -10.2039    0.0000 O   0  0  0  0  0  0  0  0  0  0  0  0
   10.0881  -11.0387    0.0000 O   0  0  0  0  0  0  0  0  0  0  0  0
   10.0769  -12.6887    0.0000 C   0  0  0  0  0  0  0  0  0  0  0  0
    9.3652  -12.2713    0.0000 O   0  0  0  0  0  0  0  0  0  0  0  0
    8.6423  -13.5039    0.0000 O   0  0  0  0  0  0  0  0  0  0  0  0
    7.9363  -12.2615    0.0000 C   0  0  0  0  0  0  0  0  0  0  0  0
    8.6480  -12.6789    0.0000 C   0  0  0  0  0  0  0  0  0  0  0  0
   10.8167   -8.1561    0.0000 H   0  0  0  0  0  0  0  0  0  0  0  0
    7.9448  -11.4366    0.0000 C   0  0  0  0  0  0  0  0  0  0  0  0
    7.2345  -11.0168    0.0000 C   0  0  0  0  0  0  0  0  0  0  0  0
    6.5159  -11.4366    0.0000 C   0  0  0  0  0  0  0  0  0  0  0  0
    6.5159  -12.2615    0.0000 C   0  0  0  0  0  0  0  0  0  0  0  0
    7.2345  -12.6813    0.0000 C   0  0  0  0  0  0  0  0  0  0  0  0
    5.8004  -11.0259    0.0000 O   0  0  0  0  0  0  0  0  0  0  0  0
 43 42  1  0  0  0  0
 33  6  1  0  0  0  0
  1  2  2  0  0  0  0
  2  3  1  0  0  0  0
 46 43  1  0  0  0  0
 46 44  2  0  0  0  0
 46 45  1  0  0  0  0
  3  4  1  0  0  0  0
  4  5  1  0  0  0  0
  5  6  2  0  0  0  0
  6  7  1  0  0  0  0
  7  8  2  0  0  0  0
  8  9  1  0  0  0  0
  4  9  2  0  0  0  0
  9 10  1  0  0  0  0
  1 10  1  0  0  0  0
  3 11  2  0  0  0  0
 12 13  1  0  0  0  0
  7 12  1  0  0  0  0
 14 15  1  0  0  0  0
 15 16  2  0  0  0  0
 16 17  1  0  0  0  0
 17 18  2  0  0  0  0
 18 19  1  0  0  0  0
 14 19  2  0  0  0  0
 17 20  1  0  0  0  0
  1 14  1  0  0  0  0
  5 21  1  0  0  0  0
 22 23  1  0  0  0  0
 23 24  1  0  0  0  0
 24 25  1  0  0  0  0
 25 26  1  0  0  0  0
 26 27  1  0  0  0  0
 22 27  1  0  0  0  0
 26 28  1  6  0  0  0
 25 29  1  1  0  0  0
 24 30  1  6  0  0  0
 32 33  1  0  0  0  0
 33 34  1  0  0  0  0
 34 35  1  0  0  0  0
 35 36  1  0  0  0  0
 36 37  1  0  0  0  0
 32 37  1  0  0  0  0
 38 39  1  0  0  0  0
 37 38  1  1  0  0  0
 36 40  1  6  0  0  0
 35 41  1  1  0  0  0
 34 31  1  6  0  0  0
 27 31  1  1  0  0  0
 23 42  1  1  0  0  0
 33 47  1  6  0  0  0
 45 48  2  0  0  0  0
 48 49  1  0  0  0  0
 49 50  2  0  0  0  0
 50 51  1  0  0  0  0
 51 52  2  0  0  0  0
 52 45  1  0  0  0  0
 50 53  1  0  0  0  0
M  END
>  <cdx:fragmentId>
133584

$$$$
