6401.cdx
  Mrv1902 05222410222D          

 42 45  0  0  0  0            999 V2000
    2.4577   -7.7963    0.0000 C   0  0  0  0  0  0  0  0  0  0  0  0
    2.4577   -8.6212    0.0000 C   0  0  0  0  0  0  0  0  0  0  0  0
    3.1721   -9.0337    0.0000 C   0  0  0  0  0  0  0  0  0  0  0  0
    3.8866   -8.6212    0.0000 C   0  0  0  0  0  0  0  0  0  0  0  0
    3.8866   -7.7963    0.0000 C   0  0  0  0  0  0  0  0  0  0  0  0
    3.1721   -7.3838    0.0000 C   0  0  0  0  0  0  0  0  0  0  0  0
    4.6011   -9.0337    0.0000 C   0  0  0  0  0  0  0  0  0  0  0  0
    5.3155   -8.6212    0.0000 C   0  0  0  0  0  0  0  0  0  0  0  0
    5.3155   -7.7963    0.0000 C   0  0  0  0  0  0  0  0  0  0  0  0
    6.0300   -7.3838    0.0000 C   0  0  0  0  0  0  0  0  0  0  0  0
    6.0300   -6.5587    0.0000 C   0  0  0  0  0  0  0  0  0  0  0  0
    6.7445   -7.7963    0.0000 C   0  0  0  0  0  0  0  0  0  0  0  0
    7.4590   -7.3838    0.0000 C   0  0  0  0  0  0  0  0  0  0  0  0
    7.4590   -6.5587    0.0000 C   0  0  0  0  0  0  0  0  0  0  0  0
    6.7445   -6.1463    0.0000 C   0  0  0  0  0  0  0  0  0  0  0  0
    8.8879   -7.3838    0.0000 O   0  0  0  0  0  0  0  0  0  0  0  0
    8.8879   -6.5587    0.0000 C   0  0  1  0  0  0  0  0  0  0  0  0
    8.1734   -6.1463    0.0000 O   0  0  0  0  0  0  0  0  0  0  0  0
    9.6024   -7.7963    0.0000 C   0  0  1  0  0  0  0  0  0  0  0  0
   10.3168   -7.3838    0.0000 C   0  0  2  0  0  0  0  0  0  0  0  0
   10.3168   -6.5587    0.0000 C   0  0  1  0  0  0  0  0  0  0  0  0
    9.6024   -6.1463    0.0000 C   0  0  1  0  0  0  0  0  0  0  0  0
    1.7432   -7.3838    0.0000 O   0  0  0  0  0  0  0  0  0  0  0  0
    3.1721   -9.8588    0.0000 O   0  0  0  0  0  0  0  0  0  0  0  0
    4.6011   -9.8588    0.0000 O   0  0  0  0  0  0  0  0  0  0  0  0
    9.6024   -8.6212    0.0000 C   0  0  0  0  0  0  0  0  0  0  0  0
    8.8879   -9.0337    0.0000 O   0  0  0  0  0  0  0  0  0  0  0  0
    9.6024   -5.3213    0.0000 O   0  0  0  0  0  0  0  0  0  0  0  0
   10.3168   -4.9088    0.0000 C   0  0  2  0  0  0  0  0  0  0  0  0
   11.0705   -5.2443    0.0000 O   0  0  0  0  0  0  0  0  0  0  0  0
   11.6225   -4.6312    0.0000 C   0  0  0  0  0  0  0  0  0  0  0  0
   11.2100   -3.9167    0.0000 C   0  0  2  0  0  0  0  0  0  0  0  0
   10.4031   -4.0883    0.0000 C   0  0  1  0  0  0  0  0  0  0  0  0
    9.6024   -4.4962    0.0000 H   0  0  0  0  0  0  0  0  0  0  0  0
   12.0350   -3.9167    0.0000 O   0  0  0  0  0  0  0  0  0  0  0  0
   11.6225   -3.2023    0.0000 C   0  0  0  0  0  0  0  0  0  0  0  0
   12.4475   -3.2023    0.0000 O   0  0  0  0  0  0  0  0  0  0  0  0
   11.0313   -6.1463    0.0000 O   0  0  0  0  0  0  0  0  0  0  0  0
    8.1734   -6.9712    0.0000 H   0  0  0  0  0  0  0  0  0  0  0  0
   11.0313   -7.7963    0.0000 O   0  0  0  0  0  0  0  0  0  0  0  0
    9.8197   -3.5049    0.0000 O   0  0  0  0  0  0  0  0  0  0  0  0
    6.7445   -8.6212    0.0000 O   0  0  0  0  0  0  0  0  0  0  0  0
  1  2  2  0  0  0  0
  2  3  1  0  0  0  0
  3  4  2  0  0  0  0
  4  5  1  0  0  0  0
  5  6  2  0  0  0  0
  6  1  1  0  0  0  0
  4  7  1  0  0  0  0
  7  8  1  0  0  0  0
  8  9  2  0  0  0  0
  9 10  1  0  0  0  0
 10 11  1  0  0  0  0
 10 12  2  0  0  0  0
 12 13  1  0  0  0  0
 13 14  2  0  0  0  0
 14 15  1  0  0  0  0
 15 11  2  0  0  0  0
 16 17  1  0  0  0  0
 17 18  1  0  0  0  0
 18 14  1  0  0  0  0
 16 19  1  0  0  0  0
 19 20  1  0  0  0  0
 20 21  1  0  0  0  0
 21 22  1  0  0  0  0
 22 17  1  0  0  0  0
  1 23  1  0  0  0  0
  3 24  1  0  0  0  0
  7 25  2  0  0  0  0
 19 26  1  1  0  0  0
 26 27  1  0  0  0  0
 22 28  1  6  0  0  0
 29 28  1  1  0  0  0
 29 30  1  0  0  0  0
 30 31  1  0  0  0  0
 31 32  1  0  0  0  0
 32 33  1  0  0  0  0
 33 29  1  0  0  0  0
 29 34  1  0  0  0  0
 32 35  1  0  0  0  0
 32 36  1  1  0  0  0
 36 37  1  0  0  0  0
 21 38  1  1  0  0  0
 17 39  1  6  0  0  0
 20 40  1  6  0  0  0
 33 41  1  6  0  0  0
 12 42  1  0  0  0  0
M  END
>  <cdx:fragmentId>
5

$$$$
