6405.cdx
  Mrv1902 05222410212D          

  6  5  0  0  0  0            999 V2000
    3.6038   -3.8622    0.0000 C   0  0  0  0  0  0  0  0  0  0  0  0
    4.0163   -3.1477    0.0000 C   0  0  0  0  0  0  0  0  0  0  0  0
    4.7307   -3.5602    0.0000 C   0  0  0  0  0  0  0  0  0  0  0  0
    5.4452   -3.1477    0.0000 C   0  0  0  0  0  0  0  0  0  0  0  0
    3.3018   -2.7352    0.0000 O   0  0  0  0  0  0  0  0  0  0  0  0
    4.4288   -2.4332    0.0000 C   0  0  0  0  0  0  0  0  0  0  0  0
  1  2  1  0  0  0  0
  2  3  1  0  0  0  0
  3  4  1  0  0  0  0
  2  5  1  0  0  0  0
  2  6  1  0  0  0  0
M  END
>  <cdx:groupId>
19

>  <cdx:fragmentId>
5

$$$$
