6406.cdx
  Mrv1902 05222410202D          

 33 36  0  0  0  0            999 V2000
    4.4991   -7.7920    0.0000 O   0  0  0  0  0  0  0  0  0  0  0  0
    5.2136   -7.3795    0.0000 C   0  0  0  0  0  0  0  0  0  0  0  0
    5.2136   -6.5545    0.0000 C   0  0  0  0  0  0  0  0  0  0  0  0
    4.4991   -6.1420    0.0000 O   0  0  0  0  0  0  0  0  0  0  0  0
    5.9281   -7.7920    0.0000 C   0  0  0  0  0  0  0  0  0  0  0  0
    6.6425   -7.3795    0.0000 C   0  0  0  0  0  0  0  0  0  0  0  0
    6.6425   -6.5545    0.0000 C   0  0  0  0  0  0  0  0  0  0  0  0
    5.9281   -6.1420    0.0000 C   0  0  0  0  0  0  0  0  0  0  0  0
    7.3570   -7.7920    0.0000 C   0  0  0  0  0  0  0  0  0  0  0  0
    8.0715   -7.3795    0.0000 C   0  0  0  0  0  0  0  0  0  0  0  0
    8.0715   -6.5545    0.0000 C   0  0  0  0  0  0  0  0  0  0  0  0
    7.3570   -6.1420    0.0000 O   0  0  0  0  0  0  0  0  0  0  0  0
    8.7859   -7.7920    0.0000 O   0  0  0  0  0  0  0  0  0  0  0  0
    9.5004   -6.5545    0.0000 C   0  0  0  0  0  0  0  0  0  0  0  0
    8.7859   -6.1420    0.0000 C   0  0  0  0  0  0  0  0  0  0  0  0
   10.2149   -6.1420    0.0000 C   0  0  0  0  0  0  0  0  0  0  0  0
   10.2149   -5.3170    0.0000 C   0  0  0  0  0  0  0  0  0  0  0  0
    9.5004   -4.9045    0.0000 C   0  0  0  0  0  0  0  0  0  0  0  0
    8.7859   -5.3170    0.0000 C   0  0  0  0  0  0  0  0  0  0  0  0
    7.3570   -8.6170    0.0000 O   0  0  0  0  0  0  0  0  0  0  0  0
    8.0715   -9.0295    0.0000 O   0  0  0  0  0  0  0  0  0  0  0  0
    8.7859   -8.6170    0.0000 C   0  0  2  0  0  0  0  0  0  0  0  0
    8.0715   -9.8545    0.0000 C   0  0  1  0  0  0  0  0  0  0  0  0
    8.7859  -10.2670    0.0000 C   0  0  2  0  0  0  0  0  0  0  0  0
    9.5004   -9.8545    0.0000 C   0  0  1  0  0  0  0  0  0  0  0  0
    9.5004   -9.0295    0.0000 C   0  0  1  0  0  0  0  0  0  0  0  0
    7.3570  -10.2670    0.0000 C   0  0  0  0  0  0  0  0  0  0  0  0
    7.3570  -11.0920    0.0000 O   0  0  0  0  0  0  0  0  0  0  0  0
    8.7859  -11.0920    0.0000 O   0  0  0  0  0  0  0  0  0  0  0  0
    5.9281   -8.6170    0.0000 O   0  0  0  0  0  0  0  0  0  0  0  0
   10.9294   -4.9045    0.0000 O   0  0  0  0  0  0  0  0  0  0  0  0
   10.2149  -10.2670    0.0000 O   0  0  0  0  0  0  0  0  0  0  0  0
   10.2149   -8.6170    0.0000 O   0  0  0  0  0  0  0  0  0  0  0  0
  1  2  1  0  0  0  0
  2  3  2  0  0  0  0
  3  4  1  0  0  0  0
  2  5  1  0  0  0  0
  5  6  2  0  0  0  0
  6  7  1  0  0  0  0
  7  8  2  0  0  0  0
  8  3  1  0  0  0  0
  6  9  1  0  0  0  0
  9 10  1  0  0  0  0
 10 11  2  0  0  0  0
 11 12  1  0  0  0  0
 12  7  1  0  0  0  0
 10 13  1  0  0  0  0
 14 15  2  0  0  0  0
 15 11  1  0  0  0  0
 14 16  1  0  0  0  0
 16 17  2  0  0  0  0
 17 18  1  0  0  0  0
 18 19  2  0  0  0  0
 19 15  1  0  0  0  0
  9 20  2  0  0  0  0
 21 22  1  0  0  0  0
 22 13  1  1  0  0  0
 21 23  1  0  0  0  0
 23 24  1  0  0  0  0
 24 25  1  0  0  0  0
 25 26  1  0  0  0  0
 26 22  1  0  0  0  0
 23 27  1  1  0  0  0
 27 28  1  0  0  0  0
 24 29  1  6  0  0  0
  5 30  1  0  0  0  0
 17 31  1  0  0  0  0
 25 32  1  1  0  0  0
 26 33  1  6  0  0  0
M  END
>  <cdx:fragmentId>
5

$$$$
