641298.cdx
  Mrv1902 05222410272D          

 12 12  0  0  0  0            999 V2000
    7.8119   -8.0744    0.0000 C   0  0  0  0  0  0  0  0  0  0  0  0
    7.0999   -8.4912    0.0000 C   0  0  0  0  0  0  0  0  0  0  0  0
    7.1049   -9.3162    0.0000 C   0  0  0  0  0  0  0  0  0  0  0  0
    7.8218   -9.7244    0.0000 C   0  0  0  0  0  0  0  0  0  0  0  0
    8.5338   -9.3076    0.0000 C   0  0  0  0  0  0  0  0  0  0  0  0
    8.5288   -8.4826    0.0000 C   0  0  0  0  0  0  0  0  0  0  0  0
    9.2259   -5.5908    0.0000 O   0  0  0  0  0  0  0  0  0  0  0  0
    7.8069   -7.2494    0.0000 C   0  0  0  0  0  0  0  0  0  0  0  0
    8.5189   -6.8326    0.0000 C   0  0  0  0  0  0  0  0  0  0  0  0
    8.5139   -6.0076    0.0000 C   0  0  0  0  0  0  0  0  0  0  0  0
    6.3830   -8.0830    0.0000 O   0  0  0  0  0  0  0  0  0  0  0  0
    5.6710   -8.4998    0.0000 C   0  0  0  0  0  0  0  0  0  0  0  0
 10  7  2  0  0  0  0
  9  8  2  0  0  0  0
 10  9  1  0  0  0  0
  8  1  1  0  0  0  0
  1  2  1  0  0  0  0
  2  3  2  0  0  0  0
  3  4  1  0  0  0  0
  4  5  2  0  0  0  0
  5  6  1  0  0  0  0
  1  6  2  0  0  0  0
  2 11  1  0  0  0  0
 11 12  1  0  0  0  0
M  END
>  <cdx:fragmentId>
13105

$$$$
