641785.cdx
  Mrv1902 05222410222D          

 20 21  0  0  0  0            999 V2000
   13.2781   -9.4078    0.0000 C   0  0  0  0  0  0  0  0  0  0  0  0
   13.2781   -8.5828    0.0000 C   0  0  0  0  0  0  0  0  0  0  0  0
   13.9926   -8.1703    0.0000 C   0  0  0  0  0  0  0  0  0  0  0  0
   14.7070   -8.5828    0.0000 C   0  0  0  0  0  0  0  0  0  0  0  0
   14.7070   -9.4078    0.0000 C   0  0  0  0  0  0  0  0  0  0  0  0
   13.9926   -9.8203    0.0000 C   0  0  0  0  0  0  0  0  0  0  0  0
   15.4215   -8.1703    0.0000 C   0  0  0  0  0  0  0  0  0  0  0  0
   16.1360   -8.5828    0.0000 C   0  0  0  0  0  0  0  0  0  0  0  0
   17.5649   -8.5828    0.0000 C   0  0  0  0  0  0  0  0  0  0  0  0
   18.2794   -8.1703    0.0000 C   0  0  0  0  0  0  0  0  0  0  0  0
   18.9939   -8.5828    0.0000 C   0  0  0  0  0  0  0  0  0  0  0  0
   18.9939   -9.4078    0.0000 C   0  0  0  0  0  0  0  0  0  0  0  0
   18.2794   -9.8203    0.0000 C   0  0  0  0  0  0  0  0  0  0  0  0
   17.5649   -9.4078    0.0000 C   0  0  0  0  0  0  0  0  0  0  0  0
   15.4215   -7.3453    0.0000 O   0  0  0  0  0  0  0  0  0  0  0  0
   13.9926   -7.3453    0.0000 O   0  0  0  0  0  0  0  0  0  0  0  0
   15.4215   -9.8203    0.0000 O   0  0  0  0  0  0  0  0  0  0  0  0
   12.5636   -9.8203    0.0000 O   0  0  0  0  0  0  0  0  0  0  0  0
   16.8505   -8.1703    0.0000 C   0  0  0  0  0  0  0  0  0  0  0  0
   16.1360   -9.4078    0.0000 C   0  0  0  0  0  0  0  0  0  0  0  0
  4  5  1  0  0  0  0
  9 10  2  0  0  0  0
  2  3  1  0  0  0  0
 10 11  1  0  0  0  0
  5  6  2  0  0  0  0
 11 12  2  0  0  0  0
  6  1  1  0  0  0  0
 12 13  1  0  0  0  0
  1  2  2  0  0  0  0
 13 14  2  0  0  0  0
 14  9  1  0  0  0  0
  4  7  1  0  0  0  0
  7 15  2  0  0  0  0
  5 17  1  0  0  0  0
  1 18  1  0  0  0  0
  3  4  2  0  0  0  0
  3 16  1  0  0  0  0
  7  8  1  0  0  0  0
  8 19  2  0  0  0  0
 19  9  1  0  0  0  0
 17 20  1  0  0  0  0
M  END
>  <cdx:fragmentId>
13256

$$$$
