6421.cdx
  Mrv1902 05222410242D          

 17 18  0  0  0  0            999 V2000
    8.1611   -6.3772    0.0000 H   0  0  0  0  0  0  0  0  0  0  0  0
    8.1611   -8.8522    0.0000 C   0  0  0  0  0  0  0  0  0  0  0  0
    8.8756   -5.9647    0.0000 C   0  0  0  0  0  0  0  0  0  0  0  0
    8.1611   -7.2022    0.0000 C   0  0  1  0  0  0  0  0  0  0  0  0
    8.8756   -6.7897    0.0000 C   0  0  0  0  0  0  0  0  0  0  0  0
    9.5901   -7.2022    0.0000 C   0  0  0  0  0  0  0  0  0  0  0  0
    9.5901   -8.0272    0.0000 C   0  0  0  0  0  0  0  0  0  0  0  0
    8.8756   -8.4397    0.0000 C   0  0  0  0  0  0  0  0  0  0  0  0
    8.1611   -8.0272    0.0000 C   0  0  1  0  0  0  0  0  0  0  0  0
    7.4466   -8.4397    0.0000 C   0  0  0  0  0  0  0  0  0  0  0  0
    6.7322   -8.0272    0.0000 C   0  0  0  0  0  0  0  0  0  0  0  0
    6.7322   -7.2022    0.0000 C   0  0  2  0  0  0  0  0  0  0  0  0
    7.4466   -6.7897    0.0000 C   0  0  0  0  0  0  0  0  0  0  0  0
    4.5888   -6.7897    0.0000 O   0  0  0  0  0  0  0  0  0  0  0  0
    6.0177   -5.9647    0.0000 C   0  0  0  0  0  0  0  0  0  0  0  0
    6.0177   -6.7897    0.0000 C   0  0  0  0  0  0  0  0  0  0  0  0
    5.3032   -7.2022    0.0000 C   0  0  0  0  0  0  0  0  0  0  0  0
  4  1  1  6  0  0  0
 12 16  1  1  0  0  0
  9  2  1  1  0  0  0
  5  3  1  0  0  0  0
  9  4  1  0  0  0  0
 13  4  1  0  0  0  0
  5  4  1  0  0  0  0
  6  5  2  0  0  0  0
  7  6  1  0  0  0  0
  8  7  1  0  0  0  0
  9  8  1  0  0  0  0
 10  9  1  0  0  0  0
 11 10  1  0  0  0  0
 12 11  1  0  0  0  0
 13 12  1  0  0  0  0
 17 14  1  0  0  0  0
 16 15  2  0  0  0  0
 17 16  1  0  0  0  0
M  END
>  <cdx:fragmentId>
94051

$$$$
