642374.cdx
  Mrv1902 05222410182D          

 15 16  0  0  0  0            999 V2000
   10.0875   -4.6610    0.0000 C   0  0  0  0  0  0  0  0  0  0  0  0
    9.2795   -4.8313    0.0000 C   0  0  0  0  0  0  0  0  0  0  0  0
    9.0266   -5.6174    0.0000 C   0  0  0  0  0  0  0  0  0  0  0  0
    8.2186   -5.7878    0.0000 C   0  0  0  0  0  0  0  0  0  0  0  0
    5.0386   -6.4145    0.0000 O   0  0  0  0  0  0  0  0  0  0  0  0
    8.2186   -8.6902    0.0000 O   0  0  0  0  0  0  0  0  0  0  0  0
    7.1797   -7.6512    0.0000 C   0  0  0  0  0  0  0  0  0  0  0  0
    6.4651   -8.0635    0.0000 C   0  0  0  0  0  0  0  0  0  0  0  0
    5.7505   -7.6512    0.0000 C   0  0  0  0  0  0  0  0  0  0  0  0
    5.7505   -6.8267    0.0000 C   0  0  0  0  0  0  0  0  0  0  0  0
    6.4651   -6.4145    0.0000 C   0  0  0  0  0  0  0  0  0  0  0  0
    7.1797   -6.8267    0.0000 C   0  0  0  0  0  0  0  0  0  0  0  0
    7.9630   -6.5711    0.0000 C   0  0  0  0  0  0  0  0  0  0  0  0
    8.4494   -7.2390    0.0000 O   0  0  0  0  0  0  0  0  0  0  0  0
    7.9630   -7.9069    0.0000 C   0  0  0  0  0  0  0  0  0  0  0  0
 13  4  2  0  0  0  0
  2  1  1  0  0  0  0
  3  2  1  0  0  0  0
  4  3  1  0  0  0  0
 10  5  1  0  0  0  0
 15  6  2  0  0  0  0
 15  7  1  0  0  0  0
 12  7  1  0  0  0  0
  8  7  2  0  0  0  0
  9  8  1  0  0  0  0
 10  9  2  0  0  0  0
 11 10  1  0  0  0  0
 12 11  2  0  0  0  0
 13 12  1  0  0  0  0
 14 13  1  0  0  0  0
 15 14  1  0  0  0  0
M  END
>  <cdx:fragmentId>
13304

$$$$
