642373.cdx
  Mrv1902 05222410192D          

 15 16  0  0  0  0            999 V2000
    7.7870   -5.6631    0.0000 O   0  0  0  0  0  0  0  0  0  0  0  0
    7.3021   -4.9957    0.0000 C   0  0  0  0  0  0  0  0  0  0  0  0
    6.5174   -5.2506    0.0000 C   0  0  0  0  0  0  0  0  0  0  0  0
    6.5174   -6.0756    0.0000 C   0  0  0  0  0  0  0  0  0  0  0  0
    7.3021   -6.3306    0.0000 C   0  0  0  0  0  0  0  0  0  0  0  0
    5.8030   -6.4881    0.0000 C   0  0  0  0  0  0  0  0  0  0  0  0
    5.0885   -6.0756    0.0000 C   0  0  0  0  0  0  0  0  0  0  0  0
    5.0885   -5.2506    0.0000 C   0  0  0  0  0  0  0  0  0  0  0  0
    5.8030   -4.8381    0.0000 C   0  0  0  0  0  0  0  0  0  0  0  0
    7.5570   -4.2111    0.0000 O   0  0  0  0  0  0  0  0  0  0  0  0
    5.8030   -7.3131    0.0000 O   0  0  0  0  0  0  0  0  0  0  0  0
    7.5570   -7.1152    0.0000 C   0  0  0  0  0  0  0  0  0  0  0  0
    8.3640   -7.2867    0.0000 C   0  0  0  0  0  0  0  0  0  0  0  0
    8.6189   -8.0713    0.0000 C   0  0  0  0  0  0  0  0  0  0  0  0
    9.4259   -8.2429    0.0000 C   0  0  0  0  0  0  0  0  0  0  0  0
  1  2  1  0  0  0  0
  2  3  1  0  0  0  0
  3  4  1  0  0  0  0
  4  5  1  0  0  0  0
  1  5  1  0  0  0  0
  6  7  1  0  0  0  0
  7  8  2  0  0  0  0
  8  9  1  0  0  0  0
  9  3  2  0  0  0  0
  6  4  2  0  0  0  0
  2 10  2  0  0  0  0
  6 11  1  0  0  0  0
 12 13  1  0  0  0  0
 13 14  1  0  0  0  0
 14 15  1  0  0  0  0
  5 12  2  0  0  0  0
M  END
>  <cdx:fragmentId>
241

$$$$
