642531.cdx
  Mrv1902 05222410232D          

 24 25  0  0  0  0            999 V2000
   15.8260   -8.2428    0.0000 C   0  0  0  0  0  0  0  0  0  0  0  0
   15.8260   -7.4178    0.0000 C   0  0  0  0  0  0  0  0  0  0  0  0
   16.5405   -7.0053    0.0000 C   0  0  0  0  0  0  0  0  0  0  0  0
   17.2549   -7.4178    0.0000 C   0  0  0  0  0  0  0  0  0  0  0  0
   17.2549   -8.2428    0.0000 C   0  0  0  0  0  0  0  0  0  0  0  0
   16.5405   -8.6553    0.0000 C   0  0  0  0  0  0  0  0  0  0  0  0
   15.1115   -8.6553    0.0000 C   0  0  0  0  0  0  0  0  0  0  0  0
   15.1115   -9.4803    0.0000 C   0  0  0  0  0  0  0  0  0  0  0  0
   14.3970   -9.8928    0.0000 C   0  0  0  0  0  0  0  0  0  0  0  0
   13.6826   -9.4803    0.0000 C   0  0  0  0  0  0  0  0  0  0  0  0
   13.6826   -8.6553    0.0000 C   0  0  0  0  0  0  0  0  0  0  0  0
   14.3970   -8.2428    0.0000 C   0  0  0  0  0  0  0  0  0  0  0  0
   15.8260   -9.8928    0.0000 C   0  0  0  0  0  0  0  0  0  0  0  0
   15.1115   -7.0053    0.0000 C   0  0  0  0  0  0  0  0  0  0  0  0
   12.9681   -8.2428    0.0000 C   0  0  0  0  0  0  0  0  0  0  0  0
   12.9681   -7.4178    0.0000 C   0  0  0  0  0  0  0  0  0  0  0  0
   12.2536   -8.6553    0.0000 C   0  0  0  0  0  0  0  0  0  0  0  0
   17.9694   -8.6553    0.0000 C   0  0  0  0  0  0  0  0  0  0  0  0
   17.9694   -9.4803    0.0000 C   0  0  0  0  0  0  0  0  0  0  0  0
   18.6839   -8.2428    0.0000 C   0  0  0  0  0  0  0  0  0  0  0  0
   12.9681   -9.8928    0.0000 O   0  0  0  0  0  0  0  0  0  0  0  0
   14.3970  -10.7178    0.0000 O   0  0  0  0  0  0  0  0  0  0  0  0
   17.9694   -7.0053    0.0000 O   0  0  0  0  0  0  0  0  0  0  0  0
   16.5405   -6.1803    0.0000 O   0  0  0  0  0  0  0  0  0  0  0  0
  1  2  1  0  0  0  0
  2  3  2  0  0  0  0
  3  4  1  0  0  0  0
  4  5  2  0  0  0  0
  5  6  1  0  0  0  0
  1  6  2  0  0  0  0
  7  8  1  0  0  0  0
  8  9  2  0  0  0  0
  9 10  1  0  0  0  0
 10 11  2  0  0  0  0
 11 12  1  0  0  0  0
  7 12  2  0  0  0  0
  1  7  1  0  0  0  0
  8 13  1  0  0  0  0
  2 14  1  0  0  0  0
 15 16  1  0  0  0  0
 15 17  1  0  0  0  0
 11 15  1  0  0  0  0
 18 19  1  0  0  0  0
 18 20  1  0  0  0  0
  5 18  1  0  0  0  0
 10 21  1  0  0  0  0
  9 22  1  0  0  0  0
  4 23  1  0  0  0  0
  3 24  1  0  0  0  0
M  END
>  <cdx:groupId>
13461

>  <cdx:fragmentId>
13403

$$$$
