6427.cdx
  Mrv1902 05222410232D          

 16 17  0  0  0  0            999 V2000
   10.3362   -5.3569    0.0000 C   0  0  0  0  0  0  0  0  0  0  0  0
    9.5112   -5.3569    0.0000 C   0  0  0  0  0  0  0  0  0  0  0  0
    9.0987   -6.0714    0.0000 C   0  0  0  0  0  0  0  0  0  0  0  0
    8.2737   -6.0714    0.0000 C   0  0  0  0  0  0  0  0  0  0  0  0
    8.2737   -8.8352    0.0000 O   0  0  0  0  0  0  0  0  0  0  0  0
    6.3621   -9.1033    0.0000 O   0  0  0  0  0  0  0  0  0  0  0  0
    7.8612   -8.1207    0.0000 C   0  0  0  0  0  0  0  0  0  0  0  0
    8.3461   -7.4533    0.0000 O   0  0  0  0  0  0  0  0  0  0  0  0
    7.8612   -6.7858    0.0000 C   0  0  0  0  0  0  0  0  0  0  0  0
    6.3621   -8.2783    0.0000 C   0  0  0  0  0  0  0  0  0  0  0  0
    7.0766   -7.8658    0.0000 C   0  0  0  0  0  0  0  0  0  0  0  0
    7.0766   -7.0408    0.0000 C   0  0  0  0  0  0  0  0  0  0  0  0
    6.3621   -6.6283    0.0000 C   0  0  0  0  0  0  0  0  0  0  0  0
    5.6477   -7.0408    0.0000 C   0  0  0  0  0  0  0  0  0  0  0  0
    5.6477   -7.8658    0.0000 C   0  0  0  0  0  0  0  0  0  0  0  0
    4.9332   -8.2783    0.0000 O   0  0  0  0  0  0  0  0  0  0  0  0
  2  1  1  0  0  0  0
  3  2  1  0  0  0  0
  4  3  1  0  0  0  0
  9  4  2  0  0  0  0
  7  5  2  0  0  0  0
 10  6  1  0  0  0  0
  7 11  1  0  0  0  0
  8  7  1  0  0  0  0
  9  8  1  0  0  0  0
 12  9  1  0  0  0  0
 10 15  1  0  0  0  0
 11 10  2  0  0  0  0
 12 11  1  0  0  0  0
 13 12  2  0  0  0  0
 14 13  1  0  0  0  0
 15 14  2  0  0  0  0
 15 16  1  0  0  0  0
M  END
>  <cdx:fragmentId>
5

$$$$
