6428.cdx
  Mrv1902 05222410222D          

 17 19  0  0  0  0            999 V2000
    5.8155   -8.1416    0.0000 C   0  0  0  0  0  0  0  0  0  0  0  0
    5.5605   -7.3570    0.0000 C   0  0  0  0  0  0  0  0  0  0  0  0
    6.2280   -6.8721    0.0000 N   0  0  0  0  0  0  0  0  0  0  0  0
    6.8954   -7.3570    0.0000 C   0  0  0  0  0  0  0  0  0  0  0  0
    6.6405   -8.1416    0.0000 C   0  0  0  0  0  0  0  0  0  0  0  0
    5.2635   -8.7547    0.0000 C   0  0  0  0  0  0  0  0  0  0  0  0
    4.4565   -8.5832    0.0000 C   0  0  0  0  0  0  0  0  0  0  0  0
    4.2015   -7.7986    0.0000 C   0  0  0  0  0  0  0  0  0  0  0  0
    4.7536   -7.1855    0.0000 C   0  0  0  0  0  0  0  0  0  0  0  0
    7.7024   -7.1855    0.0000 C   0  0  0  0  0  0  0  0  0  0  0  0
    8.2544   -7.7986    0.0000 N   0  0  0  0  0  0  0  0  0  0  0  0
    7.9995   -8.5832    0.0000 C   0  0  0  0  0  0  0  0  0  0  0  0
    7.1925   -8.7547    0.0000 C   0  0  0  0  0  0  0  0  0  0  0  0
    3.8731   -9.1666    0.0000 O   0  0  0  0  0  0  0  0  0  0  0  0
    7.9159   -6.3886    0.0000 C   0  0  0  0  0  0  0  0  0  0  0  0
    7.3326   -5.8052    0.0000 O   0  0  0  0  0  0  0  0  0  0  0  0
    8.7128   -6.1751    0.0000 O   0  0  0  0  0  0  0  0  0  0  0  0
  1  2  2  0  0  0  0
  2  3  1  0  0  0  0
  3  4  1  0  0  0  0
  4  5  2  0  0  0  0
  5  1  1  0  0  0  0
  1  6  1  0  0  0  0
  6  7  2  0  0  0  0
  7  8  1  0  0  0  0
  8  9  2  0  0  0  0
  9  2  1  0  0  0  0
  4 10  1  0  0  0  0
 10 11  2  0  0  0  0
 11 12  1  0  0  0  0
 12 13  2  0  0  0  0
 13  5  1  0  0  0  0
  7 14  1  0  0  0  0
 10 15  1  0  0  0  0
 15 16  2  0  0  0  0
 15 17  1  0  0  0  0
M  END
>  <cdx:fragmentId>
5

$$$$
