643140.cdx
  Mrv1902 05222410212D          

  7  6  0  0  0  0            999 V2000
    6.0339   -6.3991    0.0000 C   0  0  0  0  0  0  0  0  0  0  0  0
    6.7483   -6.8116    0.0000 C   0  0  0  0  0  0  0  0  0  0  0  0
    7.4628   -6.3991    0.0000 C   0  0  0  0  0  0  0  0  0  0  0  0
    8.8918   -8.0491    0.0000 C   0  0  0  0  0  0  0  0  0  0  0  0
    5.3194   -6.8116    0.0000 O   0  0  0  0  0  0  0  0  0  0  0  0
    8.1773   -7.6366    0.0000 C   0  0  0  0  0  0  0  0  0  0  0  0
    8.1773   -6.8116    0.0000 C   0  0  0  0  0  0  0  0  0  0  0  0
  6  4  1  0  0  0  0
  7  6  1  0  0  0  0
  1  2  1  0  0  0  0
  2  3  1  0  0  0  0
  3  7  2  0  0  0  0
  1  5  2  0  0  0  0
M  END
>  <cdx:fragmentId>
5

$$$$
