6433.cdx
  Mrv1902 05222410232D          

 20 20  0  0  0  0            999 V2000
    1.7713   -7.3377    0.0000 C   0  0  0  0  0  0  0  0  0  0  0  0
    2.4894   -6.9316    0.0000 O   0  0  0  0  0  0  0  0  0  0  0  0
    2.4747   -8.5815    0.0000 O   0  0  0  0  0  0  0  0  0  0  0  0
    5.3510   -6.9506    0.0000 C   0  0  0  0  0  0  0  0  0  0  0  0
    6.0654   -7.3631    0.0000 C   0  0  0  0  0  0  0  0  0  0  0  0
    6.7799   -6.9506    0.0000 C   0  0  0  0  0  0  0  0  0  0  0  0
    7.4944   -7.3631    0.0000 C   0  0  0  0  0  0  0  0  0  0  0  0
    8.2089   -6.9506    0.0000 C   0  0  0  0  0  0  0  0  0  0  0  0
    8.9233   -7.3631    0.0000 C   0  0  0  0  0  0  0  0  0  0  0  0
    9.6378   -6.9506    0.0000 C   0  0  0  0  0  0  0  0  0  0  0  0
    4.6217   -8.1881    0.0000 C   0  0  0  0  0  0  0  0  0  0  0  0
    4.6291   -7.3631    0.0000 C   0  0  0  0  0  0  0  0  0  0  0  0
    3.9183   -6.9443    0.0000 C   0  0  0  0  0  0  0  0  0  0  0  0
    3.2002   -7.3504    0.0000 C   0  0  0  0  0  0  0  0  0  0  0  0
    8.2089   -6.1256    0.0000 O   0  0  0  0  0  0  0  0  0  0  0  0
   10.3523   -7.3631    0.0000 C   0  0  0  0  0  0  0  0  0  0  0  0
   11.0667   -6.9506    0.0000 C   0  0  0  0  0  0  0  0  0  0  0  0
   11.7812   -7.3631    0.0000 C   0  0  0  0  0  0  0  0  0  0  0  0
    3.1929   -8.1754    0.0000 C   0  0  0  0  0  0  0  0  0  0  0  0
    3.9036   -8.5942    0.0000 C   0  0  0  0  0  0  0  0  0  0  0  0
  2  1  1  0  0  0  0
 14  2  1  0  0  0  0
 19  3  1  0  0  0  0
 11 20  1  0  0  0  0
 12 11  2  0  0  0  0
 13 12  1  0  0  0  0
 14 13  2  0  0  0  0
 19 14  1  0  0  0  0
 20 19  2  0  0  0  0
  4  5  1  0  0  0  0
  5  6  1  0  0  0  0
  6  7  2  0  0  0  0
  7  8  1  0  0  0  0
  8  9  1  0  0  0  0
  9 10  1  0  0  0  0
  4 12  1  0  0  0  0
  8 15  2  0  0  0  0
 10 16  1  0  0  0  0
 16 17  1  0  0  0  0
 17 18  1  0  0  0  0
M  END
>  <cdx:fragmentId>
21

$$$$
