643537.cdx
  Mrv1902 05222410202D          

  8  7  0  0  0  0            999 V2000
    9.4447   -7.3232    0.0000 C   0  0  0  0  0  0  0  0  0  0  0  0
    8.7302   -6.9107    0.0000 C   0  0  0  0  0  0  0  0  0  0  0  0
    8.0157   -7.3232    0.0000 C   0  0  0  0  0  0  0  0  0  0  0  0
    7.3013   -6.9107    0.0000 C   0  0  0  0  0  0  0  0  0  0  0  0
    6.5868   -7.3232    0.0000 C   0  0  0  0  0  0  0  0  0  0  0  0
    5.8723   -6.9107    0.0000 C   0  0  0  0  0  0  0  0  0  0  0  0
    5.1578   -7.3232    0.0000 C   0  0  0  0  0  0  0  0  0  0  0  0
    8.7302   -6.0857    0.0000 O   0  0  0  0  0  0  0  0  0  0  0  0
  1  2  1  0  0  0  0
  2  3  1  0  0  0  0
  3  4  2  0  0  0  0
  4  5  1  0  0  0  0
  5  6  2  0  0  0  0
  6  7  1  0  0  0  0
  2  8  2  0  0  0  0
M  END
>  <cdx:groupId>
13490

>  <cdx:fragmentId>
13470

$$$$
