6436.cdx
  Mrv1902 05222410252D          

 37 40  0  0  0  0            999 V2000
    7.6576   -7.5285    0.0000 C   0  0  2  0  0  0  0  0  0  0  0  0
    6.9586   -7.0903    0.0000 C   0  0  2  0  0  0  0  0  0  0  0  0
    6.2296   -7.4765    0.0000 C   0  0  1  0  0  0  0  0  0  0  0  0
    6.1996   -8.3010    0.0000 C   0  0  2  0  0  0  0  0  0  0  0  0
    6.8986   -8.7392    0.0000 C   0  0  1  0  0  0  0  0  0  0  0  0
    7.6276   -8.3529    0.0000 O   0  0  0  0  0  0  0  0  0  0  0  0
    8.3866   -7.1422    0.0000 C   0  0  0  0  0  0  0  0  0  0  0  0
    5.5306   -7.0384    0.0000 O   0  0  0  0  0  0  0  0  0  0  0  0
    6.9885   -6.2658    0.0000 O   0  0  0  0  0  0  0  0  0  0  0  0
    5.4706   -8.6873    0.0000 O   0  0  0  0  0  0  0  0  0  0  0  0
    8.4165   -6.3177    0.0000 O   0  0  0  0  0  0  0  0  0  0  0  0
    9.1455   -5.9315    0.0000 C   0  0  0  0  0  0  0  0  0  0  0  0
    9.1755   -5.1070    0.0000 C   0  0  0  0  0  0  0  0  0  0  0  0
    9.9045   -4.7207    0.0000 C   0  0  0  0  0  0  0  0  0  0  0  0
    9.9344   -3.8963    0.0000 O   0  0  0  0  0  0  0  0  0  0  0  0
   10.6035   -5.1589    0.0000 O   0  0  0  0  0  0  0  0  0  0  0  0
    9.8445   -6.3696    0.0000 O   0  0  0  0  0  0  0  0  0  0  0  0
    7.5975   -9.1776    0.0000 H   0  0  0  0  0  0  0  0  0  0  0  0
    9.7415   -9.5596    0.0000 C   0  0  0  0  0  0  0  0  0  0  0  0
    8.3125  -12.0346    0.0000 O   0  0  0  0  0  0  0  0  0  0  0  0
    6.8836  -12.0346    0.0000 O   0  0  0  0  0  0  0  0  0  0  0  0
    5.4546  -12.0346    0.0000 O   0  0  0  0  0  0  0  0  0  0  0  0
    4.0257  -11.2096    0.0000 O   0  0  0  0  0  0  0  0  0  0  0  0
    8.3125  -11.2096    0.0000 C   0  0  0  0  0  0  0  0  0  0  0  0
    9.0270  -10.7971    0.0000 C   0  0  0  0  0  0  0  0  0  0  0  0
    9.0270   -9.9721    0.0000 C   0  0  0  0  0  0  0  0  0  0  0  0
    8.3125   -9.5596    0.0000 C   0  0  0  0  0  0  0  0  0  0  0  0
    6.8836  -11.2096    0.0000 C   0  0  0  0  0  0  0  0  0  0  0  0
    7.5980  -10.7971    0.0000 C   0  0  0  0  0  0  0  0  0  0  0  0
    7.5980   -9.9721    0.0000 C   0  0  0  0  0  0  0  0  0  0  0  0
    6.8836   -9.5596    0.0000 C   0  0  0  0  0  0  0  0  0  0  0  0
    5.4546  -11.2096    0.0000 C   0  0  0  0  0  0  0  0  0  0  0  0
    6.1691  -10.7971    0.0000 C   0  0  0  0  0  0  0  0  0  0  0  0
    6.1691   -9.9721    0.0000 C   0  0  0  0  0  0  0  0  0  0  0  0
    5.4546   -9.5596    0.0000 C   0  0  0  0  0  0  0  0  0  0  0  0
    4.7402   -9.9721    0.0000 C   0  0  0  0  0  0  0  0  0  0  0  0
    4.7402  -10.7971    0.0000 C   0  0  0  0  0  0  0  0  0  0  0  0
  5 31  1  0  0  0  0
  1  2  1  0  0  0  0
  2  3  1  0  0  0  0
  3  4  1  0  0  0  0
  4  5  1  0  0  0  0
  5  6  1  0  0  0  0
  6  1  1  0  0  0  0
  1  7  1  1  0  0  0
  3  8  1  1  0  0  0
  2  9  1  6  0  0  0
  4 10  1  6  0  0  0
  7 11  1  0  0  0  0
 11 12  1  0  0  0  0
 12 13  1  0  0  0  0
 13 14  1  0  0  0  0
 14 15  1  0  0  0  0
 14 16  2  0  0  0  0
 12 17  2  0  0  0  0
  5 18  1  6  0  0  0
 26 19  1  0  0  0  0
 24 20  1  0  0  0  0
 28 21  2  0  0  0  0
 32 22  1  0  0  0  0
 37 23  1  0  0  0  0
 24 29  1  0  0  0  0
 25 24  2  0  0  0  0
 26 25  1  0  0  0  0
 27 26  2  0  0  0  0
 30 27  1  0  0  0  0
 28 33  1  0  0  0  0
 29 28  1  0  0  0  0
 30 29  2  0  0  0  0
 31 30  1  0  0  0  0
 34 31  1  0  0  0  0
 32 37  1  0  0  0  0
 33 32  2  0  0  0  0
 34 33  1  0  0  0  0
 35 34  2  0  0  0  0
 36 35  1  0  0  0  0
 37 36  2  0  0  0  0
M  END
>  <cdx:fragmentId>
5

$$$$
