643731.cdx
  Mrv1902 05222410182D          

 10  9  0  0  0  0            999 V2000
   13.4142   -8.7046    0.0000 C   0  0  0  0  0  0  0  0  0  0  0  0
   14.1287   -9.1171    0.0000 C   0  0  0  0  0  0  0  0  0  0  0  0
   14.8431   -8.7046    0.0000 C   0  0  0  0  0  0  0  0  0  0  0  0
   15.5576   -9.1171    0.0000 C   0  0  0  0  0  0  0  0  0  0  0  0
   16.2721   -8.7046    0.0000 C   0  0  0  0  0  0  0  0  0  0  0  0
   16.9866   -9.1171    0.0000 C   0  0  0  0  0  0  0  0  0  0  0  0
   17.7010   -8.7046    0.0000 C   0  0  0  0  0  0  0  0  0  0  0  0
   17.7010   -7.8796    0.0000 C   0  0  0  0  0  0  0  0  0  0  0  0
   18.4155   -7.4671    0.0000 C   0  0  0  0  0  0  0  0  0  0  0  0
   12.6997   -9.1171    0.0000 O   0  0  0  0  0  0  0  0  0  0  0  0
  1  2  1  0  0  0  0
  2  3  2  0  0  0  0
  3  4  1  0  0  0  0
  4  5  1  0  0  0  0
  5  6  1  0  0  0  0
  6  7  2  0  0  0  0
  7  8  1  0  0  0  0
  8  9  1  0  0  0  0
  1 10  2  0  0  0  0
M  END
>  <cdx:groupId>
13522

>  <cdx:fragmentId>
13496

$$$$
