643757.cdx
  Mrv1902 05222410222D          

 12 11  0  0  0  0            999 V2000
   13.8415   -8.6176    0.0000 C   0  0  0  0  0  0  0  0  0  0  0  0
   14.5560   -9.0301    0.0000 C   0  0  0  0  0  0  0  0  0  0  0  0
   15.2705   -8.6176    0.0000 C   0  0  0  0  0  0  0  0  0  0  0  0
   15.2705   -7.7926    0.0000 C   0  0  0  0  0  0  0  0  0  0  0  0
   15.9850   -9.0301    0.0000 C   0  0  0  0  0  0  0  0  0  0  0  0
   16.6994   -8.6176    0.0000 C   0  0  0  0  0  0  0  0  0  0  0  0
   13.8415   -7.7926    0.0000 O   0  0  0  0  0  0  0  0  0  0  0  0
   13.1271   -9.0301    0.0000 O   0  0  0  0  0  0  0  0  0  0  0  0
   14.5560   -7.3801    0.0000 O   0  0  0  0  0  0  0  0  0  0  0  0
   15.9850   -7.3801    0.0000 O   0  0  0  0  0  0  0  0  0  0  0  0
   16.6994   -7.7926    0.0000 O   0  0  0  0  0  0  0  0  0  0  0  0
   17.4139   -9.0301    0.0000 O   0  0  0  0  0  0  0  0  0  0  0  0
  1  2  1  0  0  0  0
  2  3  2  0  0  0  0
  3  4  1  0  0  0  0
  3  5  1  0  0  0  0
  5  6  1  0  0  0  0
  1  7  2  0  0  0  0
  1  8  1  0  0  0  0
  4  9  2  0  0  0  0
  4 10  1  0  0  0  0
  6 11  2  0  0  0  0
  6 12  1  0  0  0  0
M  END
>  <cdx:groupId>
13562

>  <cdx:fragmentId>
13530

$$$$
