643801.cdx
  Mrv1902 05222410202D          

 19 18  0  0  0  0            999 V2000
   20.1681   -8.6553    0.0000 C   0  0  0  0  0  0  0  0  0  0  0  0
   19.4536   -9.0678    0.0000 C   0  0  0  0  0  0  0  0  0  0  0  0
   18.7391   -8.6553    0.0000 C   0  0  0  0  0  0  0  0  0  0  0  0
   18.0247   -9.0678    0.0000 C   0  0  0  0  0  0  0  0  0  0  0  0
   17.3102   -8.6553    0.0000 C   0  0  0  0  0  0  0  0  0  0  0  0
   16.5957   -9.0678    0.0000 C   0  0  0  0  0  0  0  0  0  0  0  0
   15.8813   -8.6553    0.0000 C   0  0  0  0  0  0  0  0  0  0  0  0
   15.1668   -9.0678    0.0000 C   0  0  0  0  0  0  0  0  0  0  0  0
   14.4523   -8.6553    0.0000 C   0  0  0  0  0  0  0  0  0  0  0  0
   13.6273   -8.6553    0.0000 C   0  0  0  0  0  0  0  0  0  0  0  0
   12.9128   -9.0678    0.0000 C   0  0  0  0  0  0  0  0  0  0  0  0
   12.1984   -8.6553    0.0000 C   0  0  0  0  0  0  0  0  0  0  0  0
   11.4839   -9.0678    0.0000 C   0  0  0  0  0  0  0  0  0  0  0  0
   10.7694   -8.6553    0.0000 C   0  0  0  0  0  0  0  0  0  0  0  0
   10.0550   -9.0678    0.0000 C   0  0  0  0  0  0  0  0  0  0  0  0
    9.3405   -8.6553    0.0000 C   0  0  0  0  0  0  0  0  0  0  0  0
   20.1681   -7.8303    0.0000 O   0  0  0  0  0  0  0  0  0  0  0  0
   20.8826   -9.0678    0.0000 O   0  0  0  0  0  0  0  0  0  0  0  0
   21.5970   -8.6553    0.0000 C   0  0  0  0  0  0  0  0  0  0  0  0
  1  2  1  0  0  0  0
  2  3  1  0  0  0  0
  3  4  1  0  0  0  0
  4  5  1  0  0  0  0
  5  6  1  0  0  0  0
  6  7  1  0  0  0  0
  7  8  1  0  0  0  0
  8  9  1  0  0  0  0
  9 10  2  0  0  0  0
 10 11  1  0  0  0  0
 11 12  1  0  0  0  0
 12 13  1  0  0  0  0
 13 14  1  0  0  0  0
 14 15  1  0  0  0  0
 15 16  1  0  0  0  0
  1 17  2  0  0  0  0
  1 18  1  0  0  0  0
 18 19  1  0  0  0  0
M  END
>  <cdx:groupId>
13657

>  <cdx:fragmentId>
13604

$$$$
