644073.cdx
  Mrv1902 05222410202D          

 36 42  0  0  0  0            999 V2000
    5.2011   -8.4061    0.0000 O   0  0  0  0  0  0  0  0  0  0  0  0
    5.9156   -7.9936    0.0000 C   0  0  2  0  0  0  0  0  0  0  0  0
    5.9156   -7.1689    0.0000 C   0  0  1  0  0  0  0  0  0  0  0  0
    6.6302   -8.4060    0.0000 C   0  0  0  0  0  0  0  0  0  0  0  0
    6.3003   -7.3888    0.0000 C   0  0  2  0  0  0  0  0  0  0  0  0
    6.6576   -6.7566    0.0000 C   0  0  1  0  0  0  0  0  0  0  0  0
    5.3350   -6.3250    0.0000 O   0  0  0  0  0  0  0  0  0  0  0  0
    7.3724   -7.9936    0.0000 C   0  0  0  0  0  0  0  0  0  0  0  0
    7.0151   -7.8286    0.0000 C   0  0  0  0  0  0  0  0  0  0  0  0
    7.3724   -7.1689    0.0000 C   0  0  2  0  0  0  0  0  0  0  0  0
    6.6576   -5.9319    0.0000 C   0  0  0  0  0  0  0  0  0  0  0  0
    7.3724   -6.3442    0.0000 C   0  0  0  0  0  0  0  0  0  0  0  0
    5.9430   -5.5196    0.0000 C   0  0  0  0  0  0  0  0  0  0  0  0
    8.0871   -6.7566    0.0000 C   0  0  2  0  0  0  0  0  0  0  0  0
    7.3724   -5.5196    0.0000 C   0  0  0  0  0  0  0  0  0  0  0  0
    8.8275   -6.3525    0.0000 C   0  0  0  0  0  0  0  0  0  0  0  0
    5.9430   -4.6948    0.0000 C   0  0  0  0  0  0  0  0  0  0  0  0
    8.8019   -7.1689    0.0000 N   0  0  0  0  0  0  0  0  0  0  0  0
    8.0871   -5.9319    0.0000 C   0  0  0  0  0  0  0  0  0  0  0  0
    7.3724   -4.6948    0.0000 C   0  0  0  0  0  0  0  0  0  0  0  0
    5.2282   -4.2824    0.0000 O   0  0  0  0  0  0  0  0  0  0  0  0
    6.6576   -4.2824    0.0000 C   0  0  0  0  0  0  0  0  0  0  0  0
    9.2142   -7.8562    0.0000 C   0  0  0  0  0  0  0  0  0  0  0  0
    9.9290   -7.8562    0.0000 C   0  0  0  0  0  0  0  0  0  0  0  0
   10.6987   -7.8562    0.0000 C   0  0  0  0  0  0  0  0  0  0  0  0
   10.3413   -8.5709    0.0000 C   0  0  0  0  0  0  0  0  0  0  0  0
    5.1187   -7.3824    0.0000 H   0  0  0  0  0  0  0  0  0  0  0  0
    5.5550   -7.6725    0.0000 C   0  0  0  0  0  0  0  0  0  0  0  0
    5.3723   -7.0045    0.0000 C   0  0  0  0  0  0  0  0  0  0  0  0
    4.7581   -7.8860    0.0000 O   0  0  0  0  0  0  0  0  0  0  0  0
    5.7994   -8.5982    0.0000 C   0  0  0  0  0  0  0  0  0  0  0  0
    5.2160   -9.1816    0.0000 C   0  0  0  0  0  0  0  0  0  0  0  0
    6.5963   -8.8118    0.0000 C   0  0  0  0  0  0  0  0  0  0  0  0
    6.0129   -9.3951    0.0000 C   0  0  0  0  0  0  0  0  0  0  0  0
    6.0868   -6.5920    0.0000 H   0  0  0  0  0  0  0  0  0  0  0  0
    4.4042   -8.1926    0.0000 C   0  0  0  0  0  0  0  0  0  0  0  0
  2  1  1  1  0  0  0
  2  3  1  0  0  0  0
  2  4  1  0  0  0  0
  2  5  1  0  0  0  0
  3  6  1  0  0  0  0
  3  7  1  0  0  0  0
  4  8  1  0  0  0  0
  5  9  1  0  0  0  0
  6 10  1  0  0  0  0
  6 11  1  0  0  0  0
  6 12  1  1  0  0  0
  7 13  1  0  0  0  0
  8 10  1  0  0  0  0
 10  9  1  1  0  0  0
 10 14  1  0  0  0  0
 11 13  1  0  0  0  0
 11 15  2  0  0  0  0
 12 16  1  0  0  0  0
 13 17  2  0  0  0  0
 14 18  1  1  0  0  0
 14 19  1  0  0  0  0
 15 19  1  0  0  0  0
 15 20  1  0  0  0  0
 18 16  1  0  0  0  0
 17 21  1  0  0  0  0
 17 22  1  0  0  0  0
 18 23  1  0  0  0  0
 20 22  2  0  0  0  0
 23 24  1  0  0  0  0
 24 25  1  0  0  0  0
 24 26  1  0  0  0  0
 25 26  1  0  0  0  0
  3 27  1  1  0  0  0
  5 28  1  0  0  0  0
 28 29  1  0  0  0  0
 28 30  1  1  0  0  0
 28 31  1  0  0  0  0
 31 32  1  0  0  0  0
 31 33  1  0  0  0  0
 31 34  1  0  0  0  0
  5 35  1  6  0  0  0
  1 36  1  0  0  0  0
M  END
>  <cdx:fragmentId>
13849

$$$$
