644002.cdx
  Mrv1902 05222410212D          

 26 29  0  0  0  0            999 V2000
   11.4509   -6.7530    0.0000 C   0  0  0  0  0  0  0  0  0  0  0  0
   10.7365   -6.3404    0.0000 O   0  0  0  0  0  0  0  0  0  0  0  0
   10.0219   -6.7530    0.0000 C   0  0  0  0  0  0  0  0  0  0  0  0
    9.3075   -6.3404    0.0000 C   0  0  0  0  0  0  0  0  0  0  0  0
    8.5930   -6.7530    0.0000 C   0  0  0  0  0  0  0  0  0  0  0  0
    8.5930   -7.5780    0.0000 C   0  0  0  0  0  0  0  0  0  0  0  0
    9.3075   -7.9905    0.0000 C   0  0  0  0  0  0  0  0  0  0  0  0
   10.0219   -7.5780    0.0000 C   0  0  0  0  0  0  0  0  0  0  0  0
    9.3075   -8.8155    0.0000 C   0  0  0  0  0  0  0  0  0  0  0  0
    8.5930   -9.2280    0.0000 C   0  0  0  0  0  0  0  0  0  0  0  0
    7.8785   -8.8155    0.0000 N   0  3  0  0  0  0  0  0  0  0  0  0
    7.1640   -9.2280    0.0000 C   0  0  0  0  0  0  0  0  0  0  0  0
    6.4495   -8.8155    0.0000 C   0  0  0  0  0  0  0  0  0  0  0  0
    5.7350   -9.2280    0.0000 C   0  0  0  0  0  0  0  0  0  0  0  0
    5.0206   -8.8155    0.0000 C   0  0  0  0  0  0  0  0  0  0  0  0
    5.0206   -7.9905    0.0000 C   0  0  0  0  0  0  0  0  0  0  0  0
    5.7350   -7.5780    0.0000 C   0  0  0  0  0  0  0  0  0  0  0  0
    6.4495   -7.9905    0.0000 C   0  0  0  0  0  0  0  0  0  0  0  0
    7.1640   -7.5780    0.0000 C   0  0  0  0  0  0  0  0  0  0  0  0
    7.8785   -7.9905    0.0000 C   0  0  0  0  0  0  0  0  0  0  0  0
    4.3060   -7.5780    0.0000 O   0  0  0  0  0  0  0  0  0  0  0  0
    3.5916   -7.9905    0.0000 C   0  0  0  0  0  0  0  0  0  0  0  0
    4.3060   -9.2280    0.0000 O   0  0  0  0  0  0  0  0  0  0  0  0
    4.3060  -10.0530    0.0000 C   0  0  0  0  0  0  0  0  0  0  0  0
    9.3075   -5.5154    0.0000 O   0  0  0  0  0  0  0  0  0  0  0  0
   10.0219   -5.1029    0.0000 C   0  0  0  0  0  0  0  0  0  0  0  0
  1  2  1  0  0  0  0
  2  3  1  0  0  0  0
  3  4  2  0  0  0  0
  4  5  1  0  0  0  0
  5  6  2  0  0  0  0
  6  7  1  0  0  0  0
  7  8  2  0  0  0  0
  3  8  1  0  0  0  0
  7  9  1  0  0  0  0
  9 10  1  0  0  0  0
 10 11  1  0  0  0  0
 11 12  1  0  0  0  0
 12 13  2  0  0  0  0
 13 14  1  0  0  0  0
 14 15  2  0  0  0  0
 15 16  1  0  0  0  0
 16 17  2  0  0  0  0
 17 18  1  0  0  0  0
 13 18  1  0  0  0  0
 18 19  2  0  0  0  0
 19 20  1  0  0  0  0
  6 20  1  0  0  0  0
 11 20  2  0  0  0  0
 16 21  1  0  0  0  0
 21 22  1  0  0  0  0
 15 23  1  0  0  0  0
 23 24  1  0  0  0  0
  4 25  1  0  0  0  0
 25 26  1  0  0  0  0
M  CHG  1  11   1
M  END
>  <cdx:fragmentId>
13787

$$$$
