6440.cdx
  Mrv1902 05222410282D          

 16 18  0  0  0  0            999 V2000
    5.3658   -8.0231    0.0000 C   0  0  0  0  0  0  0  0  0  0  0  0
    5.3658   -8.8481    0.0000 C   0  0  0  0  0  0  0  0  0  0  0  0
    6.0802   -9.2606    0.0000 C   0  0  0  0  0  0  0  0  0  0  0  0
    6.7947   -8.8481    0.0000 C   0  0  0  0  0  0  0  0  0  0  0  0
    6.7947   -8.0231    0.0000 C   0  0  0  0  0  0  0  0  0  0  0  0
    6.0802   -7.6106    0.0000 C   0  0  0  0  0  0  0  0  0  0  0  0
    7.5092   -7.6106    0.0000 C   0  0  0  0  0  0  0  0  0  0  0  0
    7.5092   -6.7856    0.0000 C   0  0  0  0  0  0  0  0  0  0  0  0
    6.7947   -6.3731    0.0000 C   0  0  0  0  0  0  0  0  0  0  0  0
    6.0802   -6.7856    0.0000 O   0  0  0  0  0  0  0  0  0  0  0  0
    4.5812   -7.7682    0.0000 O   0  0  0  0  0  0  0  0  0  0  0  0
    4.0962   -8.4356    0.0000 C   0  0  0  0  0  0  0  0  0  0  0  0
    4.5812   -9.1031    0.0000 O   0  0  0  0  0  0  0  0  0  0  0  0
    6.7947   -5.5481    0.0000 O   0  0  0  0  0  0  0  0  0  0  0  0
    6.0802  -10.0856    0.0000 O   0  0  0  0  0  0  0  0  0  0  0  0
    6.7947  -10.4981    0.0000 C   0  0  0  0  0  0  0  0  0  0  0  0
  1  2  1  0  0  0  0
  2  3  2  0  0  0  0
  3  4  1  0  0  0  0
  4  5  2  0  0  0  0
  5  6  1  0  0  0  0
  6  1  2  0  0  0  0
  5  7  1  0  0  0  0
  7  8  2  0  0  0  0
  8  9  1  0  0  0  0
  9 10  1  0  0  0  0
 10  6  1  0  0  0  0
  1 11  1  0  0  0  0
 11 12  1  0  0  0  0
 12 13  1  0  0  0  0
 13  2  1  0  0  0  0
  9 14  2  0  0  0  0
  3 15  1  0  0  0  0
 15 16  1  0  0  0  0
M  END
>  <cdx:fragmentId>
5

$$$$
