6442675.cdx
  Mrv1902 05222410192D          

 20 21  0  0  0  0            999 V2000
    6.5290   -8.4062    0.0000 C   0  0  0  0  0  0  0  0  0  0  0  0
    7.2435   -8.8187    0.0000 C   0  0  0  0  0  0  0  0  0  0  0  0
    7.9580   -8.4062    0.0000 C   0  0  0  0  0  0  0  0  0  0  0  0
    6.5290   -7.5812    0.0000 O   0  0  0  0  0  0  0  0  0  0  0  0
    5.8146   -8.8187    0.0000 C   0  0  0  0  0  0  0  0  0  0  0  0
    5.8146   -9.6437    0.0000 C   0  0  0  0  0  0  0  0  0  0  0  0
    5.1001  -10.0562    0.0000 C   0  0  0  0  0  0  0  0  0  0  0  0
    4.3856   -9.6437    0.0000 C   0  0  0  0  0  0  0  0  0  0  0  0
    4.3856   -8.8187    0.0000 C   0  0  0  0  0  0  0  0  0  0  0  0
    5.1001   -8.4062    0.0000 C   0  0  0  0  0  0  0  0  0  0  0  0
    3.6711  -10.0562    0.0000 O   0  0  0  0  0  0  0  0  0  0  0  0
    8.6724   -8.8187    0.0000 C   0  0  0  0  0  0  0  0  0  0  0  0
    8.6724   -9.6437    0.0000 C   0  0  0  0  0  0  0  0  0  0  0  0
    9.3869  -10.0562    0.0000 C   0  0  0  0  0  0  0  0  0  0  0  0
   10.1014   -9.6437    0.0000 C   0  0  0  0  0  0  0  0  0  0  0  0
   10.1014   -8.8187    0.0000 C   0  0  0  0  0  0  0  0  0  0  0  0
    9.3869   -8.4062    0.0000 C   0  0  0  0  0  0  0  0  0  0  0  0
    7.9580  -10.0562    0.0000 O   0  0  0  0  0  0  0  0  0  0  0  0
    7.2435   -9.6437    0.0000 C   0  0  0  0  0  0  0  0  0  0  0  0
   10.8159  -10.0562    0.0000 O   0  0  0  0  0  0  0  0  0  0  0  0
  1  2  1  0  0  0  0
  2  3  2  0  0  0  0
  1  4  2  0  0  0  0
  5  6  1  0  0  0  0
  6  7  2  0  0  0  0
  7  8  1  0  0  0  0
  8  9  2  0  0  0  0
  9 10  1  0  0  0  0
  5 10  2  0  0  0  0
  8 11  1  0  0  0  0
  1  5  1  0  0  0  0
 12 13  1  0  0  0  0
 13 14  2  0  0  0  0
 14 15  1  0  0  0  0
 15 16  2  0  0  0  0
 16 17  1  0  0  0  0
 12 17  2  0  0  0  0
 18 19  1  0  0  0  0
 13 18  1  0  0  0  0
 15 20  1  0  0  0  0
  3 12  1  0  0  0  0
M  END
>  <cdx:fragmentId>
20009

$$$$
