64500.cdx
  Mrv1902 05222410222D          

 19 21  0  0  0  0            999 V2000
    8.5909   -6.2007    0.0000 C   0  0  0  0  0  0  0  0  0  0  0  0
    9.3054   -6.6132    0.0000 C   0  0  0  0  0  0  0  0  0  0  0  0
    9.3054   -7.4382    0.0000 C   0  0  0  0  0  0  0  0  0  0  0  0
    8.5909   -7.8507    0.0000 C   0  0  0  0  0  0  0  0  0  0  0  0
    7.8764   -7.4382    0.0000 C   0  0  1  0  0  0  0  0  0  0  0  0
    7.1620   -7.8507    0.0000 C   0  0  2  0  0  0  0  0  0  0  0  0
    6.4475   -7.4382    0.0000 C   0  0  0  0  0  0  0  0  0  0  0  0
    5.7330   -7.8507    0.0000 C   0  0  0  0  0  0  0  0  0  0  0  0
    5.0185   -7.4382    0.0000 C   0  0  0  0  0  0  0  0  0  0  0  0
    5.0185   -6.6132    0.0000 C   0  0  0  0  0  0  0  0  0  0  0  0
    5.7330   -6.2007    0.0000 C   0  0  0  0  0  0  0  0  0  0  0  0
    6.4475   -6.6132    0.0000 C   0  0  0  0  0  0  0  0  0  0  0  0
    7.1620   -6.2007    0.0000 C   0  0  0  0  0  0  0  0  0  0  0  0
    7.8764   -6.6132    0.0000 C   0  0  2  0  0  0  0  0  0  0  0  0
    7.1620   -5.3757    0.0000 O   0  0  0  0  0  0  0  0  0  0  0  0
   10.0198   -6.2007    0.0000 C   0  0  0  0  0  0  0  0  0  0  0  0
    7.1620   -8.6757    0.0000 O   0  0  0  0  0  0  0  0  0  0  0  0
    7.8764   -8.2632    0.0000 H   0  0  0  0  0  0  0  0  0  0  0  0
    7.8764   -5.7882    0.0000 H   0  0  0  0  0  0  0  0  0  0  0  0
  1  2  1  0  0  0  0
  2  3  2  0  0  0  0
  3  4  1  0  0  0  0
  4  5  1  0  0  0  0
  5  6  1  0  0  0  0
  6  7  1  0  0  0  0
  7  8  1  0  0  0  0
  8  9  2  0  0  0  0
  9 10  1  0  0  0  0
 10 11  2  0  0  0  0
 11 12  1  0  0  0  0
  7 12  2  0  0  0  0
 12 13  1  0  0  0  0
 13 14  1  0  0  0  0
  5 14  1  0  0  0  0
  1 14  1  0  0  0  0
 13 15  2  0  0  0  0
  2 16  1  0  0  0  0
  6 17  1  1  0  0  0
  5 18  1  6  0  0  0
 14 19  1  1  0  0  0
M  END
>  <cdx:fragmentId>
229126

$$$$
