11645290.cdx
  Mrv1902 05222410232D          

 23 24  0  0  0  0            999 V2000
    6.2202  -15.3605    0.0000 C   0  0  0  0  0  0  0  0  0  0  0  0
    5.5057  -15.7730    0.0000 C   0  0  0  0  0  0  0  0  0  0  0  0
    4.7912  -15.3605    0.0000 C   0  0  0  0  0  0  0  0  0  0  0  0
    4.7912  -14.5355    0.0000 C   0  0  0  0  0  0  0  0  0  0  0  0
    5.5057  -14.1230    0.0000 C   0  0  0  0  0  0  0  0  0  0  0  0
    6.2202  -14.5355    0.0000 C   0  0  0  0  0  0  0  0  0  0  0  0
    6.9347  -15.7730    0.0000 O   0  0  0  0  0  0  0  0  0  0  0  0
    4.0768  -15.7730    0.0000 O   0  0  0  0  0  0  0  0  0  0  0  0
    5.5057  -13.2980    0.0000 O   0  0  0  0  0  0  0  0  0  0  0  0
    3.9662  -14.5355    0.0000 C   0  0  0  0  0  0  0  0  0  0  0  0
    4.3787  -13.8210    0.0000 C   0  0  0  0  0  0  0  0  0  0  0  0
    5.9182  -16.4875    0.0000 C   0  0  0  0  0  0  0  0  0  0  0  0
    5.0932  -16.4875    0.0000 C   0  0  0  0  0  0  0  0  0  0  0  0
    6.9347  -14.1230    0.0000 C   0  0  0  0  0  0  0  0  0  0  0  0
    7.6491  -14.5355    0.0000 C   0  0  0  0  0  0  0  0  0  0  0  0
    8.3636  -14.1230    0.0000 C   0  0  0  0  0  0  0  0  0  0  0  0
    9.0781  -14.5355    0.0000 C   0  0  0  0  0  0  0  0  0  0  0  0
    9.7925  -14.1230    0.0000 C   0  0  0  0  0  0  0  0  0  0  0  0
   10.5070  -14.5355    0.0000 C   0  0  0  0  0  0  0  0  0  0  0  0
   10.5070  -15.3605    0.0000 C   0  0  0  0  0  0  0  0  0  0  0  0
    9.7925  -15.7730    0.0000 C   0  0  0  0  0  0  0  0  0  0  0  0
    9.0781  -15.3605    0.0000 C   0  0  0  0  0  0  0  0  0  0  0  0
    6.9347  -13.2980    0.0000 O   0  0  0  0  0  0  0  0  0  0  0  0
  1  2  1  0  0  0  0
  2  3  1  0  0  0  0
  3  4  1  0  0  0  0
  4  5  1  0  0  0  0
  5  6  1  0  0  0  0
  1  6  1  0  0  0  0
  1  7  2  0  0  0  0
  3  8  2  0  0  0  0
  5  9  2  0  0  0  0
  4 10  1  0  0  0  0
  4 11  1  0  0  0  0
  2 12  1  0  0  0  0
  2 13  1  0  0  0  0
 14 15  1  0  0  0  0
 15 16  2  0  0  0  0
 17 18  1  0  0  0  0
 18 19  2  0  0  0  0
 19 20  1  0  0  0  0
 20 21  2  0  0  0  0
 21 22  1  0  0  0  0
 17 22  2  0  0  0  0
 16 17  1  0  0  0  0
 14 23  1  0  0  0  0
  6 14  2  0  0  0  0
M  END
>  <cdx:groupId>
77435

>  <cdx:fragmentId>
77368

$$$$
