64530.cdx
  Mrv1902 05222410232D          

 30 30  0  0  0  0            999 V2000
   12.7207   -8.1543    0.0000 O   0  0  0  0  0  0  0  0  0  0  0  0
   13.4352   -6.9168    0.0000 C   0  0  0  0  0  0  0  0  0  0  0  0
   12.7207   -6.5043    0.0000 O   0  0  0  0  0  0  0  0  0  0  0  0
   10.5773   -7.7418    0.0000 C   0  0  0  0  0  0  0  0  0  0  0  0
   11.2918   -8.1543    0.0000 C   0  0  0  0  0  0  0  0  0  0  0  0
   12.0062   -7.7418    0.0000 C   0  0  0  0  0  0  0  0  0  0  0  0
   12.0062   -6.9168    0.0000 C   0  0  0  0  0  0  0  0  0  0  0  0
   11.2918   -6.5043    0.0000 C   0  0  0  0  0  0  0  0  0  0  0  0
   10.5773   -6.9168    0.0000 C   0  0  0  0  0  0  0  0  0  0  0  0
    9.8628   -6.5043    0.0000 C   0  0  0  0  0  0  0  0  0  0  0  0
    9.1484   -6.9168    0.0000 N   0  0  0  0  0  0  0  0  0  0  0  0
    8.4339   -5.6793    0.0000 O   0  0  0  0  0  0  0  0  0  0  0  0
    4.1339  -10.6348    0.0000 C   0  0  0  0  0  0  0  0  0  0  0  0
    3.4201  -10.2210    0.0000 C   0  0  0  0  0  0  0  0  0  0  0  0
    2.7049  -10.6323    0.0000 C   0  0  0  0  0  0  0  0  0  0  0  0
    1.9916  -10.2178    0.0000 C   0  0  0  0  0  0  0  0  0  0  0  0
    1.9955   -9.3928    0.0000 C   0  0  0  0  0  0  0  0  0  0  0  0
    1.2830   -8.9769    0.0000 C   0  0  0  0  0  0  0  0  0  0  0  0
    1.2867   -8.1519    0.0000 C   0  0  0  0  0  0  0  0  0  0  0  0
    2.0017   -7.7404    0.0000 C   0  0  0  0  0  0  0  0  0  0  0  0
    2.0028   -6.9154    0.0000 C   0  0  0  0  0  0  0  0  0  0  0  0
    2.7181   -6.5043    0.0000 C   0  0  0  0  0  0  0  0  0  0  0  0
    3.4326   -6.9168    0.0000 C   0  0  0  0  0  0  0  0  0  0  0  0
    4.1471   -6.5043    0.0000 C   0  0  0  0  0  0  0  0  0  0  0  0
    4.8615   -6.9168    0.0000 C   0  0  0  0  0  0  0  0  0  0  0  0
    5.5760   -6.5043    0.0000 C   0  0  0  0  0  0  0  0  0  0  0  0
    6.2905   -6.9168    0.0000 C   0  0  0  0  0  0  0  0  0  0  0  0
    7.0049   -6.5043    0.0000 C   0  0  0  0  0  0  0  0  0  0  0  0
    7.7194   -6.9168    0.0000 C   0  0  0  0  0  0  0  0  0  0  0  0
    8.4339   -6.5043    0.0000 C   0  0  0  0  0  0  0  0  0  0  0  0
 11 10  1  0  0  0  0
 10  9  1  0  0  0  0
  6  1  1  0  0  0  0
  7  3  1  0  0  0  0
  3  2  1  0  0  0  0
  9  4  2  0  0  0  0
  5  4  1  0  0  0  0
  6  5  2  0  0  0  0
  7  6  1  0  0  0  0
  8  7  2  0  0  0  0
  9  8  1  0  0  0  0
 30 11  1  0  0  0  0
 30 12  2  0  0  0  0
 14 13  1  0  0  0  0
 15 14  1  0  0  0  0
 16 15  2  0  0  0  0
 17 16  1  0  0  0  0
 18 17  1  0  0  0  0
 19 18  2  0  0  0  0
 20 19  1  0  0  0  0
 21 20  1  0  0  0  0
 22 21  2  0  0  0  0
 23 22  1  0  0  0  0
 24 23  1  0  0  0  0
 25 24  1  0  0  0  0
 26 25  1  0  0  0  0
 27 26  1  0  0  0  0
 28 27  1  0  0  0  0
 29 28  1  0  0  0  0
 30 29  1  0  0  0  0
M  END
>  <cdx:fragmentId>
5

$$$$
