6456.cdx
  Mrv1902 05222410272D          

 47 51  0  0  0  0            999 V2000
    8.0556   -8.7439    0.0000 O   0  0  0  0  0  0  0  0  0  0  0  0
    8.7700   -9.9814    0.0000 O   0  0  0  0  0  0  0  0  0  0  0  0
    9.4845   -9.5689    0.0000 C   0  0  2  0  0  0  0  0  0  0  0  0
    9.4845   -8.7439    0.0000 C   0  0  1  0  0  0  0  0  0  0  0  0
    8.7700   -8.3314    0.0000 C   0  0  0  0  0  0  0  0  0  0  0  0
   10.1990   -9.9814    0.0000 C   0  0  1  0  0  0  0  0  0  0  0  0
   10.9134   -9.5689    0.0000 C   0  0  2  0  0  0  0  0  0  0  0  0
   10.9134   -8.7439    0.0000 C   0  0  1  0  0  0  0  0  0  0  0  0
   10.1990   -8.3314    0.0000 O   0  0  0  0  0  0  0  0  0  0  0  0
   11.6279   -8.3314    0.0000 O   0  0  0  0  0  0  0  0  0  0  0  0
   11.6279   -7.5064    0.0000 C   0  0  2  0  0  0  0  0  0  0  0  0
   10.9134   -7.0939    0.0000 O   0  0  0  0  0  0  0  0  0  0  0  0
   12.3424   -7.0939    0.0000 C   0  0  1  0  0  0  0  0  0  0  0  0
   12.3424   -6.2689    0.0000 C   0  0  1  0  0  0  0  0  0  0  0  0
   11.6279   -5.8564    0.0000 C   0  0  0  0  0  0  0  0  0  0  0  0
   10.9134   -6.2689    0.0000 C   0  0  0  0  0  0  0  0  0  0  0  0
   13.0569   -5.8564    0.0000 C   0  0  0  0  0  0  0  0  0  0  0  0
   13.0569   -5.0314    0.0000 C   0  0  0  0  0  0  0  0  0  0  0  0
   12.3424   -4.6189    0.0000 O   0  0  0  0  0  0  0  0  0  0  0  0
   11.6279   -5.0314    0.0000 C   0  0  0  0  0  0  0  0  0  0  0  0
   10.1990  -10.8064    0.0000 O   0  0  0  0  0  0  0  0  0  0  0  0
   13.0569   -7.5064    0.0000 C   0  0  0  0  0  0  0  0  0  0  0  0
   11.6279   -9.9814    0.0000 O   0  0  0  0  0  0  0  0  0  0  0  0
   13.0569   -6.6814    0.0000 H   0  0  0  0  0  0  0  0  0  0  0  0
   10.9134   -4.6189    0.0000 O   0  0  0  0  0  0  0  0  0  0  0  0
   13.0569   -8.3314    0.0000 C   0  0  0  0  0  0  0  0  0  0  0  0
    7.3411   -8.3314    0.0000 C   0  0  0  0  0  0  0  0  0  0  0  0
    6.6266   -8.7439    0.0000 C   0  0  0  0  0  0  0  0  0  0  0  0
    7.3411   -7.5064    0.0000 O   0  0  0  0  0  0  0  0  0  0  0  0
    5.9121   -8.3314    0.0000 C   0  0  0  0  0  0  0  0  0  0  0  0
    5.1977   -8.7439    0.0000 C   0  0  0  0  0  0  0  0  0  0  0  0
    5.1977   -9.5689    0.0000 C   0  0  0  0  0  0  0  0  0  0  0  0
    5.9121   -9.9814    0.0000 C   0  0  0  0  0  0  0  0  0  0  0  0
    6.6266   -9.5689    0.0000 C   0  0  0  0  0  0  0  0  0  0  0  0
    5.9121   -7.5064    0.0000 O   0  0  0  0  0  0  0  0  0  0  0  0
    4.4832   -8.3314    0.0000 O   0  0  0  0  0  0  0  0  0  0  0  0
    3.7687   -8.7439    0.0000 C   0  0  2  0  0  0  0  0  0  0  0  0
    3.0543   -8.3314    0.0000 O   0  0  0  0  0  0  0  0  0  0  0  0
    2.3398   -8.7439    0.0000 C   0  0  1  0  0  0  0  0  0  0  0  0
    2.3398   -9.5689    0.0000 C   0  0  2  0  0  0  0  0  0  0  0  0
    3.0543   -9.9814    0.0000 C   0  0  1  0  0  0  0  0  0  0  0  0
    3.7687   -9.5689    0.0000 C   0  0  1  0  0  0  0  0  0  0  0  0
    1.6253   -8.3314    0.0000 C   0  0  0  0  0  0  0  0  0  0  0  0
    3.0543  -10.8064    0.0000 O   0  0  0  0  0  0  0  0  0  0  0  0
    4.4832   -9.9814    0.0000 O   0  0  0  0  0  0  0  0  0  0  0  0
    1.6253   -9.9814    0.0000 O   0  0  0  0  0  0  0  0  0  0  0  0
    0.9108   -8.7439    0.0000 O   0  0  0  0  0  0  0  0  0  0  0  0
  3  2  1  6  0  0  0
  3  4  1  0  0  0  0
  4  5  1  1  0  0  0
  5  1  1  0  0  0  0
  3  6  1  0  0  0  0
  6  7  1  0  0  0  0
  7  8  1  0  0  0  0
  8  9  1  0  0  0  0
  9  4  1  0  0  0  0
  8 10  1  1  0  0  0
 11 10  1  6  0  0  0
 11 12  1  0  0  0  0
 11 13  1  0  0  0  0
 13 14  1  0  0  0  0
 14 15  1  0  0  0  0
 15 16  2  0  0  0  0
 16 12  1  0  0  0  0
 14 17  1  0  0  0  0
 17 18  1  0  0  0  0
 18 19  1  0  0  0  0
 19 20  1  0  0  0  0
 20 15  1  0  0  0  0
  6 21  1  1  0  0  0
 13 22  1  1  0  0  0
  7 23  1  6  0  0  0
 14 24  1  6  0  0  0
 20 25  2  0  0  0  0
 22 26  2  0  0  0  0
  1 27  1  0  0  0  0
 27 28  1  0  0  0  0
 27 29  2  0  0  0  0
 28 30  2  0  0  0  0
 30 31  1  0  0  0  0
 31 32  2  0  0  0  0
 32 33  1  0  0  0  0
 33 34  2  0  0  0  0
 34 28  1  0  0  0  0
 30 35  1  0  0  0  0
 31 36  1  0  0  0  0
 37 36  1  1  0  0  0
 37 38  1  0  0  0  0
 38 39  1  0  0  0  0
 39 40  1  0  0  0  0
 40 41  1  0  0  0  0
 41 42  1  0  0  0  0
 42 37  1  0  0  0  0
 39 43  1  1  0  0  0
 41 44  1  1  0  0  0
 42 45  1  6  0  0  0
 40 46  1  6  0  0  0
 43 47  1  0  0  0  0
M  END
>  <cdx:fragmentId>
5

$$$$
