6466.cdx
  Mrv1902 05222410182D          

 27 31  0  0  0  0            999 V2000
    5.3608   -5.4707    0.0000 H   0  0  0  0  0  0  0  0  0  0  0  0
    6.5802   -6.3567    0.0000 H   0  0  0  0  0  0  0  0  0  0  0  0
    9.6237   -6.0633    0.0000 O   0  0  0  0  0  0  0  0  0  0  0  0
    3.7468   -5.1276    0.0000 O   0  0  0  0  0  0  0  0  0  0  0  0
    4.3914   -4.2736    0.0000 C   0  0  0  0  0  0  0  0  0  0  0  0
    9.4428   -4.5783    0.0000 C   0  0  0  0  0  0  0  0  0  0  0  0
    5.2250   -3.6374    0.0000 O   0  0  0  0  0  0  0  0  0  0  0  0
    5.8658   -3.1352    0.0000 O   0  0  0  0  0  0  0  0  0  0  0  0
    7.2947   -3.1352    0.0000 O   0  0  0  0  0  0  0  0  0  0  0  0
    6.5802   -3.5477    0.0000 C   0  0  0  0  0  0  0  0  0  0  0  0
    7.7700   -5.7924    0.0000 C   0  0  0  0  0  0  0  0  0  0  0  0
    5.5137   -4.2144    0.0000 C   0  0  0  0  0  0  0  0  0  0  0  0
    6.6000   -4.9981    0.0000 O   0  0  0  0  0  0  0  0  0  0  0  0
    5.6157   -6.2553    0.0000 C   0  0  0  0  0  0  0  0  0  0  0  0
    4.8087   -6.0838    0.0000 C   0  0  0  0  0  0  0  0  0  0  0  0
    4.5538   -5.2992    0.0000 C   0  0  1  0  0  0  0  0  0  0  0  0
    5.1058   -4.6861    0.0000 C   0  0  1  0  0  0  0  0  0  0  0  0
    5.9128   -4.8576    0.0000 C   0  0  1  0  0  0  0  0  0  0  0  0
    6.5802   -4.3727    0.0000 C   0  0  1  0  0  0  0  0  0  0  0  0
    7.2477   -4.8576    0.0000 C   0  0  1  0  0  0  0  0  0  0  0  0
    8.0201   -4.5677    0.0000 C   0  0  0  0  0  0  0  0  0  0  0  0
    8.7283   -4.9908    0.0000 C   0  0  0  0  0  0  0  0  0  0  0  0
    8.8390   -5.8084    0.0000 C   0  0  1  0  0  0  0  0  0  0  0  0
    8.2689   -6.4047    0.0000 C   0  0  0  0  0  0  0  0  0  0  0  0
    7.4472   -6.3307    0.0000 C   0  0  0  0  0  0  0  0  0  0  0  0
    6.9927   -5.6422    0.0000 C   0  0  1  0  0  0  0  0  0  0  0  0
    6.1677   -5.6422    0.0000 C   0  0  1  0  0  0  0  0  0  0  0  0
 18  1  1  6  0  0  0
 26  2  1  6  0  0  0
 23  3  1  1  0  0  0
 16  4  1  6  0  0  0
 17  5  1  6  0  0  0
 22  6  2  0  0  0  0
 12  7  2  0  0  0  0
 19 10  1  6  0  0  0
 10  8  1  0  0  0  0
 10  9  2  0  0  0  0
 26 20  1  0  0  0  0
 23 11  1  0  0  0  0
 20 11  1  1  0  0  0
 27 18  1  0  0  0  0
 17 12  1  0  0  0  0
 27 13  1  1  0  0  0
 27 14  1  0  0  0  0
 13 12  1  0  0  0  0
 15 14  2  0  0  0  0
 16 15  1  0  0  0  0
 17 16  1  0  0  0  0
 18 17  1  0  0  0  0
 19 18  1  0  0  0  0
 20 19  1  0  0  0  0
 21 20  1  0  0  0  0
 22 21  1  0  0  0  0
 23 22  1  0  0  0  0
 24 23  1  0  0  0  0
 25 24  1  0  0  0  0
 26 25  1  0  0  0  0
 27 26  1  0  0  0  0
M  END
>  <cdx:groupId>
87

>  <cdx:fragmentId>
5

$$$$
