64782.cdx
  Mrv1902 05222410282D          

 13 13  0  0  0  0            999 V2000
    7.0105   -8.0975    0.0000 C   0  0  2  0  0  0  0  0  0  0  0  0
    7.7265   -7.6876    0.0000 C   0  0  2  0  0  0  0  0  0  0  0  0
    8.4395   -8.1027    0.0000 C   0  0  0  0  0  0  0  0  0  0  0  0
    6.2976   -7.6824    0.0000 O   0  0  0  0  0  0  0  0  0  0  0  0
    7.0075   -8.9225    0.0000 C   0  0  0  0  0  0  0  0  0  0  0  0
    7.7205   -9.3376    0.0000 C   0  0  0  0  0  0  0  0  0  0  0  0
    7.7175  -10.1626    0.0000 C   0  0  0  0  0  0  0  0  0  0  0  0
    7.0015  -10.5725    0.0000 C   0  0  0  0  0  0  0  0  0  0  0  0
    6.2886  -10.1574    0.0000 C   0  0  0  0  0  0  0  0  0  0  0  0
    6.2916   -9.3324    0.0000 C   0  0  0  0  0  0  0  0  0  0  0  0
    7.7295   -6.8626    0.0000 N   0  0  0  0  0  0  0  0  0  0  0  0
    7.0166   -6.4475    0.0000 C   0  0  0  0  0  0  0  0  0  0  0  0
    8.4455   -6.4528    0.0000 C   0  0  0  0  0  0  0  0  0  0  0  0
  1  2  1  0  0  0  0
  2  3  1  0  0  0  0
  1  4  1  1  0  0  0
  5  6  1  0  0  0  0
  6  7  2  0  0  0  0
  7  8  1  0  0  0  0
  8  9  2  0  0  0  0
  9 10  1  0  0  0  0
  5 10  2  0  0  0  0
  1  5  1  0  0  0  0
 11 12  1  0  0  0  0
 11 13  1  0  0  0  0
  2 11  1  1  0  0  0
M  END
>  <cdx:fragmentId>
54

$$$$
