6478.cdx
  Mrv1902 05222410262D          

 61 68  0  0  0  0            999 V2000
    6.6613   -9.5735    0.0000 O   0  0  0  0  0  0  0  0  0  0  0  0
    7.3758   -9.1610    0.0000 C   0  0  2  0  0  0  0  0  0  0  0  0
    8.0902   -9.5735    0.0000 C   0  0  2  0  0  0  0  0  0  0  0  0
    8.8047   -9.1610    0.0000 C   0  0  1  0  0  0  0  0  0  0  0  0
    8.8047   -8.3360    0.0000 C   0  0  2  0  0  0  0  0  0  0  0  0
    8.0902   -7.9235    0.0000 C   0  0  0  0  0  0  0  0  0  0  0  0
    7.3758   -8.3360    0.0000 C   0  0  0  0  0  0  0  0  0  0  0  0
    9.5192   -9.5735    0.0000 C   0  0  0  0  0  0  0  0  0  0  0  0
   10.2337   -9.1610    0.0000 C   0  0  0  0  0  0  0  0  0  0  0  0
   10.2337   -8.3360    0.0000 C   0  0  2  0  0  0  0  0  0  0  0  0
    9.5192   -7.9235    0.0000 C   0  0  2  0  0  0  0  0  0  0  0  0
   10.9481   -7.9235    0.0000 C   0  0  1  0  0  0  0  0  0  0  0  0
   10.9481   -7.0985    0.0000 C   0  0  0  0  0  0  0  0  0  0  0  0
   10.2337   -6.6860    0.0000 C   0  0  0  0  0  0  0  0  0  0  0  0
    9.5192   -7.0985    0.0000 C   0  0  0  0  0  0  0  0  0  0  0  0
   11.6626   -8.3360    0.0000 C   0  0  0  0  0  0  0  0  0  0  0  0
   12.3771   -7.9235    0.0000 C   0  0  2  0  0  0  0  0  0  0  0  0
   12.3771   -7.0985    0.0000 C   0  0  0  0  0  0  0  0  0  0  0  0
   11.6626   -6.6860    0.0000 C   0  0  1  0  0  0  0  0  0  0  0  0
   13.0915   -6.6860    0.0000 C   0  0  0  0  0  0  0  0  0  0  0  0
   13.0915   -5.8610    0.0000 C   0  0  0  0  0  0  0  0  0  0  0  0
   12.3771   -5.4485    0.0000 C   0  0  1  0  0  0  0  0  0  0  0  0
   11.6626   -5.8610    0.0000 C   0  0  0  0  0  0  0  0  0  0  0  0
   10.9481   -6.2735    0.0000 O   0  0  0  0  0  0  0  0  0  0  0  0
   12.3771   -6.2735    0.0000 C   0  0  0  0  0  0  0  0  0  0  0  0
    8.8047   -7.5110    0.0000 C   0  0  0  0  0  0  0  0  0  0  0  0
   10.2337   -7.5110    0.0000 C   0  0  0  0  0  0  0  0  0  0  0  0
   13.0915   -8.3360    0.0000 O   0  0  0  0  0  0  0  0  0  0  0  0
   11.9646   -4.7340    0.0000 C   0  0  0  0  0  0  0  0  0  0  0  0
   12.7896   -4.7340    0.0000 C   0  0  0  0  0  0  0  0  0  0  0  0
   10.9481   -8.7485    0.0000 C   0  0  0  0  0  0  0  0  0  0  0  0
    8.5027  -10.2880    0.0000 C   0  0  0  0  0  0  0  0  0  0  0  0
    7.6777  -10.2880    0.0000 C   0  0  0  0  0  0  0  0  0  0  0  0
    8.0902  -11.0025    0.0000 O   0  0  0  0  0  0  0  0  0  0  0  0
    5.2409   -7.9154    0.0000 C   0  0  2  0  0  0  0  0  0  0  0  0
    4.5242   -8.3241    0.0000 C   0  0  1  0  0  0  0  0  0  0  0  0
    4.5197   -9.1490    0.0000 C   0  0  1  0  0  0  0  0  0  0  0  0
    5.2320   -9.5654    0.0000 C   0  0  2  0  0  0  0  0  0  0  0  0
    5.9486   -9.1568    0.0000 C   0  0  1  0  0  0  0  0  0  0  0  0
    5.9531   -8.3318    0.0000 O   0  0  0  0  0  0  0  0  0  0  0  0
    3.8030   -9.5577    0.0000 O   0  0  0  0  0  0  0  0  0  0  0  0
    3.8120   -7.9077    0.0000 O   0  0  0  0  0  0  0  0  0  0  0  0
    5.2453   -7.0904    0.0000 C   0  0  0  0  0  0  0  0  0  0  0  0
    5.2275  -10.3904    0.0000 O   0  0  0  0  0  0  0  0  0  0  0  0
    3.0908   -9.1413    0.0000 C   0  0  2  0  0  0  0  0  0  0  0  0
    3.0953   -8.3163    0.0000 O   0  0  0  0  0  0  0  0  0  0  0  0
    2.3830   -7.9000    0.0000 C   0  0  1  0  0  0  0  0  0  0  0  0
    1.6663   -8.3086    0.0000 C   0  0  2  0  0  0  0  0  0  0  0  0
    1.6619   -9.1336    0.0000 C   0  0  1  0  0  0  0  0  0  0  0  0
    2.3741   -9.5499    0.0000 C   0  0  1  0  0  0  0  0  0  0  0  0
    0.9452   -9.5422    0.0000 O   0  0  0  0  0  0  0  0  0  0  0  0
    2.3875   -7.0750    0.0000 C   0  0  0  0  0  0  0  0  0  0  0  0
    1.6753   -6.6586    0.0000 O   0  0  0  0  0  0  0  0  0  0  0  0
    1.6797   -5.8336    0.0000 C   0  0  0  0  0  0  0  0  0  0  0  0
    0.9675   -5.4173    0.0000 C   0  0  0  0  0  0  0  0  0  0  0  0
    2.3964   -5.4250    0.0000 O   0  0  0  0  0  0  0  0  0  0  0  0
    0.9541   -7.8922    0.0000 O   0  0  0  0  0  0  0  0  0  0  0  0
    2.3697  -10.3749    0.0000 O   0  0  0  0  0  0  0  0  0  0  0  0
   11.6626   -7.5110    0.0000 H   0  0  0  0  0  0  0  0  0  0  0  0
    8.8047   -9.9860    0.0000 H   0  0  0  0  0  0  0  0  0  0  0  0
    9.5192   -8.7485    0.0000 H   0  0  0  0  0  0  0  0  0  0  0  0
  2  1  1  1  0  0  0
  2  3  1  0  0  0  0
  3  4  1  0  0  0  0
  4  5  1  0  0  0  0
  5  6  1  0  0  0  0
  6  7  1  0  0  0  0
  7  2  1  0  0  0  0
  4  8  1  0  0  0  0
  8  9  1  0  0  0  0
  9 10  1  0  0  0  0
 10 11  1  0  0  0  0
 11  5  1  0  0  0  0
 10 12  1  0  0  0  0
 12 13  1  0  0  0  0
 13 14  1  0  0  0  0
 14 15  2  0  0  0  0
 15 11  1  0  0  0  0
 12 16  1  0  0  0  0
 16 17  1  0  0  0  0
 17 18  1  0  0  0  0
 18 19  1  0  0  0  0
 19 13  1  0  0  0  0
 18 20  1  0  0  0  0
 20 21  1  0  0  0  0
 21 22  1  0  0  0  0
 22 23  1  0  0  0  0
 23 19  1  0  0  0  0
 13 24  1  0  0  0  0
 18 25  1  0  0  0  0
 25 24  1  0  0  0  0
  5 26  1  1  0  0  0
 10 27  1  1  0  0  0
 17 28  1  6  0  0  0
 22 29  1  1  0  0  0
 22 30  1  6  0  0  0
 12 31  1  6  0  0  0
  3 32  1  6  0  0  0
  3 33  1  1  0  0  0
 32 34  1  0  0  0  0
 35 36  1  0  0  0  0
 36 37  1  0  0  0  0
 37 38  1  0  0  0  0
 38 39  1  0  0  0  0
 39 40  1  0  0  0  0
 40 35  1  0  0  0  0
 37 41  1  1  0  0  0
 36 42  1  1  0  0  0
 35 43  1  1  0  0  0
 38 44  1  6  0  0  0
 45 41  1  1  0  0  0
 45 46  1  0  0  0  0
 46 47  1  0  0  0  0
 47 48  1  0  0  0  0
 48 49  1  0  0  0  0
 49 50  1  0  0  0  0
 50 45  1  0  0  0  0
 49 51  1  1  0  0  0
 47 52  1  1  0  0  0
 52 53  1  0  0  0  0
 53 54  1  0  0  0  0
 54 55  1  0  0  0  0
 54 56  2  0  0  0  0
 48 57  1  6  0  0  0
 50 58  1  6  0  0  0
 39  1  1  1  0  0  0
 19 59  1  1  0  0  0
  4 60  1  6  0  0  0
 11 61  1  6  0  0  0
M  END
>  <cdx:fragmentId>
444

$$$$
