648144.cdx
  Mrv1902 05222410262D          

 18 18  0  0  0  0            999 V2000
    5.9160  -10.3210    0.0000 O   0  0  0  0  0  0  0  0  0  0  0  0
    4.4871   -9.4960    0.0000 O   0  0  0  0  0  0  0  0  0  0  0  0
    4.4871   -7.8460    0.0000 O   0  0  0  0  0  0  0  0  0  0  0  0
    5.2016   -6.6085    0.0000 O   0  0  0  0  0  0  0  0  0  0  0  0
    5.9160   -7.0210    0.0000 C   0  0  0  0  0  0  0  0  0  0  0  0
    6.6305   -8.2585    0.0000 O   0  0  0  0  0  0  0  0  0  0  0  0
    5.9160   -7.8460    0.0000 C   0  0  1  0  0  0  0  0  0  0  0  0
    5.2016   -8.2585    0.0000 C   0  0  2  0  0  0  0  0  0  0  0  0
    5.2016   -9.0835    0.0000 C   0  0  1  0  0  0  0  0  0  0  0  0
    5.9160   -9.4960    0.0000 C   0  0  2  0  0  0  0  0  0  0  0  0
    6.6305   -9.0835    0.0000 C   0  0  2  0  0  0  0  0  0  0  0  0
    7.3450   -7.8460    0.0000 O   0  0  0  0  0  0  0  0  0  0  0  0
    8.0595   -8.2585    0.0000 N   0  0  0  0  0  0  0  0  0  0  0  0
    7.3450   -9.4960    0.0000 S   0  0  0  0  0  0  0  0  0  0  0  0
   10.2029   -9.4960    0.0000 C   0  0  0  0  0  0  0  0  0  0  0  0
    9.4884   -9.0835    0.0000 C   0  0  0  0  0  0  0  0  0  0  0  0
    8.7739   -9.4960    0.0000 C   0  0  0  0  0  0  0  0  0  0  0  0
    8.0595   -9.0835    0.0000 C   0  0  0  0  0  0  0  0  0  0  0  0
 11 14  1  1  0  0  0
 10  1  1  6  0  0  0
  9  2  1  1  0  0  0
  8  3  1  6  0  0  0
  7  5  1  1  0  0  0
  5  4  1  0  0  0  0
 11  6  1  0  0  0  0
  7  6  1  0  0  0  0
  8  7  1  0  0  0  0
  9  8  1  0  0  0  0
 10  9  1  0  0  0  0
 11 10  1  0  0  0  0
 13 12  1  0  0  0  0
 18 13  2  0  0  0  0
 18 14  1  0  0  0  0
 16 15  2  0  0  0  0
 17 16  1  0  0  0  0
 18 17  1  0  0  0  0
M  END
>  <cdx:fragmentId>
19

$$$$
