64813.cdx
  Mrv1902 05222410282D          

 20 23  0  0  0  0            999 V2000
    5.3088   -7.7430    0.0000 H   0  0  0  0  0  0  0  0  0  0  0  0
    6.9756   -9.5727    0.0000 H   0  0  0  0  0  0  0  0  0  0  0  0
    8.6102  -10.2646    0.0000 C   0  0  0  0  0  0  0  0  0  0  0  0
    7.8934   -9.8562    0.0000 C   0  0  0  0  0  0  0  0  0  0  0  0
    7.8886   -9.0312    0.0000 C   0  0  0  0  0  0  0  0  0  0  0  0
    8.6006   -8.6146    0.0000 C   0  0  0  0  0  0  0  0  0  0  0  0
    9.3223   -9.8479    0.0000 C   0  0  0  0  0  0  0  0  0  0  0  0
    9.3175   -9.0229    0.0000 C   0  0  0  0  0  0  0  0  0  0  0  0
   10.1006   -8.7634    0.0000 O   0  0  0  0  0  0  0  0  0  0  0  0
   10.5894   -9.4280    0.0000 C   0  0  0  0  0  0  0  0  0  0  0  0
   10.1084  -10.0983    0.0000 O   0  0  0  0  0  0  0  0  0  0  0  0
    4.3959   -8.2845    0.0000 O   0  0  0  0  0  0  0  0  0  0  0  0
    6.0117   -9.6797    0.0000 C   0  0  0  0  0  0  0  0  0  0  0  0
    5.1127   -8.6929    0.0000 C   0  0  1  0  0  0  0  0  0  0  0  0
    5.2037   -9.5128    0.0000 O   0  0  0  0  0  0  0  0  0  0  0  0
    7.1717   -8.6229    0.0000 C   0  0  2  0  0  0  0  0  0  0  0  0
    6.4200   -8.9628    0.0000 C   0  0  2  0  0  0  0  0  0  0  0  0
    5.8644   -8.3529    0.0000 C   0  0  2  0  0  0  0  0  0  0  0  0
    6.2728   -7.6361    0.0000 C   0  0  0  0  0  0  0  0  0  0  0  0
    7.0807   -7.8029    0.0000 O   0  0  0  0  0  0  0  0  0  0  0  0
 18  1  1  6  0  0  0
 17  2  1  6  0  0  0
 16  5  1  6  0  0  0
  6  8  2  0  0  0  0
  3  7  2  0  0  0  0
  4  3  1  0  0  0  0
  5  4  2  0  0  0  0
  6  5  1  0  0  0  0
 11  7  1  0  0  0  0
  8  7  1  0  0  0  0
  9  8  1  0  0  0  0
 10  9  1  0  0  0  0
 11 10  1  0  0  0  0
 14 12  1  6  0  0  0
 13 17  1  0  0  0  0
 14 18  1  0  0  0  0
 15 13  1  0  0  0  0
 15 14  1  0  0  0  0
 20 16  1  0  0  0  0
 17 16  1  0  0  0  0
 18 17  1  0  0  0  0
 19 18  1  0  0  0  0
 20 19  1  0  0  0  0
M  END
>  <cdx:groupId>
66032

>  <cdx:fragmentId>
65990

$$$$
