648212.cdx
  Mrv1902 05222410222D          

 34 34  0  0  0  0            999 V2000
    1.7107   -5.6571    0.0000 C   0  0  0  0  0  0  0  0  0  0  0  0
    2.5356   -5.6651    0.0000 C   0  0  0  0  0  0  0  0  0  0  0  0
    2.9550   -4.9546    0.0000 C   0  0  0  0  0  0  0  0  0  0  0  0
    1.3051   -4.9387    0.0000 O   0  0  0  0  0  0  0  0  0  0  0  0
    2.9412   -6.3835    0.0000 C   0  0  0  0  0  0  0  0  0  0  0  0
    3.7662   -6.3915    0.0000 C   0  0  2  0  0  0  0  0  0  0  0  0
    4.1717   -7.1099    0.0000 C   0  0  2  0  0  0  0  0  0  0  0  0
    3.7524   -7.8204    0.0000 C   0  0  2  0  0  0  0  0  0  0  0  0
    2.9274   -7.8124    0.0000 C   0  0  0  0  0  0  0  0  0  0  0  0
    2.5218   -7.0940    0.0000 C   0  0  0  0  0  0  0  0  0  0  0  0
    3.7444   -8.6453    0.0000 O   0  0  0  0  0  0  0  0  0  0  0  0
    4.5911   -6.3995    0.0000 C   0  0  0  0  0  0  0  0  0  0  0  0
    4.9967   -7.1179    0.0000 C   0  0  0  0  0  0  0  0  0  0  0  0
    5.4023   -7.8363    0.0000 C   0  0  0  0  0  0  0  0  0  0  0  0
    6.2272   -7.8443    0.0000 C   0  0  0  0  0  0  0  0  0  0  0  0
    6.6328   -8.5627    0.0000 C   0  0  0  0  0  0  0  0  0  0  0  0
    7.4578   -8.5707    0.0000 C   0  0  0  0  0  0  0  0  0  0  0  0
    7.8634   -9.2891    0.0000 C   0  0  0  0  0  0  0  0  0  0  0  0
    8.6883   -9.2971    0.0000 C   0  0  0  0  0  0  0  0  0  0  0  0
    9.0939  -10.0155    0.0000 C   0  0  0  0  0  0  0  0  0  0  0  0
    9.9189  -10.0235    0.0000 C   0  0  0  0  0  0  0  0  0  0  0  0
   10.3244  -10.7419    0.0000 C   0  0  0  0  0  0  0  0  0  0  0  0
   11.1494  -10.7499    0.0000 C   0  0  0  0  0  0  0  0  0  0  0  0
   11.5550  -11.4683    0.0000 C   0  0  0  0  0  0  0  0  0  0  0  0
   12.3799  -11.4763    0.0000 C   0  0  0  0  0  0  0  0  0  0  0  0
   11.1356  -12.1787    0.0000 C   0  0  0  0  0  0  0  0  0  0  0  0
    8.6745  -10.7259    0.0000 C   0  0  0  0  0  0  0  0  0  0  0  0
    6.2134   -9.2732    0.0000 C   0  0  0  0  0  0  0  0  0  0  0  0
    7.8772   -7.8602    0.0000 O   0  0  0  0  0  0  0  0  0  0  0  0
    4.1855   -5.6810    0.0000 C   0  0  0  0  0  0  0  0  0  0  0  0
    3.7800   -4.9626    0.0000 C   0  0  0  0  0  0  0  0  0  0  0  0
    4.1994   -4.2522    0.0000 C   0  0  0  0  0  0  0  0  0  0  0  0
    3.7938   -3.5337    0.0000 O   0  0  0  0  0  0  0  0  0  0  0  0
    4.4628   -8.2397    0.0000 C   0  0  0  0  0  0  0  0  0  0  0  0
  1  2  1  0  0  0  0
  2  3  1  0  0  0  0
  1  4  2  0  0  0  0
  5  6  1  0  0  0  0
  6  7  1  0  0  0  0
  7  8  1  0  0  0  0
  8  9  1  0  0  0  0
  9 10  1  0  0  0  0
  5 10  1  0  0  0  0
  8 11  1  1  0  0  0
  7 12  1  1  0  0  0
 13 14  1  0  0  0  0
 14 15  1  0  0  0  0
 15 16  2  0  0  0  0
 16 17  1  0  0  0  0
 17 18  1  0  0  0  0
 18 19  1  0  0  0  0
 19 20  2  0  0  0  0
 20 21  1  0  0  0  0
 21 22  1  0  0  0  0
 22 23  1  0  0  0  0
 23 24  2  0  0  0  0
 24 25  1  0  0  0  0
 24 26  1  0  0  0  0
 20 27  1  0  0  0  0
 16 28  1  0  0  0  0
 17 29  1  0  0  0  0
  7 13  1  0  0  0  0
 30 31  1  0  0  0  0
 31 32  1  0  0  0  0
 32 33  1  0  0  0  0
  6 30  1  1  0  0  0
  8 34  1  0  0  0  0
  2  5  2  0  0  0  0
M  END
>  <cdx:fragmentId>
56096

$$$$
