20648314.cdx
  Mrv1902 05222410182D          

 17 16  0  0  0  0            999 V2000
   12.2695  -15.1189    0.0000 C   0  0  0  0  0  0  0  0  0  0  0  0
   11.5551  -14.7064    0.0000 C   0  0  0  0  0  0  0  0  0  0  0  0
   10.8406  -15.1189    0.0000 C   0  0  0  0  0  0  0  0  0  0  0  0
   10.1261  -14.7064    0.0000 C   0  0  0  0  0  0  0  0  0  0  0  0
    9.4117  -15.1189    0.0000 C   0  0  0  0  0  0  0  0  0  0  0  0
    8.6972  -14.7064    0.0000 C   0  0  0  0  0  0  0  0  0  0  0  0
    7.9827  -15.1189    0.0000 C   0  0  0  0  0  0  0  0  0  0  0  0
    7.2682  -14.7064    0.0000 C   0  0  0  0  0  0  0  0  0  0  0  0
    6.5538  -15.1189    0.0000 C   0  0  0  0  0  0  0  0  0  0  0  0
    5.8393  -14.7064    0.0000 C   0  0  0  0  0  0  0  0  0  0  0  0
    5.1248  -15.1189    0.0000 C   0  0  0  0  0  0  0  0  0  0  0  0
    4.4104  -14.7064    0.0000 C   0  0  0  0  0  0  0  0  0  0  0  0
    3.6959  -15.1189    0.0000 C   0  0  0  0  0  0  0  0  0  0  0  0
    2.9814  -14.7064    0.0000 C   0  0  0  0  0  0  0  0  0  0  0  0
    2.2670  -15.1189    0.0000 C   0  0  0  0  0  0  0  0  0  0  0  0
   11.5551  -13.8814    0.0000 O   0  0  0  0  0  0  0  0  0  0  0  0
   10.8406  -15.9439    0.0000 C   0  0  0  0  0  0  0  0  0  0  0  0
  1  2  1  0  0  0  0
  2  3  1  0  0  0  0
  3  4  1  0  0  0  0
  4  5  1  0  0  0  0
  5  6  1  0  0  0  0
  6  7  1  0  0  0  0
  7  8  1  0  0  0  0
  8  9  1  0  0  0  0
  9 10  1  0  0  0  0
 10 11  1  0  0  0  0
 11 12  1  0  0  0  0
 12 13  1  0  0  0  0
 13 14  1  0  0  0  0
 14 15  1  0  0  0  0
  2 16  2  0  0  0  0
  3 17  1  0  0  0  0
M  END
>  <cdx:groupId>
126425

>  <cdx:fragmentId>
126378

$$$$
