64832.cdx
  Mrv1902 05222410202D          

 24 26  0  0  0  0            999 V2000
    7.1185   -8.0212    0.0000 C   0  0  0  0  0  0  0  0  0  0  0  0
    7.1185   -8.8462    0.0000 C   0  0  0  0  0  0  0  0  0  0  0  0
    6.4040   -9.2587    0.0000 C   0  0  0  0  0  0  0  0  0  0  0  0
    5.6896   -8.8462    0.0000 C   0  0  0  0  0  0  0  0  0  0  0  0
    4.9751   -9.2587    0.0000 C   0  0  0  0  0  0  0  0  0  0  0  0
    4.2606   -8.8462    0.0000 C   0  0  0  0  0  0  0  0  0  0  0  0
    4.2606   -8.0212    0.0000 C   0  0  0  0  0  0  0  0  0  0  0  0
    4.9751   -7.6087    0.0000 C   0  0  0  0  0  0  0  0  0  0  0  0
    5.6896   -8.0212    0.0000 C   0  0  0  0  0  0  0  0  0  0  0  0
    6.4040   -7.6087    0.0000 O   0  0  0  0  0  0  0  0  0  0  0  0
    6.4040  -10.0837    0.0000 O   0  0  0  0  0  0  0  0  0  0  0  0
    3.5462   -7.6087    0.0000 O   0  0  0  0  0  0  0  0  0  0  0  0
    9.9764   -6.3712    0.0000 O   0  0  0  0  0  0  0  0  0  0  0  0
    9.9764   -3.8962    0.0000 C   0  0  0  0  0  0  0  0  0  0  0  0
    8.5475   -3.8962    0.0000 C   0  0  0  0  0  0  0  0  0  0  0  0
    9.2619   -4.3087    0.0000 C   0  0  0  0  0  0  0  0  0  0  0  0
    9.2619   -5.1337    0.0000 C   0  0  0  0  0  0  0  0  0  0  0  0
    8.5475   -5.5462    0.0000 C   0  0  0  0  0  0  0  0  0  0  0  0
    8.5475   -8.0212    0.0000 C   0  0  0  0  0  0  0  0  0  0  0  0
    9.2619   -7.6087    0.0000 C   0  0  0  0  0  0  0  0  0  0  0  0
    9.2619   -6.7837    0.0000 C   0  0  0  0  0  0  0  0  0  0  0  0
    8.5475   -6.3712    0.0000 C   0  0  0  0  0  0  0  0  0  0  0  0
    7.8330   -6.7837    0.0000 C   0  0  0  0  0  0  0  0  0  0  0  0
    7.8330   -7.6087    0.0000 C   0  0  0  0  0  0  0  0  0  0  0  0
 21 13  1  0  0  0  0
 22 18  1  0  0  0  0
 16 14  1  0  0  0  0
 16 15  1  0  0  0  0
 17 16  2  0  0  0  0
 18 17  1  0  0  0  0
 24 19  2  0  0  0  0
 20 19  1  0  0  0  0
 21 20  2  0  0  0  0
 22 21  1  0  0  0  0
 23 22  2  0  0  0  0
 24 23  1  0  0  0  0
  1  2  1  0  0  0  0
  2  3  1  0  0  0  0
  3  4  1  0  0  0  0
  4  5  1  0  0  0  0
  5  6  2  0  0  0  0
  6  7  1  0  0  0  0
  7  8  2  0  0  0  0
  8  9  1  0  0  0  0
  4  9  2  0  0  0  0
  9 10  1  0  0  0  0
  1 10  1  0  0  0  0
  3 11  2  0  0  0  0
  1 24  1  0  0  0  0
  7 12  1  0  0  0  0
M  END
>  <cdx:fragmentId>
41421

$$$$
