649.cdx
  Mrv1902 05222410182D          

  8  8  0  0  0  0            999 V2000
    3.5508   -4.3135    0.0000 N   0  0  0  0  0  0  0  0  0  0  0  0
    3.5508   -3.4885    0.0000 C   0  0  0  0  0  0  0  0  0  0  0  0
    4.2652   -3.0760    0.0000 N   0  0  0  0  0  0  0  0  0  0  0  0
    4.9797   -3.4885    0.0000 C   0  0  0  0  0  0  0  0  0  0  0  0
    4.9797   -4.3135    0.0000 C   0  0  0  0  0  0  0  0  0  0  0  0
    4.2652   -4.7260    0.0000 C   0  0  0  0  0  0  0  0  0  0  0  0
    2.8363   -3.0760    0.0000 O   0  0  0  0  0  0  0  0  0  0  0  0
    5.6942   -3.0760    0.0000 O   0  0  0  0  0  0  0  0  0  0  0  0
  1  2  1  0  0  0  0
  2  3  1  0  0  0  0
  3  4  1  0  0  0  0
  4  5  1  0  0  0  0
  5  6  1  0  0  0  0
  1  6  1  0  0  0  0
  2  7  2  0  0  0  0
  4  8  2  0  0  0  0
M  END
>  <cdx:groupId>
26

>  <cdx:fragmentId>
5

$$$$
