64959.cdx
  Mrv1902 05222410272D          

 20 22  0  0  0  0            999 V2000
    7.8578   -8.3528    0.0000 N   0  0  0  0  0  0  0  0  0  0  0  0
    8.3427   -7.6853    0.0000 C   0  0  0  0  0  0  0  0  0  0  0  0
    7.8578   -7.0179    0.0000 N   0  0  0  0  0  0  0  0  0  0  0  0
    7.0731   -7.2728    0.0000 C   0  0  0  0  0  0  0  0  0  0  0  0
    6.3587   -6.8603    0.0000 N   0  0  0  0  0  0  0  0  0  0  0  0
    5.6442   -7.2728    0.0000 C   0  0  0  0  0  0  0  0  0  0  0  0
    5.6442   -8.0978    0.0000 N   0  0  0  0  0  0  0  0  0  0  0  0
    6.3587   -8.5103    0.0000 C   0  0  0  0  0  0  0  0  0  0  0  0
    7.0731   -8.0978    0.0000 C   0  0  0  0  0  0  0  0  0  0  0  0
    4.9297   -6.8603    0.0000 O   0  0  0  0  0  0  0  0  0  0  0  0
    6.3587   -9.3353    0.0000 O   0  0  0  0  0  0  0  0  0  0  0  0
    8.8973   -5.9783    0.0000 O   0  0  0  0  0  0  0  0  0  0  0  0
    8.1127   -6.2333    0.0000 C   0  0  2  0  0  0  0  0  0  0  0  0
    7.6278   -5.5658    0.0000 C   0  0  1  0  0  0  0  0  0  0  0  0
    8.1127   -4.8984    0.0000 C   0  0  1  0  0  0  0  0  0  0  0  0
    8.8973   -5.1533    0.0000 C   0  0  1  0  0  0  0  0  0  0  0  0
    9.5648   -4.6684    0.0000 C   0  0  0  0  0  0  0  0  0  0  0  0
    9.5648   -3.8434    0.0000 O   0  0  0  0  0  0  0  0  0  0  0  0
    7.8578   -4.1138    0.0000 O   0  0  0  0  0  0  0  0  0  0  0  0
    6.8028   -5.5658    0.0000 O   0  0  0  0  0  0  0  0  0  0  0  0
  1  2  2  0  0  0  0
  2  3  1  0  0  0  0
  3  4  1  0  0  0  0
  4  5  1  0  0  0  0
  5  6  1  0  0  0  0
  6  7  1  0  0  0  0
  7  8  1  0  0  0  0
  8  9  1  0  0  0  0
  1  9  1  0  0  0  0
  4  9  2  0  0  0  0
  6 10  2  0  0  0  0
  8 11  2  0  0  0  0
 12 13  1  0  0  0  0
 13 14  1  0  0  0  0
 14 15  1  0  0  0  0
 15 16  1  0  0  0  0
 12 16  1  0  0  0  0
 17 18  1  0  0  0  0
 16 17  1  1  0  0  0
 15 19  1  6  0  0  0
 14 20  1  6  0  0  0
 13  3  1  1  0  0  0
M  END
>  <cdx:fragmentId>
5

$$$$
