64960.cdx
  Mrv1902 05222410272D          

 11 11  0  0  0  0            999 V2000
    7.4143   -5.4730    0.0000 O   0  0  0  0  0  0  0  0  0  0  0  0
    8.1280   -5.8869    0.0000 C   0  0  1  0  0  0  0  0  0  0  0  0
    8.1264   -6.7119    0.0000 C   0  0  2  0  0  0  0  0  0  0  0  0
    7.4111   -7.1230    0.0000 C   0  0  1  0  0  0  0  0  0  0  0  0
    6.6974   -6.7091    0.0000 C   0  0  2  0  0  0  0  0  0  0  0  0
    6.6991   -5.8841    0.0000 C   0  0  0  0  0  0  0  0  0  0  0  0
    8.8400   -7.1259    0.0000 O   0  0  0  0  0  0  0  0  0  0  0  0
    7.4094   -7.9480    0.0000 O   0  0  0  0  0  0  0  0  0  0  0  0
    5.9821   -7.1202    0.0000 O   0  0  0  0  0  0  0  0  0  0  0  0
    8.8433   -5.4759    0.0000 C   0  0  0  0  0  0  0  0  0  0  0  0
    9.5578   -5.8884    0.0000 O   0  0  0  0  0  0  0  0  0  0  0  0
  1  2  1  0  0  0  0
  2  3  1  0  0  0  0
  3  4  1  0  0  0  0
  4  5  1  0  0  0  0
  5  6  1  0  0  0  0
  1  6  1  0  0  0  0
  3  7  1  1  0  0  0
  4  8  1  6  0  0  0
  5  9  1  1  0  0  0
 10 11  1  0  0  0  0
  2 10  1  6  0  0  0
M  END
>  <cdx:fragmentId>
5

$$$$
