649655.cdx
  Mrv1902 05222410222D          

 79 87  0  0  0  0            999 V2000
   15.7851  -10.1585    0.0000 C   0  0  1  0  0  0  0  0  0  0  0  0
   16.4995   -9.7460    0.0000 C   0  0  2  0  0  0  0  0  0  0  0  0
   17.2842  -10.0009    0.0000 C   0  0  0  0  0  0  0  0  0  0  0  0
   17.7691   -9.3335    0.0000 C   0  0  2  0  0  0  0  0  0  0  0  0
   18.5537   -9.0786    0.0000 O   0  0  0  0  0  0  0  0  0  0  0  0
   18.5537   -8.2536    0.0000 C   0  0  1  0  0  0  0  0  0  0  0  0
   17.7691   -7.9986    0.0000 C   0  0  2  0  0  0  0  0  0  0  0  0
   17.2842   -8.6661    0.0000 C   0  0  2  0  0  0  0  0  0  0  0  0
   16.4995   -8.9210    0.0000 C   0  0  1  0  0  0  0  0  0  0  0  0
   15.7851   -8.5085    0.0000 C   0  0  0  0  0  0  0  0  0  0  0  0
   15.0706   -8.9210    0.0000 C   0  0  0  0  0  0  0  0  0  0  0  0
   15.0706   -9.7460    0.0000 C   0  0  2  0  0  0  0  0  0  0  0  0
   14.3561  -10.1585    0.0000 C   0  0  1  0  0  0  0  0  0  0  0  0
   13.6417   -9.7460    0.0000 C   0  0  0  0  0  0  0  0  0  0  0  0
   12.9272  -10.1585    0.0000 C   0  0  0  0  0  0  0  0  0  0  0  0
   12.9272  -10.9835    0.0000 C   0  0  1  0  0  0  0  0  0  0  0  0
   13.6417  -11.3960    0.0000 C   0  0  0  0  0  0  0  0  0  0  0  0
   14.3561  -10.9835    0.0000 C   0  0  0  0  0  0  0  0  0  0  0  0
   15.0706  -11.3960    0.0000 C   0  0  0  0  0  0  0  0  0  0  0  0
   15.7851  -10.9835    0.0000 C   0  0  0  0  0  0  0  0  0  0  0  0
   19.3742   -8.1673    0.0000 C   0  0  0  0  0  0  0  0  0  0  0  0
   19.8591   -8.8348    0.0000 C   0  0  0  0  0  0  0  0  0  0  0  0
   20.6796   -8.7485    0.0000 C   0  0  2  0  0  0  0  0  0  0  0  0
   21.1645   -9.4160    0.0000 C   0  0  0  0  0  0  0  0  0  0  0  0
   21.0152   -7.9949    0.0000 C   0  0  0  0  0  0  0  0  0  0  0  0
   14.3561   -9.3335    0.0000 C   0  0  0  0  0  0  0  0  0  0  0  0
   17.5141   -7.2140    0.0000 C   0  0  0  0  0  0  0  0  0  0  0  0
   16.8717   -7.9516    0.0000 H   0  0  0  0  0  0  0  0  0  0  0  0
   18.8893   -7.4999    0.0000 O   0  0  0  0  0  0  0  0  0  0  0  0
   15.7851   -9.3335    0.0000 H   0  0  0  0  0  0  0  0  0  0  0  0
   16.4995  -10.5710    0.0000 H   0  0  0  0  0  0  0  0  0  0  0  0
   18.2540  -10.0009    0.0000 H   0  0  0  0  0  0  0  0  0  0  0  0
   15.0706  -10.5710    0.0000 H   0  0  0  0  0  0  0  0  0  0  0  0
    9.3726   -9.7157    0.0000 O   0  0  0  0  0  0  0  0  0  0  0  0
   12.2127  -11.3960    0.0000 O   0  0  0  0  0  0  0  0  0  0  0  0
    9.3550  -11.3656    0.0000 O   0  0  0  0  0  0  0  0  0  0  0  0
   10.0957   -8.4934    0.0000 O   0  0  0  0  0  0  0  0  0  0  0  0
   10.8102   -8.9059    0.0000 C   0  0  0  0  0  0  0  0  0  0  0  0
   10.8014   -9.7309    0.0000 C   0  0  2  0  0  0  0  0  0  0  0  0
   10.0826  -10.1358    0.0000 C   0  0  2  0  0  0  0  0  0  0  0  0
   10.0738  -10.9607    0.0000 C   0  0  1  0  0  0  0  0  0  0  0  0
   23.6350   -9.3259    0.0000 O   0  0  0  0  0  0  0  0  0  0  0  0
   24.4634  -10.7528    0.0000 O   0  0  0  0  0  0  0  0  0  0  0  0
   23.6417  -12.1837    0.0000 O   0  0  0  0  0  0  0  0  0  0  0  0
   22.4059  -12.9011    0.0000 O   0  0  0  0  0  0  0  0  0  0  0  0
   21.9917  -12.1876    0.0000 C   0  0  0  0  0  0  0  0  0  0  0  0
   22.4025  -11.4722    0.0000 C   0  0  2  0  0  0  0  0  0  0  0  0
   23.2275  -11.4702    0.0000 C   0  0  2  0  0  0  0  0  0  0  0  0
   23.6384  -10.7548    0.0000 C   0  0  1  0  0  0  0  0  0  0  0  0
   23.2242  -10.0413    0.0000 C   0  0  2  0  0  0  0  0  0  0  0  0
   22.3992  -10.0432    0.0000 C   0  0  1  0  0  0  0  0  0  0  0  0
   21.9884  -10.7587    0.0000 O   0  0  0  0  0  0  0  0  0  0  0  0
   21.9850   -9.3297    0.0000 O   0  0  0  0  0  0  0  0  0  0  0  0
   10.7839  -11.3808    0.0000 C   0  0  2  0  0  0  0  0  0  0  0  0
   11.5027  -10.9759    0.0000 C   0  0  1  0  0  0  0  0  0  0  0  0
   11.5115  -10.1510    0.0000 O   0  0  0  0  0  0  0  0  0  0  0  0
   10.7751  -12.2058    0.0000 O   0  0  0  0  0  0  0  0  0  0  0  0
   10.8637  -15.0623    0.0000 C   0  0  0  0  0  0  0  0  0  0  0  0
   12.5129  -15.0111    0.0000 O   0  0  0  0  0  0  0  0  0  0  0  0
   13.2932  -13.5572    0.0000 O   0  0  0  0  0  0  0  0  0  0  0  0
   12.4243  -12.1546    0.0000 O   0  0  0  0  0  0  0  0  0  0  0  0
   11.2539  -14.3353    0.0000 C   0  0  1  0  0  0  0  0  0  0  0  0
   12.0785  -14.3097    0.0000 C   0  0  1  0  0  0  0  0  0  0  0  0
   12.4686  -13.5828    0.0000 C   0  0  2  0  0  0  0  0  0  0  0  0
   12.0341  -12.8815    0.0000 C   0  0  2  0  0  0  0  0  0  0  0  0
   11.2095  -12.9071    0.0000 C   0  0  1  0  0  0  0  0  0  0  0  0
   10.8194  -13.6340    0.0000 O   0  0  0  0  0  0  0  0  0  0  0  0
   16.4995   -8.0960    0.0000 C   0  0  0  0  0  0  0  0  0  0  0  0
    8.6450  -10.9455    0.0000 C   0  0  2  0  0  0  0  0  0  0  0  0
    8.6581  -10.1206    0.0000 O   0  0  0  0  0  0  0  0  0  0  0  0
    7.9503   -9.6968    0.0000 C   0  0  1  0  0  0  0  0  0  0  0  0
    7.2293  -10.1206    0.0000 C   0  0  2  0  0  0  0  0  0  0  0  0
    7.2293  -10.9455    0.0000 C   0  0  1  0  0  0  0  0  0  0  0  0
    7.9503  -11.3693    0.0000 C   0  0  1  0  0  0  0  0  0  0  0  0
    7.9536   -8.8718    0.0000 C   0  0  0  0  0  0  0  0  0  0  0  0
    6.5132  -11.3552    0.0000 O   0  0  0  0  0  0  0  0  0  0  0  0
    7.9570  -12.1943    0.0000 O   0  0  0  0  0  0  0  0  0  0  0  0
    6.5132   -9.7109    0.0000 O   0  0  0  0  0  0  0  0  0  0  0  0
    7.2408   -8.4564    0.0000 O   0  0  0  0  0  0  0  0  0  0  0  0
 66 57  1  1  0  0  0
 54 57  1  6  0  0  0
 40 34  1  6  0  0  0
 55 35  1  1  0  0  0
 41 36  1  1  0  0  0
 39 38  1  1  0  0  0
 38 37  1  0  0  0  0
 56 39  1  0  0  0  0
 40 39  1  0  0  0  0
 41 40  1  0  0  0  0
 54 41  1  0  0  0  0
 51 53  1  1  0  0  0
 50 42  1  6  0  0  0
 49 43  1  1  0  0  0
 48 44  1  6  0  0  0
 47 46  1  1  0  0  0
 46 45  1  0  0  0  0
 52 47  1  0  0  0  0
 48 47  1  0  0  0  0
 49 48  1  0  0  0  0
 50 49  1  0  0  0  0
 51 50  1  0  0  0  0
 52 51  1  0  0  0  0
 55 54  1  0  0  0  0
 56 55  1  0  0  0  0
 62 58  1  6  0  0  0
 63 59  1  1  0  0  0
 64 60  1  6  0  0  0
 65 61  1  6  0  0  0
 67 62  1  0  0  0  0
 63 62  1  0  0  0  0
 64 63  1  0  0  0  0
 65 64  1  0  0  0  0
 66 65  1  0  0  0  0
 67 66  1  0  0  0  0
  1  2  1  0  0  0  0
  2  3  1  0  0  0  0
  3  4  1  0  0  0  0
  4  5  1  0  0  0  0
  5  6  1  0  0  0  0
  6  7  1  0  0  0  0
  7  8  1  0  0  0  0
  8  9  1  0  0  0  0
  9 10  1  0  0  0  0
 10 11  1  0  0  0  0
 11 12  1  0  0  0  0
 12 13  1  0  0  0  0
 13 14  1  0  0  0  0
 14 15  1  0  0  0  0
 15 16  1  0  0  0  0
 16 17  1  0  0  0  0
 17 18  1  0  0  0  0
 18 19  2  0  0  0  0
 19 20  1  0  0  0  0
  1 20  1  0  0  0  0
  1 12  1  0  0  0  0
 13 18  1  0  0  0  0
  2  9  1  0  0  0  0
  4  8  1  0  0  0  0
 21 22  1  0  0  0  0
 22 23  1  0  0  0  0
 23 24  1  0  0  0  0
 24 53  1  0  0  0  0
 23 25  1  1  0  0  0
  6 21  1  0  0  0  0
 13 26  1  1  0  0  0
  7 27  1  6  0  0  0
  8 28  1  6  0  0  0
  6 29  1  6  0  0  0
 16 35  1  1  0  0  0
  1 30  1  1  0  0  0
  2 31  1  6  0  0  0
  4 32  1  6  0  0  0
 12 33  1  6  0  0  0
  9 68  1  1  0  0  0
 69 36  1  1  0  0  0
 69 70  1  0  0  0  0
 70 71  1  0  0  0  0
 71 72  1  0  0  0  0
 72 73  1  0  0  0  0
 73 74  1  0  0  0  0
 74 69  1  0  0  0  0
 71 75  1  1  0  0  0
 73 76  1  1  0  0  0
 74 77  1  6  0  0  0
 72 78  1  6  0  0  0
 75 79  1  0  0  0  0
M  END
>  <cdx:groupId>
195535

>  <cdx:fragmentId>
195341

$$$$
