64981.cdx
  Mrv1902 05222410182D          

 27 29  0  0  0  0            999 V2000
    9.4219   -6.8666    0.0000 C   0  0  0  0  0  0  0  0  0  0  0  0
    8.9453   -6.1932    0.0000 O   0  0  0  0  0  0  0  0  0  0  0  0
    7.9107   -8.4416    0.0000 C   0  0  0  0  0  0  0  0  0  0  0  0
    8.2556   -7.6921    0.0000 O   0  0  0  0  0  0  0  0  0  0  0  0
    6.8257   -5.6719    0.0000 C   0  0  0  0  0  0  0  0  0  0  0  0
    7.6472   -5.5959    0.0000 C   0  0  0  0  0  0  0  0  0  0  0  0
    8.1238   -6.2692    0.0000 C   0  0  0  0  0  0  0  0  0  0  0  0
    7.7790   -7.0187    0.0000 C   0  0  0  0  0  0  0  0  0  0  0  0
    6.9575   -7.0948    0.0000 C   0  0  0  0  0  0  0  0  0  0  0  0
    6.4808   -6.4214    0.0000 C   0  0  0  0  0  0  0  0  0  0  0  0
    5.6594   -6.4974    0.0000 C   0  0  0  0  0  0  0  0  0  0  0  0
    6.4818   -8.9414    0.0000 C   0  0  0  0  0  0  0  0  0  0  0  0
    6.1558   -8.1835    0.0000 O   0  0  0  0  0  0  0  0  0  0  0  0
    5.1694   -9.5063    0.0000 O   0  0  0  0  0  0  0  0  0  0  0  0
    3.6977   -7.8944    0.0000 C   0  0  0  0  0  0  0  0  0  0  0  0
    4.0239   -8.6521    0.0000 C   0  0  0  0  0  0  0  0  0  0  0  0
    4.8432   -8.7485    0.0000 C   0  0  0  0  0  0  0  0  0  0  0  0
    5.3364   -8.0872    0.0000 C   0  0  0  0  0  0  0  0  0  0  0  0
    5.0102   -7.3294    0.0000 C   0  0  0  0  0  0  0  0  0  0  0  0
    4.1909   -7.2330    0.0000 C   0  0  0  0  0  0  0  0  0  0  0  0
    3.8647   -6.4752    0.0000 C   0  0  0  0  0  0  0  0  0  0  0  0
    3.3312   -4.7615    0.0000 O   0  0  0  0  0  0  0  0  0  0  0  0
    5.4474   -5.0426    0.0000 C   0  0  0  0  0  0  0  0  0  0  0  0
    5.1827   -5.8241    0.0000 C   0  0  1  0  0  0  0  0  0  0  0  0
    4.3578   -5.8138    0.0000 C   0  0  2  0  0  0  0  0  0  0  0  0
    4.1126   -5.0261    0.0000 C   0  0  0  0  0  0  0  0  0  0  0  0
    4.7860   -4.5495    0.0000 O   0  0  0  0  0  0  0  0  0  0  0  0
  2  1  1  0  0  0  0
 24 11  1  6  0  0  0
 11 10  1  0  0  0  0
  7  2  1  0  0  0  0
  8  4  1  0  0  0  0
  4  3  1  0  0  0  0
 10  5  2  0  0  0  0
  6  5  1  0  0  0  0
  7  6  2  0  0  0  0
  8  7  1  0  0  0  0
  9  8  2  0  0  0  0
 10  9  1  0  0  0  0
 25 21  1  1  0  0  0
 21 20  1  0  0  0  0
 18 13  1  0  0  0  0
 13 12  1  0  0  0  0
 17 14  1  0  0  0  0
 20 15  2  0  0  0  0
 16 15  1  0  0  0  0
 17 16  2  0  0  0  0
 18 17  1  0  0  0  0
 19 18  2  0  0  0  0
 20 19  1  0  0  0  0
 26 22  2  0  0  0  0
 27 23  1  0  0  0  0
 24 23  1  0  0  0  0
 25 24  1  0  0  0  0
 26 25  1  0  0  0  0
 27 26  1  0  0  0  0
M  END
>  <cdx:fragmentId>
21408

$$$$
