650.cdx
  Mrv1902 05222410282D          

  6  5  0  0  0  0            999 V2000
    8.0251   -3.6583    0.0000 C   0  0  0  0  0  0  0  0  0  0  0  0
    7.3106   -4.0708    0.0000 C   0  0  0  0  0  0  0  0  0  0  0  0
    6.5961   -3.6583    0.0000 C   0  0  0  0  0  0  0  0  0  0  0  0
    5.8817   -4.0708    0.0000 C   0  0  0  0  0  0  0  0  0  0  0  0
    7.3106   -4.8958    0.0000 O   0  0  0  0  0  0  0  0  0  0  0  0
    6.5961   -2.8333    0.0000 O   0  0  0  0  0  0  0  0  0  0  0  0
  1  2  1  0  0  0  0
  2  3  1  0  0  0  0
  3  4  1  0  0  0  0
  2  5  2  0  0  0  0
  3  6  2  0  0  0  0
M  END
>  <cdx:fragmentId>
5

$$$$
