6500.cdx
  Mrv1902 05222410202D          

 40 44  0  0  0  0            999 V2000
    8.1089   -8.2088    0.0000 C   0  0  0  0  0  0  0  0  0  0  0  0
    8.1089   -9.0337    0.0000 C   0  0  0  0  0  0  0  0  0  0  0  0
    8.8234   -9.4462    0.0000 C   0  0  0  0  0  0  0  0  0  0  0  0
    9.5378   -9.0337    0.0000 C   0  0  0  0  0  0  0  0  0  0  0  0
    9.5378   -8.2088    0.0000 C   0  0  0  0  0  0  0  0  0  0  0  0
    8.8234   -7.7963    0.0000 C   0  0  0  0  0  0  0  0  0  0  0  0
   10.2523   -7.7963    0.0000 O   0  0  0  0  0  0  0  0  0  0  0  0
   10.2523   -6.9712    0.0000 C   0  0  0  0  0  0  0  0  0  0  0  0
    9.5378   -6.5587    0.0000 C   0  0  0  0  0  0  0  0  0  0  0  0
    8.8234   -6.9712    0.0000 C   0  0  0  0  0  0  0  0  0  0  0  0
   10.2523   -5.3213    0.0000 C   0  0  0  0  0  0  0  0  0  0  0  0
    9.5378   -5.7338    0.0000 C   0  0  0  0  0  0  0  0  0  0  0  0
   10.2523   -4.4962    0.0000 C   0  0  0  0  0  0  0  0  0  0  0  0
    9.5378   -4.0838    0.0000 C   0  0  0  0  0  0  0  0  0  0  0  0
    8.8234   -4.4962    0.0000 C   0  0  0  0  0  0  0  0  0  0  0  0
    8.8234   -5.3213    0.0000 C   0  0  0  0  0  0  0  0  0  0  0  0
    9.5378   -3.2588    0.0000 O   0  0  0  0  0  0  0  0  0  0  0  0
    8.1089   -6.5587    0.0000 O   0  0  0  0  0  0  0  0  0  0  0  0
    7.3944   -7.7963    0.0000 O   0  0  0  0  0  0  0  0  0  0  0  0
    8.8234  -10.2713    0.0000 O   0  0  0  0  0  0  0  0  0  0  0  0
    8.1089  -10.6837    0.0000 C   0  0  2  0  0  0  0  0  0  0  0  0
    7.3944  -10.2713    0.0000 O   0  0  0  0  0  0  0  0  0  0  0  0
    6.6800  -10.6837    0.0000 C   0  0  1  0  0  0  0  0  0  0  0  0
    6.6800  -11.5087    0.0000 C   0  0  2  0  0  0  0  0  0  0  0  0
    7.3944  -11.9213    0.0000 C   0  0  1  0  0  0  0  0  0  0  0  0
    8.1089  -11.5087    0.0000 C   0  0  1  0  0  0  0  0  0  0  0  0
    5.9655  -10.2713    0.0000 C   0  0  0  0  0  0  0  0  0  0  0  0
    7.3944  -12.7462    0.0000 O   0  0  0  0  0  0  0  0  0  0  0  0
    8.8234  -11.9213    0.0000 O   0  0  0  0  0  0  0  0  0  0  0  0
    5.9655  -11.9213    0.0000 O   0  0  0  0  0  0  0  0  0  0  0  0
    5.2510  -10.6837    0.0000 O   0  0  0  0  0  0  0  0  0  0  0  0
    4.5365  -10.2713    0.0000 C   0  0  2  0  0  0  0  0  0  0  0  0
    4.4503   -9.4508    0.0000 O   0  0  0  0  0  0  0  0  0  0  0  0
    3.6433   -9.2792    0.0000 C   0  0  0  0  0  0  0  0  0  0  0  0
    3.2308   -9.9937    0.0000 C   0  0  2  0  0  0  0  0  0  0  0  0
    3.7829  -10.6068    0.0000 C   0  0  1  0  0  0  0  0  0  0  0  0
    3.5693  -11.4037    0.0000 O   0  0  0  0  0  0  0  0  0  0  0  0
    2.6475  -10.5771    0.0000 O   0  0  0  0  0  0  0  0  0  0  0  0
    2.5164   -9.5812    0.0000 C   0  0  0  0  0  0  0  0  0  0  0  0
    2.5164   -8.7562    0.0000 O   0  0  0  0  0  0  0  0  0  0  0  0
  1  2  1  0  0  0  0
  2  3  2  0  0  0  0
  3  4  1  0  0  0  0
  4  5  2  0  0  0  0
  5  6  1  0  0  0  0
  6  1  2  0  0  0  0
  5  7  1  0  0  0  0
  7  8  1  0  0  0  0
  8  9  2  0  0  0  0
  9 10  1  0  0  0  0
 10  6  1  0  0  0  0
 11 12  2  0  0  0  0
 12  9  1  0  0  0  0
 11 13  1  0  0  0  0
 13 14  2  0  0  0  0
 14 15  1  0  0  0  0
 15 16  2  0  0  0  0
 16 12  1  0  0  0  0
 14 17  1  0  0  0  0
 10 18  2  0  0  0  0
  1 19  1  0  0  0  0
  3 20  1  0  0  0  0
 21 20  1  1  0  0  0
 21 22  1  0  0  0  0
 22 23  1  0  0  0  0
 23 24  1  0  0  0  0
 24 25  1  0  0  0  0
 25 26  1  0  0  0  0
 26 21  1  0  0  0  0
 23 27  1  1  0  0  0
 25 28  1  1  0  0  0
 26 29  1  6  0  0  0
 24 30  1  6  0  0  0
 27 31  1  0  0  0  0
 32 31  1  1  0  0  0
 32 33  1  0  0  0  0
 33 34  1  0  0  0  0
 34 35  1  0  0  0  0
 35 36  1  0  0  0  0
 36 32  1  0  0  0  0
 36 37  1  6  0  0  0
 35 38  1  6  0  0  0
 35 39  1  0  0  0  0
 39 40  1  0  0  0  0
M  END
>  <cdx:fragmentId>
5

$$$$
