65036.cdx
  Mrv1902 05222410212D          

  9  8  0  0  0  0            999 V2000
    8.0686   -4.5835    0.0000 C   0  0  0  0  0  0  0  0  0  0  0  0
    8.7852   -4.9922    0.0000 C   0  0  0  0  0  0  0  0  0  0  0  0
    9.4975   -4.5759    0.0000 C   0  0  0  0  0  0  0  0  0  0  0  0
    7.3563   -4.9998    0.0000 S   0  0  0  0  0  0  0  0  0  0  0  0
    7.3607   -5.8248    0.0000 O   0  0  0  0  0  0  0  0  0  0  0  0
    6.6397   -4.5911    0.0000 S   0  0  0  0  0  0  0  0  0  0  0  0
    5.9274   -5.0074    0.0000 C   0  0  0  0  0  0  0  0  0  0  0  0
    5.2107   -4.5987    0.0000 C   0  0  0  0  0  0  0  0  0  0  0  0
    4.4985   -5.0150    0.0000 C   0  0  0  0  0  0  0  0  0  0  0  0
  1  2  1  0  0  0  0
  2  3  2  0  0  0  0
  4  5  2  0  0  0  0
  4  6  1  0  0  0  0
  1  4  1  0  0  0  0
  7  8  1  0  0  0  0
  8  9  2  0  0  0  0
  6  7  1  0  0  0  0
M  END
>  <cdx:groupId>
28

>  <cdx:fragmentId>
11

$$$$
