101650337.cdx
  Mrv1902 05222410232D          

 42 49  0  0  0  0            999 V2000
    8.2192  -11.4782    0.0000 C   0  0  2  0  0  0  0  0  0  0  0  0
    9.0038  -11.2232    0.0000 C   0  0  1  0  0  0  0  0  0  0  0  0
    9.4888  -11.8907    0.0000 O   0  0  0  0  0  0  0  0  0  0  0  0
    9.0038  -12.5581    0.0000 C   0  0  0  0  0  0  0  0  0  0  0  0
    8.2192  -12.3032    0.0000 C   0  0  1  0  0  0  0  0  0  0  0  0
    7.6358  -12.8865    0.0000 C   0  0  0  0  0  0  0  0  0  0  0  0
    6.8108  -12.8865    0.0000 C   0  0  0  0  0  0  0  0  0  0  0  0
    6.2275  -12.3032    0.0000 C   0  0  2  0  0  0  0  0  0  0  0  0
    5.5130  -12.7157    0.0000 C   0  0  1  0  0  0  0  0  0  0  0  0
    5.5130  -13.5407    0.0000 C   0  0  0  0  0  0  0  0  0  0  0  0
    4.7985  -13.9532    0.0000 C   0  0  0  0  0  0  0  0  0  0  0  0
    4.0841  -13.5407    0.0000 C   0  0  0  0  0  0  0  0  0  0  0  0
    4.0841  -12.7157    0.0000 C   0  0  0  0  0  0  0  0  0  0  0  0
    4.7985  -12.3032    0.0000 C   0  0  0  0  0  0  0  0  0  0  0  0
    4.7985  -11.4782    0.0000 C   0  0  0  0  0  0  0  0  0  0  0  0
    5.5130  -11.0657    0.0000 C   0  0  0  0  0  0  0  0  0  0  0  0
    6.2275  -11.4782    0.0000 C   0  0  1  0  0  0  0  0  0  0  0  0
    6.8108  -10.8948    0.0000 C   0  0  2  0  0  0  0  0  0  0  0  0
    6.3417   -9.7410    0.0000 O   0  0  0  0  0  0  0  0  0  0  0  0
    6.9179   -9.1504    0.0000 C   0  0  0  0  0  0  0  0  0  0  0  0
    7.7389   -9.2327    0.0000 C   0  0  2  0  0  0  0  0  0  0  0  0
    8.7280   -8.8148    0.0000 C   0  0  0  0  0  0  0  0  0  0  0  0
    9.5827   -9.4627    0.0000 O   0  0  0  0  0  0  0  0  0  0  0  0
    9.4454  -10.5264    0.0000 C   0  0  2  0  0  0  0  0  0  0  0  0
    9.0057   -9.8284    0.0000 C   0  0  0  0  0  0  0  0  0  0  0  0
    8.1864   -9.9259    0.0000 C   0  0  1  0  0  0  0  0  0  0  0  0
    7.9236  -10.7080    0.0000 C   0  0  2  0  0  0  0  0  0  0  0  0
    7.6358  -10.8948    0.0000 O   0  0  0  0  0  0  0  0  0  0  0  0
    7.1482  -10.9901    0.0000 C   0  0  0  0  0  0  0  0  0  0  0  0
    9.2588  -13.3427    0.0000 O   0  0  0  0  0  0  0  0  0  0  0  0
    6.2275  -13.9532    0.0000 O   0  0  0  0  0  0  0  0  0  0  0  0
    8.8304   -7.9962    0.0000 O   0  0  0  0  0  0  0  0  0  0  0  0
    7.1482  -11.8151    0.0000 O   0  0  0  0  0  0  0  0  0  0  0  0
    8.4958   -9.3900    0.0000 C   0  0  0  0  0  0  0  0  0  0  0  0
    5.5130  -11.8907    0.0000 C   0  0  0  0  0  0  0  0  0  0  0  0
    9.8288  -11.2232    0.0000 C   0  0  0  0  0  0  0  0  0  0  0  0
    8.4118  -13.1054    0.0000 O   0  0  0  0  0  0  0  0  0  0  0  0
    6.2275  -13.1282    0.0000 H   0  0  0  0  0  0  0  0  0  0  0  0
    6.1198  -10.6602    0.0000 H   0  0  0  0  0  0  0  0  0  0  0  0
    7.6156   -8.4170    0.0000 H   0  0  0  0  0  0  0  0  0  0  0  0
   10.2214  -10.8066    0.0000 H   0  0  0  0  0  0  0  0  0  0  0  0
    7.3330  -10.1319    0.0000 H   0  0  0  0  0  0  0  0  0  0  0  0
  1  2  1  0  0  0  0
  2  3  1  0  0  0  0
  3  4  1  0  0  0  0
  4  5  1  0  0  0  0
  5  6  1  0  0  0  0
  6  7  1  0  0  0  0
  7  8  1  0  0  0  0
  8  9  1  0  0  0  0
  9 10  1  0  0  0  0
 10 11  1  0  0  0  0
 11 12  2  0  0  0  0
 12 13  1  0  0  0  0
 13 14  1  0  0  0  0
 14 15  2  0  0  0  0
 15 16  1  0  0  0  0
 16 17  1  0  0  0  0
 17 18  1  0  0  0  0
 18 19  1  0  0  0  0
 19 20  1  0  0  0  0
 20 21  1  0  0  0  0
 21 22  1  0  0  0  0
 22 23  1  0  0  0  0
 23 24  1  0  0  0  0
 24 25  1  6  0  0  0
 25 26  1  0  0  0  0
 26 27  1  0  0  0  0
  1 27  1  0  0  0  0
  1 28  1  1  0  0  0
 18 28  1  6  0  0  0
 27 29  1  0  0  0  0
 29 18  1  0  0  0  0
 21 26  1  0  0  0  0
  2 24  1  0  0  0  0
  8 17  1  0  0  0  0
  9 14  1  0  0  0  0
  1  5  1  0  0  0  0
  4 30  2  0  0  0  0
 10 31  2  0  0  0  0
 22 32  2  0  0  0  0
 29 33  2  0  0  0  0
 26 34  1  6  0  0  0
  9 35  1  6  0  0  0
  2 36  1  1  0  0  0
  5 37  1  6  0  0  0
  8 38  1  1  0  0  0
 17 39  1  6  0  0  0
 21 40  1  1  0  0  0
 24 41  1  0  0  0  0
 27 42  1  6  0  0  0
M  END
>  <cdx:groupId>
2736

>  <cdx:fragmentId>
2606

$$$$
