101650329.cdx
  Mrv1902 05222410212D          

 41 47  0  0  0  0            999 V2000
    8.2902   -7.8620    0.0000 C   0  0  1  0  0  0  0  0  0  0  0  0
    8.0265   -8.6437    0.0000 C   0  0  2  0  0  0  0  0  0  0  0  0
    8.3222   -9.4139    0.0000 C   0  0  1  0  0  0  0  0  0  0  0  0
    7.7388   -8.8305    0.0000 O   0  0  0  0  0  0  0  0  0  0  0  0
    6.9138   -8.8305    0.0000 C   0  0  1  0  0  0  0  0  0  0  0  0
    6.3304   -9.4139    0.0000 C   0  0  2  0  0  0  0  0  0  0  0  0
    5.6160   -9.0014    0.0000 C   0  0  0  0  0  0  0  0  0  0  0  0
    4.9015   -9.4139    0.0000 C   0  0  0  0  0  0  0  0  0  0  0  0
    4.9015  -10.2389    0.0000 C   0  0  0  0  0  0  0  0  0  0  0  0
    4.1870  -10.6514    0.0000 C   0  0  0  0  0  0  0  0  0  0  0  0
    4.1870  -11.4764    0.0000 C   0  0  0  0  0  0  0  0  0  0  0  0
    4.9015  -11.8889    0.0000 C   0  0  0  0  0  0  0  0  0  0  0  0
    5.6160  -11.4764    0.0000 C   0  0  0  0  0  0  0  0  0  0  0  0
    5.6160  -10.6514    0.0000 C   0  0  2  0  0  0  0  0  0  0  0  0
    6.3304  -10.2389    0.0000 C   0  0  1  0  0  0  0  0  0  0  0  0
    6.9138  -10.8223    0.0000 C   0  0  0  0  0  0  0  0  0  0  0  0
    7.7388  -10.8223    0.0000 C   0  0  0  0  0  0  0  0  0  0  0  0
    8.3222  -10.2389    0.0000 C   0  0  2  0  0  0  0  0  0  0  0  0
    9.1068  -10.4938    0.0000 C   0  0  0  0  0  0  0  0  0  0  0  0
    9.5917   -9.8264    0.0000 O   0  0  0  0  0  0  0  0  0  0  0  0
    9.1068   -9.1590    0.0000 C   0  0  1  0  0  0  0  0  0  0  0  0
    9.5492   -8.4625    0.0000 C   0  0  2  0  0  0  0  0  0  0  0  0
    9.8949   -7.7362    0.0000 O   0  0  0  0  0  0  0  0  0  0  0  0
    9.4391   -7.0734    0.0000 C   0  0  0  0  0  0  0  0  0  0  0  0
    8.6372   -7.1363    0.0000 C   0  0  0  0  0  0  0  0  0  0  0  0
    9.1094   -7.7645    0.0000 C   0  0  0  0  0  0  0  0  0  0  0  0
    7.3703   -8.1433    0.0000 C   0  0  0  0  0  0  0  0  0  0  0  0
    6.3304  -11.8889    0.0000 O   0  0  0  0  0  0  0  0  0  0  0  0
    9.3617  -11.2785    0.0000 O   0  0  0  0  0  0  0  0  0  0  0  0
    9.8516   -6.3590    0.0000 O   0  0  0  0  0  0  0  0  0  0  0  0
    7.2335   -7.3297    0.0000 O   0  0  0  0  0  0  0  0  0  0  0  0
    8.2247   -6.4218    0.0000 C   0  0  0  0  0  0  0  0  0  0  0  0
    9.9318   -9.1590    0.0000 C   0  0  0  0  0  0  0  0  0  0  0  0
    5.6160   -9.8264    0.0000 C   0  0  0  0  0  0  0  0  0  0  0  0
    7.5913   -7.4236    0.0000 C   0  0  0  0  0  0  0  0  0  0  0  0
    8.5148  -11.0411    0.0000 O   0  0  0  0  0  0  0  0  0  0  0  0
    6.3758   -8.2051    0.0000 O   0  0  0  0  0  0  0  0  0  0  0  0
    8.8513   -8.6267    0.0000 H   0  0  0  0  0  0  0  0  0  0  0  0
    6.0824   -8.6271    0.0000 H   0  0  0  0  0  0  0  0  0  0  0  0
    6.3304  -11.0639    0.0000 H   0  0  0  0  0  0  0  0  0  0  0  0
   10.2636   -8.8750    0.0000 H   0  0  0  0  0  0  0  0  0  0  0  0
  1  2  1  0  0  0  0
  2  3  1  0  0  0  0
  3  4  1  1  0  0  0
  5  4  1  6  0  0  0
  5  6  1  0  0  0  0
  6  7  1  0  0  0  0
  7  8  1  0  0  0  0
  8  9  2  0  0  0  0
  9 10  1  0  0  0  0
 10 11  1  0  0  0  0
 11 12  2  0  0  0  0
 12 13  1  0  0  0  0
 13 14  1  0  0  0  0
 14 15  1  0  0  0  0
 15 16  1  0  0  0  0
 16 17  1  0  0  0  0
 17 18  1  0  0  0  0
 18 19  1  0  0  0  0
 19 20  1  0  0  0  0
 20 21  1  0  0  0  0
 21 22  1  0  0  0  0
 22 23  1  0  0  0  0
 23 24  1  0  0  0  0
 24 25  1  0  0  0  0
  1 25  1  0  0  0  0
  1 26  1  6  0  0  0
 22 26  1  6  0  0  0
  3 21  1  0  0  0  0
  3 18  1  0  0  0  0
  6 15  1  0  0  0  0
  9 14  1  0  0  0  0
  5 27  1  0  0  0  0
 27  2  1  0  0  0  0
 13 28  2  0  0  0  0
 19 29  2  0  0  0  0
 24 30  2  0  0  0  0
 27 31  2  0  0  0  0
 25 32  2  0  0  0  0
 21 33  1  1  0  0  0
 14 34  1  6  0  0  0
  1 35  1  0  0  0  0
 18 36  1  6  0  0  0
  5 37  1  0  0  0  0
  2 38  1  1  0  0  0
  6 39  1  6  0  0  0
 15 40  1  1  0  0  0
 22 41  1  0  0  0  0
M  END
>  <cdx:groupId>
257493

>  <cdx:fragmentId>
257367

$$$$
