65060.cdx
  Mrv1902 05222410262D          

 33 36  0  0  0  0            999 V2000
    7.7041   -7.6358    0.0000 C   0  0  0  0  0  0  0  0  0  0  0  0
    8.4152   -8.0541    0.0000 C   0  0  0  0  0  0  0  0  0  0  0  0
    9.1330   -7.6474    0.0000 C   0  0  0  0  0  0  0  0  0  0  0  0
    9.8441   -8.0657    0.0000 C   0  0  0  0  0  0  0  0  0  0  0  0
    9.8374   -8.8906    0.0000 C   0  0  0  0  0  0  0  0  0  0  0  0
    9.1196   -9.2973    0.0000 C   0  0  0  0  0  0  0  0  0  0  0  0
    8.4085   -8.8790    0.0000 C   0  0  0  0  0  0  0  0  0  0  0  0
    6.9863   -8.0425    0.0000 O   0  0  0  0  0  0  0  0  0  0  0  0
    7.7108   -6.8108    0.0000 O   0  0  0  0  0  0  0  0  0  0  0  0
    9.1129  -10.1223    0.0000 O   0  0  0  0  0  0  0  0  0  0  0  0
   10.5485   -9.3089    0.0000 O   0  0  0  0  0  0  0  0  0  0  0  0
   10.5619   -7.6590    0.0000 O   0  0  0  0  0  0  0  0  0  0  0  0
    7.0064   -5.5676    0.0000 C   0  0  1  0  0  0  0  0  0  0  0  0
    6.9997   -6.3925    0.0000 C   0  0  2  0  0  0  0  0  0  0  0  0
    6.2819   -6.7992    0.0000 C   0  0  0  0  0  0  0  0  0  0  0  0
    5.5708   -6.3810    0.0000 C   0  0  0  0  0  0  0  0  0  0  0  0
    4.8530   -6.7877    0.0000 C   0  0  0  0  0  0  0  0  0  0  0  0
    4.1419   -6.3694    0.0000 C   0  0  0  0  0  0  0  0  0  0  0  0
    4.1486   -5.5444    0.0000 C   0  0  0  0  0  0  0  0  0  0  0  0
    4.8664   -5.1377    0.0000 C   0  0  0  0  0  0  0  0  0  0  0  0
    5.5775   -5.5560    0.0000 C   0  0  0  0  0  0  0  0  0  0  0  0
    6.2953   -5.1493    0.0000 O   0  0  0  0  0  0  0  0  0  0  0  0
    7.7242   -5.1609    0.0000 C   0  0  0  0  0  0  0  0  0  0  0  0
    7.7308   -4.3359    0.0000 C   0  0  0  0  0  0  0  0  0  0  0  0
    8.4486   -3.9292    0.0000 C   0  0  0  0  0  0  0  0  0  0  0  0
    9.1597   -4.3475    0.0000 C   0  0  0  0  0  0  0  0  0  0  0  0
    9.1531   -5.1725    0.0000 C   0  0  0  0  0  0  0  0  0  0  0  0
    8.4353   -5.5792    0.0000 C   0  0  0  0  0  0  0  0  0  0  0  0
    9.8642   -5.5907    0.0000 O   0  0  0  0  0  0  0  0  0  0  0  0
    9.8775   -3.9408    0.0000 O   0  0  0  0  0  0  0  0  0  0  0  0
    8.4553   -3.1042    0.0000 O   0  0  0  0  0  0  0  0  0  0  0  0
    3.4375   -5.1261    0.0000 O   0  0  0  0  0  0  0  0  0  0  0  0
    4.8463   -7.6126    0.0000 O   0  0  0  0  0  0  0  0  0  0  0  0
  1  2  1  0  0  0  0
  2  3  1  0  0  0  0
  3  4  2  0  0  0  0
  4  5  1  0  0  0  0
  5  6  2  0  0  0  0
  6  7  1  0  0  0  0
  2  7  2  0  0  0  0
  1  8  2  0  0  0  0
  1  9  1  0  0  0  0
  6 10  1  0  0  0  0
  5 11  1  0  0  0  0
  4 12  1  0  0  0  0
 13 14  1  0  0  0  0
 14 15  1  0  0  0  0
 15 16  1  0  0  0  0
 16 17  1  0  0  0  0
 17 18  2  0  0  0  0
 18 19  1  0  0  0  0
 19 20  2  0  0  0  0
 20 21  1  0  0  0  0
 16 21  2  0  0  0  0
 21 22  1  0  0  0  0
 13 22  1  0  0  0  0
 23 24  1  0  0  0  0
 24 25  2  0  0  0  0
 25 26  1  0  0  0  0
 26 27  2  0  0  0  0
 27 28  1  0  0  0  0
 23 28  2  0  0  0  0
 27 29  1  0  0  0  0
 26 30  1  0  0  0  0
 25 31  1  0  0  0  0
 13 23  1  1  0  0  0
 19 32  1  0  0  0  0
 17 33  1  0  0  0  0
 14  9  1  1  0  0  0
M  END
>  <cdx:groupId>
104

>  <cdx:fragmentId>
29

$$$$
