65067.cdx
  Mrv1902 05222410282D          

 15 17  0  0  0  0            999 V2000
    7.6277   -6.1496    0.0000 C   0  0  0  0  0  0  0  0  0  0  0  0
    7.3727   -6.9342    0.0000 C   0  0  0  0  0  0  0  0  0  0  0  0
    6.5477   -6.9342    0.0000 C   0  0  0  0  0  0  0  0  0  0  0  0
    6.2928   -6.1496    0.0000 C   0  0  0  0  0  0  0  0  0  0  0  0
    6.9602   -5.6647    0.0000 S   0  0  0  0  0  0  0  0  0  0  0  0
    5.5082   -5.8947    0.0000 C   0  0  0  0  0  0  0  0  0  0  0  0
    4.8408   -6.3796    0.0000 C   0  0  0  0  0  0  0  0  0  0  0  0
    4.1733   -5.8947    0.0000 C   0  0  0  0  0  0  0  0  0  0  0  0
    4.4283   -5.1101    0.0000 C   0  0  0  0  0  0  0  0  0  0  0  0
    5.2533   -5.1101    0.0000 S   0  0  0  0  0  0  0  0  0  0  0  0
    8.4123   -5.8947    0.0000 C   0  0  0  0  0  0  0  0  0  0  0  0
    8.6672   -5.1101    0.0000 C   0  0  0  0  0  0  0  0  0  0  0  0
    9.4922   -5.1101    0.0000 C   0  0  0  0  0  0  0  0  0  0  0  0
    9.7472   -5.8947    0.0000 C   0  0  0  0  0  0  0  0  0  0  0  0
    9.0797   -6.3796    0.0000 S   0  0  0  0  0  0  0  0  0  0  0  0
  1  2  2  0  0  0  0
  2  3  1  0  0  0  0
  3  4  2  0  0  0  0
  4  5  1  0  0  0  0
  1  5  1  0  0  0  0
  6  7  2  0  0  0  0
  7  8  1  0  0  0  0
  8  9  2  0  0  0  0
  9 10  1  0  0  0  0
  6 10  1  0  0  0  0
  4  6  1  0  0  0  0
 11 12  2  0  0  0  0
 12 13  1  0  0  0  0
 13 14  2  0  0  0  0
 14 15  1  0  0  0  0
 11 15  1  0  0  0  0
  1 11  1  0  0  0  0
M  END
>  <cdx:fragmentId>
15

$$$$
