65085.cdx
  Mrv1902 05222410202D          

 20 22  0  0  0  0            999 V2000
    4.7915   -5.3608    0.0000 N   0  0  0  0  0  0  0  0  0  0  0  0
    5.2764   -4.6933    0.0000 C   0  0  0  0  0  0  0  0  0  0  0  0
    4.7915   -4.0259    0.0000 N   0  0  0  0  0  0  0  0  0  0  0  0
    4.0069   -4.2808    0.0000 C   0  0  0  0  0  0  0  0  0  0  0  0
    3.2924   -3.8683    0.0000 N   0  0  0  0  0  0  0  0  0  0  0  0
    2.5779   -4.2808    0.0000 C   0  0  0  0  0  0  0  0  0  0  0  0
    2.5779   -5.1058    0.0000 N   0  0  0  0  0  0  0  0  0  0  0  0
    3.2924   -5.5183    0.0000 C   0  0  0  0  0  0  0  0  0  0  0  0
    4.0069   -5.1058    0.0000 C   0  0  0  0  0  0  0  0  0  0  0  0
    1.8635   -3.8683    0.0000 O   0  0  0  0  0  0  0  0  0  0  0  0
    5.8311   -2.9863    0.0000 O   0  0  0  0  0  0  0  0  0  0  0  0
    5.0464   -3.2413    0.0000 C   0  0  2  0  0  0  0  0  0  0  0  0
    4.5615   -2.5738    0.0000 C   0  0  1  0  0  0  0  0  0  0  0  0
    5.0464   -1.9064    0.0000 C   0  0  1  0  0  0  0  0  0  0  0  0
    5.8311   -2.1613    0.0000 C   0  0  1  0  0  0  0  0  0  0  0  0
    6.4985   -1.6764    0.0000 C   0  0  0  0  0  0  0  0  0  0  0  0
    7.2522   -2.0120    0.0000 O   0  0  0  0  0  0  0  0  0  0  0  0
    4.7915   -1.1218    0.0000 O   0  0  0  0  0  0  0  0  0  0  0  0
    3.7365   -2.5738    0.0000 O   0  0  0  0  0  0  0  0  0  0  0  0
    3.2924   -6.3433    0.0000 N   0  0  0  0  0  0  0  0  0  0  0  0
  1  2  2  0  0  0  0
  2  3  1  0  0  0  0
  3  4  1  0  0  0  0
  4  5  2  0  0  0  0
  5  6  1  0  0  0  0
  6  7  1  0  0  0  0
  7  8  1  0  0  0  0
  8  9  2  0  0  0  0
  1  9  1  0  0  0  0
  4  9  1  0  0  0  0
  6 10  2  0  0  0  0
 11 12  1  0  0  0  0
 12 13  1  0  0  0  0
 13 14  1  0  0  0  0
 14 15  1  0  0  0  0
 11 15  1  0  0  0  0
 16 17  1  0  0  0  0
 15 16  1  1  0  0  0
 14 18  1  6  0  0  0
 13 19  1  6  0  0  0
 12  3  1  1  0  0  0
  8 20  1  0  0  0  0
M  END
>  <cdx:groupId>
64

>  <cdx:fragmentId>
5

$$$$
