65080.cdx
  Mrv1902 05222410182D          

 18 19  0  0  0  0            999 V2000
    5.8855   -1.8227    0.0000 O   0  0  0  0  0  0  0  0  0  0  0  0
    6.6000   -2.2352    0.0000 C   0  0  1  0  0  0  0  0  0  0  0  0
    6.6000   -3.0602    0.0000 C   0  0  2  0  0  0  0  0  0  0  0  0
    5.8855   -3.4727    0.0000 C   0  0  1  0  0  0  0  0  0  0  0  0
    5.1711   -3.0602    0.0000 C   0  0  2  0  0  0  0  0  0  0  0  0
    5.1711   -2.2352    0.0000 C   0  0  2  0  0  0  0  0  0  0  0  0
    7.3145   -3.4727    0.0000 O   0  0  0  0  0  0  0  0  0  0  0  0
    5.8855   -4.2977    0.0000 O   0  0  0  0  0  0  0  0  0  0  0  0
    4.4566   -3.4727    0.0000 O   0  0  0  0  0  0  0  0  0  0  0  0
    4.4566   -1.8227    0.0000 O   0  0  0  0  0  0  0  0  0  0  0  0
    3.7421   -2.2352    0.0000 C   0  0  0  0  0  0  0  0  0  0  0  0
    3.7421   -3.0602    0.0000 C   0  0  0  0  0  0  0  0  0  0  0  0
    3.0277   -3.4727    0.0000 C   0  0  0  0  0  0  0  0  0  0  0  0
    2.3132   -3.0602    0.0000 C   0  0  0  0  0  0  0  0  0  0  0  0
    2.3132   -2.2352    0.0000 C   0  0  0  0  0  0  0  0  0  0  0  0
    3.0277   -1.8227    0.0000 C   0  0  0  0  0  0  0  0  0  0  0  0
    7.3145   -1.8227    0.0000 C   0  0  0  0  0  0  0  0  0  0  0  0
    8.0290   -2.2352    0.0000 O   0  0  0  0  0  0  0  0  0  0  0  0
  1  2  1  0  0  0  0
  2  3  1  0  0  0  0
  3  4  1  0  0  0  0
  4  5  1  0  0  0  0
  5  6  1  0  0  0  0
  1  6  1  0  0  0  0
  3  7  1  1  0  0  0
  4  8  1  6  0  0  0
  5  9  1  1  0  0  0
 11 12  1  0  0  0  0
 12 13  2  0  0  0  0
 13 14  1  0  0  0  0
 14 15  2  0  0  0  0
 15 16  1  0  0  0  0
 11 16  2  0  0  0  0
 10 11  1  0  0  0  0
  6 10  1  6  0  0  0
 17 18  1  0  0  0  0
  2 17  1  6  0  0  0
M  END
>  <cdx:groupId>
57

>  <cdx:fragmentId>
5

$$$$
