65090.cdx
  Mrv1902 05222410202D          

 15 17  0  0  0  0            999 V2000
    3.2639   -3.3135    0.0000 C   0  0  0  0  0  0  0  0  0  0  0  0
    3.2639   -4.1385    0.0000 C   0  0  0  0  0  0  0  0  0  0  0  0
    3.9784   -4.5510    0.0000 C   0  0  0  0  0  0  0  0  0  0  0  0
    4.6928   -4.1385    0.0000 C   0  0  0  0  0  0  0  0  0  0  0  0
    5.4073   -4.5510    0.0000 C   0  0  0  0  0  0  0  0  0  0  0  0
    6.1218   -4.1385    0.0000 C   0  0  0  0  0  0  0  0  0  0  0  0
    6.1218   -3.3135    0.0000 C   0  0  0  0  0  0  0  0  0  0  0  0
    5.4073   -2.9010    0.0000 C   0  0  0  0  0  0  0  0  0  0  0  0
    4.6928   -3.3135    0.0000 C   0  0  0  0  0  0  0  0  0  0  0  0
    3.9784   -2.9010    0.0000 O   0  0  0  0  0  0  0  0  0  0  0  0
    6.9064   -3.0585    0.0000 O   0  0  0  0  0  0  0  0  0  0  0  0
    6.9064   -4.3934    0.0000 C   0  0  0  0  0  0  0  0  0  0  0  0
    7.3913   -3.7260    0.0000 C   0  0  0  0  0  0  0  0  0  0  0  0
    2.5494   -2.9010    0.0000 O   0  0  0  0  0  0  0  0  0  0  0  0
    5.4073   -2.0760    0.0000 O   0  0  0  0  0  0  0  0  0  0  0  0
  1  2  1  0  0  0  0
  2  3  2  0  0  0  0
  3  4  1  0  0  0  0
  4  5  2  0  0  0  0
  5  6  1  0  0  0  0
  6  7  2  0  0  0  0
  7  8  1  0  0  0  0
  8  9  2  0  0  0  0
  4  9  1  0  0  0  0
  9 10  1  0  0  0  0
  1 10  1  0  0  0  0
 12 13  2  0  0  0  0
 11 13  1  0  0  0  0
 12  6  1  0  0  0  0
 11  7  1  0  0  0  0
  1 14  2  0  0  0  0
  8 15  1  0  0  0  0
M  END
>  <cdx:groupId>
49

>  <cdx:fragmentId>
5

$$$$
