6511.cdx
  Mrv1902 05222410182D          

 23 24  0  0  0  0            999 V2000
    8.0305   -6.3800    0.0000 C   0  0  2  0  0  0  0  0  0  0  0  0
    8.0305   -7.2050    0.0000 C   0  0  2  0  0  0  0  0  0  0  0  0
    8.7450   -7.6175    0.0000 C   0  0  1  0  0  0  0  0  0  0  0  0
    9.4595   -7.2050    0.0000 C   0  0  2  0  0  0  0  0  0  0  0  0
    9.4595   -6.3800    0.0000 C   0  0  1  0  0  0  0  0  0  0  0  0
    8.7450   -5.9675    0.0000 O   0  0  0  0  0  0  0  0  0  0  0  0
   10.1739   -5.9675    0.0000 O   0  0  0  0  0  0  0  0  0  0  0  0
    7.3161   -5.9675    0.0000 C   0  0  0  0  0  0  0  0  0  0  0  0
    8.7450   -8.4425    0.0000 O   0  0  0  0  0  0  0  0  0  0  0  0
   10.1739   -7.6175    0.0000 O   0  0  0  0  0  0  0  0  0  0  0  0
    7.3161   -7.6175    0.0000 O   0  0  0  0  0  0  0  0  0  0  0  0
    6.6016   -6.3800    0.0000 O   0  0  0  0  0  0  0  0  0  0  0  0
    5.8871   -5.9675    0.0000 C   0  0  0  0  0  0  0  0  0  0  0  0
    5.1726   -6.3800    0.0000 C   0  0  0  0  0  0  0  0  0  0  0  0
    5.8871   -5.1425    0.0000 O   0  0  0  0  0  0  0  0  0  0  0  0
    4.4582   -5.9675    0.0000 C   0  0  0  0  0  0  0  0  0  0  0  0
    3.7437   -6.3800    0.0000 C   0  0  0  0  0  0  0  0  0  0  0  0
    3.7437   -7.2050    0.0000 C   0  0  0  0  0  0  0  0  0  0  0  0
    4.4582   -7.6175    0.0000 C   0  0  0  0  0  0  0  0  0  0  0  0
    5.1726   -7.2050    0.0000 C   0  0  0  0  0  0  0  0  0  0  0  0
    3.0292   -5.9675    0.0000 O   0  0  0  0  0  0  0  0  0  0  0  0
    3.0292   -7.6175    0.0000 O   0  0  0  0  0  0  0  0  0  0  0  0
    4.4582   -8.4425    0.0000 O   0  0  0  0  0  0  0  0  0  0  0  0
  1  2  1  0  0  0  0
  2  3  1  0  0  0  0
  3  4  1  0  0  0  0
  4  5  1  0  0  0  0
  5  6  1  0  0  0  0
  6  1  1  0  0  0  0
  5  7  1  1  0  0  0
  1  8  1  1  0  0  0
  3  9  1  1  0  0  0
  4 10  1  6  0  0  0
  2 11  1  6  0  0  0
  8 12  1  0  0  0  0
 12 13  1  0  0  0  0
 13 14  1  0  0  0  0
 13 15  2  0  0  0  0
 14 16  2  0  0  0  0
 16 17  1  0  0  0  0
 17 18  2  0  0  0  0
 18 19  1  0  0  0  0
 19 20  2  0  0  0  0
 20 14  1  0  0  0  0
 17 21  1  0  0  0  0
 18 22  1  0  0  0  0
 19 23  1  0  0  0  0
M  END
>  <cdx:fragmentId>
269

$$$$
