65126.cdx
  Mrv1902 05222410202D          

 25 27  0  0  0  0            999 V2000
    6.8927   -8.7410    0.0000 H   0  0  0  0  0  0  0  0  0  0  0  0
    6.8377   -5.4279    0.0000 O   0  0  0  0  0  0  0  0  0  0  0  0
    8.2430   -4.5896    0.0000 O   0  0  0  0  0  0  0  0  0  0  0  0
    6.5965   -9.0486    0.0000 C   0  0  0  0  0  0  0  0  0  0  0  0
    5.7717   -9.0643    0.0000 C   0  0  0  0  0  0  0  0  0  0  0  0
    9.6717   -4.5624    0.0000 C   0  0  0  0  0  0  0  0  0  0  0  0
    9.6874   -5.3873    0.0000 C   0  0  0  0  0  0  0  0  0  0  0  0
   10.4095   -5.7861    0.0000 C   0  0  0  0  0  0  0  0  0  0  0  0
    6.8770   -7.9161    0.0000 C   0  0  2  0  0  0  0  0  0  0  0  0
    7.5992   -8.3150    0.0000 C   0  0  0  0  0  0  0  0  0  0  0  0
    8.3057   -7.8890    0.0000 C   0  0  0  0  0  0  0  0  0  0  0  0
    8.2900   -7.0641    0.0000 C   0  0  0  0  0  0  0  0  0  0  0  0
    8.9965   -6.6381    0.0000 C   0  0  0  0  0  0  0  0  0  0  0  0
    8.9809   -5.8133    0.0000 C   0  0  0  0  0  0  0  0  0  0  0  0
    8.2587   -5.4144    0.0000 C   0  0  0  0  0  0  0  0  0  0  0  0
    7.5522   -5.8404    0.0000 C   0  0  0  0  0  0  0  0  0  0  0  0
    7.5678   -6.6653    0.0000 C   0  0  0  0  0  0  0  0  0  0  0  0
    6.8613   -7.0913    0.0000 C   0  0  1  0  0  0  0  0  0  0  0  0
    6.1392   -6.6924    0.0000 C   0  0  0  0  0  0  0  0  0  0  0  0
    5.4327   -7.1184    0.0000 C   0  0  0  0  0  0  0  0  0  0  0  0
    5.4483   -7.9433    0.0000 C   0  0  0  0  0  0  0  0  0  0  0  0
    6.1705   -8.3421    0.0000 C   0  0  0  0  0  0  0  0  0  0  0  0
    6.8457   -6.2664    0.0000 C   0  0  0  0  0  0  0  0  0  0  0  0
    6.1235   -5.8676    0.0000 O   0  0  0  0  0  0  0  0  0  0  0  0
    7.4290   -5.6831    0.0000 O   0  0  0  0  0  0  0  0  0  0  0  0
  9  1  1  6  0  0  0
 16  2  1  0  0  0  0
 15  3  1  0  0  0  0
 22  4  1  0  0  0  0
 22  5  1  0  0  0  0
 14  7  1  0  0  0  0
  7  6  1  0  0  0  0
  8  7  1  0  0  0  0
 18  9  1  0  0  0  0
 22  9  1  0  0  0  0
 10  9  1  0  0  0  0
 11 10  1  0  0  0  0
 12 11  1  0  0  0  0
 17 12  2  0  0  0  0
 13 12  1  0  0  0  0
 14 13  2  0  0  0  0
 15 14  1  0  0  0  0
 16 15  2  0  0  0  0
 17 16  1  0  0  0  0
 18 17  1  0  0  0  0
 19 18  1  0  0  0  0
 20 19  1  0  0  0  0
 21 20  1  0  0  0  0
 22 21  1  0  0  0  0
 18 23  1  1  0  0  0
 23 24  1  0  0  0  0
 23 25  2  0  0  0  0
M  END
>  <cdx:fragmentId>
5

$$$$
