10651612.cdx
  Mrv1902 05222410232D          

 48 54  0  0  0  0            999 V2000
   17.7893   -8.2406    0.0000 C   0  0  0  0  0  0  0  0  0  0  0  0
   17.0748   -7.8281    0.0000 C   0  0  0  0  0  0  0  0  0  0  0  0
   16.3604   -8.2406    0.0000 C   0  0  0  0  0  0  0  0  0  0  0  0
   16.3604   -9.0656    0.0000 C   0  0  0  0  0  0  0  0  0  0  0  0
   17.7893   -9.0656    0.0000 O   0  0  0  0  0  0  0  0  0  0  0  0
   18.5038   -7.8281    0.0000 O   0  0  0  0  0  0  0  0  0  0  0  0
   17.0748   -7.0031    0.0000 C   0  0  0  0  0  0  0  0  0  0  0  0
   14.4465   -9.2231    0.0000 C   0  0  2  0  0  0  0  0  0  0  0  0
   14.9314   -9.8906    0.0000 C   0  0  2  0  0  0  0  0  0  0  0  0
   14.2170   -9.4781    0.0000 O   0  0  0  0  0  0  0  0  0  0  0  0
   13.5025   -9.8906    0.0000 C   0  0  0  0  0  0  0  0  0  0  0  0
   12.7880   -9.4781    0.0000 C   0  0  0  0  0  0  0  0  0  0  0  0
   12.0735   -9.8906    0.0000 C   0  0  0  0  0  0  0  0  0  0  0  0
   11.3591   -9.4781    0.0000 O   0  0  0  0  0  0  0  0  0  0  0  0
   10.6446   -9.8906    0.0000 C   0  0  0  0  0  0  0  0  0  0  0  0
    9.9556  -10.3057    0.0000 C   0  0  0  0  0  0  0  0  0  0  0  0
    9.9606  -11.1100    0.0000 C   0  0  0  0  0  0  0  0  0  0  0  0
   10.6547  -11.5166    0.0000 C   0  0  0  0  0  0  0  0  0  0  0  0
   11.3591  -11.1281    0.0000 C   0  0  0  0  0  0  0  0  0  0  0  0
   12.0735  -10.7156    0.0000 C   0  0  0  0  0  0  0  0  0  0  0  0
   12.7880  -11.1281    0.0000 C   0  0  0  0  0  0  0  0  0  0  0  0
   13.5025  -10.7156    0.0000 C   0  0  0  0  0  0  0  0  0  0  0  0
   14.2170  -11.1281    0.0000 C   0  0  0  0  0  0  0  0  0  0  0  0
   14.9314  -10.7156    0.0000 C   0  0  0  0  0  0  0  0  0  0  0  0
   15.6459  -11.1281    0.0000 C   0  0  0  0  0  0  0  0  0  0  0  0
   16.3604  -10.7156    0.0000 C   0  0  1  0  0  0  0  0  0  0  0  0
   16.3604   -9.8906    0.0000 C   0  0  0  0  0  0  0  0  0  0  0  0
   15.6459   -9.4781    0.0000 C   0  0  1  0  0  0  0  0  0  0  0  0
   15.6162   -8.6536    0.0000 O   0  0  0  0  0  0  0  0  0  0  0  0
   14.8092   -8.4821    0.0000 C   0  0  0  0  0  0  0  0  0  0  0  0
   15.3095   -9.2043    0.0000 C   0  0  0  0  0  0  0  0  0  0  0  0
   10.6446  -10.7156    0.0000 C   0  0  0  0  0  0  0  0  0  0  0  0
   11.3692  -12.7541    0.0000 C   0  0  0  0  0  0  0  0  0  0  0  0
   10.6547  -12.3416    0.0000 C   0  0  0  0  0  0  0  0  0  0  0  0
    9.9402  -12.7541    0.0000 C   0  0  0  0  0  0  0  0  0  0  0  0
   17.0748   -9.4781    0.0000 O   0  0  0  0  0  0  0  0  0  0  0  0
   14.2170  -11.9531    0.0000 O   0  0  0  0  0  0  0  0  0  0  0  0
   12.7880   -8.6531    0.0000 C   0  0  0  0  0  0  0  0  0  0  0  0
   12.0735   -8.2406    0.0000 C   0  0  0  0  0  0  0  0  0  0  0  0
   12.0735   -7.4156    0.0000 C   0  0  0  0  0  0  0  0  0  0  0  0
   12.7880   -7.0031    0.0000 C   0  0  0  0  0  0  0  0  0  0  0  0
   11.3591   -7.0031    0.0000 C   0  0  0  0  0  0  0  0  0  0  0  0
   14.0948   -8.0696    0.0000 C   0  0  0  0  0  0  0  0  0  0  0  0
   14.8092   -7.6571    0.0000 C   0  0  0  0  0  0  0  0  0  0  0  0
   10.2321   -9.1761    0.0000 C   0  0  0  0  0  0  0  0  0  0  0  0
   12.7880  -11.9531    0.0000 O   0  0  0  0  0  0  0  0  0  0  0  0
   13.8145   -8.6928    0.0000 H   0  0  0  0  0  0  0  0  0  0  0  0
   17.0748  -11.1281    0.0000 H   0  0  0  0  0  0  0  0  0  0  0  0
  1  2  1  0  0  0  0
  2  3  2  0  0  0  0
  3  4  1  0  0  0  0
  1  5  2  0  0  0  0
  1  6  1  0  0  0  0
  2  7  1  0  0  0  0
  8  9  1  0  0  0  0
  9 10  1  6  0  0  0
 10 11  1  0  0  0  0
 11 12  1  0  0  0  0
 12 13  2  0  0  0  0
 13 14  1  0  0  0  0
 14 15  1  0  0  0  0
 15 16  1  0  0  0  0
 16 17  1  0  0  0  0
 17 18  1  0  0  0  0
 18 19  1  0  0  0  0
 19 20  1  0  0  0  0
 20 21  2  0  0  0  0
 21 22  1  0  0  0  0
 22 23  1  0  0  0  0
 23 24  1  0  0  0  0
 24 25  2  0  0  0  0
 25 26  1  0  0  0  0
 26 27  1  0  0  0  0
 27 28  1  0  0  0  0
 28 29  1  0  0  0  0
 29 30  1  0  0  0  0
  8 30  1  0  0  0  0
  8 31  1  1  0  0  0
 26 31  1  1  0  0  0
  9 28  1  0  0  0  0
  9 24  1  0  0  0  0
 11 22  2  0  0  0  0
 13 20  1  0  0  0  0
 19 32  1  0  0  0  0
 32 15  1  0  0  0  0
 33 34  2  0  0  0  0
 34 35  1  0  0  0  0
 18 34  1  0  0  0  0
 27 36  2  0  0  0  0
 23 37  2  0  0  0  0
 38 39  1  0  0  0  0
 39 40  2  0  0  0  0
 40 41  1  0  0  0  0
 40 42  1  0  0  0  0
 12 38  1  0  0  0  0
 30 43  1  0  0  0  0
 30 44  1  0  0  0  0
 15 45  1  0  0  0  0
 21 46  1  0  0  0  0
 28  4  1  6  0  0  0
  8 47  1  0  0  0  0
 26 48  1  0  0  0  0
M  END
>  <cdx:groupId>
10789

>  <cdx:fragmentId>
10656

$$$$
