651847.cdx
  Mrv1902 05222410282D          

 17 18  0  0  0  0            999 V2000
    6.5462   -5.7790    0.0000 C   0  0  0  0  0  0  0  0  0  0  0  0
    5.8348   -6.1968    0.0000 C   0  0  0  0  0  0  0  0  0  0  0  0
    5.8408   -7.0217    0.0000 C   0  0  0  0  0  0  0  0  0  0  0  0
    5.1294   -7.4395    0.0000 C   0  0  0  0  0  0  0  0  0  0  0  0
    4.4119   -7.0322    0.0000 C   0  0  0  0  0  0  0  0  0  0  0  0
    4.4059   -6.2072    0.0000 C   0  0  0  0  0  0  0  0  0  0  0  0
    5.1173   -5.7895    0.0000 C   0  0  0  0  0  0  0  0  0  0  0  0
    3.7005   -7.4499    0.0000 O   0  0  0  0  0  0  0  0  0  0  0  0
    7.2637   -6.1863    0.0000 S   0  0  0  0  0  0  0  0  0  0  0  0
    7.9751   -5.7686    0.0000 C   0  0  0  0  0  0  0  0  0  0  0  0
    8.6926   -6.1759    0.0000 C   0  0  0  0  0  0  0  0  0  0  0  0
    8.7016   -7.0008    0.0000 C   0  0  0  0  0  0  0  0  0  0  0  0
    9.4206   -7.4054    0.0000 C   0  0  0  0  0  0  0  0  0  0  0  0
   10.1305   -7.0008    0.0000 C   0  0  0  0  0  0  0  0  0  0  0  0
   10.1305   -6.1759    0.0000 C   0  0  0  0  0  0  0  0  0  0  0  0
    9.4206   -5.7712    0.0000 C   0  0  0  0  0  0  0  0  0  0  0  0
   10.8438   -7.4153    0.0000 O   0  0  0  0  0  0  0  0  0  0  0  0
  2  3  1  0  0  0  0
  3  4  2  0  0  0  0
  4  5  1  0  0  0  0
  5  6  2  0  0  0  0
  6  7  1  0  0  0  0
  2  7  2  0  0  0  0
  5  8  1  0  0  0  0
  1  2  1  0  0  0  0
  1  9  1  0  0  0  0
  9 10  1  0  0  0  0
 10 11  1  0  0  0  0
 11 12  2  0  0  0  0
 12 13  1  0  0  0  0
 13 14  2  0  0  0  0
 14 15  1  0  0  0  0
 15 16  2  0  0  0  0
 16 11  1  0  0  0  0
 14 17  1  0  0  0  0
M  END
>  <cdx:fragmentId>
144490

$$$$
