652156.cdx
  Mrv1902 05222410282D          

 37 40  0  0  0  0            999 V2000
    9.5360   -3.7294    0.0000 O   0  0  0  0  0  0  0  0  0  0  0  0
    9.7825   -4.5167    0.0000 C   0  0  0  0  0  0  0  0  0  0  0  0
    9.1098   -4.9944    0.0000 C   0  0  0  0  0  0  0  0  0  0  0  0
    8.4477   -4.5023    0.0000 C   0  0  1  0  0  0  0  0  0  0  0  0
    8.7111   -3.7205    0.0000 C   0  0  0  0  0  0  0  0  0  0  0  0
   10.5643   -4.7801    0.0000 O   0  0  0  0  0  0  0  0  0  0  0  0
    7.6603   -4.7488    0.0000 O   0  0  0  0  0  0  0  0  0  0  0  0
    9.1009   -5.8193    0.0000 C   0  0  0  0  0  0  0  0  0  0  0  0
    8.3821   -6.2241    0.0000 C   0  0  0  0  0  0  0  0  0  0  0  0
    8.3732   -7.0491    0.0000 C   0  0  2  0  0  0  0  0  0  0  0  0
    9.0832   -7.4692    0.0000 C   0  0  0  0  0  0  0  0  0  0  0  0
    9.0743   -8.2942    0.0000 C   0  0  0  0  0  0  0  0  0  0  0  0
    8.3554   -8.6990    0.0000 C   0  0  0  0  0  0  0  0  0  0  0  0
    7.6454   -8.2788    0.0000 C   0  0  2  0  0  0  0  0  0  0  0  0
    6.9265   -8.6836    0.0000 C   0  0  1  0  0  0  0  0  0  0  0  0
    6.2165   -8.2634    0.0000 C   0  0  1  0  0  0  0  0  0  0  0  0
    6.2254   -7.4384    0.0000 C   0  0  0  0  0  0  0  0  0  0  0  0
    6.9443   -7.0336    0.0000 C   0  0  0  0  0  0  0  0  0  0  0  0
    7.6543   -7.4538    0.0000 C   0  0  1  0  0  0  0  0  0  0  0  0
    6.9176   -9.5085    0.0000 C   0  0  0  0  0  0  0  0  0  0  0  0
    6.1987   -9.9133    0.0000 O   0  0  0  0  0  0  0  0  0  0  0  0
    5.4768  -11.1464    0.0000 O   0  0  0  0  0  0  0  0  0  0  0  0
    6.1937  -10.7383    0.0000 C   0  0  2  0  0  0  0  0  0  0  0  0
    6.9057  -11.1551    0.0000 C   0  0  1  0  0  0  0  0  0  0  0  0
    6.9007  -11.9801    0.0000 C   0  0  2  0  0  0  0  0  0  0  0  0
    6.1837  -12.3882    0.0000 C   0  0  1  0  0  0  0  0  0  0  0  0
    5.4718  -11.9714    0.0000 C   0  0  1  0  0  0  0  0  0  0  0  0
    4.7548  -12.3796    0.0000 C   0  0  0  0  0  0  0  0  0  0  0  0
    4.7548  -13.2046    0.0000 O   0  0  0  0  0  0  0  0  0  0  0  0
    6.1787  -13.2132    0.0000 O   0  0  0  0  0  0  0  0  0  0  0  0
    7.6127  -12.3969    0.0000 O   0  0  0  0  0  0  0  0  0  0  0  0
    7.6227  -10.7469    0.0000 O   0  0  0  0  0  0  0  0  0  0  0  0
    9.8020   -7.0645    0.0000 C   0  0  0  0  0  0  0  0  0  0  0  0
    7.6632   -6.6289    0.0000 C   0  0  0  0  0  0  0  0  0  0  0  0
    6.2076   -9.0883    0.0000 C   0  0  0  0  0  0  0  0  0  0  0  0
    5.4977   -8.6681    0.0000 O   0  0  0  0  0  0  0  0  0  0  0  0
    7.6365   -9.1037    0.0000 H   0  0  0  0  0  0  0  0  0  0  0  0
  1  2  1  0  0  0  0
  2  3  1  0  0  0  0
  3  4  1  0  0  0  0
  4  5  1  0  0  0  0
  1  5  1  0  0  0  0
  2  6  2  0  0  0  0
  4  7  1  6  0  0  0
  8  9  1  0  0  0  0
 10 11  1  0  0  0  0
 11 12  1  0  0  0  0
 12 13  1  0  0  0  0
 13 14  1  0  0  0  0
 14 15  1  0  0  0  0
 15 16  1  0  0  0  0
 16 17  1  0  0  0  0
 17 18  1  0  0  0  0
 18 19  1  0  0  0  0
 10 19  1  0  0  0  0
 14 19  1  0  0  0  0
 22 23  1  0  0  0  0
 23 24  1  0  0  0  0
 24 25  1  0  0  0  0
 25 26  1  0  0  0  0
 26 27  1  0  0  0  0
 22 27  1  0  0  0  0
 28 29  1  0  0  0  0
 27 28  1  1  0  0  0
 26 30  1  6  0  0  0
 25 31  1  1  0  0  0
 24 32  1  6  0  0  0
 23 21  1  1  0  0  0
 20 21  1  0  0  0  0
 15 20  1  0  0  0  0
 11 33  2  0  0  0  0
 19 34  1  6  0  0  0
 15 35  1  1  0  0  0
 16 36  1  6  0  0  0
 10  9  1  6  0  0  0
  3  8  2  0  0  0  0
 14 37  1  1  0  0  0
M  END
>  <cdx:fragmentId>
47

$$$$
