65252.cdx
  Mrv1902 05222410192D          

 32 35  0  0  0  0            999 V2000
    3.6971   -5.4583    0.0000 C   0  0  0  0  0  0  0  0  0  0  0  0
    2.9826   -5.8708    0.0000 C   0  0  0  0  0  0  0  0  0  0  0  0
    2.9826   -6.6958    0.0000 C   0  0  1  0  0  0  0  0  0  0  0  0
    3.6971   -7.1083    0.0000 C   0  0  2  0  0  0  0  0  0  0  0  0
    4.4116   -6.6958    0.0000 C   0  0  2  0  0  0  0  0  0  0  0  0
    5.1260   -7.1083    0.0000 C   0  0  0  0  0  0  0  0  0  0  0  0
    5.8405   -6.6958    0.0000 C   0  0  0  0  0  0  0  0  0  0  0  0
    5.8405   -5.8708    0.0000 C   0  0  0  0  0  0  0  0  0  0  0  0
    6.5550   -5.4583    0.0000 C   0  0  2  0  0  0  0  0  0  0  0  0
    7.3396   -5.7133    0.0000 C   0  0  0  0  0  0  0  0  0  0  0  0
    7.8245   -5.0458    0.0000 C   0  0  0  0  0  0  0  0  0  0  0  0
    7.3396   -4.3784    0.0000 C   0  0  1  0  0  0  0  0  0  0  0  0
    6.5550   -4.6333    0.0000 C   0  0  1  0  0  0  0  0  0  0  0  0
    5.8405   -4.2208    0.0000 C   0  0  0  0  0  0  0  0  0  0  0  0
    5.1260   -4.6333    0.0000 C   0  0  0  0  0  0  0  0  0  0  0  0
    5.1260   -5.4583    0.0000 C   0  0  0  0  0  0  0  0  0  0  0  0
    4.4116   -5.8708    0.0000 C   0  0  1  0  0  0  0  0  0  0  0  0
    2.2682   -7.1083    0.0000 O   0  0  0  0  0  0  0  0  0  0  0  0
    7.0425   -2.9807    0.0000 C   0  0  0  0  0  0  0  0  0  0  0  0
    7.5945   -3.5938    0.0000 C   0  0  2  0  0  0  0  0  0  0  0  0
    8.4015   -3.4222    0.0000 C   0  0  0  0  0  0  0  0  0  0  0  0
    8.6565   -2.6376    0.0000 C   0  0  0  0  0  0  0  0  0  0  0  0
    9.4634   -2.4661    0.0000 C   0  0  0  0  0  0  0  0  0  0  0  0
    9.7184   -1.6815    0.0000 C   0  0  0  0  0  0  0  0  0  0  0  0
    9.1663   -1.0684    0.0000 C   0  0  0  0  0  0  0  0  0  0  0  0
   10.0155   -3.0792    0.0000 C   0  0  0  0  0  0  0  0  0  0  0  0
   10.5253   -1.5099    0.0000 C   0  0  0  0  0  0  0  0  0  0  0  0
    6.6412   -6.2788    0.0000 C   0  0  0  0  0  0  0  0  0  0  0  0
    6.6412   -3.8128    0.0000 C   0  0  0  0  0  0  0  0  0  0  0  0
    4.4116   -5.0458    0.0000 C   0  0  0  0  0  0  0  0  0  0  0  0
    3.6971   -7.9333    0.0000 C   0  0  0  0  0  0  0  0  0  0  0  0
    4.4116   -7.5208    0.0000 H   0  0  0  0  0  0  0  0  0  0  0  0
  1  2  1  0  0  0  0
  2  3  1  0  0  0  0
  3  4  1  0  0  0  0
  4  5  1  0  0  0  0
  5  6  1  0  0  0  0
  6  7  1  0  0  0  0
  7  8  1  0  0  0  0
  8  9  1  0  0  0  0
  9 10  1  0  0  0  0
 10 11  1  0  0  0  0
 12 11  1  1  0  0  0
 12 13  1  0  0  0  0
  9 13  1  0  0  0  0
 13 14  1  0  0  0  0
 14 15  1  0  0  0  0
 15 16  1  0  0  0  0
  8 16  2  0  0  0  0
 16 17  1  0  0  0  0
  5 17  1  0  0  0  0
  1 17  1  0  0  0  0
  3 18  1  1  0  0  0
 20 19  1  6  0  0  0
 20 21  1  0  0  0  0
 21 22  1  0  0  0  0
 22 23  1  0  0  0  0
 23 24  1  0  0  0  0
 24 25  1  0  0  0  0
 23 26  2  0  0  0  0
 24 27  1  0  0  0  0
 12 20  1  0  0  0  0
  9 28  1  6  0  0  0
 13 29  1  1  0  0  0
 17 30  1  1  0  0  0
  4 31  1  6  0  0  0
  5 32  1  6  0  0  0
M  END
>  <cdx:groupId>
101

>  <cdx:fragmentId>
5

$$$$
