65269.cdx
  Mrv1902 05222410182D          

 19 21  0  0  0  0            999 V2000
    5.5101   -2.0301    0.0000 C   0  0  1  0  0  0  0  0  0  0  0  0
    5.0252   -2.6976    0.0000 C   0  0  2  0  0  0  0  0  0  0  0  0
    5.5101   -3.3650    0.0000 C   0  0  1  0  0  0  0  0  0  0  0  0
    6.2947   -3.1101    0.0000 C   0  0  0  0  0  0  0  0  0  0  0  0
    6.2947   -2.2851    0.0000 C   0  0  2  0  0  0  0  0  0  0  0  0
    5.2551   -1.2455    0.0000 O   0  0  0  0  0  0  0  0  0  0  0  0
    4.2002   -2.6976    0.0000 O   0  0  0  0  0  0  0  0  0  0  0  0
    6.9621   -1.8002    0.0000 C   0  0  0  0  0  0  0  0  0  0  0  0
    7.7158   -2.1357    0.0000 O   0  0  0  0  0  0  0  0  0  0  0  0
    5.2551   -5.4845    0.0000 N   0  0  0  0  0  0  0  0  0  0  0  0
    5.7401   -4.8171    0.0000 C   0  0  0  0  0  0  0  0  0  0  0  0
    5.2551   -4.1496    0.0000 N   0  0  0  0  0  0  0  0  0  0  0  0
    4.4705   -4.4046    0.0000 C   0  0  0  0  0  0  0  0  0  0  0  0
    3.7561   -3.9921    0.0000 N   0  0  0  0  0  0  0  0  0  0  0  0
    3.0416   -4.4046    0.0000 C   0  0  0  0  0  0  0  0  0  0  0  0
    3.0416   -5.2296    0.0000 N   0  0  0  0  0  0  0  0  0  0  0  0
    3.7561   -5.6421    0.0000 C   0  0  0  0  0  0  0  0  0  0  0  0
    4.4705   -5.2296    0.0000 C   0  0  0  0  0  0  0  0  0  0  0  0
    3.7561   -6.4671    0.0000 N   0  0  0  0  0  0  0  0  0  0  0  0
  1  2  1  0  0  0  0
  2  3  1  0  0  0  0
  3  4  1  0  0  0  0
  4  5  1  0  0  0  0
  1  5  1  0  0  0  0
  1  6  1  6  0  0  0
  2  7  1  6  0  0  0
  8  9  1  0  0  0  0
  5  8  1  1  0  0  0
 10 11  2  0  0  0  0
 11 12  1  0  0  0  0
 12 13  1  0  0  0  0
 13 14  2  0  0  0  0
 14 15  1  0  0  0  0
 15 16  2  0  0  0  0
 16 17  1  0  0  0  0
 17 18  2  0  0  0  0
 10 18  1  0  0  0  0
 13 18  1  0  0  0  0
 17 19  1  0  0  0  0
  3 12  1  1  0  0  0
M  END
>  <cdx:groupId>
61

>  <cdx:fragmentId>
23

$$$$
