65289.cdx
  Mrv1902 05222410262D          

 11 11  0  0  0  0            999 V2000
    6.5274   -3.7241    0.0000 C   0  0  0  0  0  0  0  0  0  0  0  0
    6.9168   -6.9134    0.0000 C   0  0  0  0  0  0  0  0  0  0  0  0
    6.2216   -4.8443    0.0000 C   0  0  0  0  0  0  0  0  0  0  0  0
    6.2139   -5.6693    0.0000 C   0  0  0  0  0  0  0  0  0  0  0  0
    6.9245   -6.0885    0.0000 C   0  0  0  0  0  0  0  0  0  0  0  0
    7.6428   -5.6827    0.0000 C   0  0  0  0  0  0  0  0  0  0  0  0
    7.6505   -4.8577    0.0000 C   0  0  0  0  0  0  0  0  0  0  0  0
    6.9399   -4.4385    0.0000 C   0  0  0  0  0  0  0  0  0  0  0  0
    7.3524   -3.7241    0.0000 C   0  0  0  0  0  0  0  0  0  0  0  0
    6.9399   -3.0096    0.0000 O   0  0  0  0  0  0  0  0  0  0  0  0
    8.1774   -3.7241    0.0000 C   0  0  0  0  0  0  0  0  0  0  0  0
  8  1  1  0  0  0  0
  5  2  1  0  0  0  0
  8  3  1  0  0  0  0
  4  3  1  0  0  0  0
  5  4  1  0  0  0  0
  6  5  2  0  0  0  0
  7  6  1  0  0  0  0
  8  7  1  0  0  0  0
  8  9  1  0  0  0  0
  9 10  2  0  0  0  0
  9 11  1  0  0  0  0
M  END
>  <cdx:fragmentId>
9

$$$$
