653327.cdx
  Mrv1902 05222410192D          

 38 42  0  0  0  0            999 V2000
    9.0119   -5.5660    0.0000 C   0  0  0  0  0  0  0  0  0  0  0  0
    9.7264   -5.1535    0.0000 C   0  0  0  0  0  0  0  0  0  0  0  0
   10.4409   -5.5660    0.0000 C   0  0  0  0  0  0  0  0  0  0  0  0
   10.4409   -6.3910    0.0000 C   0  0  0  0  0  0  0  0  0  0  0  0
    9.7264   -6.8035    0.0000 C   0  0  2  0  0  0  0  0  0  0  0  0
    9.7264   -7.6285    0.0000 C   0  0  0  0  0  0  0  0  0  0  0  0
    9.0119   -8.0410    0.0000 C   0  0  0  0  0  0  0  0  0  0  0  0
    8.2975   -7.6285    0.0000 C   0  0  1  0  0  0  0  0  0  0  0  0
    7.5830   -8.0410    0.0000 C   0  0  2  0  0  0  0  0  0  0  0  0
    7.5830   -8.8660    0.0000 C   0  0  0  0  0  0  0  0  0  0  0  0
    6.8685   -9.2785    0.0000 C   0  0  0  0  0  0  0  0  0  0  0  0
    6.1541   -8.8660    0.0000 C   0  0  1  0  0  0  0  0  0  0  0  0
    5.4396   -9.2785    0.0000 C   0  0  0  0  0  0  0  0  0  0  0  0
    4.7251   -8.8660    0.0000 C   0  0  2  0  0  0  0  0  0  0  0  0
    4.7251   -8.0410    0.0000 C   0  0  1  0  0  0  0  0  0  0  0  0
    5.4396   -7.6285    0.0000 C   0  0  0  0  0  0  0  0  0  0  0  0
    6.1541   -8.0410    0.0000 C   0  0  2  0  0  0  0  0  0  0  0  0
    6.8685   -7.6285    0.0000 C   0  0  1  0  0  0  0  0  0  0  0  0
    6.8685   -6.8035    0.0000 C   0  0  0  0  0  0  0  0  0  0  0  0
    7.5830   -6.3910    0.0000 C   0  0  0  0  0  0  0  0  0  0  0  0
    8.2975   -6.8035    0.0000 C   0  0  0  0  0  0  0  0  0  0  0  0
    9.0119   -6.3910    0.0000 C   0  0  2  0  0  0  0  0  0  0  0  0
   10.4409   -7.2160    0.0000 C   0  0  0  0  0  0  0  0  0  0  0  0
   10.4409   -8.0410    0.0000 O   0  0  0  0  0  0  0  0  0  0  0  0
   11.1554   -6.8035    0.0000 O   0  0  0  0  0  0  0  0  0  0  0  0
    5.8521   -9.9930    0.0000 C   0  0  0  0  0  0  0  0  0  0  0  0
    5.0271   -9.9930    0.0000 C   0  0  0  0  0  0  0  0  0  0  0  0
    9.3139   -4.4390    0.0000 C   0  0  0  0  0  0  0  0  0  0  0  0
   10.1389   -4.4390    0.0000 C   0  0  0  0  0  0  0  0  0  0  0  0
    4.0106   -7.6285    0.0000 O   0  0  0  0  0  0  0  0  0  0  0  0
    4.0106   -9.2785    0.0000 O   0  0  0  0  0  0  0  0  0  0  0  0
    6.1541   -9.6910    0.0000 H   0  0  0  0  0  0  0  0  0  0  0  0
    9.0119   -7.2160    0.0000 H   0  0  0  0  0  0  0  0  0  0  0  0
   11.8698   -7.2160    0.0000 C   0  0  0  0  0  0  0  0  0  0  0  0
    6.1541   -7.2160    0.0000 C   0  0  0  0  0  0  0  0  0  0  0  0
    7.5830   -7.2160    0.0000 C   0  0  0  0  0  0  0  0  0  0  0  0
    8.2975   -8.4535    0.0000 C   0  0  0  0  0  0  0  0  0  0  0  0
    6.8685   -8.4535    0.0000 H   0  0  0  0  0  0  0  0  0  0  0  0
  1  2  1  0  0  0  0
  2  3  1  0  0  0  0
  3  4  1  0  0  0  0
  4  5  1  0  0  0  0
  5  6  1  0  0  0  0
  6  7  1  0  0  0  0
  7  8  1  0  0  0  0
  8  9  1  0  0  0  0
  9 10  1  0  0  0  0
 10 11  1  0  0  0  0
 11 12  1  0  0  0  0
 12 13  1  0  0  0  0
 13 14  1  0  0  0  0
 14 15  1  0  0  0  0
 15 16  1  0  0  0  0
 16 17  1  0  0  0  0
 12 17  1  0  0  0  0
 17 18  1  0  0  0  0
  9 18  1  0  0  0  0
 18 19  1  0  0  0  0
 19 20  1  0  0  0  0
 20 21  2  0  0  0  0
  8 21  1  0  0  0  0
 21 22  1  0  0  0  0
  5 22  1  0  0  0  0
  1 22  1  0  0  0  0
 23 24  2  0  0  0  0
 23 25  1  0  0  0  0
  5 23  1  1  0  0  0
 13 26  1  0  0  0  0
 13 27  1  0  0  0  0
  2 28  1  0  0  0  0
  2 29  1  0  0  0  0
 15 30  1  6  0  0  0
 14 31  1  1  0  0  0
 12 32  1  6  0  0  0
 22 33  1  1  0  0  0
 25 34  1  0  0  0  0
 17 35  1  1  0  0  0
  9 36  1  1  0  0  0
  8 37  1  6  0  0  0
 18 38  1  6  0  0  0
M  END
>  <cdx:fragmentId>
95315

$$$$
