653313.cdx
  Mrv1902 05222410272D          

 26 30  0  0  0  0            999 V2000
    6.8314  -10.0402    0.0000 C   0  0  0  0  0  0  0  0  0  0  0  0
    6.0468  -10.2952    0.0000 O   0  0  0  0  0  0  0  0  0  0  0  0
    6.8634   -7.9057    0.0000 O   0  0  0  0  0  0  0  0  0  0  0  0
    6.4509   -8.6202    0.0000 C   0  0  2  0  0  0  0  0  0  0  0  0
    7.0030   -9.2333    0.0000 C   0  0  1  0  0  0  0  0  0  0  0  0
    7.7566   -8.8977    0.0000 C   0  0  1  0  0  0  0  0  0  0  0  0
    7.6704   -8.0772    0.0000 C   0  0  0  0  0  0  0  0  0  0  0  0
    8.4711   -9.3102    0.0000 C   0  0  0  0  0  0  0  0  0  0  0  0
   11.3991   -7.8178    0.0000 O   0  0  0  0  0  0  0  0  0  0  0  0
   11.8841   -8.4852    0.0000 C   0  0  0  0  0  0  0  0  0  0  0  0
   11.3991   -9.1527    0.0000 O   0  0  0  0  0  0  0  0  0  0  0  0
   10.6145   -8.8977    0.0000 C   0  0  0  0  0  0  0  0  0  0  0  0
   10.6145   -8.0727    0.0000 C   0  0  0  0  0  0  0  0  0  0  0  0
    9.9000   -9.3102    0.0000 C   0  0  0  0  0  0  0  0  0  0  0  0
    9.1856   -8.8977    0.0000 C   0  0  0  0  0  0  0  0  0  0  0  0
    9.1856   -8.0727    0.0000 C   0  0  0  0  0  0  0  0  0  0  0  0
    9.9000   -7.6602    0.0000 C   0  0  0  0  0  0  0  0  0  0  0  0
    3.1690   -8.7926    0.0000 O   0  0  0  0  0  0  0  0  0  0  0  0
    2.9975   -7.9857    0.0000 C   0  0  0  0  0  0  0  0  0  0  0  0
    3.7119   -7.5732    0.0000 O   0  0  0  0  0  0  0  0  0  0  0  0
    4.3250   -8.1252    0.0000 C   0  0  0  0  0  0  0  0  0  0  0  0
    3.9895   -8.8789    0.0000 C   0  0  0  0  0  0  0  0  0  0  0  0
    5.1455   -8.0390    0.0000 C   0  0  0  0  0  0  0  0  0  0  0  0
    5.6304   -8.7064    0.0000 C   0  0  0  0  0  0  0  0  0  0  0  0
    5.2949   -9.4601    0.0000 C   0  0  0  0  0  0  0  0  0  0  0  0
    4.4744   -9.5463    0.0000 C   0  0  0  0  0  0  0  0  0  0  0  0
  1  2  1  0  0  0  0
  3  4  1  0  0  0  0
  4  5  1  0  0  0  0
  5  6  1  0  0  0  0
  6  7  1  0  0  0  0
  3  7  1  0  0  0  0
  9 10  1  0  0  0  0
 10 11  1  0  0  0  0
 11 12  1  0  0  0  0
 12 13  1  0  0  0  0
  9 13  1  0  0  0  0
 14 15  1  0  0  0  0
 15 16  2  0  0  0  0
 16 17  1  0  0  0  0
 17 13  2  0  0  0  0
 14 12  2  0  0  0  0
  8 15  1  0  0  0  0
  6  8  1  1  0  0  0
 18 19  1  0  0  0  0
 19 20  1  0  0  0  0
 20 21  1  0  0  0  0
 21 22  1  0  0  0  0
 18 22  1  0  0  0  0
 23 24  1  0  0  0  0
 24 25  2  0  0  0  0
 25 26  1  0  0  0  0
 26 22  2  0  0  0  0
 23 21  2  0  0  0  0
  4 24  1  6  0  0  0
  5  1  1  1  0  0  0
M  END
>  <cdx:fragmentId>
332

$$$$
