6537￡ﾄﾒ￡ﾅﾪ￡ﾆﾨ￡ﾄﾋ￡ﾅﾵ￡ﾆﾫ.cdx
  Mrv1902 05222410272D          

 53 57  0  0  0  0            999 V2000
   10.6150   -9.7896    0.0000 C   0  0  1  0  0  0  0  0  0  0  0  0
   11.3295   -9.3771    0.0000 C   0  0  1  0  0  0  0  0  0  0  0  0
   11.3295   -8.5521    0.0000 C   0  0  1  0  0  0  0  0  0  0  0  0
   10.6150   -8.1396    0.0000 C   0  0  0  0  0  0  0  0  0  0  0  0
    9.9005   -8.5521    0.0000 C   0  0  0  0  0  0  0  0  0  0  0  0
    9.9005   -9.3771    0.0000 O   0  0  0  0  0  0  0  0  0  0  0  0
   12.1141   -8.2972    0.0000 C   0  0  0  0  0  0  0  0  0  0  0  0
   12.5990   -8.9646    0.0000 C   0  0  0  0  0  0  0  0  0  0  0  0
   12.1141   -9.6321    0.0000 C   0  0  0  0  0  0  0  0  0  0  0  0
   10.6150   -7.3146    0.0000 C   0  0  0  0  0  0  0  0  0  0  0  0
   11.3295   -6.9021    0.0000 O   0  0  0  0  0  0  0  0  0  0  0  0
    9.9005   -6.9021    0.0000 O   0  0  0  0  0  0  0  0  0  0  0  0
   10.6150  -10.6146    0.0000 O   0  0  0  0  0  0  0  0  0  0  0  0
   12.3690  -10.4167    0.0000 C   0  0  0  0  0  0  0  0  0  0  0  0
   13.1760  -10.5882    0.0000 O   0  0  0  0  0  0  0  0  0  0  0  0
   11.4157   -7.7316    0.0000 H   0  0  0  0  0  0  0  0  0  0  0  0
   11.4157  -10.1976    0.0000 H   0  0  0  0  0  0  0  0  0  0  0  0
    9.9005   -6.0771    0.0000 C   0  0  0  0  0  0  0  0  0  0  0  0
    9.9005  -11.0271    0.0000 C   0  0  2  0  0  0  0  0  0  0  0  0
    9.1861  -10.6146    0.0000 O   0  0  0  0  0  0  0  0  0  0  0  0
    8.4716  -11.0271    0.0000 C   0  0  1  0  0  0  0  0  0  0  0  0
    8.4716  -11.8521    0.0000 C   0  0  2  0  0  0  0  0  0  0  0  0
    9.1861  -12.2646    0.0000 C   0  0  1  0  0  0  0  0  0  0  0  0
    9.9005  -11.8521    0.0000 C   0  0  1  0  0  0  0  0  0  0  0  0
    7.7571  -10.6146    0.0000 C   0  0  0  0  0  0  0  0  0  0  0  0
    9.1861  -13.0896    0.0000 O   0  0  0  0  0  0  0  0  0  0  0  0
    7.7571  -12.2646    0.0000 O   0  0  0  0  0  0  0  0  0  0  0  0
   10.6150  -12.2646    0.0000 O   0  0  0  0  0  0  0  0  0  0  0  0
    7.0426  -11.0271    0.0000 O   0  0  0  0  0  0  0  0  0  0  0  0
    6.3282  -10.6146    0.0000 C   0  0  2  0  0  0  0  0  0  0  0  0
    6.3282   -9.7896    0.0000 O   0  0  0  0  0  0  0  0  0  0  0  0
    5.6137   -9.3771    0.0000 C   0  0  1  0  0  0  0  0  0  0  0  0
    4.8992   -9.7896    0.0000 C   0  0  2  0  0  0  0  0  0  0  0  0
    4.8992  -10.6146    0.0000 C   0  0  1  0  0  0  0  0  0  0  0  0
    5.6137  -11.0271    0.0000 C   0  0  1  0  0  0  0  0  0  0  0  0
    5.6137   -8.5521    0.0000 C   0  0  0  0  0  0  0  0  0  0  0  0
    4.1848  -11.0271    0.0000 O   0  0  0  0  0  0  0  0  0  0  0  0
    4.1848   -9.3771    0.0000 O   0  0  0  0  0  0  0  0  0  0  0  0
    5.6137  -11.8521    0.0000 O   0  0  0  0  0  0  0  0  0  0  0  0
    4.8992   -8.1396    0.0000 O   0  0  0  0  0  0  0  0  0  0  0  0
    4.8992   -7.3146    0.0000 C   0  0  0  0  0  0  0  0  0  0  0  0
    4.1848   -6.9021    0.0000 C   0  0  0  0  0  0  0  0  0  0  0  0
    5.6137   -6.9021    0.0000 O   0  0  0  0  0  0  0  0  0  0  0  0
    4.1848   -6.0771    0.0000 C   0  0  0  0  0  0  0  0  0  0  0  0
    3.4703   -5.6646    0.0000 C   0  0  0  0  0  0  0  0  0  0  0  0
    3.4703   -4.8396    0.0000 C   0  0  0  0  0  0  0  0  0  0  0  0
    2.7558   -4.4271    0.0000 C   0  0  0  0  0  0  0  0  0  0  0  0
    2.0413   -4.8396    0.0000 C   0  0  0  0  0  0  0  0  0  0  0  0
    2.0413   -5.6646    0.0000 C   0  0  0  0  0  0  0  0  0  0  0  0
    2.7558   -6.0771    0.0000 C   0  0  0  0  0  0  0  0  0  0  0  0
    1.3269   -4.4271    0.0000 O   0  0  0  0  0  0  0  0  0  0  0  0
    1.3269   -6.0771    0.0000 O   0  0  0  0  0  0  0  0  0  0  0  0
    0.6124   -5.6646    0.0000 C   0  0  0  0  0  0  0  0  0  0  0  0
  1  2  1  0  0  0  0
  2  3  1  0  0  0  0
  3  4  1  0  0  0  0
  4  5  2  0  0  0  0
  5  6  1  0  0  0  0
  1  6  1  0  0  0  0
  7  8  1  0  0  0  0
  8  9  2  0  0  0  0
  2  9  1  0  0  0  0
  3  7  1  0  0  0  0
 10 11  2  0  0  0  0
 10 12  1  0  0  0  0
  4 10  1  0  0  0  0
  1 13  1  6  0  0  0
 14 15  1  0  0  0  0
  9 14  1  0  0  0  0
  3 16  1  6  0  0  0
  2 17  1  6  0  0  0
 12 18  1  0  0  0  0
 19 13  1  1  0  0  0
 19 20  1  0  0  0  0
 20 21  1  0  0  0  0
 21 22  1  0  0  0  0
 22 23  1  0  0  0  0
 23 24  1  0  0  0  0
 24 19  1  0  0  0  0
 21 25  1  1  0  0  0
 23 26  1  1  0  0  0
 22 27  1  6  0  0  0
 24 28  1  6  0  0  0
 25 29  1  0  0  0  0
 30 29  1  1  0  0  0
 30 31  1  0  0  0  0
 31 32  1  0  0  0  0
 32 33  1  0  0  0  0
 33 34  1  0  0  0  0
 34 35  1  0  0  0  0
 35 30  1  0  0  0  0
 32 36  1  1  0  0  0
 34 37  1  1  0  0  0
 33 38  1  6  0  0  0
 35 39  1  6  0  0  0
 36 40  1  0  0  0  0
 40 41  1  0  0  0  0
 41 42  1  0  0  0  0
 41 43  2  0  0  0  0
 42 44  2  0  0  0  0
 44 45  1  0  0  0  0
 45 46  2  0  0  0  0
 46 47  1  0  0  0  0
 47 48  2  0  0  0  0
 48 49  1  0  0  0  0
 49 50  2  0  0  0  0
 50 45  1  0  0  0  0
 48 51  1  0  0  0  0
 49 52  1  0  0  0  0
 52 53  1  0  0  0  0
M  END
>  <cdx:fragmentId>
5002

$$$$
