6538.cdx
  Mrv1902 05222410182D          

 43 47  0  0  0  0            999 V2000
   13.7434   -3.4304    0.0000 O   0  0  0  0  0  0  0  0  0  0  0  0
   13.3180   -5.5713    0.0000 C   0  0  0  0  0  0  0  0  0  0  0  0
   13.7348   -4.8593    0.0000 C   0  0  0  0  0  0  0  0  0  0  0  0
   13.3266   -4.1424    0.0000 C   0  0  0  0  0  0  0  0  0  0  0  0
   12.5016   -4.1374    0.0000 O   0  0  0  0  0  0  0  0  0  0  0  0
   12.0763   -6.2783    0.0000 C   0  0  0  0  0  0  0  0  0  0  0  0
   12.4931   -5.5664    0.0000 C   0  0  0  0  0  0  0  0  0  0  0  0
   12.0849   -4.8494    0.0000 C   0  0  0  0  0  0  0  0  0  0  0  0
   11.2599   -4.8445    0.0000 C   0  0  0  0  0  0  0  0  0  0  0  0
   10.6956   -6.8832    0.0000 C   0  0  0  0  0  0  0  0  0  0  0  0
   11.2513   -6.2734    0.0000 C   0  0  0  0  0  0  0  0  0  0  0  0
   10.8431   -5.5565    0.0000 C   0  0  0  0  0  0  0  0  0  0  0  0
   10.0351   -5.7231    0.0000 O   0  0  0  0  0  0  0  0  0  0  0  0
    9.9440   -6.5431    0.0000 C   0  0  1  0  0  0  0  0  0  0  0  0
    9.6352   -7.6682    0.0000 C   0  0  0  0  0  0  0  0  0  0  0  0
    8.8102   -7.6633    0.0000 C   0  0  0  0  0  0  0  0  0  0  0  0
    9.2270   -6.9513    0.0000 C   0  0  0  0  0  0  0  0  0  0  0  0
    8.5150   -6.5345    0.0000 O   0  0  0  0  0  0  0  0  0  0  0  0
    8.5051   -8.1845    0.0000 O   0  0  0  0  0  0  0  0  0  0  0  0
    7.0713   -9.0009    0.0000 O   0  0  0  0  0  0  0  0  0  0  0  0
    5.6473   -8.1673    0.0000 O   0  0  0  0  0  0  0  0  0  0  0  0
    6.3642   -7.7591    0.0000 C   0  0  1  0  0  0  0  0  0  0  0  0
    7.0762   -8.1759    0.0000 C   0  0  1  0  0  0  0  0  0  0  0  0
    7.7932   -7.7677    0.0000 C   0  0  2  0  0  0  0  0  0  0  0  0
    7.7981   -6.9427    0.0000 C   0  0  1  0  0  0  0  0  0  0  0  0
    7.0861   -6.5259    0.0000 O   0  0  0  0  0  0  0  0  0  0  0  0
    6.3692   -6.9342    0.0000 C   0  0  2  0  0  0  0  0  0  0  0  0
    5.6572   -6.5174    0.0000 C   0  0  0  0  0  0  0  0  0  0  0  0
    4.9551   -4.4506    0.0000 O   0  0  0  0  0  0  0  0  0  0  0  0
    5.6622   -5.6924    0.0000 O   0  0  0  0  0  0  0  0  0  0  0  0
    4.9502   -5.2756    0.0000 C   0  0  0  0  0  0  0  0  0  0  0  0
    1.3705   -6.4917    0.0000 C   0  0  0  0  0  0  0  0  0  0  0  0
    2.0824   -6.9084    0.0000 C   0  0  0  0  0  0  0  0  0  0  0  0
    2.7994   -6.5002    0.0000 C   0  0  0  0  0  0  0  0  0  0  0  0
    2.8043   -5.6753    0.0000 C   0  0  0  0  0  0  0  0  0  0  0  0
    2.0923   -5.2585    0.0000 C   0  0  0  0  0  0  0  0  0  0  0  0
    1.3754   -5.6667    0.0000 C   0  0  0  0  0  0  0  0  0  0  0  0
    0.6535   -6.8999    0.0000 O   0  0  0  0  0  0  0  0  0  0  0  0
    2.0775   -7.7334    0.0000 O   0  0  0  0  0  0  0  0  0  0  0  0
    1.3581   -8.1373    0.0000 C   0  0  0  0  0  0  0  0  0  0  0  0
    3.5213   -5.2670    0.0000 C   0  0  0  0  0  0  0  0  0  0  0  0
    4.2332   -5.6838    0.0000 C   0  0  0  0  0  0  0  0  0  0  0  0
    9.2295   -6.1306    0.0000 H   0  0  0  0  0  0  0  0  0  0  0  0
  4  1  2  0  0  0  0
  2  7  1  0  0  0  0
  3  2  2  0  0  0  0
  4  3  1  0  0  0  0
  5  4  1  0  0  0  0
  8  5  1  0  0  0  0
  6 11  1  0  0  0  0
  7  6  2  0  0  0  0
  8  7  1  0  0  0  0
  9  8  2  0  0  0  0
 12  9  1  0  0  0  0
 10 14  1  0  0  0  0
 11 10  1  0  0  0  0
 12 11  2  0  0  0  0
 13 12  1  0  0  0  0
 14 13  1  0  0  0  0
 17 14  1  0  0  0  0
 17 15  1  0  0  0  0
 17 16  1  0  0  0  0
 18 17  1  0  0  0  0
 25 18  1  1  0  0  0
 24 19  1  6  0  0  0
 23 20  1  1  0  0  0
 22 21  1  6  0  0  0
 22 27  1  0  0  0  0
 23 22  1  0  0  0  0
 24 23  1  0  0  0  0
 25 24  1  0  0  0  0
 26 25  1  0  0  0  0
 27 26  1  0  0  0  0
 27 28  1  1  0  0  0
 30 28  1  0  0  0  0
 31 29  2  0  0  0  0
 31 30  1  0  0  0  0
 42 31  1  0  0  0  0
 32 33  2  0  0  0  0
 33 34  1  0  0  0  0
 34 35  2  0  0  0  0
 35 36  1  0  0  0  0
 36 37  2  0  0  0  0
 37 32  1  0  0  0  0
 32 38  1  0  0  0  0
 33 39  1  0  0  0  0
 39 40  1  0  0  0  0
 35 41  1  0  0  0  0
 41 42  2  0  0  0  0
 14 43  1  1  0  0  0
M  END
>  <cdx:fragmentId>
5

$$$$
