654197.cdx
  Mrv1902 05222410252D          

 37 40  0  0  0  0            999 V2000
    9.0396  -10.4726    0.0000 O   0  0  0  0  0  0  0  0  0  0  0  0
    9.0345   -9.6476    0.0000 C   0  0  1  0  0  0  0  0  0  0  0  0
    9.7464   -9.2307    0.0000 C   0  0  1  0  0  0  0  0  0  0  0  0
   10.4634   -9.6388    0.0000 C   0  0  2  0  0  0  0  0  0  0  0  0
   10.4685  -10.4638    0.0000 C   0  0  2  0  0  0  0  0  0  0  0  0
    9.7566  -10.8807    0.0000 C   0  0  1  0  0  0  0  0  0  0  0  0
    9.7413   -8.4058    0.0000 O   0  0  0  0  0  0  0  0  0  0  0  0
   11.1753   -9.2220    0.0000 O   0  0  0  0  0  0  0  0  0  0  0  0
   11.1855  -10.8719    0.0000 O   0  0  0  0  0  0  0  0  0  0  0  0
    9.7616  -11.7057    0.0000 C   0  0  0  0  0  0  0  0  0  0  0  0
   10.4786  -12.1138    0.0000 O   0  0  0  0  0  0  0  0  0  0  0  0
    8.3175   -9.2395    0.0000 O   0  0  0  0  0  0  0  0  0  0  0  0
    6.5635   -8.6125    0.0000 C   0  0  1  0  0  0  0  0  0  0  0  0
    7.2779   -8.2000    0.0000 C   0  0  1  0  0  0  0  0  0  0  0  0
    7.2779   -7.3750    0.0000 C   0  0  1  0  0  0  0  0  0  0  0  0
    6.5635   -6.9625    0.0000 C   0  0  0  0  0  0  0  0  0  0  0  0
    5.8490   -7.3750    0.0000 C   0  0  0  0  0  0  0  0  0  0  0  0
    5.8490   -8.2000    0.0000 O   0  0  0  0  0  0  0  0  0  0  0  0
    8.0626   -7.1200    0.0000 C   0  0  1  0  0  0  0  0  0  0  0  0
    8.5475   -7.7875    0.0000 C   0  0  0  0  0  0  0  0  0  0  0  0
    8.0626   -8.4549    0.0000 C   0  0  2  0  0  0  0  0  0  0  0  0
    6.5635   -9.4375    0.0000 O   0  0  0  0  0  0  0  0  0  0  0  0
    5.1345   -9.4375    0.0000 O   0  0  0  0  0  0  0  0  0  0  0  0
    5.8490   -9.8500    0.0000 C   0  0  2  0  0  0  0  0  0  0  0  0
    5.8490  -10.6750    0.0000 C   0  0  1  0  0  0  0  0  0  0  0  0
    5.1345  -11.0875    0.0000 C   0  0  2  0  0  0  0  0  0  0  0  0
    4.4201  -10.6750    0.0000 C   0  0  1  0  0  0  0  0  0  0  0  0
    4.4201   -9.8500    0.0000 C   0  0  1  0  0  0  0  0  0  0  0  0
    3.7056   -9.4375    0.0000 C   0  0  0  0  0  0  0  0  0  0  0  0
    2.9911   -9.8500    0.0000 O   0  0  0  0  0  0  0  0  0  0  0  0
    3.7056  -11.0875    0.0000 O   0  0  0  0  0  0  0  0  0  0  0  0
    5.1345  -11.9125    0.0000 O   0  0  0  0  0  0  0  0  0  0  0  0
    6.5635  -11.0875    0.0000 O   0  0  0  0  0  0  0  0  0  0  0  0
    8.3175   -6.3354    0.0000 O   0  0  0  0  0  0  0  0  0  0  0  0
    7.2779   -6.5500    0.0000 H   0  0  0  0  0  0  0  0  0  0  0  0
    7.2779   -9.0250    0.0000 H   0  0  0  0  0  0  0  0  0  0  0  0
    8.8594   -8.6684    0.0000 C   0  0  0  0  0  0  0  0  0  0  0  0
  1  2  1  0  0  0  0
  2  3  1  0  0  0  0
  3  4  1  0  0  0  0
  4  5  1  0  0  0  0
  5  6  1  0  0  0  0
  1  6  1  0  0  0  0
  3  7  1  6  0  0  0
  4  8  1  1  0  0  0
  5  9  1  1  0  0  0
 10 11  1  0  0  0  0
  6 10  1  1  0  0  0
 13 14  1  0  0  0  0
 14 15  1  0  0  0  0
 15 16  1  0  0  0  0
 16 17  2  0  0  0  0
 17 18  1  0  0  0  0
 13 18  1  0  0  0  0
 19 20  1  0  0  0  0
 20 21  1  0  0  0  0
 21 14  1  0  0  0  0
 19 15  1  0  0  0  0
 23 24  1  0  0  0  0
 24 25  1  0  0  0  0
 25 26  1  0  0  0  0
 26 27  1  0  0  0  0
 27 28  1  0  0  0  0
 23 28  1  0  0  0  0
 29 30  1  0  0  0  0
 28 29  1  1  0  0  0
 27 31  1  6  0  0  0
 26 32  1  1  0  0  0
 25 33  1  6  0  0  0
 24 22  1  1  0  0  0
 13 22  1  6  0  0  0
 19 34  1  6  0  0  0
 21 12  1  6  0  0  0
  2 12  1  6  0  0  0
 15 35  1  6  0  0  0
 14 36  1  6  0  0  0
 21 37  1  0  0  0  0
M  END
>  <cdx:fragmentId>
257685

$$$$
