654196.cdx
  Mrv1902 05222410252D          

 39 43  0  0  0  0            999 V2000
    9.5280   -7.7331    0.0000 O   0  0  0  0  0  0  0  0  0  0  0  0
   10.3349   -7.5616    0.0000 C   0  0  1  0  0  0  0  0  0  0  0  0
   10.5899   -6.7770    0.0000 C   0  0  1  0  0  0  0  0  0  0  0  0
   10.0378   -6.1639    0.0000 C   0  0  1  0  0  0  0  0  0  0  0  0
    9.2309   -6.3354    0.0000 C   0  0  2  0  0  0  0  0  0  0  0  0
    8.9759   -7.1200    0.0000 C   0  0  1  0  0  0  0  0  0  0  0  0
   11.3968   -6.6054    0.0000 O   0  0  0  0  0  0  0  0  0  0  0  0
   10.2928   -5.3792    0.0000 O   0  0  0  0  0  0  0  0  0  0  0  0
    8.6788   -5.7223    0.0000 O   0  0  0  0  0  0  0  0  0  0  0  0
    8.1690   -7.2915    0.0000 O   0  0  0  0  0  0  0  0  0  0  0  0
    7.1294   -9.1561    0.0000 C   0  0  2  0  0  0  0  0  0  0  0  0
    7.9140   -9.4110    0.0000 C   0  0  1  0  0  0  0  0  0  0  0  0
    8.7345   -9.4973    0.0000 O   0  0  0  0  0  0  0  0  0  0  0  0
    8.3989   -8.7436    0.0000 C   0  0  1  0  0  0  0  0  0  0  0  0
    7.9140   -8.0762    0.0000 C   0  0  2  0  0  0  0  0  0  0  0  0
    7.1294   -8.3311    0.0000 C   0  0  2  0  0  0  0  0  0  0  0  0
    6.4149   -7.9186    0.0000 C   0  0  0  0  0  0  0  0  0  0  0  0
    5.7005   -8.3311    0.0000 C   0  0  0  0  0  0  0  0  0  0  0  0
    5.7005   -9.1561    0.0000 O   0  0  0  0  0  0  0  0  0  0  0  0
    6.4149   -9.5686    0.0000 C   0  0  1  0  0  0  0  0  0  0  0  0
    6.4149  -10.3936    0.0000 O   0  0  0  0  0  0  0  0  0  0  0  0
    4.9860  -10.3936    0.0000 O   0  0  0  0  0  0  0  0  0  0  0  0
    5.7005  -10.8061    0.0000 C   0  0  2  0  0  0  0  0  0  0  0  0
    5.7005  -11.6311    0.0000 C   0  0  1  0  0  0  0  0  0  0  0  0
    4.9860  -12.0436    0.0000 C   0  0  2  0  0  0  0  0  0  0  0  0
    4.2715  -11.6311    0.0000 C   0  0  1  0  0  0  0  0  0  0  0  0
    4.2715  -10.8061    0.0000 C   0  0  1  0  0  0  0  0  0  0  0  0
    3.5570  -10.3936    0.0000 C   0  0  0  0  0  0  0  0  0  0  0  0
    2.8426  -10.8061    0.0000 O   0  0  0  0  0  0  0  0  0  0  0  0
    3.5570  -12.0436    0.0000 O   0  0  0  0  0  0  0  0  0  0  0  0
    4.9860  -12.8686    0.0000 O   0  0  0  0  0  0  0  0  0  0  0  0
    6.4149  -12.0436    0.0000 O   0  0  0  0  0  0  0  0  0  0  0  0
    7.7425  -10.2180    0.0000 C   0  0  0  0  0  0  0  0  0  0  0  0
    8.1550  -10.9325    0.0000 O   0  0  0  0  0  0  0  0  0  0  0  0
   10.8870   -8.1747    0.0000 C   0  0  0  0  0  0  0  0  0  0  0  0
   11.6939   -8.0032    0.0000 O   0  0  0  0  0  0  0  0  0  0  0  0
    7.1294   -9.9811    0.0000 H   0  0  0  0  0  0  0  0  0  0  0  0
    9.1134   -8.3311    0.0000 H   0  0  0  0  0  0  0  0  0  0  0  0
    7.2156   -7.5106    0.0000 H   0  0  0  0  0  0  0  0  0  0  0  0
  1  2  1  0  0  0  0
  2  3  1  0  0  0  0
  3  4  1  0  0  0  0
  4  5  1  0  0  0  0
  5  6  1  0  0  0  0
  1  6  1  0  0  0  0
  3  7  1  1  0  0  0
  4  8  1  1  0  0  0
  5  9  1  6  0  0  0
 11 12  1  0  0  0  0
 12 13  1  0  0  0  0
 13 14  1  0  0  0  0
 14 15  1  0  0  0  0
 15 16  1  0  0  0  0
 16 17  1  0  0  0  0
 17 18  2  0  0  0  0
 18 19  1  0  0  0  0
 19 20  1  0  0  0  0
 11 20  1  0  0  0  0
 11 16  1  0  0  0  0
 12 14  1  0  0  0  0
 22 23  1  0  0  0  0
 23 24  1  0  0  0  0
 24 25  1  0  0  0  0
 25 26  1  0  0  0  0
 26 27  1  0  0  0  0
 22 27  1  0  0  0  0
 28 29  1  0  0  0  0
 27 28  1  1  0  0  0
 26 30  1  6  0  0  0
 25 31  1  1  0  0  0
 24 32  1  6  0  0  0
 23 21  1  1  0  0  0
 20 21  1  6  0  0  0
 33 34  1  0  0  0  0
 12 33  1  1  0  0  0
 15 10  1  6  0  0  0
  6 10  1  6  0  0  0
 35 36  1  0  0  0  0
  2 35  1  1  0  0  0
 11 37  1  6  0  0  0
 14 38  1  1  0  0  0
 16 39  1  6  0  0  0
M  END
>  <cdx:fragmentId>
257550

$$$$
