6541.cdx
  Mrv1902 05222410252D          

 48 52  0  0  0  0            999 V2000
    5.8195  -10.9794    0.0000 C   0  0  0  0  0  0  0  0  0  0  0  0
    5.8195  -11.8044    0.0000 C   0  0  0  0  0  0  0  0  0  0  0  0
    6.5340  -12.2169    0.0000 C   0  0  0  0  0  0  0  0  0  0  0  0
    7.2485  -11.8044    0.0000 C   0  0  0  0  0  0  0  0  0  0  0  0
    7.2485  -10.9794    0.0000 C   0  0  0  0  0  0  0  0  0  0  0  0
    6.5340  -10.5669    0.0000 C   0  0  0  0  0  0  0  0  0  0  0  0
    7.9629  -12.2169    0.0000 C   0  0  0  0  0  0  0  0  0  0  0  0
    8.6774  -11.8044    0.0000 C   0  0  0  0  0  0  0  0  0  0  0  0
    8.6774  -10.9794    0.0000 C   0  0  0  0  0  0  0  0  0  0  0  0
    7.9629  -10.5669    0.0000 O   0  0  0  0  0  0  0  0  0  0  0  0
    9.3919  -12.2169    0.0000 C   0  0  0  0  0  0  0  0  0  0  0  0
    9.3919  -13.0419    0.0000 C   0  0  0  0  0  0  0  0  0  0  0  0
   10.1064  -13.4544    0.0000 C   0  0  0  0  0  0  0  0  0  0  0  0
   10.8208  -13.0419    0.0000 C   0  0  0  0  0  0  0  0  0  0  0  0
   10.8208  -12.2169    0.0000 C   0  0  0  0  0  0  0  0  0  0  0  0
   10.1064  -11.8044    0.0000 C   0  0  0  0  0  0  0  0  0  0  0  0
    5.1051  -12.2169    0.0000 O   0  0  0  0  0  0  0  0  0  0  0  0
    6.5340  -13.0419    0.0000 O   0  0  0  0  0  0  0  0  0  0  0  0
    7.9629  -13.0419    0.0000 O   0  0  0  0  0  0  0  0  0  0  0  0
   10.1064  -14.2794    0.0000 O   0  0  0  0  0  0  0  0  0  0  0  0
   11.5353  -13.4544    0.0000 O   0  0  0  0  0  0  0  0  0  0  0  0
   11.5353  -11.8044    0.0000 O   0  0  0  0  0  0  0  0  0  0  0  0
    5.1051  -10.5669    0.0000 O   0  0  0  0  0  0  0  0  0  0  0  0
   11.5353  -14.2794    0.0000 C   0  0  0  0  0  0  0  0  0  0  0  0
    9.3919  -14.6919    0.0000 C   0  0  0  0  0  0  0  0  0  0  0  0
    5.1051  -13.0419    0.0000 C   0  0  0  0  0  0  0  0  0  0  0  0
    5.7975   -8.5194    0.0000 C   0  0  2  0  0  0  0  0  0  0  0  0
    5.0831   -8.1067    0.0000 C   0  0  2  0  0  0  0  0  0  0  0  0
    4.3685   -8.5190    0.0000 C   0  0  1  0  0  0  0  0  0  0  0  0
    4.3683   -9.3440    0.0000 C   0  0  2  0  0  0  0  0  0  0  0  0
    5.0827   -9.7567    0.0000 C   0  0  1  0  0  0  0  0  0  0  0  0
    5.7973   -9.3444    0.0000 O   0  0  0  0  0  0  0  0  0  0  0  0
    6.5121   -8.1071    0.0000 C   0  0  0  0  0  0  0  0  0  0  0  0
    3.6542   -8.1063    0.0000 O   0  0  0  0  0  0  0  0  0  0  0  0
    5.0833   -7.2817    0.0000 O   0  0  0  0  0  0  0  0  0  0  0  0
    3.6538   -9.7563    0.0000 O   0  0  0  0  0  0  0  0  0  0  0  0
    7.2065   -3.5659    0.0000 O   0  0  0  0  0  0  0  0  0  0  0  0
    7.9321   -5.6248    0.0000 C   0  0  0  0  0  0  0  0  0  0  0  0
    7.9275   -4.7996    0.0000 C   0  0  0  0  0  0  0  0  0  0  0  0
    7.2108   -4.3909    0.0000 C   0  0  0  0  0  0  0  0  0  0  0  0
    6.4982   -4.8072    0.0000 C   0  0  0  0  0  0  0  0  0  0  0  0
    6.5030   -5.6322    0.0000 C   0  0  0  0  0  0  0  0  0  0  0  0
    7.9412   -7.2741    0.0000 O   0  0  0  0  0  0  0  0  0  0  0  0
    7.2198   -6.0406    0.0000 C   0  0  0  0  0  0  0  0  0  0  0  0
    7.2244   -6.8656    0.0000 C   0  0  0  0  0  0  0  0  0  0  0  0
    6.5123   -7.2821    0.0000 O   0  0  0  0  0  0  0  0  0  0  0  0
    5.7815   -4.3986    0.0000 O   0  0  0  0  0  0  0  0  0  0  0  0
    5.7815   -3.5736    0.0000 C   0  0  0  0  0  0  0  0  0  0  0  0
  1  2  2  0  0  0  0
  2  3  1  0  0  0  0
  3  4  2  0  0  0  0
  4  5  1  0  0  0  0
  5  6  2  0  0  0  0
  6  1  1  0  0  0  0
  4  7  1  0  0  0  0
  7  8  1  0  0  0  0
  8  9  2  0  0  0  0
  9 10  1  0  0  0  0
 10  5  1  0  0  0  0
  8 11  1  0  0  0  0
 11 12  2  0  0  0  0
 12 13  1  0  0  0  0
 13 14  2  0  0  0  0
 14 15  1  0  0  0  0
 15 16  2  0  0  0  0
 16 11  1  0  0  0  0
  2 17  1  0  0  0  0
  3 18  1  0  0  0  0
  7 19  2  0  0  0  0
 13 20  1  0  0  0  0
 14 21  1  0  0  0  0
 15 22  1  0  0  0  0
  1 23  1  0  0  0  0
 21 24  1  0  0  0  0
 20 25  1  0  0  0  0
 17 26  1  0  0  0  0
 27 28  1  0  0  0  0
 28 29  1  0  0  0  0
 29 30  1  0  0  0  0
 30 31  1  0  0  0  0
 31 32  1  0  0  0  0
 32 27  1  0  0  0  0
 27 33  1  1  0  0  0
 29 34  1  1  0  0  0
 28 35  1  6  0  0  0
 30 36  1  6  0  0  0
 40 37  1  0  0  0  0
 33 46  1  0  0  0  0
 31 23  1  1  0  0  0
 38 44  1  0  0  0  0
 39 38  2  0  0  0  0
 40 39  1  0  0  0  0
 41 40  2  0  0  0  0
 42 41  1  0  0  0  0
 44 42  2  0  0  0  0
 45 43  2  0  0  0  0
 45 44  1  0  0  0  0
 46 45  1  0  0  0  0
 41 47  1  0  0  0  0
 47 48  1  0  0  0  0
M  END
>  <cdx:fragmentId>
5

$$$$
