6542.cdx
  Mrv1902 05222410252D          

 10  9  0  0  0  0            999 V2000
    5.2720   -4.1811    0.0000 C   0  0  0  0  0  0  0  0  0  0  0  0
    5.9864   -4.5936    0.0000 C   0  0  0  0  0  0  0  0  0  0  0  0
    6.7009   -4.1811    0.0000 C   0  0  0  0  0  0  0  0  0  0  0  0
    7.4154   -4.5936    0.0000 C   0  0  0  0  0  0  0  0  0  0  0  0
    8.1299   -4.1811    0.0000 C   0  0  0  0  0  0  0  0  0  0  0  0
    8.8443   -4.5936    0.0000 C   0  0  0  0  0  0  0  0  0  0  0  0
    9.5588   -4.1811    0.0000 C   0  0  0  0  0  0  0  0  0  0  0  0
    8.8443   -5.4186    0.0000 C   0  0  0  0  0  0  0  0  0  0  0  0
    5.9864   -5.4186    0.0000 C   0  0  0  0  0  0  0  0  0  0  0  0
    5.2720   -5.8311    0.0000 C   0  0  0  0  0  0  0  0  0  0  0  0
  1  2  1  0  0  0  0
  2  3  2  0  0  0  0
  3  4  1  0  0  0  0
  4  5  1  0  0  0  0
  5  6  2  0  0  0  0
  6  7  1  0  0  0  0
  6  8  1  0  0  0  0
  2  9  1  0  0  0  0
  9 10  2  0  0  0  0
M  END
>  <cdx:fragmentId>
47

$$$$
