654315.cdx
  Mrv1902 05222410202D          

 29 30  0  0  0  0            999 V2000
    6.6272   -9.4842    0.0000 C   0  0  0  0  0  0  0  0  0  0  0  0
    5.9128   -9.8967    0.0000 C   0  0  0  0  0  0  0  0  0  0  0  0
    5.1983   -9.4842    0.0000 C   0  0  0  0  0  0  0  0  0  0  0  0
    6.6272   -8.6592    0.0000 O   0  0  0  0  0  0  0  0  0  0  0  0
    7.3417   -9.8967    0.0000 O   0  0  0  0  0  0  0  0  0  0  0  0
    4.4838   -9.8967    0.0000 C   0  0  0  0  0  0  0  0  0  0  0  0
    3.7694   -9.4842    0.0000 C   0  0  0  0  0  0  0  0  0  0  0  0
    3.0549   -9.8967    0.0000 C   0  0  0  0  0  0  0  0  0  0  0  0
    3.0549  -10.7217    0.0000 C   0  0  0  0  0  0  0  0  0  0  0  0
    3.7694  -11.1342    0.0000 C   0  0  0  0  0  0  0  0  0  0  0  0
    4.4838  -10.7217    0.0000 C   0  0  0  0  0  0  0  0  0  0  0  0
    2.3404   -9.4842    0.0000 O   0  0  0  0  0  0  0  0  0  0  0  0
    1.6259   -9.8967    0.0000 C   0  0  0  0  0  0  0  0  0  0  0  0
    2.3404  -11.1342    0.0000 O   0  0  0  0  0  0  0  0  0  0  0  0
    8.0562   -9.4842    0.0000 C   0  0  0  0  0  0  0  0  0  0  0  0
    8.7706   -9.8967    0.0000 C   0  0  0  0  0  0  0  0  0  0  0  0
    9.4851   -9.4842    0.0000 C   0  0  0  0  0  0  0  0  0  0  0  0
    9.4851   -8.6592    0.0000 O   0  0  0  0  0  0  0  0  0  0  0  0
   10.1996   -8.2467    0.0000 C   0  0  0  0  0  0  0  0  0  0  0  0
   10.1996   -9.8967    0.0000 C   0  0  0  0  0  0  0  0  0  0  0  0
   10.1996  -10.7217    0.0000 C   0  0  0  0  0  0  0  0  0  0  0  0
   10.9141  -11.1342    0.0000 C   0  0  0  0  0  0  0  0  0  0  0  0
   11.6285  -10.7217    0.0000 C   0  0  0  0  0  0  0  0  0  0  0  0
   11.6285   -9.8967    0.0000 C   0  0  0  0  0  0  0  0  0  0  0  0
   10.9141   -9.4842    0.0000 C   0  0  0  0  0  0  0  0  0  0  0  0
   10.9141  -11.9592    0.0000 O   0  0  0  0  0  0  0  0  0  0  0  0
   10.1996  -12.3717    0.0000 C   0  0  0  0  0  0  0  0  0  0  0  0
   12.3430  -11.1342    0.0000 O   0  0  0  0  0  0  0  0  0  0  0  0
    8.7706  -10.7217    0.0000 O   0  0  0  0  0  0  0  0  0  0  0  0
  1  2  1  0  0  0  0
  2  3  2  0  0  0  0
  1  4  2  0  0  0  0
  1  5  1  0  0  0  0
  6  7  1  0  0  0  0
  7  8  2  0  0  0  0
  8  9  1  0  0  0  0
  9 10  2  0  0  0  0
 10 11  1  0  0  0  0
  6 11  2  0  0  0  0
 12 13  1  0  0  0  0
  8 12  1  0  0  0  0
  9 14  1  0  0  0  0
  3  6  1  0  0  0  0
 15 16  1  0  0  0  0
 16 17  1  0  0  0  0
 18 19  1  0  0  0  0
 17 18  1  0  0  0  0
 20 21  1  0  0  0  0
 21 22  2  0  0  0  0
 22 23  1  0  0  0  0
 23 24  2  0  0  0  0
 24 25  1  0  0  0  0
 20 25  2  0  0  0  0
 26 27  1  0  0  0  0
 22 26  1  0  0  0  0
 23 28  1  0  0  0  0
 17 20  1  0  0  0  0
 16 29  1  0  0  0  0
  5 15  1  0  0  0  0
M  END
>  <cdx:fragmentId>
623

$$$$
