6544.cdx
  Mrv1902 05222410242D          

 10 10  0  0  0  0            999 V2000
    7.1848   -4.1105    0.0000 C   0  0  0  0  0  0  0  0  0  0  0  0
    7.8992   -4.5230    0.0000 C   0  0  0  0  0  0  0  0  0  0  0  0
    7.8992   -5.3480    0.0000 C   0  0  0  0  0  0  0  0  0  0  0  0
    7.1848   -5.7605    0.0000 C   0  0  0  0  0  0  0  0  0  0  0  0
    6.4703   -5.3480    0.0000 C   0  0  0  0  0  0  0  0  0  0  0  0
    6.4703   -4.5230    0.0000 C   0  0  0  0  0  0  0  0  0  0  0  0
    7.1848   -3.2855    0.0000 O   0  0  0  0  0  0  0  0  0  0  0  0
    6.0578   -6.0625    0.0000 C   0  0  0  0  0  0  0  0  0  0  0  0
    5.6453   -5.3480    0.0000 C   0  0  0  0  0  0  0  0  0  0  0  0
    8.6137   -5.7605    0.0000 C   0  0  0  0  0  0  0  0  0  0  0  0
  1  2  1  0  0  0  0
  2  3  2  0  0  0  0
  3  4  1  0  0  0  0
  4  5  1  0  0  0  0
  5  6  1  0  0  0  0
  1  6  1  0  0  0  0
  1  7  2  0  0  0  0
  5  8  1  0  0  0  0
  5  9  1  0  0  0  0
  3 10  1  0  0  0  0
M  END
>  <cdx:fragmentId>
5

$$$$
