6546.cdx
  Mrv1902 05222410232D          

 40 44  0  0  0  0            999 V2000
    9.4708   -2.4272    0.0000 O   0  0  0  0  0  0  0  0  0  0  0  0
   10.9094   -3.2353    0.0000 O   0  0  0  0  0  0  0  0  0  0  0  0
    8.0517   -3.2690    0.0000 O   0  0  0  0  0  0  0  0  0  0  0  0
    8.0711   -4.9189    0.0000 O   0  0  0  0  0  0  0  0  0  0  0  0
    8.0350  -10.6937    0.0000 O   0  0  0  0  0  0  0  0  0  0  0  0
   11.6047  -11.1286    0.0000 O   0  0  0  0  0  0  0  0  0  0  0  0
   10.1758  -11.1196    0.0000 C   0  0  0  0  0  0  0  0  0  0  0  0
   10.8928  -10.7116    0.0000 C   0  0  0  0  0  0  0  0  0  0  0  0
   10.8980   -9.8866    0.0000 C   0  0  0  0  0  0  0  0  0  0  0  0
   10.1861   -9.4697    0.0000 C   0  0  0  0  0  0  0  0  0  0  0  0
    9.4639  -10.7027    0.0000 C   0  0  0  0  0  0  0  0  0  0  0  0
    9.4691   -9.8777    0.0000 C   0  0  0  0  0  0  0  0  0  0  0  0
    8.0401   -9.8688    0.0000 C   0  0  0  0  0  0  0  0  0  0  0  0
    8.7572   -9.4607    0.0000 C   0  0  0  0  0  0  0  0  0  0  0  0
    8.7623   -8.6358    0.0000 C   0  0  0  0  0  0  0  0  0  0  0  0
    8.0505   -8.2188    0.0000 O   0  0  0  0  0  0  0  0  0  0  0  0
    5.8993   -9.4429    0.0000 C   0  0  0  0  0  0  0  0  0  0  0  0
    6.6112   -9.8598    0.0000 C   0  0  0  0  0  0  0  0  0  0  0  0
    7.3283   -9.4518    0.0000 C   0  0  0  0  0  0  0  0  0  0  0  0
    7.3334   -8.6268    0.0000 C   0  0  0  0  0  0  0  0  0  0  0  0
    5.1926   -8.2009    0.0000 O   0  0  0  0  0  0  0  0  0  0  0  0
    5.9045   -8.6179    0.0000 C   0  0  0  0  0  0  0  0  0  0  0  0
    6.6215   -8.2099    0.0000 C   0  0  0  0  0  0  0  0  0  0  0  0
    8.0659   -5.7438    0.0000 C   0  0  0  0  0  0  0  0  0  0  0  0
    8.7710   -3.6730    0.0000 C   0  0  1  0  0  0  0  0  0  0  0  0
    8.7807   -4.4980    0.0000 C   0  0  1  0  0  0  0  0  0  0  0  0
    6.6422   -4.9099    0.0000 O   0  0  0  0  0  0  0  0  0  0  0  0
    6.6370   -5.7349    0.0000 C   0  0  2  0  0  0  0  0  0  0  0  0
    7.3489   -6.1519    0.0000 C   0  0  2  0  0  0  0  0  0  0  0  0
    5.9200   -6.1429    0.0000 C   0  0  1  0  0  0  0  0  0  0  0  0
    5.9148   -6.9679    0.0000 C   0  0  2  0  0  0  0  0  0  0  0  0
    6.6267   -7.3849    0.0000 C   0  0  1  0  0  0  0  0  0  0  0  0
    7.3437   -6.9768    0.0000 O   0  0  0  0  0  0  0  0  0  0  0  0
    9.4999   -4.9020    0.0000 O   0  0  0  0  0  0  0  0  0  0  0  0
   10.2095   -4.4812    0.0000 C   0  0  0  0  0  0  0  0  0  0  0  0
    5.2081   -5.7260    0.0000 O   0  0  0  0  0  0  0  0  0  0  0  0
   10.1998   -3.6562    0.0000 C   0  0  2  0  0  0  0  0  0  0  0  0
    9.4805   -3.2521    0.0000 C   0  0  2  0  0  0  0  0  0  0  0  0
    5.1978   -7.3759    0.0000 O   0  0  0  0  0  0  0  0  0  0  0  0
    7.3386   -7.8018    0.0000 H   0  0  0  0  0  0  0  0  0  0  0  0
 38  1  1  1  0  0  0
 37  2  1  6  0  0  0
 25  3  1  6  0  0  0
 26  4  1  1  0  0  0
 25 38  1  0  0  0  0
 26 25  1  0  0  0  0
 13  5  2  0  0  0  0
  8  6  1  0  0  0  0
  7 11  2  0  0  0  0
  8  7  1  0  0  0  0
  9  8  2  0  0  0  0
 10  9  1  0  0  0  0
 12 10  2  0  0  0  0
 12 11  1  0  0  0  0
 14 12  1  0  0  0  0
 13 19  1  0  0  0  0
 14 13  1  0  0  0  0
 15 14  2  0  0  0  0
 16 15  1  0  0  0  0
 20 16  1  0  0  0  0
 17 22  1  0  0  0  0
 18 17  2  0  0  0  0
 19 18  1  0  0  0  0
 20 19  2  0  0  0  0
 23 20  1  0  0  0  0
 22 21  1  0  0  0  0
 23 22  2  0  0  0  0
 32 23  1  0  0  0  0
 34 26  1  0  0  0  0
 35 34  1  0  0  0  0
 37 35  1  0  0  0  0
 38 37  1  0  0  0  0
  4 24  1  0  0  0  0
 28 27  1  6  0  0  0
 28 29  1  0  0  0  0
 29 24  1  1  0  0  0
 28 30  1  0  0  0  0
 30 31  1  0  0  0  0
 31 32  1  0  0  0  0
 32 33  1  0  0  0  0
 33 29  1  0  0  0  0
 30 36  1  1  0  0  0
 31 39  1  6  0  0  0
 32 40  1  6  0  0  0
M  END
>  <cdx:fragmentId>
5

$$$$
