6553.cdx
  Mrv1902 05222410232D          

 40 44  0  0  0  0            999 V2000
    4.7608  -10.7456    0.0000 C   0  0  0  0  0  0  0  0  0  0  0  0
    4.7608  -11.5706    0.0000 C   0  0  0  0  0  0  0  0  0  0  0  0
    5.4752  -11.9831    0.0000 C   0  0  0  0  0  0  0  0  0  0  0  0
    6.1897  -11.5706    0.0000 C   0  0  0  0  0  0  0  0  0  0  0  0
    6.1897  -10.7456    0.0000 C   0  0  0  0  0  0  0  0  0  0  0  0
    5.4752  -10.3331    0.0000 C   0  0  0  0  0  0  0  0  0  0  0  0
    6.9042  -11.9831    0.0000 C   0  0  0  0  0  0  0  0  0  0  0  0
    7.6187  -11.5706    0.0000 C   0  0  0  0  0  0  0  0  0  0  0  0
    7.6187  -10.7456    0.0000 C   0  0  0  0  0  0  0  0  0  0  0  0
    6.9042  -10.3331    0.0000 O   0  0  0  0  0  0  0  0  0  0  0  0
    8.3331  -11.9831    0.0000 C   0  0  0  0  0  0  0  0  0  0  0  0
    8.3331  -12.8081    0.0000 C   0  0  0  0  0  0  0  0  0  0  0  0
    9.0476  -13.2206    0.0000 C   0  0  0  0  0  0  0  0  0  0  0  0
    9.7621  -12.8081    0.0000 C   0  0  0  0  0  0  0  0  0  0  0  0
    9.7621  -11.9831    0.0000 C   0  0  0  0  0  0  0  0  0  0  0  0
    9.0476  -11.5706    0.0000 C   0  0  0  0  0  0  0  0  0  0  0  0
    4.0463  -10.3331    0.0000 O   0  0  0  0  0  0  0  0  0  0  0  0
    6.9042  -12.8081    0.0000 O   0  0  0  0  0  0  0  0  0  0  0  0
   10.4765  -13.2206    0.0000 O   0  0  0  0  0  0  0  0  0  0  0  0
    5.4830   -9.3934    0.0000 O   0  0  0  0  0  0  0  0  0  0  0  0
    8.4077   -7.2269    0.0000 O   0  0  0  0  0  0  0  0  0  0  0  0
    7.1617   -7.9543    0.0000 C   0  0  2  0  0  0  0  0  0  0  0  0
    6.7503   -7.2392    0.0000 C   0  0  2  0  0  0  0  0  0  0  0  0
    5.9253   -7.2380    0.0000 C   0  0  1  0  0  0  0  0  0  0  0  0
    5.5117   -7.9518    0.0000 C   0  0  2  0  0  0  0  0  0  0  0  0
    5.9231   -8.6669    0.0000 C   0  0  1  0  0  0  0  0  0  0  0  0
    6.7481   -8.6682    0.0000 O   0  0  0  0  0  0  0  0  0  0  0  0
    7.9867   -7.9556    0.0000 C   0  0  0  0  0  0  0  0  0  0  0  0
    5.5140   -6.5228    0.0000 O   0  0  0  0  0  0  0  0  0  0  0  0
    7.1640   -6.5254    0.0000 O   0  0  0  0  0  0  0  0  0  0  0  0
    4.6867   -7.9505    0.0000 O   0  0  0  0  0  0  0  0  0  0  0  0
    9.6949   -7.9118    0.0000 O   0  0  0  0  0  0  0  0  0  0  0  0
   10.4863   -7.6788    0.0000 C   0  0  0  0  0  0  0  0  0  0  0  0
   10.5092   -6.8541    0.0000 C   0  0  2  0  0  0  0  0  0  0  0  0
    9.7320   -6.5774    0.0000 C   0  0  2  0  0  0  0  0  0  0  0  0
    9.2287   -7.2311    0.0000 C   0  0  2  0  0  0  0  0  0  0  0  0
    9.4990   -5.7860    0.0000 O   0  0  0  0  0  0  0  0  0  0  0  0
   10.7032   -6.0522    0.0000 O   0  0  0  0  0  0  0  0  0  0  0  0
   11.3006   -6.6211    0.0000 C   0  0  0  0  0  0  0  0  0  0  0  0
   11.8981   -7.1900    0.0000 O   0  0  0  0  0  0  0  0  0  0  0  0
  1  2  2  0  0  0  0
  2  3  1  0  0  0  0
  3  4  2  0  0  0  0
  4  5  1  0  0  0  0
  5  6  2  0  0  0  0
  6  1  1  0  0  0  0
  4  7  1  0  0  0  0
  7  8  1  0  0  0  0
  8  9  2  0  0  0  0
  9 10  1  0  0  0  0
 10  5  1  0  0  0  0
  8 11  1  0  0  0  0
 11 12  2  0  0  0  0
 12 13  1  0  0  0  0
 13 14  2  0  0  0  0
 14 15  1  0  0  0  0
 15 16  2  0  0  0  0
 16 11  1  0  0  0  0
  1 17  1  0  0  0  0
  7 18  2  0  0  0  0
 14 19  1  0  0  0  0
  6 20  1  0  0  0  0
 22 23  1  0  0  0  0
 23 24  1  0  0  0  0
 24 25  1  0  0  0  0
 25 26  1  0  0  0  0
 26 27  1  0  0  0  0
 27 22  1  0  0  0  0
 22 28  1  1  0  0  0
 24 29  1  1  0  0  0
 23 30  1  6  0  0  0
 25 31  1  6  0  0  0
 28 21  1  0  0  0  0
 26 20  1  1  0  0  0
 32 33  1  0  0  0  0
 33 34  1  0  0  0  0
 34 35  1  0  0  0  0
 35 36  1  0  0  0  0
 36 32  1  0  0  0  0
 35 37  1  6  0  0  0
 34 38  1  6  0  0  0
 34 39  1  0  0  0  0
 39 40  1  0  0  0  0
 36 21  1  1  0  0  0
M  END
>  <cdx:fragmentId>
5

$$$$
