65533.cdx
  Mrv1902 05222410182D          

 16 16  0  0  0  0            999 V2000
    8.4918   -7.2709    0.0000 O   0  0  0  0  0  0  0  0  0  0  0  0
    7.0566   -8.0850    0.0000 O   0  0  0  0  0  0  0  0  0  0  0  0
    5.6340   -7.2491    0.0000 O   0  0  0  0  0  0  0  0  0  0  0  0
    4.9290   -6.0062    0.0000 O   0  0  0  0  0  0  0  0  0  0  0  0
    5.6466   -5.5992    0.0000 C   0  0  0  0  0  0  0  0  0  0  0  0
    6.3579   -6.0171    0.0000 C   0  0  2  0  0  0  0  0  0  0  0  0
    6.3516   -6.8421    0.0000 C   0  0  2  0  0  0  0  0  0  0  0  0
    7.0629   -7.2600    0.0000 C   0  0  1  0  0  0  0  0  0  0  0  0
    7.7805   -6.8530    0.0000 C   0  0  2  0  0  0  0  0  0  0  0  0
    7.7868   -6.0280    0.0000 C   0  0  1  0  0  0  0  0  0  0  0  0
    7.0755   -5.6101    0.0000 O   0  0  0  0  0  0  0  0  0  0  0  0
    8.5044   -5.6210    0.0000 O   0  0  0  0  0  0  0  0  0  0  0  0
    8.8032   -6.7534    0.0000 O   0  0  0  0  0  0  0  0  0  0  0  0
    9.9302   -6.4514    0.0000 O   0  0  0  0  0  0  0  0  0  0  0  0
    9.6282   -5.3245    0.0000 O   0  0  0  0  0  0  0  0  0  0  0  0
    9.2157   -6.0389    0.0000 P   0  0  0  0  0  0  0  0  0  0  0  0
 10 12  1  1  0  0  0
  9  1  1  6  0  0  0
  8  2  1  1  0  0  0
  7  3  1  6  0  0  0
  6  5  1  1  0  0  0
  5  4  1  0  0  0  0
 11  6  1  0  0  0  0
  7  6  1  0  0  0  0
  8  7  1  0  0  0  0
  9  8  1  0  0  0  0
 10  9  1  0  0  0  0
 11 10  1  0  0  0  0
 16 12  1  0  0  0  0
 16 13  1  0  0  0  0
 16 14  1  0  0  0  0
 16 15  2  0  0  0  0
M  END
>  <cdx:groupId>
50

>  <cdx:fragmentId>
15

$$$$
