655551.cdx
  Mrv1902 05222410192D          

 33 36  0  0  0  0            999 V2000
    6.0036   -5.2955    0.0000 C   0  0  0  0  0  0  0  0  0  0  0  0
    6.8281   -5.3220    0.0000 O   0  0  0  0  0  0  0  0  0  0  0  0
    9.4843   -8.5645    0.0000 C   0  0  0  0  0  0  0  0  0  0  0  0
    9.4843   -9.3895    0.0000 C   0  0  0  0  0  0  0  0  0  0  0  0
    8.7698   -9.8020    0.0000 C   0  0  0  0  0  0  0  0  0  0  0  0
    8.0554   -9.3895    0.0000 C   0  0  0  0  0  0  0  0  0  0  0  0
    7.3409   -9.8020    0.0000 C   0  0  0  0  0  0  0  0  0  0  0  0
    6.6264   -9.3895    0.0000 C   0  0  0  0  0  0  0  0  0  0  0  0
    6.6264   -8.5645    0.0000 C   0  0  0  0  0  0  0  0  0  0  0  0
    7.3409   -8.1520    0.0000 C   0  0  0  0  0  0  0  0  0  0  0  0
    8.0554   -8.5645    0.0000 C   0  0  0  0  0  0  0  0  0  0  0  0
    8.7698   -8.1520    0.0000 O   0  0  0  0  0  0  0  0  0  0  0  0
   10.1988   -8.1520    0.0000 C   0  0  0  0  0  0  0  0  0  0  0  0
   10.1988   -7.3270    0.0000 C   0  0  0  0  0  0  0  0  0  0  0  0
   10.9132   -6.9145    0.0000 C   0  0  0  0  0  0  0  0  0  0  0  0
   11.6277   -7.3270    0.0000 C   0  0  0  0  0  0  0  0  0  0  0  0
   11.6277   -8.1520    0.0000 C   0  0  0  0  0  0  0  0  0  0  0  0
   10.9132   -8.5645    0.0000 C   0  0  0  0  0  0  0  0  0  0  0  0
    8.7698  -10.6270    0.0000 O   0  0  0  0  0  0  0  0  0  0  0  0
    5.9119   -9.8020    0.0000 O   0  0  0  0  0  0  0  0  0  0  0  0
    5.1975   -9.3895    0.0000 C   0  0  0  0  0  0  0  0  0  0  0  0
    7.3409  -10.6270    0.0000 O   0  0  0  0  0  0  0  0  0  0  0  0
    4.3544   -5.2427    0.0000 O   0  0  0  0  0  0  0  0  0  0  0  0
    3.4840   -6.6444    0.0000 O   0  0  0  0  0  0  0  0  0  0  0  0
    4.2628   -8.0991    0.0000 O   0  0  0  0  0  0  0  0  0  0  0  0
    5.9119   -8.1520    0.0000 O   0  0  0  0  0  0  0  0  0  0  0  0
    5.6142   -4.5682    0.0000 O   0  0  0  0  0  0  0  0  0  0  0  0
    5.5226   -7.4246    0.0000 C   0  0  1  0  0  0  0  0  0  0  0  0
    4.6980   -7.3982    0.0000 C   0  0  1  0  0  0  0  0  0  0  0  0
    4.3086   -6.6709    0.0000 C   0  0  2  0  0  0  0  0  0  0  0  0
    4.7438   -5.9700    0.0000 C   0  0  1  0  0  0  0  0  0  0  0  0
    5.5684   -5.9964    0.0000 C   0  0  2  0  0  0  0  0  0  0  0  0
    5.9578   -6.7238    0.0000 O   0  0  0  0  0  0  0  0  0  0  0  0
 31 23  1  6  0  0  0
 30 24  1  1  0  0  0
 29 25  1  6  0  0  0
 28 26  1  1  0  0  0
 32  1  1  1  0  0  0
 33 28  1  0  0  0  0
 29 28  1  0  0  0  0
 30 29  1  0  0  0  0
 31 30  1  0  0  0  0
 32 31  1  0  0  0  0
 33 32  1  0  0  0  0
  1  2  2  0  0  0  0
  1 27  1  0  0  0  0
  3  4  2  0  0  0  0
  4  5  1  0  0  0  0
  5  6  1  0  0  0  0
  6  7  1  0  0  0  0
  7  8  2  0  0  0  0
  8  9  1  0  0  0  0
  9 10  2  0  0  0  0
 10 11  1  0  0  0  0
  6 11  2  0  0  0  0
 11 12  1  0  0  0  0
  3 12  1  0  0  0  0
 13 14  1  0  0  0  0
 14 15  2  0  0  0  0
 15 16  1  0  0  0  0
 16 17  2  0  0  0  0
 17 18  1  0  0  0  0
 13 18  2  0  0  0  0
  3 13  1  0  0  0  0
  5 19  2  0  0  0  0
 20 21  1  0  0  0  0
  8 20  1  0  0  0  0
  7 22  1  0  0  0  0
 26  9  1  0  0  0  0
M  END
>  <cdx:fragmentId>
2591

$$$$
