6558.cdx
  Mrv1902 05222410212D          

 27 29  0  0  0  0            999 V2000
    4.9694   -6.9135    0.0000 O   0  0  0  0  0  0  0  0  0  0  0  0
    8.1578   -6.4025    0.0000 C   0  0  0  0  0  0  0  0  0  0  0  0
    9.2232   -7.8895    0.0000 O   0  0  0  0  0  0  0  0  0  0  0  0
    4.8668   -8.2279    0.0000 O   0  0  0  0  0  0  0  0  0  0  0  0
    5.2793   -8.9423    0.0000 C   0  0  0  0  0  0  0  0  0  0  0  0
    7.8995   -8.5293    0.0000 O   0  0  0  0  0  0  0  0  0  0  0  0
    8.3984   -7.8722    0.0000 C   0  0  0  0  0  0  0  0  0  0  0  0
    7.9276   -7.1947    0.0000 C   0  0  1  0  0  0  0  0  0  0  0  0
    5.6918   -8.2279    0.0000 C   0  0  1  0  0  0  0  0  0  0  0  0
    6.3975   -8.6553    0.0000 C   0  0  0  0  0  0  0  0  0  0  0  0
    7.1205   -8.2579    0.0000 C   0  0  2  0  0  0  0  0  0  0  0  0
    5.6557   -4.8415    0.0000 C   0  0  2  0  0  0  0  0  0  0  0  0
    4.9357   -4.4387    0.0000 C   0  0  2  0  0  0  0  0  0  0  0  0
    4.2269   -4.8609    0.0000 C   0  0  1  0  0  0  0  0  0  0  0  0
    4.2381   -5.6859    0.0000 C   0  0  2  0  0  0  0  0  0  0  0  0
    4.9582   -6.0886    0.0000 C   0  0  1  0  0  0  0  0  0  0  0  0
    5.6669   -5.6664    0.0000 O   0  0  0  0  0  0  0  0  0  0  0  0
    7.1378   -7.4331    0.0000 C   0  0  2  0  0  0  0  0  0  0  0  0
    6.3645   -4.4193    0.0000 C   0  0  0  0  0  0  0  0  0  0  0  0
    3.5069   -4.4582    0.0000 O   0  0  0  0  0  0  0  0  0  0  0  0
    3.5293   -6.1081    0.0000 O   0  0  0  0  0  0  0  0  0  0  0  0
    4.9244   -3.6138    0.0000 O   0  0  0  0  0  0  0  0  0  0  0  0
    6.3532   -3.5943    0.0000 O   0  0  0  0  0  0  0  0  0  0  0  0
    6.4322   -7.0057    0.0000 C   0  0  0  0  0  0  0  0  0  0  0  0
    5.7092   -7.4030    0.0000 C   0  0  2  0  0  0  0  0  0  0  0  0
    7.1551   -6.6083    0.0000 H   0  0  0  0  0  0  0  0  0  0  0  0
    7.1031   -9.0827    0.0000 H   0  0  0  0  0  0  0  0  0  0  0  0
 18  8  1  0  0  0  0
 25  1  1  1  0  0  0
  8  2  1  1  0  0  0
  7  3  2  0  0  0  0
  9  4  1  6  0  0  0
  9  5  1  1  0  0  0
  6 11  1  0  0  0  0
  7  6  1  0  0  0  0
  8  7  1  0  0  0  0
  9 25  1  0  0  0  0
 10  9  1  0  0  0  0
 11 10  1  0  0  0  0
 18 11  1  0  0  0  0
 24 18  1  0  0  0  0
 25 24  1  0  0  0  0
 12 13  1  0  0  0  0
 13 14  1  0  0  0  0
 14 15  1  0  0  0  0
 15 16  1  0  0  0  0
 16 17  1  0  0  0  0
 17 12  1  0  0  0  0
 16  1  1  1  0  0  0
 12 19  1  1  0  0  0
 14 20  1  1  0  0  0
 15 21  1  6  0  0  0
 13 22  1  6  0  0  0
 19 23  1  0  0  0  0
 18 26  1  1  0  0  0
 11 27  1  1  0  0  0
M  END
>  <cdx:fragmentId>
5

$$$$
