6560.cdx
  Mrv1902 05222410222D          

  5  4  0  0  0  0            999 V2000
    4.6763   -4.7152    0.0000 C   0  0  0  0  0  0  0  0  0  0  0  0
    5.3907   -4.3027    0.0000 C   0  0  0  0  0  0  0  0  0  0  0  0
    5.3907   -3.4777    0.0000 C   0  0  0  0  0  0  0  0  0  0  0  0
    3.9618   -4.3027    0.0000 O   0  0  0  0  0  0  0  0  0  0  0  0
    6.1052   -4.7152    0.0000 C   0  0  0  0  0  0  0  0  0  0  0  0
  1  2  1  0  0  0  0
  2  3  1  0  0  0  0
  1  4  1  0  0  0  0
  2  5  1  0  0  0  0
M  END
>  <cdx:groupId>
50

>  <cdx:fragmentId>
39

$$$$
