6561.cdx
  Mrv1902 05222410222D          

  5  4  0  0  0  0            999 V2000
    3.2033   -2.7558    0.0000 C   0  0  0  0  0  0  0  0  0  0  0  0
    3.9178   -2.3433    0.0000 C   0  0  0  0  0  0  0  0  0  0  0  0
    3.9178   -1.5183    0.0000 C   0  0  0  0  0  0  0  0  0  0  0  0
    2.4889   -2.3433    0.0000 O   0  0  0  0  0  0  0  0  0  0  0  0
    4.6323   -2.7558    0.0000 C   0  0  0  0  0  0  0  0  0  0  0  0
  1  2  1  0  0  0  0
  2  3  1  0  0  0  0
  1  4  2  0  0  0  0
  2  5  1  0  0  0  0
M  END
>  <cdx:groupId>
16

>  <cdx:fragmentId>
5

$$$$
