6562.cdx
  Mrv1902 05222410232D          

  5  4  0  0  0  0            999 V2000
    3.9046   -3.0858    0.0000 C   0  0  0  0  0  0  0  0  0  0  0  0
    4.6190   -2.6733    0.0000 C   0  0  0  0  0  0  0  0  0  0  0  0
    4.6190   -1.8483    0.0000 C   0  0  0  0  0  0  0  0  0  0  0  0
    3.1901   -2.6733    0.0000 O   0  0  0  0  0  0  0  0  0  0  0  0
    5.3335   -3.0858    0.0000 C   0  0  0  0  0  0  0  0  0  0  0  0
  1  2  1  0  0  0  0
  2  3  2  0  0  0  0
  1  4  2  0  0  0  0
  2  5  1  0  0  0  0
M  END
>  <cdx:groupId>
16

>  <cdx:fragmentId>
5

$$$$
