6563.cdx
  Mrv1902 05222410222D          

 22 23  0  0  0  0            999 V2000
    9.4382   -7.3158    0.0000 C   0  0  0  0  0  0  0  0  0  0  0  0
    9.4349   -6.4908    0.0000 C   0  0  1  0  0  0  0  0  0  0  0  0
    8.7189   -6.0811    0.0000 N   0  0  0  0  0  0  0  0  0  0  0  0
    8.0060   -6.4964    0.0000 C   0  0  1  0  0  0  0  0  0  0  0  0
    8.0092   -7.3214    0.0000 C   0  0  1  0  0  0  0  0  0  0  0  0
    8.7253   -7.7311    0.0000 C   0  0  0  0  0  0  0  0  0  0  0  0
    7.2964   -7.7367    0.0000 O   0  0  0  0  0  0  0  0  0  0  0  0
    7.2899   -6.0867    0.0000 C   0  0  0  0  0  0  0  0  0  0  0  0
   10.1478   -6.0755    0.0000 C   0  0  0  0  0  0  0  0  0  0  0  0
   10.8639   -6.4852    0.0000 C   0  0  0  0  0  0  0  0  0  0  0  0
    6.5771   -6.5020    0.0000 O   0  0  0  0  0  0  0  0  0  0  0  0
    5.8610   -6.0923    0.0000 C   0  0  2  0  0  0  0  0  0  0  0  0
    5.8561   -5.2673    0.0000 O   0  0  0  0  0  0  0  0  0  0  0  0
    5.1392   -4.8590    0.0000 C   0  0  1  0  0  0  0  0  0  0  0  0
    4.4272   -5.2673    0.0000 C   0  0  2  0  0  0  0  0  0  0  0  0
    4.4272   -6.0923    0.0000 C   0  0  1  0  0  0  0  0  0  0  0  0
    5.1392   -6.5006    0.0000 C   0  0  1  0  0  0  0  0  0  0  0  0
    5.1380   -4.0340    0.0000 C   0  0  0  0  0  0  0  0  0  0  0  0
    3.7134   -6.5058    0.0000 O   0  0  0  0  0  0  0  0  0  0  0  0
    5.1368   -7.3256    0.0000 O   0  0  0  0  0  0  0  0  0  0  0  0
    3.7134   -4.8537    0.0000 O   0  0  0  0  0  0  0  0  0  0  0  0
    4.4236   -3.6215    0.0000 O   0  0  0  0  0  0  0  0  0  0  0  0
  1  2  1  0  0  0  0
  2  3  1  0  0  0  0
  3  4  1  0  0  0  0
  4  5  1  0  0  0  0
  5  6  1  0  0  0  0
  6  1  1  0  0  0  0
  5  7  1  1  0  0  0
  4  8  1  1  0  0  0
  2  9  1  1  0  0  0
  9 10  1  0  0  0  0
  8 11  1  0  0  0  0
 12 11  1  1  0  0  0
 12 13  1  0  0  0  0
 13 14  1  0  0  0  0
 14 15  1  0  0  0  0
 15 16  1  0  0  0  0
 16 17  1  0  0  0  0
 17 12  1  0  0  0  0
 14 18  1  1  0  0  0
 16 19  1  1  0  0  0
 17 20  1  6  0  0  0
 15 21  1  6  0  0  0
 18 22  1  0  0  0  0
M  END
>  <cdx:fragmentId>
108

$$$$
