656557.cdx
  Mrv1902 05222410252D          

 26 26  0  0  0  0            999 V2000
    7.2200   -5.0912    0.0000 C   0  0  0  0  0  0  0  0  0  0  0  0
    7.9380   -4.6848    0.0000 C   0  0  0  0  0  0  0  0  0  0  0  0
    8.6489   -5.1033    0.0000 C   0  0  0  0  0  0  0  0  0  0  0  0
    9.3669   -4.6969    0.0000 C   0  0  0  0  0  0  0  0  0  0  0  0
   10.0778   -5.1155    0.0000 C   0  0  0  0  0  0  0  0  0  0  0  0
    7.2130   -5.9162    0.0000 S   0  0  0  0  0  0  0  0  0  0  0  0
    6.5091   -4.6727    0.0000 N   0  0  0  0  0  0  0  0  0  0  0  0
    5.7911   -5.0791    0.0000 O   0  0  0  0  0  0  0  0  0  0  0  0
    5.0802   -4.6605    0.0000 S   0  0  0  0  0  0  0  0  0  0  0  0
    5.4987   -3.9496    0.0000 O   0  0  0  0  0  0  0  0  0  0  0  0
    4.6617   -5.3715    0.0000 O   0  0  0  0  0  0  0  0  0  0  0  0
    4.3693   -4.2420    0.0000 O   0  0  0  0  0  0  0  0  0  0  0  0
   10.7958   -4.7090    0.0000 S   0  0  0  0  0  0  0  0  0  0  0  0
   10.8028   -3.8841    0.0000 O   0  0  0  0  0  0  0  0  0  0  0  0
   11.5067   -5.1276    0.0000 C   0  0  0  0  0  0  0  0  0  0  0  0
    5.7841   -5.9041    0.0000 O   0  0  0  0  0  0  0  0  0  0  0  0
    6.4951   -6.3226    0.0000 C   0  0  2  0  0  0  0  0  0  0  0  0
    6.4881   -7.1476    0.0000 C   0  0  1  0  0  0  0  0  0  0  0  0
    5.7702   -7.5540    0.0000 C   0  0  2  0  0  0  0  0  0  0  0  0
    5.0592   -7.1355    0.0000 C   0  0  1  0  0  0  0  0  0  0  0  0
    5.0662   -6.3105    0.0000 C   0  0  1  0  0  0  0  0  0  0  0  0
    4.3553   -5.8919    0.0000 C   0  0  0  0  0  0  0  0  0  0  0  0
    3.6373   -6.2984    0.0000 O   0  0  0  0  0  0  0  0  0  0  0  0
    4.3413   -7.5419    0.0000 O   0  0  0  0  0  0  0  0  0  0  0  0
    5.7632   -8.3790    0.0000 O   0  0  0  0  0  0  0  0  0  0  0  0
    7.1990   -7.5661    0.0000 O   0  0  0  0  0  0  0  0  0  0  0  0
  1  2  1  0  0  0  0
  2  3  1  0  0  0  0
  3  4  1  0  0  0  0
  4  5  1  0  0  0  0
  1  6  1  0  0  0  0
  1  7  2  0  0  0  0
  9 10  2  0  0  0  0
  9 11  2  0  0  0  0
  9 12  1  0  0  0  0
  8  9  1  0  0  0  0
  7  8  1  0  0  0  0
 13 14  2  0  0  0  0
 13 15  1  0  0  0  0
  5 13  1  0  0  0  0
 16 17  1  0  0  0  0
 17 18  1  0  0  0  0
 18 19  1  0  0  0  0
 19 20  1  0  0  0  0
 20 21  1  0  0  0  0
 16 21  1  0  0  0  0
 22 23  1  0  0  0  0
 21 22  1  1  0  0  0
 20 24  1  6  0  0  0
 19 25  1  1  0  0  0
 18 26  1  6  0  0  0
 17  6  1  1  0  0  0
M  END
>  <cdx:fragmentId>
5

$$$$
