656822.cdx
  Mrv1902 05222410212D          

 64 71  0  0  0  0            999 V2000
   11.0881   -6.9377    0.0000 O   0  0  0  0  0  0  0  0  0  0  0  0
   10.3736   -5.7002    0.0000 O   0  0  0  0  0  0  0  0  0  0  0  0
   10.3736   -6.5252    0.0000 C   0  0  0  0  0  0  0  0  0  0  0  0
    8.9447   -9.0002    0.0000 O   0  0  0  0  0  0  0  0  0  0  0  0
    7.5158   -9.0002    0.0000 O   0  0  0  0  0  0  0  0  0  0  0  0
    6.0868  -10.6502    0.0000 O   0  0  0  0  0  0  0  0  0  0  0  0
    4.6579  -11.4752    0.0000 O   0  0  0  0  0  0  0  0  0  0  0  0
    3.2289  -10.6502    0.0000 O   0  0  0  0  0  0  0  0  0  0  0  0
    2.5145   -9.4127    0.0000 O   0  0  0  0  0  0  0  0  0  0  0  0
    3.2289   -9.0002    0.0000 C   0  0  0  0  0  0  0  0  0  0  0  0
    3.9434   -9.4127    0.0000 C   0  0  2  0  0  0  0  0  0  0  0  0
    3.9434  -10.2377    0.0000 C   0  0  2  0  0  0  0  0  0  0  0  0
    4.6579  -10.6502    0.0000 C   0  0  1  0  0  0  0  0  0  0  0  0
    5.3723  -10.2377    0.0000 C   0  0  2  0  0  0  0  0  0  0  0  0
    5.3723   -9.4127    0.0000 C   0  0  1  0  0  0  0  0  0  0  0  0
    4.6579   -9.0002    0.0000 O   0  0  0  0  0  0  0  0  0  0  0  0
    6.0868   -9.0002    0.0000 O   0  0  0  0  0  0  0  0  0  0  0  0
    8.2302   -6.9377    0.0000 C   0  0  0  0  0  0  0  0  0  0  0  0
    7.5158   -6.5252    0.0000 C   0  0  1  0  0  0  0  0  0  0  0  0
    6.8013   -6.9377    0.0000 C   0  0  0  0  0  0  0  0  0  0  0  0
    6.0868   -6.5252    0.0000 C   0  0  0  0  0  0  0  0  0  0  0  0
    5.3723   -6.9377    0.0000 C   0  0  0  0  0  0  0  0  0  0  0  0
    5.3723   -7.7627    0.0000 C   0  0  0  0  0  0  0  0  0  0  0  0
    6.0868   -8.1752    0.0000 C   0  0  0  0  0  0  0  0  0  0  0  0
    6.8013   -7.7627    0.0000 C   0  0  0  0  0  0  0  0  0  0  0  0
    7.5158   -8.1752    0.0000 C   0  0  0  0  0  0  0  0  0  0  0  0
    8.2302   -7.7627    0.0000 C   0  0  0  0  0  0  0  0  0  0  0  0
    8.9447   -8.1752    0.0000 C   0  0  0  0  0  0  0  0  0  0  0  0
    9.6592   -7.7627    0.0000 C   0  0  0  0  0  0  0  0  0  0  0  0
    9.6592   -6.9377    0.0000 C   0  0  0  0  0  0  0  0  0  0  0  0
    8.9447   -6.5252    0.0000 C   0  0  0  0  0  0  0  0  0  0  0  0
    6.0868   -3.2252    0.0000 O   0  0  0  0  0  0  0  0  0  0  0  0
    7.5158   -3.2252    0.0000 O   0  0  0  0  0  0  0  0  0  0  0  0
    8.9447   -1.5752    0.0000 O   0  0  0  0  0  0  0  0  0  0  0  0
   10.3736   -0.7502    0.0000 O   0  0  0  0  0  0  0  0  0  0  0  0
   11.8026   -1.5752    0.0000 O   0  0  0  0  0  0  0  0  0  0  0  0
   12.5170   -2.8127    0.0000 O   0  0  0  0  0  0  0  0  0  0  0  0
   11.8026   -3.2252    0.0000 C   0  0  0  0  0  0  0  0  0  0  0  0
   11.0881   -2.8127    0.0000 C   0  0  2  0  0  0  0  0  0  0  0  0
   11.0881   -1.9877    0.0000 C   0  0  2  0  0  0  0  0  0  0  0  0
   10.3736   -1.5752    0.0000 C   0  0  1  0  0  0  0  0  0  0  0  0
    9.6592   -1.9877    0.0000 C   0  0  2  0  0  0  0  0  0  0  0  0
    9.6592   -2.8127    0.0000 C   0  0  1  0  0  0  0  0  0  0  0  0
   10.3736   -3.2252    0.0000 O   0  0  0  0  0  0  0  0  0  0  0  0
    8.9447   -3.2252    0.0000 O   0  0  0  0  0  0  0  0  0  0  0  0
    3.9434   -5.2877    0.0000 O   0  0  0  0  0  0  0  0  0  0  0  0
    4.6579   -6.5252    0.0000 O   0  0  0  0  0  0  0  0  0  0  0  0
    4.6579   -5.7002    0.0000 C   0  0  0  0  0  0  0  0  0  0  0  0
    6.8013   -5.2877    0.0000 C   0  0  0  0  0  0  0  0  0  0  0  0
    7.5158   -5.7002    0.0000 C   0  0  1  0  0  0  0  0  0  0  0  0
    8.2302   -5.2877    0.0000 C   0  0  0  0  0  0  0  0  0  0  0  0
    8.9447   -5.7002    0.0000 C   0  0  0  0  0  0  0  0  0  0  0  0
    9.6592   -5.2877    0.0000 C   0  0  0  0  0  0  0  0  0  0  0  0
    9.6592   -4.4627    0.0000 C   0  0  0  0  0  0  0  0  0  0  0  0
    8.9447   -4.0502    0.0000 C   0  0  0  0  0  0  0  0  0  0  0  0
    8.2302   -4.4627    0.0000 C   0  0  0  0  0  0  0  0  0  0  0  0
    7.5158   -4.0502    0.0000 C   0  0  0  0  0  0  0  0  0  0  0  0
    6.8013   -4.4627    0.0000 C   0  0  0  0  0  0  0  0  0  0  0  0
    6.0868   -4.0502    0.0000 C   0  0  0  0  0  0  0  0  0  0  0  0
    5.3723   -4.4627    0.0000 C   0  0  0  0  0  0  0  0  0  0  0  0
    5.3723   -5.2877    0.0000 C   0  0  0  0  0  0  0  0  0  0  0  0
    6.0868   -5.7002    0.0000 C   0  0  0  0  0  0  0  0  0  0  0  0
    8.2302   -6.1127    0.0000 H   0  0  0  0  0  0  0  0  0  0  0  0
    6.8013   -6.1127    0.0000 H   0  0  0  0  0  0  0  0  0  0  0  0
 50 19  1  0  0  0  0
 30  3  1  0  0  0  0
  3  1  1  0  0  0  0
  3  2  2  0  0  0  0
 28  4  1  0  0  0  0
 26  5  2  0  0  0  0
 24 17  1  0  0  0  0
 15 17  1  1  0  0  0
 14  6  1  6  0  0  0
 13  7  1  1  0  0  0
 12  8  1  6  0  0  0
 11 10  1  1  0  0  0
 10  9  1  0  0  0  0
 16 11  1  0  0  0  0
 12 11  1  0  0  0  0
 13 12  1  0  0  0  0
 14 13  1  0  0  0  0
 15 14  1  0  0  0  0
 16 15  1  0  0  0  0
 31 18  2  0  0  0  0
 27 18  1  0  0  0  0
 19 18  1  0  0  0  0
 20 19  1  0  0  0  0
 25 20  2  0  0  0  0
 21 20  1  0  0  0  0
 22 21  2  0  0  0  0
 23 22  1  0  0  0  0
 24 23  2  0  0  0  0
 25 24  1  0  0  0  0
 26 25  1  0  0  0  0
 27 26  1  0  0  0  0
 28 27  2  0  0  0  0
 29 28  1  0  0  0  0
 30 29  2  0  0  0  0
 31 30  1  0  0  0  0
 59 32  1  0  0  0  0
 57 33  2  0  0  0  0
 55 45  1  0  0  0  0
 43 45  1  1  0  0  0
 42 34  1  6  0  0  0
 41 35  1  1  0  0  0
 40 36  1  6  0  0  0
 39 38  1  1  0  0  0
 38 37  1  0  0  0  0
 44 39  1  0  0  0  0
 40 39  1  0  0  0  0
 41 40  1  0  0  0  0
 42 41  1  0  0  0  0
 43 42  1  0  0  0  0
 44 43  1  0  0  0  0
 61 48  1  0  0  0  0
 48 46  1  0  0  0  0
 48 47  2  0  0  0  0
 62 49  2  0  0  0  0
 58 49  1  0  0  0  0
 50 49  1  0  0  0  0
 51 50  1  0  0  0  0
 56 51  2  0  0  0  0
 52 51  1  0  0  0  0
 53 52  2  0  0  0  0
 54 53  1  0  0  0  0
 55 54  2  0  0  0  0
 56 55  1  0  0  0  0
 57 56  1  0  0  0  0
 58 57  1  0  0  0  0
 59 58  2  0  0  0  0
 60 59  1  0  0  0  0
 61 60  2  0  0  0  0
 62 61  1  0  0  0  0
 50 63  1  6  0  0  0
 19 64  1  6  0  0  0
M  END
>  <cdx:fragmentId>
67

$$$$
