6568.cdx
  Mrv1902 05222410252D          

  5  4  0  0  0  0            999 V2000
    2.3892   -3.3547    0.0000 C   0  0  0  0  0  0  0  0  0  0  0  0
    3.1036   -2.9422    0.0000 C   0  0  0  0  0  0  0  0  0  0  0  0
    3.8181   -3.3547    0.0000 C   0  0  0  0  0  0  0  0  0  0  0  0
    4.5326   -2.9422    0.0000 C   0  0  0  0  0  0  0  0  0  0  0  0
    3.1036   -2.1172    0.0000 O   0  0  0  0  0  0  0  0  0  0  0  0
  1  2  1  0  0  0  0
  2  3  1  0  0  0  0
  3  4  1  0  0  0  0
  2  5  1  0  0  0  0
M  END
>  <cdx:groupId>
16

>  <cdx:fragmentId>
5

$$$$
