6569.cdx
  Mrv1902 05222410252D          

  5  4  0  0  0  0            999 V2000
    4.6770   -3.2929    0.0000 C   0  0  0  0  0  0  0  0  0  0  0  0
    3.9625   -2.8804    0.0000 C   0  0  0  0  0  0  0  0  0  0  0  0
    3.2480   -3.2929    0.0000 C   0  0  0  0  0  0  0  0  0  0  0  0
    2.5335   -2.8804    0.0000 C   0  0  0  0  0  0  0  0  0  0  0  0
    3.9625   -2.0554    0.0000 O   0  0  0  0  0  0  0  0  0  0  0  0
  1  2  1  0  0  0  0
  2  3  1  0  0  0  0
  3  4  1  0  0  0  0
  2  5  2  0  0  0  0
M  END
>  <cdx:groupId>
16

>  <cdx:fragmentId>
5

$$$$
