6570.cdx
  Mrv1902 05222410212D          

  5  4  0  0  0  0            999 V2000
    4.1407   -3.1485    0.0000 C   0  0  0  0  0  0  0  0  0  0  0  0
    3.4262   -2.7360    0.0000 C   0  0  0  0  0  0  0  0  0  0  0  0
    2.7118   -3.1485    0.0000 C   0  0  0  0  0  0  0  0  0  0  0  0
    1.9973   -2.7360    0.0000 C   0  0  0  0  0  0  0  0  0  0  0  0
    3.4262   -1.9110    0.0000 O   0  0  0  0  0  0  0  0  0  0  0  0
  1  2  1  0  0  0  0
  2  3  1  0  0  0  0
  3  4  2  0  0  0  0
  2  5  2  0  0  0  0
M  END
>  <cdx:groupId>
16

>  <cdx:fragmentId>
5

$$$$
