6574.cdx
  Mrv1902 05222410222D          

 36 39  0  0  0  0            999 V2000
    8.6981   -7.4762    0.0000 C   0  0  0  0  0  0  0  0  0  0  0  0
    9.4156   -7.0690    0.0000 C   0  0  0  0  0  0  0  0  0  0  0  0
   10.1270   -7.4867    0.0000 C   0  0  0  0  0  0  0  0  0  0  0  0
   10.1209   -8.3117    0.0000 C   0  0  2  0  0  0  0  0  0  0  0  0
    9.4034   -8.7189    0.0000 C   0  0  1  0  0  0  0  0  0  0  0  0
    8.6920   -8.3011    0.0000 O   0  0  0  0  0  0  0  0  0  0  0  0
    9.4217   -6.2440    0.0000 C   0  0  0  0  0  0  0  0  0  0  0  0
   10.8445   -7.0795    0.0000 C   0  0  0  0  0  0  0  0  0  0  0  0
   10.8506   -6.2545    0.0000 C   0  0  0  0  0  0  0  0  0  0  0  0
   10.1392   -5.8368    0.0000 O   0  0  0  0  0  0  0  0  0  0  0  0
    8.7103   -5.8262    0.0000 O   0  0  0  0  0  0  0  0  0  0  0  0
   10.8323   -8.7295    0.0000 C   0  0  0  0  0  0  0  0  0  0  0  0
   10.8262   -9.5545    0.0000 C   0  0  0  0  0  0  0  0  0  0  0  0
    9.3973   -9.5439    0.0000 O   0  0  0  0  0  0  0  0  0  0  0  0
    6.5423  -11.1988    0.0000 O   0  0  0  0  0  0  0  0  0  0  0  0
    7.9727  -12.0214    0.0000 O   0  0  0  0  0  0  0  0  0  0  0  0
    9.4002  -11.1939    0.0000 O   0  0  0  0  0  0  0  0  0  0  0  0
    8.6836   -9.9576    0.0000 C   0  0  1  0  0  0  0  0  0  0  0  0
    8.6850  -10.7826    0.0000 C   0  0  1  0  0  0  0  0  0  0  0  0
    7.9713  -11.1964    0.0000 C   0  0  2  0  0  0  0  0  0  0  0  0
    7.2561  -10.7851    0.0000 C   0  0  1  0  0  0  0  0  0  0  0  0
    7.2546   -9.9601    0.0000 C   0  0  2  0  0  0  0  0  0  0  0  0
    7.9684   -9.5464    0.0000 O   0  0  0  0  0  0  0  0  0  0  0  0
    6.5395   -9.5488    0.0000 C   0  0  0  0  0  0  0  0  0  0  0  0
    5.8257   -9.9626    0.0000 O   0  0  0  0  0  0  0  0  0  0  0  0
    5.1105   -9.5513    0.0000 C   0  0  2  0  0  0  0  0  0  0  0  0
    5.1084   -8.7263    0.0000 O   0  0  0  0  0  0  0  0  0  0  0  0
    4.3929   -8.3156    0.0000 C   0  0  1  0  0  0  0  0  0  0  0  0
    3.6795   -8.7263    0.0000 C   0  0  2  0  0  0  0  0  0  0  0  0
    3.6795   -9.5513    0.0000 C   0  0  1  0  0  0  0  0  0  0  0  0
    4.3929   -9.9619    0.0000 C   0  0  1  0  0  0  0  0  0  0  0  0
    4.3923   -7.4906    0.0000 C   0  0  0  0  0  0  0  0  0  0  0  0
    2.9653   -9.9643    0.0000 O   0  0  0  0  0  0  0  0  0  0  0  0
    4.3918  -10.7869    0.0000 O   0  0  0  0  0  0  0  0  0  0  0  0
    2.9653   -8.3133    0.0000 O   0  0  0  0  0  0  0  0  0  0  0  0
    3.6776   -7.0786    0.0000 O   0  0  0  0  0  0  0  0  0  0  0  0
 25 24  1  0  0  0  0
 22 24  1  1  0  0  0
 18 14  1  1  0  0  0
 21 15  1  6  0  0  0
 20 16  1  1  0  0  0
 19 17  1  6  0  0  0
 23 18  1  0  0  0  0
 19 18  1  0  0  0  0
 20 19  1  0  0  0  0
 21 20  1  0  0  0  0
 22 21  1  0  0  0  0
 23 22  1  0  0  0  0
 26 25  1  1  0  0  0
  1  2  2  0  0  0  0
  2  3  1  0  0  0  0
  3  4  1  0  0  0  0
  4  5  1  0  0  0  0
  5  6  1  0  0  0  0
  1  6  1  0  0  0  0
  8  9  1  0  0  0  0
  9 10  1  0  0  0  0
  7 10  1  0  0  0  0
  7  2  1  0  0  0  0
  8  3  2  0  0  0  0
  7 11  2  0  0  0  0
 12 13  2  0  0  0  0
  4 12  1  1  0  0  0
  5 14  1  6  0  0  0
 26 27  1  0  0  0  0
 27 28  1  0  0  0  0
 28 29  1  0  0  0  0
 29 30  1  0  0  0  0
 30 31  1  0  0  0  0
 31 26  1  0  0  0  0
 28 32  1  1  0  0  0
 30 33  1  1  0  0  0
 31 34  1  6  0  0  0
 29 35  1  6  0  0  0
 32 36  1  0  0  0  0
M  END
>  <cdx:fragmentId>
184544

$$$$
