65753.cdx
  Mrv1902 05222410202D          

 24 28  0  0  0  0            999 V2000
    7.0582   -6.5626    0.0000 C   0  0  0  0  0  0  0  0  0  0  0  0
    7.7727   -6.1501    0.0000 C   0  0  0  0  0  0  0  0  0  0  0  0
    7.9442   -5.3431    0.0000 N   0  0  0  0  0  0  0  0  0  0  0  0
    8.7647   -5.2569    0.0000 C   0  0  0  0  0  0  0  0  0  0  0  0
    9.2496   -4.5894    0.0000 C   0  0  0  0  0  0  0  0  0  0  0  0
   10.0701   -4.6757    0.0000 C   0  0  0  0  0  0  0  0  0  0  0  0
   10.4056   -5.4293    0.0000 C   0  0  0  0  0  0  0  0  0  0  0  0
    9.9207   -6.0968    0.0000 C   0  0  0  0  0  0  0  0  0  0  0  0
    9.1002   -6.0105    0.0000 C   0  0  0  0  0  0  0  0  0  0  0  0
    8.4871   -6.5626    0.0000 C   0  0  0  0  0  0  0  0  0  0  0  0
    8.4871   -7.3876    0.0000 C   0  0  0  0  0  0  0  0  0  0  0  0
    7.7727   -7.8001    0.0000 C   0  0  0  0  0  0  0  0  0  0  0  0
    7.0582   -7.3876    0.0000 N   0  0  0  0  0  0  0  0  0  0  0  0
    6.3437   -7.8001    0.0000 C   0  0  0  0  0  0  0  0  0  0  0  0
    5.6293   -7.3876    0.0000 C   0  0  0  0  0  0  0  0  0  0  0  0
    4.9148   -7.8001    0.0000 C   0  0  0  0  0  0  0  0  0  0  0  0
    4.2003   -7.3876    0.0000 C   0  0  0  0  0  0  0  0  0  0  0  0
    4.2003   -6.5626    0.0000 C   0  0  0  0  0  0  0  0  0  0  0  0
    4.9148   -6.1501    0.0000 C   0  0  0  0  0  0  0  0  0  0  0  0
    5.6293   -6.5626    0.0000 C   0  0  0  0  0  0  0  0  0  0  0  0
    6.3437   -6.1501    0.0000 N   0  0  0  0  0  0  0  0  0  0  0  0
    6.3437   -8.6251    0.0000 O   0  0  0  0  0  0  0  0  0  0  0  0
    6.3437   -5.3251    0.0000 C   0  0  0  0  0  0  0  0  0  0  0  0
    5.6293   -4.9126    0.0000 O   0  0  0  0  0  0  0  0  0  0  0  0
  1  2  1  0  0  0  0
  2  3  1  0  0  0  0
  3  4  1  0  0  0  0
  4  5  2  0  0  0  0
  5  6  1  0  0  0  0
  6  7  2  0  0  0  0
  7  8  1  0  0  0  0
  8  9  2  0  0  0  0
  9 10  1  0  0  0  0
 10 11  1  0  0  0  0
 11 12  1  0  0  0  0
 12 13  1  0  0  0  0
 13 14  1  0  0  0  0
 14 15  1  0  0  0  0
 15 16  2  0  0  0  0
 16 17  1  0  0  0  0
 17 18  2  0  0  0  0
 18 19  1  0  0  0  0
 19 20  2  0  0  0  0
 20 21  1  0  0  0  0
  1 21  1  0  0  0  0
  1 13  1  0  0  0  0
 15 20  1  0  0  0  0
  2 10  2  0  0  0  0
  4  9  1  0  0  0  0
 14 22  2  0  0  0  0
 21 23  1  0  0  0  0
 23 24  2  0  0  0  0
M  END
>  <cdx:fragmentId>
5

$$$$
