65752.cdx
  Mrv1902 05222410212D          

 22 26  0  0  0  0            999 V2000
    7.4260   -6.8830    0.0000 C   0  0  0  0  0  0  0  0  0  0  0  0
    6.6200   -6.7073    0.0000 C   0  0  0  0  0  0  0  0  0  0  0  0
    5.9500   -7.1887    0.0000 N   0  0  0  0  0  0  0  0  0  0  0  0
    5.2851   -6.7003    0.0000 C   0  0  0  0  0  0  0  0  0  0  0  0
    4.4772   -6.8676    0.0000 C   0  0  0  0  0  0  0  0  0  0  0  0
    3.9284   -6.2517    0.0000 C   0  0  0  0  0  0  0  0  0  0  0  0
    4.1874   -5.4684    0.0000 C   0  0  0  0  0  0  0  0  0  0  0  0
    4.9953   -5.3011    0.0000 C   0  0  0  0  0  0  0  0  0  0  0  0
    5.5441   -5.9170    0.0000 C   0  0  0  0  0  0  0  0  0  0  0  0
    6.3691   -5.9213    0.0000 C   0  0  0  0  0  0  0  0  0  0  0  0
    6.9243   -5.3111    0.0000 C   0  0  0  0  0  0  0  0  0  0  0  0
    7.7304   -5.4869    0.0000 C   0  0  0  0  0  0  0  0  0  0  0  0
    7.9813   -6.2728    0.0000 N   0  0  0  0  0  0  0  0  0  0  0  0
    8.7873   -6.4485    0.0000 C   0  0  0  0  0  0  0  0  0  0  0  0
    9.0382   -7.2345    0.0000 C   0  0  0  0  0  0  0  0  0  0  0  0
    9.8442   -7.4102    0.0000 C   0  0  0  0  0  0  0  0  0  0  0  0
   10.0951   -8.1961    0.0000 C   0  0  0  0  0  0  0  0  0  0  0  0
    9.5399   -8.8063    0.0000 C   0  0  0  0  0  0  0  0  0  0  0  0
    8.7338   -8.6306    0.0000 C   0  0  0  0  0  0  0  0  0  0  0  0
    8.4829   -7.8447    0.0000 C   0  0  0  0  0  0  0  0  0  0  0  0
    7.6769   -7.6689    0.0000 N   0  0  0  0  0  0  0  0  0  0  0  0
    9.3425   -5.8383    0.0000 O   0  0  0  0  0  0  0  0  0  0  0  0
  1  2  1  0  0  0  0
  2  3  1  0  0  0  0
  3  4  1  0  0  0  0
  4  5  2  0  0  0  0
  5  6  1  0  0  0  0
  6  7  2  0  0  0  0
  7  8  1  0  0  0  0
  8  9  2  0  0  0  0
  9 10  1  0  0  0  0
 10 11  1  0  0  0  0
 11 12  1  0  0  0  0
 12 13  1  0  0  0  0
 13 14  1  0  0  0  0
 14 15  1  0  0  0  0
 15 16  2  0  0  0  0
 16 17  1  0  0  0  0
 17 18  2  0  0  0  0
 18 19  1  0  0  0  0
 19 20  2  0  0  0  0
 20 21  1  0  0  0  0
  1 21  2  0  0  0  0
  1 13  1  0  0  0  0
 15 20  1  0  0  0  0
  2 10  2  0  0  0  0
  4  9  1  0  0  0  0
 14 22  2  0  0  0  0
M  END
>  <cdx:fragmentId>
5

$$$$
