65751.cdx
  Mrv1902 05222410212D          

 35 39  0  0  0  0            999 V2000
    9.5191   -5.6248    0.0000 C   0  0  0  0  0  0  0  0  0  0  0  0
    8.1003   -6.4672    0.0000 C   0  0  0  0  0  0  0  0  0  0  0  0
   10.2688   -8.5034    0.0000 C   0  0  0  0  0  0  0  0  0  0  0  0
    8.2465   -7.1125    0.0000 H   0  0  0  0  0  0  0  0  0  0  0  0
    8.1205   -7.2921    0.0000 C   0  0  0  0  0  0  0  0  0  0  0  0
    7.4212   -8.5382    0.0000 C   0  0  0  0  0  0  0  0  0  0  0  0
    6.7017   -9.7845    0.0000 H   0  0  0  0  0  0  0  0  0  0  0  0
    5.9924   -8.5557    0.0000 C   0  0  0  0  0  0  0  0  0  0  0  0
    6.0024  -11.0306    0.0000 H   0  0  0  0  0  0  0  0  0  0  0  0
    4.8806  -11.3413    0.0000 C   0  0  0  0  0  0  0  0  0  0  0  0
    5.7056  -11.3413    0.0000 C   0  0  0  0  0  0  0  0  0  0  0  0
    3.8642  -10.6443    0.0000 O   0  0  0  0  0  0  0  0  0  0  0  0
    5.2628   -8.1520    0.0000 O   0  0  0  0  0  0  0  0  0  0  0  0
    5.2729   -8.9770    0.0000 C   0  0  0  0  0  0  0  0  0  0  0  0
    4.5635   -9.3982    0.0000 C   0  0  0  0  0  0  0  0  0  0  0  0
    4.5736  -10.2231    0.0000 C   0  0  1  0  0  0  0  0  0  0  0  0
    5.2931  -10.6268    0.0000 C   0  0  0  0  0  0  0  0  0  0  0  0
    5.9924   -9.3807    0.0000 C   0  0  2  0  0  0  0  0  0  0  0  0
    6.0024  -10.2056    0.0000 C   0  0  1  0  0  0  0  0  0  0  0  0
    6.7219  -10.6094    0.0000 C   0  0  0  0  0  0  0  0  0  0  0  0
    7.4313  -10.1882    0.0000 C   0  0  0  0  0  0  0  0  0  0  0  0
    7.4010   -7.7134    0.0000 C   0  0  0  0  0  0  0  0  0  0  0  0
    6.6916   -8.1346    0.0000 C   0  0  0  0  0  0  0  0  0  0  0  0
    6.7017   -8.9595    0.0000 C   0  0  1  0  0  0  0  0  0  0  0  0
    7.4212   -9.3632    0.0000 C   0  0  1  0  0  0  0  0  0  0  0  0
    8.1205   -8.1171    0.0000 C   0  0  1  0  0  0  0  0  0  0  0  0
    8.1306   -8.9420    0.0000 C   0  0  0  0  0  0  0  0  0  0  0  0
    8.8500   -9.3458    0.0000 C   0  0  0  0  0  0  0  0  0  0  0  0
    9.5594   -8.9246    0.0000 C   0  0  0  0  0  0  0  0  0  0  0  0
    8.8198   -6.8709    0.0000 C   0  0  2  0  0  0  0  0  0  0  0  0
    8.8299   -7.6959    0.0000 C   0  0  2  0  0  0  0  0  0  0  0  0
    9.5493   -8.0996    0.0000 C   0  0  1  0  0  0  0  0  0  0  0  0
   10.2587   -7.6784    0.0000 C   0  0  0  0  0  0  0  0  0  0  0  0
   10.2486   -6.8535    0.0000 C   0  0  0  0  0  0  0  0  0  0  0  0
    9.5291   -6.4497    0.0000 C   0  0  1  0  0  0  0  0  0  0  0  0
 35  1  1  6  0  0  0
 30  2  1  1  0  0  0
 32  3  1  1  0  0  0
 31  4  1  1  0  0  0
 26  5  1  6  0  0  0
 25  6  1  1  0  0  0
 24  7  1  6  0  0  0
 18  8  1  1  0  0  0
 19  9  1  6  0  0  0
 17 10  1  0  0  0  0
 17 11  1  0  0  0  0
 16 12  1  1  0  0  0
 14 13  2  0  0  0  0
 14 18  1  0  0  0  0
 15 14  1  0  0  0  0
 16 15  1  0  0  0  0
 17 16  1  0  0  0  0
 19 17  1  0  0  0  0
 18 24  1  0  0  0  0
 19 18  1  0  0  0  0
 20 19  1  0  0  0  0
 21 20  1  0  0  0  0
 25 21  1  0  0  0  0
 22 26  1  0  0  0  0
 23 22  1  0  0  0  0
 24 23  1  0  0  0  0
 25 24  1  0  0  0  0
 27 25  1  0  0  0  0
 26 31  1  0  0  0  0
 27 26  1  0  0  0  0
 28 27  2  0  0  0  0
 29 28  1  0  0  0  0
 32 29  1  0  0  0  0
 30 35  1  0  0  0  0
 31 30  1  0  0  0  0
 32 31  1  0  0  0  0
 33 32  1  0  0  0  0
 34 33  1  0  0  0  0
 35 34  1  0  0  0  0
M  END
>  <cdx:fragmentId>
103

$$$$
