657679.cdx
  Mrv1902 05222410212D          

 39 43  0  0  0  0            999 V2000
    6.1229   -5.3856    0.0000 O   0  0  0  0  0  0  0  0  0  0  0  0
    9.0178   -7.8172    0.0000 O   0  0  0  0  0  0  0  0  0  0  0  0
   10.3968   -4.4960    0.0000 C   0  0  0  0  0  0  0  0  0  0  0  0
   11.1049   -4.0728    0.0000 C   0  0  0  0  0  0  0  0  0  0  0  0
   11.8255   -4.4745    0.0000 C   0  0  0  0  0  0  0  0  0  0  0  0
   11.8380   -5.2994    0.0000 C   0  0  0  0  0  0  0  0  0  0  0  0
   11.1298   -5.7226    0.0000 C   0  0  0  0  0  0  0  0  0  0  0  0
   10.4092   -5.3209    0.0000 C   0  0  0  0  0  0  0  0  0  0  0  0
    6.8808   -8.2620    0.0000 O   0  0  0  0  0  0  0  0  0  0  0  0
    5.4645   -9.1085    0.0000 O   0  0  0  0  0  0  0  0  0  0  0  0
    4.0233   -8.3051    0.0000 O   0  0  0  0  0  0  0  0  0  0  0  0
    4.7190   -7.0570    0.0000 C   0  0  0  0  0  0  0  0  0  0  0  0
    4.7314   -7.8819    0.0000 C   0  0  0  0  0  0  0  0  0  0  0  0
    5.4521   -8.2836    0.0000 C   0  0  0  0  0  0  0  0  0  0  0  0
    6.1602   -7.8603    0.0000 C   0  0  0  0  0  0  0  0  0  0  0  0
    6.1478   -7.0354    0.0000 C   0  0  0  0  0  0  0  0  0  0  0  0
    5.4272   -6.6338    0.0000 O   0  0  0  0  0  0  0  0  0  0  0  0
    7.5890   -7.8388    0.0000 O   0  0  0  0  0  0  0  0  0  0  0  0
    8.9804   -5.3425    0.0000 O   0  0  0  0  0  0  0  0  0  0  0  0
    8.2723   -5.7657    0.0000 C   0  0  0  0  0  0  0  0  0  0  0  0
    7.5517   -5.3641    0.0000 C   0  0  0  0  0  0  0  0  0  0  0  0
    6.8435   -5.7873    0.0000 C   0  0  0  0  0  0  0  0  0  0  0  0
    6.8559   -6.6122    0.0000 C   0  0  0  0  0  0  0  0  0  0  0  0
    7.5766   -7.0139    0.0000 C   0  0  0  0  0  0  0  0  0  0  0  0
    8.2847   -6.5906    0.0000 C   0  0  0  0  0  0  0  0  0  0  0  0
    9.0053   -6.9923    0.0000 C   0  0  0  0  0  0  0  0  0  0  0  0
    9.7135   -6.5691    0.0000 C   0  0  0  0  0  0  0  0  0  0  0  0
    9.7010   -5.7442    0.0000 C   0  0  0  0  0  0  0  0  0  0  0  0
    7.5392   -4.5391    0.0000 C   0  0  0  0  0  0  0  0  0  0  0  0
    8.2567   -4.1318    0.0000 O   0  0  0  0  0  0  0  0  0  0  0  0
    8.2567   -3.3069    0.0000 C   0  0  0  0  0  0  0  0  0  0  0  0
    7.5392   -2.8892    0.0000 C   0  0  0  0  0  0  0  0  0  0  0  0
    6.8218   -3.3069    0.0000 C   0  0  0  0  0  0  0  0  0  0  0  0
    6.8218   -4.1318    0.0000 C   0  0  0  0  0  0  0  0  0  0  0  0
    6.1088   -4.5469    0.0000 O   0  0  0  0  0  0  0  0  0  0  0  0
    6.1065   -2.8957    0.0000 O   0  0  0  0  0  0  0  0  0  0  0  0
    7.5392   -2.0642    0.0000 O   0  0  0  0  0  0  0  0  0  0  0  0
    8.9719   -2.8957    0.0000 C   0  0  0  0  0  0  0  0  0  0  0  0
    8.9734   -2.0707    0.0000 O   0  0  0  0  0  0  0  0  0  0  0  0
 22  1  1  0  0  0  0
 26  2  2  0  0  0  0
 28  8  1  0  0  0  0
  8  3  2  0  0  0  0
  4  3  1  0  0  0  0
  5  4  2  0  0  0  0
  6  5  1  0  0  0  0
  7  6  2  0  0  0  0
  8  7  1  0  0  0  0
 16 23  1  0  0  0  0
 15  9  1  0  0  0  0
 14 10  1  0  0  0  0
 13 11  1  0  0  0  0
 17 12  1  0  0  0  0
 13 12  1  0  0  0  0
 14 13  1  0  0  0  0
 15 14  1  0  0  0  0
 16 15  1  0  0  0  0
 17 16  1  0  0  0  0
 24 18  1  0  0  0  0
 28 19  1  0  0  0  0
 20 19  1  0  0  0  0
 25 20  2  0  0  0  0
 21 20  1  0  0  0  0
 22 21  2  0  0  0  0
 23 22  1  0  0  0  0
 24 23  2  0  0  0  0
 25 24  1  0  0  0  0
 26 25  1  0  0  0  0
 27 26  1  0  0  0  0
 28 27  2  0  0  0  0
 21 29  1  0  0  0  0
 29 30  1  0  0  0  0
 30 31  1  0  0  0  0
 31 32  1  0  0  0  0
 32 33  1  0  0  0  0
 33 34  1  0  0  0  0
 34 29  1  0  0  0  0
 34 35  1  0  0  0  0
 33 36  1  0  0  0  0
 32 37  1  0  0  0  0
 31 38  1  0  0  0  0
 38 39  1  0  0  0  0
M  END
>  <cdx:fragmentId>
5

$$$$
