90657705.cdx
  Mrv1902 05222410242D          

 53 58  0  0  0  0            999 V2000
    3.0640   -8.8275    0.0000 C   0  0  2  0  0  0  0  0  0  0  0  0
    3.0640   -9.6525    0.0000 C   0  0  2  0  0  0  0  0  0  0  0  0
    3.7785  -10.0650    0.0000 C   0  0  2  0  0  0  0  0  0  0  0  0
    4.4930   -9.6525    0.0000 C   0  0  2  0  0  0  0  0  0  0  0  0
    4.4930   -8.8275    0.0000 O   0  0  0  0  0  0  0  0  0  0  0  0
    3.7785   -8.4150    0.0000 C   0  0  1  0  0  0  0  0  0  0  0  0
    3.7785   -7.5900    0.0000 C   0  0  0  0  0  0  0  0  0  0  0  0
    2.3496   -8.4150    0.0000 O   0  0  0  0  0  0  0  0  0  0  0  0
    2.3496  -10.0650    0.0000 O   0  0  0  0  0  0  0  0  0  0  0  0
    3.7785  -10.8900    0.0000 O   0  0  0  0  0  0  0  0  0  0  0  0
    5.2074  -10.0650    0.0000 O   0  0  0  0  0  0  0  0  0  0  0  0
    5.2074  -10.8900    0.0000 C   0  0  0  0  0  0  0  0  0  0  0  0
    4.4930  -11.3025    0.0000 C   0  0  0  0  0  0  0  0  0  0  0  0
    4.4930  -12.1275    0.0000 C   0  0  0  0  0  0  0  0  0  0  0  0
    5.2074  -12.5400    0.0000 C   0  0  0  0  0  0  0  0  0  0  0  0
    5.9219  -12.1275    0.0000 C   0  0  0  0  0  0  0  0  0  0  0  0
    5.9219  -11.3025    0.0000 C   0  0  0  0  0  0  0  0  0  0  0  0
    5.2074  -13.3650    0.0000 C   0  0  0  0  0  0  0  0  0  0  0  0
    5.9219  -13.7775    0.0000 C   0  0  0  0  0  0  0  0  0  0  0  0
    6.6364  -13.3650    0.0000 C   0  0  0  0  0  0  0  0  0  0  0  0
    6.6364  -12.5400    0.0000 O   0  0  0  0  0  0  0  0  0  0  0  0
    7.3509  -13.7775    0.0000 C   0  0  0  0  0  0  0  0  0  0  0  0
    7.3509  -14.6025    0.0000 C   0  0  0  0  0  0  0  0  0  0  0  0
    8.0653  -15.0150    0.0000 C   0  0  0  0  0  0  0  0  0  0  0  0
    8.7798  -14.6025    0.0000 C   0  0  0  0  0  0  0  0  0  0  0  0
    8.7798  -13.7775    0.0000 C   0  0  0  0  0  0  0  0  0  0  0  0
    8.0653  -13.3650    0.0000 C   0  0  0  0  0  0  0  0  0  0  0  0
    9.4943  -15.0150    0.0000 O   0  0  0  0  0  0  0  0  0  0  0  0
    5.9219  -14.6025    0.0000 O   0  0  0  0  0  0  0  0  0  0  0  0
    5.2074  -15.0150    0.0000 C   0  0  0  0  0  0  0  0  0  0  0  0
    4.4930  -13.7775    0.0000 O   0  0  0  0  0  0  0  0  0  0  0  0
    4.4930  -14.6025    0.0000 O   0  0  0  0  0  0  0  0  0  0  0  0
    3.7785  -15.0150    0.0000 C   0  0  1  0  0  0  0  0  0  0  0  0
    3.7785  -15.8400    0.0000 C   0  0  2  0  0  0  0  0  0  0  0  0
    4.4930  -16.2525    0.0000 C   0  0  1  0  0  0  0  0  0  0  0  0
    5.2074  -15.8400    0.0000 C   0  0  1  0  0  0  0  0  0  0  0  0
    5.9219  -16.2525    0.0000 O   0  0  0  0  0  0  0  0  0  0  0  0
    4.4930  -17.0775    0.0000 O   0  0  0  0  0  0  0  0  0  0  0  0
    3.0640  -16.2525    0.0000 O   0  0  0  0  0  0  0  0  0  0  0  0
    3.0640  -14.6025    0.0000 C   0  0  0  0  0  0  0  0  0  0  0  0
    3.0640  -13.7775    0.0000 O   0  0  0  0  0  0  0  0  0  0  0  0
    5.9219  -17.0775    0.0000 C   0  0  0  0  0  0  0  0  0  0  0  0
    5.2074  -17.4900    0.0000 O   0  0  0  0  0  0  0  0  0  0  0  0
    5.2074  -18.3150    0.0000 C   0  0  2  0  0  0  0  0  0  0  0  0
    5.9219  -18.7275    0.0000 C   0  0  1  0  0  0  0  0  0  0  0  0
    6.6364  -18.3150    0.0000 C   0  0  2  0  0  0  0  0  0  0  0  0
    6.6364  -17.4900    0.0000 C   0  0  2  0  0  0  0  0  0  0  0  0
    7.3509  -17.0775    0.0000 O   0  0  0  0  0  0  0  0  0  0  0  0
    7.3509  -18.7275    0.0000 O   0  0  0  0  0  0  0  0  0  0  0  0
    5.9219  -19.5525    0.0000 O   0  0  0  0  0  0  0  0  0  0  0  0
    4.4930  -18.7275    0.0000 C   0  0  0  0  0  0  0  0  0  0  0  0
    4.4930  -19.5525    0.0000 O   0  0  0  0  0  0  0  0  0  0  0  0
    3.7785  -12.5400    0.0000 O   0  0  0  0  0  0  0  0  0  0  0  0
  1  2  1  0  0  0  0
  2  3  1  0  0  0  0
  3  4  1  0  0  0  0
  4  5  1  0  0  0  0
  5  6  1  0  0  0  0
  6  1  1  0  0  0  0
  6  7  1  6  0  0  0
  1  8  1  1  0  0  0
  2  9  1  6  0  0  0
  3 10  1  6  0  0  0
  4 11  1  6  0  0  0
 11 12  1  0  0  0  0
 12 13  2  0  0  0  0
 13 14  1  0  0  0  0
 14 15  2  0  0  0  0
 15 16  1  0  0  0  0
 16 17  2  0  0  0  0
 17 12  1  0  0  0  0
 15 18  1  0  0  0  0
 18 19  1  0  0  0  0
 19 20  2  0  0  0  0
 20 21  1  0  0  0  0
 21 16  1  0  0  0  0
 20 22  1  0  0  0  0
 22 23  2  0  0  0  0
 23 24  1  0  0  0  0
 24 25  2  0  0  0  0
 25 26  1  0  0  0  0
 26 27  2  0  0  0  0
 27 22  1  0  0  0  0
 25 28  1  0  0  0  0
 19 29  1  0  0  0  0
 29 30  1  1  0  0  0
 18 31  2  0  0  0  0
 30 32  1  0  0  0  0
 32 33  1  0  0  0  0
 33 34  1  0  0  0  0
 34 35  1  0  0  0  0
 35 36  1  0  0  0  0
 36 30  1  0  0  0  0
 36 37  1  6  0  0  0
 35 38  1  1  0  0  0
 34 39  1  6  0  0  0
 33 40  1  1  0  0  0
 40 41  1  0  0  0  0
 37 42  1  6  0  0  0
 42 43  1  0  0  0  0
 43 44  1  0  0  0  0
 44 45  1  0  0  0  0
 45 46  1  0  0  0  0
 46 47  1  0  0  0  0
 47 42  1  0  0  0  0
 47 48  1  1  0  0  0
 46 49  1  6  0  0  0
 45 50  1  1  0  0  0
 44 51  1  6  0  0  0
 51 52  1  0  0  0  0
 14 53  1  0  0  0  0
M  END
>  <cdx:fragmentId>
51540

$$$$
