6579.cdx
  Mrv1902 05222410242D          

  5  4  0  0  0  0            999 V2000
    5.8644   -4.1932    0.0000 N   0  0  0  0  0  0  0  0  0  0  0  0
    6.5789   -2.9557    0.0000 O   0  0  0  0  0  0  0  0  0  0  0  0
    8.0078   -3.7807    0.0000 C   0  0  0  0  0  0  0  0  0  0  0  0
    7.2934   -4.1932    0.0000 C   0  0  0  0  0  0  0  0  0  0  0  0
    6.5789   -3.7807    0.0000 C   0  0  0  0  0  0  0  0  0  0  0  0
  5  1  1  0  0  0  0
  5  2  2  0  0  0  0
  4  3  2  0  0  0  0
  5  4  1  0  0  0  0
M  END
>  <cdx:groupId>
16

>  <cdx:fragmentId>
5

$$$$
