658050.cdx
  Mrv1902 05222410272D          

 50 55  0  0  0  0            999 V2000
    8.6809   -5.0932    0.0000 C   0  0  2  0  0  0  0  0  0  0  0  0
    9.3954   -4.6807    0.0000 C   0  0  0  0  0  0  0  0  0  0  0  0
   10.1099   -5.0932    0.0000 C   0  0  0  0  0  0  0  0  0  0  0  0
   10.1099   -5.9182    0.0000 C   0  0  0  0  0  0  0  0  0  0  0  0
    9.3954   -6.3307    0.0000 C   0  0  2  0  0  0  0  0  0  0  0  0
    9.3954   -7.1557    0.0000 C   0  0  0  0  0  0  0  0  0  0  0  0
    8.6809   -7.5682    0.0000 C   0  0  0  0  0  0  0  0  0  0  0  0
    7.9664   -7.1557    0.0000 C   0  0  1  0  0  0  0  0  0  0  0  0
    7.2520   -7.5682    0.0000 C   0  0  2  0  0  0  0  0  0  0  0  0
    7.2520   -8.3932    0.0000 C   0  0  0  0  0  0  0  0  0  0  0  0
    6.5375   -8.8057    0.0000 C   0  0  0  0  0  0  0  0  0  0  0  0
    5.8230   -8.3932    0.0000 C   0  0  1  0  0  0  0  0  0  0  0  0
    5.1086   -8.8057    0.0000 C   0  0  2  0  0  0  0  0  0  0  0  0
    4.3941   -8.3932    0.0000 C   0  0  2  0  0  0  0  0  0  0  0  0
    4.3941   -7.5682    0.0000 C   0  0  1  0  0  0  0  0  0  0  0  0
    5.1086   -7.1557    0.0000 C   0  0  0  0  0  0  0  0  0  0  0  0
    5.8230   -7.5682    0.0000 C   0  0  2  0  0  0  0  0  0  0  0  0
    6.5375   -7.1557    0.0000 C   0  0  1  0  0  0  0  0  0  0  0  0
    6.5375   -6.3307    0.0000 C   0  0  0  0  0  0  0  0  0  0  0  0
    7.2520   -5.9182    0.0000 C   0  0  0  0  0  0  0  0  0  0  0  0
    7.9664   -6.3307    0.0000 C   0  0  0  0  0  0  0  0  0  0  0  0
    8.6809   -5.9182    0.0000 C   0  0  2  0  0  0  0  0  0  0  0  0
    5.8230   -6.7432    0.0000 C   0  0  0  0  0  0  0  0  0  0  0  0
    4.6961   -9.5202    0.0000 C   0  0  0  0  0  0  0  0  0  0  0  0
    7.2520   -6.7432    0.0000 C   0  0  0  0  0  0  0  0  0  0  0  0
    7.9664   -7.9807    0.0000 C   0  0  0  0  0  0  0  0  0  0  0  0
    8.9829   -3.9662    0.0000 C   0  0  0  0  0  0  0  0  0  0  0  0
    9.8079   -3.9662    0.0000 C   0  0  0  0  0  0  0  0  0  0  0  0
    5.5211   -9.5202    0.0000 C   0  0  0  0  0  0  0  0  0  0  0  0
    5.1086  -10.2346    0.0000 O   0  0  0  0  0  0  0  0  0  0  0  0
    3.6796   -7.1557    0.0000 O   0  0  0  0  0  0  0  0  0  0  0  0
    3.6796   -8.8057    0.0000 O   0  0  0  0  0  0  0  0  0  0  0  0
    7.9664   -4.6807    0.0000 O   0  0  0  0  0  0  0  0  0  0  0  0
    5.8230   -9.2182    0.0000 H   0  0  0  0  0  0  0  0  0  0  0  0
    8.6809   -6.7432    0.0000 H   0  0  0  0  0  0  0  0  0  0  0  0
   10.9200   -9.0056    0.0000 O   0  0  0  0  0  0  0  0  0  0  0  0
   10.0803  -10.4259    0.0000 O   0  0  0  0  0  0  0  0  0  0  0  0
    8.4303  -10.4088    0.0000 O   0  0  0  0  0  0  0  0  0  0  0  0
    7.2003   -9.6816    0.0000 O   0  0  0  0  0  0  0  0  0  0  0  0
    7.6202   -8.9714    0.0000 C   0  0  0  0  0  0  0  0  0  0  0  0
    8.4451   -8.9800    0.0000 C   0  0  2  0  0  0  0  0  0  0  0  0
    8.8502   -9.6987    0.0000 C   0  0  2  0  0  0  0  0  0  0  0  0
    9.6752   -9.7072    0.0000 C   0  0  1  0  0  0  0  0  0  0  0  0
   10.0951   -8.9971    0.0000 C   0  0  2  0  0  0  0  0  0  0  0  0
    9.6900   -8.2784    0.0000 C   0  0  1  0  0  0  0  0  0  0  0  0
    8.8650   -8.2698    0.0000 O   0  0  0  0  0  0  0  0  0  0  0  0
   10.1099   -7.5682    0.0000 O   0  0  0  0  0  0  0  0  0  0  0  0
   10.8243   -6.3307    0.0000 O   0  0  0  0  0  0  0  0  0  0  0  0
   10.1099   -6.7432    0.0000 C   0  0  0  0  0  0  0  0  0  0  0  0
    6.5375   -7.9807    0.0000 H   0  0  0  0  0  0  0  0  0  0  0  0
 45 47  1  1  0  0  0
 44 36  1  6  0  0  0
 43 37  1  1  0  0  0
 42 38  1  6  0  0  0
 41 40  1  1  0  0  0
 40 39  1  0  0  0  0
 46 41  1  0  0  0  0
 42 41  1  0  0  0  0
 43 42  1  0  0  0  0
 44 43  1  0  0  0  0
 45 44  1  0  0  0  0
 46 45  1  0  0  0  0
 49 47  1  0  0  0  0
 49 48  2  0  0  0  0
  1  2  1  0  0  0  0
  2  3  1  0  0  0  0
  3  4  1  0  0  0  0
  4  5  1  0  0  0  0
  5  6  1  0  0  0  0
  6  7  1  0  0  0  0
  7  8  1  0  0  0  0
  8  9  1  0  0  0  0
  9 10  1  0  0  0  0
 10 11  1  0  0  0  0
 11 12  1  0  0  0  0
 12 13  1  0  0  0  0
 13 14  1  0  0  0  0
 14 15  1  0  0  0  0
 15 16  1  0  0  0  0
 16 17  1  0  0  0  0
 12 17  1  0  0  0  0
 17 18  1  0  0  0  0
  9 18  1  0  0  0  0
 18 19  1  0  0  0  0
 19 20  1  0  0  0  0
 20 21  2  0  0  0  0
  8 21  1  0  0  0  0
 21 22  1  0  0  0  0
  5 22  1  0  0  0  0
  1 22  1  0  0  0  0
  5 49  1  1  0  0  0
 17 23  1  1  0  0  0
 13 24  1  1  0  0  0
  9 25  1  1  0  0  0
  8 26  1  6  0  0  0
  2 27  1  0  0  0  0
  2 28  1  0  0  0  0
 29 30  1  0  0  0  0
 13 29  1  6  0  0  0
 15 31  1  6  0  0  0
 14 32  1  1  0  0  0
  1 33  1  6  0  0  0
 12 34  1  6  0  0  0
 22 35  1  1  0  0  0
 18 50  1  6  0  0  0
M  END
>  <cdx:fragmentId>
2775

$$$$
