658163.cdx
  Mrv1902 05222410222D          

 15 17  0  0  0  0            999 V2000
    7.5449   -7.0353    0.0000 C   0  0  0  0  0  0  0  0  0  0  0  0
    7.3098   -7.8262    0.0000 C   0  0  1  0  0  0  0  0  0  0  0  0
    6.4851   -7.8470    0.0000 C   0  0  0  0  0  0  0  0  0  0  0  0
    6.2104   -7.0691    0.0000 C   0  0  0  0  0  0  0  0  0  0  0  0
    6.8654   -6.5674    0.0000 C   0  0  1  0  0  0  0  0  0  0  0  0
    7.1004   -5.7766    0.0000 C   0  0  0  0  0  0  0  0  0  0  0  0
    7.9252   -5.7558    0.0000 C   0  0  0  0  0  0  0  0  0  0  0  0
    8.1998   -6.5337    0.0000 C   0  0  2  0  0  0  0  0  0  0  0  0
    8.8793   -7.0016    0.0000 C   0  0  0  0  0  0  0  0  0  0  0  0
    8.6443   -7.7924    0.0000 C   0  0  0  0  0  0  0  0  0  0  0  0
    7.8196   -7.8133    0.0000 C   0  0  0  0  0  0  0  0  0  0  0  0
    6.5988   -5.1217    0.0000 C   0  0  0  0  0  0  0  0  0  0  0  0
    8.8548   -6.0321    0.0000 C   0  0  0  0  0  0  0  0  0  0  0  0
    6.1859   -6.0996    0.0000 C   0  0  0  0  0  0  0  0  0  0  0  0
    7.8115   -8.4811    0.0000 C   0  0  0  0  0  0  0  0  0  0  0  0
  1  2  1  0  0  0  0
  2  3  1  0  0  0  0
  3  4  1  0  0  0  0
  4  5  1  0  0  0  0
  5  6  1  0  0  0  0
  6  7  1  0  0  0  0
  7  8  1  0  0  0  0
  8  9  1  0  0  0  0
  9 10  1  0  0  0  0
 10 11  1  0  0  0  0
  1 11  1  0  0  0  0
  1  8  1  0  0  0  0
  1  5  1  0  0  0  0
  6 12  2  0  0  0  0
  8 13  1  1  0  0  0
  5 14  1  6  0  0  0
  2 15  1  6  0  0  0
M  END
>  <cdx:fragmentId>
5

$$$$
