65830.cdx
  Mrv1902 05222410252D          

 25 28  0  0  0  0            999 V2000
    9.3377   -5.5511    0.0000 C   0  0  0  0  0  0  0  0  0  0  0  0
    8.6225   -5.9624    0.0000 C   0  0  0  0  0  0  0  0  0  0  0  0
    8.6212   -6.7874    0.0000 C   0  0  0  0  0  0  0  0  0  0  0  0
    9.3349   -7.2011    0.0000 C   0  0  0  0  0  0  0  0  0  0  0  0
   10.0515   -5.9648    0.0000 C   0  0  0  0  0  0  0  0  0  0  0  0
   10.0501   -6.7898    0.0000 C   0  0  0  0  0  0  0  0  0  0  0  0
   10.8343   -7.0461    0.0000 O   0  0  0  0  0  0  0  0  0  0  0  0
   11.3203   -6.3794    0.0000 C   0  0  0  0  0  0  0  0  0  0  0  0
   10.8365   -5.7112    0.0000 O   0  0  0  0  0  0  0  0  0  0  0  0
    7.9060   -7.1987    0.0000 C   0  0  0  0  0  0  0  0  0  0  0  0
    5.0467   -8.0189    0.0000 O   0  0  0  0  0  0  0  0  0  0  0  0
    3.6219   -5.5415    0.0000 O   0  0  0  0  0  0  0  0  0  0  0  0
    3.6192   -7.1915    0.0000 C   0  0  0  0  0  0  0  0  0  0  0  0
    5.0523   -4.7189    0.0000 C   0  0  0  0  0  0  0  0  0  0  0  0
    6.4757   -8.0213    0.0000 O   0  0  0  0  0  0  0  0  0  0  0  0
    6.4798   -5.5463    0.0000 O   0  0  0  0  0  0  0  0  0  0  0  0
    5.7647   -5.9576    0.0000 C   0  0  0  0  0  0  0  0  0  0  0  0
    5.0509   -5.5439    0.0000 C   0  0  0  0  0  0  0  0  0  0  0  0
    4.3357   -5.9552    0.0000 C   0  0  0  0  0  0  0  0  0  0  0  0
    4.3343   -6.7802    0.0000 C   0  0  0  0  0  0  0  0  0  0  0  0
    5.0481   -7.1939    0.0000 C   0  0  0  0  0  0  0  0  0  0  0  0
    5.7633   -6.7826    0.0000 C   0  0  0  0  0  0  0  0  0  0  0  0
    6.4771   -7.1963    0.0000 C   0  0  0  0  0  0  0  0  0  0  0  0
    7.1922   -6.7850    0.0000 C   0  0  0  0  0  0  0  0  0  0  0  0
    7.1936   -5.9600    0.0000 C   0  0  0  0  0  0  0  0  0  0  0  0
 24 10  1  0  0  0  0
 10  3  1  0  0  0  0
  4  6  2  0  0  0  0
  1  5  2  0  0  0  0
  2  1  1  0  0  0  0
  3  2  2  0  0  0  0
  4  3  1  0  0  0  0
  9  5  1  0  0  0  0
  6  5  1  0  0  0  0
  7  6  1  0  0  0  0
  8  7  1  0  0  0  0
  9  8  1  0  0  0  0
 21 11  1  0  0  0  0
 19 12  1  0  0  0  0
 20 13  1  0  0  0  0
 18 14  1  0  0  0  0
 23 15  2  0  0  0  0
 25 16  1  0  0  0  0
 17 16  1  0  0  0  0
 22 17  2  0  0  0  0
 18 17  1  0  0  0  0
 19 18  2  0  0  0  0
 20 19  1  0  0  0  0
 21 20  2  0  0  0  0
 22 21  1  0  0  0  0
 23 22  1  0  0  0  0
 24 23  1  0  0  0  0
 25 24  2  0  0  0  0
M  END
>  <cdx:groupId>
38771

>  <cdx:fragmentId>
38696

$$$$
