6584.cdx
  Mrv1902 05222410232D          

  5  4  0  0  0  0            999 V2000
    6.8230   -2.7989    0.0000 C   0  0  0  0  0  0  0  0  0  0  0  0
    6.1085   -3.2114    0.0000 C   0  0  0  0  0  0  0  0  0  0  0  0
    6.8230   -1.9739    0.0000 O   0  0  0  0  0  0  0  0  0  0  0  0
    7.5375   -3.2114    0.0000 O   0  0  0  0  0  0  0  0  0  0  0  0
    8.2520   -2.7989    0.0000 C   0  0  0  0  0  0  0  0  0  0  0  0
  1  2  1  0  0  0  0
  1  3  2  0  0  0  0
  1  4  1  0  0  0  0
  4  5  1  0  0  0  0
M  END
>  <cdx:fragmentId>
5

$$$$
