6590.cdx
  Mrv1902 05222410232D          

  6  5  0  0  0  0            999 V2000
    7.1061   -3.5139    0.0000 C   0  0  0  0  0  0  0  0  0  0  0  0
    6.3917   -3.9264    0.0000 C   0  0  0  0  0  0  0  0  0  0  0  0
    6.3917   -4.7514    0.0000 C   0  0  0  0  0  0  0  0  0  0  0  0
    7.1061   -2.6889    0.0000 O   0  0  0  0  0  0  0  0  0  0  0  0
    7.8206   -3.9264    0.0000 O   0  0  0  0  0  0  0  0  0  0  0  0
    5.6772   -3.5139    0.0000 C   0  0  0  0  0  0  0  0  0  0  0  0
  1  2  1  0  0  0  0
  2  3  1  0  0  0  0
  1  4  2  0  0  0  0
  1  5  1  0  0  0  0
  2  6  1  0  0  0  0
M  END
>  <cdx:fragmentId>
5

$$$$
