660.cdx
  Mrv1902 05222410182D          

 11 12  0  0  0  0            999 V2000
    8.8583   -4.3035    0.0000 C   0  0  0  0  0  0  0  0  0  0  0  0
    8.8583   -5.1285    0.0000 C   0  0  0  0  0  0  0  0  0  0  0  0
    8.1439   -5.5410    0.0000 C   0  0  0  0  0  0  0  0  0  0  0  0
    7.4294   -5.1285    0.0000 C   0  0  0  0  0  0  0  0  0  0  0  0
    6.7149   -5.5410    0.0000 C   0  0  0  0  0  0  0  0  0  0  0  0
    6.0004   -5.1285    0.0000 C   0  0  0  0  0  0  0  0  0  0  0  0
    6.0004   -4.3035    0.0000 C   0  0  0  0  0  0  0  0  0  0  0  0
    6.7149   -3.8910    0.0000 C   0  0  0  0  0  0  0  0  0  0  0  0
    7.4294   -4.3035    0.0000 C   0  0  0  0  0  0  0  0  0  0  0  0
    8.1439   -3.8910    0.0000 O   0  0  0  0  0  0  0  0  0  0  0  0
    9.5728   -3.8910    0.0000 O   0  0  0  0  0  0  0  0  0  0  0  0
  1  2  1  0  0  0  0
  2  3  1  0  0  0  0
  3  4  1  0  0  0  0
  4  5  1  0  0  0  0
  5  6  2  0  0  0  0
  6  7  1  0  0  0  0
  7  8  2  0  0  0  0
  8  9  1  0  0  0  0
  4  9  2  0  0  0  0
  9 10  1  0  0  0  0
  1 10  1  0  0  0  0
  1 11  2  0  0  0  0
M  END
>  <cdx:groupId>
36

>  <cdx:fragmentId>
5

$$$$
