6603.cdx
  Mrv1902 05222410222D          

 19 20  0  0  0  0            999 V2000
    5.6600   -5.7990    0.0000 C   0  0  0  0  0  0  0  0  0  0  0  0
    5.6600   -6.6240    0.0000 O   0  0  0  0  0  0  0  0  0  0  0  0
    7.0889   -6.6240    0.0000 O   0  0  0  0  0  0  0  0  0  0  0  0
    6.3744   -7.0365    0.0000 C   0  0  0  0  0  0  0  0  0  0  0  0
    9.0744  -10.3610    0.0000 O   0  0  0  0  0  0  0  0  0  0  0  0
    8.2775  -10.1475    0.0000 C   0  0  0  0  0  0  0  0  0  0  0  0
    6.3744  -10.3365    0.0000 O   0  0  0  0  0  0  0  0  0  0  0  0
    7.3024   -9.8959    0.0000 H   0  0  0  0  0  0  0  0  0  0  0  0
    7.3024   -7.4771    0.0000 H   0  0  0  0  0  0  0  0  0  0  0  0
    8.2860   -7.3046    0.0000 O   0  0  0  0  0  0  0  0  0  0  0  0
    7.8735   -9.3539    0.0000 C   0  0  0  0  0  0  0  0  0  0  0  0
    8.3585   -8.6865    0.0000 C   0  0  0  0  0  0  0  0  0  0  0  0
    7.8735   -8.0190    0.0000 C   0  0  2  0  0  0  0  0  0  0  0  0
    6.3744   -7.8615    0.0000 C   0  0  0  0  0  0  0  0  0  0  0  0
    5.6600   -8.2740    0.0000 C   0  0  0  0  0  0  0  0  0  0  0  0
    5.6600   -9.0990    0.0000 O   0  0  0  0  0  0  0  0  0  0  0  0
    6.3744   -9.5115    0.0000 C   0  0  2  0  0  0  0  0  0  0  0  0
    7.0889   -9.0990    0.0000 C   0  0  1  0  0  0  0  0  0  0  0  0
    7.0889   -8.2740    0.0000 C   0  0  2  0  0  0  0  0  0  0  0  0
  2  1  1  0  0  0  0
  4  2  1  0  0  0  0
  4  3  2  0  0  0  0
 14  4  1  0  0  0  0
  6  5  1  0  0  0  0
 11  6  1  0  0  0  0
 17  7  1  6  0  0  0
 18  8  1  6  0  0  0
 19  9  1  6  0  0  0
 13 10  1  6  0  0  0
 11 18  1  0  0  0  0
 12 11  2  0  0  0  0
 13 12  1  0  0  0  0
 19 13  1  0  0  0  0
 14 19  1  0  0  0  0
 15 14  2  0  0  0  0
 16 15  1  0  0  0  0
 17 16  1  0  0  0  0
 18 17  1  0  0  0  0
 19 18  1  0  0  0  0
M  END
>  <cdx:fragmentId>
5

$$$$
