66065.cdx
  Mrv1902 05222410212D          

 25 27  0  0  0  0            999 V2000
    6.4522   -5.5971    0.0000 O   0  0  0  0  0  0  0  0  0  0  0  0
    6.4522   -4.7721    0.0000 C   0  0  1  0  0  0  0  0  0  0  0  0
    5.7377   -4.3596    0.0000 C   0  0  2  0  0  0  0  0  0  0  0  0
    5.0233   -4.7721    0.0000 C   0  0  0  0  0  0  0  0  0  0  0  0
    4.3088   -4.3596    0.0000 C   0  0  0  0  0  0  0  0  0  0  0  0
    3.5943   -4.7721    0.0000 C   0  0  0  0  0  0  0  0  0  0  0  0
    3.5943   -5.5971    0.0000 C   0  0  0  0  0  0  0  0  0  0  0  0
    4.3088   -6.0096    0.0000 C   0  0  0  0  0  0  0  0  0  0  0  0
    5.0233   -5.5971    0.0000 C   0  0  0  0  0  0  0  0  0  0  0  0
    5.7377   -6.0096    0.0000 C   0  0  0  0  0  0  0  0  0  0  0  0
    7.1667   -4.3596    0.0000 C   0  0  2  0  0  0  0  0  0  0  0  0
    7.1667   -3.5346    0.0000 C   0  0  1  0  0  0  0  0  0  0  0  0
    6.4522   -3.1221    0.0000 C   0  0  2  0  0  0  0  0  0  0  0  0
    5.7377   -3.5346    0.0000 O   0  0  0  0  0  0  0  0  0  0  0  0
    5.7377   -6.8346    0.0000 O   0  0  0  0  0  0  0  0  0  0  0  0
    2.8799   -4.3596    0.0000 O   0  0  0  0  0  0  0  0  0  0  0  0
    2.1654   -4.7721    0.0000 C   0  0  0  0  0  0  0  0  0  0  0  0
    6.4522   -2.2971    0.0000 C   0  0  0  0  0  0  0  0  0  0  0  0
    7.1667   -1.8846    0.0000 O   0  0  0  0  0  0  0  0  0  0  0  0
    4.3088   -3.5346    0.0000 O   0  0  0  0  0  0  0  0  0  0  0  0
    2.8799   -6.0096    0.0000 O   0  0  0  0  0  0  0  0  0  0  0  0
    7.8811   -4.7721    0.0000 O   0  0  0  0  0  0  0  0  0  0  0  0
    7.8811   -3.1221    0.0000 O   0  0  0  0  0  0  0  0  0  0  0  0
    7.1667   -5.1846    0.0000 H   0  0  0  0  0  0  0  0  0  0  0  0
    5.0233   -3.9471    0.0000 H   0  0  0  0  0  0  0  0  0  0  0  0
  1  2  1  0  0  0  0
  2  3  1  0  0  0  0
  3  4  1  0  0  0  0
  4  5  1  0  0  0  0
  5  6  2  0  0  0  0
  6  7  1  0  0  0  0
  7  8  2  0  0  0  0
  8  9  1  0  0  0  0
  4  9  2  0  0  0  0
  9 10  1  0  0  0  0
  1 10  1  0  0  0  0
 11 12  1  0  0  0  0
 12 13  1  0  0  0  0
 13 14  1  0  0  0  0
 11  2  1  0  0  0  0
 14  3  1  0  0  0  0
 10 15  2  0  0  0  0
 16 17  1  0  0  0  0
  6 16  1  0  0  0  0
 18 19  1  0  0  0  0
 13 18  1  6  0  0  0
  5 20  1  0  0  0  0
  7 21  1  0  0  0  0
 11 22  1  6  0  0  0
 12 23  1  1  0  0  0
  2 24  1  6  0  0  0
  3 25  1  1  0  0  0
M  END
>  <cdx:groupId>
79

>  <cdx:fragmentId>
5

$$$$
