6608.cdx
  Mrv1902 05222410252D          

 28 29  0  0  0  0            999 V2000
    5.3996   -6.2206    0.0000 C   0  0  0  0  0  0  0  0  0  0  0  0
    6.1141   -6.6331    0.0000 C   0  0  0  0  0  0  0  0  0  0  0  0
    6.8286   -6.2206    0.0000 C   0  0  0  0  0  0  0  0  0  0  0  0
    7.5430   -6.6331    0.0000 C   0  0  0  0  0  0  0  0  0  0  0  0
    8.2575   -6.2206    0.0000 C   0  0  0  0  0  0  0  0  0  0  0  0
    8.9720   -6.6331    0.0000 C   0  0  0  0  0  0  0  0  0  0  0  0
    9.6865   -6.2206    0.0000 C   0  0  0  0  0  0  0  0  0  0  0  0
    6.8286   -5.3956    0.0000 O   0  0  0  0  0  0  0  0  0  0  0  0
    3.9612   -7.8568    0.0000 C   0  0  0  0  0  0  0  0  0  0  0  0
    3.2467   -7.4443    0.0000 C   0  0  0  0  0  0  0  0  0  0  0  0
    3.2467   -6.6193    0.0000 C   0  0  0  0  0  0  0  0  0  0  0  0
    3.9612   -6.2068    0.0000 C   0  0  0  0  0  0  0  0  0  0  0  0
    4.6756   -6.6193    0.0000 C   0  0  0  0  0  0  0  0  0  0  0  0
    4.6756   -7.4443    0.0000 C   0  0  0  0  0  0  0  0  0  0  0  0
    3.9612   -8.6818    0.0000 O   0  0  0  0  0  0  0  0  0  0  0  0
    2.5322   -7.8568    0.0000 O   0  0  0  0  0  0  0  0  0  0  0  0
   10.4009   -6.6331    0.0000 C   0  0  0  0  0  0  0  0  0  0  0  0
   11.1154   -6.2206    0.0000 C   0  0  0  0  0  0  0  0  0  0  0  0
   11.8299   -6.6331    0.0000 C   0  0  0  0  0  0  0  0  0  0  0  0
   11.8299   -7.4581    0.0000 C   0  0  0  0  0  0  0  0  0  0  0  0
   11.1154   -7.8706    0.0000 C   0  0  0  0  0  0  0  0  0  0  0  0
   10.4009   -7.4581    0.0000 C   0  0  0  0  0  0  0  0  0  0  0  0
   12.5443   -7.8706    0.0000 O   0  0  0  0  0  0  0  0  0  0  0  0
   11.1154   -8.6956    0.0000 O   0  0  0  0  0  0  0  0  0  0  0  0
   12.5443   -6.2206    0.0000 O   0  0  0  0  0  0  0  0  0  0  0  0
   13.2588   -6.6331    0.0000 C   0  0  0  0  0  0  0  0  0  0  0  0
   11.8299   -9.1081    0.0000 C   0  0  0  0  0  0  0  0  0  0  0  0
    3.2467   -9.0943    0.0000 C   0  0  0  0  0  0  0  0  0  0  0  0
  1  2  2  0  0  0  0
  2  3  1  0  0  0  0
  3  4  1  0  0  0  0
  4  5  2  0  0  0  0
  5  6  1  0  0  0  0
  6  7  2  0  0  0  0
  3  8  2  0  0  0  0
  9 10  2  0  0  0  0
 10 11  1  0  0  0  0
 11 12  2  0  0  0  0
 12 13  1  0  0  0  0
 13 14  2  0  0  0  0
 14  9  1  0  0  0  0
  9 15  1  0  0  0  0
 10 16  1  0  0  0  0
 13  1  1  0  0  0  0
  7 17  1  0  0  0  0
 17 18  2  0  0  0  0
 18 19  1  0  0  0  0
 19 20  2  0  0  0  0
 20 21  1  0  0  0  0
 21 22  2  0  0  0  0
 22 17  1  0  0  0  0
 20 23  1  0  0  0  0
 21 24  1  0  0  0  0
 19 25  1  0  0  0  0
 25 26  1  0  0  0  0
 24 27  1  0  0  0  0
 15 28  1  0  0  0  0
M  END
>  <cdx:fragmentId>
27

$$$$
