66088.cdx
  Mrv1902 05222410222D          

 10 10  0  0  0  0            999 V2000
    5.2174   -2.2973    0.0000 C   0  0  0  0  0  0  0  0  0  0  0  0
    5.2174   -3.1223    0.0000 C   0  0  0  0  0  0  0  0  0  0  0  0
    4.5030   -3.5348    0.0000 C   0  0  0  0  0  0  0  0  0  0  0  0
    3.7885   -3.1223    0.0000 C   0  0  0  0  0  0  0  0  0  0  0  0
    3.7885   -2.2973    0.0000 C   0  0  0  0  0  0  0  0  0  0  0  0
    4.5030   -1.8848    0.0000 C   0  0  0  0  0  0  0  0  0  0  0  0
    4.5030   -4.3598    0.0000 C   0  0  0  0  0  0  0  0  0  0  0  0
    5.9319   -1.8848    0.0000 C   0  0  0  0  0  0  0  0  0  0  0  0
    5.9319   -3.5348    0.0000 O   0  0  0  0  0  0  0  0  0  0  0  0
    6.6464   -3.1223    0.0000 C   0  0  0  0  0  0  0  0  0  0  0  0
  1  2  1  0  0  0  0
  2  3  2  0  0  0  0
  3  4  1  0  0  0  0
  4  5  2  0  0  0  0
  5  6  1  0  0  0  0
  1  6  2  0  0  0  0
  3  7  1  0  0  0  0
  1  8  1  0  0  0  0
  9 10  1  0  0  0  0
  2  9  1  0  0  0  0
M  END
>  <cdx:groupId>
32

>  <cdx:fragmentId>
5

$$$$
