66093.cdx
  Mrv1902 05222410242D          

 12 12  0  0  0  0            999 V2000
    4.2827   -3.1485    0.0000 C   0  0  0  0  0  0  0  0  0  0  0  0
    4.9972   -3.5610    0.0000 C   0  0  0  0  0  0  0  0  0  0  0  0
    5.7116   -3.1485    0.0000 C   0  0  0  0  0  0  0  0  0  0  0  0
    6.4261   -3.5610    0.0000 C   0  0  0  0  0  0  0  0  0  0  0  0
    7.1406   -3.1485    0.0000 C   0  0  0  0  0  0  0  0  0  0  0  0
    4.2827   -2.3235    0.0000 O   0  0  0  0  0  0  0  0  0  0  0  0
    3.5682   -3.5610    0.0000 C   0  0  0  0  0  0  0  0  0  0  0  0
    3.5682   -4.3860    0.0000 C   0  0  0  0  0  0  0  0  0  0  0  0
    2.8538   -4.7985    0.0000 C   0  0  0  0  0  0  0  0  0  0  0  0
    2.1393   -4.3860    0.0000 C   0  0  0  0  0  0  0  0  0  0  0  0
    2.1393   -3.5610    0.0000 C   0  0  0  0  0  0  0  0  0  0  0  0
    2.8538   -3.1485    0.0000 C   0  0  0  0  0  0  0  0  0  0  0  0
  1  2  1  0  0  0  0
  2  3  1  0  0  0  0
  3  4  1  0  0  0  0
  4  5  1  0  0  0  0
  1  6  2  0  0  0  0
  7  8  1  0  0  0  0
  8  9  2  0  0  0  0
  9 10  1  0  0  0  0
 10 11  2  0  0  0  0
 11 12  1  0  0  0  0
  7 12  2  0  0  0  0
  1  7  1  0  0  0  0
M  END
>  <cdx:groupId>
38

>  <cdx:fragmentId>
17

$$$$
