661272.cdx
  Mrv1902 05222410252D          

 40 43  0  0  0  0            999 V2000
    9.1269   -6.1325    0.0000 C   0  0  0  0  0  0  0  0  0  0  0  0
    8.5749   -5.5194    0.0000 C   0  0  0  0  0  0  0  0  0  0  0  0
    9.9339   -5.9610    0.0000 O   0  0  0  0  0  0  0  0  0  0  0  0
    8.8720   -6.9171    0.0000 O   0  0  0  0  0  0  0  0  0  0  0  0
   11.3664   -7.3884    0.0000 C   0  0  0  0  0  0  0  0  0  0  0  0
   10.7830   -7.9718    0.0000 C   0  0  0  0  0  0  0  0  0  0  0  0
   10.2310   -7.3587    0.0000 C   0  0  2  0  0  0  0  0  0  0  0  0
    9.4240   -7.5302    0.0000 C   0  0  2  0  0  0  0  0  0  0  0  0
    9.1691   -8.3148    0.0000 C   0  0  0  0  0  0  0  0  0  0  0  0
    8.3621   -8.4864    0.0000 C   0  0  1  0  0  0  0  0  0  0  0  0
    7.8101   -7.8733    0.0000 C   0  0  0  0  0  0  0  0  0  0  0  0
   10.1996   -8.5552    0.0000 C   0  0  0  0  0  0  0  0  0  0  0  0
    4.4646  -10.3509    0.0000 C   0  0  0  0  0  0  0  0  0  0  0  0
    3.7502  -10.7634    0.0000 C   0  0  0  0  0  0  0  0  0  0  0  0
    3.7502  -11.5884    0.0000 C   0  0  0  0  0  0  0  0  0  0  0  0
    4.4646  -12.0009    0.0000 C   0  0  0  0  0  0  0  0  0  0  0  0
    5.1791  -11.5884    0.0000 C   0  0  2  0  0  0  0  0  0  0  0  0
    5.8936  -12.0009    0.0000 C   0  0  0  0  0  0  0  0  0  0  0  0
    6.6081  -11.5884    0.0000 C   0  0  0  0  0  0  0  0  0  0  0  0
    6.6081  -10.7634    0.0000 C   0  0  2  0  0  0  0  0  0  0  0  0
    7.3225  -10.3509    0.0000 C   0  0  1  0  0  0  0  0  0  0  0  0
    8.1072  -10.6059    0.0000 C   0  0  0  0  0  0  0  0  0  0  0  0
    8.5921   -9.9384    0.0000 C   0  0  0  0  0  0  0  0  0  0  0  0
    8.1072   -9.2710    0.0000 C   0  0  0  0  0  0  0  0  0  0  0  0
    7.3225   -9.5259    0.0000 C   0  0  0  0  0  0  0  0  0  0  0  0
    6.6081   -9.1134    0.0000 C   0  0  0  0  0  0  0  0  0  0  0  0
    5.8936   -9.5259    0.0000 C   0  0  1  0  0  0  0  0  0  0  0  0
    5.8936  -10.3509    0.0000 C   0  0  1  0  0  0  0  0  0  0  0  0
    5.1791  -10.7634    0.0000 C   0  0  1  0  0  0  0  0  0  0  0  0
    3.0357  -12.0009    0.0000 O   0  0  0  0  0  0  0  0  0  0  0  0
    7.3225  -11.1759    0.0000 C   0  0  0  0  0  0  0  0  0  0  0  0
    5.1791   -9.9384    0.0000 C   0  0  0  0  0  0  0  0  0  0  0  0
    6.6081   -9.9384    0.0000 C   0  0  0  0  0  0  0  0  0  0  0  0
    4.8771  -12.7154    0.0000 C   0  0  0  0  0  0  0  0  0  0  0  0
    4.0521  -12.7154    0.0000 C   0  0  0  0  0  0  0  0  0  0  0  0
    5.1791   -9.1134    0.0000 O   0  0  0  0  0  0  0  0  0  0  0  0
   10.4859   -6.5741    0.0000 O   0  0  0  0  0  0  0  0  0  0  0  0
   11.3022   -8.6129    0.0000 O   0  0  0  0  0  0  0  0  0  0  0  0
    5.1791  -12.4134    0.0000 H   0  0  0  0  0  0  0  0  0  0  0  0
    5.8936  -11.1759    0.0000 H   0  0  0  0  0  0  0  0  0  0  0  0
  1  2  1  0  0  0  0
  1  3  2  0  0  0  0
  1  4  1  0  0  0  0
  5  6  1  0  0  0  0
  6  7  1  0  0  0  0
  7  8  1  0  0  0  0
  8  9  1  0  0  0  0
  9 10  1  0  0  0  0
 10 11  1  6  0  0  0
  6 12  1  0  0  0  0
 13 14  1  0  0  0  0
 14 15  1  0  0  0  0
 15 16  1  0  0  0  0
 16 17  1  0  0  0  0
 17 18  1  0  0  0  0
 18 19  1  0  0  0  0
 19 20  1  0  0  0  0
 20 21  1  0  0  0  0
 21 22  1  0  0  0  0
 22 23  1  0  0  0  0
 23 24  1  0  0  0  0
 24 25  2  0  0  0  0
 21 25  1  0  0  0  0
 25 26  1  0  0  0  0
 26 27  1  0  0  0  0
 27 28  1  0  0  0  0
 20 28  1  0  0  0  0
 28 29  1  0  0  0  0
 17 29  1  0  0  0  0
 13 29  1  0  0  0  0
 15 30  2  0  0  0  0
 21 31  1  1  0  0  0
 29 32  1  1  0  0  0
 20 33  1  6  0  0  0
 16 34  1  0  0  0  0
 16 35  1  0  0  0  0
 27 36  1  1  0  0  0
 10 24  1  0  0  0  0
  7 37  1  6  0  0  0
  6 38  1  0  0  0  0
  8  4  1  6  0  0  0
 17 39  1  6  0  0  0
 28 40  1  1  0  0  0
M  END
>  <cdx:fragmentId>
257787

$$$$
