6618.cdx
  Mrv1902 05222410242D          

 20 23  0  0  0  0            999 V2000
    4.7058   -9.0544    0.0000 C   0  0  0  0  0  0  0  0  0  0  0  0
    4.7058   -9.8794    0.0000 C   0  0  0  0  0  0  0  0  0  0  0  0
    5.4202  -10.2919    0.0000 C   0  0  0  0  0  0  0  0  0  0  0  0
    6.1347   -9.8794    0.0000 N   0  0  0  0  0  0  0  0  0  0  0  0
    6.1347   -9.0544    0.0000 C   0  0  1  0  0  0  0  0  0  0  0  0
    5.4202   -8.6419    0.0000 C   0  0  2  0  0  0  0  0  0  0  0  0
    6.8492  -10.2919    0.0000 C   0  0  0  0  0  0  0  0  0  0  0  0
    7.5637   -9.8794    0.0000 C   0  0  0  0  0  0  0  0  0  0  0  0
    7.5637   -9.0544    0.0000 C   0  0  0  0  0  0  0  0  0  0  0  0
    6.8492   -8.6419    0.0000 C   0  0  0  0  0  0  0  0  0  0  0  0
    6.8492   -7.8169    0.0000 C   0  0  0  0  0  0  0  0  0  0  0  0
    6.1347   -7.4044    0.0000 N   0  0  0  0  0  0  0  0  0  0  0  0
    5.4202   -7.8169    0.0000 C   0  0  0  0  0  0  0  0  0  0  0  0
    7.5637   -7.4044    0.0000 C   0  0  0  0  0  0  0  0  0  0  0  0
    7.5637   -6.5794    0.0000 C   0  0  0  0  0  0  0  0  0  0  0  0
    6.8492   -6.1669    0.0000 C   0  0  0  0  0  0  0  0  0  0  0  0
    6.1347   -6.5794    0.0000 C   0  0  0  0  0  0  0  0  0  0  0  0
    5.4202   -6.1669    0.0000 O   0  0  0  0  0  0  0  0  0  0  0  0
    5.4202   -9.4669    0.0000 H   0  0  0  0  0  0  0  0  0  0  0  0
    6.1347   -8.2294    0.0000 H   0  0  0  0  0  0  0  0  0  0  0  0
  1  2  1  0  0  0  0
  2  3  1  0  0  0  0
  3  4  1  0  0  0  0
  4  5  1  0  0  0  0
  5  6  1  0  0  0  0
  6  1  1  0  0  0  0
  4  7  1  0  0  0  0
  7  8  1  0  0  0  0
  8  9  1  0  0  0  0
  9 10  1  0  0  0  0
 10  5  1  0  0  0  0
 10 11  2  0  0  0  0
 11 12  1  0  0  0  0
 12 13  1  0  0  0  0
 13  6  1  0  0  0  0
 11 14  1  0  0  0  0
 14 15  1  0  0  0  0
 15 16  1  0  0  0  0
 16 17  1  0  0  0  0
 17 12  1  0  0  0  0
 17 18  2  0  0  0  0
  6 19  1  6  0  0  0
  5 20  1  6  0  0  0
M  END
>  <cdx:fragmentId>
5

$$$$
