6619.cdx
  Mrv1902 05222410232D          

 34 37  0  0  0  0            999 V2000
    3.7364   -7.7963    0.0000 C   0  0  0  0  0  0  0  0  0  0  0  0
    3.7364   -8.6212    0.0000 C   0  0  0  0  0  0  0  0  0  0  0  0
    4.4509   -9.0337    0.0000 C   0  0  0  0  0  0  0  0  0  0  0  0
    5.1653   -8.6212    0.0000 C   0  0  0  0  0  0  0  0  0  0  0  0
    5.1653   -7.7963    0.0000 C   0  0  2  0  0  0  0  0  0  0  0  0
    4.4509   -7.3838    0.0000 C   0  0  0  0  0  0  0  0  0  0  0  0
    5.8798   -9.0337    0.0000 C   0  0  0  0  0  0  0  0  0  0  0  0
    6.5943   -8.6212    0.0000 C   0  0  0  0  0  0  0  0  0  0  0  0
    6.5943   -7.7963    0.0000 C   0  0  0  0  0  0  0  0  0  0  0  0
    5.8798   -7.3838    0.0000 C   0  0  0  0  0  0  0  0  0  0  0  0
    7.3088   -7.3838    0.0000 C   0  0  1  0  0  0  0  0  0  0  0  0
    7.3088   -6.5587    0.0000 C   0  0  2  0  0  0  0  0  0  0  0  0
    6.5943   -6.1463    0.0000 C   0  0  0  0  0  0  0  0  0  0  0  0
    5.8798   -6.5587    0.0000 C   0  0  0  0  0  0  0  0  0  0  0  0
    8.0934   -7.6387    0.0000 C   0  0  0  0  0  0  0  0  0  0  0  0
    8.5783   -6.9712    0.0000 C   0  0  0  0  0  0  0  0  0  0  0  0
    8.0934   -6.3038    0.0000 C   0  0  2  0  0  0  0  0  0  0  0  0
    3.0219   -9.0337    0.0000 O   0  0  0  0  0  0  0  0  0  0  0  0
    5.1653   -6.1463    0.0000 O   0  0  0  0  0  0  0  0  0  0  0  0
    7.3088   -9.0337    0.0000 O   0  0  0  0  0  0  0  0  0  0  0  0
    8.3069   -8.4356    0.0000 O   0  0  0  0  0  0  0  0  0  0  0  0
    4.0384   -9.7482    0.0000 C   0  0  0  0  0  0  0  0  0  0  0  0
    5.1653   -6.9712    0.0000 C   0  0  0  0  0  0  0  0  0  0  0  0
    7.3088   -5.7338    0.0000 C   0  0  0  0  0  0  0  0  0  0  0  0
    8.3069   -5.5069    0.0000 C   0  0  2  0  0  0  0  0  0  0  0  0
    4.8634   -9.7482    0.0000 C   0  0  0  0  0  0  0  0  0  0  0  0
    7.3088   -8.2088    0.0000 C   0  0  0  0  0  0  0  0  0  0  0  0
    7.7235   -4.9236    0.0000 C   0  0  0  0  0  0  0  0  0  0  0  0
    9.3173   -4.4965    0.0000 C   0  0  0  0  0  0  0  0  0  0  0  0
    9.1038   -5.2934    0.0000 C   0  0  0  0  0  0  0  0  0  0  0  0
    8.8903   -6.0903    0.0000 H   0  0  0  0  0  0  0  0  0  0  0  0
   10.1142   -4.2830    0.0000 C   0  0  0  0  0  0  0  0  0  0  0  0
   10.3277   -3.4861    0.0000 O   0  0  0  0  0  0  0  0  0  0  0  0
   10.6976   -4.8663    0.0000 O   0  0  0  0  0  0  0  0  0  0  0  0
  1  2  1  0  0  0  0
  2  3  1  0  0  0  0
  3  4  1  0  0  0  0
  4  5  1  0  0  0  0
  5  6  1  0  0  0  0
  6  1  1  0  0  0  0
  4  7  1  0  0  0  0
  7  8  1  0  0  0  0
  8  9  1  0  0  0  0
  9 10  2  0  0  0  0
 10  5  1  0  0  0  0
  9 11  1  0  0  0  0
 11 12  1  0  0  0  0
 12 13  1  0  0  0  0
 13 14  1  0  0  0  0
 14 10  1  0  0  0  0
 11 15  1  0  0  0  0
 15 16  1  0  0  0  0
 16 17  1  0  0  0  0
 17 12  1  0  0  0  0
  2 18  2  0  0  0  0
 14 19  2  0  0  0  0
  8 20  1  0  0  0  0
 15 21  1  0  0  0  0
  3 22  1  0  0  0  0
  5 23  1  1  0  0  0
 12 24  1  1  0  0  0
  3 26  1  0  0  0  0
 11 27  1  6  0  0  0
 25 28  1  6  0  0  0
 25 30  1  0  0  0  0
 30 29  1  0  0  0  0
 17 25  1  0  0  0  0
 17 31  1  6  0  0  0
 29 32  1  0  0  0  0
 32 33  2  0  0  0  0
 32 34  1  0  0  0  0
M  END
>  <cdx:fragmentId>
5

$$$$
