6622.cdx
  Mrv1902 05222410252D          

 22 24  0  0  0  0            999 V2000
    7.3450   -7.0141    0.0000 C   0  0  0  0  0  0  0  0  0  0  0  0
    7.3450   -7.8391    0.0000 C   0  0  0  0  0  0  0  0  0  0  0  0
    6.6305   -8.2516    0.0000 C   0  0  0  0  0  0  0  0  0  0  0  0
    6.6305   -9.0766    0.0000 O   0  0  0  0  0  0  0  0  0  0  0  0
    5.9160   -7.8391    0.0000 C   0  0  0  0  0  0  0  0  0  0  0  0
    5.2016   -8.2516    0.0000 C   0  0  0  0  0  0  0  0  0  0  0  0
    4.4871   -7.8391    0.0000 C   0  0  0  0  0  0  0  0  0  0  0  0
    4.4871   -7.0141    0.0000 C   0  0  0  0  0  0  0  0  0  0  0  0
    5.2016   -6.6016    0.0000 C   0  0  0  0  0  0  0  0  0  0  0  0
    5.9160   -7.0141    0.0000 C   0  0  0  0  0  0  0  0  0  0  0  0
    6.6305   -6.6016    0.0000 O   0  0  0  0  0  0  0  0  0  0  0  0
    8.0595   -8.2516    0.0000 C   0  0  0  0  0  0  0  0  0  0  0  0
    8.7739   -7.8391    0.0000 C   0  0  0  0  0  0  0  0  0  0  0  0
    9.4884   -8.2516    0.0000 C   0  0  0  0  0  0  0  0  0  0  0  0
    9.4884   -9.0766    0.0000 C   0  0  0  0  0  0  0  0  0  0  0  0
    8.7739   -9.4891    0.0000 C   0  0  0  0  0  0  0  0  0  0  0  0
    8.0595   -9.0766    0.0000 C   0  0  0  0  0  0  0  0  0  0  0  0
   10.2029   -9.4891    0.0000 O   0  0  0  0  0  0  0  0  0  0  0  0
   10.2029   -7.8391    0.0000 O   0  0  0  0  0  0  0  0  0  0  0  0
    8.7739   -7.0141    0.0000 O   0  0  0  0  0  0  0  0  0  0  0  0
    3.7726   -6.6016    0.0000 O   0  0  0  0  0  0  0  0  0  0  0  0
   10.2029  -10.3141    0.0000 C   0  0  0  0  0  0  0  0  0  0  0  0
  1  2  2  0  0  0  0
  2  3  1  0  0  0  0
  3  4  2  0  0  0  0
  3  5  1  0  0  0  0
  5  6  1  0  0  0  0
  6  7  2  0  0  0  0
  7  8  1  0  0  0  0
  8  9  2  0  0  0  0
  9 10  1  0  0  0  0
  5 10  2  0  0  0  0
 10 11  1  0  0  0  0
  1 11  1  0  0  0  0
  2 12  1  0  0  0  0
 12 13  1  0  0  0  0
 13 14  2  0  0  0  0
 14 15  1  0  0  0  0
 15 16  2  0  0  0  0
 16 17  1  0  0  0  0
 12 17  2  0  0  0  0
 15 18  1  0  0  0  0
 14 19  1  0  0  0  0
 13 20  1  0  0  0  0
  8 21  1  0  0  0  0
 18 22  1  0  0  0  0
M  END
>  <cdx:fragmentId>
5

$$$$
