6623.cdx
  Mrv1902 05222410242D          

 17 18  0  0  0  0            999 V2000
    6.5159   -2.5483    0.0000 C   0  0  0  0  0  0  0  0  0  0  0  0
    6.5159   -3.3733    0.0000 C   0  0  0  0  0  0  0  0  0  0  0  0
    5.8014   -3.7858    0.0000 C   0  0  0  0  0  0  0  0  0  0  0  0
    5.0870   -3.3733    0.0000 C   0  0  0  0  0  0  0  0  0  0  0  0
    5.0870   -2.5483    0.0000 C   0  0  0  0  0  0  0  0  0  0  0  0
    5.8014   -2.1358    0.0000 C   0  0  0  0  0  0  0  0  0  0  0  0
    7.2304   -2.1358    0.0000 O   0  0  0  0  0  0  0  0  0  0  0  0
    3.9600   -4.5002    0.0000 C   0  0  0  0  0  0  0  0  0  0  0  0
    4.3725   -3.7858    0.0000 C   0  0  0  0  0  0  0  0  0  0  0  0
    4.7850   -4.5002    0.0000 C   0  0  0  0  0  0  0  0  0  0  0  0
    3.6580   -3.3733    0.0000 C   0  0  0  0  0  0  0  0  0  0  0  0
    2.9436   -3.7858    0.0000 C   0  0  0  0  0  0  0  0  0  0  0  0
    2.2291   -3.3733    0.0000 C   0  0  0  0  0  0  0  0  0  0  0  0
    2.2291   -2.5483    0.0000 C   0  0  0  0  0  0  0  0  0  0  0  0
    2.9436   -2.1358    0.0000 C   0  0  0  0  0  0  0  0  0  0  0  0
    3.6580   -2.5483    0.0000 C   0  0  0  0  0  0  0  0  0  0  0  0
    1.5146   -2.1358    0.0000 O   0  0  0  0  0  0  0  0  0  0  0  0
  1  2  1  0  0  0  0
  2  3  2  0  0  0  0
  3  4  1  0  0  0  0
  4  5  2  0  0  0  0
  5  6  1  0  0  0  0
  1  6  2  0  0  0  0
  1  7  1  0  0  0  0
  8  9  1  0  0  0  0
  9 10  1  0  0  0  0
 11 12  1  0  0  0  0
 12 13  2  0  0  0  0
 13 14  1  0  0  0  0
 14 15  2  0  0  0  0
 15 16  1  0  0  0  0
 11 16  2  0  0  0  0
 14 17  1  0  0  0  0
  9 11  1  0  0  0  0
  4  9  1  0  0  0  0
M  END
>  <cdx:groupId>
54

>  <cdx:fragmentId>
25

$$$$
