662758.cdx
  Mrv1902 05222410222D          

 19 20  0  0  0  0            999 V2000
    6.4237   -5.9252    0.0000 C   0  0  0  0  0  0  0  0  0  0  0  0
    5.5987   -5.9252    0.0000 C   0  0  0  0  0  0  0  0  0  0  0  0
    5.1862   -5.2107    0.0000 C   0  0  0  0  0  0  0  0  0  0  0  0
    4.3612   -5.2107    0.0000 C   0  0  0  0  0  0  0  0  0  0  0  0
    6.8362   -5.2107    0.0000 O   0  0  0  0  0  0  0  0  0  0  0  0
    6.8362   -6.6396    0.0000 O   0  0  0  0  0  0  0  0  0  0  0  0
    5.1862   -6.6396    0.0000 C   0  0  0  0  0  0  0  0  0  0  0  0
    8.8235   -7.5665    0.0000 C   0  0  2  0  0  0  0  0  0  0  0  0
    8.0192   -7.3829    0.0000 C   0  0  0  0  0  0  0  0  0  0  0  0
    7.6612   -6.6396    0.0000 C   0  0  0  0  0  0  0  0  0  0  0  0
    8.0192   -5.8963    0.0000 C   0  0  0  0  0  0  0  0  0  0  0  0
    8.8235   -5.7128    0.0000 C   0  0  1  0  0  0  0  0  0  0  0  0
    9.4685   -6.2271    0.0000 C   0  0  0  0  0  0  0  0  0  0  0  0
    9.4685   -7.0521    0.0000 C   0  0  0  0  0  0  0  0  0  0  0  0
    8.2889   -6.6387    0.0000 N   0  0  0  0  0  0  0  0  0  0  0  0
    7.5136   -6.3565    0.0000 C   0  0  0  0  0  0  0  0  0  0  0  0
   10.1830   -5.8146    0.0000 O   0  0  0  0  0  0  0  0  0  0  0  0
    9.0071   -8.3708    0.0000 H   0  0  0  0  0  0  0  0  0  0  0  0
    9.0071   -4.9085    0.0000 H   0  0  0  0  0  0  0  0  0  0  0  0
  1  2  1  0  0  0  0
  2  3  2  0  0  0  0
  3  4  1  0  0  0  0
  1  5  2  0  0  0  0
  1  6  1  0  0  0  0
  2  7  1  0  0  0  0
  8  9  1  0  0  0  0
  9 10  1  0  0  0  0
 10 11  1  0  0  0  0
 11 12  1  0  0  0  0
 12 13  1  0  0  0  0
 13 14  1  0  0  0  0
  8 14  1  0  0  0  0
  8 15  1  0  0  0  0
 12 15  1  0  0  0  0
 15 16  1  0  0  0  0
 13 17  1  0  0  0  0
  6 10  1  0  0  0  0
  8 18  1  6  0  0  0
 12 19  1  6  0  0  0
M  END
>  <cdx:fragmentId>
19

$$$$
