66282.cdx
  Mrv1902 05222410242D          

  5  4  0  0  0  0            999 V2000
    7.9112   -3.7727    0.0000 C   0  0  0  0  0  0  0  0  0  0  0  0
    7.2024   -4.1949    0.0000 C   0  0  0  0  0  0  0  0  0  0  0  0
    6.4824   -3.7922    0.0000 C   0  0  0  0  0  0  0  0  0  0  0  0
    5.7736   -4.2144    0.0000 S   0  0  0  0  0  0  0  0  0  0  0  0
    5.0536   -3.8116    0.0000 C   0  0  0  0  0  0  0  0  0  0  0  0
  1  2  2  0  0  0  0
  2  3  1  0  0  0  0
  4  5  1  0  0  0  0
  3  4  1  0  0  0  0
M  END
>  <cdx:groupId>
16

>  <cdx:fragmentId>
5

$$$$
