66329.cdx
  Mrv1902 05222410222D          

  6  5  0  0  0  0            999 V2000
    7.3665   -3.6514    0.0000 C   0  0  0  0  0  0  0  0  0  0  0  0
    6.6520   -4.0639    0.0000 C   0  0  0  0  0  0  0  0  0  0  0  0
    5.9375   -3.6514    0.0000 C   0  0  0  0  0  0  0  0  0  0  0  0
    5.2230   -4.0639    0.0000 C   0  0  0  0  0  0  0  0  0  0  0  0
    5.9375   -2.8264    0.0000 O   0  0  0  0  0  0  0  0  0  0  0  0
    6.6520   -4.8889    0.0000 C   0  0  0  0  0  0  0  0  0  0  0  0
  1  2  2  0  0  0  0
  2  3  1  0  0  0  0
  3  4  1  0  0  0  0
  3  5  1  0  0  0  0
  2  6  1  0  0  0  0
M  END
>  <cdx:groupId>
19

>  <cdx:fragmentId>
5

$$$$
