66338.cdx
  Mrv1902 05222410212D          

 12 11  0  0  0  0            999 V2000
    7.4102   -2.8391    0.0000 C   0  0  0  0  0  0  0  0  0  0  0  0
    6.6957   -3.2516    0.0000 C   0  0  0  0  0  0  0  0  0  0  0  0
    5.9813   -3.6641    0.0000 C   0  0  0  0  0  0  0  0  0  0  0  0
    5.2668   -4.0766    0.0000 C   0  0  0  0  0  0  0  0  0  0  0  0
    4.5523   -3.6641    0.0000 C   0  0  0  0  0  0  0  0  0  0  0  0
    3.8378   -4.0766    0.0000 C   0  0  0  0  0  0  0  0  0  0  0  0
    3.1234   -3.6641    0.0000 C   0  0  0  0  0  0  0  0  0  0  0  0
    2.4089   -4.0766    0.0000 C   0  0  0  0  0  0  0  0  0  0  0  0
    7.4102   -2.0141    0.0000 O   0  0  0  0  0  0  0  0  0  0  0  0
    8.1247   -3.2516    0.0000 O   0  0  0  0  0  0  0  0  0  0  0  0
    8.8391   -2.8391    0.0000 C   0  0  0  0  0  0  0  0  0  0  0  0
    9.5536   -3.2516    0.0000 C   0  0  0  0  0  0  0  0  0  0  0  0
  1  2  1  0  0  0  0
  2  3  3  0  0  0  0
  3  4  1  0  0  0  0
  4  5  1  0  0  0  0
  5  6  1  0  0  0  0
  6  7  1  0  0  0  0
  7  8  1  0  0  0  0
  1  9  2  0  0  0  0
  1 10  1  0  0  0  0
 11 12  1  0  0  0  0
 10 11  1  0  0  0  0
M  END
>  <cdx:groupId>
37

>  <cdx:fragmentId>
5

$$$$
