6636.cdx
  Mrv1902 05222410252D          

 25 27  0  0  0  0            999 V2000
    2.8289   -4.7850    0.0000 C   0  0  0  0  0  0  0  0  0  0  0  0
    2.8289   -5.6100    0.0000 C   0  0  0  0  0  0  0  0  0  0  0  0
    3.5434   -6.0225    0.0000 C   0  0  0  0  0  0  0  0  0  0  0  0
    4.2578   -5.6100    0.0000 C   0  0  0  0  0  0  0  0  0  0  0  0
    4.2578   -4.7850    0.0000 C   0  0  0  0  0  0  0  0  0  0  0  0
    3.5434   -4.3725    0.0000 C   0  0  0  0  0  0  0  0  0  0  0  0
    4.9723   -6.0225    0.0000 C   0  0  0  0  0  0  0  0  0  0  0  0
    5.6868   -5.6100    0.0000 C   0  0  0  0  0  0  0  0  0  0  0  0
    5.6868   -4.7850    0.0000 C   0  0  0  0  0  0  0  0  0  0  0  0
    4.9723   -4.3725    0.0000 O   0  0  0  0  0  0  0  0  0  0  0  0
    6.4013   -6.0225    0.0000 C   0  0  0  0  0  0  0  0  0  0  0  0
    7.1157   -5.6100    0.0000 C   0  0  0  0  0  0  0  0  0  0  0  0
    6.4013   -6.8475    0.0000 C   0  0  0  0  0  0  0  0  0  0  0  0
    7.1157   -7.2600    0.0000 C   0  0  0  0  0  0  0  0  0  0  0  0
    7.8302   -6.8475    0.0000 C   0  0  0  0  0  0  0  0  0  0  0  0
    7.8302   -6.0225    0.0000 C   0  0  0  0  0  0  0  0  0  0  0  0
    4.9723   -6.8475    0.0000 O   0  0  0  0  0  0  0  0  0  0  0  0
    2.1144   -4.3725    0.0000 O   0  0  0  0  0  0  0  0  0  0  0  0
    3.5434   -6.8475    0.0000 O   0  0  0  0  0  0  0  0  0  0  0  0
    3.5434   -7.6725    0.0000 C   0  0  0  0  0  0  0  0  0  0  0  0
    8.5447   -5.6100    0.0000 O   0  0  0  0  0  0  0  0  0  0  0  0
    8.5447   -7.2600    0.0000 O   0  0  0  0  0  0  0  0  0  0  0  0
    7.1157   -8.0850    0.0000 O   0  0  0  0  0  0  0  0  0  0  0  0
    9.2591   -5.1975    0.0000 C   0  0  0  0  0  0  0  0  0  0  0  0
    9.2591   -7.6725    0.0000 C   0  0  0  0  0  0  0  0  0  0  0  0
  1  2  2  0  0  0  0
  2  3  1  0  0  0  0
  3  4  2  0  0  0  0
  4  5  1  0  0  0  0
  5  6  2  0  0  0  0
  6  1  1  0  0  0  0
  4  7  1  0  0  0  0
  7  8  1  0  0  0  0
  8  9  2  0  0  0  0
  9 10  1  0  0  0  0
 10  5  1  0  0  0  0
  8 11  1  0  0  0  0
 11 12  1  0  0  0  0
 11 13  2  0  0  0  0
 13 14  1  0  0  0  0
 14 15  2  0  0  0  0
 15 16  1  0  0  0  0
 16 12  2  0  0  0  0
  7 17  2  0  0  0  0
  1 18  1  0  0  0  0
  3 19  1  0  0  0  0
 16 21  1  0  0  0  0
 15 22  1  0  0  0  0
 14 23  1  0  0  0  0
 19 20  1  0  0  0  0
 21 24  1  0  0  0  0
 22 25  1  0  0  0  0
M  STY  3   1 SUP   2 SUP   3 SUP
M  SAL   1  2  19  20
M  SBL   1  1  21
M  SMT   1 OCH3
M  SAP   1  1  19   3  1
M  SAL   2  2  21  24
M  SBL   2  1  22
M  SMT   2 OCH3
M  SAP   2  1  21  16  1
M  SAL   3  2  22  25
M  SBL   3  1  23
M  SMT   3 OCH3
M  SAP   3  1  22  15  1
M  END
>  <cdx:fragmentId>
5

$$$$
