6638.cdx
  Mrv1902 05222410202D          

 20 22  0  0  0  0            999 V2000
    4.0252   -7.8375    0.0000 C   0  0  0  0  0  0  0  0  0  0  0  0
    4.0252   -8.6625    0.0000 C   0  0  0  0  0  0  0  0  0  0  0  0
    4.7396   -9.0750    0.0000 C   0  0  0  0  0  0  0  0  0  0  0  0
    5.4541   -8.6625    0.0000 C   0  0  0  0  0  0  0  0  0  0  0  0
    5.4541   -7.8375    0.0000 C   0  0  0  0  0  0  0  0  0  0  0  0
    4.7396   -7.4250    0.0000 C   0  0  0  0  0  0  0  0  0  0  0  0
    6.1686   -9.0750    0.0000 O   0  0  0  0  0  0  0  0  0  0  0  0
    6.8830   -8.6625    0.0000 C   0  0  0  0  0  0  0  0  0  0  0  0
    6.8830   -7.8375    0.0000 C   0  0  0  0  0  0  0  0  0  0  0  0
    6.1686   -7.4250    0.0000 C   0  0  0  0  0  0  0  0  0  0  0  0
    7.5975   -7.4250    0.0000 C   0  0  0  0  0  0  0  0  0  0  0  0
    7.5975   -6.6000    0.0000 C   0  0  0  0  0  0  0  0  0  0  0  0
    8.3120   -7.8375    0.0000 C   0  0  0  0  0  0  0  0  0  0  0  0
    9.0265   -7.4250    0.0000 C   0  0  0  0  0  0  0  0  0  0  0  0
    9.0265   -6.6000    0.0000 C   0  0  0  0  0  0  0  0  0  0  0  0
    8.3120   -6.1875    0.0000 C   0  0  0  0  0  0  0  0  0  0  0  0
    8.3120   -5.3625    0.0000 O   0  0  0  0  0  0  0  0  0  0  0  0
    9.7409   -6.1875    0.0000 O   0  0  0  0  0  0  0  0  0  0  0  0
    3.3107   -9.0750    0.0000 O   0  0  0  0  0  0  0  0  0  0  0  0
    9.0265   -4.9500    0.0000 C   0  0  0  0  0  0  0  0  0  0  0  0
  1  2  2  0  0  0  0
  2  3  1  0  0  0  0
  3  4  2  0  0  0  0
  4  5  1  0  0  0  0
  5  6  2  0  0  0  0
  6  1  1  0  0  0  0
  4  7  1  0  0  0  0
  7  8  1  0  0  0  0
  8  9  1  0  0  0  0
  9 10  1  0  0  0  0
 10  5  1  0  0  0  0
  9 11  1  0  0  0  0
 11 12  1  0  0  0  0
 11 13  2  0  0  0  0
 13 14  1  0  0  0  0
 14 15  2  0  0  0  0
 15 16  1  0  0  0  0
 16 12  2  0  0  0  0
 16 17  1  0  0  0  0
 15 18  1  0  0  0  0
  2 19  1  0  0  0  0
 17 20  1  0  0  0  0
M  END
>  <cdx:fragmentId>
5

$$$$
