6641.cdx
  Mrv1902 05222410272D          

 26 28  0  0  0  0            999 V2000
    4.2221   -5.8979    0.0000 O   0  0  0  0  0  0  0  0  0  0  0  0
   10.6435   -4.6152    0.0000 O   0  0  0  0  0  0  0  0  0  0  0  0
    8.5031   -5.0428    0.0000 C   0  0  0  0  0  0  0  0  0  0  0  0
    9.2146   -4.6253    0.0000 C   0  0  0  0  0  0  0  0  0  0  0  0
    9.9320   -5.0327    0.0000 C   0  0  0  0  0  0  0  0  0  0  0  0
    9.9378   -5.8577    0.0000 C   0  0  0  0  0  0  0  0  0  0  0  0
    9.2262   -6.2752    0.0000 C   0  0  0  0  0  0  0  0  0  0  0  0
    8.5089   -5.8678    0.0000 C   0  0  0  0  0  0  0  0  0  0  0  0
    4.9569   -8.7803    0.0000 C   0  0  0  0  0  0  0  0  0  0  0  0
    5.6684   -8.3628    0.0000 O   0  0  0  0  0  0  0  0  0  0  0  0
    4.2047   -3.4229    0.0000 C   0  0  0  0  0  0  0  0  0  0  0  0
    5.6337   -3.4129    0.0000 C   0  0  0  0  0  0  0  0  0  0  0  0
    4.9221   -3.8304    0.0000 C   0  0  0  0  0  0  0  0  0  0  0  0
    4.9279   -4.6554    0.0000 C   0  0  0  0  0  0  0  0  0  0  0  0
    5.6452   -5.0629    0.0000 C   0  0  0  0  0  0  0  0  0  0  0  0
    7.0973   -8.3527    0.0000 O   0  0  0  0  0  0  0  0  0  0  0  0
    7.0799   -5.8778    0.0000 O   0  0  0  0  0  0  0  0  0  0  0  0
    6.3684   -6.2953    0.0000 C   0  0  0  0  0  0  0  0  0  0  0  0
    5.6510   -5.8878    0.0000 C   0  0  0  0  0  0  0  0  0  0  0  0
    4.9395   -6.3054    0.0000 C   0  0  0  0  0  0  0  0  0  0  0  0
    4.9453   -7.1303    0.0000 C   0  0  0  0  0  0  0  0  0  0  0  0
    5.6626   -7.5378    0.0000 C   0  0  0  0  0  0  0  0  0  0  0  0
    6.3742   -7.1203    0.0000 C   0  0  0  0  0  0  0  0  0  0  0  0
    7.0915   -7.5278    0.0000 C   0  0  0  0  0  0  0  0  0  0  0  0
    7.8031   -7.1103    0.0000 C   0  0  0  0  0  0  0  0  0  0  0  0
    7.7973   -6.2853    0.0000 C   0  0  0  0  0  0  0  0  0  0  0  0
 20  1  1  0  0  0  0
 26  8  1  0  0  0  0
  5  2  1  0  0  0  0
  8  3  2  0  0  0  0
  4  3  1  0  0  0  0
  5  4  2  0  0  0  0
  6  5  1  0  0  0  0
  7  6  2  0  0  0  0
  8  7  1  0  0  0  0
 22 10  1  0  0  0  0
 10  9  1  0  0  0  0
 19 15  1  0  0  0  0
 13 11  1  0  0  0  0
 13 12  1  0  0  0  0
 14 13  2  0  0  0  0
 15 14  1  0  0  0  0
 24 16  2  0  0  0  0
 26 17  1  0  0  0  0
 18 17  1  0  0  0  0
 23 18  2  0  0  0  0
 19 18  1  0  0  0  0
 20 19  2  0  0  0  0
 21 20  1  0  0  0  0
 22 21  2  0  0  0  0
 23 22  1  0  0  0  0
 24 23  1  0  0  0  0
 25 24  1  0  0  0  0
 26 25  1  0  0  0  0
M  END
>  <cdx:fragmentId>
22736

$$$$
