664483.cdx
  Mrv1902 05222410242D          

 22 21  0  0  0  0            999 V2000
    3.3240   -8.2864    0.0000 C   0  0  0  0  0  0  0  0  0  0  0  0
    6.1819   -8.2924    0.0000 C   0  0  0  0  0  0  0  0  0  0  0  0
    9.0398   -8.2984    0.0000 C   0  0  0  0  0  0  0  0  0  0  0  0
   11.8976   -8.3044    0.0000 C   0  0  0  0  0  0  0  0  0  0  0  0
    1.1832   -7.0444    0.0000 O   0  0  0  0  0  0  0  0  0  0  0  0
   13.3283   -7.4824    0.0000 C   0  0  0  0  0  0  0  0  0  0  0  0
   12.6147   -7.0684    0.0000 C   0  0  0  0  0  0  0  0  0  0  0  0
   11.8994   -7.4794    0.0000 C   0  0  0  0  0  0  0  0  0  0  0  0
   11.1858   -7.0654    0.0000 C   0  0  0  0  0  0  0  0  0  0  0  0
   10.4704   -7.4764    0.0000 C   0  0  0  0  0  0  0  0  0  0  0  0
    9.7568   -7.0624    0.0000 C   0  0  0  0  0  0  0  0  0  0  0  0
    9.0415   -7.4734    0.0000 C   0  0  2  0  0  0  0  0  0  0  0  0
    8.3279   -7.0594    0.0000 C   0  0  0  0  0  0  0  0  0  0  0  0
    7.6126   -7.4704    0.0000 C   0  0  0  0  0  0  0  0  0  0  0  0
    6.8990   -7.0564    0.0000 C   0  0  0  0  0  0  0  0  0  0  0  0
    6.1836   -7.4674    0.0000 C   0  0  2  0  0  0  0  0  0  0  0  0
    5.4700   -7.0534    0.0000 C   0  0  0  0  0  0  0  0  0  0  0  0
    4.7547   -7.4644    0.0000 C   0  0  0  0  0  0  0  0  0  0  0  0
    4.0411   -7.0504    0.0000 C   0  0  0  0  0  0  0  0  0  0  0  0
    3.3257   -7.4614    0.0000 C   0  0  0  0  0  0  0  0  0  0  0  0
    2.6121   -7.0474    0.0000 C   0  0  0  0  0  0  0  0  0  0  0  0
    1.8968   -7.4584    0.0000 C   0  0  0  0  0  0  0  0  0  0  0  0
 20  1  1  0  0  0  0
 16  2  1  1  0  0  0
 12  3  1  1  0  0  0
  8  4  1  0  0  0  0
 22  5  1  0  0  0  0
  7  6  1  0  0  0  0
  8  7  1  0  0  0  0
  9  8  1  0  0  0  0
 10  9  1  0  0  0  0
 11 10  1  0  0  0  0
 12 11  1  0  0  0  0
 13 12  1  0  0  0  0
 14 13  1  0  0  0  0
 15 14  1  0  0  0  0
 16 15  1  0  0  0  0
 17 16  1  0  0  0  0
 18 17  1  0  0  0  0
 19 18  1  0  0  0  0
 20 19  1  0  0  0  0
 21 20  2  0  0  0  0
 22 21  1  0  0  0  0
M  END
>  <cdx:fragmentId>
43379

$$$$
