6646.cdx
  Mrv1902 05222410262D          

 19 21  0  0  0  0            999 V2000
    5.0289   -5.5619    0.0000 C   0  0  0  0  0  0  0  0  0  0  0  0
    5.0289   -6.3869    0.0000 C   0  0  0  0  0  0  0  0  0  0  0  0
    5.7434   -6.7994    0.0000 C   0  0  0  0  0  0  0  0  0  0  0  0
    6.4578   -6.3869    0.0000 C   0  0  0  0  0  0  0  0  0  0  0  0
    6.4578   -5.5619    0.0000 C   0  0  0  0  0  0  0  0  0  0  0  0
    5.7434   -5.1494    0.0000 C   0  0  0  0  0  0  0  0  0  0  0  0
    7.1723   -6.7994    0.0000 C   0  0  0  0  0  0  0  0  0  0  0  0
    7.8868   -6.3869    0.0000 C   0  0  0  0  0  0  0  0  0  0  0  0
    7.8868   -5.5619    0.0000 C   0  0  0  0  0  0  0  0  0  0  0  0
    7.1723   -5.1494    0.0000 O   0  0  0  0  0  0  0  0  0  0  0  0
    8.6013   -5.1494    0.0000 C   0  0  0  0  0  0  0  0  0  0  0  0
    8.6013   -4.3244    0.0000 C   0  0  0  0  0  0  0  0  0  0  0  0
    9.3157   -5.5619    0.0000 C   0  0  0  0  0  0  0  0  0  0  0  0
   10.0302   -5.1494    0.0000 C   0  0  0  0  0  0  0  0  0  0  0  0
   10.0302   -4.3244    0.0000 C   0  0  0  0  0  0  0  0  0  0  0  0
    9.3157   -3.9119    0.0000 C   0  0  0  0  0  0  0  0  0  0  0  0
    4.3144   -5.1494    0.0000 O   0  0  0  0  0  0  0  0  0  0  0  0
    7.1723   -7.6244    0.0000 O   0  0  0  0  0  0  0  0  0  0  0  0
   10.7447   -3.9119    0.0000 O   0  0  0  0  0  0  0  0  0  0  0  0
  1  2  2  0  0  0  0
  2  3  1  0  0  0  0
  3  4  2  0  0  0  0
  4  5  1  0  0  0  0
  5  6  2  0  0  0  0
  6  1  1  0  0  0  0
  4  7  1  0  0  0  0
  7  8  1  0  0  0  0
  8  9  2  0  0  0  0
  9 10  1  0  0  0  0
 10  5  1  0  0  0  0
  9 11  1  0  0  0  0
 11 12  1  0  0  0  0
 11 13  2  0  0  0  0
 13 14  1  0  0  0  0
 14 15  2  0  0  0  0
 15 16  1  0  0  0  0
 16 12  2  0  0  0  0
  1 17  1  0  0  0  0
  7 18  2  0  0  0  0
 15 19  1  0  0  0  0
M  END
>  <cdx:fragmentId>
5

$$$$
