6650.cdx
  Mrv1902 05222410272D          

 21 23  0  0  0  0            999 V2000
    4.3964   -4.6612    0.0000 C   0  0  0  0  0  0  0  0  0  0  0  0
    4.3964   -5.4863    0.0000 C   0  0  0  0  0  0  0  0  0  0  0  0
    5.1109   -5.8988    0.0000 C   0  0  0  0  0  0  0  0  0  0  0  0
    5.8253   -5.4863    0.0000 C   0  0  0  0  0  0  0  0  0  0  0  0
    5.8253   -4.6612    0.0000 C   0  0  0  0  0  0  0  0  0  0  0  0
    5.1109   -4.2488    0.0000 C   0  0  0  0  0  0  0  0  0  0  0  0
    6.5398   -5.8988    0.0000 C   0  0  0  0  0  0  0  0  0  0  0  0
    7.2543   -5.4863    0.0000 C   0  0  0  0  0  0  0  0  0  0  0  0
    7.2543   -4.6612    0.0000 C   0  0  0  0  0  0  0  0  0  0  0  0
    6.5398   -4.2488    0.0000 O   0  0  0  0  0  0  0  0  0  0  0  0
    6.5398   -6.7237    0.0000 O   0  0  0  0  0  0  0  0  0  0  0  0
    7.9688   -4.2488    0.0000 C   0  0  0  0  0  0  0  0  0  0  0  0
    8.6832   -4.6612    0.0000 C   0  0  0  0  0  0  0  0  0  0  0  0
    9.3977   -4.2488    0.0000 C   0  0  0  0  0  0  0  0  0  0  0  0
    9.3977   -3.4237    0.0000 C   0  0  0  0  0  0  0  0  0  0  0  0
    8.6832   -3.0112    0.0000 C   0  0  0  0  0  0  0  0  0  0  0  0
    7.9688   -3.4237    0.0000 C   0  0  0  0  0  0  0  0  0  0  0  0
    3.6819   -4.2488    0.0000 O   0  0  0  0  0  0  0  0  0  0  0  0
    5.1109   -6.7237    0.0000 O   0  0  0  0  0  0  0  0  0  0  0  0
    8.6832   -2.1863    0.0000 O   0  0  0  0  0  0  0  0  0  0  0  0
   10.1122   -3.0112    0.0000 O   0  0  0  0  0  0  0  0  0  0  0  0
  1  2  2  0  0  0  0
  2  3  1  0  0  0  0
  3  4  2  0  0  0  0
  4  5  1  0  0  0  0
  5  6  2  0  0  0  0
  6  1  1  0  0  0  0
  4  7  1  0  0  0  0
  7  8  1  0  0  0  0
  8  9  1  0  0  0  0
  9 10  1  0  0  0  0
 10  5  1  0  0  0  0
  7 11  2  0  0  0  0
  9 12  1  0  0  0  0
 12 13  2  0  0  0  0
 13 14  1  0  0  0  0
 14 15  2  0  0  0  0
 15 16  1  0  0  0  0
 16 17  2  0  0  0  0
 17 12  1  0  0  0  0
  1 18  1  0  0  0  0
  3 19  1  0  0  0  0
 16 20  1  0  0  0  0
 15 21  1  0  0  0  0
M  END
>  <cdx:fragmentId>
5

$$$$
