66552.cdx
  Mrv1902 05222410282D          

 71 78  0  0  0  0            999 V2000
   15.0900  -10.5948    0.0000 C   0  0  1  0  0  0  0  0  0  0  0  0
   15.8045  -10.1823    0.0000 C   0  0  2  0  0  0  0  0  0  0  0  0
   16.5891  -10.4372    0.0000 C   0  0  2  0  0  0  0  0  0  0  0  0
   17.0740   -9.7698    0.0000 C   0  0  2  0  0  0  0  0  0  0  0  0
   17.8587   -9.5148    0.0000 O   0  0  0  0  0  0  0  0  0  0  0  0
   17.8587   -8.6898    0.0000 C   0  0  1  0  0  0  0  0  0  0  0  0
   17.0740   -8.4349    0.0000 C   0  0  1  0  0  0  0  0  0  0  0  0
   16.5891   -9.1023    0.0000 C   0  0  2  0  0  0  0  0  0  0  0  0
   15.8045   -9.3573    0.0000 C   0  0  1  0  0  0  0  0  0  0  0  0
   15.0900   -8.9448    0.0000 C   0  0  0  0  0  0  0  0  0  0  0  0
   14.3755   -9.3573    0.0000 C   0  0  0  0  0  0  0  0  0  0  0  0
   14.3755  -10.1823    0.0000 C   0  0  2  0  0  0  0  0  0  0  0  0
   13.6611  -10.5948    0.0000 C   0  0  1  0  0  0  0  0  0  0  0  0
   12.9466  -10.1823    0.0000 C   0  0  0  0  0  0  0  0  0  0  0  0
   12.2321  -10.5948    0.0000 C   0  0  0  0  0  0  0  0  0  0  0  0
   12.2321  -11.4198    0.0000 C   0  0  1  0  0  0  0  0  0  0  0  0
   12.9466  -11.8323    0.0000 C   0  0  0  0  0  0  0  0  0  0  0  0
   13.6611  -11.4198    0.0000 C   0  0  2  0  0  0  0  0  0  0  0  0
   14.3755  -11.8323    0.0000 C   0  0  0  0  0  0  0  0  0  0  0  0
   15.0900  -11.4198    0.0000 C   0  0  0  0  0  0  0  0  0  0  0  0
   16.8441  -11.2218    0.0000 O   0  0  0  0  0  0  0  0  0  0  0  0
   17.5590  -10.4372    0.0000 O   0  0  0  0  0  0  0  0  0  0  0  0
   16.4609   -7.8828    0.0000 O   0  0  0  0  0  0  0  0  0  0  0  0
   18.5261   -8.2049    0.0000 C   0  0  0  0  0  0  0  0  0  0  0  0
   19.2798   -8.5404    0.0000 C   0  0  0  0  0  0  0  0  0  0  0  0
   19.9472   -8.0555    0.0000 C   0  0  0  0  0  0  0  0  0  0  0  0
   19.8610   -7.2350    0.0000 C   0  0  0  0  0  0  0  0  0  0  0  0
   20.7009   -8.3911    0.0000 C   0  0  0  0  0  0  0  0  0  0  0  0
   13.3591  -12.5467    0.0000 C   0  0  0  0  0  0  0  0  0  0  0  0
   12.5341  -12.5467    0.0000 C   0  0  0  0  0  0  0  0  0  0  0  0
   13.6611   -9.7698    0.0000 C   0  0  0  0  0  0  0  0  0  0  0  0
   17.2456   -7.6279    0.0000 C   0  0  0  0  0  0  0  0  0  0  0  0
   15.8045  -11.0073    0.0000 C   0  0  0  0  0  0  0  0  0  0  0  0
   15.0900   -9.7698    0.0000 C   0  0  0  0  0  0  0  0  0  0  0  0
   16.2275   -8.3608    0.0000 H   0  0  0  0  0  0  0  0  0  0  0  0
   15.8045   -8.5323    0.0000 H   0  0  0  0  0  0  0  0  0  0  0  0
   14.3755  -11.0073    0.0000 H   0  0  0  0  0  0  0  0  0  0  0  0
   13.6611  -12.2448    0.0000 H   0  0  0  0  0  0  0  0  0  0  0  0
    8.6726  -10.1602    0.0000 O   0  0  0  0  0  0  0  0  0  0  0  0
    9.3966   -8.9283    0.0000 O   0  0  0  0  0  0  0  0  0  0  0  0
   10.1079   -9.3463    0.0000 C   0  0  0  0  0  0  0  0  0  0  0  0
    7.2246  -12.6241    0.0000 O   0  0  0  0  0  0  0  0  0  0  0  0
    5.8021  -11.7881    0.0000 O   0  0  0  0  0  0  0  0  0  0  0  0
    5.8148  -10.1381    0.0000 O   0  0  0  0  0  0  0  0  0  0  0  0
    6.5388   -8.9062    0.0000 O   0  0  0  0  0  0  0  0  0  0  0  0
    7.2501   -9.3242    0.0000 C   0  0  0  0  0  0  0  0  0  0  0  0
    7.2437  -10.1492    0.0000 C   0  0  2  0  0  0  0  0  0  0  0  0
    6.5261  -10.5561    0.0000 C   0  0  2  0  0  0  0  0  0  0  0  0
    6.5197  -11.3811    0.0000 C   0  0  1  0  0  0  0  0  0  0  0  0
    7.2310  -11.7991    0.0000 C   0  0  2  0  0  0  0  0  0  0  0  0
    7.9486  -11.3922    0.0000 C   0  0  1  0  0  0  0  0  0  0  0  0
    7.9550  -10.5672    0.0000 O   0  0  0  0  0  0  0  0  0  0  0  0
    8.6599  -11.8102    0.0000 O   0  0  0  0  0  0  0  0  0  0  0  0
   10.1015  -10.1713    0.0000 C   0  0  2  0  0  0  0  0  0  0  0  0
    9.3839  -10.5782    0.0000 C   0  0  2  0  0  0  0  0  0  0  0  0
    9.3775  -11.4032    0.0000 C   0  0  1  0  0  0  0  0  0  0  0  0
   10.0888  -11.8212    0.0000 C   0  0  2  0  0  0  0  0  0  0  0  0
   10.8064  -11.4142    0.0000 C   0  0  1  0  0  0  0  0  0  0  0  0
   10.8128  -10.5893    0.0000 O   0  0  0  0  0  0  0  0  0  0  0  0
   11.5177  -11.8323    0.0000 O   0  0  0  0  0  0  0  0  0  0  0  0
   10.0824  -12.6462    0.0000 O   0  0  0  0  0  0  0  0  0  0  0  0
    9.6931  -13.3736    0.0000 C   0  0  2  0  0  0  0  0  0  0  0  0
    8.8684  -13.3938    0.0000 O   0  0  0  0  0  0  0  0  0  0  0  0
    8.4853  -14.1368    0.0000 C   0  0  2  0  0  0  0  0  0  0  0  0
    8.9259  -14.8342    0.0000 C   0  0  1  0  0  0  0  0  0  0  0  0
    9.7615  -14.8071    0.0000 C   0  0  2  0  0  0  0  0  0  0  0  0
   10.1338  -14.0709    0.0000 C   0  0  1  0  0  0  0  0  0  0  0  0
    8.5395  -15.5631    0.0000 O   0  0  0  0  0  0  0  0  0  0  0  0
   10.2049  -15.5028    0.0000 O   0  0  0  0  0  0  0  0  0  0  0  0
   10.9578  -14.0316    0.0000 O   0  0  0  0  0  0  0  0  0  0  0  0
    7.6611  -14.1729    0.0000 C   0  0  0  0  0  0  0  0  0  0  0  0
 58 60  1  1  0  0  0
 55 39  1  6  0  0  0
 54 41  1  1  0  0  0
 41 40  1  0  0  0  0
 56 53  1  1  0  0  0
 51 53  1  1  0  0  0
 50 42  1  6  0  0  0
 49 43  1  1  0  0  0
 48 44  1  6  0  0  0
 47 46  1  1  0  0  0
 46 45  1  0  0  0  0
 52 47  1  0  0  0  0
 48 47  1  0  0  0  0
 49 48  1  0  0  0  0
 50 49  1  0  0  0  0
 51 50  1  0  0  0  0
 52 51  1  0  0  0  0
 59 54  1  0  0  0  0
 55 54  1  0  0  0  0
 56 55  1  0  0  0  0
 57 56  1  0  0  0  0
  1  2  1  0  0  0  0
  2  3  1  0  0  0  0
  3  4  1  0  0  0  0
  4  5  1  0  0  0  0
  6  5  1  1  0  0  0
  6  7  1  0  0  0  0
  7  8  1  0  0  0  0
  8  9  1  0  0  0  0
  9 10  1  0  0  0  0
 10 11  1  0  0  0  0
 11 12  1  0  0  0  0
 12 13  1  0  0  0  0
 13 14  1  0  0  0  0
 14 15  1  0  0  0  0
 15 16  1  0  0  0  0
 16 17  1  0  0  0  0
 17 18  1  0  0  0  0
 18 19  1  0  0  0  0
 19 20  1  0  0  0  0
  1 20  1  0  0  0  0
  1 12  1  0  0  0  0
 13 18  1  0  0  0  0
  2  9  1  0  0  0  0
  4  8  1  0  0  0  0
  3 21  1  6  0  0  0
  4 22  1  6  0  0  0
  7 23  1  1  0  0  0
 24 25  1  0  0  0  0
 25 26  2  0  0  0  0
 26 27  1  0  0  0  0
 26 28  1  0  0  0  0
  6 24  1  0  0  0  0
 17 29  1  0  0  0  0
 17 30  1  0  0  0  0
 13 31  1  1  0  0  0
  7 32  1  6  0  0  0
  2 33  1  6  0  0  0
  1 34  1  1  0  0  0
 58 57  1  0  0  0  0
 59 58  1  0  0  0  0
 16 60  1  1  0  0  0
  8 35  1  6  0  0  0
  9 36  1  1  0  0  0
 12 37  1  6  0  0  0
 18 38  1  6  0  0  0
 57 61  1  6  0  0  0
 62 61  1  1  0  0  0
 62 63  1  0  0  0  0
 63 64  1  0  0  0  0
 64 65  1  0  0  0  0
 65 66  1  0  0  0  0
 66 67  1  0  0  0  0
 67 62  1  0  0  0  0
 65 68  1  1  0  0  0
 66 69  1  6  0  0  0
 67 70  1  6  0  0  0
 64 71  1  6  0  0  0
M  END
>  <cdx:fragmentId>
15343

$$$$
