101665858.cdx
  Mrv1902 05222410192D          

 23 25  0  0  0  0            999 V2000
    8.6594   -8.2989    0.0000 C   0  0  0  0  0  0  0  0  0  0  0  0
    9.3739   -8.7114    0.0000 C   0  0  0  0  0  0  0  0  0  0  0  0
    9.3739   -9.5364    0.0000 C   0  0  0  0  0  0  0  0  0  0  0  0
    8.6594   -9.9489    0.0000 C   0  0  0  0  0  0  0  0  0  0  0  0
    7.9449   -9.5364    0.0000 C   0  0  0  0  0  0  0  0  0  0  0  0
    7.2304   -9.9489    0.0000 C   0  0  0  0  0  0  0  0  0  0  0  0
    6.5160   -9.5364    0.0000 C   0  0  0  0  0  0  0  0  0  0  0  0
    5.8015   -9.9489    0.0000 C   0  0  0  0  0  0  0  0  0  0  0  0
    5.0870   -9.5364    0.0000 C   0  0  0  0  0  0  0  0  0  0  0  0
    5.0870   -8.7114    0.0000 C   0  0  0  0  0  0  0  0  0  0  0  0
    5.8015   -8.2989    0.0000 C   0  0  0  0  0  0  0  0  0  0  0  0
    6.5160   -8.7114    0.0000 C   0  0  0  0  0  0  0  0  0  0  0  0
    7.2304   -8.2989    0.0000 C   0  0  0  0  0  0  0  0  0  0  0  0
    7.9449   -8.7114    0.0000 C   0  0  0  0  0  0  0  0  0  0  0  0
   10.0883   -8.2989    0.0000 C   0  0  0  0  0  0  0  0  0  0  0  0
   10.8028   -8.7114    0.0000 O   0  0  0  0  0  0  0  0  0  0  0  0
    7.2304  -10.7739    0.0000 O   0  0  0  0  0  0  0  0  0  0  0  0
    7.2304   -7.4739    0.0000 O   0  0  0  0  0  0  0  0  0  0  0  0
    4.3726   -9.9489    0.0000 O   0  0  0  0  0  0  0  0  0  0  0  0
    3.6581   -9.5364    0.0000 C   0  0  0  0  0  0  0  0  0  0  0  0
    5.8015  -10.7739    0.0000 O   0  0  0  0  0  0  0  0  0  0  0  0
   10.0883   -9.9489    0.0000 O   0  0  0  0  0  0  0  0  0  0  0  0
    8.6594   -7.4739    0.0000 O   0  0  0  0  0  0  0  0  0  0  0  0
  1  2  1  0  0  0  0
  2  3  2  0  0  0  0
  3  4  1  0  0  0  0
  4  5  2  0  0  0  0
  5  6  1  0  0  0  0
  6  7  1  0  0  0  0
  7  8  1  0  0  0  0
  8  9  2  0  0  0  0
  9 10  1  0  0  0  0
 10 11  2  0  0  0  0
 11 12  1  0  0  0  0
  7 12  2  0  0  0  0
 12 13  1  0  0  0  0
 13 14  1  0  0  0  0
  5 14  1  0  0  0  0
  1 14  2  0  0  0  0
 15 16  2  0  0  0  0
  2 15  1  0  0  0  0
  6 17  2  0  0  0  0
 13 18  2  0  0  0  0
 19 20  1  0  0  0  0
  9 19  1  0  0  0  0
  8 21  1  0  0  0  0
  3 22  1  0  0  0  0
  1 23  1  0  0  0  0
M  END
>  <cdx:groupId>
258211

>  <cdx:fragmentId>
258143

$$$$
