6667.cdx
  Mrv1902 05222410182D          

 24 26  0  0  0  0            999 V2000
    3.3445   -8.8894    0.0000 C   0  0  0  0  0  0  0  0  0  0  0  0
    3.3445   -9.7144    0.0000 C   0  0  0  0  0  0  0  0  0  0  0  0
    4.0590  -10.1269    0.0000 C   0  0  2  0  0  0  0  0  0  0  0  0
    4.7735   -9.7144    0.0000 C   0  0  0  0  0  0  0  0  0  0  0  0
    4.7735   -8.8894    0.0000 C   0  0  2  0  0  0  0  0  0  0  0  0
    4.0590   -8.4769    0.0000 C   0  0  0  0  0  0  0  0  0  0  0  0
    5.4879  -10.1269    0.0000 C   0  0  0  0  0  0  0  0  0  0  0  0
    6.2024   -9.7144    0.0000 C   0  0  2  0  0  0  0  0  0  0  0  0
    6.2024   -8.8894    0.0000 C   0  0  0  0  0  0  0  0  0  0  0  0
    5.4879   -8.4769    0.0000 C   0  0  0  0  0  0  0  0  0  0  0  0
    6.9169   -8.4769    0.0000 C   0  0  0  0  0  0  0  0  0  0  0  0
    6.9169   -7.6519    0.0000 C   0  0  0  0  0  0  0  0  0  0  0  0
    6.2024   -7.2394    0.0000 C   0  0  0  0  0  0  0  0  0  0  0  0
    5.4879   -7.6519    0.0000 C   0  0  0  0  0  0  0  0  0  0  0  0
    7.6314   -8.8894    0.0000 O   0  0  0  0  0  0  0  0  0  0  0  0
    8.3458   -7.6519    0.0000 C   0  0  0  0  0  0  0  0  0  0  0  0
    7.6314   -7.2394    0.0000 C   0  0  0  0  0  0  0  0  0  0  0  0
    6.2024   -6.4144    0.0000 O   0  0  0  0  0  0  0  0  0  0  0  0
    4.7735   -7.2394    0.0000 O   0  0  0  0  0  0  0  0  0  0  0  0
    9.0603   -7.2394    0.0000 C   0  0  0  0  0  0  0  0  0  0  0  0
    6.9169  -10.1269    0.0000 O   0  0  0  0  0  0  0  0  0  0  0  0
    4.7735   -8.0644    0.0000 C   0  0  0  0  0  0  0  0  0  0  0  0
    4.4715  -10.8413    0.0000 C   0  0  0  0  0  0  0  0  0  0  0  0
    3.6465  -10.8413    0.0000 C   0  0  0  0  0  0  0  0  0  0  0  0
  1  2  1  0  0  0  0
  2  3  1  0  0  0  0
  3  4  1  0  0  0  0
  4  5  1  0  0  0  0
  5  6  1  0  0  0  0
  6  1  1  0  0  0  0
  4  7  1  0  0  0  0
  7  8  1  0  0  0  0
  8  9  1  0  0  0  0
  9 10  2  0  0  0  0
 10  5  1  0  0  0  0
  9 11  1  0  0  0  0
 11 12  1  0  0  0  0
 12 13  2  0  0  0  0
 13 14  1  0  0  0  0
 14 10  1  0  0  0  0
 11 15  2  0  0  0  0
 16 17  1  0  0  0  0
 17 12  1  0  0  0  0
 13 18  1  0  0  0  0
 14 19  2  0  0  0  0
 16 20  2  0  0  0  0
  8 21  1  6  0  0  0
  5 22  1  1  0  0  0
  3 23  1  6  0  0  0
  3 24  1  1  0  0  0
M  END
>  <cdx:fragmentId>
5

$$$$
