101666840.cdx
  Mrv1902 05222410202D          

 33 37  0  0  0  0            999 V2000
    6.8905  -10.2265    0.0000 C   0  0  1  0  0  0  0  0  0  0  0  0
    6.1059   -9.9715    0.0000 C   0  0  0  0  0  0  0  0  0  0  0  0
    5.3914  -10.3840    0.0000 C   0  0  0  0  0  0  0  0  0  0  0  0
    4.6769   -9.9715    0.0000 C   0  0  0  0  0  0  0  0  0  0  0  0
    3.9624  -10.3840    0.0000 C   0  0  0  0  0  0  0  0  0  0  0  0
    3.2480   -9.9715    0.0000 C   0  0  0  0  0  0  0  0  0  0  0  0
    3.2480   -9.1465    0.0000 C   0  0  0  0  0  0  0  0  0  0  0  0
    3.9624   -8.7340    0.0000 O   0  0  0  0  0  0  0  0  0  0  0  0
    4.6769   -9.1465    0.0000 C   0  0  0  0  0  0  0  0  0  0  0  0
    5.3914   -8.7340    0.0000 C   0  0  0  0  0  0  0  0  0  0  0  0
    6.1059   -9.1465    0.0000 C   0  0  0  0  0  0  0  0  0  0  0  0
    6.8905   -8.8916    0.0000 O   0  0  0  0  0  0  0  0  0  0  0  0
    7.3754   -9.5590    0.0000 C   0  0  1  0  0  0  0  0  0  0  0  0
    8.1959   -9.6452    0.0000 C   0  0  0  0  0  0  0  0  0  0  0  0
    8.6808   -8.9778    0.0000 C   0  0  0  0  0  0  0  0  0  0  0  0
    9.5013   -9.0640    0.0000 C   0  0  0  0  0  0  0  0  0  0  0  0
    9.8368   -9.8177    0.0000 C   0  0  0  0  0  0  0  0  0  0  0  0
    9.3519  -10.4852    0.0000 C   0  0  0  0  0  0  0  0  0  0  0  0
    8.5314  -10.3989    0.0000 C   0  0  0  0  0  0  0  0  0  0  0  0
    8.0465  -11.0664    0.0000 O   0  0  0  0  0  0  0  0  0  0  0  0
    7.2260  -10.9801    0.0000 C   0  0  0  0  0  0  0  0  0  0  0  0
   10.6573   -9.9040    0.0000 O   0  0  0  0  0  0  0  0  0  0  0  0
    9.9862   -8.3966    0.0000 C   0  0  0  0  0  0  0  0  0  0  0  0
   10.8067   -8.4828    0.0000 C   0  0  0  0  0  0  0  0  0  0  0  0
   11.2916   -7.8154    0.0000 C   0  0  0  0  0  0  0  0  0  0  0  0
   10.9561   -7.0617    0.0000 C   0  0  0  0  0  0  0  0  0  0  0  0
   12.1121   -7.9016    0.0000 C   0  0  0  0  0  0  0  0  0  0  0  0
    2.4230   -9.1465    0.0000 C   0  0  0  0  0  0  0  0  0  0  0  0
    2.8355   -8.4320    0.0000 C   0  0  0  0  0  0  0  0  0  0  0  0
    8.3452   -8.2241    0.0000 O   0  0  0  0  0  0  0  0  0  0  0  0
    7.5248   -8.1379    0.0000 C   0  0  0  0  0  0  0  0  0  0  0  0
    6.3384  -10.8395    0.0000 H   0  0  0  0  0  0  0  0  0  0  0  0
    7.7879   -8.8445    0.0000 H   0  0  0  0  0  0  0  0  0  0  0  0
  1  2  1  0  0  0  0
  2  3  1  0  0  0  0
  3  4  2  0  0  0  0
  4  5  1  0  0  0  0
  5  6  2  0  0  0  0
  6  7  1  0  0  0  0
  7  8  1  0  0  0  0
  8  9  1  0  0  0  0
  9 10  2  0  0  0  0
 10 11  1  0  0  0  0
 11 12  1  0  0  0  0
 12 13  1  0  0  0  0
 13 14  1  0  0  0  0
 14 15  1  0  0  0  0
 15 16  2  0  0  0  0
 16 17  1  0  0  0  0
 17 18  2  0  0  0  0
 18 19  1  0  0  0  0
 19 20  1  0  0  0  0
 20 21  1  0  0  0  0
  1 21  1  0  0  0  0
  1 13  1  0  0  0  0
 14 19  2  0  0  0  0
  2 11  2  0  0  0  0
  4  9  1  0  0  0  0
 17 22  1  0  0  0  0
 23 24  1  0  0  0  0
 24 25  2  0  0  0  0
 25 26  1  0  0  0  0
 25 27  1  0  0  0  0
 16 23  1  0  0  0  0
  7 28  1  0  0  0  0
  7 29  1  0  0  0  0
 30 31  1  0  0  0  0
 15 30  1  0  0  0  0
  1 32  1  6  0  0  0
 13 33  1  6  0  0  0
M  END
>  <cdx:fragmentId>
258219

$$$$
