6669.cdx
  Mrv1902 05222410272D          

 21 21  0  0  0  0            999 V2000
    7.1608   -3.2458    0.0000 C   0  0  0  0  0  0  0  0  0  0  0  0
    7.8753   -3.6583    0.0000 C   0  0  0  0  0  0  0  0  0  0  0  0
    6.4463   -3.6583    0.0000 C   0  0  0  0  0  0  0  0  0  0  0  0
    5.7319   -3.2458    0.0000 C   0  0  0  0  0  0  0  0  0  0  0  0
    5.0174   -3.6583    0.0000 C   0  0  0  0  0  0  0  0  0  0  0  0
    5.0174   -4.4833    0.0000 C   0  0  0  0  0  0  0  0  0  0  0  0
    5.7319   -4.8958    0.0000 C   0  0  0  0  0  0  0  0  0  0  0  0
    6.4463   -4.4833    0.0000 C   0  0  0  0  0  0  0  0  0  0  0  0
    5.7319   -5.7208    0.0000 N   0  3  0  0  0  0  0  0  0  0  0  0
    5.0174   -6.1333    0.0000 O   0  0  0  0  0  0  0  0  0  0  0  0
    6.4463   -6.1333    0.0000 O   0  5  0  0  0  0  0  0  0  0  0  0
    4.3029   -3.2458    0.0000 N   0  3  0  0  0  0  0  0  0  0  0  0
    4.3029   -2.4208    0.0000 O   0  0  0  0  0  0  0  0  0  0  0  0
    3.5884   -3.6583    0.0000 O   0  5  0  0  0  0  0  0  0  0  0  0
    7.1608   -4.8958    0.0000 C   0  0  0  0  0  0  0  0  0  0  0  0
    5.7319   -2.4208    0.0000 C   0  0  0  0  0  0  0  0  0  0  0  0
    4.3029   -4.8958    0.0000 C   0  0  0  0  0  0  0  0  0  0  0  0
    3.5884   -5.3083    0.0000 C   0  0  0  0  0  0  0  0  0  0  0  0
    4.3029   -5.7208    0.0000 C   0  0  0  0  0  0  0  0  0  0  0  0
    3.5884   -4.4833    0.0000 C   0  0  0  0  0  0  0  0  0  0  0  0
    7.1608   -2.4208    0.0000 O   0  0  0  0  0  0  0  0  0  0  0  0
  1  2  1  0  0  0  0
  3  4  1  0  0  0  0
  4  5  2  0  0  0  0
  5  6  1  0  0  0  0
  6  7  2  0  0  0  0
  7  8  1  0  0  0  0
  3  8  2  0  0  0  0
  9 10  2  0  0  0  0
  9 11  1  0  0  0  0
  7  9  1  0  0  0  0
 12 13  2  0  0  0  0
 12 14  1  0  0  0  0
  5 12  1  0  0  0  0
  8 15  1  0  0  0  0
  4 16  1  0  0  0  0
 17 18  1  0  0  0  0
 17 20  1  0  0  0  0
 17 19  1  0  0  0  0
  6 17  1  0  0  0  0
  1  3  1  0  0  0  0
  1 21  2  0  0  0  0
M  CHG  4   9   1  11  -1  12   1  14  -1
M  END
>  <cdx:groupId>
65

>  <cdx:fragmentId>
9

$$$$
