667476.cdx
  Mrv1902 05222410282D          

 20 21  0  0  0  0            999 V2000
    7.4390   -9.9478    0.0000 C   0  0  0  0  0  0  0  0  0  0  0  0
    6.7245   -9.5353    0.0000 C   0  0  0  0  0  0  0  0  0  0  0  0
    6.7245   -8.7103    0.0000 C   0  0  0  0  0  0  0  0  0  0  0  0
    7.4390   -8.2978    0.0000 C   0  0  0  0  0  0  0  0  0  0  0  0
    8.1535   -8.7103    0.0000 C   0  0  0  0  0  0  0  0  0  0  0  0
    8.1535   -9.5353    0.0000 C   0  0  0  0  0  0  0  0  0  0  0  0
    7.4390  -10.7728    0.0000 O   0  0  0  0  0  0  0  0  0  0  0  0
    6.0101   -7.4728    0.0000 C   0  0  0  0  0  0  0  0  0  0  0  0
    6.7245   -7.0603    0.0000 C   0  0  0  0  0  0  0  0  0  0  0  0
    7.4390   -7.4728    0.0000 C   0  0  0  0  0  0  0  0  0  0  0  0
    8.1535   -7.0603    0.0000 C   0  0  0  0  0  0  0  0  0  0  0  0
    8.8680   -7.4728    0.0000 C   0  0  0  0  0  0  0  0  0  0  0  0
    9.5824   -7.0603    0.0000 C   0  0  0  0  0  0  0  0  0  0  0  0
    8.1535   -6.2353    0.0000 C   0  0  0  0  0  0  0  0  0  0  0  0
    7.4390   -5.8228    0.0000 C   0  0  0  0  0  0  0  0  0  0  0  0
    7.4390   -4.9978    0.0000 C   0  0  0  0  0  0  0  0  0  0  0  0
    8.1535   -4.5853    0.0000 C   0  0  0  0  0  0  0  0  0  0  0  0
    8.8680   -4.9978    0.0000 C   0  0  0  0  0  0  0  0  0  0  0  0
    8.8680   -5.8228    0.0000 C   0  0  0  0  0  0  0  0  0  0  0  0
    8.1535   -3.7603    0.0000 O   0  0  0  0  0  0  0  0  0  0  0  0
  1  2  1  0  0  0  0
  2  3  2  0  0  0  0
  3  4  1  0  0  0  0
  4  5  2  0  0  0  0
  5  6  1  0  0  0  0
  1  6  2  0  0  0  0
  1  7  1  0  0  0  0
  8  9  1  0  0  0  0
  9 10  2  0  0  0  0
 10 11  1  0  0  0  0
 11 12  2  0  0  0  0
 12 13  1  0  0  0  0
 14 15  1  0  0  0  0
 15 16  2  0  0  0  0
 16 17  1  0  0  0  0
 17 18  2  0  0  0  0
 18 19  1  0  0  0  0
 14 19  2  0  0  0  0
 17 20  1  0  0  0  0
 11 14  1  0  0  0  0
  4 10  1  0  0  0  0
M  END
>  <cdx:fragmentId>
14062

$$$$
