667551.cdx
  Mrv1902 05222410202D          

 38 39  0  0  0  0            999 V2000
    6.3081   -8.5898    0.0000 O   0  0  0  0  0  0  0  0  0  0  0  0
    1.9899   -6.0721    0.0000 C   0  0  0  0  0  0  0  0  0  0  0  0
    2.7042   -6.4850    0.0000 C   0  0  2  0  0  0  0  0  0  0  0  0
    2.7037   -7.3100    0.0000 C   0  0  0  0  0  0  0  0  0  0  0  0
    1.9890   -7.7221    0.0000 C   0  0  0  0  0  0  0  0  0  0  0  0
    1.9904   -5.2471    0.0000 O   0  0  0  0  0  0  0  0  0  0  0  0
    1.2752   -6.4842    0.0000 O   0  0  0  0  0  0  0  0  0  0  0  0
    4.8469   -7.7237    0.0000 C   0  0  1  0  0  0  0  0  0  0  0  0
    4.8478   -6.0737    0.0000 O   0  0  0  0  0  0  0  0  0  0  0  0
    4.8464   -8.5487    0.0000 C   0  0  0  0  0  0  0  0  0  0  0  0
    4.1317   -8.9608    0.0000 C   0  0  0  0  0  0  0  0  0  0  0  0
    4.1312   -9.7858    0.0000 C   0  0  0  0  0  0  0  0  0  0  0  0
    4.8455  -10.1987    0.0000 C   0  0  0  0  0  0  0  0  0  0  0  0
    7.0303   -7.3528    0.0000 C   0  0  2  0  0  0  0  0  0  0  0  0
    7.0307   -6.5278    0.0000 C   0  0  0  0  0  0  0  0  0  0  0  0
    7.7445   -7.7657    0.0000 N   0  0  0  0  0  0  0  0  0  0  0  0
    8.4592   -7.3536    0.0000 C   0  0  0  0  0  0  0  0  0  0  0  0
    9.1734   -7.7665    0.0000 C   0  0  0  0  0  0  0  0  0  0  0  0
    9.1730   -8.5915    0.0000 C   0  0  1  0  0  0  0  0  0  0  0  0
    9.8872   -9.0044    0.0000 O   0  0  0  0  0  0  0  0  0  0  0  0
    8.4597   -6.5286    0.0000 O   0  0  0  0  0  0  0  0  0  0  0  0
    9.8881   -7.3544    0.0000 N   0  0  0  0  0  0  0  0  0  0  0  0
   10.6024   -7.7673    0.0000 C   0  0  0  0  0  0  0  0  0  0  0  0
   10.6019   -8.5923    0.0000 O   0  0  0  0  0  0  0  0  0  0  0  0
    7.7454   -6.1157    0.0000 O   0  0  0  0  0  0  0  0  0  0  0  0
    5.5602   -9.7866    0.0000 C   0  0  0  0  0  0  0  0  0  0  0  0
    5.5606   -8.9616    0.0000 C   0  0  0  0  0  0  0  0  0  0  0  0
    6.3156   -7.7649    0.0000 C   0  0  0  0  0  0  0  0  0  0  0  0
    5.5616   -7.3116    0.0000 N   0  0  0  0  0  0  0  0  0  0  0  0
    4.1326   -7.3108    0.0000 C   0  0  0  0  0  0  0  0  0  0  0  0
    4.1331   -6.4858    0.0000 C   0  0  0  0  0  0  0  0  0  0  0  0
    3.4189   -6.0729    0.0000 N   0  0  0  0  0  0  0  0  0  0  0  0
   12.6230   -7.0784    0.0000 C   0  0  0  0  0  0  0  0  0  0  0  0
   12.2109   -6.3637    0.0000 C   0  0  0  0  0  0  0  0  0  0  0  0
   11.4038   -6.5348    0.0000 C   0  0  0  0  0  0  0  0  0  0  0  0
   11.3171   -7.3552    0.0000 C   0  0  0  0  0  0  0  0  0  0  0  0
   12.0706   -7.6912    0.0000 N   0  0  0  0  0  0  0  0  0  0  0  0
    8.4583   -9.0036    0.0000 C   0  0  0  0  0  0  0  0  0  0  0  0
 28  1  1  0  0  0  0
 29 28  2  0  0  0  0
 32 31  2  0  0  0  0
  8 29  1  0  0  0  0
 31  9  1  0  0  0  0
 31 30  1  0  0  0  0
 37 33  1  0  0  0  0
 34 33  2  0  0  0  0
 35 34  1  0  0  0  0
 36 35  2  0  0  0  0
 37 36  1  0  0  0  0
  2  3  1  0  0  0  0
  3  4  1  1  0  0  0
  4  5  1  0  0  0  0
 30  8  1  0  0  0  0
  2  6  2  0  0  0  0
 10 11  1  0  0  0  0
 11 12  2  0  0  0  0
 12 13  1  0  0  0  0
 28 14  1  0  0  0  0
 14 15  1  6  0  0  0
 17 18  1  0  0  0  0
 18 19  1  0  0  0  0
 19 20  1  1  0  0  0
 17 21  1  0  0  0  0
 23 24  2  0  0  0  0
 23 36  1  0  0  0  0
 22 23  1  0  0  0  0
 18 22  1  0  0  0  0
 16 17  2  0  0  0  0
 14 16  1  0  0  0  0
 15 25  1  0  0  0  0
 13 26  2  0  0  0  0
 26 27  1  0  0  0  0
 10 27  2  0  0  0  0
  8 10  1  6  0  0  0
  2  7  1  0  0  0  0
  3 32  1  0  0  0  0
 19 38  1  0  0  0  0
M  END
>  <cdx:fragmentId>
115

$$$$
