667552.cdx
  Mrv1902 05222410212D          

 39 40  0  0  0  0            999 V2000
    1.5399   -6.0576    0.0000 C   0  0  0  0  0  0  0  0  0  0  0  0
    7.2843   -8.6036    0.0000 O   0  0  0  0  0  0  0  0  0  0  0  0
    2.9688   -6.0612    0.0000 C   0  0  0  0  0  0  0  0  0  0  0  0
    3.6822   -6.4756    0.0000 C   0  0  2  0  0  0  0  0  0  0  0  0
    3.6801   -7.3006    0.0000 C   0  0  0  0  0  0  0  0  0  0  0  0
    2.9646   -7.7112    0.0000 C   0  0  0  0  0  0  0  0  0  0  0  0
    5.1090   -7.3042    0.0000 C   0  0  0  0  0  0  0  0  0  0  0  0
    5.8173   -7.7272    0.0000 C   0  0  1  0  0  0  0  0  0  0  0  0
    2.9709   -5.2362    0.0000 O   0  0  0  0  0  0  0  0  0  0  0  0
    5.8051   -8.5522    0.0000 C   0  0  0  0  0  0  0  0  0  0  0  0
    5.0846   -8.9540    0.0000 C   0  0  0  0  0  0  0  0  0  0  0  0
    5.0724   -9.7789    0.0000 C   0  0  0  0  0  0  0  0  0  0  0  0
    5.7806  -10.2020    0.0000 C   0  0  0  0  0  0  0  0  0  0  0  0
    6.5011   -9.8001    0.0000 C   0  0  0  0  0  0  0  0  0  0  0  0
    8.0065   -7.3665    0.0000 C   0  0  2  0  0  0  0  0  0  0  0  0
    8.0070   -6.5415    0.0000 C   0  0  0  0  0  0  0  0  0  0  0  0
    8.7208   -7.7794    0.0000 N   0  0  0  0  0  0  0  0  0  0  0  0
    9.4355   -7.3673    0.0000 C   0  0  0  0  0  0  0  0  0  0  0  0
   10.1497   -7.7802    0.0000 C   0  0  0  0  0  0  0  0  0  0  0  0
   10.1492   -8.6052    0.0000 C   0  0  1  0  0  0  0  0  0  0  0  0
   10.8635   -9.0181    0.0000 O   0  0  0  0  0  0  0  0  0  0  0  0
    9.4359   -6.5423    0.0000 O   0  0  0  0  0  0  0  0  0  0  0  0
   10.8644   -7.3681    0.0000 N   0  0  0  0  0  0  0  0  0  0  0  0
   11.5786   -7.7810    0.0000 C   0  0  0  0  0  0  0  0  0  0  0  0
   11.5782   -8.6060    0.0000 O   0  0  0  0  0  0  0  0  0  0  0  0
   12.3800   -6.5485    0.0000 N   0  0  0  0  0  0  0  0  0  0  0  0
   12.2933   -7.3689    0.0000 C   0  0  0  0  0  0  0  0  0  0  0  0
   13.0468   -7.7049    0.0000 C   0  0  0  0  0  0  0  0  0  0  0  0
   13.5992   -7.0921    0.0000 C   0  0  0  0  0  0  0  0  0  0  0  0
   13.1871   -6.3774    0.0000 C   0  0  0  0  0  0  0  0  0  0  0  0
    8.7217   -6.1294    0.0000 O   0  0  0  0  0  0  0  0  0  0  0  0
    6.5134   -8.9752    0.0000 C   0  0  0  0  0  0  0  0  0  0  0  0
    6.5378   -7.3254    0.0000 N   0  0  0  0  0  0  0  0  0  0  0  0
    2.2533   -6.4719    0.0000 O   0  0  0  0  0  0  0  0  0  0  0  0
    5.8267   -6.0685    0.0000 O   0  0  0  0  0  0  0  0  0  0  0  0
    7.2918   -7.7786    0.0000 C   0  0  0  0  0  0  0  0  0  0  0  0
    5.1111   -6.4792    0.0000 C   0  0  0  0  0  0  0  0  0  0  0  0
    4.3977   -6.0649    0.0000 N   0  0  0  0  0  0  0  0  0  0  0  0
    9.4345   -9.0173    0.0000 C   0  0  0  0  0  0  0  0  0  0  0  0
 34  1  1  0  0  0  0
 36  2  1  0  0  0  0
 33 36  2  0  0  0  0
 38 37  2  0  0  0  0
 37 35  1  0  0  0  0
  3  4  1  0  0  0  0
 37  7  1  0  0  0  0
  7  8  1  0  0  0  0
  4  5  1  1  0  0  0
 10 11  1  0  0  0  0
 11 12  2  0  0  0  0
 12 13  1  0  0  0  0
 13 14  2  0  0  0  0
 36 15  1  0  0  0  0
 15 16  1  6  0  0  0
 18 19  1  0  0  0  0
 19 20  1  0  0  0  0
 20 21  1  1  0  0  0
 18 22  1  0  0  0  0
 24 25  2  0  0  0  0
 26 27  1  0  0  0  0
 27 28  2  0  0  0  0
 28 29  1  0  0  0  0
 29 30  2  0  0  0  0
 26 30  1  0  0  0  0
 24 27  1  0  0  0  0
 23 24  1  0  0  0  0
 19 23  1  0  0  0  0
 17 18  2  0  0  0  0
 15 17  1  0  0  0  0
 16 31  1  0  0  0  0
 14 32  1  0  0  0  0
 10 32  2  0  0  0  0
  8 10  1  6  0  0  0
  8 33  1  0  0  0  0
  5  6  1  0  0  0  0
  3  9  2  0  0  0  0
 20 39  1  0  0  0  0
  3 34  1  0  0  0  0
  4 38  1  0  0  0  0
M  END
>  <cdx:fragmentId>
115

$$$$
