101667556.cdx
  Mrv1902 05222410222D          

 31 33  0  0  0  0            999 V2000
    7.7225   -9.2675    0.0000 C   0  0  1  0  0  0  0  0  0  0  0  0
    8.4370   -8.8550    0.0000 C   0  0  1  0  0  0  0  0  0  0  0  0
    8.4370   -8.0300    0.0000 C   0  0  1  0  0  0  0  0  0  0  0  0
    7.7225   -7.6175    0.0000 C   0  0  0  0  0  0  0  0  0  0  0  0
    7.0080   -8.0300    0.0000 C   0  0  0  0  0  0  0  0  0  0  0  0
    7.0080   -8.8550    0.0000 O   0  0  0  0  0  0  0  0  0  0  0  0
    9.2216   -7.7751    0.0000 C   0  0  1  0  0  0  0  0  0  0  0  0
    9.7065   -8.4425    0.0000 C   0  0  2  0  0  0  0  0  0  0  0  0
    9.2216   -9.1099    0.0000 C   0  0  1  0  0  0  0  0  0  0  0  0
    7.7225   -6.7925    0.0000 C   0  0  0  0  0  0  0  0  0  0  0  0
    8.4370   -6.3800    0.0000 O   0  0  0  0  0  0  0  0  0  0  0  0
    7.0080   -6.3800    0.0000 O   0  0  0  0  0  0  0  0  0  0  0  0
    7.7225  -10.0925    0.0000 O   0  0  0  0  0  0  0  0  0  0  0  0
    6.2936  -10.0925    0.0000 O   0  0  0  0  0  0  0  0  0  0  0  0
    7.0080  -10.5050    0.0000 C   0  0  2  0  0  0  0  0  0  0  0  0
    7.0080  -11.3300    0.0000 C   0  0  1  0  0  0  0  0  0  0  0  0
    6.2936  -11.7425    0.0000 C   0  0  2  0  0  0  0  0  0  0  0  0
    5.5791  -11.3300    0.0000 C   0  0  1  0  0  0  0  0  0  0  0  0
    5.5791  -10.5050    0.0000 C   0  0  1  0  0  0  0  0  0  0  0  0
    4.8646  -10.0925    0.0000 C   0  0  0  0  0  0  0  0  0  0  0  0
    4.1501  -10.5050    0.0000 O   0  0  0  0  0  0  0  0  0  0  0  0
    4.8646  -11.7425    0.0000 O   0  0  0  0  0  0  0  0  0  0  0  0
    6.2936  -12.5675    0.0000 O   0  0  0  0  0  0  0  0  0  0  0  0
    7.7225  -11.7425    0.0000 O   0  0  0  0  0  0  0  0  0  0  0  0
    9.0501   -9.9169    0.0000 C   0  0  0  0  0  0  0  0  0  0  0  0
    9.8347   -9.6620    0.0000 O   0  0  0  0  0  0  0  0  0  0  0  0
    9.4765   -6.9904    0.0000 O   0  0  0  0  0  0  0  0  0  0  0  0
    8.5232   -7.2095    0.0000 O   0  0  0  0  0  0  0  0  0  0  0  0
   10.5315   -8.4425    0.0000 Cl  0  0  0  0  0  0  0  0  0  0  0  0
    8.5232   -9.6755    0.0000 H   0  0  0  0  0  0  0  0  0  0  0  0
    7.0080   -5.5550    0.0000 C   0  0  0  0  0  0  0  0  0  0  0  0
  1  2  1  0  0  0  0
  2  3  1  0  0  0  0
  3  4  1  0  0  0  0
  4  5  2  0  0  0  0
  5  6  1  0  0  0  0
  1  6  1  0  0  0  0
  7  8  1  0  0  0  0
  8  9  1  0  0  0  0
  9  2  1  0  0  0  0
  7  3  1  0  0  0  0
 10 11  2  0  0  0  0
 10 12  1  0  0  0  0
  4 10  1  0  0  0  0
 14 15  1  0  0  0  0
 15 16  1  0  0  0  0
 16 17  1  0  0  0  0
 17 18  1  0  0  0  0
 18 19  1  0  0  0  0
 14 19  1  0  0  0  0
 20 21  1  0  0  0  0
 19 20  1  1  0  0  0
 18 22  1  6  0  0  0
 17 23  1  1  0  0  0
 16 24  1  6  0  0  0
 15 13  1  1  0  0  0
  1 13  1  6  0  0  0
  9 25  1  1  0  0  0
  9 26  1  6  0  0  0
  7 27  1  6  0  0  0
  3 28  1  6  0  0  0
  8 29  1  1  0  0  0
  2 30  1  6  0  0  0
 12 31  1  0  0  0  0
M  END
>  <cdx:groupId>
258813

>  <cdx:fragmentId>
258721

$$$$
