667940.cdx
  Mrv1902 05222410232D          

 34 38  0  0  0  0            999 V2000
    8.6044   -7.3585    0.0000 H   0  0  0  0  0  0  0  0  0  0  0  0
    8.2830   -7.6008    0.0000 H   0  0  0  0  0  0  0  0  0  0  0  0
    7.1269   -8.7107    0.0000 C   0  0  1  0  0  0  0  0  0  0  0  0
    7.6694   -8.0891    0.0000 C   0  0  0  0  0  0  0  0  0  0  0  0
    8.4282   -8.4129    0.0000 C   0  0  2  0  0  0  0  0  0  0  0  0
    8.3547   -9.2346    0.0000 N   0  0  0  0  0  0  0  0  0  0  0  0
    8.9784   -9.7740    0.0000 C   0  0  0  0  0  0  0  0  0  0  0  0
    8.9508  -10.5986    0.0000 C   0  0  0  0  0  0  0  0  0  0  0  0
    8.2910  -11.0938    0.0000 C   0  0  0  0  0  0  0  0  0  0  0  0
    7.4915  -10.8901    0.0000 C   0  0  0  0  0  0  0  0  0  0  0  0
    7.1492  -10.1395    0.0000 C   0  0  2  0  0  0  0  0  0  0  0  0
    6.3243  -10.1523    0.0000 C   0  0  2  0  0  0  0  0  0  0  0  0
    5.9007   -9.4444    0.0000 C   0  0  1  0  0  0  0  0  0  0  0  0
    5.0912   -9.2854    0.0000 O   0  0  0  0  0  0  0  0  0  0  0  0
    4.9922   -8.4664    0.0000 C   0  0  0  0  0  0  0  0  0  0  0  0
    5.7405   -8.1191    0.0000 C   0  0  2  0  0  0  0  0  0  0  0  0
    6.3020   -8.7236    0.0000 C   0  0  1  0  0  0  0  0  0  0  0  0
    7.5505   -9.4187    0.0000 C   0  0  2  0  0  0  0  0  0  0  0  0
    4.2714   -8.0651    0.0000 O   0  0  0  0  0  0  0  0  0  0  0  0
   11.2591   -7.7649    0.0000 C   0  0  0  0  0  0  0  0  0  0  0  0
   10.3376   -6.2247    0.0000 O   0  0  0  0  0  0  0  0  0  0  0  0
    5.8995   -7.3096    0.0000 C   0  0  0  0  0  0  0  0  0  0  0  0
    5.9230  -10.8731    0.0000 C   0  0  0  0  0  0  0  0  0  0  0  0
    5.1009  -10.8031    0.0000 C   0  0  0  0  0  0  0  0  0  0  0  0
    6.9134   -7.9138    0.0000 H   0  0  0  0  0  0  0  0  0  0  0  0
    6.7479  -10.8603    0.0000 H   0  0  0  0  0  0  0  0  0  0  0  0
    5.4262  -10.1193    0.0000 H   0  0  0  0  0  0  0  0  0  0  0  0
    6.5156   -7.9267    0.0000 H   0  0  0  0  0  0  0  0  0  0  0  0
    7.9518   -8.6979    0.0000 H   0  0  0  0  0  0  0  0  0  0  0  0
   10.0138   -6.9835    0.0000 C   0  0  0  0  0  0  0  0  0  0  0  0
   10.4374   -7.6915    0.0000 C   0  0  2  0  0  0  0  0  0  0  0  0
    9.8949   -8.3131    0.0000 C   0  0  0  0  0  0  0  0  0  0  0  0
    9.1361   -7.9893    0.0000 C   0  0  2  0  0  0  0  0  0  0  0  0
    9.2096   -7.1676    0.0000 O   0  0  0  0  0  0  0  0  0  0  0  0
 33  1  1  6  0  0  0
 31 20  1  1  0  0  0
 30 21  2  0  0  0  0
  5  2  1  6  0  0  0
 34 30  1  0  0  0  0
 31 30  1  0  0  0  0
 32 31  1  0  0  0  0
 33 32  1  0  0  0  0
 33 34  1  0  0  0  0
  3  4  1  0  0  0  0
  5  4  1  0  0  0  0
  5  6  1  0  0  0  0
  6  7  1  0  0  0  0
  7  8  1  0  0  0  0
  8  9  1  0  0  0  0
  9 10  1  0  0  0  0
 10 11  1  0  0  0  0
 11 12  1  0  0  0  0
 12 13  1  0  0  0  0
 13 14  1  0  0  0  0
 14 15  1  0  0  0  0
 15 16  1  0  0  0  0
 16 17  1  0  0  0  0
  3 17  1  0  0  0  0
  3 18  1  0  0  0  0
 18 11  1  0  0  0  0
 13 17  1  0  0  0  0
  6 18  1  0  0  0  0
 15 19  2  0  0  0  0
  5 33  1  0  0  0  0
 16 22  1  1  0  0  0
 23 24  1  0  0  0  0
 12 23  1  1  0  0  0
  3 25  1  1  0  0  0
 11 26  1  1  0  0  0
 13 27  1  6  0  0  0
 17 28  1  6  0  0  0
 18 29  1  1  0  0  0
M  END
>  <cdx:fragmentId>
78320

$$$$
