668492.cdx
  Mrv1902 05222410252D          

 59 66  0  0  0  0            999 V2000
   15.8013   -9.9794    0.0000 C   0  0  1  0  0  0  0  0  0  0  0  0
   16.5127   -9.5618    0.0000 C   0  0  2  0  0  0  0  0  0  0  0  0
   17.2992   -9.8110    0.0000 C   0  0  0  0  0  0  0  0  0  0  0  0
   17.7793   -9.1401    0.0000 C   0  0  2  0  0  0  0  0  0  0  0  0
   18.5620   -8.8795    0.0000 O   0  0  0  0  0  0  0  0  0  0  0  0
   18.5561   -8.0545    0.0000 C   0  0  2  0  0  0  0  0  0  0  0  0
   17.7696   -7.8053    0.0000 C   0  0  2  0  0  0  0  0  0  0  0  0
   17.2895   -8.4762    0.0000 C   0  0  2  0  0  0  0  0  0  0  0  0
   16.5068   -8.7368    0.0000 C   0  0  1  0  0  0  0  0  0  0  0  0
   15.7894   -8.3294    0.0000 C   0  0  0  0  0  0  0  0  0  0  0  0
   15.0779   -8.7471    0.0000 C   0  0  0  0  0  0  0  0  0  0  0  0
   15.0838   -9.5721    0.0000 C   0  0  2  0  0  0  0  0  0  0  0  0
   14.3724   -9.9897    0.0000 C   0  0  1  0  0  0  0  0  0  0  0  0
   13.6549   -9.5824    0.0000 C   0  0  1  0  0  0  0  0  0  0  0  0
   12.9435  -10.0000    0.0000 C   0  0  0  0  0  0  0  0  0  0  0  0
   12.9494  -10.8250    0.0000 C   0  0  1  0  0  0  0  0  0  0  0  0
   13.6668  -11.2323    0.0000 C   0  0  0  0  0  0  0  0  0  0  0  0
   14.3783  -10.8147    0.0000 C   0  0  0  0  0  0  0  0  0  0  0  0
   15.0958  -11.2220    0.0000 C   0  0  0  0  0  0  0  0  0  0  0  0
   15.8072  -10.8044    0.0000 C   0  0  0  0  0  0  0  0  0  0  0  0
   18.4639   -7.2347    0.0000 O   0  0  0  0  0  0  0  0  0  0  0  0
   19.3122   -8.3846    0.0000 C   0  0  0  0  0  0  0  0  0  0  0  0
   19.9761   -7.8949    0.0000 C   0  0  0  0  0  0  0  0  0  0  0  0
   19.8839   -7.0751    0.0000 C   0  0  2  0  0  0  0  0  0  0  0  0
   19.1278   -6.7450    0.0000 C   0  0  0  0  0  0  0  0  0  0  0  0
   12.2379  -11.2427    0.0000 O   0  0  0  0  0  0  0  0  0  0  0  0
   14.3664   -9.1647    0.0000 C   0  0  0  0  0  0  0  0  0  0  0  0
   16.5068   -7.9118    0.0000 C   0  0  0  0  0  0  0  0  0  0  0  0
   17.5090   -7.0225    0.0000 C   0  0  0  0  0  0  0  0  0  0  0  0
   20.5478   -6.5853    0.0000 C   0  0  0  0  0  0  0  0  0  0  0  0
   15.7953   -9.1544    0.0000 H   0  0  0  0  0  0  0  0  0  0  0  0
   16.5187  -10.3867    0.0000 H   0  0  0  0  0  0  0  0  0  0  0  0
   18.2690   -9.8040    0.0000 H   0  0  0  0  0  0  0  0  0  0  0  0
   16.9225   -7.7373    0.0000 H   0  0  0  0  0  0  0  0  0  0  0  0
   15.0898  -10.3970    0.0000 H   0  0  0  0  0  0  0  0  0  0  0  0
   13.6490   -8.7574    0.0000 O   0  0  0  0  0  0  0  0  0  0  0  0
   13.2264   -8.0489    0.0000 C   0  0  2  0  0  0  0  0  0  0  0  0
   13.6261   -7.3272    0.0000 O   0  0  0  0  0  0  0  0  0  0  0  0
   13.2009   -6.6201    0.0000 C   0  0  1  0  0  0  0  0  0  0  0  0
   12.3837   -6.6214    0.0000 C   0  0  1  0  0  0  0  0  0  0  0  0
   11.9762   -7.3386    0.0000 C   0  0  1  0  0  0  0  0  0  0  0  0
   12.3936   -8.0412    0.0000 C   0  0  1  0  0  0  0  0  0  0  0  0
   11.9823   -8.7564    0.0000 O   0  0  0  0  0  0  0  0  0  0  0  0
   11.1513   -7.3466    0.0000 O   0  0  0  0  0  0  0  0  0  0  0  0
   11.9682   -5.9086    0.0000 O   0  0  0  0  0  0  0  0  0  0  0  0
   13.6065   -5.9017    0.0000 C   0  0  0  0  0  0  0  0  0  0  0  0
   11.1573   -8.7577    0.0000 C   0  0  2  0  0  0  0  0  0  0  0  0
   10.7430   -8.0443    0.0000 O   0  0  0  0  0  0  0  0  0  0  0  0
    9.9180   -8.0443    0.0000 C   0  0  2  0  0  0  0  0  0  0  0  0
    9.5073   -8.7577    0.0000 C   0  0  1  0  0  0  0  0  0  0  0  0
    9.9180   -9.4712    0.0000 C   0  0  2  0  0  0  0  0  0  0  0  0
   10.7430   -9.4712    0.0000 C   0  0  1  0  0  0  0  0  0  0  0  0
    8.6823   -8.7577    0.0000 O   0  0  0  0  0  0  0  0  0  0  0  0
    9.5051  -10.1854    0.0000 O   0  0  0  0  0  0  0  0  0  0  0  0
   11.1546  -10.1862    0.0000 O   0  0  0  0  0  0  0  0  0  0  0  0
    9.5051   -7.3301    0.0000 C   0  0  0  0  0  0  0  0  0  0  0  0
    9.9171  -10.9001    0.0000 C   0  0  0  0  0  0  0  0  0  0  0  0
    9.5042  -11.6143    0.0000 O   0  0  0  0  0  0  0  0  0  0  0  0
   10.7421  -10.9006    0.0000 C   0  0  0  0  0  0  0  0  0  0  0  0
  1  2  1  0  0  0  0
  2  3  1  0  0  0  0
  3  4  1  0  0  0  0
  4  5  1  0  0  0  0
  6  5  1  6  0  0  0
  6  7  1  0  0  0  0
  7  8  1  0  0  0  0
  8  9  1  0  0  0  0
  9 10  1  0  0  0  0
 10 11  1  0  0  0  0
 11 12  1  0  0  0  0
 12 13  1  0  0  0  0
 13 14  1  0  0  0  0
 14 15  1  0  0  0  0
 15 16  1  0  0  0  0
 16 17  1  0  0  0  0
 17 18  1  0  0  0  0
 18 19  2  0  0  0  0
 19 20  1  0  0  0  0
  1 20  1  0  0  0  0
  1 12  1  0  0  0  0
 13 18  1  0  0  0  0
  2  9  1  0  0  0  0
  4  8  1  0  0  0  0
 22 23  1  0  0  0  0
 23 24  1  0  0  0  0
 24 25  1  0  0  0  0
 21 25  1  0  0  0  0
  6 21  1  0  0  0  0
  6 22  1  0  0  0  0
 16 26  1  1  0  0  0
 13 27  1  1  0  0  0
  9 28  1  1  0  0  0
  7 29  1  6  0  0  0
 24 30  1  6  0  0  0
  1 31  1  1  0  0  0
  2 32  1  6  0  0  0
  4 33  1  6  0  0  0
  8 34  1  6  0  0  0
 12 35  1  6  0  0  0
 14 36  1  1  0  0  0
 37 36  1  1  0  0  0
 37 38  1  0  0  0  0
 38 39  1  0  0  0  0
 39 40  1  0  0  0  0
 40 41  1  0  0  0  0
 41 42  1  0  0  0  0
 42 37  1  0  0  0  0
 42 43  1  6  0  0  0
 41 44  1  1  0  0  0
 40 45  1  1  0  0  0
 39 46  1  1  0  0  0
 47 43  1  1  0  0  0
 47 48  1  0  0  0  0
 48 49  1  0  0  0  0
 49 50  1  0  0  0  0
 50 51  1  0  0  0  0
 51 52  1  0  0  0  0
 52 47  1  0  0  0  0
 50 53  1  1  0  0  0
 51 54  1  6  0  0  0
 52 55  1  6  0  0  0
 49 56  1  6  0  0  0
 54 57  1  0  0  0  0
 57 58  2  0  0  0  0
 57 59  1  0  0  0  0
M  END
>  <cdx:fragmentId>
5

$$$$
