6684.cdx
  Mrv1902 05222410262D          

 14 14  0  0  0  0            999 V2000
    3.6952   -7.6725    0.0000 C   0  0  0  0  0  0  0  0  0  0  0  0
    3.6952   -8.4975    0.0000 C   0  0  0  0  0  0  0  0  0  0  0  0
    4.4096   -8.9100    0.0000 C   0  0  0  0  0  0  0  0  0  0  0  0
    5.1241   -8.4975    0.0000 C   0  0  0  0  0  0  0  0  0  0  0  0
    5.1241   -7.6725    0.0000 C   0  0  0  0  0  0  0  0  0  0  0  0
    4.4096   -7.2600    0.0000 C   0  0  0  0  0  0  0  0  0  0  0  0
    2.9807   -8.9100    0.0000 O   0  0  0  0  0  0  0  0  0  0  0  0
    5.8386   -7.2600    0.0000 C   0  0  0  0  0  0  0  0  0  0  0  0
    6.5530   -7.6725    0.0000 C   0  0  0  0  0  0  0  0  0  0  0  0
    7.2675   -7.2600    0.0000 C   0  0  0  0  0  0  0  0  0  0  0  0
    7.9820   -7.6725    0.0000 O   0  0  0  0  0  0  0  0  0  0  0  0
    7.2675   -6.4350    0.0000 O   0  0  0  0  0  0  0  0  0  0  0  0
    8.6965   -7.2600    0.0000 C   0  0  0  0  0  0  0  0  0  0  0  0
    9.4109   -7.6725    0.0000 C   0  0  0  0  0  0  0  0  0  0  0  0
  1  2  2  0  0  0  0
  2  3  1  0  0  0  0
  3  4  2  0  0  0  0
  4  5  1  0  0  0  0
  5  6  2  0  0  0  0
  6  1  1  0  0  0  0
  2  7  1  0  0  0  0
  5  8  1  0  0  0  0
  8  9  2  0  0  0  0
  9 10  1  0  0  0  0
 10 11  1  0  0  0  0
 10 12  2  0  0  0  0
 11 13  1  0  0  0  0
 13 14  1  0  0  0  0
M  END
>  <cdx:fragmentId>
5

$$$$
