66841.cdx
  Mrv1902 05222410232D          

 10 10  0  0  0  0            999 V2000
    6.6060   -6.6309    0.0000 C   0  0  0  0  0  0  0  0  0  0  0  0
    7.3213   -7.0419    0.0000 C   0  0  0  0  0  0  0  0  0  0  0  0
    7.3231   -7.8669    0.0000 C   0  0  0  0  0  0  0  0  0  0  0  0
    6.6095   -8.2809    0.0000 C   0  0  0  0  0  0  0  0  0  0  0  0
    5.8941   -7.8700    0.0000 C   0  0  0  0  0  0  0  0  0  0  0  0
    5.8924   -7.0450    0.0000 C   0  0  0  0  0  0  0  0  0  0  0  0
    6.6042   -5.8059    0.0000 C   0  0  0  0  0  0  0  0  0  0  0  0
    7.3178   -5.3919    0.0000 C   0  0  0  0  0  0  0  0  0  0  0  0
    5.8888   -5.3950    0.0000 C   0  0  0  0  0  0  0  0  0  0  0  0
    6.6112   -9.1059    0.0000 C   0  0  0  0  0  0  0  0  0  0  0  0
  1  2  2  0  0  0  0
  2  3  1  0  0  0  0
  3  4  1  0  0  0  0
  4  5  1  0  0  0  0
  5  6  1  0  0  0  0
  1  6  1  0  0  0  0
  7  8  1  0  0  0  0
  7  9  1  0  0  0  0
  1  7  1  0  0  0  0
  4 10  2  0  0  0  0
M  END
>  <cdx:fragmentId>
5

$$$$
