6685.cdx
  Mrv1902 05222410262D          

 47 51  0  0  0  0            999 V2000
    3.9220   -5.0944    0.0000 C   0  0  0  0  0  0  0  0  0  0  0  0
    3.9220   -5.9194    0.0000 C   0  0  0  0  0  0  0  0  0  0  0  0
    4.6365   -6.3319    0.0000 C   0  0  0  0  0  0  0  0  0  0  0  0
    5.3510   -5.9194    0.0000 C   0  0  0  0  0  0  0  0  0  0  0  0
    5.3510   -5.0944    0.0000 C   0  0  0  0  0  0  0  0  0  0  0  0
    4.6365   -4.6819    0.0000 C   0  0  0  0  0  0  0  0  0  0  0  0
    6.0654   -6.3319    0.0000 C   0  0  1  0  0  0  0  0  0  0  0  0
    6.7799   -5.9194    0.0000 C   0  0  2  0  0  0  0  0  0  0  0  0
    6.7799   -5.0944    0.0000 C   0  0  0  0  0  0  0  0  0  0  0  0
    6.0654   -4.6819    0.0000 C   0  0  0  0  0  0  0  0  0  0  0  0
    3.2076   -4.6819    0.0000 O   0  0  0  0  0  0  0  0  0  0  0  0
    2.4931   -5.0944    0.0000 C   0  0  0  0  0  0  0  0  0  0  0  0
    3.2076   -6.3319    0.0000 O   0  0  0  0  0  0  0  0  0  0  0  0
    4.6365   -7.1569    0.0000 O   0  0  0  0  0  0  0  0  0  0  0  0
    5.3510   -7.5694    0.0000 C   0  0  0  0  0  0  0  0  0  0  0  0
    6.0654   -7.1569    0.0000 C   0  0  0  0  0  0  0  0  0  0  0  0
    5.3510   -8.3944    0.0000 C   0  0  0  0  0  0  0  0  0  0  0  0
    6.0654   -8.8069    0.0000 C   0  0  0  0  0  0  0  0  0  0  0  0
    6.7799   -8.3944    0.0000 C   0  0  0  0  0  0  0  0  0  0  0  0
    6.7799   -7.5694    0.0000 C   0  0  0  0  0  0  0  0  0  0  0  0
    7.4944   -6.3319    0.0000 C   0  0  0  0  0  0  0  0  0  0  0  0
    8.2089   -5.9194    0.0000 N   0  0  0  0  0  0  0  0  0  0  0  0
    8.2089   -5.0944    0.0000 N   0  0  0  0  0  0  0  0  0  0  0  0
    7.4944   -4.6819    0.0000 C   0  0  0  0  0  0  0  0  0  0  0  0
    7.4944   -7.1569    0.0000 O   0  0  0  0  0  0  0  0  0  0  0  0
    8.9233   -6.3319    0.0000 C   0  0  0  0  0  0  0  0  0  0  0  0
   10.3523   -7.1569    0.0000 C   0  0  0  0  0  0  0  0  0  0  0  0
   10.3523   -6.3319    0.0000 C   0  0  0  0  0  0  0  0  0  0  0  0
    9.6378   -5.9194    0.0000 C   0  0  0  0  0  0  0  0  0  0  0  0
   11.0667   -7.5694    0.0000 C   0  0  0  0  0  0  0  0  0  0  0  0
   11.7812   -7.1569    0.0000 C   0  0  0  0  0  0  0  0  0  0  0  0
   11.7812   -6.3319    0.0000 C   0  0  0  0  0  0  0  0  0  0  0  0
   11.0667   -5.9194    0.0000 C   0  0  0  0  0  0  0  0  0  0  0  0
    7.4944   -3.8569    0.0000 O   0  0  0  0  0  0  0  0  0  0  0  0
    3.9220   -7.5694    0.0000 C   0  0  0  0  0  0  0  0  0  0  0  0
    4.6365   -8.8069    0.0000 O   0  0  0  0  0  0  0  0  0  0  0  0
    6.0654   -9.6319    0.0000 O   0  0  0  0  0  0  0  0  0  0  0  0
   12.4957   -7.5694    0.0000 O   0  0  0  0  0  0  0  0  0  0  0  0
    8.9233   -4.6819    0.0000 C   0  0  0  0  0  0  0  0  0  0  0  0
    9.6378   -5.0944    0.0000 C   0  0  0  0  0  0  0  0  0  0  0  0
   10.3523   -4.6819    0.0000 C   0  0  0  0  0  0  0  0  0  0  0  0
   11.0667   -5.0944    0.0000 C   0  0  0  0  0  0  0  0  0  0  0  0
   11.7812   -4.6819    0.0000 C   0  0  0  0  0  0  0  0  0  0  0  0
   11.7812   -3.8569    0.0000 C   0  0  0  0  0  0  0  0  0  0  0  0
   11.0667   -3.4444    0.0000 C   0  0  0  0  0  0  0  0  0  0  0  0
   10.3523   -3.8569    0.0000 C   0  0  0  0  0  0  0  0  0  0  0  0
   12.4957   -3.4444    0.0000 O   0  0  0  0  0  0  0  0  0  0  0  0
  1  2  2  0  0  0  0
  2  3  1  0  0  0  0
  3  4  2  0  0  0  0
  4  5  1  0  0  0  0
  5  6  2  0  0  0  0
  6  1  1  0  0  0  0
  4  7  1  0  0  0  0
  7  8  1  0  0  0  0
  8  9  1  0  0  0  0
  9 10  2  0  0  0  0
 10  5  1  0  0  0  0
  1 11  1  0  0  0  0
 11 12  1  0  0  0  0
 13  2  1  0  0  0  0
  3 14  1  0  0  0  0
 15 16  2  0  0  0  0
  7 16  1  1  0  0  0
 15 17  1  0  0  0  0
 17 18  2  0  0  0  0
 18 19  1  0  0  0  0
 19 20  2  0  0  0  0
 20 16  1  0  0  0  0
  8 21  1  6  0  0  0
 21 22  1  0  0  0  0
 23 24  1  0  0  0  0
 24  9  1  0  0  0  0
 21 25  2  0  0  0  0
 26 22  1  0  0  0  0
 27 28  2  0  0  0  0
 28 29  1  0  0  0  0
 29 26  1  0  0  0  0
 27 30  1  0  0  0  0
 30 31  2  0  0  0  0
 31 32  1  0  0  0  0
 32 33  2  0  0  0  0
 33 28  1  0  0  0  0
 24 34  2  0  0  0  0
 14 35  1  0  0  0  0
 17 36  1  0  0  0  0
 18 37  1  0  0  0  0
 31 38  1  0  0  0  0
 23 39  1  0  0  0  0
 39 40  1  0  0  0  0
 40 41  1  0  0  0  0
 41 42  2  0  0  0  0
 42 43  1  0  0  0  0
 43 44  2  0  0  0  0
 44 45  1  0  0  0  0
 45 46  2  0  0  0  0
 46 41  1  0  0  0  0
 44 47  1  0  0  0  0
M  END
>  <cdx:fragmentId>
5

$$$$
