668663.cdx
  Mrv1902 05222410212D          

 39 42  0  0  0  0            999 V2000
   11.5386   -7.8973    0.0000 C   0  0  0  0  0  0  0  0  0  0  0  0
   10.7316   -8.0688    0.0000 C   0  0  0  0  0  0  0  0  0  0  0  0
   10.1796   -7.4557    0.0000 C   0  0  0  0  0  0  0  0  0  0  0  0
    9.3726   -7.6273    0.0000 C   0  0  0  0  0  0  0  0  0  0  0  0
    8.8206   -7.0142    0.0000 C   0  0  0  0  0  0  0  0  0  0  0  0
    8.0136   -7.1857    0.0000 C   0  0  0  0  0  0  0  0  0  0  0  0
    7.4616   -6.5726    0.0000 C   0  0  0  0  0  0  0  0  0  0  0  0
   11.7936   -7.1127    0.0000 O   0  0  0  0  0  0  0  0  0  0  0  0
   12.0907   -8.5104    0.0000 O   0  0  0  0  0  0  0  0  0  0  0  0
    9.1177   -8.4119    0.0000 O   0  0  0  0  0  0  0  0  0  0  0  0
   10.4767   -8.8535    0.0000 C   0  0  0  0  0  0  0  0  0  0  0  0
    4.1162   -9.0503    0.0000 C   0  0  0  0  0  0  0  0  0  0  0  0
    3.4017   -9.4628    0.0000 C   0  0  0  0  0  0  0  0  0  0  0  0
    3.4017  -10.2878    0.0000 C   0  0  0  0  0  0  0  0  0  0  0  0
    4.1162  -10.7003    0.0000 C   0  0  0  0  0  0  0  0  0  0  0  0
    4.8307  -10.2878    0.0000 C   0  0  0  0  0  0  0  0  0  0  0  0
    5.5451  -10.7003    0.0000 C   0  0  0  0  0  0  0  0  0  0  0  0
    6.2596  -10.2878    0.0000 C   0  0  0  0  0  0  0  0  0  0  0  0
    6.2596   -9.4628    0.0000 C   0  0  0  0  0  0  0  0  0  0  0  0
    6.9741   -9.0503    0.0000 C   0  0  2  0  0  0  0  0  0  0  0  0
    7.7587   -9.3052    0.0000 C   0  0  1  0  0  0  0  0  0  0  0  0
    8.2436   -8.6378    0.0000 C   0  0  0  0  0  0  0  0  0  0  0  0
    7.7587   -7.9703    0.0000 C   0  0  1  0  0  0  0  0  0  0  0  0
    6.9741   -8.2253    0.0000 C   0  0  1  0  0  0  0  0  0  0  0  0
    6.2596   -7.8128    0.0000 C   0  0  2  0  0  0  0  0  0  0  0  0
    5.5451   -8.2253    0.0000 C   0  0  0  0  0  0  0  0  0  0  0  0
    5.5451   -9.0503    0.0000 C   0  0  0  0  0  0  0  0  0  0  0  0
    4.8307   -9.4628    0.0000 C   0  0  1  0  0  0  0  0  0  0  0  0
    4.8307   -7.8128    0.0000 O   0  0  0  0  0  0  0  0  0  0  0  0
    6.9741  -10.7003    0.0000 O   0  0  0  0  0  0  0  0  0  0  0  0
    2.6873  -10.7003    0.0000 O   0  0  0  0  0  0  0  0  0  0  0  0
    6.9741   -9.8753    0.0000 C   0  0  0  0  0  0  0  0  0  0  0  0
    6.9741   -7.4003    0.0000 C   0  0  0  0  0  0  0  0  0  0  0  0
    4.8307   -8.6378    0.0000 C   0  0  0  0  0  0  0  0  0  0  0  0
    4.5287  -11.4147    0.0000 C   0  0  0  0  0  0  0  0  0  0  0  0
    3.7037  -11.4147    0.0000 C   0  0  0  0  0  0  0  0  0  0  0  0
    8.0136  -10.0898    0.0000 O   0  0  0  0  0  0  0  0  0  0  0  0
    6.2596   -6.9878    0.0000 O   0  0  0  0  0  0  0  0  0  0  0  0
    8.5433   -7.7154    0.0000 H   0  0  0  0  0  0  0  0  0  0  0  0
  1  2  1  0  0  0  0
  2  3  1  0  0  0  0
  3  4  1  0  0  0  0
  4  5  1  0  0  0  0
  5  6  2  0  0  0  0
  6  7  1  0  0  0  0
  1  8  2  0  0  0  0
  1  9  1  0  0  0  0
  4 10  2  0  0  0  0
  2 11  1  0  0  0  0
 12 13  1  0  0  0  0
 13 14  1  0  0  0  0
 14 15  1  0  0  0  0
 15 16  1  0  0  0  0
 16 17  1  0  0  0  0
 17 18  1  0  0  0  0
 18 19  1  0  0  0  0
 19 20  1  0  0  0  0
 20 21  1  0  0  0  0
 21 22  1  0  0  0  0
 22 23  1  0  0  0  0
 23 24  1  0  0  0  0
 20 24  1  0  0  0  0
 24 25  1  0  0  0  0
 25 26  1  0  0  0  0
 26 27  1  0  0  0  0
 19 27  2  0  0  0  0
 27 28  1  0  0  0  0
 16 28  1  0  0  0  0
 12 28  1  0  0  0  0
 26 29  2  0  0  0  0
 18 30  2  0  0  0  0
 14 31  2  0  0  0  0
 20 32  1  6  0  0  0
 24 33  1  1  0  0  0
 28 34  1  1  0  0  0
 15 35  1  0  0  0  0
 15 36  1  0  0  0  0
 21 37  1  1  0  0  0
 25 38  1  6  0  0  0
 23  6  1  0  0  0  0
 23 39  1  6  0  0  0
M  END
>  <cdx:fragmentId>
139993

$$$$
