668683.cdx
  Mrv1902 05222410242D          

 52 60  0  0  0  0            999 V2000
    7.5756   -5.8103    0.0000 C   0  0  0  0  0  0  0  0  0  0  0  0
    6.8612   -6.2228    0.0000 C   0  0  0  0  0  0  0  0  0  0  0  0
    7.5756   -4.9853    0.0000 O   0  0  0  0  0  0  0  0  0  0  0  0
    8.2901   -6.2228    0.0000 O   0  0  0  0  0  0  0  0  0  0  0  0
    7.5756   -8.2853    0.0000 C   0  0  2  0  0  0  0  0  0  0  0  0
    7.5756   -7.4603    0.0000 C   0  0  0  0  0  0  0  0  0  0  0  0
    8.2901   -7.0478    0.0000 C   0  0  2  0  0  0  0  0  0  0  0  0
    9.0046   -7.4603    0.0000 C   0  0  2  0  0  0  0  0  0  0  0  0
    9.7892   -7.2054    0.0000 C   0  0  1  0  0  0  0  0  0  0  0  0
   10.1248   -6.4517    0.0000 C   0  0  1  0  0  0  0  0  0  0  0  0
   10.9453   -6.3655    0.0000 C   0  0  0  0  0  0  0  0  0  0  0  0
   11.0946   -7.7866    0.0000 O   0  0  0  0  0  0  0  0  0  0  0  0
   10.2741   -7.8728    0.0000 C   0  0  1  0  0  0  0  0  0  0  0  0
    9.7892   -8.5402    0.0000 C   0  0  0  0  0  0  0  0  0  0  0  0
    9.0046   -8.2853    0.0000 C   0  0  1  0  0  0  0  0  0  0  0  0
    8.2901   -8.6978    0.0000 C   0  0  2  0  0  0  0  0  0  0  0  0
    8.2901   -9.5228    0.0000 C   0  0  0  0  0  0  0  0  0  0  0  0
    7.5756   -9.9353    0.0000 C   0  0  0  0  0  0  0  0  0  0  0  0
    6.8612   -9.5228    0.0000 C   0  0  1  0  0  0  0  0  0  0  0  0
    6.1467   -9.9353    0.0000 C   0  0  0  0  0  0  0  0  0  0  0  0
    5.4322   -9.5228    0.0000 C   0  0  2  0  0  0  0  0  0  0  0  0
    5.4322   -8.6978    0.0000 C   0  0  0  0  0  0  0  0  0  0  0  0
    6.1467   -8.2853    0.0000 C   0  0  0  0  0  0  0  0  0  0  0  0
    6.8612   -8.6978    0.0000 C   0  0  2  0  0  0  0  0  0  0  0  0
    6.8612   -7.8728    0.0000 C   0  0  0  0  0  0  0  0  0  0  0  0
    4.7178   -9.9353    0.0000 O   0  0  0  0  0  0  0  0  0  0  0  0
    4.0033   -8.6978    0.0000 O   0  0  0  0  0  0  0  0  0  0  0  0
    4.0033   -9.5228    0.0000 C   0  0  2  0  0  0  0  0  0  0  0  0
    3.2888   -9.9353    0.0000 C   0  0  1  0  0  0  0  0  0  0  0  0
    2.5744   -9.5228    0.0000 C   0  0  2  0  0  0  0  0  0  0  0  0
    2.5744   -8.6978    0.0000 C   0  0  1  0  0  0  0  0  0  0  0  0
    3.2888   -8.2853    0.0000 C   0  0  0  0  0  0  0  0  0  0  0  0
    1.8599   -8.2853    0.0000 O   0  0  0  0  0  0  0  0  0  0  0  0
    1.8599   -9.9353    0.0000 O   0  0  0  0  0  0  0  0  0  0  0  0
    3.2888  -10.7603    0.0000 O   0  0  0  0  0  0  0  0  0  0  0  0
    6.5592  -10.6498    0.0000 C   0  0  0  0  0  0  0  0  0  0  0  0
    5.7342  -10.6498    0.0000 C   0  0  0  0  0  0  0  0  0  0  0  0
    9.0046   -9.1103    0.0000 C   0  0  0  0  0  0  0  0  0  0  0  0
    9.6398   -5.7843    0.0000 C   0  0  0  0  0  0  0  0  0  0  0  0
    9.0046   -6.6353    0.0000 C   0  0  0  0  0  0  0  0  0  0  0  0
    9.3520   -6.5057    0.0000 H   0  0  0  0  0  0  0  0  0  0  0  0
   10.6866   -8.5873    0.0000 H   0  0  0  0  0  0  0  0  0  0  0  0
    8.2901   -7.8728    0.0000 H   0  0  0  0  0  0  0  0  0  0  0  0
    6.8612  -10.3478    0.0000 H   0  0  0  0  0  0  0  0  0  0  0  0
   11.4302   -8.2591    0.0000 H   0  0  0  0  0  0  0  0  0  0  0  0
   13.5609   -7.3104    0.0000 C   0  0  0  0  0  0  0  0  0  0  0  0
   12.6496   -8.1309    0.0000 O   0  0  0  0  0  0  0  0  0  0  0  0
   11.9822   -7.6460    0.0000 C   0  0  1  0  0  0  0  0  0  0  0  0
   11.4302   -7.0329    0.0000 C   0  0  1  0  0  0  0  0  0  0  0  0
   11.8427   -6.3184    0.0000 O   0  0  0  0  0  0  0  0  0  0  0  0
   12.6496   -6.4900    0.0000 C   0  0  0  0  0  0  0  0  0  0  0  0
   12.7359   -7.3104    0.0000 C   0  0  2  0  0  0  0  0  0  0  0  0
 48 45  1  6  0  0  0
 52 46  1  6  0  0  0
 52 48  1  0  0  0  0
 52 47  1  0  0  0  0
 48 47  1  0  0  0  0
 49 48  1  0  0  0  0
 49 50  1  1  0  0  0
 51 50  1  0  0  0  0
  1  2  1  0  0  0  0
  1  3  2  0  0  0  0
  1  4  1  0  0  0  0
 52 51  1  0  0  0  0
  5  6  1  0  0  0  0
  6  7  1  0  0  0  0
  7  8  1  0  0  0  0
  8  9  1  0  0  0  0
  9 10  1  0  0  0  0
 10 11  1  0  0  0  0
 12 13  1  0  0  0  0
 13 14  1  0  0  0  0
 14 15  1  0  0  0  0
 15 16  1  0  0  0  0
 16 17  1  0  0  0  0
 17 18  1  0  0  0  0
 18 19  1  0  0  0  0
 19 20  1  0  0  0  0
 20 21  1  0  0  0  0
 21 22  1  0  0  0  0
 22 23  1  0  0  0  0
 23 24  1  0  0  0  0
 24 25  1  1  0  0  0
  5 25  1  1  0  0  0
  5 16  1  0  0  0  0
  5 24  1  0  0  0  0
  8 15  1  0  0  0  0
  9 13  1  0  0  0  0
 19 24  1  0  0  0  0
 49 11  1  0  0  0  0
 49 12  1  0  0  0  0
 27 28  1  0  0  0  0
 28 29  1  0  0  0  0
 29 30  1  0  0  0  0
 30 31  1  0  0  0  0
 31 32  1  0  0  0  0
 27 32  1  0  0  0  0
 31 33  1  6  0  0  0
 30 34  1  1  0  0  0
 29 35  1  6  0  0  0
 28 26  1  1  0  0  0
 21 26  1  1  0  0  0
 20 36  1  0  0  0  0
 20 37  1  0  0  0  0
 15 38  1  6  0  0  0
 10 39  1  6  0  0  0
  8 40  1  1  0  0  0
  7  4  1  1  0  0  0
  9 41  1  6  0  0  0
 13 42  1  6  0  0  0
 16 43  1  1  0  0  0
 19 44  1  6  0  0  0
M  END
>  <cdx:fragmentId>
57171

$$$$
