6687.cdx
  Mrv1902 05222410272D          

 22 24  0  0  0  0            999 V2000
   10.6383   -7.1955    0.0000 C   0  0  0  0  0  0  0  0  0  0  0  0
   10.6310   -6.3705    0.0000 C   0  0  0  0  0  0  0  0  0  0  0  0
    9.1874   -4.7333    0.0000 C   0  0  0  0  0  0  0  0  0  0  0  0
    9.9275   -7.6143    0.0000 O   0  0  0  0  0  0  0  0  0  0  0  0
    9.9129   -5.9644    0.0000 O   0  0  0  0  0  0  0  0  0  0  0  0
    8.4767   -5.1521    0.0000 O   0  0  0  0  0  0  0  0  0  0  0  0
    4.1973   -6.0151    0.0000 O   0  0  0  0  0  0  0  0  0  0  0  0
    7.0478   -5.1648    0.0000 O   0  0  0  0  0  0  0  0  0  0  0  0
    5.6262   -6.0024    0.0000 C   0  0  0  0  0  0  0  0  0  0  0  0
    4.9154   -6.4213    0.0000 C   0  0  0  0  0  0  0  0  0  0  0  0
    4.9228   -7.2462    0.0000 C   0  0  0  0  0  0  0  0  0  0  0  0
    5.6409   -7.6524    0.0000 C   0  0  0  0  0  0  0  0  0  0  0  0
    7.0551   -5.9898    0.0000 C   0  0  0  0  0  0  0  0  0  0  0  0
    6.3443   -6.4086    0.0000 C   0  0  0  0  0  0  0  0  0  0  0  0
    6.3516   -7.2335    0.0000 C   0  0  0  0  0  0  0  0  0  0  0  0
    7.0698   -7.6397    0.0000 O   0  0  0  0  0  0  0  0  0  0  0  0
    8.4840   -5.9771    0.0000 C   0  0  0  0  0  0  0  0  0  0  0  0
    7.7732   -6.3959    0.0000 C   0  0  0  0  0  0  0  0  0  0  0  0
    7.7805   -7.2209    0.0000 C   0  0  0  0  0  0  0  0  0  0  0  0
    8.4986   -7.6270    0.0000 C   0  0  0  0  0  0  0  0  0  0  0  0
    9.2094   -7.2082    0.0000 C   0  0  0  0  0  0  0  0  0  0  0  0
    9.2021   -6.3832    0.0000 C   0  0  0  0  0  0  0  0  0  0  0  0
  4  1  1  0  0  0  0
  5  2  1  0  0  0  0
  6  3  1  0  0  0  0
 21  4  1  0  0  0  0
 22  5  1  0  0  0  0
 17  6  1  0  0  0  0
 10  7  1  0  0  0  0
 13  8  2  0  0  0  0
  9 14  2  0  0  0  0
 10  9  1  0  0  0  0
 11 10  2  0  0  0  0
 12 11  1  0  0  0  0
 15 12  2  0  0  0  0
 13 18  1  0  0  0  0
 14 13  1  0  0  0  0
 15 14  1  0  0  0  0
 16 15  1  0  0  0  0
 19 16  1  0  0  0  0
 17 22  1  0  0  0  0
 18 17  2  0  0  0  0
 19 18  1  0  0  0  0
 20 19  2  0  0  0  0
 21 20  1  0  0  0  0
 22 21  2  0  0  0  0
M  END
>  <cdx:fragmentId>
5

$$$$
