6688.cdx
  Mrv1902 05222410202D          

 16 15  0  0  0  0            999 V2000
    2.6760   -7.4329    0.0000 O   0  0  0  0  0  0  0  0  0  0  0  0
    3.3905   -7.8454    0.0000 C   0  0  0  0  0  0  0  0  0  0  0  0
    4.1050   -7.4329    0.0000 C   0  0  0  0  0  0  0  0  0  0  0  0
    4.8195   -7.8454    0.0000 C   0  0  0  0  0  0  0  0  0  0  0  0
    5.5339   -7.4329    0.0000 C   0  0  0  0  0  0  0  0  0  0  0  0
    6.2484   -7.8454    0.0000 C   0  0  0  0  0  0  0  0  0  0  0  0
    6.9629   -7.4329    0.0000 C   0  0  0  0  0  0  0  0  0  0  0  0
    7.6773   -7.8454    0.0000 C   0  0  0  0  0  0  0  0  0  0  0  0
    8.3918   -7.4329    0.0000 C   0  0  0  0  0  0  0  0  0  0  0  0
    9.1063   -7.8454    0.0000 C   0  0  0  0  0  0  0  0  0  0  0  0
    9.8208   -7.4329    0.0000 C   0  0  0  0  0  0  0  0  0  0  0  0
   10.5352   -7.8454    0.0000 C   0  0  0  0  0  0  0  0  0  0  0  0
   11.2497   -7.4329    0.0000 C   0  0  0  0  0  0  0  0  0  0  0  0
   11.9642   -7.8454    0.0000 C   0  0  0  0  0  0  0  0  0  0  0  0
   12.6786   -7.4329    0.0000 C   0  0  0  0  0  0  0  0  0  0  0  0
    3.3905   -8.6704    0.0000 C   0  0  0  0  0  0  0  0  0  0  0  0
  1  2  1  0  0  0  0
  2  3  1  0  0  0  0
  3  4  1  0  0  0  0
  4  5  1  0  0  0  0
  5  6  1  0  0  0  0
  6  7  1  0  0  0  0
  7  8  1  0  0  0  0
  8  9  1  0  0  0  0
  9 10  1  0  0  0  0
 10 11  1  0  0  0  0
 11 12  1  0  0  0  0
 12 13  1  0  0  0  0
 13 14  1  0  0  0  0
 14 15  1  0  0  0  0
  2 16  1  0  0  0  0
M  END
>  <cdx:fragmentId>
5

$$$$
