6689.cdx
  Mrv1902 05222410202D          

 18 20  0  0  0  0            999 V2000
    9.8530   -5.5894    0.0000 C   0  0  0  0  0  0  0  0  0  0  0  0
    9.1386   -6.0019    0.0000 O   0  0  0  0  0  0  0  0  0  0  0  0
    4.8517   -6.8269    0.0000 O   0  0  0  0  0  0  0  0  0  0  0  0
    7.7096   -6.0019    0.0000 O   0  0  0  0  0  0  0  0  0  0  0  0
    6.2807   -6.8269    0.0000 C   0  0  0  0  0  0  0  0  0  0  0  0
    5.5662   -7.2394    0.0000 C   0  0  0  0  0  0  0  0  0  0  0  0
    5.5662   -8.0644    0.0000 C   0  0  0  0  0  0  0  0  0  0  0  0
    6.2807   -8.4769    0.0000 C   0  0  0  0  0  0  0  0  0  0  0  0
    7.7096   -6.8269    0.0000 C   0  0  0  0  0  0  0  0  0  0  0  0
    6.9952   -7.2394    0.0000 C   0  0  0  0  0  0  0  0  0  0  0  0
    6.9952   -8.0644    0.0000 C   0  0  0  0  0  0  0  0  0  0  0  0
    7.7096   -8.4769    0.0000 O   0  0  0  0  0  0  0  0  0  0  0  0
    9.1386   -6.8269    0.0000 C   0  0  0  0  0  0  0  0  0  0  0  0
    8.4241   -7.2394    0.0000 C   0  0  0  0  0  0  0  0  0  0  0  0
    8.4241   -8.0644    0.0000 C   0  0  0  0  0  0  0  0  0  0  0  0
    9.1386   -8.4769    0.0000 C   0  0  0  0  0  0  0  0  0  0  0  0
    9.8530   -8.0644    0.0000 C   0  0  0  0  0  0  0  0  0  0  0  0
    9.8530   -7.2394    0.0000 C   0  0  0  0  0  0  0  0  0  0  0  0
  2  1  1  0  0  0  0
 13  2  1  0  0  0  0
  6  3  1  0  0  0  0
  9  4  2  0  0  0  0
  5 10  2  0  0  0  0
  6  5  1  0  0  0  0
  7  6  2  0  0  0  0
  8  7  1  0  0  0  0
 11  8  2  0  0  0  0
  9 14  1  0  0  0  0
 10  9  1  0  0  0  0
 11 10  1  0  0  0  0
 12 11  1  0  0  0  0
 15 12  1  0  0  0  0
 13 18  1  0  0  0  0
 14 13  2  0  0  0  0
 15 14  1  0  0  0  0
 16 15  2  0  0  0  0
 17 16  1  0  0  0  0
 18 17  2  0  0  0  0
M  END
>  <cdx:fragmentId>
5

$$$$
