66948.cdx
  Mrv1902 05222410272D          

  7  7  0  0  0  0            999 V2000
    7.1708   -4.2060    0.0000 O   0  0  0  0  0  0  0  0  0  0  0  0
    7.8382   -4.6910    0.0000 C   0  0  0  0  0  0  0  0  0  0  0  0
    7.5833   -5.4756    0.0000 C   0  0  0  0  0  0  0  0  0  0  0  0
    6.7583   -5.4756    0.0000 C   0  0  0  0  0  0  0  0  0  0  0  0
    6.5033   -4.6910    0.0000 C   0  0  0  0  0  0  0  0  0  0  0  0
    8.6228   -4.4360    0.0000 O   0  0  0  0  0  0  0  0  0  0  0  0
    5.7187   -4.4360    0.0000 C   0  0  0  0  0  0  0  0  0  0  0  0
  1  2  1  0  0  0  0
  2  3  1  0  0  0  0
  3  4  2  0  0  0  0
  4  5  1  0  0  0  0
  1  5  1  0  0  0  0
  2  6  2  0  0  0  0
  5  7  2  0  0  0  0
M  END
>  <cdx:fragmentId>
5

$$$$
