6697.cdx
  Mrv1902 05222410272D          

 24 26  0  0  0  0            999 V2000
    4.2520   -6.5175    0.0000 C   0  0  0  0  0  0  0  0  0  0  0  0
    4.2520   -7.3425    0.0000 C   0  0  0  0  0  0  0  0  0  0  0  0
    4.9665   -7.7550    0.0000 C   0  0  0  0  0  0  0  0  0  0  0  0
    5.6810   -7.3425    0.0000 C   0  0  0  0  0  0  0  0  0  0  0  0
    5.6810   -6.5175    0.0000 C   0  0  0  0  0  0  0  0  0  0  0  0
    4.9665   -6.1050    0.0000 C   0  0  0  0  0  0  0  0  0  0  0  0
    6.3954   -7.7550    0.0000 C   0  0  0  0  0  0  0  0  0  0  0  0
    7.1099   -7.3425    0.0000 C   0  0  0  0  0  0  0  0  0  0  0  0
    7.1099   -6.5175    0.0000 C   0  0  0  0  0  0  0  0  0  0  0  0
    6.3954   -6.1050    0.0000 O   0  0  0  0  0  0  0  0  0  0  0  0
    6.3954   -8.5800    0.0000 O   0  0  0  0  0  0  0  0  0  0  0  0
    7.8244   -7.7550    0.0000 C   0  0  0  0  0  0  0  0  0  0  0  0
    7.8244   -8.5800    0.0000 C   0  0  0  0  0  0  0  0  0  0  0  0
    8.5389   -8.9925    0.0000 C   0  0  0  0  0  0  0  0  0  0  0  0
    9.2533   -8.5800    0.0000 C   0  0  0  0  0  0  0  0  0  0  0  0
    9.2533   -7.7550    0.0000 C   0  0  0  0  0  0  0  0  0  0  0  0
    8.5389   -7.3425    0.0000 C   0  0  0  0  0  0  0  0  0  0  0  0
    3.5376   -6.1050    0.0000 O   0  0  0  0  0  0  0  0  0  0  0  0
    3.5376   -7.7550    0.0000 O   0  0  0  0  0  0  0  0  0  0  0  0
    2.8231   -8.1675    0.0000 C   0  0  0  0  0  0  0  0  0  0  0  0
    8.5389   -6.5175    0.0000 O   0  0  0  0  0  0  0  0  0  0  0  0
    9.9678   -8.9925    0.0000 O   0  0  0  0  0  0  0  0  0  0  0  0
    8.5389   -5.6925    0.0000 C   0  0  0  0  0  0  0  0  0  0  0  0
   10.6823   -9.4050    0.0000 C   0  0  0  0  0  0  0  0  0  0  0  0
  1  2  2  0  0  0  0
  2  3  1  0  0  0  0
  3  4  2  0  0  0  0
  4  5  1  0  0  0  0
  5  6  2  0  0  0  0
  6  1  1  0  0  0  0
  4  7  1  0  0  0  0
  7  8  1  0  0  0  0
  8  9  2  0  0  0  0
  9 10  1  0  0  0  0
 10  5  1  0  0  0  0
  7 11  2  0  0  0  0
  8 12  1  0  0  0  0
 12 13  2  0  0  0  0
 13 14  1  0  0  0  0
 14 15  2  0  0  0  0
 15 16  1  0  0  0  0
 16 17  2  0  0  0  0
 17 12  1  0  0  0  0
  1 18  1  0  0  0  0
  2 19  1  0  0  0  0
 17 21  1  0  0  0  0
 15 22  1  0  0  0  0
 19 20  1  0  0  0  0
 21 23  1  0  0  0  0
 22 24  1  0  0  0  0
M  STY  3   1 SUP   2 SUP   3 SUP
M  SAL   1  2  19  20
M  SBL   1  1  21
M  SMT   1 OCH3
M  SAP   1  1  19   2  1
M  SAL   2  2  21  23
M  SBL   2  1  22
M  SMT   2 OCH3
M  SAP   2  1  21  17  1
M  SAL   3  2  22  24
M  SBL   3  1  23
M  SMT   3 OCH3
M  SAP   3  1  22  15  1
M  END
>  <cdx:fragmentId>
5

$$$$
