6699.cdx
  Mrv1902 05222410182D          

 18 19  0  0  0  0            999 V2000
    4.3964   -7.0125    0.0000 C   0  0  0  0  0  0  0  0  0  0  0  0
    4.3964   -7.8375    0.0000 C   0  0  0  0  0  0  0  0  0  0  0  0
    5.1109   -8.2500    0.0000 C   0  0  0  0  0  0  0  0  0  0  0  0
    5.8253   -7.8375    0.0000 C   0  0  0  0  0  0  0  0  0  0  0  0
    5.8253   -7.0125    0.0000 C   0  0  0  0  0  0  0  0  0  0  0  0
    5.1109   -6.6000    0.0000 C   0  0  0  0  0  0  0  0  0  0  0  0
    6.5398   -8.2500    0.0000 O   0  0  0  0  0  0  0  0  0  0  0  0
    7.2543   -7.8375    0.0000 C   0  0  0  0  0  0  0  0  0  0  0  0
    7.2543   -7.0125    0.0000 C   0  0  0  0  0  0  0  0  0  0  0  0
    6.5398   -6.6000    0.0000 C   0  0  0  0  0  0  0  0  0  0  0  0
    3.6819   -8.2500    0.0000 O   0  0  0  0  0  0  0  0  0  0  0  0
    3.6819   -6.6000    0.0000 O   0  0  0  0  0  0  0  0  0  0  0  0
    7.9688   -8.2500    0.0000 O   0  0  0  0  0  0  0  0  0  0  0  0
    3.6819   -5.7750    0.0000 C   0  0  0  0  0  0  0  0  0  0  0  0
    2.9675   -5.3625    0.0000 C   0  0  0  0  0  0  0  0  0  0  0  0
    2.9675   -4.5375    0.0000 C   0  0  0  0  0  0  0  0  0  0  0  0
    2.2530   -4.1250    0.0000 C   0  0  0  0  0  0  0  0  0  0  0  0
    3.6819   -4.1250    0.0000 C   0  0  0  0  0  0  0  0  0  0  0  0
  1  2  2  0  0  0  0
  2  3  1  0  0  0  0
  3  4  2  0  0  0  0
  4  5  1  0  0  0  0
  5  6  2  0  0  0  0
  6  1  1  0  0  0  0
  4  7  1  0  0  0  0
  7  8  1  0  0  0  0
  8  9  1  0  0  0  0
  9 10  2  0  0  0  0
 10  5  1  0  0  0  0
  2 11  1  0  0  0  0
  1 12  1  0  0  0  0
  8 13  2  0  0  0  0
 12 14  1  0  0  0  0
 14 15  1  0  0  0  0
 15 16  2  0  0  0  0
 16 17  1  0  0  0  0
 16 18  1  0  0  0  0
M  END
>  <cdx:fragmentId>
5

$$$$
