129670215.cdx
  Mrv1902 05222410222D          

 33 36  0  0  0  0            999 V2000
   11.8233  -10.9509    0.0000 C   0  0  0  0  0  0  0  0  0  0  0  0
   11.1089  -11.3634    0.0000 C   0  0  0  0  0  0  0  0  0  0  0  0
   11.1089  -12.1884    0.0000 C   0  0  1  0  0  0  0  0  0  0  0  0
   11.8233  -12.6009    0.0000 C   0  0  0  0  0  0  0  0  0  0  0  0
   12.5378  -12.1884    0.0000 C   0  0  1  0  0  0  0  0  0  0  0  0
   13.2523  -12.6009    0.0000 C   0  0  0  0  0  0  0  0  0  0  0  0
   13.9668  -12.1884    0.0000 C   0  0  0  0  0  0  0  0  0  0  0  0
   13.9668  -11.3634    0.0000 C   0  0  0  0  0  0  0  0  0  0  0  0
   14.6812  -10.9509    0.0000 C   0  0  2  0  0  0  0  0  0  0  0  0
   15.4659  -11.2059    0.0000 C   0  0  0  0  0  0  0  0  0  0  0  0
   15.9508  -10.5384    0.0000 C   0  0  0  0  0  0  0  0  0  0  0  0
   15.4659   -9.8710    0.0000 C   0  0  1  0  0  0  0  0  0  0  0  0
   14.6812  -10.1259    0.0000 C   0  0  1  0  0  0  0  0  0  0  0  0
   13.9668   -9.7134    0.0000 C   0  0  0  0  0  0  0  0  0  0  0  0
   13.2523  -10.1259    0.0000 C   0  0  0  0  0  0  0  0  0  0  0  0
   13.2523  -10.9509    0.0000 C   0  0  0  0  0  0  0  0  0  0  0  0
   12.5378  -11.3634    0.0000 C   0  0  1  0  0  0  0  0  0  0  0  0
   13.2523  -13.4259    0.0000 O   0  0  0  0  0  0  0  0  0  0  0  0
   14.7675   -9.3054    0.0000 C   0  0  0  0  0  0  0  0  0  0  0  0
   12.5378  -10.5384    0.0000 C   0  0  0  0  0  0  0  0  0  0  0  0
   14.7675  -11.7714    0.0000 O   0  0  0  0  0  0  0  0  0  0  0  0
   10.3944  -12.6009    0.0000 O   0  0  0  0  0  0  0  0  0  0  0  0
   15.1688   -8.4733    0.0000 C   0  0  0  0  0  0  0  0  0  0  0  0
   15.7208   -9.0864    0.0000 C   0  0  0  0  0  0  0  0  0  0  0  0
   16.5278   -8.9148    0.0000 C   0  0  1  0  0  0  0  0  0  0  0  0
   16.7827   -8.1302    0.0000 C   0  0  0  0  0  0  0  0  0  0  0  0
   17.5897   -7.9587    0.0000 C   0  0  0  0  0  0  0  0  0  0  0  0
   17.8446   -7.1741    0.0000 C   0  0  0  0  0  0  0  0  0  0  0  0
   17.2926   -6.5610    0.0000 C   0  0  0  0  0  0  0  0  0  0  0  0
   18.6516   -7.0025    0.0000 C   0  0  0  0  0  0  0  0  0  0  0  0
   18.0996   -6.3894    0.0000 O   0  0  0  0  0  0  0  0  0  0  0  0
   17.0798   -9.5279    0.0000 O   0  0  0  0  0  0  0  0  0  0  0  0
   12.5378  -13.0134    0.0000 H   0  0  0  0  0  0  0  0  0  0  0  0
  1  2  1  0  0  0  0
  2  3  1  0  0  0  0
  3  4  1  0  0  0  0
  4  5  1  0  0  0  0
  5  6  1  0  0  0  0
  6  7  1  0  0  0  0
  7  8  2  0  0  0  0
  8  9  1  0  0  0  0
  9 10  1  0  0  0  0
 10 11  1  0  0  0  0
 12 11  1  1  0  0  0
 12 13  1  0  0  0  0
  9 13  1  0  0  0  0
 13 14  1  0  0  0  0
 14 15  1  0  0  0  0
 15 16  1  0  0  0  0
  8 16  1  0  0  0  0
 16 17  1  0  0  0  0
  5 17  1  0  0  0  0
  1 17  1  0  0  0  0
  6 18  2  0  0  0  0
 13 19  1  1  0  0  0
 17 20  1  1  0  0  0
  9 21  1  6  0  0  0
  3 22  1  1  0  0  0
 23 24  1  0  0  0  0
 24 25  1  0  0  0  0
 25 26  1  0  0  0  0
 26 27  1  0  0  0  0
 27 28  1  0  0  0  0
 28 29  1  0  0  0  0
 28 30  1  0  0  0  0
 28 31  1  0  0  0  0
 25 32  1  1  0  0  0
 12 24  1  0  0  0  0
  5 33  1  1  0  0  0
M  END
>  <cdx:groupId>
54416

>  <cdx:fragmentId>
54317

$$$$
