67030.cdx
  Mrv1902 05222410202D          

 19 21  0  0  0  0            999 V2000
    8.2822   -4.9921    0.0000 C   0  0  0  0  0  0  0  0  0  0  0  0
    8.9966   -5.4046    0.0000 C   0  0  0  0  0  0  0  0  0  0  0  0
    8.9966   -6.2296    0.0000 C   0  0  0  0  0  0  0  0  0  0  0  0
    8.2822   -6.6421    0.0000 C   0  0  0  0  0  0  0  0  0  0  0  0
    7.5677   -6.2296    0.0000 C   0  0  0  0  0  0  0  0  0  0  0  0
    6.8532   -6.6421    0.0000 C   0  0  0  0  0  0  0  0  0  0  0  0
    6.8532   -7.4671    0.0000 O   0  0  0  0  0  0  0  0  0  0  0  0
    6.1388   -6.2296    0.0000 C   0  0  0  0  0  0  0  0  0  0  0  0
    5.4243   -6.6421    0.0000 C   0  0  0  0  0  0  0  0  0  0  0  0
    4.7098   -6.2296    0.0000 C   0  0  0  0  0  0  0  0  0  0  0  0
    4.7098   -5.4046    0.0000 C   0  0  0  0  0  0  0  0  0  0  0  0
    5.4243   -4.9921    0.0000 C   0  0  0  0  0  0  0  0  0  0  0  0
    6.1388   -5.4046    0.0000 C   0  0  0  0  0  0  0  0  0  0  0  0
    6.8532   -4.9921    0.0000 C   0  0  0  0  0  0  0  0  0  0  0  0
    6.8532   -4.1671    0.0000 O   0  0  0  0  0  0  0  0  0  0  0  0
    7.5677   -5.4046    0.0000 C   0  0  0  0  0  0  0  0  0  0  0  0
    9.7111   -4.9921    0.0000 C   0  0  0  0  0  0  0  0  0  0  0  0
    9.7111   -4.1671    0.0000 O   0  0  0  0  0  0  0  0  0  0  0  0
   10.4256   -5.4046    0.0000 O   0  0  0  0  0  0  0  0  0  0  0  0
  1  2  1  0  0  0  0
  2  3  2  0  0  0  0
  3  4  1  0  0  0  0
  4  5  2  0  0  0  0
  5  6  1  0  0  0  0
  6  7  2  0  0  0  0
  6  8  1  0  0  0  0
  8  9  1  0  0  0  0
  9 10  2  0  0  0  0
 10 11  1  0  0  0  0
 11 12  2  0  0  0  0
 12 13  1  0  0  0  0
  8 13  2  0  0  0  0
 13 14  1  0  0  0  0
 14 15  2  0  0  0  0
 14 16  1  0  0  0  0
  5 16  1  0  0  0  0
  1 16  2  0  0  0  0
 17 18  2  0  0  0  0
 17 19  1  0  0  0  0
  2 17  1  0  0  0  0
M  END
>  <cdx:fragmentId>
5

$$$$
