6703.cdx
  Mrv1902 05222410202D          

 33 36  0  0  0  0            999 V2000
    7.6657   -5.7564    0.0000 C   0  0  2  0  0  0  0  0  0  0  0  0
    6.9575   -5.3332    0.0000 C   0  0  2  0  0  0  0  0  0  0  0  0
    6.2369   -5.7349    0.0000 C   0  0  1  0  0  0  0  0  0  0  0  0
    6.2245   -6.5598    0.0000 C   0  0  2  0  0  0  0  0  0  0  0  0
    6.9327   -6.9830    0.0000 C   0  0  1  0  0  0  0  0  0  0  0  0
    7.6533   -6.5813    0.0000 O   0  0  0  0  0  0  0  0  0  0  0  0
    8.3863   -5.3547    0.0000 C   0  0  0  0  0  0  0  0  0  0  0  0
    5.5287   -5.3117    0.0000 O   0  0  0  0  0  0  0  0  0  0  0  0
    6.9699   -4.5083    0.0000 O   0  0  0  0  0  0  0  0  0  0  0  0
    5.5039   -6.9615    0.0000 O   0  0  0  0  0  0  0  0  0  0  0  0
    8.3987   -4.5298    0.0000 O   0  0  0  0  0  0  0  0  0  0  0  0
    7.6384   -7.4103    0.0000 H   0  0  0  0  0  0  0  0  0  0  0  0
   10.4972   -8.1485    0.0000 O   0  0  0  0  0  0  0  0  0  0  0  0
    4.7814  -10.6235    0.0000 C   0  0  0  0  0  0  0  0  0  0  0  0
    9.7827   -7.7360    0.0000 C   0  0  0  0  0  0  0  0  0  0  0  0
    8.3538  -10.2110    0.0000 O   0  0  0  0  0  0  0  0  0  0  0  0
    6.9248  -10.2110    0.0000 O   0  0  0  0  0  0  0  0  0  0  0  0
    5.4959  -10.2110    0.0000 O   0  0  0  0  0  0  0  0  0  0  0  0
    4.0669   -9.3860    0.0000 O   0  0  0  0  0  0  0  0  0  0  0  0
    8.3538   -9.3860    0.0000 C   0  0  0  0  0  0  0  0  0  0  0  0
    9.0682   -8.9735    0.0000 C   0  0  0  0  0  0  0  0  0  0  0  0
    9.0682   -8.1485    0.0000 C   0  0  0  0  0  0  0  0  0  0  0  0
    8.3538   -7.7360    0.0000 C   0  0  0  0  0  0  0  0  0  0  0  0
    6.9248   -9.3860    0.0000 C   0  0  0  0  0  0  0  0  0  0  0  0
    7.6393   -8.9735    0.0000 C   0  0  0  0  0  0  0  0  0  0  0  0
    7.6393   -8.1485    0.0000 C   0  0  0  0  0  0  0  0  0  0  0  0
    6.9248   -7.7360    0.0000 C   0  0  0  0  0  0  0  0  0  0  0  0
    5.4959   -9.3860    0.0000 C   0  0  0  0  0  0  0  0  0  0  0  0
    6.2103   -8.9735    0.0000 C   0  0  0  0  0  0  0  0  0  0  0  0
    6.2103   -8.1485    0.0000 C   0  0  0  0  0  0  0  0  0  0  0  0
    5.4959   -7.7360    0.0000 C   0  0  0  0  0  0  0  0  0  0  0  0
    4.7814   -8.1485    0.0000 C   0  0  0  0  0  0  0  0  0  0  0  0
    4.7814   -8.9735    0.0000 C   0  0  0  0  0  0  0  0  0  0  0  0
  5 27  1  0  0  0  0
  1  2  1  0  0  0  0
  2  3  1  0  0  0  0
  3  4  1  0  0  0  0
  4  5  1  0  0  0  0
  5  6  1  0  0  0  0
  6  1  1  0  0  0  0
  1  7  1  1  0  0  0
  3  8  1  1  0  0  0
  2  9  1  6  0  0  0
  4 10  1  6  0  0  0
  7 11  1  0  0  0  0
  5 12  1  6  0  0  0
 15 13  1  0  0  0  0
 18 14  1  0  0  0  0
 22 15  1  0  0  0  0
 20 16  1  0  0  0  0
 24 17  2  0  0  0  0
 28 18  1  0  0  0  0
 33 19  1  0  0  0  0
 20 25  1  0  0  0  0
 21 20  2  0  0  0  0
 22 21  1  0  0  0  0
 23 22  2  0  0  0  0
 26 23  1  0  0  0  0
 24 29  1  0  0  0  0
 25 24  1  0  0  0  0
 26 25  2  0  0  0  0
 27 26  1  0  0  0  0
 30 27  1  0  0  0  0
 28 33  1  0  0  0  0
 29 28  2  0  0  0  0
 30 29  1  0  0  0  0
 31 30  2  0  0  0  0
 32 31  1  0  0  0  0
 33 32  2  0  0  0  0
M  END
>  <cdx:fragmentId>
5

$$$$
