6705.cdx
  Mrv1902 05222410192D          

 20 21  0  0  0  0            999 V2000
    5.9458   -6.0018    0.0000 C   0  0  0  0  0  0  0  0  0  0  0  0
    5.9362   -6.8268    0.0000 C   0  0  0  0  0  0  0  0  0  0  0  0
    6.6458   -7.2476    0.0000 C   0  0  0  0  0  0  0  0  0  0  0  0
    7.3650   -6.8435    0.0000 C   0  0  1  0  0  0  0  0  0  0  0  0
    7.3746   -6.0185    0.0000 C   0  0  2  0  0  0  0  0  0  0  0  0
    6.6650   -5.5977    0.0000 C   0  0  0  0  0  0  0  0  0  0  0  0
    8.0746   -7.2643    0.0000 C   0  0  0  0  0  0  0  0  0  0  0  0
    8.7939   -6.8602    0.0000 C   0  0  1  0  0  0  0  0  0  0  0  0
    8.8035   -6.0352    0.0000 C   0  0  0  0  0  0  0  0  0  0  0  0
    8.0939   -5.6144    0.0000 C   0  0  0  0  0  0  0  0  0  0  0  0
    5.2362   -5.5810    0.0000 C   0  0  0  0  0  0  0  0  0  0  0  0
    4.5170   -5.9852    0.0000 O   0  0  0  0  0  0  0  0  0  0  0  0
    5.2458   -4.7561    0.0000 O   0  0  0  0  0  0  0  0  0  0  0  0
    6.6361   -8.0725    0.0000 C   0  0  0  0  0  0  0  0  0  0  0  0
    9.5035   -7.2810    0.0000 C   0  0  0  0  0  0  0  0  0  0  0  0
   10.2227   -6.8768    0.0000 C   0  0  0  0  0  0  0  0  0  0  0  0
    9.4938   -8.1059    0.0000 C   0  0  0  0  0  0  0  0  0  0  0  0
    7.3554   -7.6684    0.0000 H   0  0  0  0  0  0  0  0  0  0  0  0
    9.3772   -6.2768    0.0000 O   0  0  0  0  0  0  0  0  0  0  0  0
    7.3843   -5.1936    0.0000 C   0  0  0  0  0  0  0  0  0  0  0  0
  1  2  1  0  0  0  0
  2  3  1  0  0  0  0
  3  4  1  0  0  0  0
  4  5  1  0  0  0  0
  5  6  1  0  0  0  0
  6  1  1  0  0  0  0
  4  7  1  0  0  0  0
  7  8  1  0  0  0  0
  8  9  1  0  0  0  0
  9 10  1  0  0  0  0
 10  5  1  0  0  0  0
  1 11  1  0  0  0  0
 11 12  1  0  0  0  0
 11 13  2  0  0  0  0
  3 14  2  0  0  0  0
  8 15  1  1  0  0  0
 15 16  2  0  0  0  0
 15 17  1  0  0  0  0
  4 18  1  6  0  0  0
  8 19  1  6  0  0  0
  5 20  1  1  0  0  0
M  END
>  <cdx:fragmentId>
5

$$$$
