6707.cdx
  Mrv1902 05222410182D          

 24 26  0  0  0  0            999 V2000
    6.4087   -7.5086    0.0000 C   0  0  0  0  0  0  0  0  0  0  0  0
    5.5837   -7.5086    0.0000 C   0  0  2  0  0  0  0  0  0  0  0  0
    5.1712   -6.7941    0.0000 C   0  0  0  0  0  0  0  0  0  0  0  0
    6.8212   -6.7941    0.0000 O   0  0  0  0  0  0  0  0  0  0  0  0
    6.8212   -8.2231    0.0000 O   0  0  0  0  0  0  0  0  0  0  0  0
    5.1712   -8.2231    0.0000 C   0  0  0  0  0  0  0  0  0  0  0  0
    5.5837   -8.9375    0.0000 C   0  0  0  0  0  0  0  0  0  0  0  0
    5.1712   -9.6520    0.0000 C   0  0  0  0  0  0  0  0  0  0  0  0
    4.3462   -9.6520    0.0000 C   0  0  0  0  0  0  0  0  0  0  0  0
    3.9337   -8.9375    0.0000 C   0  0  0  0  0  0  0  0  0  0  0  0
    4.3462   -8.2231    0.0000 C   0  0  0  0  0  0  0  0  0  0  0  0
    4.3462   -6.7941    0.0000 O   0  0  0  0  0  0  0  0  0  0  0  0
    8.8085   -9.1500    0.0000 C   0  0  2  0  0  0  0  0  0  0  0  0
    8.0041   -8.9664    0.0000 C   0  0  0  0  0  0  0  0  0  0  0  0
    7.6462   -8.2231    0.0000 C   0  0  1  0  0  0  0  0  0  0  0  0
    8.0041   -7.4798    0.0000 C   0  0  0  0  0  0  0  0  0  0  0  0
    8.8085   -7.2962    0.0000 C   0  0  1  0  0  0  0  0  0  0  0  0
    9.4535   -7.8106    0.0000 C   0  0  0  0  0  0  0  0  0  0  0  0
    9.4535   -8.6356    0.0000 C   0  0  0  0  0  0  0  0  0  0  0  0
    8.2738   -8.2221    0.0000 N   0  0  0  0  0  0  0  0  0  0  0  0
    7.4986   -7.9400    0.0000 C   0  0  0  0  0  0  0  0  0  0  0  0
    8.9920   -9.9543    0.0000 H   0  0  0  0  0  0  0  0  0  0  0  0
    8.9920   -6.4919    0.0000 H   0  0  0  0  0  0  0  0  0  0  0  0
   10.1968   -7.4526    0.0000 O   0  0  0  0  0  0  0  0  0  0  0  0
  1  2  1  0  0  0  0
  2  3  1  1  0  0  0
  1  4  2  0  0  0  0
  1  5  1  0  0  0  0
  6  7  1  0  0  0  0
  7  8  2  0  0  0  0
  8  9  1  0  0  0  0
  9 10  2  0  0  0  0
 10 11  1  0  0  0  0
  6 11  2  0  0  0  0
  2  6  1  0  0  0  0
  3 12  1  0  0  0  0
 13 14  1  0  0  0  0
 14 15  1  0  0  0  0
 15 16  1  0  0  0  0
 16 17  1  0  0  0  0
 17 18  1  0  0  0  0
 18 19  1  0  0  0  0
 13 19  1  0  0  0  0
 13 20  1  0  0  0  0
 17 20  1  0  0  0  0
 20 21  1  0  0  0  0
 15  5  1  6  0  0  0
 13 22  1  6  0  0  0
 17 23  1  6  0  0  0
 18 24  1  0  0  0  0
M  END
>  <cdx:fragmentId>
15

$$$$
