671037.cdx
  Mrv1902 05222410202D          

 38 43  0  0  0  0            999 V2000
    8.7088   -7.9384    0.0000 C   0  0  2  0  0  0  0  0  0  0  0  0
    9.0689   -8.6807    0.0000 C   0  0  1  0  0  0  0  0  0  0  0  0
    8.7131   -9.4250    0.0000 C   0  0  1  0  0  0  0  0  0  0  0  0
    7.9093   -9.6110    0.0000 C   0  0  1  0  0  0  0  0  0  0  0  0
    7.2628   -9.0985    0.0000 C   0  0  1  0  0  0  0  0  0  0  0  0
    7.2604   -8.2735    0.0000 C   0  0  2  0  0  0  0  0  0  0  0  0
    7.9039   -7.7572    0.0000 C   0  0  2  0  0  0  0  0  0  0  0  0
    6.5496   -9.5130    0.0000 C   0  0  2  0  0  0  0  0  0  0  0  0
    5.8339   -9.1026    0.0000 C   0  0  1  0  0  0  0  0  0  0  0  0
    5.8315   -8.2776    0.0000 C   0  0  0  0  0  0  0  0  0  0  0  0
    6.5447   -7.8630    0.0000 C   0  0  2  0  0  0  0  0  0  0  0  0
    7.8276   -6.9357    0.0000 C   0  0  0  0  0  0  0  0  0  0  0  0
    8.5852   -6.6093    0.0000 C   0  0  1  0  0  0  0  0  0  0  0  0
    9.1298   -7.2290    0.0000 C   0  0  2  0  0  0  0  0  0  0  0  0
    6.5423   -7.0381    0.0000 O   0  0  0  0  0  0  0  0  0  0  0  0
    5.8312   -6.6199    0.0000 C   0  0  0  0  0  0  0  0  0  0  0  0
    6.5520  -10.3380    0.0000 C   0  0  0  0  0  0  0  0  0  0  0  0
    5.8387  -10.7526    0.0000 O   0  0  0  0  0  0  0  0  0  0  0  0
    5.8411  -11.5776    0.0000 C   0  0  0  0  0  0  0  0  0  0  0  0
    7.2600   -7.6175    0.0000 C   0  0  0  0  0  0  0  0  0  0  0  0
    6.5450   -8.6350    0.0000 N   0  0  0  0  0  0  0  0  0  0  0  0
    5.8300   -9.8175    0.0000 C   0  0  0  0  0  0  0  0  0  0  0  0
    9.8675   -8.4735    0.0000 C   0  0  2  0  0  0  0  0  0  0  0  0
    9.8450   -6.7650    0.0000 C   0  0  2  0  0  0  0  0  0  0  0  0
    9.2824   -9.4776    0.0000 O   0  0  0  0  0  0  0  0  0  0  0  0
   10.4500   -7.1775    0.0000 O   0  0  0  0  0  0  0  0  0  0  0  0
    7.2562   -9.9234    0.0000 H   0  0  0  0  0  0  0  0  0  0  0  0
    7.3206   -7.1738    0.0000 H   0  0  0  0  0  0  0  0  0  0  0  0
    9.5337   -7.9450    0.0000 H   0  0  0  0  0  0  0  0  0  0  0  0
    8.5852   -5.7843    0.0000 O   0  0  0  0  0  0  0  0  0  0  0  0
    8.7131  -10.2500    0.0000 H   0  0  0  0  0  0  0  0  0  0  0  0
    5.3625   -8.6350    0.0000 C   0  0  0  0  0  0  0  0  0  0  0  0
    7.9093  -10.4360    0.0000 O   0  0  0  0  0  0  0  0  0  0  0  0
    7.1949  -10.8485    0.0000 C   0  0  0  0  0  0  0  0  0  0  0  0
   10.6643   -8.6871    0.0000 O   0  0  0  0  0  0  0  0  0  0  0  0
    5.1206   -9.5172    0.0000 O   0  0  0  0  0  0  0  0  0  0  0  0
   10.4595   -6.2145    0.0000 O   0  0  0  0  0  0  0  0  0  0  0  0
   10.4595   -5.3895    0.0000 C   0  0  0  0  0  0  0  0  0  0  0  0
  1  2  1  0  0  0  0
  2  3  1  0  0  0  0
  3  4  1  0  0  0  0
  4  5  1  0  0  0  0
  5  6  1  0  0  0  0
  6  7  1  0  0  0  0
  7  1  1  0  0  0  0
  5  8  1  0  0  0  0
  8  9  1  0  0  0  0
  9 10  1  0  0  0  0
 10 11  1  0  0  0  0
  6 11  1  1  0  0  0
  7 12  1  0  0  0  0
 12 13  1  0  0  0  0
 13 14  1  0  0  0  0
 14  1  1  0  0  0  0
 11 15  1  6  0  0  0
 15 16  1  0  0  0  0
  8 17  1  1  0  0  0
 17 18  1  0  0  0  0
 18 19  1  0  0  0  0
  6 20  1  0  0  0  0
  3 20  1  0  0  0  0
 20 21  1  0  0  0  0
 21 22  1  0  0  0  0
  8 22  1  0  0  0  0
  2 23  1  0  0  0  0
 13 24  1  0  0  0  0
 24 23  1  0  0  0  0
  2 25  1  1  0  0  0
 14 26  1  6  0  0  0
  5 27  1  1  0  0  0
  7 28  1  1  0  0  0
  1 29  1  1  0  0  0
 13 30  1  1  0  0  0
  3 31  1  6  0  0  0
 21 32  1  0  0  0  0
  4 33  1  6  0  0  0
 33 34  1  0  0  0  0
 23 35  1  6  0  0  0
  9 36  1  6  0  0  0
 24 37  1  1  0  0  0
 37 38  1  0  0  0  0
M  END
>  <cdx:fragmentId>
491

$$$$
