6713.cdx
  Mrv1902 05222410182D          

 10 11  0  0  0  0            999 V2000
    5.8333   -5.5206    0.0000 C   0  0  0  0  0  0  0  0  0  0  0  0
    5.8333   -6.3456    0.0000 C   0  0  0  0  0  0  0  0  0  0  0  0
    6.5477   -6.7581    0.0000 C   0  0  0  0  0  0  0  0  0  0  0  0
    7.2622   -6.3456    0.0000 C   0  0  0  0  0  0  0  0  0  0  0  0
    7.2622   -5.5206    0.0000 C   0  0  0  0  0  0  0  0  0  0  0  0
    6.5477   -5.1081    0.0000 C   0  0  0  0  0  0  0  0  0  0  0  0
    7.9767   -5.9331    0.0000 C   0  0  0  0  0  0  0  0  0  0  0  0
    8.8017   -5.9331    0.0000 C   0  0  0  0  0  0  0  0  0  0  0  0
    9.3851   -5.3498    0.0000 C   0  0  0  0  0  0  0  0  0  0  0  0
    9.2142   -6.6476    0.0000 C   0  0  0  0  0  0  0  0  0  0  0  0
  1  2  1  0  0  0  0
  2  3  1  0  0  0  0
  3  4  1  0  0  0  0
  4  5  1  0  0  0  0
  5  6  1  0  0  0  0
  6  1  1  0  0  0  0
  4  7  1  0  0  0  0
  7  5  1  0  0  0  0
  7  8  2  0  0  0  0
  8  9  1  0  0  0  0
  8 10  1  0  0  0  0
M  END
>  <cdx:fragmentId>
5

$$$$
