6714.cdx
  Mrv1902 05222410192D          

 23 25  0  0  0  0            999 V2000
    3.4683   -4.4344    0.0000 C   0  0  0  0  0  0  0  0  0  0  0  0
    3.4683   -5.2594    0.0000 C   0  0  0  0  0  0  0  0  0  0  0  0
    4.1827   -5.6719    0.0000 C   0  0  0  0  0  0  0  0  0  0  0  0
    4.8972   -5.2594    0.0000 C   0  0  0  0  0  0  0  0  0  0  0  0
    4.8972   -4.4344    0.0000 C   0  0  0  0  0  0  0  0  0  0  0  0
    4.1827   -4.0219    0.0000 C   0  0  0  0  0  0  0  0  0  0  0  0
    5.6117   -5.6719    0.0000 C   0  0  0  0  0  0  0  0  0  0  0  0
    6.3262   -5.2594    0.0000 C   0  0  0  0  0  0  0  0  0  0  0  0
    6.3262   -4.4344    0.0000 C   0  0  0  0  0  0  0  0  0  0  0  0
    5.6117   -4.0219    0.0000 O   0  0  0  0  0  0  0  0  0  0  0  0
    7.0406   -5.6719    0.0000 C   0  0  0  0  0  0  0  0  0  0  0  0
    7.7551   -5.2594    0.0000 C   0  0  0  0  0  0  0  0  0  0  0  0
    7.7551   -4.4344    0.0000 O   0  0  0  0  0  0  0  0  0  0  0  0
    7.0406   -6.4969    0.0000 C   0  0  0  0  0  0  0  0  0  0  0  0
    7.7551   -6.9094    0.0000 C   0  0  0  0  0  0  0  0  0  0  0  0
    8.4696   -6.4969    0.0000 C   0  0  0  0  0  0  0  0  0  0  0  0
    8.4696   -5.6719    0.0000 C   0  0  0  0  0  0  0  0  0  0  0  0
    2.7538   -4.0219    0.0000 O   0  0  0  0  0  0  0  0  0  0  0  0
    2.0393   -3.6094    0.0000 C   0  0  0  0  0  0  0  0  0  0  0  0
    4.1827   -6.4969    0.0000 H   0  0  0  0  0  0  0  0  0  0  0  0
    5.6117   -6.4969    0.0000 O   0  0  0  0  0  0  0  0  0  0  0  0
    9.1840   -5.2594    0.0000 H   0  0  0  0  0  0  0  0  0  0  0  0
    9.1840   -6.9094    0.0000 O   0  0  0  0  0  0  0  0  0  0  0  0
  1  2  2  0  0  0  0
  2  3  1  0  0  0  0
  3  4  2  0  0  0  0
  4  5  1  0  0  0  0
  5  6  2  0  0  0  0
  6  1  1  0  0  0  0
  4  7  1  0  0  0  0
  7  8  1  0  0  0  0
  8  9  2  0  0  0  0
  9 10  1  0  0  0  0
 10  5  1  0  0  0  0
  8 11  1  0  0  0  0
 11 12  1  0  0  0  0
 12 13  1  0  0  0  0
 11 14  2  0  0  0  0
 14 15  1  0  0  0  0
 15 16  2  0  0  0  0
 16 17  1  0  0  0  0
 17 12  2  0  0  0  0
  1 18  1  0  0  0  0
  3 20  1  0  0  0  0
  7 21  2  0  0  0  0
 17 22  1  0  0  0  0
 16 23  1  0  0  0  0
 18 19  1  0  0  0  0
M  STY  1   1 SUP
M  SAL   1  2  18  19
M  SBL   1  1  20
M  SMT   1 OCH3
M  SAP   1  1  18   1  1
M  END
>  <cdx:fragmentId>
5

$$$$
