67144.cdx
  Mrv1902 05222410202D          

 12 12  0  0  0  0            999 V2000
    6.2392   -4.5452    0.0000 C   0  0  0  0  0  0  0  0  0  0  0  0
    5.5247   -4.9577    0.0000 C   0  0  0  0  0  0  0  0  0  0  0  0
    4.8102   -4.5452    0.0000 C   0  0  0  0  0  0  0  0  0  0  0  0
    6.2392   -3.7202    0.0000 O   0  0  0  0  0  0  0  0  0  0  0  0
    6.9536   -4.9577    0.0000 C   0  0  0  0  0  0  0  0  0  0  0  0
    7.6681   -4.5452    0.0000 C   0  0  0  0  0  0  0  0  0  0  0  0
    8.3826   -4.9577    0.0000 C   0  0  0  0  0  0  0  0  0  0  0  0
    8.3826   -5.7827    0.0000 C   0  0  0  0  0  0  0  0  0  0  0  0
    7.6681   -6.1952    0.0000 C   0  0  0  0  0  0  0  0  0  0  0  0
    6.9536   -5.7827    0.0000 C   0  0  0  0  0  0  0  0  0  0  0  0
    9.0971   -6.1952    0.0000 O   0  0  0  0  0  0  0  0  0  0  0  0
    9.8115   -5.7827    0.0000 C   0  0  0  0  0  0  0  0  0  0  0  0
  1  2  1  0  0  0  0
  2  3  1  0  0  0  0
  1  4  2  0  0  0  0
  5  6  1  0  0  0  0
  6  7  2  0  0  0  0
  7  8  1  0  0  0  0
  8  9  2  0  0  0  0
  9 10  1  0  0  0  0
  5 10  2  0  0  0  0
 11 12  1  0  0  0  0
  8 11  1  0  0  0  0
  1  5  1  0  0  0  0
M  END
>  <cdx:fragmentId>
13

$$$$
