6716.cdx
  Mrv1902 05222410202D          

 20 21  0  0  0  0            999 V2000
    4.5408   -6.3319    0.0000 C   0  0  0  0  0  0  0  0  0  0  0  0
    4.5408   -7.1569    0.0000 C   0  0  0  0  0  0  0  0  0  0  0  0
    5.2552   -7.5694    0.0000 C   0  0  0  0  0  0  0  0  0  0  0  0
    5.9697   -7.1569    0.0000 C   0  0  0  0  0  0  0  0  0  0  0  0
    5.9697   -6.3319    0.0000 C   0  0  0  0  0  0  0  0  0  0  0  0
    5.2552   -5.9194    0.0000 C   0  0  0  0  0  0  0  0  0  0  0  0
    6.6842   -7.5694    0.0000 C   0  0  0  0  0  0  0  0  0  0  0  0
    7.3987   -7.1569    0.0000 C   0  0  0  0  0  0  0  0  0  0  0  0
    7.3987   -6.3319    0.0000 C   0  0  0  0  0  0  0  0  0  0  0  0
    6.6842   -5.9194    0.0000 O   0  0  0  0  0  0  0  0  0  0  0  0
    5.2552   -5.0944    0.0000 O   0  0  0  0  0  0  0  0  0  0  0  0
    3.8263   -5.9194    0.0000 O   0  0  0  0  0  0  0  0  0  0  0  0
    3.1118   -6.3319    0.0000 C   0  0  0  0  0  0  0  0  0  0  0  0
    8.1131   -5.9194    0.0000 O   0  0  0  0  0  0  0  0  0  0  0  0
    4.5408   -4.6819    0.0000 C   0  0  0  0  0  0  0  0  0  0  0  0
    4.5408   -3.8569    0.0000 C   0  0  0  0  0  0  0  0  0  0  0  0
    5.2552   -3.4444    0.0000 O   0  0  0  0  0  0  0  0  0  0  0  0
    3.8263   -3.4444    0.0000 C   0  0  0  0  0  0  0  0  0  0  0  0
    3.8263   -2.6194    0.0000 C   0  0  0  0  0  0  0  0  0  0  0  0
    3.1118   -3.8569    0.0000 C   0  0  0  0  0  0  0  0  0  0  0  0
  1  2  1  0  0  0  0
  2  3  2  0  0  0  0
  3  4  1  0  0  0  0
  4  5  2  0  0  0  0
  5  6  1  0  0  0  0
  6  1  2  0  0  0  0
  4  7  1  0  0  0  0
  7  8  2  0  0  0  0
  8  9  1  0  0  0  0
  9 10  1  0  0  0  0
 10  5  1  0  0  0  0
  6 11  1  0  0  0  0
 12  1  1  0  0  0  0
 12 13  1  0  0  0  0
  9 14  2  0  0  0  0
 11 15  1  0  0  0  0
 15 16  1  0  0  0  0
 16 17  2  0  0  0  0
 16 18  1  0  0  0  0
 18 19  1  0  0  0  0
 18 20  1  0  0  0  0
M  END
>  <cdx:fragmentId>
5

$$$$
