671634.cdx
  Mrv1902 05222410182D          

 24 23  0  0  0  0            999 V2000
    2.7069   -6.5444    0.0000 O   0  0  0  0  0  0  0  0  0  0  0  0
    3.4214   -7.7819    0.0000 O   0  0  0  0  0  0  0  0  0  0  0  0
   18.4253   -6.5444    0.0000 C   0  0  0  0  0  0  0  0  0  0  0  0
   17.7108   -6.9569    0.0000 C   0  0  0  0  0  0  0  0  0  0  0  0
   16.9963   -6.5444    0.0000 C   0  0  0  0  0  0  0  0  0  0  0  0
   16.2819   -6.9569    0.0000 C   0  0  0  0  0  0  0  0  0  0  0  0
   15.5674   -6.5444    0.0000 C   0  0  0  0  0  0  0  0  0  0  0  0
   14.8529   -6.9569    0.0000 C   0  0  0  0  0  0  0  0  0  0  0  0
   14.1385   -6.5444    0.0000 C   0  0  0  0  0  0  0  0  0  0  0  0
   13.4240   -6.9569    0.0000 C   0  0  0  0  0  0  0  0  0  0  0  0
   12.7095   -6.5444    0.0000 C   0  0  0  0  0  0  0  0  0  0  0  0
   11.9950   -6.9569    0.0000 C   0  0  0  0  0  0  0  0  0  0  0  0
   11.2806   -6.5444    0.0000 C   0  0  0  0  0  0  0  0  0  0  0  0
   10.5661   -6.9569    0.0000 C   0  0  0  0  0  0  0  0  0  0  0  0
    9.8516   -6.5444    0.0000 C   0  0  0  0  0  0  0  0  0  0  0  0
    9.1372   -6.9569    0.0000 C   0  0  0  0  0  0  0  0  0  0  0  0
    8.4227   -6.5444    0.0000 C   0  0  0  0  0  0  0  0  0  0  0  0
    7.7082   -6.9569    0.0000 C   0  0  0  0  0  0  0  0  0  0  0  0
    6.9937   -6.5444    0.0000 C   0  0  0  0  0  0  0  0  0  0  0  0
    6.2793   -6.9569    0.0000 C   0  0  0  0  0  0  0  0  0  0  0  0
    5.5648   -6.5444    0.0000 C   0  0  0  0  0  0  0  0  0  0  0  0
    4.8503   -6.9569    0.0000 C   0  0  0  0  0  0  0  0  0  0  0  0
    4.1359   -6.5444    0.0000 C   0  0  0  0  0  0  0  0  0  0  0  0
    3.4214   -6.9569    0.0000 C   0  0  0  0  0  0  0  0  0  0  0  0
 24  1  1  0  0  0  0
 24  2  2  0  0  0  0
  4  3  1  0  0  0  0
  5  4  1  0  0  0  0
  6  5  1  0  0  0  0
  7  6  1  0  0  0  0
  8  7  1  0  0  0  0
  9  8  1  0  0  0  0
 10  9  1  0  0  0  0
 11 10  1  0  0  0  0
 12 11  1  0  0  0  0
 13 12  2  0  0  0  0
 14 13  1  0  0  0  0
 15 14  1  0  0  0  0
 16 15  1  0  0  0  0
 17 16  1  0  0  0  0
 18 17  1  0  0  0  0
 19 18  1  0  0  0  0
 20 19  1  0  0  0  0
 21 20  1  0  0  0  0
 22 21  1  0  0  0  0
 23 22  1  0  0  0  0
 24 23  1  0  0  0  0
M  END
>  <cdx:fragmentId>
5

$$$$
