6717.cdx
  Mrv1902 05222410202D          

 22 23  0  0  0  0            999 V2000
    4.3139   -6.0019    0.0000 C   0  0  0  0  0  0  0  0  0  0  0  0
    5.0284   -6.4144    0.0000 O   0  0  0  0  0  0  0  0  0  0  0  0
    5.7428   -6.0019    0.0000 C   0  0  0  0  0  0  0  0  0  0  0  0
    5.7428   -5.1769    0.0000 C   0  0  0  0  0  0  0  0  0  0  0  0
    6.4573   -6.4144    0.0000 C   0  0  0  0  0  0  0  0  0  0  0  0
    7.1718   -6.0019    0.0000 C   0  0  0  0  0  0  0  0  0  0  0  0
    7.1718   -5.1769    0.0000 C   0  0  0  0  0  0  0  0  0  0  0  0
    6.4573   -4.7644    0.0000 C   0  0  0  0  0  0  0  0  0  0  0  0
    7.8863   -6.4144    0.0000 O   0  0  0  0  0  0  0  0  0  0  0  0
    8.6007   -6.0019    0.0000 C   0  0  0  0  0  0  0  0  0  0  0  0
    8.6007   -5.1769    0.0000 C   0  0  0  0  0  0  0  0  0  0  0  0
    7.8863   -4.7644    0.0000 C   0  0  0  0  0  0  0  0  0  0  0  0
    5.7428   -7.6519    0.0000 C   0  0  0  0  0  0  0  0  0  0  0  0
    6.4573   -7.2394    0.0000 C   0  0  0  0  0  0  0  0  0  0  0  0
    5.0284   -8.8894    0.0000 C   0  0  0  0  0  0  0  0  0  0  0  0
    5.7428   -8.4769    0.0000 C   0  0  0  0  0  0  0  0  0  0  0  0
    4.3139  -10.1269    0.0000 O   0  0  0  0  0  0  0  0  0  0  0  0
    5.0284   -9.7144    0.0000 C   0  0  0  0  0  0  0  0  0  0  0  0
    4.3139  -10.9519    0.0000 C   0  0  0  0  0  0  0  0  0  0  0  0
    5.0284  -11.3644    0.0000 C   0  0  0  0  0  0  0  0  0  0  0  0
    3.5994  -11.3644    0.0000 C   0  0  0  0  0  0  0  0  0  0  0  0
    9.3152   -6.4144    0.0000 O   0  0  0  0  0  0  0  0  0  0  0  0
  1  2  1  0  0  0  0
  2  3  1  0  0  0  0
  3  4  2  0  0  0  0
  3  5  1  0  0  0  0
  5  6  2  0  0  0  0
  6  7  1  0  0  0  0
  7  8  2  0  0  0  0
  8  4  1  0  0  0  0
  6  9  1  0  0  0  0
  9 10  1  0  0  0  0
 10 11  1  0  0  0  0
 11 12  2  0  0  0  0
 12  7  1  0  0  0  0
 13 14  2  0  0  0  0
 14  5  1  0  0  0  0
 15 16  2  0  0  0  0
 16 13  1  0  0  0  0
 17 18  1  0  0  0  0
 18 15  1  0  0  0  0
 17 19  1  0  0  0  0
 19 20  2  0  0  0  0
 19 21  1  0  0  0  0
 10 22  2  0  0  0  0
M  END
>  <cdx:fragmentId>
5

$$$$
