6718.cdx
  Mrv1902 05222410272D          

 26 30  0  0  0  0            999 V2000
    5.9227   -8.0025    0.0000 C   0  0  0  0  0  0  0  0  0  0  0  0
    5.9227   -8.8275    0.0000 C   0  0  0  0  0  0  0  0  0  0  0  0
    6.6371   -9.2400    0.0000 C   0  0  0  0  0  0  0  0  0  0  0  0
    7.3516   -8.8275    0.0000 C   0  0  0  0  0  0  0  0  0  0  0  0
    7.3516   -8.0025    0.0000 C   0  0  0  0  0  0  0  0  0  0  0  0
    6.6371   -7.5900    0.0000 C   0  0  0  0  0  0  0  0  0  0  0  0
    8.0661   -7.5900    0.0000 C   0  0  0  0  0  0  0  0  0  0  0  0
    8.0661   -6.7650    0.0000 C   0  0  0  0  0  0  0  0  0  0  0  0
    7.3516   -6.3525    0.0000 C   0  0  0  0  0  0  0  0  0  0  0  0
    6.6371   -6.7650    0.0000 C   0  0  0  0  0  0  0  0  0  0  0  0
    7.3516   -5.5275    0.0000 C   0  0  0  0  0  0  0  0  0  0  0  0
    6.6371   -5.1150    0.0000 C   0  0  0  0  0  0  0  0  0  0  0  0
    5.9227   -5.5275    0.0000 C   0  0  0  0  0  0  0  0  0  0  0  0
    5.9227   -6.3525    0.0000 C   0  0  0  0  0  0  0  0  0  0  0  0
    5.1380   -5.2726    0.0000 O   0  0  0  0  0  0  0  0  0  0  0  0
    4.6531   -5.9400    0.0000 C   0  0  0  0  0  0  0  0  0  0  0  0
    5.1380   -6.6074    0.0000 O   0  0  0  0  0  0  0  0  0  0  0  0
    6.6371  -10.0650    0.0000 O   0  0  0  0  0  0  0  0  0  0  0  0
    5.2082   -9.2400    0.0000 O   0  0  0  0  0  0  0  0  0  0  0  0
    8.0661   -9.2400    0.0000 O   0  0  0  0  0  0  0  0  0  0  0  0
    8.2310   -5.3690    0.0000 C   0  0  0  0  0  0  0  0  0  0  0  0
    8.7182   -6.1404    0.0000 N   0  0  0  0  0  0  0  0  0  0  0  0
    8.5467   -4.6068    0.0000 O   0  0  0  0  0  0  0  0  0  0  0  0
    4.4937   -8.8275    0.0000 C   0  0  0  0  0  0  0  0  0  0  0  0
    7.3516  -10.4775    0.0000 C   0  0  0  0  0  0  0  0  0  0  0  0
    8.7805   -8.8275    0.0000 C   0  0  0  0  0  0  0  0  0  0  0  0
  1  2  2  0  0  0  0
  2  3  1  0  0  0  0
  3  4  2  0  0  0  0
  4  5  1  0  0  0  0
  5  6  2  0  0  0  0
  6  1  1  0  0  0  0
  5  7  1  0  0  0  0
  7  8  2  0  0  0  0
  8  9  1  0  0  0  0
  9 10  2  0  0  0  0
 10  6  1  0  0  0  0
  9 11  1  0  0  0  0
 11 12  2  0  0  0  0
 12 13  1  0  0  0  0
 13 14  2  0  0  0  0
 14 10  1  0  0  0  0
 13 15  1  0  0  0  0
 15 16  1  0  0  0  0
 16 17  1  0  0  0  0
 17 14  1  0  0  0  0
  3 18  1  0  0  0  0
  2 19  1  0  0  0  0
  4 20  1  0  0  0  0
 11 21  1  0  0  0  0
  8 22  1  0  0  0  0
 21 22  1  0  0  0  0
 21 23  2  0  0  0  0
 19 24  1  0  0  0  0
 18 25  1  0  0  0  0
 20 26  1  0  0  0  0
M  END
>  <cdx:fragmentId>
5

$$$$
