6719.cdx
  Mrv1902 05222410272D          

 13 14  0  0  0  0            999 V2000
    8.2486   -7.2801    0.0000 C   0  0  0  0  0  0  0  0  0  0  0  0
    8.2486   -6.4551    0.0000 C   0  0  0  0  0  0  0  0  0  0  0  0
    7.5342   -6.0426    0.0000 C   0  0  0  0  0  0  0  0  0  0  0  0
    6.8197   -6.4551    0.0000 C   0  0  0  0  0  0  0  0  0  0  0  0
    6.8197   -7.2801    0.0000 C   0  0  0  0  0  0  0  0  0  0  0  0
    7.5342   -7.6926    0.0000 C   0  0  0  0  0  0  0  0  0  0  0  0
    6.1052   -6.0426    0.0000 O   0  0  0  0  0  0  0  0  0  0  0  0
    5.3908   -6.4551    0.0000 C   0  0  0  0  0  0  0  0  0  0  0  0
    5.3908   -7.2801    0.0000 C   0  0  0  0  0  0  0  0  0  0  0  0
    6.1052   -7.6926    0.0000 C   0  0  0  0  0  0  0  0  0  0  0  0
    8.9631   -6.0426    0.0000 O   0  0  0  0  0  0  0  0  0  0  0  0
    9.6776   -6.4551    0.0000 C   0  0  0  0  0  0  0  0  0  0  0  0
    4.6763   -6.0426    0.0000 O   0  0  0  0  0  0  0  0  0  0  0  0
  1  2  1  0  0  0  0
  2  3  2  0  0  0  0
  3  4  1  0  0  0  0
  4  5  2  0  0  0  0
  5  6  1  0  0  0  0
  6  1  2  0  0  0  0
  4  7  1  0  0  0  0
  7  8  1  0  0  0  0
  8  9  1  0  0  0  0
  9 10  2  0  0  0  0
 10  5  1  0  0  0  0
  2 11  1  0  0  0  0
 11 12  1  0  0  0  0
  8 13  2  0  0  0  0
M  END
>  <cdx:fragmentId>
5

$$$$
