67194.cdx
  Mrv1902 05222410222D          

 32 36  0  0  0  0            999 V2000
    8.4560   -7.4580    0.0000 H   0  0  0  0  0  0  0  0  0  0  0  0
    8.1080   -7.6519    0.0000 H   0  0  0  0  0  0  0  0  0  0  0  0
    7.0580   -8.7377    0.0000 C   0  0  2  0  0  0  0  0  0  0  0  0
    7.5995   -8.1153    0.0000 C   0  0  0  0  0  0  0  0  0  0  0  0
    8.3588   -8.4379    0.0000 C   0  0  2  0  0  0  0  0  0  0  0  0
    8.2865   -9.2598    0.0000 N   0  0  0  0  0  0  0  0  0  0  0  0
    8.9110   -9.7982    0.0000 C   0  0  0  0  0  0  0  0  0  0  0  0
    8.8846  -10.6228    0.0000 C   0  0  0  0  0  0  0  0  0  0  0  0
    8.2255  -11.1191    0.0000 C   0  0  0  0  0  0  0  0  0  0  0  0
    7.4258  -10.9165    0.0000 C   0  0  0  0  0  0  0  0  0  0  0  0
    7.0823  -10.1664    0.0000 C   0  0  0  0  0  0  0  0  0  0  0  0
    6.2574  -10.1805    0.0000 C   0  0  2  0  0  0  0  0  0  0  0  0
    5.8328   -9.4731    0.0000 C   0  0  1  0  0  0  0  0  0  0  0  0
    5.0231   -9.3154    0.0000 O   0  0  0  0  0  0  0  0  0  0  0  0
    4.9228   -8.4965    0.0000 C   0  0  0  0  0  0  0  0  0  0  0  0
    5.6707   -8.1481    0.0000 C   0  0  2  0  0  0  0  0  0  0  0  0
    6.2331   -8.7517    0.0000 C   0  0  1  0  0  0  0  0  0  0  0  0
    7.4826   -9.4450    0.0000 C   0  0  0  0  0  0  0  0  0  0  0  0
    4.2014   -8.0962    0.0000 O   0  0  0  0  0  0  0  0  0  0  0  0
    5.8284   -7.3384    0.0000 C   0  0  0  0  0  0  0  0  0  0  0  0
    6.8073   -7.9517    0.0000 O   0  0  0  0  0  0  0  0  0  0  0  0
    5.8572  -10.9019    0.0000 C   0  0  0  0  0  0  0  0  0  0  0  0
    5.0331  -10.9406    0.0000 C   0  0  0  0  0  0  0  0  0  0  0  0
    5.3594  -10.1487    0.0000 H   0  0  0  0  0  0  0  0  0  0  0  0
    6.4090   -7.9457    0.0000 H   0  0  0  0  0  0  0  0  0  0  0  0
   11.1887   -7.7858    0.0000 C   0  0  0  0  0  0  0  0  0  0  0  0
   10.2649   -6.2469    0.0000 O   0  0  0  0  0  0  0  0  0  0  0  0
    9.9423   -7.0062    0.0000 C   0  0  0  0  0  0  0  0  0  0  0  0
   10.3669   -7.7136    0.0000 C   0  0  2  0  0  0  0  0  0  0  0  0
    9.8254   -8.3360    0.0000 C   0  0  0  0  0  0  0  0  0  0  0  0
    9.0661   -8.0133    0.0000 C   0  0  2  0  0  0  0  0  0  0  0  0
    9.1383   -7.1915    0.0000 O   0  0  0  0  0  0  0  0  0  0  0  0
 31  1  1  6  0  0  0
  5  2  1  6  0  0  0
 29 26  1  1  0  0  0
 28 27  2  0  0  0  0
 32 28  1  0  0  0  0
 29 28  1  0  0  0  0
 30 29  1  0  0  0  0
 31 30  1  0  0  0  0
 31 32  1  0  0  0  0
  3  4  1  0  0  0  0
  5  4  1  0  0  0  0
  5  6  1  0  0  0  0
  6  7  1  0  0  0  0
  7  8  1  0  0  0  0
  8  9  1  0  0  0  0
  9 10  1  0  0  0  0
 10 11  1  0  0  0  0
 11 12  1  0  0  0  0
 12 13  1  0  0  0  0
 13 14  1  0  0  0  0
 14 15  1  0  0  0  0
 15 16  1  0  0  0  0
 16 17  1  0  0  0  0
  3 17  1  0  0  0  0
  3 18  1  0  0  0  0
 18 11  2  0  0  0  0
 13 17  1  0  0  0  0
  6 18  1  0  0  0  0
 15 19  2  0  0  0  0
  5 31  1  0  0  0  0
 16 20  1  1  0  0  0
  3 21  1  6  0  0  0
 22 23  1  0  0  0  0
 12 22  1  1  0  0  0
 13 24  1  6  0  0  0
 17 25  1  6  0  0  0
M  END
>  <cdx:fragmentId>
86666

$$$$
