672145.cdx
  Mrv1902 05222410252D          

 60 67  0  0  0  0            999 V2000
    4.1131  -10.8462    0.0000 C   0  0  0  0  0  0  0  0  0  0  0  0
    3.4050  -11.2695    0.0000 C   0  0  0  0  0  0  0  0  0  0  0  0
    2.6843  -10.8680    0.0000 C   0  0  0  0  0  0  0  0  0  0  0  0
    1.9762  -11.2914    0.0000 C   0  0  0  0  0  0  0  0  0  0  0  0
    1.9889  -12.1163    0.0000 C   0  0  0  0  0  0  0  0  0  0  0  0
    2.7095  -12.5178    0.0000 C   0  0  0  0  0  0  0  0  0  0  0  0
    3.4176  -12.0944    0.0000 C   0  0  0  0  0  0  0  0  0  0  0  0
    4.1005  -10.0213    0.0000 O   0  0  0  0  0  0  0  0  0  0  0  0
    4.8338  -11.2477    0.0000 O   0  0  0  0  0  0  0  0  0  0  0  0
    1.2808  -12.5397    0.0000 O   0  0  0  0  0  0  0  0  0  0  0  0
    0.5601  -12.1382    0.0000 C   0  0  0  0  0  0  0  0  0  0  0  0
    1.2555  -10.8899    0.0000 O   0  0  0  0  0  0  0  0  0  0  0  0
    0.5475  -11.3133    0.0000 C   0  0  0  0  0  0  0  0  0  0  0  0
    6.9833  -11.6274    0.0000 H   0  0  0  0  0  0  0  0  0  0  0  0
    9.1078  -10.3566    0.0000 H   0  0  0  0  0  0  0  0  0  0  0  0
   10.7624   -8.1185    0.0000 H   0  0  0  0  0  0  0  0  0  0  0  0
   10.8900   -6.6952    0.0000 H   0  0  0  0  0  0  0  0  0  0  0  0
    8.3187   -7.7705    0.0000 H   0  0  0  0  0  0  0  0  0  0  0  0
    8.0516   -8.0720    0.0000 H   0  0  0  0  0  0  0  0  0  0  0  0
   11.0901   -7.8447    0.0000 O   0  0  0  0  0  0  0  0  0  0  0  0
   11.1094   -8.8669    0.0000 O   0  0  0  0  0  0  0  0  0  0  0  0
    9.4154  -10.1021    0.0000 O   0  0  0  0  0  0  0  0  0  0  0  0
    9.1201  -11.1821    0.0000 O   0  0  0  0  0  0  0  0  0  0  0  0
    6.2752  -12.0507    0.0000 O   0  0  0  0  0  0  0  0  0  0  0  0
    9.0272   -4.3762    0.0000 C   0  0  0  0  0  0  0  0  0  0  0  0
   11.1638   -7.0230    0.0000 C   0  0  0  0  0  0  0  0  0  0  0  0
    6.9580   -9.1525    0.0000 C   0  0  0  0  0  0  0  0  0  0  0  0
   10.8542  -11.7134    0.0000 C   0  0  0  0  0  0  0  0  0  0  0  0
   11.4565   -9.6154    0.0000 O   0  0  0  0  0  0  0  0  0  0  0  0
   12.4976  -11.8607    0.0000 C   0  0  0  0  0  0  0  0  0  0  0  0
   12.1506  -11.1123    0.0000 C   0  0  0  0  0  0  0  0  0  0  0  0
   11.3289  -11.0386    0.0000 C   0  0  0  0  0  0  0  0  0  0  0  0
   10.9818  -10.2902    0.0000 C   0  0  0  0  0  0  0  0  0  0  0  0
   10.1601  -10.2165    0.0000 O   0  0  0  0  0  0  0  0  0  0  0  0
    7.8253   -8.7447    0.0000 C   0  0  0  0  0  0  0  0  0  0  0  0
    7.6661   -9.5542    0.0000 C   0  0  2  0  0  0  0  0  0  0  0  0
    6.4484   -9.9563    0.0000 O   0  0  0  0  0  0  0  0  0  0  0  0
    6.2626  -11.2258    0.0000 C   0  0  1  0  0  0  0  0  0  0  0  0
    5.5419  -10.8243    0.0000 C   0  0  2  0  0  0  0  0  0  0  0  0
    5.5292   -9.9994    0.0000 C   0  0  0  0  0  0  0  0  0  0  0  0
    6.2373   -9.5760    0.0000 C   0  0  0  0  0  0  0  0  0  0  0  0
    6.9580   -9.9775    0.0000 C   0  0  2  0  0  0  0  0  0  0  0  0
    6.9706  -10.8025    0.0000 C   0  0  2  0  0  0  0  0  0  0  0  0
    7.6913  -11.2040    0.0000 C   0  0  0  0  0  0  0  0  0  0  0  0
    8.3994  -10.7806    0.0000 C   0  0  2  0  0  0  0  0  0  0  0  0
    8.3868   -9.9557    0.0000 C   0  0  1  0  0  0  0  0  0  0  0  0
    8.9914   -9.3943    0.0000 C   0  0  1  0  0  0  0  0  0  0  0  0
    9.8131   -9.4680    0.0000 C   0  0  2  0  0  0  0  0  0  0  0  0
   10.2877   -8.7932    0.0000 C   0  0  1  0  0  0  0  0  0  0  0  0
    9.9407   -8.0448    0.0000 C   0  0  2  0  0  0  0  0  0  0  0  0
   10.4153   -7.3700    0.0000 C   0  0  1  0  0  0  0  0  0  0  0  0
   10.0683   -6.6216    0.0000 C   0  0  2  0  0  0  0  0  0  0  0  0
   10.5430   -5.9468    0.0000 C   0  0  0  0  0  0  0  0  0  0  0  0
   10.1959   -5.1983    0.0000 C   0  0  0  0  0  0  0  0  0  0  0  0
    9.3742   -5.1247    0.0000 C   0  0  1  0  0  0  0  0  0  0  0  0
    8.8996   -5.7994    0.0000 C   0  0  0  0  0  0  0  0  0  0  0  0
    9.2466   -6.5479    0.0000 N   0  0  0  0  0  0  0  0  0  0  0  0
    8.7719   -7.2227    0.0000 C   0  0  0  0  0  0  0  0  0  0  0  0
    9.1190   -7.9711    0.0000 C   0  0  1  0  0  0  0  0  0  0  0  0
    8.6443   -8.6459    0.0000 C   0  0  2  0  0  0  0  0  0  0  0  0
 43 14  1  1  0  0  0
 46 15  1  1  0  0  0
 50 16  1  6  0  0  0
 52 17  1  6  0  0  0
 59 18  1  1  0  0  0
 60 19  1  6  0  0  0
 39  9  1  1  0  0  0
 51 20  1  1  0  0  0
 49 21  1  1  0  0  0
 47 22  1  6  0  0  0
 45 23  1  6  0  0  0
 38 24  1  6  0  0  0
 55 25  1  1  0  0  0
 51 26  1  6  0  0  0
 42 27  1  1  0  0  0
 48 34  1  6  0  0  0
 32 28  1  0  0  0  0
 34 33  1  0  0  0  0
 33 29  2  0  0  0  0
 31 30  1  0  0  0  0
 32 31  1  0  0  0  0
 33 32  1  0  0  0  0
 57 52  1  0  0  0  0
 59 50  1  0  0  0  0
 43 38  1  0  0  0  0
 46 36  1  0  0  0  0
 42 36  1  0  0  0  0
 60 47  1  0  0  0  0
 60 35  1  0  0  0  0
 36 35  1  1  0  0  0
 36 37  1  0  0  0  0
 38 37  1  0  0  0  0
 39 38  1  0  0  0  0
 40 39  1  0  0  0  0
 41 40  1  0  0  0  0
 42 41  1  0  0  0  0
 43 42  1  0  0  0  0
 44 43  1  0  0  0  0
 45 44  1  0  0  0  0
 46 45  1  0  0  0  0
 47 46  1  0  0  0  0
 48 47  1  0  0  0  0
 49 48  1  0  0  0  0
 50 49  1  0  0  0  0
 51 50  1  0  0  0  0
 52 51  1  0  0  0  0
 53 52  1  0  0  0  0
 54 53  1  0  0  0  0
 55 54  1  0  0  0  0
 56 55  1  0  0  0  0
 57 56  1  0  0  0  0
 58 57  1  0  0  0  0
 59 58  1  0  0  0  0
 60 59  1  0  0  0  0
  1  2  1  0  0  0  0
  2  3  1  0  0  0  0
  3  4  2  0  0  0  0
  4  5  1  0  0  0  0
  5  6  2  0  0  0  0
  6  7  1  0  0  0  0
  2  7  2  0  0  0  0
  1  8  2  0  0  0  0
  1  9  1  0  0  0  0
 10 11  1  0  0  0  0
  5 10  1  0  0  0  0
 12 13  1  0  0  0  0
  4 12  1  0  0  0  0
M  END
>  <cdx:fragmentId>
140701

$$$$
