672144.cdx
  Mrv1902 05222410252D          

 63 70  0  0  0  0            999 V2000
    4.5850  -11.0250    0.0000 C   0  0  0  0  0  0  0  0  0  0  0  0
    3.8704  -11.4372    0.0000 C   0  0  0  0  0  0  0  0  0  0  0  0
    3.1560  -11.0244    0.0000 C   0  0  0  0  0  0  0  0  0  0  0  0
    2.4414  -11.4366    0.0000 C   0  0  0  0  0  0  0  0  0  0  0  0
    2.4411  -12.2616    0.0000 C   0  0  0  0  0  0  0  0  0  0  0  0
    3.1554  -12.6744    0.0000 C   0  0  0  0  0  0  0  0  0  0  0  0
    3.8700  -12.2622    0.0000 C   0  0  0  0  0  0  0  0  0  0  0  0
    4.5853  -10.2000    0.0000 O   0  0  0  0  0  0  0  0  0  0  0  0
    5.2993  -11.4378    0.0000 O   0  0  0  0  0  0  0  0  0  0  0  0
    1.7265  -12.6739    0.0000 O   0  0  0  0  0  0  0  0  0  0  0  0
    1.0121  -12.2611    0.0000 C   0  0  0  0  0  0  0  0  0  0  0  0
    1.7271  -11.0239    0.0000 O   0  0  0  0  0  0  0  0  0  0  0  0
    1.0125  -11.4361    0.0000 C   0  0  0  0  0  0  0  0  0  0  0  0
    7.4426  -11.8511    0.0000 H   0  0  0  0  0  0  0  0  0  0  0  0
    9.4547  -10.7859    0.0000 H   0  0  0  0  0  0  0  0  0  0  0  0
   11.2763   -8.4019    0.0000 H   0  0  0  0  0  0  0  0  0  0  0  0
   11.4262   -6.9809    0.0000 H   0  0  0  0  0  0  0  0  0  0  0  0
    8.8385   -8.0153    0.0000 H   0  0  0  0  0  0  0  0  0  0  0  0
    8.5668   -8.3127    0.0000 H   0  0  0  0  0  0  0  0  0  0  0  0
    8.8712  -12.6767    0.0000 C   0  0  0  0  0  0  0  0  0  0  0  0
   10.3001  -12.6772    0.0000 O   0  0  0  0  0  0  0  0  0  0  0  0
    9.5858  -12.2644    0.0000 C   0  0  0  0  0  0  0  0  0  0  0  0
    9.5861  -11.4394    0.0000 O   0  0  0  0  0  0  0  0  0  0  0  0
   11.6555   -8.0606    0.0000 O   0  0  0  0  0  0  0  0  0  0  0  0
   11.6115   -9.1557    0.0000 O   0  0  0  0  0  0  0  0  0  0  0  0
    9.6978  -10.4471    0.0000 O   0  0  0  0  0  0  0  0  0  0  0  0
    6.7279  -12.2633    0.0000 O   0  0  0  0  0  0  0  0  0  0  0  0
    9.6000   -4.6329    0.0000 C   0  0  0  0  0  0  0  0  0  0  0  0
   11.6948   -7.3129    0.0000 C   0  0  0  0  0  0  0  0  0  0  0  0
    8.1575  -10.6139    0.0000 C   0  0  0  0  0  0  0  0  0  0  0  0
   11.3117  -11.9979    0.0000 C   0  0  0  0  0  0  0  0  0  0  0  0
   11.9468   -9.9095    0.0000 O   0  0  0  0  0  0  0  0  0  0  0  0
   12.9526  -12.1710    0.0000 C   0  0  0  0  0  0  0  0  0  0  0  0
   12.6173  -11.4172    0.0000 C   0  0  0  0  0  0  0  0  0  0  0  0
   11.7969  -11.3306    0.0000 C   0  0  0  0  0  0  0  0  0  0  0  0
   11.4616  -10.5768    0.0000 C   0  0  0  0  0  0  0  0  0  0  0  0
   10.6412  -10.4902    0.0000 O   0  0  0  0  0  0  0  0  0  0  0  0
    8.3297   -8.9820    0.0000 C   0  0  0  0  0  0  0  0  0  0  0  0
    8.1578   -9.7889    0.0000 C   0  0  2  0  0  0  0  0  0  0  0  0
    6.9340  -10.1719    0.0000 O   0  0  0  0  0  0  0  0  0  0  0  0
    6.7282  -11.4383    0.0000 C   0  0  1  0  0  0  0  0  0  0  0  0
    6.0139  -11.0255    0.0000 C   0  0  2  0  0  0  0  0  0  0  0  0
    6.0143  -10.2005    0.0000 C   0  0  0  0  0  0  0  0  0  0  0  0
    6.7289   -9.7883    0.0000 C   0  0  0  0  0  0  0  0  0  0  0  0
    7.4432  -10.2011    0.0000 C   0  0  2  0  0  0  0  0  0  0  0  0
    7.4429  -11.0261    0.0000 C   0  0  2  0  0  0  0  0  0  0  0  0
    8.1572  -11.4389    0.0000 C   0  0  0  0  0  0  0  0  0  0  0  0
    8.8718  -11.0267    0.0000 C   0  0  2  0  0  0  0  0  0  0  0  0
    8.8721  -10.2017    0.0000 C   0  0  1  0  0  0  0  0  0  0  0  0
    9.4854   -9.6499    0.0000 C   0  0  1  0  0  0  0  0  0  0  0  0
   10.3059   -9.7364    0.0000 C   0  0  2  0  0  0  0  0  0  0  0  0
   10.7911   -9.0692    0.0000 C   0  0  1  0  0  0  0  0  0  0  0  0
   10.4558   -8.3154    0.0000 C   0  0  2  0  0  0  0  0  0  0  0  0
   10.9410   -7.6481    0.0000 C   0  0  1  0  0  0  0  0  0  0  0  0
   10.6057   -6.8943    0.0000 C   0  0  2  0  0  0  0  0  0  0  0  0
   11.0909   -6.2271    0.0000 C   0  0  0  0  0  0  0  0  0  0  0  0
   10.7557   -5.4733    0.0000 C   0  0  0  0  0  0  0  0  0  0  0  0
    9.9352   -5.3867    0.0000 C   0  0  1  0  0  0  0  0  0  0  0  0
    9.4500   -6.0540    0.0000 C   0  0  0  0  0  0  0  0  0  0  0  0
    9.7853   -6.8078    0.0000 N   0  0  0  0  0  0  0  0  0  0  0  0
    9.3001   -7.4750    0.0000 C   0  0  0  0  0  0  0  0  0  0  0  0
    9.6354   -8.2288    0.0000 C   0  0  1  0  0  0  0  0  0  0  0  0
    9.1502   -8.8961    0.0000 C   0  0  2  0  0  0  0  0  0  0  0  0
 46 14  1  1  0  0  0
 49 15  1  1  0  0  0
 53 16  1  6  0  0  0
 55 17  1  6  0  0  0
 62 18  1  1  0  0  0
 63 19  1  6  0  0  0
 42  9  1  1  0  0  0
 48 23  1  6  0  0  0
 23 22  1  0  0  0  0
 22 20  1  0  0  0  0
 22 21  2  0  0  0  0
 54 24  1  1  0  0  0
 52 25  1  1  0  0  0
 50 26  1  6  0  0  0
 41 27  1  6  0  0  0
 58 28  1  1  0  0  0
 54 29  1  6  0  0  0
 45 30  1  1  0  0  0
 51 37  1  6  0  0  0
 35 31  1  0  0  0  0
 37 36  1  0  0  0  0
 36 32  2  0  0  0  0
 34 33  1  0  0  0  0
 35 34  1  0  0  0  0
 36 35  1  0  0  0  0
 60 55  1  0  0  0  0
 62 53  1  0  0  0  0
 46 41  1  0  0  0  0
 49 39  1  0  0  0  0
 45 39  1  0  0  0  0
 63 50  1  0  0  0  0
 63 38  1  0  0  0  0
 39 38  1  1  0  0  0
 39 40  1  0  0  0  0
 41 40  1  0  0  0  0
 42 41  1  0  0  0  0
 43 42  1  0  0  0  0
 44 43  1  0  0  0  0
 45 44  1  0  0  0  0
 46 45  1  0  0  0  0
 47 46  1  0  0  0  0
 48 47  1  0  0  0  0
 49 48  1  0  0  0  0
 50 49  1  0  0  0  0
 51 50  1  0  0  0  0
 52 51  1  0  0  0  0
 53 52  1  0  0  0  0
 54 53  1  0  0  0  0
 55 54  1  0  0  0  0
 56 55  1  0  0  0  0
 57 56  1  0  0  0  0
 58 57  1  0  0  0  0
 59 58  1  0  0  0  0
 60 59  1  0  0  0  0
 61 60  1  0  0  0  0
 62 61  1  0  0  0  0
 63 62  1  0  0  0  0
  1  2  1  0  0  0  0
  2  3  1  0  0  0  0
  3  4  2  0  0  0  0
  4  5  1  0  0  0  0
  5  6  2  0  0  0  0
  6  7  1  0  0  0  0
  2  7  2  0  0  0  0
  1  8  2  0  0  0  0
  1  9  1  0  0  0  0
 10 11  1  0  0  0  0
  5 10  1  0  0  0  0
 12 13  1  0  0  0  0
  4 12  1  0  0  0  0
M  END
>  <cdx:fragmentId>
140494

$$$$
