6721.cdx
  Mrv1902 05222410272D          

 46 50  0  0  0  0            999 V2000
    7.3114   -5.5275    0.0000 C   0  0  0  0  0  0  0  0  0  0  0  0
    7.3114   -6.3525    0.0000 C   0  0  0  0  0  0  0  0  0  0  0  0
    8.0259   -6.7650    0.0000 C   0  0  0  0  0  0  0  0  0  0  0  0
    8.7403   -6.3525    0.0000 C   0  0  0  0  0  0  0  0  0  0  0  0
    8.7403   -5.5275    0.0000 C   0  0  0  0  0  0  0  0  0  0  0  0
    8.0259   -5.1150    0.0000 C   0  0  0  0  0  0  0  0  0  0  0  0
    9.4548   -6.7650    0.0000 C   0  0  0  0  0  0  0  0  0  0  0  0
   10.1693   -6.3525    0.0000 C   0  0  0  0  0  0  0  0  0  0  0  0
   10.1693   -5.5275    0.0000 C   0  0  0  0  0  0  0  0  0  0  0  0
    9.4548   -5.1150    0.0000 O   0  0  0  0  0  0  0  0  0  0  0  0
   10.8838   -5.1150    0.0000 C   0  0  0  0  0  0  0  0  0  0  0  0
   10.8838   -4.2900    0.0000 C   0  0  0  0  0  0  0  0  0  0  0  0
   11.5982   -5.5275    0.0000 C   0  0  0  0  0  0  0  0  0  0  0  0
   12.3127   -5.1150    0.0000 C   0  0  0  0  0  0  0  0  0  0  0  0
   12.3127   -4.2900    0.0000 C   0  0  0  0  0  0  0  0  0  0  0  0
   11.5982   -3.8775    0.0000 C   0  0  0  0  0  0  0  0  0  0  0  0
    6.5969   -5.1150    0.0000 O   0  0  0  0  0  0  0  0  0  0  0  0
    8.0259   -7.5900    0.0000 O   0  0  0  0  0  0  0  0  0  0  0  0
    9.4548   -7.5900    0.0000 O   0  0  0  0  0  0  0  0  0  0  0  0
   11.5982   -3.0525    0.0000 O   0  0  0  0  0  0  0  0  0  0  0  0
   13.0272   -3.8775    0.0000 O   0  0  0  0  0  0  0  0  0  0  0  0
    5.1670   -5.1287    0.0000 C   0  0  2  0  0  0  0  0  0  0  0  0
    4.4506   -5.5377    0.0000 C   0  0  2  0  0  0  0  0  0  0  0  0
    4.4466   -6.3627    0.0000 C   0  0  1  0  0  0  0  0  0  0  0  0
    5.1590   -6.7787    0.0000 C   0  0  2  0  0  0  0  0  0  0  0  0
    5.8755   -6.3697    0.0000 C   0  0  1  0  0  0  0  0  0  0  0  0
    5.8795   -5.5447    0.0000 O   0  0  0  0  0  0  0  0  0  0  0  0
    6.5879   -6.7856    0.0000 O   0  0  0  0  0  0  0  0  0  0  0  0
    5.1711   -4.3037    0.0000 C   0  0  0  0  0  0  0  0  0  0  0  0
    3.7301   -6.7717    0.0000 O   0  0  0  0  0  0  0  0  0  0  0  0
    5.1550   -7.6037    0.0000 O   0  0  0  0  0  0  0  0  0  0  0  0
    3.7381   -5.1217    0.0000 O   0  0  0  0  0  0  0  0  0  0  0  0
    4.4586   -3.8877    0.0000 O   0  0  0  0  0  0  0  0  0  0  0  0
    4.4385   -8.0127    0.0000 C   0  0  2  0  0  0  0  0  0  0  0  0
    3.7261   -7.5967    0.0000 O   0  0  0  0  0  0  0  0  0  0  0  0
    3.0096   -8.0057    0.0000 C   0  0  1  0  0  0  0  0  0  0  0  0
    3.0056   -8.8307    0.0000 C   0  0  2  0  0  0  0  0  0  0  0  0
    3.7180   -9.2467    0.0000 C   0  0  1  0  0  0  0  0  0  0  0  0
    4.4345   -8.8377    0.0000 C   0  0  1  0  0  0  0  0  0  0  0  0
    2.2972   -7.5897    0.0000 C   0  0  0  0  0  0  0  0  0  0  0  0
    3.7140  -10.0717    0.0000 O   0  0  0  0  0  0  0  0  0  0  0  0
    5.1470   -9.2536    0.0000 O   0  0  0  0  0  0  0  0  0  0  0  0
    2.2891   -9.2397    0.0000 O   0  0  0  0  0  0  0  0  0  0  0  0
    1.5807   -7.9988    0.0000 O   0  0  0  0  0  0  0  0  0  0  0  0
    2.3012   -6.7648    0.0000 O   0  0  0  0  0  0  0  0  0  0  0  0
    6.5969   -4.2894    0.0000 C   0  0  0  0  0  0  0  0  0  0  0  0
  1  2  1  0  0  0  0
  2  3  2  0  0  0  0
  3  4  1  0  0  0  0
  4  5  2  0  0  0  0
  5  6  1  0  0  0  0
  6  1  2  0  0  0  0
  4  7  1  0  0  0  0
  7  8  1  0  0  0  0
  8  9  2  0  0  0  0
  9 10  1  0  0  0  0
 10  5  1  0  0  0  0
  9 11  1  0  0  0  0
 11 12  2  0  0  0  0
 11 13  1  0  0  0  0
 13 14  2  0  0  0  0
 14 15  1  0  0  0  0
 15 16  2  0  0  0  0
 16 12  1  0  0  0  0
  1 17  1  0  0  0  0
  3 18  1  0  0  0  0
  7 19  2  0  0  0  0
 16 20  1  0  0  0  0
 15 21  1  0  0  0  0
 22 23  1  0  0  0  0
 23 24  1  0  0  0  0
 24 25  1  0  0  0  0
 25 26  1  0  0  0  0
 26 27  1  0  0  0  0
 27 22  1  0  0  0  0
 26 28  1  1  0  0  0
 22 29  1  1  0  0  0
 24 30  1  1  0  0  0
 25 31  1  6  0  0  0
 23 32  1  6  0  0  0
 29 33  1  0  0  0  0
 34 31  1  1  0  0  0
 34 35  1  0  0  0  0
 35 36  1  0  0  0  0
 36 37  1  0  0  0  0
 37 38  1  0  0  0  0
 38 39  1  0  0  0  0
 39 34  1  0  0  0  0
 36 40  1  1  0  0  0
 38 41  1  1  0  0  0
 39 42  1  6  0  0  0
 37 43  1  6  0  0  0
 40 44  1  0  0  0  0
 40 45  2  0  0  0  0
  2 28  1  0  0  0  0
 17 46  1  0  0  0  0
M  END
>  <cdx:fragmentId>
81

$$$$
