21672218.cdx
  Mrv1902 05222410252D          

 39 45  0  0  0  0            999 V2000
    7.4150  -16.4193    0.0000 C   0  0  2  0  0  0  0  0  0  0  0  0
    7.4150  -17.2443    0.0000 C   0  0  2  0  0  0  0  0  0  0  0  0
    7.4150  -18.0693    0.0000 O   0  0  0  0  0  0  0  0  0  0  0  0
    6.7005  -17.6568    0.0000 C   0  0  2  0  0  0  0  0  0  0  0  0
    5.9860  -17.2443    0.0000 C   0  0  1  0  0  0  0  0  0  0  0  0
    5.2716  -17.6568    0.0000 C   0  0  0  0  0  0  0  0  0  0  0  0
    4.5571  -17.2443    0.0000 C   0  0  0  0  0  0  0  0  0  0  0  0
    4.5571  -16.4193    0.0000 C   0  0  0  0  0  0  0  0  0  0  0  0
    5.2716  -16.0068    0.0000 C   0  0  0  0  0  0  0  0  0  0  0  0
    5.9860  -16.4193    0.0000 C   0  0  2  0  0  0  0  0  0  0  0  0
    6.7005  -16.0068    0.0000 C   0  0  1  0  0  0  0  0  0  0  0  0
    6.7005  -15.1818    0.0000 C   0  0  0  0  0  0  0  0  0  0  0  0
    7.4150  -14.7693    0.0000 C   0  0  0  0  0  0  0  0  0  0  0  0
    8.1295  -15.1818    0.0000 C   0  0  2  0  0  0  0  0  0  0  0  0
    8.9141  -14.9269    0.0000 C   0  0  2  0  0  0  0  0  0  0  0  0
    9.3990  -15.5943    0.0000 C   0  0  0  0  0  0  0  0  0  0  0  0
    8.9141  -16.2618    0.0000 C   0  0  0  0  0  0  0  0  0  0  0  0
    8.1295  -16.0068    0.0000 C   0  0  1  0  0  0  0  0  0  0  0  0
    5.2716  -15.1818    0.0000 O   0  0  0  0  0  0  0  0  0  0  0  0
    8.2157  -14.3613    0.0000 C   0  0  0  0  0  0  0  0  0  0  0  0
    5.9860  -15.5943    0.0000 C   0  0  0  0  0  0  0  0  0  0  0  0
    5.9860  -18.0693    0.0000 O   0  0  0  0  0  0  0  0  0  0  0  0
    9.1690  -14.1423    0.0000 C   0  0  2  0  0  0  0  0  0  0  0  0
    9.9760  -13.9707    0.0000 C   0  0  0  0  0  0  0  0  0  0  0  0
    7.5129  -12.3030    0.0000 C   0  0  2  0  0  0  0  0  0  0  0  0
    8.3199  -12.1314    0.0000 C   0  0  0  0  0  0  0  0  0  0  0  0
    8.8719  -12.7445    0.0000 O   0  0  0  0  0  0  0  0  0  0  0  0
    8.6170  -13.5292    0.0000 C   0  0  2  0  0  0  0  0  0  0  0  0
    7.8100  -13.7007    0.0000 C   0  0  0  0  0  0  0  0  0  0  0  0
    7.2580  -13.0876    0.0000 C   0  0  2  0  0  0  0  0  0  0  0  0
    6.7060  -12.4745    0.0000 O   0  0  0  0  0  0  0  0  0  0  0  0
    8.5748  -11.3468    0.0000 O   0  0  0  0  0  0  0  0  0  0  0  0
    6.6449  -13.6396    0.0000 C   0  0  0  0  0  0  0  0  0  0  0  0
    7.3414  -11.4960    0.0000 C   0  0  0  0  0  0  0  0  0  0  0  0
    7.4150  -15.5943    0.0000 H   0  0  0  0  0  0  0  0  0  0  0  0
    8.2400  -17.2443    0.0000 H   0  0  0  0  0  0  0  0  0  0  0  0
    6.2880  -18.3713    0.0000 H   0  0  0  0  0  0  0  0  0  0  0  0
    6.7005  -16.8318    0.0000 H   0  0  0  0  0  0  0  0  0  0  0  0
    8.1295  -16.8318    0.0000 H   0  0  0  0  0  0  0  0  0  0  0  0
  1  2  1  0  0  0  0
  2  3  1  0  0  0  0
  3  4  1  0  0  0  0
  4  5  1  0  0  0  0
  5  6  1  0  0  0  0
  6  7  1  0  0  0  0
  7  8  2  0  0  0  0
  8  9  1  0  0  0  0
  9 10  1  0  0  0  0
 10 11  1  0  0  0  0
 11 12  1  0  0  0  0
 12 13  1  0  0  0  0
 13 14  1  0  0  0  0
 14 15  1  0  0  0  0
 15 16  1  1  0  0  0
 16 17  1  0  0  0  0
 17 18  1  0  0  0  0
  1 18  1  0  0  0  0
  1 11  1  0  0  0  0
  5 10  1  0  0  0  0
  2  4  1  0  0  0  0
 14 18  1  0  0  0  0
  9 19  2  0  0  0  0
 14 20  1  1  0  0  0
 10 21  1  1  0  0  0
  5 22  1  6  0  0  0
 23 24  1  1  0  0  0
 25 26  1  0  0  0  0
 26 27  1  0  0  0  0
 28 27  1  1  0  0  0
 28 29  1  0  0  0  0
 29 30  1  0  0  0  0
 30 31  1  0  0  0  0
 25 31  1  0  0  0  0
 25 30  1  0  0  0  0
 26 32  2  0  0  0  0
 30 33  1  1  0  0  0
 25 34  1  1  0  0  0
 23 28  1  0  0  0  0
 15 23  1  0  0  0  0
  1 35  1  1  0  0  0
  2 36  1  1  0  0  0
  4 37  1  1  0  0  0
 11 38  1  6  0  0  0
 18 39  1  6  0  0  0
M  END
>  <cdx:groupId>
140995

>  <cdx:fragmentId>
140875

$$$$
