6723.cdx
  Mrv1902 05222410282D          

 13 13  0  0  0  0            999 V2000
    6.0798   -6.1086    0.0000 C   0  0  0  0  0  0  0  0  0  0  0  0
    6.0678   -5.2837    0.0000 C   0  0  0  0  0  0  0  0  0  0  0  0
    6.7761   -4.8607    0.0000 C   0  0  0  0  0  0  0  0  0  0  0  0
    7.4966   -5.2628    0.0000 C   0  0  0  0  0  0  0  0  0  0  0  0
    7.5086   -6.0877    0.0000 C   0  0  0  0  0  0  0  0  0  0  0  0
    6.8003   -6.5106    0.0000 N   0  0  0  0  0  0  0  0  0  0  0  0
    6.7641   -4.0358    0.0000 C   0  0  0  0  0  0  0  0  0  0  0  0
    6.0436   -3.6338    0.0000 O   0  0  0  0  0  0  0  0  0  0  0  0
    7.4724   -3.6129    0.0000 O   0  0  0  0  0  0  0  0  0  0  0  0
    5.3715   -6.5315    0.0000 C   0  0  0  0  0  0  0  0  0  0  0  0
    8.2049   -4.8399    0.0000 C   0  0  0  0  0  0  0  0  0  0  0  0
    8.9194   -5.2524    0.0000 O   0  0  0  0  0  0  0  0  0  0  0  0
    5.3473   -4.8816    0.0000 O   0  0  0  0  0  0  0  0  0  0  0  0
  1  2  1  0  0  0  0
  2  3  2  0  0  0  0
  3  4  1  0  0  0  0
  4  5  2  0  0  0  0
  5  6  1  0  0  0  0
  1  6  2  0  0  0  0
  7  8  2  0  0  0  0
  7  9  1  0  0  0  0
  3  7  1  0  0  0  0
  1 10  1  0  0  0  0
 11 12  1  0  0  0  0
  4 11  1  0  0  0  0
  2 13  1  0  0  0  0
M  END
>  <cdx:groupId>
41

>  <cdx:fragmentId>
5

$$$$
