67249.cdx
  Mrv1902 05222410282D          

 21 22  0  0  0  0            999 V2000
    7.4179   -3.4796    0.0000 C   0  0  0  0  0  0  0  0  0  0  0  0
    7.4179   -4.3046    0.0000 C   0  0  0  0  0  0  0  0  0  0  0  0
    8.1323   -4.7171    0.0000 O   0  0  0  0  0  0  0  0  0  0  0  0
    6.7034   -4.7171    0.0000 C   0  0  0  0  0  0  0  0  0  0  0  0
    5.9889   -4.3046    0.0000 C   0  0  0  0  0  0  0  0  0  0  0  0
    5.2744   -4.7171    0.0000 C   0  0  0  0  0  0  0  0  0  0  0  0
    5.2744   -5.5421    0.0000 O   0  0  0  0  0  0  0  0  0  0  0  0
    4.5600   -4.3046    0.0000 C   0  0  0  0  0  0  0  0  0  0  0  0
    4.5600   -3.4796    0.0000 C   0  0  0  0  0  0  0  0  0  0  0  0
    3.8455   -3.0671    0.0000 O   0  0  0  0  0  0  0  0  0  0  0  0
    5.2744   -3.0671    0.0000 C   0  0  0  0  0  0  0  0  0  0  0  0
    5.9889   -3.4796    0.0000 C   0  0  0  0  0  0  0  0  0  0  0  0
    6.7034   -3.0671    0.0000 O   0  3  0  0  0  0  0  0  0  0  0  0
    8.1323   -3.0671    0.0000 C   0  0  0  0  0  0  0  0  0  0  0  0
    8.1323   -2.2421    0.0000 C   0  0  0  0  0  0  0  0  0  0  0  0
    8.8468   -1.8296    0.0000 C   0  0  0  0  0  0  0  0  0  0  0  0
    9.5613   -2.2421    0.0000 C   0  0  0  0  0  0  0  0  0  0  0  0
   10.2757   -1.8296    0.0000 O   0  0  0  0  0  0  0  0  0  0  0  0
    9.5613   -3.0671    0.0000 C   0  0  0  0  0  0  0  0  0  0  0  0
    8.8468   -3.4796    0.0000 C   0  0  0  0  0  0  0  0  0  0  0  0
    6.7034   -2.2421    0.0000 Cl  0  5  0  0  0  0  0  0  0  0  0  0
  1  2  2  0  0  0  0
  2  3  1  0  0  0  0
  2  4  1  0  0  0  0
  4  5  2  0  0  0  0
  5  6  1  0  0  0  0
  6  7  1  0  0  0  0
  6  8  2  0  0  0  0
  8  9  1  0  0  0  0
  9 10  1  0  0  0  0
  9 11  2  0  0  0  0
 11 12  1  0  0  0  0
  5 12  1  0  0  0  0
 12 13  2  0  0  0  0
  1 13  1  0  0  0  0
  1 14  1  0  0  0  0
 14 15  1  0  0  0  0
 15 16  2  0  0  0  0
 16 17  1  0  0  0  0
 17 18  1  0  0  0  0
 17 19  2  0  0  0  0
 19 20  1  0  0  0  0
 14 20  2  0  0  0  0
M  CHG  2  13   1  21  -1
M  END
>  <cdx:groupId>
66

>  <cdx:fragmentId>
43

$$$$
