6725.cdx
  Mrv1902 05222410272D          

 19 20  0  0  0  0            999 V2000
    7.9200   -8.8191    0.0000 C   0  0  0  0  0  0  0  0  0  0  0  0
    7.9026   -7.9943    0.0000 C   0  0  0  0  0  0  0  0  0  0  0  0
    7.1795   -7.5970    0.0000 C   0  0  0  0  0  0  0  0  0  0  0  0
    6.4739   -8.0245    0.0000 C   0  0  0  0  0  0  0  0  0  0  0  0
    6.4914   -8.8493    0.0000 C   0  0  0  0  0  0  0  0  0  0  0  0
    7.2144   -9.2466    0.0000 C   0  0  0  0  0  0  0  0  0  0  0  0
    5.7509   -7.6272    0.0000 O   0  0  0  0  0  0  0  0  0  0  0  0
    5.0453   -8.0548    0.0000 C   0  0  0  0  0  0  0  0  0  0  0  0
    5.0628   -8.8796    0.0000 C   0  0  0  0  0  0  0  0  0  0  0  0
    5.7858   -9.2769    0.0000 C   0  0  0  0  0  0  0  0  0  0  0  0
    4.3223   -7.6575    0.0000 O   0  0  0  0  0  0  0  0  0  0  0  0
    8.6431   -9.2163    0.0000 O   0  0  0  0  0  0  0  0  0  0  0  0
    8.6081   -7.5667    0.0000 O   0  0  0  0  0  0  0  0  0  0  0  0
    9.3486   -8.7888    0.0000 C   0  0  0  0  0  0  0  0  0  0  0  0
    8.5907   -6.7419    0.0000 C   0  0  0  0  0  0  0  0  0  0  0  0
    9.2962   -6.3144    0.0000 C   0  0  0  0  0  0  0  0  0  0  0  0
    9.2788   -5.4896    0.0000 C   0  0  0  0  0  0  0  0  0  0  0  0
    9.9844   -5.0620    0.0000 C   0  0  0  0  0  0  0  0  0  0  0  0
    8.5557   -5.0923    0.0000 C   0  0  0  0  0  0  0  0  0  0  0  0
  1  2  2  0  0  0  0
  2  3  1  0  0  0  0
  3  4  2  0  0  0  0
  4  5  1  0  0  0  0
  5  6  2  0  0  0  0
  6  1  1  0  0  0  0
  4  7  1  0  0  0  0
  7  8  1  0  0  0  0
  8  9  1  0  0  0  0
  9 10  2  0  0  0  0
 10  5  1  0  0  0  0
  8 11  2  0  0  0  0
  1 12  1  0  0  0  0
  2 13  1  0  0  0  0
 12 14  1  0  0  0  0
 13 15  1  0  0  0  0
 15 16  1  0  0  0  0
 16 17  2  0  0  0  0
 17 18  1  0  0  0  0
 17 19  1  0  0  0  0
M  END
>  <cdx:fragmentId>
5

$$$$
