6726.cdx
  Mrv1902 05222410262D          

 57 62  0  0  0  0            999 V2000
    4.7893  -13.1929    0.0000 O   0  0  0  0  0  0  0  0  0  0  0  0
    5.5054  -10.5748    0.0000 H   0  0  0  0  0  0  0  0  0  0  0  0
    3.3614  -12.3672    0.0000 O   0  0  0  0  0  0  0  0  0  0  0  0
    2.6480  -11.1296    0.0000 O   0  0  0  0  0  0  0  0  0  0  0  0
    3.3625  -10.7177    0.0000 C   0  0  0  0  0  0  0  0  0  0  0  0
    8.3614  -11.9583    0.0000 O   0  0  0  0  0  0  0  0  0  0  0  0
   12.6491   -8.6622    0.0000 C   0  0  0  0  0  0  0  0  0  0  0  0
   11.9352   -8.2494    0.0000 O   0  0  0  0  0  0  0  0  0  0  0  0
    4.7910  -10.7187    0.0000 O   0  0  0  0  0  0  0  0  0  0  0  0
    4.0765  -11.1306    0.0000 C   0  0  1  0  0  0  0  0  0  0  0  0
    4.0759  -11.9553    0.0000 C   0  0  2  0  0  0  0  0  0  0  0  0
    4.7899  -12.3682    0.0000 C   0  0  1  0  0  0  0  0  0  0  0  0
    5.5050  -11.1315    0.0000 C   0  0  2  0  0  0  0  0  0  0  0  0
    5.5044  -11.9563    0.0000 C   0  0  2  0  0  0  0  0  0  0  0  0
    6.2184  -12.3691    0.0000 O   0  0  0  0  0  0  0  0  0  0  0  0
    6.9329  -11.9573    0.0000 O   0  0  0  0  0  0  0  0  0  0  0  0
   11.2201   -9.4860    0.0000 C   0  0  0  0  0  0  0  0  0  0  0  0
   11.2206   -8.6613    0.0000 C   0  0  0  0  0  0  0  0  0  0  0  0
   10.5067   -8.2484    0.0000 C   0  0  0  0  0  0  0  0  0  0  0  0
    9.7921   -8.6603    0.0000 C   0  0  0  0  0  0  0  0  0  0  0  0
   10.5055   -9.8979    0.0000 C   0  0  0  0  0  0  0  0  0  0  0  0
    9.7916   -9.4850    0.0000 C   0  0  0  0  0  0  0  0  0  0  0  0
    8.3620  -11.1335    0.0000 C   0  0  0  0  0  0  0  0  0  0  0  0
    9.0765  -10.7216    0.0000 C   0  0  0  0  0  0  0  0  0  0  0  0
    9.0770   -9.8969    0.0000 C   0  0  0  0  0  0  0  0  0  0  0  0
    8.3631   -9.4840    0.0000 O   0  0  0  0  0  0  0  0  0  0  0  0
    6.9335  -11.1325    0.0000 C   0  0  0  0  0  0  0  0  0  0  0  0
    7.6480  -10.7206    0.0000 C   0  0  0  0  0  0  0  0  0  0  0  0
    7.6486   -9.8959    0.0000 C   0  0  0  0  0  0  0  0  0  0  0  0
    6.9346   -9.4830    0.0000 C   0  0  0  0  0  0  0  0  0  0  0  0
    6.2201   -9.8949    0.0000 C   0  0  0  0  0  0  0  0  0  0  0  0
    6.2195  -10.7197    0.0000 C   0  0  0  0  0  0  0  0  0  0  0  0
    5.0681   -7.3628    0.0000 C   0  0  2  0  0  0  0  0  0  0  0  0
    4.2435   -7.3780    0.0000 C   0  0  2  0  0  0  0  0  0  0  0  0
    3.8444   -8.0997    0.0000 C   0  0  1  0  0  0  0  0  0  0  0  0
    4.2699   -8.8062    0.0000 C   0  0  2  0  0  0  0  0  0  0  0  0
    5.0945   -8.7910    0.0000 C   0  0  1  0  0  0  0  0  0  0  0  0
    5.4936   -8.0693    0.0000 O   0  0  0  0  0  0  0  0  0  0  0  0
    5.5200   -9.4975    0.0000 O   0  0  0  0  0  0  0  0  0  0  0  0
    3.0198   -8.1149    0.0000 O   0  0  0  0  0  0  0  0  0  0  0  0
    3.8708   -9.5280    0.0000 O   0  0  0  0  0  0  0  0  0  0  0  0
    3.8181   -6.6715    0.0000 O   0  0  0  0  0  0  0  0  0  0  0  0
   11.1872   -3.6933    0.0000 C   0  0  0  0  0  0  0  0  0  0  0  0
   10.3622   -3.6933    0.0000 O   0  0  0  0  0  0  0  0  0  0  0  0
   11.2131   -5.1063    0.0000 O   0  0  0  0  0  0  0  0  0  0  0  0
    9.1648   -5.8585    0.0000 C   0  0  0  0  0  0  0  0  0  0  0  0
    9.9894   -5.8432    0.0000 C   0  0  0  0  0  0  0  0  0  0  0  0
   10.3885   -5.1215    0.0000 C   0  0  0  0  0  0  0  0  0  0  0  0
    9.9630   -4.4150    0.0000 C   0  0  0  0  0  0  0  0  0  0  0  0
    9.1384   -4.4302    0.0000 C   0  0  0  0  0  0  0  0  0  0  0  0
    8.7393   -5.1519    0.0000 C   0  0  0  0  0  0  0  0  0  0  0  0
    7.9147   -5.1672    0.0000 C   0  0  0  0  0  0  0  0  0  0  0  0
    6.2655   -5.1976    0.0000 O   0  0  0  0  0  0  0  0  0  0  0  0
    7.5156   -5.8889    0.0000 C   0  0  0  0  0  0  0  0  0  0  0  0
    6.6910   -5.9041    0.0000 C   0  0  0  0  0  0  0  0  0  0  0  0
    6.2919   -6.6258    0.0000 O   0  0  0  0  0  0  0  0  0  0  0  0
    5.4673   -6.6410    0.0000 C   0  0  0  0  0  0  0  0  0  0  0  0
 31 39  1  0  0  0  0
 12  1  1  1  0  0  0
 13  2  1  6  0  0  0
 11  3  1  6  0  0  0
  5  4  1  0  0  0  0
 10  5  1  1  0  0  0
 23  6  2  0  0  0  0
  8  7  1  0  0  0  0
 18  8  1  0  0  0  0
  9 13  1  0  0  0  0
 10  9  1  0  0  0  0
 11 10  1  0  0  0  0
 12 11  1  0  0  0  0
 14 12  1  0  0  0  0
 13 32  1  0  0  0  0
 14 13  1  0  0  0  0
 14 15  1  6  0  0  0
 27 16  1  0  0  0  0
 17 21  2  0  0  0  0
 18 17  1  0  0  0  0
 19 18  2  0  0  0  0
 20 19  1  0  0  0  0
 22 20  2  0  0  0  0
 22 21  1  0  0  0  0
 25 22  1  0  0  0  0
 23 28  1  0  0  0  0
 24 23  1  0  0  0  0
 25 24  2  0  0  0  0
 26 25  1  0  0  0  0
 29 26  1  0  0  0  0
 27 32  1  0  0  0  0
 28 27  2  0  0  0  0
 29 28  1  0  0  0  0
 30 29  2  0  0  0  0
 31 30  1  0  0  0  0
 32 31  2  0  0  0  0
 33 34  1  0  0  0  0
 34 35  1  0  0  0  0
 35 36  1  0  0  0  0
 36 37  1  0  0  0  0
 37 38  1  0  0  0  0
 38 33  1  0  0  0  0
 37 39  1  1  0  0  0
 44 43  1  0  0  0  0
 33 57  1  1  0  0  0
 35 40  1  1  0  0  0
 36 41  1  6  0  0  0
 34 42  1  6  0  0  0
 49 44  1  0  0  0  0
 48 45  1  0  0  0  0
 46 51  1  0  0  0  0
 47 46  2  0  0  0  0
 48 47  1  0  0  0  0
 49 48  2  0  0  0  0
 50 49  1  0  0  0  0
 51 50  2  0  0  0  0
 52 51  1  0  0  0  0
 54 52  2  0  0  0  0
 55 53  2  0  0  0  0
 55 54  1  0  0  0  0
 56 55  1  0  0  0  0
 57 56  1  0  0  0  0
M  END
>  <cdx:fragmentId>
68

$$$$
