67297.cdx
  Mrv1902 05222410202D          

 12 12  0  0  0  0            999 V2000
    7.0955   -6.5725    0.0000 C   0  0  0  0  0  0  0  0  0  0  0  0
    7.0955   -7.3975    0.0000 C   0  0  0  0  0  0  0  0  0  0  0  0
    7.8100   -7.8100    0.0000 C   0  0  0  0  0  0  0  0  0  0  0  0
    8.5245   -7.3975    0.0000 C   0  0  0  0  0  0  0  0  0  0  0  0
    8.5245   -6.5725    0.0000 C   0  0  0  0  0  0  0  0  0  0  0  0
    7.8100   -6.1600    0.0000 C   0  0  0  0  0  0  0  0  0  0  0  0
    7.8100   -5.3350    0.0000 C   0  0  0  0  0  0  0  0  0  0  0  0
    9.2389   -6.1600    0.0000 O   0  0  0  0  0  0  0  0  0  0  0  0
    6.3811   -7.8100    0.0000 O   0  0  0  0  0  0  0  0  0  0  0  0
    7.8100   -8.6350    0.0000 C   0  0  0  0  0  0  0  0  0  0  0  0
    8.5245   -9.0475    0.0000 C   0  0  0  0  0  0  0  0  0  0  0  0
    7.0955   -9.0475    0.0000 C   0  0  0  0  0  0  0  0  0  0  0  0
  1  2  2  0  0  0  0
  2  3  1  0  0  0  0
  3  4  2  0  0  0  0
  4  5  1  0  0  0  0
  5  6  2  0  0  0  0
  6  1  1  0  0  0  0
  6  7  1  0  0  0  0
  5  8  1  0  0  0  0
  2  9  1  0  0  0  0
  3 10  1  0  0  0  0
 10 11  1  0  0  0  0
 10 12  1  0  0  0  0
M  END
>  <cdx:fragmentId>
109

$$$$
