67296.cdx
  Mrv1902 05222410202D          

 16 16  0  0  0  0            999 V2000
   11.3580   -7.5127    0.0000 C   0  0  0  0  0  0  0  0  0  0  0  0
   10.6436   -7.1002    0.0000 C   0  0  0  0  0  0  0  0  0  0  0  0
    9.9291   -7.5127    0.0000 C   0  0  0  0  0  0  0  0  0  0  0  0
    9.2146   -7.1002    0.0000 C   0  0  0  0  0  0  0  0  0  0  0  0
    8.5001   -7.5127    0.0000 C   0  0  0  0  0  0  0  0  0  0  0  0
    7.7857   -7.1002    0.0000 C   0  0  0  0  0  0  0  0  0  0  0  0
    7.0712   -7.5127    0.0000 C   0  0  0  0  0  0  0  0  0  0  0  0
    6.3567   -7.1002    0.0000 C   0  0  0  0  0  0  0  0  0  0  0  0
    5.6423   -7.5127    0.0000 C   0  0  0  0  0  0  0  0  0  0  0  0
    5.6423   -5.8627    0.0000 O   0  0  0  0  0  0  0  0  0  0  0  0
    4.2133   -5.8627    0.0000 C   0  0  0  0  0  0  0  0  0  0  0  0
    3.4988   -6.2752    0.0000 C   0  0  0  0  0  0  0  0  0  0  0  0
    3.4988   -7.1002    0.0000 C   0  0  0  0  0  0  0  0  0  0  0  0
    4.2133   -7.5127    0.0000 C   0  0  0  0  0  0  0  0  0  0  0  0
    4.9278   -7.1002    0.0000 C   0  0  0  0  0  0  0  0  0  0  0  0
    4.9278   -6.2752    0.0000 C   0  0  0  0  0  0  0  0  0  0  0  0
 15  9  1  0  0  0  0
  2  1  1  0  0  0  0
  3  2  1  0  0  0  0
  4  3  1  0  0  0  0
  5  4  1  0  0  0  0
  6  5  1  0  0  0  0
  7  6  1  0  0  0  0
  8  7  1  0  0  0  0
  9  8  1  0  0  0  0
 16 10  1  0  0  0  0
 16 11  2  0  0  0  0
 12 11  1  0  0  0  0
 13 12  2  0  0  0  0
 14 13  1  0  0  0  0
 15 14  2  0  0  0  0
 16 15  1  0  0  0  0
M  END
>  <cdx:fragmentId>
54

$$$$
