673.cdx
  Mrv1902 05222410192D          

  7  6  0  0  0  0            999 V2000
    7.7934   -4.6964    0.0000 C   0  0  0  0  0  0  0  0  0  0  0  0
    7.0789   -5.1089    0.0000 C   0  0  0  0  0  0  0  0  0  0  0  0
    7.7934   -3.8714    0.0000 O   0  0  0  0  0  0  0  0  0  0  0  0
    8.5078   -5.1089    0.0000 O   0  0  0  0  0  0  0  0  0  0  0  0
    6.3644   -4.6964    0.0000 N   0  0  0  0  0  0  0  0  0  0  0  0
    5.6499   -5.1089    0.0000 C   0  0  0  0  0  0  0  0  0  0  0  0
    6.3644   -3.8714    0.0000 C   0  0  0  0  0  0  0  0  0  0  0  0
  1  2  1  0  0  0  0
  1  3  2  0  0  0  0
  1  4  1  0  0  0  0
  5  6  1  0  0  0  0
  5  7  1  0  0  0  0
  2  5  1  0  0  0  0
M  END
>  <cdx:fragmentId>
5

$$$$
