67330.cdx
  Mrv1902 05222410182D          

 20 19  0  0  0  0            999 V2000
    8.3745   -3.5346    0.0000 C   0  0  0  0  0  0  0  0  0  0  0  0
    7.6600   -3.9471    0.0000 C   0  0  0  0  0  0  0  0  0  0  0  0
    6.9455   -3.5346    0.0000 C   0  0  0  0  0  0  0  0  0  0  0  0
    6.2310   -3.9471    0.0000 C   0  0  0  0  0  0  0  0  0  0  0  0
    5.5166   -3.5346    0.0000 C   0  0  0  0  0  0  0  0  0  0  0  0
    4.8021   -3.9471    0.0000 C   0  0  0  0  0  0  0  0  0  0  0  0
    4.0876   -3.5346    0.0000 C   0  0  0  0  0  0  0  0  0  0  0  0
    3.3732   -3.9471    0.0000 C   0  0  0  0  0  0  0  0  0  0  0  0
    2.6587   -3.5346    0.0000 C   0  0  0  0  0  0  0  0  0  0  0  0
    1.9442   -3.9471    0.0000 C   0  0  0  0  0  0  0  0  0  0  0  0
    1.2297   -3.5346    0.0000 C   0  0  0  0  0  0  0  0  0  0  0  0
    0.5153   -3.9471    0.0000 C   0  0  0  0  0  0  0  0  0  0  0  0
    8.3745   -2.7096    0.0000 O   0  0  0  0  0  0  0  0  0  0  0  0
    9.0889   -3.9471    0.0000 O   0  0  0  0  0  0  0  0  0  0  0  0
    9.8034   -3.5346    0.0000 C   0  0  0  0  0  0  0  0  0  0  0  0
   10.5179   -3.9471    0.0000 C   0  0  0  0  0  0  0  0  0  0  0  0
   11.2323   -3.5346    0.0000 O   0  0  0  0  0  0  0  0  0  0  0  0
   11.9468   -3.9471    0.0000 C   0  0  0  0  0  0  0  0  0  0  0  0
   12.6613   -3.5346    0.0000 C   0  0  0  0  0  0  0  0  0  0  0  0
   13.3758   -3.9471    0.0000 O   0  0  0  0  0  0  0  0  0  0  0  0
  1  2  1  0  0  0  0
  2  3  1  0  0  0  0
  3  4  1  0  0  0  0
  4  5  1  0  0  0  0
  5  6  1  0  0  0  0
  6  7  1  0  0  0  0
  7  8  1  0  0  0  0
  8  9  1  0  0  0  0
  9 10  1  0  0  0  0
 10 11  1  0  0  0  0
 11 12  1  0  0  0  0
  1 13  2  0  0  0  0
  1 14  1  0  0  0  0
 15 16  1  0  0  0  0
 18 19  1  0  0  0  0
 17 18  1  0  0  0  0
 19 20  1  0  0  0  0
 16 17  1  0  0  0  0
 14 15  1  0  0  0  0
M  END
>  <cdx:groupId>
61

>  <cdx:fragmentId>
5

$$$$
