6738.cdx
  Mrv1902 05222410192D          

 32 35  0  0  0  0            999 V2000
    5.1939   -9.8931    0.0000 C   0  0  0  0  0  0  0  0  0  0  0  0
    5.1939  -10.7181    0.0000 C   0  0  0  0  0  0  0  0  0  0  0  0
    5.9084  -11.1306    0.0000 C   0  0  0  0  0  0  0  0  0  0  0  0
    6.6228  -10.7181    0.0000 C   0  0  0  0  0  0  0  0  0  0  0  0
    6.6228   -9.8931    0.0000 C   0  0  0  0  0  0  0  0  0  0  0  0
    5.9084   -9.4806    0.0000 C   0  0  0  0  0  0  0  0  0  0  0  0
    7.3373  -11.1306    0.0000 C   0  0  0  0  0  0  0  0  0  0  0  0
    8.0518  -10.7181    0.0000 C   0  0  0  0  0  0  0  0  0  0  0  0
    8.0518   -9.8931    0.0000 C   0  0  0  0  0  0  0  0  0  0  0  0
    7.3373   -9.4806    0.0000 O   0  0  0  0  0  0  0  0  0  0  0  0
    8.7663  -11.1306    0.0000 C   0  0  0  0  0  0  0  0  0  0  0  0
    9.4807  -10.7181    0.0000 C   0  0  0  0  0  0  0  0  0  0  0  0
    9.4807   -9.8931    0.0000 C   0  0  0  0  0  0  0  0  0  0  0  0
    8.7663   -9.4806    0.0000 C   0  0  0  0  0  0  0  0  0  0  0  0
    4.4794   -9.4806    0.0000 O   0  0  0  0  0  0  0  0  0  0  0  0
    5.9084  -11.9556    0.0000 O   0  0  0  0  0  0  0  0  0  0  0  0
    7.3373  -11.9556    0.0000 O   0  0  0  0  0  0  0  0  0  0  0  0
   10.1952  -11.1306    0.0000 O   0  0  0  0  0  0  0  0  0  0  0  0
   10.1952   -9.4806    0.0000 O   0  0  0  0  0  0  0  0  0  0  0  0
    5.5192   -6.3878    0.0000 C   0  0  2  0  0  0  0  0  0  0  0  0
    4.6942   -6.3853    0.0000 C   0  0  2  0  0  0  0  0  0  0  0  0
    4.2795   -7.0985    0.0000 C   0  0  1  0  0  0  0  0  0  0  0  0
    4.6898   -7.8142    0.0000 C   0  0  2  0  0  0  0  0  0  0  0  0
    5.5148   -7.8167    0.0000 C   0  0  1  0  0  0  0  0  0  0  0  0
    5.9295   -7.1035    0.0000 O   0  0  0  0  0  0  0  0  0  0  0  0
    5.9251   -8.5325    0.0000 O   0  0  0  0  0  0  0  0  0  0  0  0
    5.9339   -5.6746    0.0000 C   0  0  0  0  0  0  0  0  0  0  0  0
    3.4545   -7.0959    0.0000 O   0  0  0  0  0  0  0  0  0  0  0  0
    4.2751   -8.5274    0.0000 O   0  0  0  0  0  0  0  0  0  0  0  0
    4.2839   -5.6695    0.0000 O   0  0  0  0  0  0  0  0  0  0  0  0
   10.1952  -11.9556    0.0000 C   0  0  0  0  0  0  0  0  0  0  0  0
    5.5214   -4.9601    0.0000 O   0  0  0  0  0  0  0  0  0  0  0  0
  1  2  2  0  0  0  0
  2  3  1  0  0  0  0
  3  4  2  0  0  0  0
  4  5  1  0  0  0  0
  5  6  2  0  0  0  0
  6  1  1  0  0  0  0
  4  7  1  0  0  0  0
  7  8  1  0  0  0  0
  8  9  2  0  0  0  0
  9 10  1  0  0  0  0
 10  5  1  0  0  0  0
  8 11  1  0  0  0  0
 11 12  2  0  0  0  0
 12 13  1  0  0  0  0
 13 14  2  0  0  0  0
 14  9  1  0  0  0  0
  1 15  1  0  0  0  0
  3 16  1  0  0  0  0
  7 17  2  0  0  0  0
 12 18  1  0  0  0  0
 13 19  1  0  0  0  0
 20 21  1  0  0  0  0
 21 22  1  0  0  0  0
 22 23  1  0  0  0  0
 23 24  1  0  0  0  0
 24 25  1  0  0  0  0
 25 20  1  0  0  0  0
 24 26  1  1  0  0  0
 20 27  1  1  0  0  0
 22 28  1  1  0  0  0
 23 29  1  6  0  0  0
 21 30  1  6  0  0  0
  6 26  1  0  0  0  0
 18 31  1  0  0  0  0
 27 32  1  0  0  0  0
M  END
>  <cdx:fragmentId>
5

$$$$
