674147.cdx
  Mrv1902 05222410282D          

 23 23  0  0  0  0            999 V2000
   12.0543   -8.9035    0.0000 O   0  0  0  0  0  0  0  0  0  0  0  0
   12.7688   -7.6660    0.0000 C   0  0  0  0  0  0  0  0  0  0  0  0
   12.0543   -7.2535    0.0000 O   0  0  0  0  0  0  0  0  0  0  0  0
    9.9109   -8.4910    0.0000 C   0  0  0  0  0  0  0  0  0  0  0  0
   10.6254   -8.9035    0.0000 C   0  0  0  0  0  0  0  0  0  0  0  0
   11.3399   -8.4910    0.0000 C   0  0  0  0  0  0  0  0  0  0  0  0
   11.3399   -7.6660    0.0000 C   0  0  0  0  0  0  0  0  0  0  0  0
   10.6254   -7.2535    0.0000 C   0  0  0  0  0  0  0  0  0  0  0  0
    9.9109   -7.6660    0.0000 C   0  0  0  0  0  0  0  0  0  0  0  0
    9.1965   -7.2535    0.0000 C   0  0  0  0  0  0  0  0  0  0  0  0
    2.7662   -8.4910    0.0000 C   0  0  0  0  0  0  0  0  0  0  0  0
    8.4820   -7.6660    0.0000 N   0  0  0  0  0  0  0  0  0  0  0  0
    7.7675   -6.4285    0.0000 O   0  0  0  0  0  0  0  0  0  0  0  0
    1.3373   -7.6660    0.0000 C   0  0  0  0  0  0  0  0  0  0  0  0
    2.0517   -7.2535    0.0000 C   0  0  0  0  0  0  0  0  0  0  0  0
    2.7662   -7.6660    0.0000 C   0  0  0  0  0  0  0  0  0  0  0  0
    3.4807   -7.2535    0.0000 C   0  0  0  0  0  0  0  0  0  0  0  0
    4.1952   -7.6660    0.0000 C   0  0  0  0  0  0  0  0  0  0  0  0
    4.9096   -7.2535    0.0000 C   0  0  0  0  0  0  0  0  0  0  0  0
    5.6241   -7.6660    0.0000 C   0  0  0  0  0  0  0  0  0  0  0  0
    6.3386   -7.2535    0.0000 C   0  0  0  0  0  0  0  0  0  0  0  0
    7.0530   -7.6660    0.0000 C   0  0  0  0  0  0  0  0  0  0  0  0
    7.7675   -7.2535    0.0000 C   0  0  0  0  0  0  0  0  0  0  0  0
 12 10  1  0  0  0  0
 10  9  1  0  0  0  0
  6  1  1  0  0  0  0
  7  3  1  0  0  0  0
  3  2  1  0  0  0  0
  9  4  2  0  0  0  0
  5  4  1  0  0  0  0
  6  5  2  0  0  0  0
  7  6  1  0  0  0  0
  8  7  2  0  0  0  0
  9  8  1  0  0  0  0
 16 11  1  0  0  0  0
 23 12  1  0  0  0  0
 23 13  2  0  0  0  0
 15 14  1  0  0  0  0
 16 15  1  0  0  0  0
 17 16  1  0  0  0  0
 18 17  2  0  0  0  0
 19 18  1  0  0  0  0
 20 19  1  0  0  0  0
 21 20  1  0  0  0  0
 22 21  1  0  0  0  0
 23 22  1  0  0  0  0
M  END
>  <cdx:fragmentId>
78787

$$$$
