6741.cdx
  Mrv1902 05222410252D          

 27 29  0  0  0  0            999 V2000
    6.8421   -9.5150    0.0000 O   0  0  0  0  0  0  0  0  0  0  0  0
    7.5565   -9.1025    0.0000 C   0  0  0  0  0  0  0  0  0  0  0  0
    7.5565   -8.2775    0.0000 C   0  0  0  0  0  0  0  0  0  0  0  0
    8.2710   -7.8650    0.0000 C   0  0  0  0  0  0  0  0  0  0  0  0
    8.2710   -7.0400    0.0000 C   0  0  0  0  0  0  0  0  0  0  0  0
    8.9855   -8.2775    0.0000 C   0  0  0  0  0  0  0  0  0  0  0  0
    8.9855   -6.6275    0.0000 C   0  0  0  0  0  0  0  0  0  0  0  0
    8.9855   -5.8025    0.0000 C   0  0  0  0  0  0  0  0  0  0  0  0
    9.6999   -5.3900    0.0000 C   0  0  0  0  0  0  0  0  0  0  0  0
    9.2874   -4.6755    0.0000 C   0  0  0  0  0  0  0  0  0  0  0  0
   10.1124   -6.1045    0.0000 C   0  0  0  0  0  0  0  0  0  0  0  0
   10.4144   -4.9775    0.0000 O   0  0  0  0  0  0  0  0  0  0  0  0
    9.7000  -11.9900    0.0000 O   0  0  0  0  0  0  0  0  0  0  0  0
    5.3430  -10.4976    0.0000 C   0  0  0  0  0  0  0  0  0  0  0  0
    4.8581  -11.1650    0.0000 C   0  0  0  0  0  0  0  0  0  0  0  0
    5.3430  -11.8324    0.0000 O   0  0  0  0  0  0  0  0  0  0  0  0
    6.8421  -10.3400    0.0000 C   0  0  0  0  0  0  0  0  0  0  0  0
    6.1276  -10.7525    0.0000 C   0  0  0  0  0  0  0  0  0  0  0  0
    6.1276  -11.5775    0.0000 C   0  0  0  0  0  0  0  0  0  0  0  0
    6.8421  -11.9900    0.0000 C   0  0  0  0  0  0  0  0  0  0  0  0
    8.2710  -10.3400    0.0000 C   0  0  0  0  0  0  0  0  0  0  0  0
    7.5565  -10.7525    0.0000 C   0  0  0  0  0  0  0  0  0  0  0  0
    7.5565  -11.5775    0.0000 C   0  0  0  0  0  0  0  0  0  0  0  0
    8.2710  -11.9900    0.0000 O   0  0  0  0  0  0  0  0  0  0  0  0
    8.9855  -11.5775    0.0000 C   0  0  0  0  0  0  0  0  0  0  0  0
    8.9855  -10.7525    0.0000 C   0  0  0  0  0  0  0  0  0  0  0  0
   11.1289   -5.3900    0.0000 C   0  0  0  0  0  0  0  0  0  0  0  0
  1  2  1  0  0  0  0
  2  3  1  0  0  0  0
  3  4  2  0  0  0  0
  4  5  1  0  0  0  0
  4  6  1  0  0  0  0
  5  7  1  0  0  0  0
  7  8  2  0  0  0  0
  8  9  1  0  0  0  0
  9 10  1  0  0  0  0
  9 11  1  0  0  0  0
 17  1  1  0  0  0  0
  9 12  1  0  0  0  0
 25 13  2  0  0  0  0
 14 18  1  0  0  0  0
 15 14  2  0  0  0  0
 16 15  1  0  0  0  0
 19 16  1  0  0  0  0
 17 22  2  0  0  0  0
 18 17  1  0  0  0  0
 19 18  2  0  0  0  0
 20 19  1  0  0  0  0
 23 20  2  0  0  0  0
 21 26  2  0  0  0  0
 22 21  1  0  0  0  0
 23 22  1  0  0  0  0
 24 23  1  0  0  0  0
 25 24  1  0  0  0  0
 26 25  1  0  0  0  0
 12 27  1  0  0  0  0
M  END
>  <cdx:fragmentId>
5

$$$$
