674425.cdx
  Mrv1902 05222410272D          

 10  9  0  0  0  0            999 V2000
    8.4967   -6.4344    0.0000 C   0  0  0  0  0  0  0  0  0  0  0  0
    7.7822   -6.8469    0.0000 C   0  0  0  0  0  0  0  0  0  0  0  0
    7.7822   -7.6719    0.0000 C   0  0  0  0  0  0  0  0  0  0  0  0
    8.4967   -5.6094    0.0000 O   0  0  0  0  0  0  0  0  0  0  0  0
    9.2112   -6.8469    0.0000 O   0  0  0  0  0  0  0  0  0  0  0  0
    7.0678   -6.4344    0.0000 O   0  0  0  0  0  0  0  0  0  0  0  0
    6.3533   -6.8469    0.0000 P   0  0  0  0  0  0  0  0  0  0  0  0
    6.7658   -7.5614    0.0000 O   0  0  0  0  0  0  0  0  0  0  0  0
    5.9408   -6.1325    0.0000 O   0  0  0  0  0  0  0  0  0  0  0  0
    5.6388   -7.2594    0.0000 O   0  0  0  0  0  0  0  0  0  0  0  0
  1  2  1  0  0  0  0
  2  3  2  0  0  0  0
  1  4  2  0  0  0  0
  1  5  1  0  0  0  0
  7  8  2  0  0  0  0
  7  9  1  0  0  0  0
  7 10  1  0  0  0  0
  6  7  1  0  0  0  0
  2  6  1  0  0  0  0
M  END
>  <cdx:fragmentId>
17

$$$$
