675.cdx
  Mrv1902 05222410182D          

 11 12  0  0  0  0            999 V2000
    8.5035   -2.4816    0.0000 C   0  0  0  0  0  0  0  0  0  0  0  0
    8.0186   -3.1490    0.0000 N   0  0  0  0  0  0  0  0  0  0  0  0
    7.2340   -2.8941    0.0000 C   0  0  0  0  0  0  0  0  0  0  0  0
    7.2340   -2.0691    0.0000 C   0  0  0  0  0  0  0  0  0  0  0  0
    8.0186   -1.8141    0.0000 N   0  0  0  0  0  0  0  0  0  0  0  0
    6.5195   -3.3066    0.0000 C   0  0  0  0  0  0  0  0  0  0  0  0
    5.8051   -2.8941    0.0000 C   0  0  0  0  0  0  0  0  0  0  0  0
    5.8051   -2.0691    0.0000 C   0  0  0  0  0  0  0  0  0  0  0  0
    6.5195   -1.6566    0.0000 C   0  0  0  0  0  0  0  0  0  0  0  0
    5.0906   -1.6566    0.0000 C   0  0  0  0  0  0  0  0  0  0  0  0
    5.0906   -3.3066    0.0000 C   0  0  0  0  0  0  0  0  0  0  0  0
  1  2  2  0  0  0  0
  2  3  1  0  0  0  0
  3  4  1  0  0  0  0
  4  5  1  0  0  0  0
  1  5  1  0  0  0  0
  6  7  1  0  0  0  0
  7  8  2  0  0  0  0
  8  9  1  0  0  0  0
  9  4  2  0  0  0  0
  6  3  2  0  0  0  0
  8 10  1  0  0  0  0
  7 11  1  0  0  0  0
M  END
>  <cdx:groupId>
36

>  <cdx:fragmentId>
5

$$$$
