67526.cdx
  Mrv1902 05222410202D          

 16 16  0  0  0  0            999 V2000
    7.0068   -5.2181    0.0000 C   0  0  0  0  0  0  0  0  0  0  0  0
    6.2923   -5.6306    0.0000 C   0  0  0  0  0  0  0  0  0  0  0  0
    5.5778   -5.2181    0.0000 C   0  0  0  0  0  0  0  0  0  0  0  0
    4.8634   -5.6306    0.0000 C   0  0  0  0  0  0  0  0  0  0  0  0
    4.1489   -5.2181    0.0000 C   0  0  0  0  0  0  0  0  0  0  0  0
    3.4344   -5.6306    0.0000 C   0  0  0  0  0  0  0  0  0  0  0  0
    2.7200   -5.2181    0.0000 C   0  0  0  0  0  0  0  0  0  0  0  0
    2.7200   -4.3931    0.0000 C   0  0  0  0  0  0  0  0  0  0  0  0
    3.4344   -3.9806    0.0000 C   0  0  0  0  0  0  0  0  0  0  0  0
    3.4344   -3.1556    0.0000 C   0  0  0  0  0  0  0  0  0  0  0  0
    4.1489   -2.7431    0.0000 C   0  0  0  0  0  0  0  0  0  0  0  0
    4.8634   -3.1556    0.0000 C   0  0  0  0  0  0  0  0  0  0  0  0
    5.5778   -2.7431    0.0000 C   0  0  0  0  0  0  0  0  0  0  0  0
    6.2923   -3.1556    0.0000 C   0  0  0  0  0  0  0  0  0  0  0  0
    6.2923   -3.9806    0.0000 C   0  0  0  0  0  0  0  0  0  0  0  0
    7.0068   -4.3931    0.0000 C   0  0  0  0  0  0  0  0  0  0  0  0
  1  2  1  0  0  0  0
  2  3  1  0  0  0  0
  3  4  1  0  0  0  0
  4  5  1  0  0  0  0
  5  6  1  0  0  0  0
  6  7  1  0  0  0  0
  7  8  1  0  0  0  0
  8  9  1  0  0  0  0
  9 10  1  0  0  0  0
 10 11  1  0  0  0  0
 11 12  1  0  0  0  0
 12 13  1  0  0  0  0
 13 14  1  0  0  0  0
 14 15  1  0  0  0  0
 15 16  1  0  0  0  0
  1 16  1  0  0  0  0
M  END
>  <cdx:groupId>
50

>  <cdx:fragmentId>
5

$$$$
