67524.cdx
  Mrv1902 05222410192D          

 14 14  0  0  0  0            999 V2000
    5.0548   -4.9706    0.0000 C   0  0  0  0  0  0  0  0  0  0  0  0
    4.3403   -5.3831    0.0000 C   0  0  0  0  0  0  0  0  0  0  0  0
    4.3403   -6.2081    0.0000 C   0  0  0  0  0  0  0  0  0  0  0  0
    3.6259   -6.6206    0.0000 C   0  0  0  0  0  0  0  0  0  0  0  0
    2.9114   -6.2081    0.0000 C   0  0  0  0  0  0  0  0  0  0  0  0
    2.9114   -5.3831    0.0000 C   0  0  0  0  0  0  0  0  0  0  0  0
    2.1969   -4.9706    0.0000 C   0  0  0  0  0  0  0  0  0  0  0  0
    2.1969   -4.1456    0.0000 C   0  0  0  0  0  0  0  0  0  0  0  0
    2.9114   -3.7331    0.0000 C   0  0  0  0  0  0  0  0  0  0  0  0
    2.9114   -2.9081    0.0000 C   0  0  0  0  0  0  0  0  0  0  0  0
    3.6259   -2.4956    0.0000 C   0  0  0  0  0  0  0  0  0  0  0  0
    4.3403   -2.9081    0.0000 C   0  0  0  0  0  0  0  0  0  0  0  0
    4.3403   -3.7331    0.0000 C   0  0  0  0  0  0  0  0  0  0  0  0
    5.0548   -4.1456    0.0000 C   0  0  0  0  0  0  0  0  0  0  0  0
  1  2  1  0  0  0  0
  2  3  1  0  0  0  0
  3  4  1  0  0  0  0
  4  5  1  0  0  0  0
  5  6  1  0  0  0  0
  6  7  1  0  0  0  0
  7  8  1  0  0  0  0
  8  9  1  0  0  0  0
  9 10  1  0  0  0  0
 10 11  1  0  0  0  0
 11 12  1  0  0  0  0
 12 13  1  0  0  0  0
 13 14  1  0  0  0  0
  1 14  1  0  0  0  0
M  END
>  <cdx:groupId>
44

>  <cdx:fragmentId>
5

$$$$
