6752.cdx
  Mrv1902 05222410242D          

 25 27  0  0  0  0            999 V2000
    7.2679   -8.8566    0.0000 C   0  0  0  0  0  0  0  0  0  0  0  0
    7.2679   -8.0316    0.0000 C   0  0  0  0  0  0  0  0  0  0  0  0
    6.5535   -7.6191    0.0000 C   0  0  0  0  0  0  0  0  0  0  0  0
    5.8390   -8.0316    0.0000 C   0  0  0  0  0  0  0  0  0  0  0  0
    5.8390   -8.8566    0.0000 C   0  0  0  0  0  0  0  0  0  0  0  0
    6.5535   -9.2691    0.0000 C   0  0  0  0  0  0  0  0  0  0  0  0
    5.1245   -7.6191    0.0000 O   0  0  0  0  0  0  0  0  0  0  0  0
    4.4100   -8.0316    0.0000 C   0  0  0  0  0  0  0  0  0  0  0  0
    4.4100   -8.8566    0.0000 C   0  0  0  0  0  0  0  0  0  0  0  0
    5.1245   -9.2691    0.0000 C   0  0  0  0  0  0  0  0  0  0  0  0
    3.6956   -7.6191    0.0000 O   0  0  0  0  0  0  0  0  0  0  0  0
    7.9824   -7.6191    0.0000 O   0  0  0  0  0  0  0  0  0  0  0  0
    7.9824   -9.2691    0.0000 O   0  0  0  0  0  0  0  0  0  0  0  0
    7.9824  -10.0941    0.0000 C   0  0  0  0  0  0  0  0  0  0  0  0
    9.4075   -9.2573    0.0000 C   0  0  2  0  0  0  0  0  0  0  0  0
   10.1215   -8.8439    0.0000 C   0  0  1  0  0  0  0  0  0  0  0  0
   10.1205   -8.0189    0.0000 C   0  0  1  0  0  0  0  0  0  0  0  0
    9.4055   -7.6073    0.0000 C   0  0  2  0  0  0  0  0  0  0  0  0
    8.6915   -8.0207    0.0000 C   0  0  1  0  0  0  0  0  0  0  0  0
    8.6925   -8.8457    0.0000 O   0  0  0  0  0  0  0  0  0  0  0  0
    9.4085  -10.0823    0.0000 C   0  0  0  0  0  0  0  0  0  0  0  0
   10.8344   -7.6055    0.0000 O   0  0  0  0  0  0  0  0  0  0  0  0
   10.8365   -9.2555    0.0000 O   0  0  0  0  0  0  0  0  0  0  0  0
    9.4045   -6.7823    0.0000 O   0  0  0  0  0  0  0  0  0  0  0  0
   10.1235  -10.4939    0.0000 O   0  0  0  0  0  0  0  0  0  0  0  0
  1  2  2  0  0  0  0
  2  3  1  0  0  0  0
  3  4  2  0  0  0  0
  4  5  1  0  0  0  0
  5  6  2  0  0  0  0
  6  1  1  0  0  0  0
  4  7  1  0  0  0  0
  7  8  1  0  0  0  0
  8  9  1  0  0  0  0
  9 10  2  0  0  0  0
 10  5  1  0  0  0  0
  8 11  2  0  0  0  0
  2 12  1  0  0  0  0
  1 13  1  0  0  0  0
 13 14  1  0  0  0  0
 15 16  1  0  0  0  0
 16 17  1  0  0  0  0
 17 18  1  0  0  0  0
 18 19  1  0  0  0  0
 19 20  1  0  0  0  0
 20 15  1  0  0  0  0
 15 21  1  1  0  0  0
 17 22  1  1  0  0  0
 16 23  1  1  0  0  0
 18 24  1  6  0  0  0
 21 25  1  0  0  0  0
 19 12  1  1  0  0  0
M  END
>  <cdx:fragmentId>
5

$$$$
