675311.cdx
  Mrv1902 05222410282D          

 26 29  0  0  0  0            999 V2000
    8.5667   -8.6501    0.0000 H   0  0  0  0  0  0  0  0  0  0  0  0
    8.5083   -6.2311    0.0000 H   0  0  0  0  0  0  0  0  0  0  0  0
    8.7899   -5.9414    0.0000 H   0  0  0  0  0  0  0  0  0  0  0  0
    5.8541   -9.4977    0.0000 C   0  0  0  0  0  0  0  0  0  0  0  0
    6.4144   -8.8922    0.0000 O   0  0  0  0  0  0  0  0  0  0  0  0
    4.7183   -8.3362    0.0000 C   0  0  0  0  0  0  0  0  0  0  0  0
    7.7187   -5.9787    0.0000 C   0  0  0  0  0  0  0  0  0  0  0  0
    9.3171   -5.6836    0.0000 C   0  0  0  0  0  0  0  0  0  0  0  0
   10.0752   -5.3583    0.0000 C   0  0  0  0  0  0  0  0  0  0  0  0
   10.6189   -5.9788    0.0000 C   0  0  0  0  0  0  0  0  0  0  0  0
   10.1968   -6.6876    0.0000 N   0  0  0  0  0  0  0  0  0  0  0  0
   10.5558   -7.4304    0.0000 C   0  0  0  0  0  0  0  0  0  0  0  0
   10.1990   -8.1742    0.0000 C   0  0  0  0  0  0  0  0  0  0  0  0
    9.3949   -8.3590    0.0000 C   0  0  0  0  0  0  0  0  0  0  0  0
    8.7491   -7.8455    0.0000 C   0  0  1  0  0  0  0  0  0  0  0  0
    7.9649   -8.1016    0.0000 O   0  0  0  0  0  0  0  0  0  0  0  0
    7.4790   -7.4348    0.0000 C   0  0  0  0  0  0  0  0  0  0  0  0
    7.9630   -6.7667    0.0000 C   0  0  2  0  0  0  0  0  0  0  0  0
    8.7480   -7.0205    0.0000 C   0  0  2  0  0  0  0  0  0  0  0  0
    9.3922   -6.5052    0.0000 C   0  0  2  0  0  0  0  0  0  0  0  0
    4.7157   -6.5414    0.0000 O   0  0  0  0  0  0  0  0  0  0  0  0
    6.6540   -7.4360    0.0000 C   0  0  0  0  0  0  0  0  0  0  0  0
    6.1701   -8.1042    0.0000 C   0  0  0  0  0  0  0  0  0  0  0  0
    5.3851   -7.8503    0.0000 C   0  0  0  0  0  0  0  0  0  0  0  0
    5.3839   -7.0253    0.0000 C   0  0  0  0  0  0  0  0  0  0  0  0
    6.1681   -6.7693    0.0000 O   0  0  0  0  0  0  0  0  0  0  0  0
 15  1  1  6  0  0  0
 19  2  1  1  0  0  0
 20  3  1  1  0  0  0
 23  5  1  0  0  0  0
  5  4  1  0  0  0  0
 24  6  1  0  0  0  0
 22 17  2  0  0  0  0
 18  7  1  1  0  0  0
 19 15  1  0  0  0  0
 20 11  1  0  0  0  0
 20  8  1  0  0  0  0
  9  8  1  0  0  0  0
 10  9  1  0  0  0  0
 11 10  1  0  0  0  0
 12 11  1  0  0  0  0
 13 12  1  0  0  0  0
 14 13  1  0  0  0  0
 15 14  1  0  0  0  0
 16 15  1  0  0  0  0
 17 16  1  0  0  0  0
 18 17  1  0  0  0  0
 19 18  1  0  0  0  0
 20 19  1  0  0  0  0
 25 21  2  0  0  0  0
 26 22  1  0  0  0  0
 23 22  1  0  0  0  0
 24 23  2  0  0  0  0
 25 24  1  0  0  0  0
 26 25  1  0  0  0  0
M  END
>  <cdx:fragmentId>
260881

$$$$
