54675850.cdx
  Mrv1902 05222410272D          

 10 10  0  0  0  0            999 V2000
    7.2790   -7.4657    0.0000 C   0  0  0  0  0  0  0  0  0  0  0  0
    7.2790   -6.6407    0.0000 C   0  0  0  0  0  0  0  0  0  0  0  0
    6.5645   -6.2282    0.0000 C   0  0  0  0  0  0  0  0  0  0  0  0
    5.8500   -6.6407    0.0000 C   0  0  0  0  0  0  0  0  0  0  0  0
    5.8500   -7.4657    0.0000 C   0  0  0  0  0  0  0  0  0  0  0  0
    6.5645   -7.8782    0.0000 C   0  0  0  0  0  0  0  0  0  0  0  0
    7.9934   -7.8782    0.0000 O   0  5  0  0  0  0  0  0  0  0  0  0
    7.9934   -6.2282    0.0000 C   0  0  0  0  0  0  0  0  0  0  0  0
    7.9934   -5.4032    0.0000 O   0  0  0  0  0  0  0  0  0  0  0  0
    8.7079   -6.6407    0.0000 O   0  0  0  0  0  0  0  0  0  0  0  0
  1  2  1  0  0  0  0
  2  3  2  0  0  0  0
  3  4  1  0  0  0  0
  4  5  2  0  0  0  0
  5  6  1  0  0  0  0
  1  6  2  0  0  0  0
  1  7  1  0  0  0  0
  8  9  2  0  0  0  0
  8 10  1  0  0  0  0
  2  8  1  0  0  0  0
M  CHG  1   7  -1
M  END
>  <cdx:groupId>
32

>  <cdx:fragmentId>
5

$$$$
