131676079.cdx
  Mrv1902 05222410232D          

 22 25  0  0  0  0            999 V2000
   13.5418   -9.0250    0.0000 C   0  0  2  0  0  0  0  0  0  0  0  0
   12.8273   -9.4375    0.0000 C   0  0  0  0  0  0  0  0  0  0  0  0
   12.1128   -9.0250    0.0000 C   0  0  0  0  0  0  0  0  0  0  0  0
   11.3984   -9.4375    0.0000 C   0  0  0  0  0  0  0  0  0  0  0  0
   11.3984  -10.2625    0.0000 C   0  0  0  0  0  0  0  0  0  0  0  0
   12.1128  -10.6750    0.0000 C   0  0  0  0  0  0  0  0  0  0  0  0
   12.8273  -10.2625    0.0000 N   0  0  0  0  0  0  0  0  0  0  0  0
   13.5418  -10.6750    0.0000 C   0  0  0  0  0  0  0  0  0  0  0  0
   14.2563  -10.2625    0.0000 C   0  0  1  0  0  0  0  0  0  0  0  0
   14.9449   -9.8468    0.0000 C   0  0  1  0  0  0  0  0  0  0  0  0
   15.6440  -10.2446    0.0000 C   0  0  0  0  0  0  0  0  0  0  0  0
   16.3381   -9.8381    0.0000 C   0  0  2  0  0  0  0  0  0  0  0  0
   16.3331   -9.0337    0.0000 C   0  0  0  0  0  0  0  0  0  0  0  0
   15.6340   -8.6359    0.0000 C   0  0  0  0  0  0  0  0  0  0  0  0
   14.9399   -9.0424    0.0000 N   0  0  0  0  0  0  0  0  0  0  0  0
   14.2458   -8.6359    0.0000 C   0  0  0  0  0  0  0  0  0  0  0  0
   14.2563   -9.4375    0.0000 C   0  0  0  0  0  0  0  0  0  0  0  0
   12.1128  -11.5000    0.0000 O   0  0  0  0  0  0  0  0  0  0  0  0
   17.0525  -10.2506    0.0000 O   0  0  0  0  0  0  0  0  0  0  0  0
   13.1293   -8.3105    0.0000 H   0  0  0  0  0  0  0  0  0  0  0  0
   14.6688  -10.9770    0.0000 H   0  0  0  0  0  0  0  0  0  0  0  0
   14.9449  -10.6718    0.0000 H   0  0  0  0  0  0  0  0  0  0  0  0
  1  2  1  0  0  0  0
  2  3  2  0  0  0  0
  3  4  1  0  0  0  0
  4  5  2  0  0  0  0
  5  6  1  0  0  0  0
  6  7  1  0  0  0  0
  7  8  1  0  0  0  0
  8  9  1  0  0  0  0
  9 10  1  0  0  0  0
 10 11  1  0  0  0  0
 11 12  1  0  0  0  0
 12 13  1  0  0  0  0
 13 14  1  0  0  0  0
 14 15  1  0  0  0  0
 15 16  1  0  0  0  0
  1 16  1  0  0  0  0
  1 17  1  1  0  0  0
  9 17  1  1  0  0  0
 10 15  1  0  0  0  0
  2  7  1  0  0  0  0
  6 18  2  0  0  0  0
 12 19  1  6  0  0  0
  1 20  1  0  0  0  0
  9 21  1  0  0  0  0
 10 22  1  1  0  0  0
M  END
>  <cdx:groupId>
58285

>  <cdx:fragmentId>
58219

$$$$
