676000.cdx
  Mrv1902 05222410202D          

 39 40  0  0  0  0            999 V2000
    5.5899   -4.9989    0.0000 O   0  0  0  0  0  0  0  0  0  0  0  0
    8.4478   -7.4739    0.0000 O   0  0  0  0  0  0  0  0  0  0  0  0
   13.4491  -10.3614    0.0000 C   0  0  0  0  0  0  0  0  0  0  0  0
   12.7346   -9.9489    0.0000 C   0  0  0  0  0  0  0  0  0  0  0  0
   12.0202  -10.3614    0.0000 C   0  0  0  0  0  0  0  0  0  0  0  0
   11.3057   -9.9489    0.0000 C   0  0  0  0  0  0  0  0  0  0  0  0
   10.5912   -9.5364    0.0000 C   0  0  0  0  0  0  0  0  0  0  0  0
    9.8767   -9.1239    0.0000 C   0  0  0  0  0  0  0  0  0  0  0  0
    9.1623   -8.7114    0.0000 C   0  0  0  0  0  0  0  0  0  0  0  0
    8.4478   -8.2989    0.0000 C   0  0  0  0  0  0  0  0  0  0  0  0
    7.7333   -8.7114    0.0000 C   0  0  0  0  0  0  0  0  0  0  0  0
    7.0189   -8.2989    0.0000 C   0  0  0  0  0  0  0  0  0  0  0  0
    7.0189   -7.4739    0.0000 C   0  0  0  0  0  0  0  0  0  0  0  0
    6.3044   -7.0614    0.0000 C   0  0  0  0  0  0  0  0  0  0  0  0
    6.3044   -6.2364    0.0000 C   0  0  0  0  0  0  0  0  0  0  0  0
    5.5899   -5.8239    0.0000 C   0  0  0  0  0  0  0  0  0  0  0  0
    7.7333   -9.5364    0.0000 O   0  0  0  0  0  0  0  0  0  0  0  0
    4.8754  -11.1864    0.0000 O   0  0  0  0  0  0  0  0  0  0  0  0
    6.3044  -12.0114    0.0000 O   0  0  0  0  0  0  0  0  0  0  0  0
    7.7333  -11.1864    0.0000 O   0  0  0  0  0  0  0  0  0  0  0  0
    7.0189   -9.9489    0.0000 C   0  0  1  0  0  0  0  0  0  0  0  0
    7.0189  -10.7739    0.0000 C   0  0  1  0  0  0  0  0  0  0  0  0
    6.3044  -11.1864    0.0000 C   0  0  2  0  0  0  0  0  0  0  0  0
    5.5899  -10.7739    0.0000 C   0  0  1  0  0  0  0  0  0  0  0  0
    5.5899   -9.9489    0.0000 C   0  0  2  0  0  0  0  0  0  0  0  0
    6.3044   -9.5364    0.0000 O   0  0  0  0  0  0  0  0  0  0  0  0
    4.8754   -9.5364    0.0000 C   0  0  0  0  0  0  0  0  0  0  0  0
    4.1610   -9.9489    0.0000 O   0  0  0  0  0  0  0  0  0  0  0  0
    2.0176   -7.0614    0.0000 O   0  0  0  0  0  0  0  0  0  0  0  0
    2.7320   -7.4739    0.0000 C   0  0  0  0  0  0  0  0  0  0  0  0
    1.3031   -8.2989    0.0000 O   0  0  0  0  0  0  0  0  0  0  0  0
    1.3031   -9.9489    0.0000 O   0  0  0  0  0  0  0  0  0  0  0  0
    2.7320  -10.7739    0.0000 O   0  0  0  0  0  0  0  0  0  0  0  0
    2.7320   -8.2989    0.0000 C   0  0  2  0  0  0  0  0  0  0  0  0
    2.0176   -8.7114    0.0000 C   0  0  2  0  0  0  0  0  0  0  0  0
    2.0176   -9.5364    0.0000 C   0  0  1  0  0  0  0  0  0  0  0  0
    2.7320   -9.9489    0.0000 C   0  0  2  0  0  0  0  0  0  0  0  0
    3.4465   -9.5364    0.0000 C   0  0  1  0  0  0  0  0  0  0  0  0
    3.4465   -8.7114    0.0000 O   0  0  0  0  0  0  0  0  0  0  0  0
 38 28  1  1  0  0  0
 25 27  1  1  0  0  0
 21 17  1  1  0  0  0
 17 11  1  0  0  0  0
 16  1  1  0  0  0  0
 10  2  1  0  0  0  0
  4  3  1  0  0  0  0
  5  4  2  0  0  0  0
  6  5  1  0  0  0  0
  7  6  3  0  0  0  0
  8  7  1  0  0  0  0
  9  8  3  0  0  0  0
 10  9  1  0  0  0  0
 11 10  1  0  0  0  0
 12 11  1  0  0  0  0
 13 12  2  0  0  0  0
 14 13  1  0  0  0  0
 15 14  1  0  0  0  0
 16 15  1  0  0  0  0
 24 18  1  6  0  0  0
 23 19  1  1  0  0  0
 22 20  1  6  0  0  0
 26 21  1  0  0  0  0
 22 21  1  0  0  0  0
 23 22  1  0  0  0  0
 24 23  1  0  0  0  0
 25 24  1  0  0  0  0
 26 25  1  0  0  0  0
 28 27  1  0  0  0  0
 34 30  1  1  0  0  0
 30 29  1  0  0  0  0
 35 31  1  6  0  0  0
 36 32  1  1  0  0  0
 37 33  1  6  0  0  0
 39 34  1  0  0  0  0
 35 34  1  0  0  0  0
 36 35  1  0  0  0  0
 37 36  1  0  0  0  0
 38 37  1  0  0  0  0
 39 38  1  0  0  0  0
M  END
>  <cdx:fragmentId>
57746

$$$$
