6760.cdx
  Mrv1902 05222410232D          

 19 21  0  0  0  0            999 V2000
    8.7516   -2.5418    0.0000 C   0  0  0  0  0  0  0  0  0  0  0  0
    8.0396   -2.9585    0.0000 O   0  0  0  0  0  0  0  0  0  0  0  0
    4.4795   -5.0420    0.0000 C   0  0  0  0  0  0  0  0  0  0  0  0
    5.1964   -5.4503    0.0000 O   0  0  0  0  0  0  0  0  0  0  0  0
    5.9181   -6.6836    0.0000 C   0  0  0  0  0  0  0  0  0  0  0  0
    6.6302   -6.2669    0.0000 O   0  0  0  0  0  0  0  0  0  0  0  0
   10.0333   -4.5968    0.0000 C   0  0  0  0  0  0  0  0  0  0  0  0
    9.5445   -3.9322    0.0000 C   0  0  0  0  0  0  0  0  0  0  0  0
    9.5523   -5.2670    0.0000 O   0  0  0  0  0  0  0  0  0  0  0  0
    7.3373   -5.0252    0.0000 C   0  0  0  0  0  0  0  0  0  0  0  0
    6.6253   -5.4419    0.0000 C   0  0  0  0  0  0  0  0  0  0  0  0
    5.9084   -5.0336    0.0000 C   0  0  0  0  0  0  0  0  0  0  0  0
    5.9035   -4.2086    0.0000 C   0  0  0  0  0  0  0  0  0  0  0  0
    6.6156   -3.7919    0.0000 C   0  0  0  0  0  0  0  0  0  0  0  0
    7.3324   -4.2002    0.0000 C   0  0  0  0  0  0  0  0  0  0  0  0
    8.0445   -3.7835    0.0000 C   0  0  0  0  0  0  0  0  0  0  0  0
    8.7614   -4.1918    0.0000 C   0  0  0  0  0  0  0  0  0  0  0  0
    8.7662   -5.0167    0.0000 C   0  0  0  0  0  0  0  0  0  0  0  0
    8.0542   -5.4335    0.0000 N   0  0  0  0  0  0  0  0  0  0  0  0
 16  2  1  0  0  0  0
  2  1  1  0  0  0  0
 12  4  1  0  0  0  0
  4  3  1  0  0  0  0
 11  6  1  0  0  0  0
  6  5  1  0  0  0  0
  8 17  1  0  0  0  0
  9 18  1  0  0  0  0
  9  7  1  0  0  0  0
  8  7  2  0  0  0  0
 15 10  1  0  0  0  0
 19 10  1  0  0  0  0
 11 10  2  0  0  0  0
 12 11  1  0  0  0  0
 13 12  2  0  0  0  0
 14 13  1  0  0  0  0
 15 14  2  0  0  0  0
 16 15  1  0  0  0  0
 17 16  2  0  0  0  0
 18 17  1  0  0  0  0
 19 18  2  0  0  0  0
M  END
>  <cdx:fragmentId>
5

$$$$
