23676148.cdx
  Mrv1902 05222410192D          

 21 19  0  0  0  0            999 V2000
   13.5710   -5.5280    0.0000 Na  0  3  0  0  0  0  0  0  0  0  0  0
   12.4446   -5.8855    0.0000 C   0  0  0  0  0  0  0  0  0  0  0  0
   11.7301   -6.2980    0.0000 C   0  0  0  0  0  0  0  0  0  0  0  0
   11.0157   -5.8855    0.0000 C   0  0  0  0  0  0  0  0  0  0  0  0
   10.3012   -6.2980    0.0000 C   0  0  0  0  0  0  0  0  0  0  0  0
    9.5867   -5.8855    0.0000 C   0  0  0  0  0  0  0  0  0  0  0  0
    8.8722   -6.2980    0.0000 C   0  0  0  0  0  0  0  0  0  0  0  0
    8.1578   -5.8855    0.0000 C   0  0  0  0  0  0  0  0  0  0  0  0
    7.4433   -6.2980    0.0000 C   0  0  0  0  0  0  0  0  0  0  0  0
    6.7288   -5.8855    0.0000 C   0  0  0  0  0  0  0  0  0  0  0  0
    5.9038   -5.8855    0.0000 C   0  0  0  0  0  0  0  0  0  0  0  0
    5.1894   -6.2980    0.0000 C   0  0  0  0  0  0  0  0  0  0  0  0
    4.4749   -5.8855    0.0000 C   0  0  0  0  0  0  0  0  0  0  0  0
    3.7604   -6.2980    0.0000 C   0  0  0  0  0  0  0  0  0  0  0  0
    3.0459   -5.8855    0.0000 C   0  0  0  0  0  0  0  0  0  0  0  0
    2.3315   -6.2980    0.0000 C   0  0  0  0  0  0  0  0  0  0  0  0
    1.6170   -5.8855    0.0000 C   0  0  0  0  0  0  0  0  0  0  0  0
    0.9025   -6.2980    0.0000 C   0  0  0  0  0  0  0  0  0  0  0  0
    0.1881   -5.8855    0.0000 C   0  0  0  0  0  0  0  0  0  0  0  0
   12.4446   -5.0605    0.0000 O   0  0  0  0  0  0  0  0  0  0  0  0
   13.1591   -6.2980    0.0000 O   0  5  0  0  0  0  0  0  0  0  0  0
  2  3  1  0  0  0  0
  3  4  1  0  0  0  0
  4  5  1  0  0  0  0
  5  6  1  0  0  0  0
  6  7  1  0  0  0  0
  7  8  1  0  0  0  0
  8  9  1  0  0  0  0
  9 10  1  0  0  0  0
 10 11  2  0  0  0  0
 11 12  1  0  0  0  0
 12 13  1  0  0  0  0
 13 14  1  0  0  0  0
 14 15  1  0  0  0  0
 15 16  1  0  0  0  0
 16 17  1  0  0  0  0
 17 18  1  0  0  0  0
 18 19  1  0  0  0  0
  2 20  2  0  0  0  0
  2 21  1  0  0  0  0
M  CHG  2   1   1  21  -1
M  END
>  <cdx:groupId>
584

>  <cdx:fragmentId>
528

$$$$
