21676154.cdx
  Mrv1902 05222410272D          

 26 28  0  0  0  0            999 V2000
    7.6255  -14.6514    0.0000 C   0  0  0  0  0  0  0  0  0  0  0  0
    7.6255  -13.8264    0.0000 C   0  0  0  0  0  0  0  0  0  0  0  0
    6.9110  -13.4139    0.0000 C   0  0  0  0  0  0  0  0  0  0  0  0
    6.1965  -13.8264    0.0000 C   0  0  0  0  0  0  0  0  0  0  0  0
    5.4821  -13.4139    0.0000 C   0  0  0  0  0  0  0  0  0  0  0  0
    4.7676  -13.8264    0.0000 C   0  0  0  0  0  0  0  0  0  0  0  0
    4.7676  -14.6514    0.0000 C   0  0  0  0  0  0  0  0  0  0  0  0
    5.4821  -15.0639    0.0000 C   0  0  0  0  0  0  0  0  0  0  0  0
    6.1965  -14.6514    0.0000 C   0  0  0  0  0  0  0  0  0  0  0  0
    6.9110  -15.0639    0.0000 O   0  0  0  0  0  0  0  0  0  0  0  0
    6.9110  -12.5889    0.0000 O   0  0  0  0  0  0  0  0  0  0  0  0
    4.0531  -15.0639    0.0000 O   0  0  0  0  0  0  0  0  0  0  0  0
    3.3387  -14.6514    0.0000 C   0  0  0  0  0  0  0  0  0  0  0  0
    8.3400  -13.4139    0.0000 O   0  0  0  0  0  0  0  0  0  0  0  0
    9.0544  -13.8264    0.0000 C   0  0  0  0  0  0  0  0  0  0  0  0
    5.4821  -12.5889    0.0000 O   0  0  0  0  0  0  0  0  0  0  0  0
    8.3400  -15.0639    0.0000 C   0  0  0  0  0  0  0  0  0  0  0  0
    8.3400  -15.8889    0.0000 C   0  0  0  0  0  0  0  0  0  0  0  0
    9.0544  -16.3014    0.0000 C   0  0  0  0  0  0  0  0  0  0  0  0
    9.7689  -15.8889    0.0000 C   0  0  0  0  0  0  0  0  0  0  0  0
    9.7689  -15.0639    0.0000 C   0  0  0  0  0  0  0  0  0  0  0  0
    9.0544  -14.6514    0.0000 C   0  0  0  0  0  0  0  0  0  0  0  0
   10.4834  -14.6514    0.0000 O   0  0  0  0  0  0  0  0  0  0  0  0
   11.1978  -15.0639    0.0000 C   0  0  0  0  0  0  0  0  0  0  0  0
   10.4834  -16.3014    0.0000 O   0  0  0  0  0  0  0  0  0  0  0  0
    9.0544  -17.1264    0.0000 O   0  0  0  0  0  0  0  0  0  0  0  0
  1  2  2  0  0  0  0
  2  3  1  0  0  0  0
  3  4  1  0  0  0  0
  4  5  1  0  0  0  0
  5  6  2  0  0  0  0
  6  7  1  0  0  0  0
  7  8  2  0  0  0  0
  8  9  1  0  0  0  0
  4  9  2  0  0  0  0
  9 10  1  0  0  0  0
  1 10  1  0  0  0  0
  3 11  2  0  0  0  0
 12 13  1  0  0  0  0
  7 12  1  0  0  0  0
 14 15  1  0  0  0  0
  2 14  1  0  0  0  0
  5 16  1  0  0  0  0
 17 18  1  0  0  0  0
 18 19  2  0  0  0  0
 19 20  1  0  0  0  0
 20 21  2  0  0  0  0
 21 22  1  0  0  0  0
 17 22  2  0  0  0  0
 23 24  1  0  0  0  0
 21 23  1  0  0  0  0
 20 25  1  0  0  0  0
 19 26  1  0  0  0  0
  1 17  1  0  0  0  0
M  END
>  <cdx:groupId>
141136

>  <cdx:fragmentId>
141059

$$$$
