676217.cdx
  Mrv1902 05222410192D          

 40 44  0  0  0  0            999 V2000
    6.1667   -7.1500    0.0000 O   0  0  0  0  0  0  0  0  0  0  0  0
    5.4522   -7.5625    0.0000 C   0  0  2  0  0  0  0  0  0  0  0  0
    4.7377   -7.1500    0.0000 C   0  0  1  0  0  0  0  0  0  0  0  0
    4.7377   -6.3250    0.0000 C   0  0  2  0  0  0  0  0  0  0  0  0
    5.4522   -5.9125    0.0000 C   0  0  1  0  0  0  0  0  0  0  0  0
    6.1667   -6.3250    0.0000 C   0  0  1  0  0  0  0  0  0  0  0  0
    5.4522   -5.0875    0.0000 O   0  0  0  0  0  0  0  0  0  0  0  0
    4.0233   -5.9125    0.0000 O   0  0  0  0  0  0  0  0  0  0  0  0
    4.0233   -7.5625    0.0000 O   0  0  0  0  0  0  0  0  0  0  0  0
    6.8812   -5.9125    0.0000 C   0  0  0  0  0  0  0  0  0  0  0  0
    7.5956   -6.3250    0.0000 O   0  0  0  0  0  0  0  0  0  0  0  0
    8.3963   -5.0921    0.0000 O   0  0  0  0  0  0  0  0  0  0  0  0
    8.3101   -5.9125    0.0000 C   0  0  2  0  0  0  0  0  0  0  0  0
    9.0638   -6.2481    0.0000 C   0  0  1  0  0  0  0  0  0  0  0  0
    9.6158   -5.6350    0.0000 C   0  0  2  0  0  0  0  0  0  0  0  0
    9.2033   -4.9205    0.0000 C   0  0  0  0  0  0  0  0  0  0  0  0
   10.3695   -5.2994    0.0000 C   0  0  0  0  0  0  0  0  0  0  0  0
   11.0369   -5.7844    0.0000 O   0  0  0  0  0  0  0  0  0  0  0  0
   10.2833   -6.1199    0.0000 O   0  0  0  0  0  0  0  0  0  0  0  0
    9.2353   -7.0551    0.0000 O   0  0  0  0  0  0  0  0  0  0  0  0
    6.1667   -7.9750    0.0000 H   0  0  0  0  0  0  0  0  0  0  0  0
    4.0233   -8.3875    0.0000 O   0  0  0  0  0  0  0  0  0  0  0  0
   10.4535  -11.2750    0.0000 O   0  0  0  0  0  0  0  0  0  0  0  0
    9.0246   -9.6250    0.0000 C   0  0  0  0  0  0  0  0  0  0  0  0
    9.7390  -10.0375    0.0000 C   0  0  0  0  0  0  0  0  0  0  0  0
    9.7390  -10.8625    0.0000 C   0  0  0  0  0  0  0  0  0  0  0  0
    9.0246  -11.2750    0.0000 C   0  0  0  0  0  0  0  0  0  0  0  0
    8.3101  -10.8625    0.0000 C   0  0  0  0  0  0  0  0  0  0  0  0
    8.3101  -10.0375    0.0000 C   0  0  0  0  0  0  0  0  0  0  0  0
    6.8812  -10.8625    0.0000 O   0  0  0  0  0  0  0  0  0  0  0  0
    6.8812   -8.3875    0.0000 O   0  0  0  0  0  0  0  0  0  0  0  0
    6.1667   -8.8000    0.0000 C   0  0  0  0  0  0  0  0  0  0  0  0
    5.4522   -8.3875    0.0000 C   0  0  0  0  0  0  0  0  0  0  0  0
    4.7377   -8.8000    0.0000 C   0  0  0  0  0  0  0  0  0  0  0  0
    4.7377   -9.6250    0.0000 C   0  0  0  0  0  0  0  0  0  0  0  0
    5.4522  -10.0375    0.0000 C   0  0  0  0  0  0  0  0  0  0  0  0
    6.1667   -9.6250    0.0000 C   0  0  0  0  0  0  0  0  0  0  0  0
    6.8812  -10.0375    0.0000 C   0  0  0  0  0  0  0  0  0  0  0  0
    7.5956   -9.6250    0.0000 C   0  0  0  0  0  0  0  0  0  0  0  0
    7.5956   -8.8000    0.0000 C   0  0  0  0  0  0  0  0  0  0  0  0
  2 33  1  0  0  0  0
  1  2  1  0  0  0  0
  2  3  1  0  0  0  0
  3  4  1  0  0  0  0
 34 22  1  0  0  0  0
 39 29  1  0  0  0  0
 26 23  1  0  0  0  0
 29 24  2  0  0  0  0
 25 24  1  0  0  0  0
 26 25  2  0  0  0  0
 27 26  1  0  0  0  0
 28 27  2  0  0  0  0
 29 28  1  0  0  0  0
 38 30  2  0  0  0  0
 40 31  1  0  0  0  0
 32 31  1  0  0  0  0
 37 32  2  0  0  0  0
 33 32  1  0  0  0  0
 34 33  2  0  0  0  0
 35 34  1  0  0  0  0
 36 35  2  0  0  0  0
 37 36  1  0  0  0  0
 38 37  1  0  0  0  0
 39 38  1  0  0  0  0
 40 39  2  0  0  0  0
  4  5  1  0  0  0  0
  5  6  1  0  0  0  0
  1  6  1  0  0  0  0
  5  7  1  6  0  0  0
  4  8  1  1  0  0  0
  3  9  1  6  0  0  0
 12 13  1  0  0  0  0
 13 14  1  0  0  0  0
 14 15  1  0  0  0  0
 15 16  1  0  0  0  0
 12 16  1  0  0  0  0
 17 18  1  0  0  0  0
 15 17  1  6  0  0  0
 15 19  1  1  0  0  0
 14 20  1  1  0  0  0
 13 11  1  6  0  0  0
 10 11  1  0  0  0  0
  6 10  1  1  0  0  0
  2 21  1  6  0  0  0
M  END
>  <cdx:fragmentId>
141205

$$$$
