6766.cdx
  Mrv1902 05222410212D          

 31 33  0  0  0  0            999 V2000
    5.6149   -5.8850    0.0000 C   0  0  1  0  0  0  0  0  0  0  0  0
    5.6149   -6.7100    0.0000 O   0  0  0  0  0  0  0  0  0  0  0  0
    6.3294   -7.1225    0.0000 C   0  0  2  0  0  0  0  0  0  0  0  0
    7.0439   -6.7100    0.0000 C   0  0  2  0  0  0  0  0  0  0  0  0
    7.0439   -5.8850    0.0000 C   0  0  2  0  0  0  0  0  0  0  0  0
    6.3294   -5.4725    0.0000 C   0  0  0  0  0  0  0  0  0  0  0  0
    7.7583   -7.1225    0.0000 C   0  0  1  0  0  0  0  0  0  0  0  0
    8.4728   -6.7100    0.0000 O   0  0  0  0  0  0  0  0  0  0  0  0
    8.4728   -5.8850    0.0000 C   0  0  0  0  0  0  0  0  0  0  0  0
    7.7583   -5.4725    0.0000 C   0  0  0  0  0  0  0  0  0  0  0  0
    7.7583   -7.9475    0.0000 O   0  0  0  0  0  0  0  0  0  0  0  0
    8.4728   -8.3600    0.0000 C   0  0  1  0  0  0  0  0  0  0  0  0
    9.1873   -7.9475    0.0000 C   0  0  2  0  0  0  0  0  0  0  0  0
    9.1873   -7.1225    0.0000 O   0  0  0  0  0  0  0  0  0  0  0  0
    8.4728   -9.1850    0.0000 O   0  0  0  0  0  0  0  0  0  0  0  0
    9.1873   -9.5975    0.0000 C   0  0  1  0  0  0  0  0  0  0  0  0
    9.9018   -9.1850    0.0000 C   0  0  2  0  0  0  0  0  0  0  0  0
    9.9018   -8.3600    0.0000 C   0  0  2  0  0  0  0  0  0  0  0  0
    9.1873  -10.4225    0.0000 C   0  0  0  0  0  0  0  0  0  0  0  0
    9.9018  -10.8350    0.0000 O   0  0  0  0  0  0  0  0  0  0  0  0
   10.6162   -9.5975    0.0000 O   0  0  0  0  0  0  0  0  0  0  0  0
    7.7583   -4.6475    0.0000 C   0  0  0  0  0  0  0  0  0  0  0  0
    7.0439   -4.2350    0.0000 O   0  0  0  0  0  0  0  0  0  0  0  0
    9.1873   -4.6475    0.0000 C   0  0  0  0  0  0  0  0  0  0  0  0
    8.4728   -4.2350    0.0000 O   0  0  0  0  0  0  0  0  0  0  0  0
    4.9005   -5.4725    0.0000 O   0  0  0  0  0  0  0  0  0  0  0  0
    4.1860   -5.8850    0.0000 C   0  0  0  0  0  0  0  0  0  0  0  0
    6.3294   -7.9475    0.0000 C   0  0  0  0  0  0  0  0  0  0  0  0
    7.0439   -5.0600    0.0000 H   0  0  0  0  0  0  0  0  0  0  0  0
    7.0439   -7.5350    0.0000 H   0  0  0  0  0  0  0  0  0  0  0  0
   10.6162   -7.9475    0.0000 O   0  0  0  0  0  0  0  0  0  0  0  0
  1  2  1  0  0  0  0
  2  3  1  0  0  0  0
  3  4  1  0  0  0  0
  4  5  1  0  0  0  0
  5  6  1  0  0  0  0
  6  1  1  0  0  0  0
  4  7  1  0  0  0  0
  7  8  1  0  0  0  0
  8  9  1  0  0  0  0
  9 10  2  0  0  0  0
 10  5  1  0  0  0  0
  7 11  1  1  0  0  0
 12 11  1  1  0  0  0
 12 13  1  0  0  0  0
 13 14  1  6  0  0  0
 12 15  1  0  0  0  0
 15 16  1  0  0  0  0
 16 17  1  0  0  0  0
 17 18  1  0  0  0  0
 18 13  1  0  0  0  0
 16 19  1  1  0  0  0
 19 20  1  0  0  0  0
 17 21  1  6  0  0  0
 10 22  1  0  0  0  0
 22 23  2  0  0  0  0
 24 25  1  0  0  0  0
 25 22  1  0  0  0  0
  1 26  1  6  0  0  0
 26 27  1  0  0  0  0
  3 28  1  6  0  0  0
  5 29  1  1  0  0  0
  4 30  1  1  0  0  0
 18 31  1  1  0  0  0
M  END
>  <cdx:fragmentId>
5

$$$$
