67678.cdx
  Mrv1902 05222410202D          

 14 13  0  0  0  0            999 V2000
    9.9256   -6.4056    0.0000 C   0  0  0  0  0  0  0  0  0  0  0  0
    9.2112   -6.8181    0.0000 C   0  0  2  0  0  0  0  0  0  0  0  0
    8.4967   -6.4056    0.0000 C   0  0  0  0  0  0  0  0  0  0  0  0
    9.9256   -5.5806    0.0000 O   0  0  0  0  0  0  0  0  0  0  0  0
   10.6401   -6.8181    0.0000 O   0  0  0  0  0  0  0  0  0  0  0  0
    7.0678   -6.4056    0.0000 S   0  0  0  0  0  0  0  0  0  0  0  0
    7.7822   -6.8181    0.0000 S   0  0  0  0  0  0  0  0  0  0  0  0
    6.3533   -6.8181    0.0000 C   0  0  0  0  0  0  0  0  0  0  0  0
    5.6388   -6.4056    0.0000 C   0  0  1  0  0  0  0  0  0  0  0  0
    4.9244   -6.8181    0.0000 C   0  0  0  0  0  0  0  0  0  0  0  0
    4.9244   -7.6431    0.0000 O   0  0  0  0  0  0  0  0  0  0  0  0
    4.2099   -6.4056    0.0000 O   0  0  0  0  0  0  0  0  0  0  0  0
    5.6388   -5.5806    0.0000 N   0  0  0  0  0  0  0  0  0  0  0  0
    9.2112   -7.6431    0.0000 N   0  0  0  0  0  0  0  0  0  0  0  0
  1  2  1  0  0  0  0
  2  3  1  0  0  0  0
  1  4  2  0  0  0  0
  1  5  1  0  0  0  0
  6  7  1  0  0  0  0
  8  9  1  0  0  0  0
 10 11  2  0  0  0  0
 10 12  1  0  0  0  0
  9 10  1  0  0  0  0
  9 13  1  1  0  0  0
  6  8  1  0  0  0  0
  3  7  1  0  0  0  0
  2 14  1  1  0  0  0
M  END
>  <cdx:groupId>
43

>  <cdx:fragmentId>
23

$$$$
