6769.cdx
  Mrv1902 05222410252D          

 18 19  0  0  0  0            999 V2000
    4.7677   -6.5794    0.0000 C   0  0  0  0  0  0  0  0  0  0  0  0
    4.7677   -7.4044    0.0000 C   0  0  0  0  0  0  0  0  0  0  0  0
    5.4821   -7.8169    0.0000 C   0  0  0  0  0  0  0  0  0  0  0  0
    6.1966   -7.4044    0.0000 C   0  0  0  0  0  0  0  0  0  0  0  0
    6.1966   -6.5794    0.0000 C   0  0  2  0  0  0  0  0  0  0  0  0
    5.4821   -6.1669    0.0000 C   0  0  0  0  0  0  0  0  0  0  0  0
    6.9111   -7.8169    0.0000 C   0  0  0  0  0  0  0  0  0  0  0  0
    7.6255   -7.4044    0.0000 C   0  0  1  0  0  0  0  0  0  0  0  0
    7.6255   -6.5794    0.0000 C   0  0  0  0  0  0  0  0  0  0  0  0
    6.9111   -6.1669    0.0000 C   0  0  0  0  0  0  0  0  0  0  0  0
    4.0532   -7.8169    0.0000 O   0  0  0  0  0  0  0  0  0  0  0  0
    5.4821   -8.6419    0.0000 C   0  0  0  0  0  0  0  0  0  0  0  0
    8.3400   -7.8169    0.0000 C   0  0  3  0  0  0  0  0  0  0  0  0
    9.0545   -7.4044    0.0000 C   0  0  0  0  0  0  0  0  0  0  0  0
    8.3400   -8.6419    0.0000 C   0  0  0  0  0  0  0  0  0  0  0  0
    9.0545   -8.2294    0.0000 O   0  0  0  0  0  0  0  0  0  0  0  0
    6.1966   -5.7544    0.0000 C   0  0  0  0  0  0  0  0  0  0  0  0
    9.8514   -7.6179    0.0000 O   0  0  0  0  0  0  0  0  0  0  0  0
  1  2  1  0  0  0  0
  2  3  1  0  0  0  0
  3  4  2  0  0  0  0
  4  5  1  0  0  0  0
  5  6  1  0  0  0  0
  6  1  1  0  0  0  0
  4  7  1  0  0  0  0
  7  8  1  0  0  0  0
  8  9  1  0  0  0  0
  9 10  1  0  0  0  0
 10  5  1  0  0  0  0
  2 11  2  0  0  0  0
  3 12  1  0  0  0  0
  8 13  1  1  0  0  0
 13 14  1  0  0  0  0
 13 15  1  0  0  0  0
 13 16  1  4  0  0  0
  5 17  1  1  0  0  0
 14 18  1  0  0  0  0
M  END
>  <cdx:fragmentId>
5

$$$$
