6771.cdx
  Mrv1902 05222410212D          

 20 22  0  0  0  0            999 V2000
    5.8424   -7.0537    0.0000 C   0  0  1  0  0  0  0  0  0  0  0  0
    5.8424   -7.8788    0.0000 C   0  0  2  0  0  0  0  0  0  0  0  0
    6.4874   -8.3931    0.0000 C   0  0  0  0  0  0  0  0  0  0  0  0
    7.2918   -8.2095    0.0000 C   0  0  2  0  0  0  0  0  0  0  0  0
    7.6497   -7.4663    0.0000 C   0  0  0  0  0  0  0  0  0  0  0  0
    7.2918   -6.7230    0.0000 C   0  0  0  0  0  0  0  0  0  0  0  0
    6.4874   -6.5394    0.0000 C   0  0  1  0  0  0  0  0  0  0  0  0
    5.0578   -6.7988    0.0000 C   0  0  0  0  0  0  0  0  0  0  0  0
    4.5729   -7.4663    0.0000 C   0  0  0  0  0  0  0  0  0  0  0  0
    5.0578   -8.1337    0.0000 C   0  0  2  0  0  0  0  0  0  0  0  0
    4.8443   -8.9306    0.0000 C   0  0  0  0  0  0  0  0  0  0  0  0
    6.2739   -5.7425    0.0000 C   0  0  0  0  0  0  0  0  0  0  0  0
    7.8751   -8.7929    0.0000 C   0  0  0  0  0  0  0  0  0  0  0  0
    5.8424   -6.2287    0.0000 H   0  0  0  0  0  0  0  0  0  0  0  0
    5.8424   -8.7037    0.0000 H   0  0  0  0  0  0  0  0  0  0  0  0
    8.6720   -8.5794    0.0000 C   0  0  0  0  0  0  0  0  0  0  0  0
    7.6616   -9.5898    0.0000 C   0  0  0  0  0  0  0  0  0  0  0  0
    6.5477   -7.5213    0.0000 O   0  0  0  0  0  0  0  0  0  0  0  0
    4.2609   -8.3472    0.0000 O   0  0  0  0  0  0  0  0  0  0  0  0
    8.4585   -9.3763    0.0000 O   0  0  0  0  0  0  0  0  0  0  0  0
  1  2  1  0  0  0  0
  2  3  1  0  0  0  0
  3  4  1  0  0  0  0
  4  5  1  0  0  0  0
  5  6  1  0  0  0  0
  6  7  1  0  0  0  0
  7  1  1  0  0  0  0
  1  8  1  0  0  0  0
  8  9  1  0  0  0  0
  9 10  1  0  0  0  0
 10  2  1  0  0  0  0
 10 11  1  1  0  0  0
  7 12  1  1  0  0  0
  4 13  1  1  0  0  0
  1 14  1  1  0  0  0
  2 15  1  1  0  0  0
 13 16  1  0  0  0  0
 13 17  1  0  0  0  0
  7 18  1  6  0  0  0
  4 18  1  6  0  0  0
 10 19  1  6  0  0  0
 13 20  1  0  0  0  0
M  END
>  <cdx:fragmentId>
5

$$$$
