6772.cdx
  Mrv1902 05222410212D          

 25 30  0  0  0  0            999 V2000
    6.8570   -5.4388    0.0000 C   0  0  0  0  0  0  0  0  0  0  0  0
    6.1433   -5.8526    0.0000 C   0  0  0  0  0  0  0  0  0  0  0  0
    5.4281   -5.4414    0.0000 C   0  0  0  0  0  0  0  0  0  0  0  0
    4.7144   -5.8553    0.0000 C   0  0  0  0  0  0  0  0  0  0  0  0
    4.7159   -6.6803    0.0000 C   0  0  0  0  0  0  0  0  0  0  0  0
    4.1038   -7.2334    0.0000 O   0  0  0  0  0  0  0  0  0  0  0  0
    4.4408   -7.9865    0.0000 C   0  0  0  0  0  0  0  0  0  0  0  0
    5.2611   -7.8987    0.0000 O   0  0  0  0  0  0  0  0  0  0  0  0
    5.4311   -7.0914    0.0000 C   0  0  0  0  0  0  0  0  0  0  0  0
    6.1448   -6.6776    0.0000 C   0  0  0  0  0  0  0  0  0  0  0  0
    6.8601   -7.0888    0.0000 C   0  0  0  0  0  0  0  0  0  0  0  0
    7.5738   -6.6750    0.0000 N   0  0  0  0  0  0  0  0  0  0  0  0
    8.2890   -7.0861    0.0000 C   0  0  0  0  0  0  0  0  0  0  0  0
    9.0027   -6.6723    0.0000 C   0  0  0  0  0  0  0  0  0  0  0  0
    9.0012   -5.8473    0.0000 C   0  0  0  0  0  0  0  0  0  0  0  0
    9.7149   -5.4335    0.0000 C   0  0  0  0  0  0  0  0  0  0  0  0
    9.7134   -4.6085    0.0000 C   0  0  0  0  0  0  0  0  0  0  0  0
   10.3254   -4.0553    0.0000 O   0  0  0  0  0  0  0  0  0  0  0  0
    9.9885   -3.3023    0.0000 C   0  0  0  0  0  0  0  0  0  0  0  0
    9.1682   -3.3900    0.0000 O   0  0  0  0  0  0  0  0  0  0  0  0
    8.9981   -4.1973    0.0000 C   0  0  0  0  0  0  0  0  0  0  0  0
    8.2844   -4.6111    0.0000 C   0  0  0  0  0  0  0  0  0  0  0  0
    8.2859   -5.4361    0.0000 C   0  0  0  0  0  0  0  0  0  0  0  0
    7.5722   -5.8500    0.0000 C   0  0  1  0  0  0  0  0  0  0  0  0
    7.5707   -5.0250    0.0000 H   0  0  0  0  0  0  0  0  0  0  0  0
 21 17  2  0  0  0  0
 23 15  1  0  0  0  0
  9  5  2  0  0  0  0
 10  2  2  0  0  0  0
 24 12  1  0  0  0  0
 24  1  1  0  0  0  0
  2  1  1  0  0  0  0
  3  2  1  0  0  0  0
  4  3  2  0  0  0  0
  5  4  1  0  0  0  0
  6  5  1  0  0  0  0
  7  6  1  0  0  0  0
  8  7  1  0  0  0  0
  9  8  1  0  0  0  0
 10  9  1  0  0  0  0
 11 10  1  0  0  0  0
 12 11  1  0  0  0  0
 13 12  1  0  0  0  0
 14 13  1  0  0  0  0
 15 14  1  0  0  0  0
 16 15  2  0  0  0  0
 17 16  1  0  0  0  0
 18 17  1  0  0  0  0
 19 18  1  0  0  0  0
 20 19  1  0  0  0  0
 21 20  1  0  0  0  0
 22 21  1  0  0  0  0
 23 22  2  0  0  0  0
 24 23  1  0  0  0  0
 24 25  1  1  0  0  0
M  END
>  <cdx:fragmentId>
5

$$$$
