6773.cdx
  Mrv1902 05222410212D          

 17 19  0  0  0  0            999 V2000
    8.3791   -4.5796    0.0000 C   0  0  0  0  0  0  0  0  0  0  0  0
    9.0936   -4.9921    0.0000 C   0  0  0  0  0  0  0  0  0  0  0  0
    9.0936   -5.8171    0.0000 C   0  0  0  0  0  0  0  0  0  0  0  0
    8.3791   -6.2296    0.0000 C   0  0  0  0  0  0  0  0  0  0  0  0
    7.6647   -5.8171    0.0000 C   0  0  0  0  0  0  0  0  0  0  0  0
    6.9502   -6.2296    0.0000 C   0  0  0  0  0  0  0  0  0  0  0  0
    6.2357   -5.8171    0.0000 C   0  0  0  0  0  0  0  0  0  0  0  0
    5.5213   -6.2296    0.0000 C   0  0  0  0  0  0  0  0  0  0  0  0
    4.8068   -5.8171    0.0000 C   0  0  0  0  0  0  0  0  0  0  0  0
    4.8068   -4.9921    0.0000 C   0  0  0  0  0  0  0  0  0  0  0  0
    5.5213   -4.5796    0.0000 C   0  0  0  0  0  0  0  0  0  0  0  0
    6.2357   -4.9921    0.0000 C   0  0  0  0  0  0  0  0  0  0  0  0
    6.9502   -4.5796    0.0000 C   0  0  0  0  0  0  0  0  0  0  0  0
    7.6647   -4.9921    0.0000 C   0  0  0  0  0  0  0  0  0  0  0  0
    6.9502   -3.7546    0.0000 O   0  0  0  0  0  0  0  0  0  0  0  0
    6.9502   -7.0546    0.0000 O   0  0  0  0  0  0  0  0  0  0  0  0
    9.8081   -4.5796    0.0000 C   0  0  0  0  0  0  0  0  0  0  0  0
  1  2  1  0  0  0  0
  2  3  2  0  0  0  0
  3  4  1  0  0  0  0
  4  5  2  0  0  0  0
  5  6  1  0  0  0  0
  6  7  1  0  0  0  0
  7  8  1  0  0  0  0
  8  9  2  0  0  0  0
  9 10  1  0  0  0  0
 10 11  2  0  0  0  0
 11 12  1  0  0  0  0
  7 12  2  0  0  0  0
 12 13  1  0  0  0  0
 13 14  1  0  0  0  0
  5 14  1  0  0  0  0
  1 14  2  0  0  0  0
 13 15  2  0  0  0  0
  6 16  2  0  0  0  0
  2 17  1  0  0  0  0
M  END
>  <cdx:groupId>
55

>  <cdx:fragmentId>
5

$$$$
