6774.cdx
  Mrv1902 05222410232D          

 24 26  0  0  0  0            999 V2000
    3.7364   -7.6519    0.0000 C   0  0  0  0  0  0  0  0  0  0  0  0
    3.7364   -8.4769    0.0000 C   0  0  0  0  0  0  0  0  0  0  0  0
    4.4509   -8.8894    0.0000 C   0  0  1  0  0  0  0  0  0  0  0  0
    5.1653   -8.4769    0.0000 C   0  0  1  0  0  0  0  0  0  0  0  0
    5.1653   -7.6519    0.0000 C   0  0  2  0  0  0  0  0  0  0  0  0
    4.4509   -7.2394    0.0000 C   0  0  0  0  0  0  0  0  0  0  0  0
    5.8798   -8.8894    0.0000 C   0  0  0  0  0  0  0  0  0  0  0  0
    6.5943   -8.4769    0.0000 C   0  0  2  0  0  0  0  0  0  0  0  0
    6.5943   -7.6519    0.0000 C   0  0  0  0  0  0  0  0  0  0  0  0
    5.8798   -7.2394    0.0000 C   0  0  0  0  0  0  0  0  0  0  0  0
    7.3088   -7.2394    0.0000 C   0  0  0  0  0  0  0  0  0  0  0  0
    7.3088   -6.4144    0.0000 C   0  0  0  0  0  0  0  0  0  0  0  0
    6.5943   -6.0019    0.0000 C   0  0  0  0  0  0  0  0  0  0  0  0
    5.8798   -6.4144    0.0000 C   0  0  0  0  0  0  0  0  0  0  0  0
    5.1653   -6.8269    0.0000 C   0  0  0  0  0  0  0  0  0  0  0  0
    8.0232   -6.0019    0.0000 C   0  0  0  0  0  0  0  0  0  0  0  0
    8.0232   -5.1769    0.0000 C   0  0  0  0  0  0  0  0  0  0  0  0
    8.7377   -6.4144    0.0000 C   0  0  0  0  0  0  0  0  0  0  0  0
    5.1653   -9.3019    0.0000 H   0  0  0  0  0  0  0  0  0  0  0  0
    4.0384   -9.6038    0.0000 C   0  0  0  0  0  0  0  0  0  0  0  0
    4.8634   -9.6038    0.0000 C   0  0  0  0  0  0  0  0  0  0  0  0
    4.4509  -10.3183    0.0000 O   0  0  0  0  0  0  0  0  0  0  0  0
    5.6884   -9.6038    0.0000 O   0  0  0  0  0  0  0  0  0  0  0  0
    7.3088   -8.8894    0.0000 O   0  0  0  0  0  0  0  0  0  0  0  0
  1  2  1  0  0  0  0
  2  3  1  0  0  0  0
  3  4  1  0  0  0  0
  4  5  1  0  0  0  0
  5  6  1  0  0  0  0
  6  1  1  0  0  0  0
  4  7  1  0  0  0  0
  7  8  1  0  0  0  0
  8  9  1  0  0  0  0
  9 10  2  0  0  0  0
 10  5  1  0  0  0  0
  9 11  1  0  0  0  0
 11 12  2  0  0  0  0
 12 13  1  0  0  0  0
 13 14  2  0  0  0  0
 14 10  1  0  0  0  0
  5 15  1  1  0  0  0
 12 16  1  0  0  0  0
 16 17  1  0  0  0  0
 16 18  1  0  0  0  0
  4 19  1  6  0  0  0
  3 20  1  1  0  0  0
  3 21  1  6  0  0  0
 21 22  1  0  0  0  0
 21 23  2  0  0  0  0
  8 24  1  6  0  0  0
M  END
>  <cdx:fragmentId>
5

$$$$
