101677507.cdx
  Mrv1902 05222410282D          

 70 76  0  0  0  0            999 V2000
    5.5060   -8.2278    0.0000 C   0  0  2  0  0  0  0  0  0  0  0  0
    5.5060   -9.0528    0.0000 C   0  0  2  0  0  0  0  0  0  0  0  0
    6.2205   -9.4653    0.0000 C   0  0  1  0  0  0  0  0  0  0  0  0
    6.9350   -9.0528    0.0000 C   0  0  0  0  0  0  0  0  0  0  0  0
    6.9350   -8.2278    0.0000 C   0  0  0  0  0  0  0  0  0  0  0  0
    6.2205   -7.8153    0.0000 C   0  0  2  0  0  0  0  0  0  0  0  0
    4.7916   -9.4653    0.0000 C   0  0  0  0  0  0  0  0  0  0  0  0
    4.7916  -10.2903    0.0000 C   0  0  0  0  0  0  0  0  0  0  0  0
    5.5060  -10.7028    0.0000 C   0  0  1  0  0  0  0  0  0  0  0  0
    6.2205  -10.2903    0.0000 C   0  0  1  0  0  0  0  0  0  0  0  0
    5.5060  -11.5278    0.0000 C   0  0  2  0  0  0  0  0  0  0  0  0
    6.2205  -11.9403    0.0000 C   0  0  1  0  0  0  0  0  0  0  0  0
    6.9350  -11.5278    0.0000 C   0  0  0  0  0  0  0  0  0  0  0  0
    6.9350  -10.7028    0.0000 C   0  0  0  0  0  0  0  0  0  0  0  0
    4.7916  -11.9403    0.0000 C   0  0  0  0  0  0  0  0  0  0  0  0
    4.7916  -12.7653    0.0000 C   0  0  0  0  0  0  0  0  0  0  0  0
    5.5060  -13.1778    0.0000 C   0  0  1  0  0  0  0  0  0  0  0  0
    6.2205  -12.7653    0.0000 C   0  0  1  0  0  0  0  0  0  0  0  0
    6.8039   -7.2319    0.0000 C   0  0  0  0  0  0  0  0  0  0  0  0
    7.6289   -7.2319    0.0000 C   0  0  0  0  0  0  0  0  0  0  0  0
    8.2122   -6.6486    0.0000 C   0  0  0  0  0  0  0  0  0  0  0  0
    9.0372   -6.6486    0.0000 C   0  0  0  0  0  0  0  0  0  0  0  0
    9.4497   -7.3631    0.0000 C   0  0  0  0  0  0  0  0  0  0  0  0
    9.6206   -6.0652    0.0000 C   0  0  0  0  0  0  0  0  0  0  0  0
    5.8080   -7.1008    0.0000 C   0  0  0  0  0  0  0  0  0  0  0  0
    6.3914   -6.5175    0.0000 O   0  0  0  0  0  0  0  0  0  0  0  0
    4.7916   -7.8153    0.0000 O   0  0  0  0  0  0  0  0  0  0  0  0
    4.7916   -8.6403    0.0000 H   0  0  0  0  0  0  0  0  0  0  0  0
    7.0174   -9.6788    0.0000 C   0  0  0  0  0  0  0  0  0  0  0  0
    7.0174  -10.0768    0.0000 C   0  0  0  0  0  0  0  0  0  0  0  0
    6.2205  -11.1153    0.0000 H   0  0  0  0  0  0  0  0  0  0  0  0
    4.7916  -11.1153    0.0000 C   0  0  0  0  0  0  0  0  0  0  0  0
    6.9350  -12.3528    0.0000 H   0  0  0  0  0  0  0  0  0  0  0  0
    6.9350  -13.1778    0.0000 C   0  0  0  0  0  0  0  0  0  0  0  0
    6.9350  -14.0028    0.0000 O   0  0  0  0  0  0  0  0  0  0  0  0
    6.2205  -13.5903    0.0000 C   0  0  0  0  0  0  0  0  0  0  0  0
    7.6494  -14.4153    0.0000 C   0  0  0  0  0  0  0  0  0  0  0  0
    7.6494  -15.2403    0.0000 C   0  0  1  0  0  0  0  0  0  0  0  0
    8.3639  -15.6528    0.0000 C   0  0  2  0  0  0  0  0  0  0  0  0
    9.0784  -15.2403    0.0000 C   0  0  1  0  0  0  0  0  0  0  0  0
    9.0784  -14.4153    0.0000 C   0  0  2  0  0  0  0  0  0  0  0  0
    8.3639  -14.0028    0.0000 O   0  0  0  0  0  0  0  0  0  0  0  0
    5.5060  -14.0028    0.0000 O   0  0  0  0  0  0  0  0  0  0  0  0
    4.9227  -14.5862    0.0000 C   0  0  0  0  0  0  0  0  0  0  0  0
    4.1258  -14.3726    0.0000 O   0  0  0  0  0  0  0  0  0  0  0  0
    3.5424  -14.9560    0.0000 C   0  0  1  0  0  0  0  0  0  0  0  0
    3.7559  -15.7529    0.0000 C   0  0  2  0  0  0  0  0  0  0  0  0
    4.5528  -15.9664    0.0000 C   0  0  1  0  0  0  0  0  0  0  0  0
    5.1362  -15.3831    0.0000 C   0  0  1  0  0  0  0  0  0  0  0  0
    2.7455  -14.7425    0.0000 C   0  0  0  0  0  0  0  0  0  0  0  0
    3.1726  -16.3363    0.0000 O   0  0  0  0  0  0  0  0  0  0  0  0
    4.7664  -16.7633    0.0000 O   0  0  0  0  0  0  0  0  0  0  0  0
    5.9331  -15.5966    0.0000 O   0  0  0  0  0  0  0  0  0  0  0  0
    2.1622  -15.3258    0.0000 O   0  0  0  0  0  0  0  0  0  0  0  0
    9.7929  -14.0028    0.0000 C   0  0  0  0  0  0  0  0  0  0  0  0
    6.9350  -15.6528    0.0000 O   0  0  0  0  0  0  0  0  0  0  0  0
    8.3639  -16.4778    0.0000 O   0  0  0  0  0  0  0  0  0  0  0  0
    9.7929  -15.6528    0.0000 O   0  0  0  0  0  0  0  0  0  0  0  0
   10.5073  -14.4153    0.0000 O   0  0  0  0  0  0  0  0  0  0  0  0
    6.1466  -16.3935    0.0000 C   0  0  0  0  0  0  0  0  0  0  0  0
    5.5632  -16.9768    0.0000 O   0  0  0  0  0  0  0  0  0  0  0  0
    5.7768  -17.7737    0.0000 C   0  0  1  0  0  0  0  0  0  0  0  0
    6.5737  -17.9873    0.0000 C   0  0  2  0  0  0  0  0  0  0  0  0
    7.1570  -17.4039    0.0000 C   0  0  1  0  0  0  0  0  0  0  0  0
    6.9435  -16.6070    0.0000 C   0  0  1  0  0  0  0  0  0  0  0  0
    5.1934  -18.3571    0.0000 C   0  0  0  0  0  0  0  0  0  0  0  0
    6.7872  -18.7841    0.0000 O   0  0  0  0  0  0  0  0  0  0  0  0
    7.9539  -17.6174    0.0000 O   0  0  0  0  0  0  0  0  0  0  0  0
    7.5269  -16.0236    0.0000 O   0  0  0  0  0  0  0  0  0  0  0  0
    4.3965  -18.1436    0.0000 O   0  0  0  0  0  0  0  0  0  0  0  0
  1  2  1  0  0  0  0
  2  3  1  0  0  0  0
  3  4  1  0  0  0  0
  4  5  1  0  0  0  0
  5  6  1  0  0  0  0
  6  1  1  0  0  0  0
  2  7  1  0  0  0  0
  7  8  1  0  0  0  0
  8  9  1  0  0  0  0
  9 10  1  0  0  0  0
 10  3  1  0  0  0  0
  9 11  1  0  0  0  0
 11 12  1  0  0  0  0
 12 13  1  0  0  0  0
 13 14  1  0  0  0  0
 14 10  1  0  0  0  0
 11 15  1  0  0  0  0
 15 16  1  0  0  0  0
 16 17  1  0  0  0  0
 17 18  1  0  0  0  0
 18 12  1  0  0  0  0
  6 19  1  0  0  0  0
 19 20  1  0  0  0  0
 20 21  1  0  0  0  0
 21 22  2  0  0  0  0
 22 23  1  0  0  0  0
 22 24  1  0  0  0  0
  6 25  1  6  0  0  0
 25 26  1  0  0  0  0
  1 27  1  1  0  0  0
  2 28  1  1  0  0  0
  3 29  1  6  0  0  0
 10 30  1  1  0  0  0
  9 31  1  6  0  0  0
 11 32  1  1  0  0  0
 12 33  1  6  0  0  0
 18 34  1  0  0  0  0
 34 35  1  0  0  0  0
 18 36  1  1  0  0  0
 35 37  1  6  0  0  0
 37 38  1  0  0  0  0
 38 39  1  0  0  0  0
 39 40  1  0  0  0  0
 40 41  1  0  0  0  0
 41 42  1  0  0  0  0
 42 37  1  0  0  0  0
 17 43  1  1  0  0  0
 43 44  1  1  0  0  0
 44 45  1  0  0  0  0
 45 46  1  0  0  0  0
 46 47  1  0  0  0  0
 47 48  1  0  0  0  0
 48 49  1  0  0  0  0
 49 44  1  0  0  0  0
 46 50  1  1  0  0  0
 47 51  1  6  0  0  0
 48 52  1  1  0  0  0
 49 53  1  6  0  0  0
 50 54  1  0  0  0  0
 41 55  1  6  0  0  0
 38 56  1  1  0  0  0
 39 57  1  6  0  0  0
 40 58  1  1  0  0  0
 55 59  1  0  0  0  0
 53 60  1  1  0  0  0
 60 61  1  0  0  0  0
 61 62  1  0  0  0  0
 62 63  1  0  0  0  0
 63 64  1  0  0  0  0
 64 65  1  0  0  0  0
 65 60  1  0  0  0  0
 62 66  1  1  0  0  0
 63 67  1  6  0  0  0
 64 68  1  1  0  0  0
 65 69  1  6  0  0  0
 66 70  1  0  0  0  0
M  END
>  <cdx:fragmentId>
51059

$$$$
