677576.cdx
  Mrv1902 05222410242D          

 17 19  0  0  0  0            999 V2000
   13.2478   -8.1413    0.0000 C   0  0  0  0  0  0  0  0  0  0  0  0
   13.2478   -8.9663    0.0000 C   0  0  0  0  0  0  0  0  0  0  0  0
   13.9623   -9.3788    0.0000 C   0  0  0  0  0  0  0  0  0  0  0  0
   14.6767   -8.9663    0.0000 C   0  0  0  0  0  0  0  0  0  0  0  0
   15.3912   -9.3788    0.0000 C   0  0  0  0  0  0  0  0  0  0  0  0
   16.1057   -8.9663    0.0000 C   0  0  0  0  0  0  0  0  0  0  0  0
   16.1057   -8.1413    0.0000 C   0  0  0  0  0  0  0  0  0  0  0  0
   15.3912   -7.7288    0.0000 C   0  0  0  0  0  0  0  0  0  0  0  0
   14.6767   -8.1413    0.0000 C   0  0  0  0  0  0  0  0  0  0  0  0
   13.9623   -7.7288    0.0000 O   0  0  0  0  0  0  0  0  0  0  0  0
   16.8903   -7.8863    0.0000 O   0  0  0  0  0  0  0  0  0  0  0  0
   16.8903   -9.2212    0.0000 C   0  0  0  0  0  0  0  0  0  0  0  0
   17.3752   -8.5538    0.0000 C   0  0  0  0  0  0  0  0  0  0  0  0
   12.5333   -7.7288    0.0000 O   0  0  0  0  0  0  0  0  0  0  0  0
   18.6127   -9.2682    0.0000 C   0  0  0  0  0  0  0  0  0  0  0  0
   18.2002   -8.5538    0.0000 C   0  0  0  0  0  0  0  0  0  0  0  0
   18.6127   -7.8393    0.0000 C   0  0  0  0  0  0  0  0  0  0  0  0
  1  2  1  0  0  0  0
  2  3  2  0  0  0  0
  3  4  1  0  0  0  0
  4  5  2  0  0  0  0
  5  6  1  0  0  0  0
  6  7  2  0  0  0  0
  7  8  1  0  0  0  0
  8  9  2  0  0  0  0
  4  9  1  0  0  0  0
  9 10  1  0  0  0  0
  1 10  1  0  0  0  0
 12 13  2  0  0  0  0
 11 13  1  0  0  0  0
 12  6  1  0  0  0  0
 11  7  1  0  0  0  0
  1 14  2  0  0  0  0
 15 16  1  0  0  0  0
 16 17  1  0  0  0  0
 13 16  1  0  0  0  0
M  END
>  <cdx:groupId>
14211

>  <cdx:fragmentId>
14161

$$$$
