6776.cdx
  Mrv1902 05222410222D          

 18 20  0  0  0  0            999 V2000
    8.7261   -4.6552    0.0000 C   0  0  0  0  0  0  0  0  0  0  0  0
    9.4405   -5.0677    0.0000 C   0  0  0  0  0  0  0  0  0  0  0  0
    9.4405   -5.8927    0.0000 C   0  0  0  0  0  0  0  0  0  0  0  0
    8.7261   -6.3052    0.0000 C   0  0  0  0  0  0  0  0  0  0  0  0
    8.0116   -5.8927    0.0000 C   0  0  0  0  0  0  0  0  0  0  0  0
    7.2971   -6.3052    0.0000 C   0  0  0  0  0  0  0  0  0  0  0  0
    6.5827   -5.8927    0.0000 C   0  0  0  0  0  0  0  0  0  0  0  0
    5.8682   -6.3052    0.0000 C   0  0  0  0  0  0  0  0  0  0  0  0
    5.1537   -5.8927    0.0000 C   0  0  0  0  0  0  0  0  0  0  0  0
    5.1537   -5.0677    0.0000 C   0  0  0  0  0  0  0  0  0  0  0  0
    5.8682   -4.6552    0.0000 C   0  0  0  0  0  0  0  0  0  0  0  0
    6.5827   -5.0677    0.0000 C   0  0  0  0  0  0  0  0  0  0  0  0
    7.2971   -4.6552    0.0000 C   0  0  0  0  0  0  0  0  0  0  0  0
    8.0116   -5.0677    0.0000 C   0  0  0  0  0  0  0  0  0  0  0  0
    7.2971   -3.8302    0.0000 O   0  0  0  0  0  0  0  0  0  0  0  0
    7.2971   -7.1302    0.0000 O   0  0  0  0  0  0  0  0  0  0  0  0
    4.4392   -6.3052    0.0000 O   0  0  0  0  0  0  0  0  0  0  0  0
   10.1550   -4.6552    0.0000 O   0  0  0  0  0  0  0  0  0  0  0  0
  1  2  1  0  0  0  0
  2  3  2  0  0  0  0
  3  4  1  0  0  0  0
  4  5  2  0  0  0  0
  5  6  1  0  0  0  0
  6  7  1  0  0  0  0
  7  8  1  0  0  0  0
  8  9  2  0  0  0  0
  9 10  1  0  0  0  0
 10 11  2  0  0  0  0
 11 12  1  0  0  0  0
  7 12  2  0  0  0  0
 12 13  1  0  0  0  0
 13 14  1  0  0  0  0
  5 14  1  0  0  0  0
  1 14  2  0  0  0  0
 13 15  2  0  0  0  0
  6 16  2  0  0  0  0
  9 17  1  0  0  0  0
  2 18  1  0  0  0  0
M  END
>  <cdx:fragmentId>
5

$$$$
