677748.cdx
  Mrv1902 05222410242D          

 15 14  0  0  0  0            999 V2000
    9.1016   -7.3997    0.0000 C   0  0  0  0  0  0  0  0  0  0  0  0
    8.3871   -7.8122    0.0000 C   0  0  0  0  0  0  0  0  0  0  0  0
    7.6726   -7.3997    0.0000 C   0  0  0  0  0  0  0  0  0  0  0  0
    9.1016   -6.5747    0.0000 O   0  0  0  0  0  0  0  0  0  0  0  0
    9.8160   -7.8122    0.0000 O   0  5  0  0  0  0  0  0  0  0  0  0
    8.9910   -7.8122    0.0000 Na  0  3  0  0  0  0  0  0  0  0  0  0
    8.3871   -8.6372    0.0000 O   0  0  0  0  0  0  0  0  0  0  0  0
    6.9582   -7.8122    0.0000 C   0  0  0  0  0  0  0  0  0  0  0  0
    6.2437   -7.3997    0.0000 C   0  0  0  0  0  0  0  0  0  0  0  0
    5.5292   -7.8122    0.0000 C   0  0  0  0  0  0  0  0  0  0  0  0
    5.5292   -8.6372    0.0000 C   0  0  0  0  0  0  0  0  0  0  0  0
    6.2437   -9.0497    0.0000 C   0  0  0  0  0  0  0  0  0  0  0  0
    6.9582   -8.6372    0.0000 C   0  0  0  0  0  0  0  0  0  0  0  0
    4.8148   -9.0497    0.0000 O   0  0  0  0  0  0  0  0  0  0  0  0
    4.8148   -7.3997    0.0000 O   0  0  0  0  0  0  0  0  0  0  0  0
  1  2  1  0  0  0  0
  2  3  1  0  0  0  0
  1  4  2  0  0  0  0
  1  5  1  0  0  0  0
  2  7  1  0  0  0  0
  8  9  1  0  0  0  0
  9 10  2  0  0  0  0
 10 11  1  0  0  0  0
 11 12  2  0  0  0  0
 12 13  1  0  0  0  0
  8 13  2  0  0  0  0
 11 14  1  0  0  0  0
 10 15  1  0  0  0  0
  3  8  1  0  0  0  0
M  CHG  2   5  -1   6   1
M  STY  1   1 SUP
M  SAL   1  2   5   6
M  SBL   1  1   4
M  SMT   1 O-Na\S+
M  SAP   1  1   5   1  1
M  END
>  <cdx:groupId>
813

>  <cdx:fragmentId>
786

$$$$
