6782.cdx
  Mrv1902 05222410252D          

 20 20  0  0  0  0            999 V2000
    3.2795   -5.0041    0.0000 C   0  0  0  0  0  0  0  0  0  0  0  0
    3.2795   -4.1791    0.0000 C   0  0  0  0  0  0  0  0  0  0  0  0
    2.5650   -3.7666    0.0000 C   0  0  0  0  0  0  0  0  0  0  0  0
    1.8505   -4.1791    0.0000 C   0  0  0  0  0  0  0  0  0  0  0  0
    1.8505   -5.0041    0.0000 C   0  0  0  0  0  0  0  0  0  0  0  0
    2.5650   -5.4166    0.0000 C   0  0  0  0  0  0  0  0  0  0  0  0
    3.9940   -5.4166    0.0000 C   0  0  0  0  0  0  0  0  0  0  0  0
    3.9940   -6.2416    0.0000 O   0  0  0  0  0  0  0  0  0  0  0  0
    4.7084   -5.0041    0.0000 O   0  0  0  0  0  0  0  0  0  0  0  0
    3.9940   -3.7666    0.0000 C   0  0  0  0  0  0  0  0  0  0  0  0
    4.7084   -4.1791    0.0000 O   0  0  0  0  0  0  0  0  0  0  0  0
    3.9940   -2.9416    0.0000 O   0  0  0  0  0  0  0  0  0  0  0  0
    5.4229   -5.4166    0.0000 C   0  0  0  0  0  0  0  0  0  0  0  0
    6.1374   -5.0041    0.0000 C   0  0  0  0  0  0  0  0  0  0  0  0
    6.8518   -5.4166    0.0000 C   0  0  0  0  0  0  0  0  0  0  0  0
    6.1374   -4.1791    0.0000 C   0  0  0  0  0  0  0  0  0  0  0  0
    4.7084   -2.5291    0.0000 C   0  0  0  0  0  0  0  0  0  0  0  0
    4.7084   -1.7041    0.0000 C   0  0  0  0  0  0  0  0  0  0  0  0
    5.4229   -1.2916    0.0000 C   0  0  0  0  0  0  0  0  0  0  0  0
    3.9940   -1.2916    0.0000 C   0  0  0  0  0  0  0  0  0  0  0  0
  1  2  1  0  0  0  0
  2  3  2  0  0  0  0
  3  4  1  0  0  0  0
  4  5  2  0  0  0  0
  5  6  1  0  0  0  0
  1  6  2  0  0  0  0
  7  8  2  0  0  0  0
  7  9  1  0  0  0  0
  1  7  1  0  0  0  0
 10 11  2  0  0  0  0
 10 12  1  0  0  0  0
  2 10  1  0  0  0  0
 13 14  1  0  0  0  0
 14 15  1  0  0  0  0
 14 16  1  0  0  0  0
  9 13  1  0  0  0  0
 17 18  1  0  0  0  0
 18 19  1  0  0  0  0
 18 20  1  0  0  0  0
 12 17  1  0  0  0  0
M  END
>  <cdx:groupId>
62

>  <cdx:fragmentId>
5

$$$$
