678322.cdx
  Mrv1902 05222410232D          

 24 25  0  0  0  0            999 V2000
    6.6230  -10.8243    0.0000 H   0  0  0  0  0  0  0  0  0  0  0  0
    4.6708  -11.1297    0.0000 O   0  0  0  0  0  0  0  0  0  0  0  0
    5.9092  -11.8426    0.0000 O   0  0  0  0  0  0  0  0  0  0  0  0
    5.4958  -11.1287    0.0000 C   0  0  0  0  0  0  0  0  0  0  0  0
    5.9074  -10.4137    0.0000 C   0  0  1  0  0  0  0  0  0  0  0  0
    5.1919  -10.0031    0.0000 C   0  0  0  0  0  0  0  0  0  0  0  0
    5.1897   -9.1781    0.0000 C   0  0  0  0  0  0  0  0  0  0  0  0
    5.9030   -8.7637    0.0000 C   0  0  0  0  0  0  0  0  0  0  0  0
    6.6186   -9.1743    0.0000 C   0  0  2  0  0  0  0  0  0  0  0  0
    7.3320   -8.7599    0.0000 C   0  0  2  0  0  0  0  0  0  0  0  0
    8.0475   -9.1705    0.0000 C   0  0  0  0  0  0  0  0  0  0  0  0
    8.0497   -9.9955    0.0000 C   0  0  0  0  0  0  0  0  0  0  0  0
    7.3364  -10.4099    0.0000 C   0  0  0  0  0  0  0  0  0  0  0  0
    6.6208   -9.9993    0.0000 C   0  0  1  0  0  0  0  0  0  0  0  0
    8.7609   -8.7561    0.0000 C   0  0  0  0  0  0  0  0  0  0  0  0
    6.6164   -8.3493    0.0000 C   0  0  0  0  0  0  0  0  0  0  0  0
    6.3208  -11.1276    0.0000 C   0  0  0  0  0  0  0  0  0  0  0  0
    7.3298   -7.9349    0.0000 C   0  0  0  0  0  0  0  0  0  0  0  0
    8.0431   -7.5205    0.0000 C   0  0  0  0  0  0  0  0  0  0  0  0
    8.0409   -6.6955    0.0000 C   0  0  0  0  0  0  0  0  0  0  0  0
    8.7543   -6.2811    0.0000 C   0  0  0  0  0  0  0  0  0  0  0  0
    8.7521   -5.4561    0.0000 C   0  0  0  0  0  0  0  0  0  0  0  0
    7.3254   -6.2849    0.0000 C   0  0  0  0  0  0  0  0  0  0  0  0
    9.4655   -5.0417    0.0000 O   0  0  0  0  0  0  0  0  0  0  0  0
 14  1  1  6  0  0  0
  4  2  1  0  0  0  0
  4  3  2  0  0  0  0
  5  4  1  1  0  0  0
  5  6  1  0  0  0  0
  6  7  1  0  0  0  0
  7  8  1  0  0  0  0
  8  9  1  0  0  0  0
  9 10  1  0  0  0  0
 10 11  1  0  0  0  0
 11 12  1  0  0  0  0
 12 13  1  0  0  0  0
 13 14  1  0  0  0  0
  5 14  1  0  0  0  0
  9 14  1  0  0  0  0
 11 15  2  0  0  0  0
  9 16  1  1  0  0  0
  5 17  1  6  0  0  0
 18 19  1  0  0  0  0
 19 20  1  0  0  0  0
 20 21  2  0  0  0  0
 21 22  1  0  0  0  0
 20 23  1  0  0  0  0
 22 24  1  0  0  0  0
 10 18  1  1  0  0  0
M  END
>  <cdx:fragmentId>
88126

$$$$
