678577.cdx
  Mrv1902 05222410202D          

 17 19  0  0  0  0            999 V2000
   10.0916   -8.7503    0.0000 O   0  0  0  0  0  0  0  0  0  0  0  0
    6.5133   -9.1085    0.0000 O   0  0  0  0  0  0  0  0  0  0  0  0
    5.0470  -11.5616    0.0000 O   0  0  0  0  0  0  0  0  0  0  0  0
    7.1964  -11.1816    0.0000 C   0  0  0  0  0  0  0  0  0  0  0  0
    7.9046  -11.6049    0.0000 C   0  0  0  0  0  0  0  0  0  0  0  0
    8.6252  -11.2033    0.0000 C   0  0  0  0  0  0  0  0  0  0  0  0
    8.6377  -10.3784    0.0000 C   0  0  0  0  0  0  0  0  0  0  0  0
    9.3584   -9.9768    0.0000 C   0  0  0  0  0  0  0  0  0  0  0  0
    9.3709   -9.1519    0.0000 C   0  0  0  0  0  0  0  0  0  0  0  0
    8.6628   -8.7286    0.0000 C   0  0  0  0  0  0  0  0  0  0  0  0
    7.9421   -9.1302    0.0000 C   0  0  0  0  0  0  0  0  0  0  0  0
    7.9296   -9.9551    0.0000 C   0  0  0  0  0  0  0  0  0  0  0  0
    7.2090  -10.3567    0.0000 C   0  0  0  0  0  0  0  0  0  0  0  0
    6.5008   -9.9334    0.0000 C   0  0  0  0  0  0  0  0  0  0  0  0
    5.7802  -10.3351    0.0000 C   0  0  0  0  0  0  0  0  0  0  0  0
    5.7677  -11.1600    0.0000 C   0  0  0  0  0  0  0  0  0  0  0  0
    6.4758  -11.5833    0.0000 C   0  0  0  0  0  0  0  0  0  0  0  0
  9  1  1  0  0  0  0
 14  2  1  0  0  0  0
 16  3  1  0  0  0  0
 13  4  1  0  0  0  0
 17  4  2  0  0  0  0
  5  4  1  0  0  0  0
  6  5  1  0  0  0  0
  7  6  1  0  0  0  0
 12  7  2  0  0  0  0
  8  7  1  0  0  0  0
  9  8  2  0  0  0  0
 10  9  1  0  0  0  0
 11 10  2  0  0  0  0
 12 11  1  0  0  0  0
 13 12  1  0  0  0  0
 14 13  2  0  0  0  0
 15 14  1  0  0  0  0
 16 15  2  0  0  0  0
 17 16  1  0  0  0  0
M  END
>  <cdx:fragmentId>
141273

$$$$
