58067884.cdx
  Mrv1902 05222410262D          

 16 17  0  0  0  0            999 V2000
    8.4847  -16.1692    0.0000 C   0  0  0  0  0  0  0  0  0  0  0  0
    8.9697  -15.5017    0.0000 C   0  0  0  0  0  0  0  0  0  0  0  0
    8.4847  -14.8343    0.0000 C   0  0  0  0  0  0  0  0  0  0  0  0
    7.7001  -15.0892    0.0000 C   0  0  0  0  0  0  0  0  0  0  0  0
    6.9857  -14.6767    0.0000 C   0  0  1  0  0  0  0  0  0  0  0  0
    6.2712  -15.0892    0.0000 C   0  0  0  0  0  0  0  0  0  0  0  0
    6.2712  -15.9142    0.0000 C   0  0  0  0  0  0  0  0  0  0  0  0
    6.9857  -16.3267    0.0000 C   0  0  2  0  0  0  0  0  0  0  0  0
    7.7001  -15.9142    0.0000 C   0  0  1  0  0  0  0  0  0  0  0  0
    6.9857  -13.8517    0.0000 C   0  0  0  0  0  0  0  0  0  0  0  0
    6.2712  -13.4392    0.0000 C   0  0  0  0  0  0  0  0  0  0  0  0
    5.5567  -13.8517    0.0000 C   0  0  0  0  0  0  0  0  0  0  0  0
    6.2712  -12.6142    0.0000 C   0  0  0  0  0  0  0  0  0  0  0  0
    6.9857  -17.1517    0.0000 C   0  0  0  0  0  0  0  0  0  0  0  0
    8.7397  -14.0497    0.0000 C   0  0  0  0  0  0  0  0  0  0  0  0
    7.7864  -16.7347    0.0000 H   0  0  0  0  0  0  0  0  0  0  0  0
  1  2  1  0  0  0  0
  2  3  1  0  0  0  0
  3  4  2  0  0  0  0
  4  5  1  0  0  0  0
  5  6  1  0  0  0  0
  6  7  1  0  0  0  0
  7  8  1  0  0  0  0
  8  9  1  0  0  0  0
  1  9  1  0  0  0  0
  4  9  1  0  0  0  0
 10 11  2  0  0  0  0
 11 12  1  0  0  0  0
 11 13  1  0  0  0  0
  5 10  1  1  0  0  0
  8 14  1  6  0  0  0
  3 15  1  0  0  0  0
  9 16  1  1  0  0  0
M  END
>  <cdx:groupId>
193543

>  <cdx:fragmentId>
193497

$$$$
