10678901.cdx
  Mrv1902 05222410232D          

 13 14  0  0  0  0            999 V2000
    7.4576   -8.7417    0.0000 C   0  0  1  0  0  0  0  0  0  0  0  0
    7.4576   -7.9167    0.0000 C   0  0  0  0  0  0  0  0  0  0  0  0
    8.1026   -7.4023    0.0000 C   0  0  0  0  0  0  0  0  0  0  0  0
    8.9069   -7.5859    0.0000 C   0  0  0  0  0  0  0  0  0  0  0  0
    9.2648   -8.3292    0.0000 C   0  0  0  0  0  0  0  0  0  0  0  0
    8.9069   -9.0725    0.0000 C   0  0  0  0  0  0  0  0  0  0  0  0
    8.1026   -9.2561    0.0000 C   0  0  0  0  0  0  0  0  0  0  0  0
    6.7431   -7.5042    0.0000 C   0  0  0  0  0  0  0  0  0  0  0  0
    6.0286   -7.9167    0.0000 C   0  0  0  0  0  0  0  0  0  0  0  0
    6.0286   -8.7417    0.0000 C   0  0  0  0  0  0  0  0  0  0  0  0
    6.7431   -9.1542    0.0000 C   0  0  0  0  0  0  0  0  0  0  0  0
    5.3141   -7.5042    0.0000 O   0  0  0  0  0  0  0  0  0  0  0  0
    7.4576   -9.5667    0.0000 C   0  0  0  0  0  0  0  0  0  0  0  0
  1  2  1  0  0  0  0
  2  3  1  0  0  0  0
  3  4  1  0  0  0  0
  4  5  1  0  0  0  0
  5  6  1  0  0  0  0
  6  7  1  0  0  0  0
  1  7  1  0  0  0  0
  8  9  1  0  0  0  0
  9 10  1  0  0  0  0
 10 11  1  0  0  0  0
 11  1  1  0  0  0  0
  8  2  2  0  0  0  0
  9 12  2  0  0  0  0
  1 13  1  6  0  0  0
M  END
>  <cdx:groupId>
56741

>  <cdx:fragmentId>
56704

$$$$
