679076.cdx
  Mrv1902 05222410262D          

 12 12  0  0  0  0            999 V2000
    6.5634   -7.2303    0.0000 O   0  0  0  0  0  0  0  0  0  0  0  0
    7.3171   -6.8948    0.0000 C   0  0  1  0  0  0  0  0  0  0  0  0
    7.2309   -6.0743    0.0000 C   0  0  0  0  0  0  0  0  0  0  0  0
    6.4239   -5.9028    0.0000 C   0  0  0  0  0  0  0  0  0  0  0  0
    6.0114   -6.6172    0.0000 C   0  0  0  0  0  0  0  0  0  0  0  0
    6.0883   -5.1491    0.0000 O   0  0  0  0  0  0  0  0  0  0  0  0
    5.1909   -6.7035    0.0000 O   0  0  0  0  0  0  0  0  0  0  0  0
    7.8439   -5.5223    0.0000 O   0  0  0  0  0  0  0  0  0  0  0  0
    8.0316   -7.3073    0.0000 C   0  0  2  0  0  0  0  0  0  0  0  0
    8.7460   -6.8948    0.0000 C   0  0  0  0  0  0  0  0  0  0  0  0
    9.4605   -7.3073    0.0000 O   0  0  0  0  0  0  0  0  0  0  0  0
    8.0316   -8.1323    0.0000 O   0  0  0  0  0  0  0  0  0  0  0  0
  2  1  1  1  0  0  0
  2  3  1  0  0  0  0
  3  4  2  0  0  0  0
  4  5  1  0  0  0  0
  1  5  1  0  0  0  0
  4  6  1  0  0  0  0
  5  7  2  0  0  0  0
  3  8  1  0  0  0  0
  9 10  1  0  0  0  0
 10 11  1  0  0  0  0
  9 12  1  6  0  0  0
  2  9  1  0  0  0  0
M  END
>  <cdx:fragmentId>
3

$$$$
