21679042.cdx
  Mrv1902 05222410182D          

 25 27  0  0  0  0            999 V2000
    5.6963  -12.0094    0.0000 O   0  0  0  0  0  0  0  0  0  0  0  0
    6.5213  -12.0094    0.0000 C   0  0  0  0  0  0  0  0  0  0  0  0
    6.7762  -12.7940    0.0000 C   0  0  0  0  0  0  0  0  0  0  0  0
    6.1088  -13.2790    0.0000 C   0  0  0  0  0  0  0  0  0  0  0  0
    5.4414  -12.7940    0.0000 C   0  0  0  0  0  0  0  0  0  0  0  0
    4.6567  -13.0490    0.0000 O   0  0  0  0  0  0  0  0  0  0  0  0
    6.1088  -14.1040    0.0000 C   0  0  0  0  0  0  0  0  0  0  0  0
    6.8233  -14.5165    0.0000 C   0  0  0  0  0  0  0  0  0  0  0  0
    6.8233  -15.3415    0.0000 C   0  0  0  0  0  0  0  0  0  0  0  0
    6.1088  -15.7540    0.0000 C   0  0  0  0  0  0  0  0  0  0  0  0
    6.1088  -16.5790    0.0000 C   0  0  0  0  0  0  0  0  0  0  0  0
    6.8233  -16.9915    0.0000 C   0  0  0  0  0  0  0  0  0  0  0  0
    7.5377  -16.5790    0.0000 C   0  0  2  0  0  0  0  0  0  0  0  0
    8.2522  -16.9915    0.0000 C   0  0  2  0  0  0  0  0  0  0  0  0
    8.9667  -16.5790    0.0000 C   0  0  1  0  0  0  0  0  0  0  0  0
    8.9667  -15.7540    0.0000 C   0  0  0  0  0  0  0  0  0  0  0  0
    8.2522  -15.3415    0.0000 C   0  0  0  0  0  0  0  0  0  0  0  0
    7.5377  -15.7540    0.0000 C   0  0  1  0  0  0  0  0  0  0  0  0
    7.5377  -14.9290    0.0000 C   0  0  0  0  0  0  0  0  0  0  0  0
    7.8397  -17.7059    0.0000 C   0  0  0  0  0  0  0  0  0  0  0  0
    5.3943  -15.3415    0.0000 C   0  0  0  0  0  0  0  0  0  0  0  0
    8.6647  -17.7059    0.0000 C   0  0  0  0  0  0  0  0  0  0  0  0
    9.4897  -17.7059    0.0000 O   0  0  0  0  0  0  0  0  0  0  0  0
    9.6812  -16.9915    0.0000 O   0  0  0  0  0  0  0  0  0  0  0  0
    7.5377  -17.4040    0.0000 H   0  0  0  0  0  0  0  0  0  0  0  0
  1  2  1  0  0  0  0
  2  3  1  0  0  0  0
  3  4  2  0  0  0  0
  4  5  1  0  0  0  0
  1  5  1  0  0  0  0
  5  6  2  0  0  0  0
  7  8  1  0  0  0  0
  9 10  2  0  0  0  0
 10 11  1  0  0  0  0
 11 12  1  0  0  0  0
 12 13  1  0  0  0  0
 13 14  1  0  0  0  0
 14 15  1  0  0  0  0
 15 16  1  0  0  0  0
 16 17  1  0  0  0  0
 17 18  1  0  0  0  0
  9 18  1  0  0  0  0
 13 18  1  0  0  0  0
 18 19  1  1  0  0  0
 14 20  1  6  0  0  0
 10 21  1  0  0  0  0
 22 23  1  0  0  0  0
 14 22  1  1  0  0  0
 15 24  1  1  0  0  0
  8  9  1  0  0  0  0
  4  7  1  0  0  0  0
 13 25  1  6  0  0  0
M  END
>  <cdx:groupId>
141404

>  <cdx:fragmentId>
141346

$$$$
