679107.cdx
  Mrv1902 05222410282D          

 68 75  0  0  0  0            999 V2000
    5.3690  -12.1332    0.0000 O   0  0  0  0  0  0  0  0  0  0  0  0
    3.9213  -12.1951    0.0000 O   0  0  0  0  0  0  0  0  0  0  0  0
    4.6311  -12.6155    0.0000 C   0  0  2  0  0  0  0  0  0  0  0  0
    4.6220  -13.4405    0.0000 C   0  0  1  0  0  0  0  0  0  0  0  0
    3.9030  -13.8450    0.0000 C   0  0  2  0  0  0  0  0  0  0  0  0
    3.1931  -13.4246    0.0000 C   0  0  2  0  0  0  0  0  0  0  0  0
    3.2023  -12.5997    0.0000 C   0  0  1  0  0  0  0  0  0  0  0  0
    5.3318  -13.8609    0.0000 O   0  0  0  0  0  0  0  0  0  0  0  0
    4.6037  -15.0904    0.0000 O   0  0  0  0  0  0  0  0  0  0  0  0
    5.3227  -14.6858    0.0000 C   0  0  2  0  0  0  0  0  0  0  0  0
    6.0325  -15.1062    0.0000 C   0  0  1  0  0  0  0  0  0  0  0  0
    6.0234  -15.9312    0.0000 C   0  0  1  0  0  0  0  0  0  0  0  0
    5.3044  -16.3357    0.0000 C   0  0  2  0  0  0  0  0  0  0  0  0
    4.5945  -15.9153    0.0000 C   0  0  2  0  0  0  0  0  0  0  0  0
    3.8755  -16.3199    0.0000 C   0  0  0  0  0  0  0  0  0  0  0  0
    5.2952  -17.1607    0.0000 O   0  0  0  0  0  0  0  0  0  0  0  0
    6.7332  -16.3516    0.0000 O   0  0  0  0  0  0  0  0  0  0  0  0
    6.7515  -14.7017    0.0000 O   0  0  0  0  0  0  0  0  0  0  0  0
    2.4924  -12.1793    0.0000 C   0  0  0  0  0  0  0  0  0  0  0  0
    1.7780  -12.5918    0.0000 O   0  0  0  0  0  0  0  0  0  0  0  0
    2.4741  -13.8292    0.0000 O   0  0  0  0  0  0  0  0  0  0  0  0
    3.8938  -14.6700    0.0000 O   0  0  0  0  0  0  0  0  0  0  0  0
    8.2200   -9.6464    0.0000 C   0  0  0  0  0  0  0  0  0  0  0  0
    7.5056  -10.0589    0.0000 C   0  0  0  0  0  0  0  0  0  0  0  0
    7.5056  -10.8839    0.0000 C   0  0  1  0  0  0  0  0  0  0  0  0
    8.2200  -11.2964    0.0000 C   0  0  0  0  0  0  0  0  0  0  0  0
    8.9345  -10.8839    0.0000 C   0  0  2  0  0  0  0  0  0  0  0  0
    9.6490  -11.2964    0.0000 C   0  0  0  0  0  0  0  0  0  0  0  0
   10.3635  -10.8839    0.0000 C   0  0  0  0  0  0  0  0  0  0  0  0
   10.3635  -10.0589    0.0000 C   0  0  1  0  0  0  0  0  0  0  0  0
   11.0779   -9.6464    0.0000 C   0  0  2  0  0  0  0  0  0  0  0  0
   11.7924  -10.0589    0.0000 C   0  0  0  0  0  0  0  0  0  0  0  0
   12.5069   -9.6464    0.0000 C   0  0  0  0  0  0  0  0  0  0  0  0
   12.5069   -8.8214    0.0000 C   0  0  1  0  0  0  0  0  0  0  0  0
   13.2213   -8.4089    0.0000 C   0  0  0  0  0  0  0  0  0  0  0  0
   13.2213   -7.5839    0.0000 C   0  0  0  0  0  0  0  0  0  0  0  0
   12.5069   -7.1714    0.0000 C   0  0  0  0  0  0  0  0  0  0  0  0
   11.7924   -7.5839    0.0000 C   0  0  0  0  0  0  0  0  0  0  0  0
   11.7924   -8.4089    0.0000 C   0  0  1  0  0  0  0  0  0  0  0  0
   11.0779   -8.8214    0.0000 C   0  0  0  0  0  0  0  0  0  0  0  0
   10.3635   -8.4089    0.0000 C   0  0  0  0  0  0  0  0  0  0  0  0
    9.6490   -8.8214    0.0000 C   0  0  0  0  0  0  0  0  0  0  0  0
    9.6490   -9.6464    0.0000 C   0  0  2  0  0  0  0  0  0  0  0  0
    8.9345  -10.0589    0.0000 C   0  0  1  0  0  0  0  0  0  0  0  0
   13.9358   -8.8214    0.0000 O   0  0  0  0  0  0  0  0  0  0  0  0
    8.9345   -9.2339    0.0000 C   0  0  0  0  0  0  0  0  0  0  0  0
   12.0944   -6.4570    0.0000 C   0  0  0  0  0  0  0  0  0  0  0  0
   12.9194   -6.4570    0.0000 C   0  0  0  0  0  0  0  0  0  0  0  0
   13.2213   -9.2339    0.0000 C   0  0  0  0  0  0  0  0  0  0  0  0
   11.0779  -10.4714    0.0000 C   0  0  0  0  0  0  0  0  0  0  0  0
   10.3635   -9.2339    0.0000 C   0  0  0  0  0  0  0  0  0  0  0  0
    8.6325  -12.0109    0.0000 C   0  0  0  0  0  0  0  0  0  0  0  0
    7.8075  -12.0109    0.0000 C   0  0  0  0  0  0  0  0  0  0  0  0
    8.9345  -11.7089    0.0000 H   0  0  0  0  0  0  0  0  0  0  0  0
   11.7924   -9.2339    0.0000 H   0  0  0  0  0  0  0  0  0  0  0  0
    9.6490  -10.4714    0.0000 H   0  0  0  0  0  0  0  0  0  0  0  0
    6.7911  -11.2964    0.0000 O   0  0  0  0  0  0  0  0  0  0  0  0
    3.9197   -9.6701    0.0000 O   0  0  0  0  0  0  0  0  0  0  0  0
    3.9333  -11.3201    0.0000 O   0  0  0  0  0  0  0  0  0  0  0  0
    4.6239   -8.4268    0.0000 O   0  0  0  0  0  0  0  0  0  0  0  0
    6.0528   -8.4149    0.0000 O   0  0  0  0  0  0  0  0  0  0  0  0
    5.3417   -8.8333    0.0000 C   0  0  0  0  0  0  0  0  0  0  0  0
    6.0732  -10.8899    0.0000 C   0  0  1  0  0  0  0  0  0  0  0  0
    5.3622  -11.3083    0.0000 C   0  0  1  0  0  0  0  0  0  0  0  0
    4.6444  -10.9017    0.0000 C   0  0  2  0  0  0  0  0  0  0  0  0
    4.6375  -10.0767    0.0000 C   0  0  1  0  0  0  0  0  0  0  0  0
    5.3486   -9.6583    0.0000 C   0  0  2  0  0  0  0  0  0  0  0  0
    6.0664  -10.0649    0.0000 O   0  0  0  0  0  0  0  0  0  0  0  0
 63 57  1  1  0  0  0
 64  1  1  6  0  0  0
  2  3  1  0  0  0  0
 66 58  1  6  0  0  0
 65 59  1  1  0  0  0
 67 62  1  1  0  0  0
 62 60  1  0  0  0  0
 62 61  2  0  0  0  0
 68 63  1  0  0  0  0
 64 63  1  0  0  0  0
 65 64  1  0  0  0  0
 66 65  1  0  0  0  0
 67 66  1  0  0  0  0
 68 67  1  0  0  0  0
  3  4  1  0  0  0  0
  4  5  1  0  0  0  0
  5  6  1  0  0  0  0
  6  7  1  0  0  0  0
  2  7  1  0  0  0  0
  9 10  1  0  0  0  0
 10 11  1  0  0  0  0
 11 12  1  0  0  0  0
 12 13  1  0  0  0  0
 13 14  1  0  0  0  0
  9 14  1  0  0  0  0
 14 15  1  6  0  0  0
 13 16  1  1  0  0  0
 12 17  1  6  0  0  0
 11 18  1  6  0  0  0
 10  8  1  1  0  0  0
  4  8  1  6  0  0  0
 19 20  1  0  0  0  0
  7 19  1  1  0  0  0
  6 21  1  1  0  0  0
  5 22  1  1  0  0  0
  3  1  1  1  0  0  0
 23 24  1  0  0  0  0
 24 25  1  0  0  0  0
 25 26  1  0  0  0  0
 26 27  1  0  0  0  0
 27 28  1  0  0  0  0
 28 29  1  0  0  0  0
 29 30  1  0  0  0  0
 30 31  1  0  0  0  0
 31 32  1  0  0  0  0
 32 33  1  0  0  0  0
 33 34  1  0  0  0  0
 34 35  1  0  0  0  0
 35 36  1  0  0  0  0
 36 37  1  0  0  0  0
 37 38  1  0  0  0  0
 38 39  1  0  0  0  0
 34 39  1  0  0  0  0
 39 40  1  0  0  0  0
 31 40  1  0  0  0  0
 40 41  2  0  0  0  0
 41 42  1  0  0  0  0
 42 43  1  0  0  0  0
 30 43  1  0  0  0  0
 43 44  1  0  0  0  0
 27 44  1  0  0  0  0
 23 44  1  0  0  0  0
 35 45  2  0  0  0  0
 44 46  1  1  0  0  0
 37 47  1  0  0  0  0
 37 48  1  0  0  0  0
 34 49  1  1  0  0  0
 31 50  1  6  0  0  0
 30 51  1  1  0  0  0
 26 52  1  0  0  0  0
 26 53  1  0  0  0  0
 25 57  1  1  0  0  0
 27 54  1  6  0  0  0
 39 55  1  1  0  0  0
 43 56  1  6  0  0  0
M  END
>  <cdx:groupId>
261414

>  <cdx:fragmentId>
261274

$$$$
