68054.cdx
  Mrv1902 05222410232D          

 31 31  0  0  0  0            999 V2000
    8.1629   -5.3047    0.0000 C   0  0  0  0  0  0  0  0  0  0  0  0
    8.1545   -4.4797    0.0000 C   0  0  0  0  0  0  0  0  0  0  0  0
    7.4358   -4.0746    0.0000 C   0  0  0  0  0  0  0  0  0  0  0  0
    6.7256   -4.4944    0.0000 C   0  0  0  0  0  0  0  0  0  0  0  0
    6.7341   -5.3193    0.0000 C   0  0  0  0  0  0  0  0  0  0  0  0
    7.4527   -5.7245    0.0000 C   0  0  0  0  0  0  0  0  0  0  0  0
    8.8816   -5.7098    0.0000 O   0  0  0  0  0  0  0  0  0  0  0  0
    7.8725   -6.4347    0.0000 C   0  0  0  0  0  0  0  0  0  0  0  0
    7.4673   -7.1533    0.0000 C   0  0  0  0  0  0  0  0  0  0  0  0
    7.8871   -7.8635    0.0000 C   0  0  0  0  0  0  0  0  0  0  0  0
    8.7121   -7.8551    0.0000 C   0  0  0  0  0  0  0  0  0  0  0  0
    7.4820   -8.5822    0.0000 C   0  0  0  0  0  0  0  0  0  0  0  0
    7.0476   -6.4431    0.0000 C   0  0  0  0  0  0  0  0  0  0  0  0
    6.2226   -6.4516    0.0000 C   0  0  0  0  0  0  0  0  0  0  0  0
    5.8174   -7.1702    0.0000 C   0  0  0  0  0  0  0  0  0  0  0  0
    6.2372   -7.8804    0.0000 C   0  0  0  0  0  0  0  0  0  0  0  0
    4.9925   -7.1787    0.0000 C   0  0  0  0  0  0  0  0  0  0  0  0
    6.0070   -4.0892    0.0000 C   0  0  0  0  0  0  0  0  0  0  0  0
    5.9985   -3.2642    0.0000 C   0  0  0  0  0  0  0  0  0  0  0  0
    5.2798   -2.8591    0.0000 C   0  0  0  0  0  0  0  0  0  0  0  0
    4.5696   -3.2789    0.0000 C   0  0  0  0  0  0  0  0  0  0  0  0
    5.2714   -2.0341    0.0000 C   0  0  0  0  0  0  0  0  0  0  0  0
    8.8647   -4.0599    0.0000 C   0  0  0  0  0  0  0  0  0  0  0  0
    8.8562   -3.2350    0.0000 C   0  0  0  0  0  0  0  0  0  0  0  0
    9.5664   -2.8152    0.0000 C   0  0  0  0  0  0  0  0  0  0  0  0
    9.5833   -4.4651    0.0000 O   0  0  0  0  0  0  0  0  0  0  0  0
    9.5580   -1.9902    0.0000 C   0  0  0  0  0  0  0  0  0  0  0  0
    6.0238   -5.7391    0.0000 O   0  0  0  0  0  0  0  0  0  0  0  0
    7.4274   -3.2496    0.0000 O   0  0  0  0  0  0  0  0  0  0  0  0
   10.2682   -1.5704    0.0000 C   0  0  0  0  0  0  0  0  0  0  0  0
   10.2851   -3.2203    0.0000 C   0  0  0  0  0  0  0  0  0  0  0  0
  1  2  1  0  0  0  0
  2  3  2  0  0  0  0
  3  4  1  0  0  0  0
  4  5  2  0  0  0  0
  5  6  1  0  0  0  0
  1  6  1  0  0  0  0
  1  7  2  0  0  0  0
  8  9  1  0  0  0  0
  9 10  2  0  0  0  0
 10 11  1  0  0  0  0
 10 12  1  0  0  0  0
  6  8  1  0  0  0  0
 13 14  1  0  0  0  0
 14 15  2  0  0  0  0
 15 16  1  0  0  0  0
 15 17  1  0  0  0  0
  6 13  1  0  0  0  0
 18 19  1  0  0  0  0
 19 20  2  0  0  0  0
 20 21  1  0  0  0  0
 20 22  1  0  0  0  0
  4 18  1  0  0  0  0
 23 24  1  0  0  0  0
 24 25  1  0  0  0  0
 23 26  2  0  0  0  0
 25 27  1  0  0  0  0
  2 23  1  0  0  0  0
  5 28  1  0  0  0  0
  3 29  1  0  0  0  0
 27 30  1  0  0  0  0
 25 31  1  0  0  0  0
M  END
>  <cdx:fragmentId>
5

$$$$
