68077.cdx
  Mrv1902 05222410222D          

 27 29  0  0  0  0            999 V2000
    7.3079   -3.4778    0.0000 C   0  0  0  0  0  0  0  0  0  0  0  0
    7.3079   -2.6528    0.0000 C   0  0  0  0  0  0  0  0  0  0  0  0
    6.5934   -2.2403    0.0000 C   0  0  0  0  0  0  0  0  0  0  0  0
    5.8789   -2.6528    0.0000 C   0  0  0  0  0  0  0  0  0  0  0  0
    5.8789   -3.4778    0.0000 C   0  0  0  0  0  0  0  0  0  0  0  0
    6.5934   -3.8903    0.0000 O   0  0  0  0  0  0  0  0  0  0  0  0
    5.1644   -3.8903    0.0000 C   0  0  0  0  0  0  0  0  0  0  0  0
    4.4500   -3.4778    0.0000 C   0  0  0  0  0  0  0  0  0  0  0  0
    4.4500   -2.6528    0.0000 C   0  0  0  0  0  0  0  0  0  0  0  0
    5.1644   -2.2403    0.0000 C   0  0  0  0  0  0  0  0  0  0  0  0
    6.5934   -1.4153    0.0000 O   0  0  0  0  0  0  0  0  0  0  0  0
    5.1644   -4.7153    0.0000 O   0  0  0  0  0  0  0  0  0  0  0  0
    4.4500   -5.1278    0.0000 C   0  0  0  0  0  0  0  0  0  0  0  0
    3.7355   -3.8903    0.0000 O   0  0  0  0  0  0  0  0  0  0  0  0
    3.0210   -3.4778    0.0000 C   0  0  0  0  0  0  0  0  0  0  0  0
    3.7355   -2.2403    0.0000 O   0  0  0  0  0  0  0  0  0  0  0  0
    3.0210   -2.6528    0.0000 C   0  0  0  0  0  0  0  0  0  0  0  0
    5.1644   -1.4153    0.0000 O   0  0  0  0  0  0  0  0  0  0  0  0
    4.4500   -1.0028    0.0000 C   0  0  0  0  0  0  0  0  0  0  0  0
    8.0223   -3.8903    0.0000 C   0  0  0  0  0  0  0  0  0  0  0  0
    8.7368   -3.4778    0.0000 C   0  0  0  0  0  0  0  0  0  0  0  0
    9.4513   -3.8903    0.0000 C   0  0  0  0  0  0  0  0  0  0  0  0
    9.4513   -4.7153    0.0000 C   0  0  0  0  0  0  0  0  0  0  0  0
    8.7368   -5.1278    0.0000 C   0  0  0  0  0  0  0  0  0  0  0  0
    8.0223   -4.7153    0.0000 C   0  0  0  0  0  0  0  0  0  0  0  0
   10.1657   -5.1278    0.0000 O   0  0  0  0  0  0  0  0  0  0  0  0
   10.8802   -4.7153    0.0000 C   0  0  0  0  0  0  0  0  0  0  0  0
  1  2  2  0  0  0  0
  2  3  1  0  0  0  0
  3  4  1  0  0  0  0
  4  5  1  0  0  0  0
  5  6  1  0  0  0  0
  1  6  1  0  0  0  0
  7  8  1  0  0  0  0
  8  9  2  0  0  0  0
  9 10  1  0  0  0  0
 10  4  2  0  0  0  0
  7  5  2  0  0  0  0
  3 11  2  0  0  0  0
 12 13  1  0  0  0  0
  7 12  1  0  0  0  0
 14 15  1  0  0  0  0
  8 14  1  0  0  0  0
 16 17  1  0  0  0  0
  9 16  1  0  0  0  0
 18 19  1  0  0  0  0
 10 18  1  0  0  0  0
 20 21  1  0  0  0  0
 21 22  2  0  0  0  0
 22 23  1  0  0  0  0
 23 24  2  0  0  0  0
 24 25  1  0  0  0  0
 20 25  2  0  0  0  0
 26 27  1  0  0  0  0
 23 26  1  0  0  0  0
  1 20  1  0  0  0  0
M  END
>  <cdx:groupId>
85

>  <cdx:fragmentId>
5

$$$$
