68082.cdx
  Mrv1902 05222410242D          

 16 18  0  0  0  0            999 V2000
    5.2726   -4.0024    0.0000 C   0  0  0  0  0  0  0  0  0  0  0  0
    5.2726   -4.8274    0.0000 C   0  0  0  0  0  0  0  0  0  0  0  0
    5.9871   -5.2399    0.0000 C   0  0  0  0  0  0  0  0  0  0  0  0
    6.7016   -4.8274    0.0000 C   0  0  0  0  0  0  0  0  0  0  0  0
    7.4160   -5.2399    0.0000 C   0  0  0  0  0  0  0  0  0  0  0  0
    8.1305   -4.8274    0.0000 C   0  0  0  0  0  0  0  0  0  0  0  0
    8.1305   -4.0024    0.0000 C   0  0  0  0  0  0  0  0  0  0  0  0
    7.4160   -3.5899    0.0000 C   0  0  0  0  0  0  0  0  0  0  0  0
    6.7016   -4.0024    0.0000 C   0  0  0  0  0  0  0  0  0  0  0  0
    5.9871   -3.5899    0.0000 O   0  0  0  0  0  0  0  0  0  0  0  0
    8.7436   -3.4504    0.0000 O   0  0  0  0  0  0  0  0  0  0  0  0
    7.5876   -2.7829    0.0000 C   0  0  0  0  0  0  0  0  0  0  0  0
    8.4080   -2.6967    0.0000 C   0  0  0  0  0  0  0  0  0  0  0  0
    4.5582   -3.5899    0.0000 O   0  0  0  0  0  0  0  0  0  0  0  0
    7.4160   -6.0649    0.0000 O   0  0  0  0  0  0  0  0  0  0  0  0
    8.1305   -6.4774    0.0000 C   0  0  0  0  0  0  0  0  0  0  0  0
  1  2  1  0  0  0  0
  2  3  2  0  0  0  0
  3  4  1  0  0  0  0
  4  5  1  0  0  0  0
  5  6  2  0  0  0  0
  6  7  1  0  0  0  0
  7  8  2  0  0  0  0
  8  9  1  0  0  0  0
  4  9  2  0  0  0  0
  9 10  1  0  0  0  0
  1 10  1  0  0  0  0
 12 13  2  0  0  0  0
 11 13  1  0  0  0  0
 11  7  1  0  0  0  0
 12  8  1  0  0  0  0
  1 14  2  0  0  0  0
 15 16  1  0  0  0  0
  5 15  1  0  0  0  0
M  END
>  <cdx:groupId>
52

>  <cdx:fragmentId>
5

$$$$
