68085.cdx
  Mrv1902 05222410242D          

 15 17  0  0  0  0            999 V2000
    4.4465   -2.8807    0.0000 N   0  0  0  0  0  0  0  0  0  0  0  0
    5.1609   -3.2932    0.0000 C   0  0  0  0  0  0  0  0  0  0  0  0
    5.1609   -4.1182    0.0000 C   0  0  0  0  0  0  0  0  0  0  0  0
    4.4465   -4.5307    0.0000 C   0  0  0  0  0  0  0  0  0  0  0  0
    3.7320   -4.1182    0.0000 C   0  0  0  0  0  0  0  0  0  0  0  0
    3.0175   -4.5307    0.0000 C   0  0  0  0  0  0  0  0  0  0  0  0
    2.3030   -4.1182    0.0000 C   0  0  0  0  0  0  0  0  0  0  0  0
    2.3030   -3.2932    0.0000 C   0  0  0  0  0  0  0  0  0  0  0  0
    3.0175   -2.8807    0.0000 C   0  0  0  0  0  0  0  0  0  0  0  0
    3.7320   -3.2932    0.0000 C   0  0  0  0  0  0  0  0  0  0  0  0
    5.9455   -3.0383    0.0000 O   0  0  0  0  0  0  0  0  0  0  0  0
    5.9455   -4.3732    0.0000 C   0  0  0  0  0  0  0  0  0  0  0  0
    6.4305   -3.7057    0.0000 C   0  0  0  0  0  0  0  0  0  0  0  0
    4.4465   -5.3557    0.0000 O   0  0  0  0  0  0  0  0  0  0  0  0
    5.1609   -5.7682    0.0000 C   0  0  0  0  0  0  0  0  0  0  0  0
  1  2  2  0  0  0  0
  2  3  1  0  0  0  0
  3  4  2  0  0  0  0
  4  5  1  0  0  0  0
  5  6  2  0  0  0  0
  6  7  1  0  0  0  0
  7  8  2  0  0  0  0
  8  9  1  0  0  0  0
  9 10  2  0  0  0  0
  1 10  1  0  0  0  0
  5 10  1  0  0  0  0
 12 13  2  0  0  0  0
 11 13  1  0  0  0  0
 11  2  1  0  0  0  0
 12  3  1  0  0  0  0
 14 15  1  0  0  0  0
  4 14  1  0  0  0  0
M  END
>  <cdx:groupId>
49

>  <cdx:fragmentId>
5

$$$$
