68081.cdx
  Mrv1902 05222410242D          

 20 22  0  0  0  0            999 V2000
    5.9975   -6.1841    0.0000 C   0  0  0  0  0  0  0  0  0  0  0  0
    5.9975   -7.0091    0.0000 C   0  0  0  0  0  0  0  0  0  0  0  0
    6.7119   -7.4216    0.0000 C   0  0  0  0  0  0  0  0  0  0  0  0
    7.4264   -7.0091    0.0000 C   0  0  0  0  0  0  0  0  0  0  0  0
    7.4264   -6.1841    0.0000 C   0  0  0  0  0  0  0  0  0  0  0  0
    6.7119   -5.7716    0.0000 C   0  0  0  0  0  0  0  0  0  0  0  0
    8.1409   -7.4216    0.0000 O   0  0  0  0  0  0  0  0  0  0  0  0
    8.8553   -7.0091    0.0000 C   0  0  0  0  0  0  0  0  0  0  0  0
    8.8553   -6.1841    0.0000 C   0  0  0  0  0  0  0  0  0  0  0  0
    8.1409   -5.7716    0.0000 C   0  0  0  0  0  0  0  0  0  0  0  0
    5.2128   -5.9291    0.0000 C   0  0  0  0  0  0  0  0  0  0  0  0
    4.7279   -6.5966    0.0000 C   0  0  0  0  0  0  0  0  0  0  0  0
    5.2128   -7.2640    0.0000 O   0  0  0  0  0  0  0  0  0  0  0  0
    9.5698   -7.4216    0.0000 O   0  0  0  0  0  0  0  0  0  0  0  0
    6.7119   -4.9466    0.0000 O   0  0  0  0  0  0  0  0  0  0  0  0
    7.4264   -4.5341    0.0000 C   0  0  0  0  0  0  0  0  0  0  0  0
    7.4264   -3.7091    0.0000 C   0  0  0  0  0  0  0  0  0  0  0  0
    8.1409   -3.2966    0.0000 C   0  0  0  0  0  0  0  0  0  0  0  0
    8.1409   -2.4716    0.0000 C   0  0  0  0  0  0  0  0  0  0  0  0
    8.8553   -3.7091    0.0000 C   0  0  0  0  0  0  0  0  0  0  0  0
  1  2  1  0  0  0  0
  2  3  2  0  0  0  0
  3  4  1  0  0  0  0
  4  5  2  0  0  0  0
  5  6  1  0  0  0  0
  6  1  2  0  0  0  0
  4  7  1  0  0  0  0
  7  8  1  0  0  0  0
  8  9  1  0  0  0  0
  9 10  2  0  0  0  0
 10  5  1  0  0  0  0
  1 11  1  0  0  0  0
 11 12  2  0  0  0  0
 12 13  1  0  0  0  0
 13  2  1  0  0  0  0
  8 14  2  0  0  0  0
  6 15  1  0  0  0  0
 15 16  1  0  0  0  0
 16 17  1  0  0  0  0
 17 18  2  0  0  0  0
 18 19  1  0  0  0  0
 18 20  1  0  0  0  0
M  END
>  <cdx:fragmentId>
3

$$$$
