68099.cdx
  Mrv1902 05222410222D          

 11 11  0  0  0  0            999 V2000
    3.9069   -4.2358    0.0000 C   0  0  0  0  0  0  0  0  0  0  0  0
    4.6213   -4.6483    0.0000 C   0  0  0  0  0  0  0  0  0  0  0  0
    5.3358   -4.2358    0.0000 C   0  0  0  0  0  0  0  0  0  0  0  0
    6.0503   -4.6483    0.0000 C   0  0  0  0  0  0  0  0  0  0  0  0
    6.0503   -5.4733    0.0000 C   0  0  0  0  0  0  0  0  0  0  0  0
    5.3358   -5.8858    0.0000 C   0  0  0  0  0  0  0  0  0  0  0  0
    4.6213   -5.4733    0.0000 C   0  0  0  0  0  0  0  0  0  0  0  0
    3.1924   -4.6483    0.0000 O   0  0  0  0  0  0  0  0  0  0  0  0
    3.9069   -5.8858    0.0000 O   0  0  0  0  0  0  0  0  0  0  0  0
    6.7648   -5.8858    0.0000 O   0  0  0  0  0  0  0  0  0  0  0  0
    5.3358   -3.4108    0.0000 O   0  0  0  0  0  0  0  0  0  0  0  0
  1  2  1  0  0  0  0
  2  3  1  0  0  0  0
  3  4  2  0  0  0  0
  4  5  1  0  0  0  0
  5  6  2  0  0  0  0
  6  7  1  0  0  0  0
  2  7  2  0  0  0  0
  1  8  2  0  0  0  0
  7  9  1  0  0  0  0
  5 10  1  0  0  0  0
  3 11  1  0  0  0  0
M  END
>  <cdx:groupId>
35

>  <cdx:fragmentId>
5

$$$$
