681.cdx
  Mrv1902 05222410272D          

 11 11  0  0  0  0            999 V2000
    5.7459   -5.0938    0.0000 C   0  0  0  0  0  0  0  0  0  0  0  0
    5.7459   -5.9188    0.0000 C   0  0  0  0  0  0  0  0  0  0  0  0
    6.4604   -6.3313    0.0000 C   0  0  0  0  0  0  0  0  0  0  0  0
    7.1748   -5.9188    0.0000 C   0  0  0  0  0  0  0  0  0  0  0  0
    7.1748   -5.0938    0.0000 C   0  0  0  0  0  0  0  0  0  0  0  0
    6.4604   -4.6813    0.0000 C   0  0  0  0  0  0  0  0  0  0  0  0
    5.0314   -4.6813    0.0000 O   0  0  0  0  0  0  0  0  0  0  0  0
    5.0314   -6.3313    0.0000 O   0  0  0  0  0  0  0  0  0  0  0  0
    7.8893   -6.3313    0.0000 C   0  0  0  0  0  0  0  0  0  0  0  0
    8.6038   -5.9188    0.0000 C   0  0  0  0  0  0  0  0  0  0  0  0
    9.3183   -6.3313    0.0000 N   0  0  0  0  0  0  0  0  0  0  0  0
  1  2  1  0  0  0  0
  2  3  2  0  0  0  0
  3  4  1  0  0  0  0
  4  5  2  0  0  0  0
  5  6  1  0  0  0  0
  1  6  2  0  0  0  0
  1  7  1  0  0  0  0
  2  8  1  0  0  0  0
  9 10  1  0  0  0  0
 10 11  1  0  0  0  0
  4  9  1  0  0  0  0
M  END
>  <cdx:fragmentId>
5

$$$$
