6811.cdx
  Mrv1902 05222410252D          

 11 12  0  0  0  0            999 V2000
    6.7434   -3.8852    0.0000 O   0  0  0  0  0  0  0  0  0  0  0  0
    6.2584   -3.2177    0.0000 C   0  0  0  0  0  0  0  0  0  0  0  0
    5.4738   -3.4727    0.0000 C   0  0  0  0  0  0  0  0  0  0  0  0
    5.4738   -4.2977    0.0000 C   0  0  0  0  0  0  0  0  0  0  0  0
    6.2584   -4.5526    0.0000 C   0  0  0  0  0  0  0  0  0  0  0  0
    4.7594   -4.7102    0.0000 C   0  0  0  0  0  0  0  0  0  0  0  0
    4.0449   -4.2977    0.0000 C   0  0  0  0  0  0  0  0  0  0  0  0
    4.0449   -3.4727    0.0000 C   0  0  0  0  0  0  0  0  0  0  0  0
    4.7594   -3.0602    0.0000 C   0  0  0  0  0  0  0  0  0  0  0  0
    6.5134   -2.4331    0.0000 O   0  0  0  0  0  0  0  0  0  0  0  0
    6.5134   -5.3372    0.0000 O   0  0  0  0  0  0  0  0  0  0  0  0
  1  2  1  0  0  0  0
  2  3  1  0  0  0  0
  3  4  1  0  0  0  0
  4  5  1  0  0  0  0
  1  5  1  0  0  0  0
  6  7  1  0  0  0  0
  7  8  2  0  0  0  0
  8  9  1  0  0  0  0
  9  3  2  0  0  0  0
  6  4  2  0  0  0  0
  2 10  2  0  0  0  0
  5 11  2  0  0  0  0
M  END
>  <cdx:groupId>
36

>  <cdx:fragmentId>
5

$$$$
