68148.cdx
  Mrv1902 05222410192D          

 10 10  0  0  0  0            999 V2000
    4.3058   -3.2932    0.0000 C   0  0  0  0  0  0  0  0  0  0  0  0
    5.0203   -2.8807    0.0000 C   0  0  0  0  0  0  0  0  0  0  0  0
    5.7347   -3.2932    0.0000 C   0  0  0  0  0  0  0  0  0  0  0  0
    5.7347   -4.1182    0.0000 C   0  0  0  0  0  0  0  0  0  0  0  0
    5.0203   -4.5307    0.0000 C   0  0  0  0  0  0  0  0  0  0  0  0
    4.3058   -4.1182    0.0000 C   0  0  0  0  0  0  0  0  0  0  0  0
    3.5913   -2.8807    0.0000 O   0  0  0  0  0  0  0  0  0  0  0  0
    6.4492   -4.5307    0.0000 C   0  0  0  0  0  0  0  0  0  0  0  0
    7.1637   -4.1182    0.0000 C   0  0  0  0  0  0  0  0  0  0  0  0
    7.8781   -4.5307    0.0000 C   0  0  0  0  0  0  0  0  0  0  0  0
  1  2  1  0  0  0  0
  2  3  2  0  0  0  0
  3  4  1  0  0  0  0
  4  5  2  0  0  0  0
  5  6  1  0  0  0  0
  1  6  2  0  0  0  0
  1  7  1  0  0  0  0
  8  9  1  0  0  0  0
  9 10  2  0  0  0  0
  4  8  1  0  0  0  0
M  END
>  <cdx:groupId>
32

>  <cdx:fragmentId>
5

$$$$
