68149.cdx
  Mrv1902 05222410192D          

 40 39  0  0  0  0            999 V2000
   12.2487   -5.5008    0.0000 C   0  0  0  0  0  0  0  0  0  0  0  0
   11.5342   -5.9133    0.0000 C   0  0  0  0  0  0  0  0  0  0  0  0
   10.8198   -5.5008    0.0000 C   0  0  0  0  0  0  0  0  0  0  0  0
   10.1053   -5.9133    0.0000 C   0  0  0  0  0  0  0  0  0  0  0  0
    9.3908   -5.5008    0.0000 C   0  0  0  0  0  0  0  0  0  0  0  0
    8.6764   -5.9133    0.0000 C   0  0  0  0  0  0  0  0  0  0  0  0
    7.9619   -5.5008    0.0000 C   0  0  0  0  0  0  0  0  0  0  0  0
    7.2474   -5.9133    0.0000 C   0  0  0  0  0  0  0  0  0  0  0  0
    6.5329   -5.5008    0.0000 C   0  0  0  0  0  0  0  0  0  0  0  0
    5.8185   -5.9133    0.0000 C   0  0  0  0  0  0  0  0  0  0  0  0
    5.1040   -5.5008    0.0000 C   0  0  0  0  0  0  0  0  0  0  0  0
    4.3895   -5.9133    0.0000 C   0  0  0  0  0  0  0  0  0  0  0  0
    3.6751   -5.5008    0.0000 C   0  0  0  0  0  0  0  0  0  0  0  0
    2.9606   -5.9133    0.0000 C   0  0  0  0  0  0  0  0  0  0  0  0
    2.2461   -5.5008    0.0000 C   0  0  0  0  0  0  0  0  0  0  0  0
    1.5316   -5.9133    0.0000 C   0  0  0  0  0  0  0  0  0  0  0  0
   12.2487   -4.6758    0.0000 O   0  0  0  0  0  0  0  0  0  0  0  0
   12.9632   -5.9133    0.0000 O   0  0  0  0  0  0  0  0  0  0  0  0
   13.6777   -5.5008    0.0000 C   0  0  0  0  0  0  0  0  0  0  0  0
   14.3921   -5.9133    0.0000 C   0  0  0  0  0  0  0  0  0  0  0  0
   15.1066   -5.5008    0.0000 C   0  0  0  0  0  0  0  0  0  0  0  0
   14.3921   -6.7383    0.0000 O   0  0  0  0  0  0  0  0  0  0  0  0
   15.8211   -5.9133    0.0000 O   0  0  0  0  0  0  0  0  0  0  0  0
   16.5355   -5.5008    0.0000 C   0  0  0  0  0  0  0  0  0  0  0  0
   17.2500   -5.9133    0.0000 C   0  0  0  0  0  0  0  0  0  0  0  0
   17.9645   -5.5008    0.0000 C   0  0  0  0  0  0  0  0  0  0  0  0
   18.6790   -5.9133    0.0000 C   0  0  0  0  0  0  0  0  0  0  0  0
   19.3934   -5.5008    0.0000 C   0  0  0  0  0  0  0  0  0  0  0  0
   20.1079   -5.9133    0.0000 C   0  0  0  0  0  0  0  0  0  0  0  0
   20.8224   -5.5008    0.0000 C   0  0  0  0  0  0  0  0  0  0  0  0
   21.5368   -5.9133    0.0000 C   0  0  0  0  0  0  0  0  0  0  0  0
   22.2513   -5.5008    0.0000 C   0  0  0  0  0  0  0  0  0  0  0  0
   22.9658   -5.9133    0.0000 C   0  0  0  0  0  0  0  0  0  0  0  0
   23.6802   -5.5008    0.0000 C   0  0  0  0  0  0  0  0  0  0  0  0
   24.3947   -5.9133    0.0000 C   0  0  0  0  0  0  0  0  0  0  0  0
   25.1092   -5.5008    0.0000 C   0  0  0  0  0  0  0  0  0  0  0  0
   25.8237   -5.9133    0.0000 C   0  0  0  0  0  0  0  0  0  0  0  0
   26.5381   -5.5008    0.0000 C   0  0  0  0  0  0  0  0  0  0  0  0
   27.2526   -5.9133    0.0000 C   0  0  0  0  0  0  0  0  0  0  0  0
   16.5355   -4.6758    0.0000 O   0  0  0  0  0  0  0  0  0  0  0  0
  1  2  1  0  0  0  0
  2  3  1  0  0  0  0
  3  4  1  0  0  0  0
  4  5  1  0  0  0  0
  5  6  1  0  0  0  0
  6  7  1  0  0  0  0
  7  8  1  0  0  0  0
  8  9  1  0  0  0  0
  9 10  1  0  0  0  0
 10 11  1  0  0  0  0
 11 12  1  0  0  0  0
 12 13  1  0  0  0  0
 13 14  1  0  0  0  0
 14 15  1  0  0  0  0
 15 16  1  0  0  0  0
  1 17  2  0  0  0  0
  1 18  1  0  0  0  0
 19 20  1  0  0  0  0
 20 21  1  0  0  0  0
 20 22  1  0  0  0  0
 24 25  1  0  0  0  0
 25 26  1  0  0  0  0
 26 27  1  0  0  0  0
 27 28  1  0  0  0  0
 28 29  1  0  0  0  0
 29 30  1  0  0  0  0
 30 31  1  0  0  0  0
 31 32  1  0  0  0  0
 32 33  1  0  0  0  0
 33 34  1  0  0  0  0
 34 35  1  0  0  0  0
 35 36  1  0  0  0  0
 36 37  1  0  0  0  0
 37 38  1  0  0  0  0
 38 39  1  0  0  0  0
 24 40  2  0  0  0  0
 23 24  1  0  0  0  0
 21 23  1  0  0  0  0
 18 19  1  0  0  0  0
M  END
>  <cdx:fragmentId>
51

$$$$
