68152.cdx
  Mrv1902 05222410282D          

  6  5  0  0  0  0            999 V2000
    6.2997   -4.7927    0.0000 C   0  0  0  0  0  0  0  0  0  0  0  0
    5.5852   -5.2052    0.0000 C   0  0  0  0  0  0  0  0  0  0  0  0
    4.8708   -4.7927    0.0000 C   0  0  0  0  0  0  0  0  0  0  0  0
    6.2997   -3.9677    0.0000 O   0  0  0  0  0  0  0  0  0  0  0  0
    7.0142   -5.2052    0.0000 O   0  0  0  0  0  0  0  0  0  0  0  0
    4.1563   -5.2052    0.0000 O   0  0  0  0  0  0  0  0  0  0  0  0
  1  2  1  0  0  0  0
  2  3  1  0  0  0  0
  1  4  2  0  0  0  0
  1  5  1  0  0  0  0
  3  6  1  0  0  0  0
M  END
>  <cdx:groupId>
19

>  <cdx:fragmentId>
5

$$$$
