681643.cdx
  Mrv1902 05222410282D          

 69 77  0  0  0  0            999 V2000
   15.8147   -7.1530    0.0000 C   0  0  0  0  0  0  0  0  0  0  0  0
   16.5292   -6.7405    0.0000 C   0  0  0  0  0  0  0  0  0  0  0  0
   17.2437   -7.1530    0.0000 C   0  0  2  0  0  0  0  0  0  0  0  0
   17.2437   -7.9780    0.0000 C   0  0  0  0  0  0  0  0  0  0  0  0
   16.5292   -8.3905    0.0000 C   0  0  2  0  0  0  0  0  0  0  0  0
   16.5292   -9.2155    0.0000 C   0  0  1  0  0  0  0  0  0  0  0  0
   15.8147   -9.6280    0.0000 C   0  0  0  0  0  0  0  0  0  0  0  0
   15.1002   -9.2155    0.0000 C   0  0  1  0  0  0  0  0  0  0  0  0
   14.3858   -9.6280    0.0000 C   0  0  2  0  0  0  0  0  0  0  0  0
   14.3858  -10.4530    0.0000 C   0  0  0  0  0  0  0  0  0  0  0  0
   13.6713  -10.8655    0.0000 C   0  0  0  0  0  0  0  0  0  0  0  0
   12.9568  -10.4530    0.0000 C   0  0  1  0  0  0  0  0  0  0  0  0
   12.2424  -10.8655    0.0000 C   0  0  0  0  0  0  0  0  0  0  0  0
   11.5279  -10.4530    0.0000 C   0  0  2  0  0  0  0  0  0  0  0  0
   11.5279   -9.6280    0.0000 C   0  0  0  0  0  0  0  0  0  0  0  0
   12.2424   -9.2155    0.0000 C   0  0  0  0  0  0  0  0  0  0  0  0
   12.9568   -9.6280    0.0000 C   0  0  2  0  0  0  0  0  0  0  0  0
   13.6713   -9.2155    0.0000 C   0  0  1  0  0  0  0  0  0  0  0  0
   13.6713   -8.3905    0.0000 C   0  0  0  0  0  0  0  0  0  0  0  0
   14.3858   -7.9780    0.0000 C   0  0  0  0  0  0  0  0  0  0  0  0
   15.1002   -8.3905    0.0000 C   0  0  0  0  0  0  0  0  0  0  0  0
   15.8147   -7.9780    0.0000 C   0  0  2  0  0  0  0  0  0  0  0  0
   17.2437   -8.8030    0.0000 C   0  0  0  0  0  0  0  0  0  0  0  0
   12.6549  -11.5800    0.0000 C   0  0  0  0  0  0  0  0  0  0  0  0
   11.8299  -11.5800    0.0000 C   0  0  0  0  0  0  0  0  0  0  0  0
   16.1167   -6.0260    0.0000 C   0  0  0  0  0  0  0  0  0  0  0  0
   16.9417   -6.0260    0.0000 C   0  0  0  0  0  0  0  0  0  0  0  0
   17.9581   -7.5655    0.0000 O   0  0  0  0  0  0  0  0  0  0  0  0
   10.8134  -10.8655    0.0000 O   0  0  0  0  0  0  0  0  0  0  0  0
    9.3845  -10.8655    0.0000 O   0  0  0  0  0  0  0  0  0  0  0  0
   10.0990  -10.4530    0.0000 C   0  0  2  0  0  0  0  0  0  0  0  0
   10.0990   -9.6280    0.0000 C   0  0  1  0  0  0  0  0  0  0  0  0
    9.3845   -9.2155    0.0000 C   0  0  2  0  0  0  0  0  0  0  0  0
    8.6700   -9.6280    0.0000 C   0  0  1  0  0  0  0  0  0  0  0  0
    8.6700  -10.4530    0.0000 C   0  0  1  0  0  0  0  0  0  0  0  0
    7.9555   -9.2155    0.0000 O   0  0  0  0  0  0  0  0  0  0  0  0
    9.3845   -8.3905    0.0000 O   0  0  0  0  0  0  0  0  0  0  0  0
   10.8134   -9.2155    0.0000 N   0  0  0  0  0  0  0  0  0  0  0  0
    7.9555  -10.8655    0.0000 C   0  0  0  0  0  0  0  0  0  0  0  0
    7.2411  -10.4530    0.0000 O   0  0  0  0  0  0  0  0  0  0  0  0
    5.8121  -10.4530    0.0000 O   0  0  0  0  0  0  0  0  0  0  0  0
    6.5266  -10.8655    0.0000 C   0  0  2  0  0  0  0  0  0  0  0  0
    6.5266  -11.6905    0.0000 C   0  0  1  0  0  0  0  0  0  0  0  0
    5.8121  -12.1030    0.0000 C   0  0  2  0  0  0  0  0  0  0  0  0
    5.0977  -11.6905    0.0000 C   0  0  2  0  0  0  0  0  0  0  0  0
    5.0977  -10.8655    0.0000 C   0  0  0  0  0  0  0  0  0  0  0  0
    7.2411  -12.1030    0.0000 O   0  0  0  0  0  0  0  0  0  0  0  0
    6.5266  -13.3405    0.0000 O   0  0  0  0  0  0  0  0  0  0  0  0
    7.2411  -12.9280    0.0000 C   0  0  2  0  0  0  0  0  0  0  0  0
    7.9555  -13.3405    0.0000 C   0  0  1  0  0  0  0  0  0  0  0  0
    7.9555  -14.1655    0.0000 C   0  0  2  0  0  0  0  0  0  0  0  0
    7.2411  -14.5780    0.0000 C   0  0  1  0  0  0  0  0  0  0  0  0
    6.5266  -14.1655    0.0000 C   0  0  0  0  0  0  0  0  0  0  0  0
    7.2411  -15.4030    0.0000 O   0  0  0  0  0  0  0  0  0  0  0  0
    8.6700  -14.5780    0.0000 O   0  0  0  0  0  0  0  0  0  0  0  0
    8.6700  -12.9280    0.0000 O   0  0  0  0  0  0  0  0  0  0  0  0
    4.3832  -12.1030    0.0000 O   0  0  0  0  0  0  0  0  0  0  0  0
    5.8121  -12.9280    0.0000 O   0  0  0  0  0  0  0  0  0  0  0  0
   12.9568  -11.2780    0.0000 H   0  0  0  0  0  0  0  0  0  0  0  0
   15.8147   -8.8030    0.0000 H   0  0  0  0  0  0  0  0  0  0  0  0
   12.9568   -8.8030    0.0000 C   0  0  0  0  0  0  0  0  0  0  0  0
   14.3858   -8.8030    0.0000 C   0  0  0  0  0  0  0  0  0  0  0  0
   15.1002  -10.0405    0.0000 C   0  0  0  0  0  0  0  0  0  0  0  0
   13.6713  -10.0405    0.0000 H   0  0  0  0  0  0  0  0  0  0  0  0
   17.2437   -9.6280    0.0000 O   0  0  0  0  0  0  0  0  0  0  0  0
   10.8134   -8.3905    0.0000 C   0  0  0  0  0  0  0  0  0  0  0  0
   10.0990   -7.9780    0.0000 C   0  0  0  0  0  0  0  0  0  0  0  0
   11.5279   -7.9780    0.0000 O   0  0  0  0  0  0  0  0  0  0  0  0
   17.9581   -9.2155    0.0000 O   0  0  0  0  0  0  0  0  0  0  0  0
  1  2  1  0  0  0  0
  2  3  1  0  0  0  0
  3  4  1  0  0  0  0
  4  5  1  0  0  0  0
  5  6  1  0  0  0  0
  6  7  1  0  0  0  0
  7  8  1  0  0  0  0
  8  9  1  0  0  0  0
  9 10  1  0  0  0  0
 10 11  1  0  0  0  0
 11 12  1  0  0  0  0
 12 13  1  0  0  0  0
 13 14  1  0  0  0  0
 14 15  1  0  0  0  0
 15 16  1  0  0  0  0
 16 17  1  0  0  0  0
 12 17  1  0  0  0  0
 17 18  1  0  0  0  0
  9 18  1  0  0  0  0
 18 19  1  0  0  0  0
 19 20  1  0  0  0  0
 20 21  2  0  0  0  0
  8 21  1  0  0  0  0
 21 22  1  0  0  0  0
  5 22  1  0  0  0  0
  1 22  1  0  0  0  0
  5 23  1  1  0  0  0
 13 24  1  0  0  0  0
 13 25  1  0  0  0  0
  2 26  1  0  0  0  0
  2 27  1  0  0  0  0
  3 28  1  1  0  0  0
 30 31  1  0  0  0  0
 31 32  1  0  0  0  0
 32 33  1  0  0  0  0
 33 34  1  0  0  0  0
 34 35  1  0  0  0  0
 30 35  1  0  0  0  0
 34 36  1  1  0  0  0
 33 37  1  6  0  0  0
 32 38  1  1  0  0  0
 41 42  1  0  0  0  0
 42 43  1  0  0  0  0
 43 44  1  0  0  0  0
 44 45  1  0  0  0  0
 45 46  1  0  0  0  0
 41 46  1  0  0  0  0
 48 49  1  0  0  0  0
 49 50  1  0  0  0  0
 50 51  1  0  0  0  0
 51 52  1  0  0  0  0
 52 53  1  0  0  0  0
 48 53  1  0  0  0  0
 52 54  1  6  0  0  0
 51 55  1  1  0  0  0
 50 56  1  6  0  0  0
 49 47  1  1  0  0  0
 43 47  1  6  0  0  0
 45 57  1  1  0  0  0
 44 58  1  1  0  0  0
 42 40  1  1  0  0  0
 39 40  1  0  0  0  0
 35 39  1  6  0  0  0
 31 29  1  6  0  0  0
 14 29  1  1  0  0  0
 12 59  1  6  0  0  0
 22 60  1  1  0  0  0
 17 61  1  1  0  0  0
  9 62  1  1  0  0  0
  8 63  1  6  0  0  0
 18 64  1  6  0  0  0
  6 65  1  6  0  0  0
 38 66  1  0  0  0  0
 66 67  1  0  0  0  0
 66 68  2  0  0  0  0
 28 23  1  0  0  0  0
 23 69  2  0  0  0  0
M  END
>  <cdx:fragmentId>
166833

$$$$
