68167.cdx
  Mrv1902 05222410202D          

 20 19  0  0  0  0            999 V2000
   12.8263   -3.9883    0.0000 C   0  0  0  0  0  0  0  0  0  0  0  0
   12.1118   -4.4008    0.0000 C   0  0  0  0  0  0  0  0  0  0  0  0
   11.3973   -3.9883    0.0000 C   0  0  0  0  0  0  0  0  0  0  0  0
   10.6829   -4.4008    0.0000 C   0  0  0  0  0  0  0  0  0  0  0  0
    9.9684   -3.9883    0.0000 C   0  0  0  0  0  0  0  0  0  0  0  0
    9.2539   -4.4008    0.0000 C   0  0  0  0  0  0  0  0  0  0  0  0
    8.5395   -3.9883    0.0000 C   0  0  0  0  0  0  0  0  0  0  0  0
    7.8250   -4.4008    0.0000 C   0  0  0  0  0  0  0  0  0  0  0  0
    7.1105   -3.9883    0.0000 C   0  0  0  0  0  0  0  0  0  0  0  0
    6.3960   -3.5758    0.0000 C   0  0  0  0  0  0  0  0  0  0  0  0
    5.6816   -3.1633    0.0000 C   0  0  0  0  0  0  0  0  0  0  0  0
    4.9671   -3.5758    0.0000 C   0  0  0  0  0  0  0  0  0  0  0  0
    4.2526   -3.1633    0.0000 C   0  0  0  0  0  0  0  0  0  0  0  0
    3.5382   -3.5758    0.0000 C   0  0  0  0  0  0  0  0  0  0  0  0
    2.8237   -3.1633    0.0000 C   0  0  0  0  0  0  0  0  0  0  0  0
    2.1092   -3.5758    0.0000 C   0  0  0  0  0  0  0  0  0  0  0  0
    1.3947   -3.1633    0.0000 C   0  0  0  0  0  0  0  0  0  0  0  0
    0.6803   -3.5758    0.0000 C   0  0  0  0  0  0  0  0  0  0  0  0
   12.8263   -3.1633    0.0000 O   0  0  0  0  0  0  0  0  0  0  0  0
   13.5408   -4.4008    0.0000 O   0  0  0  0  0  0  0  0  0  0  0  0
  1  2  1  0  0  0  0
  2  3  1  0  0  0  0
  3  4  1  0  0  0  0
  4  5  1  0  0  0  0
  5  6  1  0  0  0  0
  6  7  1  0  0  0  0
  7  8  1  0  0  0  0
  8  9  1  0  0  0  0
  9 10  3  0  0  0  0
 10 11  1  0  0  0  0
 11 12  1  0  0  0  0
 12 13  1  0  0  0  0
 13 14  1  0  0  0  0
 14 15  1  0  0  0  0
 15 16  1  0  0  0  0
 16 17  1  0  0  0  0
 17 18  1  0  0  0  0
  1 19  2  0  0  0  0
  1 20  1  0  0  0  0
M  END
>  <cdx:groupId>
61

>  <cdx:fragmentId>
5

$$$$
