68171.cdx
  Mrv1902 05222410192D          

 27 26  0  0  0  0            999 V2000
    1.8017   -7.7836    0.0000 C   0  0  0  0  0  0  0  0  0  0  0  0
    2.5162   -8.1961    0.0000 C   0  0  0  0  0  0  0  0  0  0  0  0
    3.2307   -7.7836    0.0000 C   0  0  0  0  0  0  0  0  0  0  0  0
    3.9451   -8.1961    0.0000 C   0  0  0  0  0  0  0  0  0  0  0  0
    4.6596   -7.7836    0.0000 C   0  0  0  0  0  0  0  0  0  0  0  0
    5.3741   -8.1961    0.0000 C   0  0  0  0  0  0  0  0  0  0  0  0
    6.0885   -7.7836    0.0000 C   0  0  0  0  0  0  0  0  0  0  0  0
    6.8030   -8.1961    0.0000 C   0  0  0  0  0  0  0  0  0  0  0  0
    7.5175   -7.7836    0.0000 C   0  0  0  0  0  0  0  0  0  0  0  0
    8.2319   -8.1961    0.0000 C   0  0  0  0  0  0  0  0  0  0  0  0
    8.9464   -7.7836    0.0000 C   0  0  0  0  0  0  0  0  0  0  0  0
    9.6609   -8.1961    0.0000 C   0  0  0  0  0  0  0  0  0  0  0  0
   10.3754   -7.7836    0.0000 C   0  0  0  0  0  0  0  0  0  0  0  0
   11.0898   -8.1961    0.0000 C   0  0  0  0  0  0  0  0  0  0  0  0
   11.8043   -7.7836    0.0000 C   0  0  0  0  0  0  0  0  0  0  0  0
   12.5188   -8.1961    0.0000 C   0  0  0  0  0  0  0  0  0  0  0  0
   13.2332   -7.7836    0.0000 C   0  0  0  0  0  0  0  0  0  0  0  0
   13.9477   -8.1961    0.0000 C   0  0  0  0  0  0  0  0  0  0  0  0
   14.6622   -7.7836    0.0000 C   0  0  0  0  0  0  0  0  0  0  0  0
   15.3767   -8.1961    0.0000 C   0  0  0  0  0  0  0  0  0  0  0  0
   16.0911   -7.7836    0.0000 C   0  0  0  0  0  0  0  0  0  0  0  0
   16.8056   -8.1961    0.0000 C   0  0  0  0  0  0  0  0  0  0  0  0
   17.5201   -7.7836    0.0000 C   0  0  0  0  0  0  0  0  0  0  0  0
   18.2345   -8.1961    0.0000 C   0  0  0  0  0  0  0  0  0  0  0  0
   18.9490   -7.7836    0.0000 C   0  0  0  0  0  0  0  0  0  0  0  0
   19.6635   -8.1961    0.0000 C   0  0  0  0  0  0  0  0  0  0  0  0
    1.0872   -8.1961    0.0000 O   0  0  0  0  0  0  0  0  0  0  0  0
  1  2  1  0  0  0  0
  2  3  1  0  0  0  0
  3  4  1  0  0  0  0
  4  5  1  0  0  0  0
  5  6  1  0  0  0  0
  6  7  1  0  0  0  0
  7  8  1  0  0  0  0
  8  9  1  0  0  0  0
  9 10  1  0  0  0  0
 10 11  1  0  0  0  0
 11 12  1  0  0  0  0
 12 13  1  0  0  0  0
 13 14  1  0  0  0  0
 14 15  1  0  0  0  0
 15 16  1  0  0  0  0
 16 17  1  0  0  0  0
 17 18  1  0  0  0  0
 18 19  1  0  0  0  0
 19 20  1  0  0  0  0
 20 21  1  0  0  0  0
 21 22  1  0  0  0  0
 22 23  1  0  0  0  0
 23 24  1  0  0  0  0
 24 25  1  0  0  0  0
 25 26  1  0  0  0  0
  1 27  1  0  0  0  0
M  END
>  <cdx:groupId>
82

>  <cdx:fragmentId>
5

$$$$
