682184.cdx
  Mrv1902 05222410192D          

 20 21  0  0  0  0            999 V2000
   10.0355  -10.2132    0.0000 C   0  0  0  0  0  0  0  0  0  0  0  0
    9.3210   -9.8007    0.0000 C   0  0  0  0  0  0  0  0  0  0  0  0
    9.3210   -8.9757    0.0000 C   0  0  0  0  0  0  0  0  0  0  0  0
   10.0355   -8.5632    0.0000 C   0  0  0  0  0  0  0  0  0  0  0  0
   10.7500   -9.8007    0.0000 C   0  0  0  0  0  0  0  0  0  0  0  0
   10.7500   -8.9757    0.0000 C   0  0  0  0  0  0  0  0  0  0  0  0
   11.5346   -8.7208    0.0000 O   0  0  0  0  0  0  0  0  0  0  0  0
   12.0195   -9.3882    0.0000 C   0  0  0  0  0  0  0  0  0  0  0  0
   11.5346  -10.0557    0.0000 O   0  0  0  0  0  0  0  0  0  0  0  0
    3.6053   -9.8007    0.0000 C   0  0  0  0  0  0  0  0  0  0  0  0
    2.8908   -8.5632    0.0000 C   0  0  0  0  0  0  0  0  0  0  0  0
    3.6053   -8.9757    0.0000 C   0  0  0  0  0  0  0  0  0  0  0  0
    4.3197   -8.5632    0.0000 C   0  0  0  0  0  0  0  0  0  0  0  0
    5.0342   -8.9757    0.0000 N   0  0  0  0  0  0  0  0  0  0  0  0
    5.7487   -7.7382    0.0000 O   0  0  0  0  0  0  0  0  0  0  0  0
    8.6066   -8.5632    0.0000 C   0  0  0  0  0  0  0  0  0  0  0  0
    7.8921   -8.9757    0.0000 C   0  0  0  0  0  0  0  0  0  0  0  0
    7.1776   -8.5632    0.0000 C   0  0  0  0  0  0  0  0  0  0  0  0
    6.4632   -8.9757    0.0000 C   0  0  0  0  0  0  0  0  0  0  0  0
    5.7487   -8.5632    0.0000 C   0  0  0  0  0  0  0  0  0  0  0  0
 16  3  1  0  0  0  0
  4  6  2  0  0  0  0
  1  5  2  0  0  0  0
  2  1  1  0  0  0  0
  3  2  2  0  0  0  0
  4  3  1  0  0  0  0
  9  5  1  0  0  0  0
  6  5  1  0  0  0  0
  7  6  1  0  0  0  0
  8  7  1  0  0  0  0
  9  8  1  0  0  0  0
 14 13  1  0  0  0  0
 12 10  1  0  0  0  0
 12 11  1  0  0  0  0
 13 12  1  0  0  0  0
 20 14  1  0  0  0  0
 20 15  2  0  0  0  0
 17 16  1  0  0  0  0
 18 17  1  0  0  0  0
 19 18  2  0  0  0  0
 20 19  1  0  0  0  0
M  END
>  <cdx:groupId>
93382

>  <cdx:fragmentId>
93324

$$$$
