68229.cdx
  Mrv1902 05222410182D          

 17 19  0  0  0  0            999 V2000
    3.1548   -7.2930    0.0000 C   0  0  0  0  0  0  0  0  0  0  0  0
    3.1548   -8.1180    0.0000 C   0  0  0  0  0  0  0  0  0  0  0  0
    3.8692   -8.5305    0.0000 O   0  0  0  0  0  0  0  0  0  0  0  0
    4.5837   -8.1180    0.0000 C   0  0  0  0  0  0  0  0  0  0  0  0
    4.5837   -7.2930    0.0000 C   0  0  0  0  0  0  0  0  0  0  0  0
    3.8692   -6.8805    0.0000 C   0  0  0  0  0  0  0  0  0  0  0  0
    5.2982   -8.5305    0.0000 C   0  0  0  0  0  0  0  0  0  0  0  0
    6.0127   -8.1180    0.0000 C   0  0  0  0  0  0  0  0  0  0  0  0
    6.0127   -7.2930    0.0000 C   0  0  0  0  0  0  0  0  0  0  0  0
    5.2982   -6.8805    0.0000 C   0  0  0  0  0  0  0  0  0  0  0  0
    6.7271   -6.8805    0.0000 C   0  0  0  0  0  0  0  0  0  0  0  0
    6.7271   -6.0555    0.0000 C   0  0  0  0  0  0  0  0  0  0  0  0
    6.0127   -5.6430    0.0000 C   0  0  0  0  0  0  0  0  0  0  0  0
    5.2982   -6.0555    0.0000 O   0  0  0  0  0  0  0  0  0  0  0  0
    6.0127   -4.8180    0.0000 O   0  0  0  0  0  0  0  0  0  0  0  0
    2.3579   -8.3315    0.0000 C   0  0  0  0  0  0  0  0  0  0  0  0
    2.7423   -8.8325    0.0000 C   0  0  0  0  0  0  0  0  0  0  0  0
  1  2  1  0  0  0  0
  2  3  1  0  0  0  0
  3  4  1  0  0  0  0
  4  5  2  0  0  0  0
  5  6  1  0  0  0  0
  6  1  2  0  0  0  0
  4  7  1  0  0  0  0
  7  8  2  0  0  0  0
  8  9  1  0  0  0  0
  9 10  2  0  0  0  0
 10  5  1  0  0  0  0
  9 11  1  0  0  0  0
 11 12  2  0  0  0  0
 12 13  1  0  0  0  0
 13 14  1  0  0  0  0
 14 10  1  0  0  0  0
 13 15  2  0  0  0  0
  2 16  1  0  0  0  0
  2 17  1  0  0  0  0
M  END
>  <cdx:fragmentId>
5

$$$$
