8,9,10-trihydroxythymol.cdx
  Mrv1902 05222410202D          

 14 14  0  0  0  0            999 V2000
    4.9459   -7.2880    0.0000 C   0  0  0  0  0  0  0  0  0  0  0  0
    4.5334   -8.0025    0.0000 C   0  0  0  0  0  0  0  0  0  0  0  0
    4.9459   -8.7170    0.0000 C   0  0  0  0  0  0  0  0  0  0  0  0
    5.7709   -8.7170    0.0000 C   0  0  0  0  0  0  0  0  0  0  0  0
    6.1834   -8.0025    0.0000 C   0  0  0  0  0  0  0  0  0  0  0  0
    5.7709   -7.2880    0.0000 C   0  0  0  0  0  0  0  0  0  0  0  0
    3.7084   -8.0025    0.0000 C   0  0  0  0  0  0  0  0  0  0  0  0
    6.1834   -9.4314    0.0000 O   0  0  0  0  0  0  0  0  0  0  0  0
    7.0084   -8.0025    0.0000 C   0  0  0  0  0  0  0  0  0  0  0  0
    7.0084   -7.1775    0.0000 C   0  0  0  0  0  0  0  0  0  0  0  0
    7.5917   -6.5941    0.0000 O   0  0  0  0  0  0  0  0  0  0  0  0
    7.0084   -8.8275    0.0000 C   0  0  0  0  0  0  0  0  0  0  0  0
    7.5917   -9.4109    0.0000 O   0  0  0  0  0  0  0  0  0  0  0  0
    7.8334   -8.0025    0.0000 O   0  0  0  0  0  0  0  0  0  0  0  0
  1  2  2  0  0  0  0
  2  3  1  0  0  0  0
  3  4  2  0  0  0  0
  4  5  1  0  0  0  0
  5  6  2  0  0  0  0
  6  1  1  0  0  0  0
  2  7  1  0  0  0  0
  4  8  1  0  0  0  0
  5  9  1  0  0  0  0
  9 10  1  0  0  0  0
 10 11  1  0  0  0  0
  9 12  1  0  0  0  0
 12 13  1  0  0  0  0
  9 14  1  0  0  0  0
M  END
>  <cdx:fragmentId>
5

$$$$
