68252.cdx
  Mrv1902 05222410262D          

 14 14  0  0  0  0            999 V2000
    5.1140   -3.6447    0.0000 C   0  0  0  0  0  0  0  0  0  0  0  0
    5.1140   -2.8197    0.0000 C   0  0  0  0  0  0  0  0  0  0  0  0
    5.8285   -2.4072    0.0000 C   0  0  0  0  0  0  0  0  0  0  0  0
    5.8285   -1.5822    0.0000 C   0  0  0  0  0  0  0  0  0  0  0  0
    6.5430   -2.8197    0.0000 C   0  0  0  0  0  0  0  0  0  0  0  0
    6.5430   -3.6447    0.0000 C   0  0  0  0  0  0  0  0  0  0  0  0
    5.8285   -4.0572    0.0000 C   0  0  0  0  0  0  0  0  0  0  0  0
    5.8285   -4.8822    0.0000 C   0  0  0  0  0  0  0  0  0  0  0  0
    6.5430   -5.2947    0.0000 C   0  0  0  0  0  0  0  0  0  0  0  0
    5.1140   -5.2947    0.0000 C   0  0  0  0  0  0  0  0  0  0  0  0
    3.6851   -3.6447    0.0000 C   0  0  0  0  0  0  0  0  0  0  0  0
    2.9706   -4.0572    0.0000 C   0  0  0  0  0  0  0  0  0  0  0  0
    3.6851   -2.8197    0.0000 O   0  0  0  0  0  0  0  0  0  0  0  0
    4.3996   -4.0572    0.0000 O   0  0  0  0  0  0  0  0  0  0  0  0
  1  2  1  0  0  0  0
  2  3  2  0  0  0  0
  3  4  1  0  0  0  0
  3  5  1  0  0  0  0
  5  6  2  0  0  0  0
  6  7  1  0  0  0  0
  7  8  1  0  0  0  0
  8  9  1  0  0  0  0
  8 10  1  0  0  0  0
  1  7  2  0  0  0  0
 11 12  1  0  0  0  0
 11 13  2  0  0  0  0
 11 14  1  0  0  0  0
  1 14  1  0  0  0  0
M  END
>  <cdx:groupId>
44

>  <cdx:fragmentId>
5

$$$$
