68263.cdx
  Mrv1902 05222410202D          

 12 13  0  0  0  0            999 V2000
    7.3932   -5.8396    0.0000 C   0  0  0  0  0  0  0  0  0  0  0  0
    7.4186   -5.0150    0.0000 O   0  0  0  0  0  0  0  0  0  0  0  0
    6.5549   -7.0473    0.0000 C   0  0  0  0  0  0  0  0  0  0  0  0
    5.7430   -7.1939    0.0000 N   0  0  0  0  0  0  0  0  0  0  0  0
    5.3527   -6.4671    0.0000 C   0  0  0  0  0  0  0  0  0  0  0  0
    5.9234   -5.8713    0.0000 C   0  0  0  0  0  0  0  0  0  0  0  0
    6.6664   -6.2299    0.0000 N   0  0  0  0  0  0  0  0  0  0  0  0
    8.8583   -5.9617    0.0000 C   0  0  0  0  0  0  0  0  0  0  0  0
    9.3912   -6.5915    0.0000 N   0  0  0  0  0  0  0  0  0  0  0  0
    8.9568   -7.2930    0.0000 C   0  0  0  0  0  0  0  0  0  0  0  0
    8.1555   -7.0966    0.0000 C   0  0  0  0  0  0  0  0  0  0  0  0
    8.0946   -6.2739    0.0000 N   0  0  0  0  0  0  0  0  0  0  0  0
  1  2  2  0  0  0  0
  3  4  2  0  0  0  0
  4  5  1  0  0  0  0
  5  6  2  0  0  0  0
  6  7  1  0  0  0  0
  3  7  1  0  0  0  0
  1  7  1  0  0  0  0
  8  9  2  0  0  0  0
  9 10  1  0  0  0  0
 10 11  2  0  0  0  0
 11 12  1  0  0  0  0
  8 12  1  0  0  0  0
  1 12  1  0  0  0  0
M  END
>  <cdx:groupId>
39

>  <cdx:fragmentId>
9

$$$$
