68260.cdx
  Mrv1902 05222410212D          

 25 27  0  0  0  0            999 V2000
    4.0705   -7.6450    0.0000 C   0  0  0  0  0  0  0  0  0  0  0  0
    4.0705   -8.4700    0.0000 C   0  0  0  0  0  0  0  0  0  0  0  0
    4.7850   -8.8825    0.0000 C   0  0  0  0  0  0  0  0  0  0  0  0
    5.4995   -8.4700    0.0000 C   0  0  0  0  0  0  0  0  0  0  0  0
    5.4995   -7.6450    0.0000 C   0  0  0  0  0  0  0  0  0  0  0  0
    4.7850   -7.2325    0.0000 C   0  0  0  0  0  0  0  0  0  0  0  0
    6.2841   -8.7249    0.0000 N   0  0  0  0  0  0  0  0  0  0  0  0
    6.7690   -8.0575    0.0000 C   0  0  0  0  0  0  0  0  0  0  0  0
    6.2841   -7.3901    0.0000 C   0  0  0  0  0  0  0  0  0  0  0  0
    6.5390   -6.6054    0.0000 C   0  0  0  0  0  0  0  0  0  0  0  0
    7.3460   -6.4339    0.0000 C   0  0  1  0  0  0  0  0  0  0  0  0
    7.9591   -6.9859    0.0000 C   0  0  0  0  0  0  0  0  0  0  0  0
    8.6736   -6.5734    0.0000 O   0  0  0  0  0  0  0  0  0  0  0  0
    8.5020   -5.7665    0.0000 C   0  0  1  0  0  0  0  0  0  0  0  0
    7.6816   -5.6802    0.0000 C   0  0  1  0  0  0  0  0  0  0  0  0
    7.8729   -7.8064    0.0000 O   0  0  0  0  0  0  0  0  0  0  0  0
    7.2691   -4.9658    0.0000 O   0  0  0  0  0  0  0  0  0  0  0  0
    9.0541   -5.1534    0.0000 C   0  0  2  0  0  0  0  0  0  0  0  0
    8.7991   -4.3688    0.0000 C   0  0  0  0  0  0  0  0  0  0  0  0
    9.3512   -3.7557    0.0000 O   0  0  0  0  0  0  0  0  0  0  0  0
    9.8610   -5.3249    0.0000 O   0  0  0  0  0  0  0  0  0  0  0  0
    9.3225   -5.8527    0.0000 H   0  0  0  0  0  0  0  0  0  0  0  0
    7.1325   -7.2308    0.0000 O   0  0  0  0  0  0  0  0  0  0  0  0
    6.5390   -9.5096    0.0000 O   0  0  0  0  0  0  0  0  0  0  0  0
    5.9870  -10.1227    0.0000 C   0  0  0  0  0  0  0  0  0  0  0  0
  1  2  2  0  0  0  0
  2  3  1  0  0  0  0
  3  4  2  0  0  0  0
  4  5  1  0  0  0  0
  5  6  2  0  0  0  0
  6  1  1  0  0  0  0
  4  7  1  0  0  0  0
  7  8  1  0  0  0  0
  8  9  2  0  0  0  0
  9  5  1  0  0  0  0
  9 10  1  0  0  0  0
 10 11  1  0  0  0  0
 11 12  1  0  0  0  0
 12 13  1  0  0  0  0
 13 14  1  0  0  0  0
 14 15  1  0  0  0  0
 15 11  1  0  0  0  0
 12 16  2  0  0  0  0
 15 17  1  6  0  0  0
 14 18  1  0  0  0  0
 18 19  1  0  0  0  0
 19 20  1  0  0  0  0
 18 21  1  6  0  0  0
 14 22  1  6  0  0  0
 11 23  1  1  0  0  0
  7 24  1  0  0  0  0
 24 25  1  0  0  0  0
M  END
>  <cdx:fragmentId>
67

$$$$
