68261.cdx
  Mrv1902 05222410212D          

 14 16  0  0  0  0            999 V2000
    7.3821   -7.3447    0.0000 N   0  0  0  0  0  0  0  0  0  0  0  0
    8.0965   -6.9322    0.0000 C   0  0  0  0  0  0  0  0  0  0  0  0
    8.0965   -6.1072    0.0000 N   0  0  0  0  0  0  0  0  0  0  0  0
    7.3821   -5.6947    0.0000 C   0  0  0  0  0  0  0  0  0  0  0  0
    6.6676   -6.1072    0.0000 C   0  0  0  0  0  0  0  0  0  0  0  0
    5.9531   -5.6947    0.0000 C   0  0  0  0  0  0  0  0  0  0  0  0
    5.2387   -6.1072    0.0000 C   0  0  0  0  0  0  0  0  0  0  0  0
    5.2387   -6.9322    0.0000 C   0  0  0  0  0  0  0  0  0  0  0  0
    5.9531   -7.3447    0.0000 C   0  0  0  0  0  0  0  0  0  0  0  0
    6.6676   -6.9322    0.0000 C   0  0  0  0  0  0  0  0  0  0  0  0
    8.8812   -7.1871    0.0000 C   0  0  0  0  0  0  0  0  0  0  0  0
    9.3661   -6.5197    0.0000 C   0  0  0  0  0  0  0  0  0  0  0  0
    8.8812   -5.8522    0.0000 C   0  0  0  0  0  0  0  0  0  0  0  0
    7.3821   -4.8697    0.0000 O   0  0  0  0  0  0  0  0  0  0  0  0
  1  2  2  0  0  0  0
  2  3  1  0  0  0  0
  3  4  1  0  0  0  0
  4  5  1  0  0  0  0
  5  6  1  0  0  0  0
  6  7  2  0  0  0  0
  7  8  1  0  0  0  0
  8  9  2  0  0  0  0
  9 10  1  0  0  0  0
  1 10  1  0  0  0  0
  5 10  2  0  0  0  0
 11 12  1  0  0  0  0
 12 13  1  0  0  0  0
 11  2  1  0  0  0  0
 13  3  1  0  0  0  0
  4 14  2  0  0  0  0
M  END
>  <cdx:fragmentId>
5

$$$$
