6826.cdx
  Mrv1902 05222410222D          

 12 12  0  0  0  0            999 V2000
    4.7497   -2.6169    0.0000 C   0  0  0  0  0  0  0  0  0  0  0  0
    4.0352   -3.0294    0.0000 C   0  0  0  0  0  0  0  0  0  0  0  0
    4.0352   -3.8544    0.0000 C   0  0  0  0  0  0  0  0  0  0  0  0
    3.3207   -4.2669    0.0000 C   0  0  0  0  0  0  0  0  0  0  0  0
    2.6063   -3.8544    0.0000 C   0  0  0  0  0  0  0  0  0  0  0  0
    2.6063   -3.0294    0.0000 C   0  0  0  0  0  0  0  0  0  0  0  0
    3.3207   -2.6169    0.0000 C   0  0  0  0  0  0  0  0  0  0  0  0
    4.7497   -1.7919    0.0000 O   0  0  0  0  0  0  0  0  0  0  0  0
    5.4641   -3.0294    0.0000 O   0  0  0  0  0  0  0  0  0  0  0  0
    4.7497   -4.2669    0.0000 N   0  0  0  0  0  0  0  0  0  0  0  0
    5.4641   -3.8544    0.0000 C   0  0  0  0  0  0  0  0  0  0  0  0
    6.1786   -2.6169    0.0000 C   0  0  0  0  0  0  0  0  0  0  0  0
  1  2  1  0  0  0  0
  2  3  1  0  0  0  0
  3  4  2  0  0  0  0
  4  5  1  0  0  0  0
  5  6  2  0  0  0  0
  6  7  1  0  0  0  0
  2  7  2  0  0  0  0
  1  8  2  0  0  0  0
  1  9  1  0  0  0  0
 10 11  1  0  0  0  0
  3 10  1  0  0  0  0
  9 12  1  0  0  0  0
M  END
>  <cdx:groupId>
38

>  <cdx:fragmentId>
5

$$$$
