68262.cdx
  Mrv1902 05222410212D          

 12 12  0  0  0  0            999 V2000
    7.4415   -6.8799    0.0000 C   0  0  0  0  0  0  0  0  0  0  0  0
    6.7270   -6.4674    0.0000 C   0  0  0  0  0  0  0  0  0  0  0  0
    6.7270   -5.6424    0.0000 C   0  0  0  0  0  0  0  0  0  0  0  0
    7.4415   -5.2299    0.0000 C   0  0  0  0  0  0  0  0  0  0  0  0
    8.1560   -5.6424    0.0000 C   0  0  0  0  0  0  0  0  0  0  0  0
    8.1560   -6.4674    0.0000 C   0  0  0  0  0  0  0  0  0  0  0  0
    7.4415   -7.7049    0.0000 O   0  0  0  0  0  0  0  0  0  0  0  0
    7.4415   -4.4049    0.0000 O   0  0  0  0  0  0  0  0  0  0  0  0
    8.8704   -6.8799    0.0000 O   0  0  0  0  0  0  0  0  0  0  0  0
    9.5849   -6.4674    0.0000 C   0  0  0  0  0  0  0  0  0  0  0  0
    6.0126   -6.8799    0.0000 O   0  0  0  0  0  0  0  0  0  0  0  0
    5.2981   -6.4674    0.0000 C   0  0  0  0  0  0  0  0  0  0  0  0
  1  2  1  0  0  0  0
  2  3  2  0  0  0  0
  3  4  1  0  0  0  0
  4  5  1  0  0  0  0
  5  6  2  0  0  0  0
  1  6  1  0  0  0  0
  1  7  2  0  0  0  0
  4  8  2  0  0  0  0
  9 10  1  0  0  0  0
  6  9  1  0  0  0  0
 11 12  1  0  0  0  0
  2 11  1  0  0  0  0
M  END
>  <cdx:groupId>
38

>  <cdx:fragmentId>
5

$$$$
