682746.cdx
  Mrv1902 05222410202D          

 21 22  0  0  0  0            999 V2000
    7.1956   -9.9880    0.0000 O   0  0  0  0  0  0  0  0  0  0  0  0
    5.7667   -7.5130    0.0000 O   0  0  0  0  0  0  0  0  0  0  0  0
   10.7680   -7.9255    0.0000 O   0  0  0  0  0  0  0  0  0  0  0  0
   10.0535   -7.5130    0.0000 C   0  0  0  0  0  0  0  0  0  0  0  0
    3.6233  -10.4005    0.0000 O   0  0  0  0  0  0  0  0  0  0  0  0
    3.6233   -8.7505    0.0000 C   0  0  0  0  0  0  0  0  0  0  0  0
    4.3378   -9.9880    0.0000 C   0  0  0  0  0  0  0  0  0  0  0  0
    4.3378   -9.1630    0.0000 C   0  0  0  0  0  0  0  0  0  0  0  0
    5.0522   -8.7505    0.0000 C   0  0  0  0  0  0  0  0  0  0  0  0
    5.7667   -9.1630    0.0000 C   0  0  0  0  0  0  0  0  0  0  0  0
    8.6246   -9.9880    0.0000 O   0  0  0  0  0  0  0  0  0  0  0  0
    8.6246   -7.5130    0.0000 O   0  0  0  0  0  0  0  0  0  0  0  0
    7.9101   -7.9255    0.0000 C   0  0  0  0  0  0  0  0  0  0  0  0
    7.1956   -7.5130    0.0000 C   0  0  0  0  0  0  0  0  0  0  0  0
    6.4812   -7.9255    0.0000 C   0  0  0  0  0  0  0  0  0  0  0  0
    6.4812   -8.7505    0.0000 C   0  0  0  0  0  0  0  0  0  0  0  0
    7.1956   -9.1630    0.0000 C   0  0  0  0  0  0  0  0  0  0  0  0
    7.9101   -8.7505    0.0000 C   0  0  0  0  0  0  0  0  0  0  0  0
    8.6246   -9.1630    0.0000 C   0  0  0  0  0  0  0  0  0  0  0  0
    9.3391   -8.7505    0.0000 C   0  0  0  0  0  0  0  0  0  0  0  0
    9.3391   -7.9255    0.0000 C   0  0  0  0  0  0  0  0  0  0  0  0
 17  1  1  0  0  0  0
 15  2  1  0  0  0  0
 21  4  1  0  0  0  0
  4  3  1  0  0  0  0
 16 10  1  0  0  0  0
  7  5  1  0  0  0  0
  8  6  1  0  0  0  0
  8  7  1  0  0  0  0
  9  8  2  0  0  0  0
 10  9  1  0  0  0  0
 19 11  2  0  0  0  0
 21 12  1  0  0  0  0
 13 12  1  0  0  0  0
 18 13  2  0  0  0  0
 14 13  1  0  0  0  0
 15 14  2  0  0  0  0
 16 15  1  0  0  0  0
 17 16  2  0  0  0  0
 18 17  1  0  0  0  0
 19 18  1  0  0  0  0
 20 19  1  0  0  0  0
 21 20  2  0  0  0  0
M  END
>  <cdx:fragmentId>
5

$$$$
