68289.cdx
  Mrv1902 05222410212D          

 10 11  0  0  0  0            999 V2000
    8.2369   -4.6892    0.0000 O   0  0  0  0  0  0  0  0  0  0  0  0
    8.7218   -5.3567    0.0000 C   0  0  0  0  0  0  0  0  0  0  0  0
    8.2369   -6.0241    0.0000 O   0  0  0  0  0  0  0  0  0  0  0  0
    7.4522   -5.7692    0.0000 C   0  0  0  0  0  0  0  0  0  0  0  0
    7.4522   -4.9442    0.0000 C   0  0  0  0  0  0  0  0  0  0  0  0
    6.7378   -6.1817    0.0000 C   0  0  0  0  0  0  0  0  0  0  0  0
    6.0233   -5.7692    0.0000 C   0  0  0  0  0  0  0  0  0  0  0  0
    6.0233   -4.9442    0.0000 C   0  0  0  0  0  0  0  0  0  0  0  0
    6.7378   -4.5317    0.0000 C   0  0  0  0  0  0  0  0  0  0  0  0
    5.3088   -6.1817    0.0000 O   0  0  0  0  0  0  0  0  0  0  0  0
  1  2  1  0  0  0  0
  2  3  1  0  0  0  0
  3  4  1  0  0  0  0
  4  5  1  0  0  0  0
  1  5  1  0  0  0  0
  6  7  1  0  0  0  0
  7  8  2  0  0  0  0
  8  9  1  0  0  0  0
  9  5  2  0  0  0  0
  6  4  2  0  0  0  0
  7 10  1  0  0  0  0
M  END
>  <cdx:groupId>
33

>  <cdx:fragmentId>
5

$$$$
