682801.cdx
  Mrv1902 05222410202D          

 16 16  0  0  0  0            999 V2000
    7.4224   -4.8206    0.0000 C   0  0  0  0  0  0  0  0  0  0  0  0
    5.2964   -6.0878    0.0000 C   0  0  0  0  0  0  0  0  0  0  0  0
    6.0051   -5.6654    0.0000 O   0  0  0  0  0  0  0  0  0  0  0  0
    6.7612   -8.5454    0.0000 C   0  0  0  0  0  0  0  0  0  0  0  0
    7.4683   -8.1203    0.0000 O   0  0  0  0  0  0  0  0  0  0  0  0
    8.8971   -8.1004    0.0000 C   0  0  0  0  0  0  0  0  0  0  0  0
    8.8856   -7.2755    0.0000 O   0  0  0  0  0  0  0  0  0  0  0  0
    8.1540   -6.0481    0.0000 C   0  0  0  0  0  0  0  0  0  0  0  0
    8.1655   -6.8730    0.0000 C   0  0  0  0  0  0  0  0  0  0  0  0
    7.4568   -7.2954    0.0000 C   0  0  0  0  0  0  0  0  0  0  0  0
    6.7367   -6.8928    0.0000 C   0  0  0  0  0  0  0  0  0  0  0  0
    6.7252   -6.0679    0.0000 C   0  0  0  0  0  0  0  0  0  0  0  0
    7.4339   -5.6455    0.0000 C   0  0  0  0  0  0  0  0  0  0  0  0
    8.1196   -3.5733    0.0000 C   0  0  0  0  0  0  0  0  0  0  0  0
    8.8512   -4.8008    0.0000 O   0  0  0  0  0  0  0  0  0  0  0  0
    8.1311   -4.3982    0.0000 C   0  0  0  0  0  0  0  0  0  0  0  0
 12  3  1  0  0  0  0
  3  2  1  0  0  0  0
 10  5  1  0  0  0  0
  5  4  1  0  0  0  0
  9  7  1  0  0  0  0
  7  6  1  0  0  0  0
 13  8  2  0  0  0  0
  9  8  1  0  0  0  0
 10  9  2  0  0  0  0
 11 10  1  0  0  0  0
 12 11  2  0  0  0  0
 13 12  1  0  0  0  0
  1 13  1  0  0  0  0
 16 14  1  0  0  0  0
  1 16  1  0  0  0  0
 16 15  2  0  0  0  0
M  END
>  <cdx:fragmentId>
194462

$$$$
