682800.cdx
  Mrv1902 05222410202D          

 16 16  0  0  0  0            999 V2000
    8.0188   -6.9934    0.0000 C   0  0  0  0  0  0  0  0  0  0  0  0
    7.2978   -6.5925    0.0000 C   0  0  0  0  0  0  0  0  0  0  0  0
    6.5901   -7.0166    0.0000 C   0  0  0  0  0  0  0  0  0  0  0  0
    8.7265   -6.5694    0.0000 O   0  0  0  0  0  0  0  0  0  0  0  0
    4.4670   -8.2887    0.0000 C   0  0  0  0  0  0  0  0  0  0  0  0
    5.1747   -7.8647    0.0000 O   0  0  0  0  0  0  0  0  0  0  0  0
    5.9376  -10.7429    0.0000 C   0  0  0  0  0  0  0  0  0  0  0  0
    6.6436  -10.3161    0.0000 O   0  0  0  0  0  0  0  0  0  0  0  0
    8.0724  -10.2930    0.0000 C   0  0  0  0  0  0  0  0  0  0  0  0
    8.0590   -9.4681    0.0000 O   0  0  0  0  0  0  0  0  0  0  0  0
    7.3245   -8.2423    0.0000 C   0  0  0  0  0  0  0  0  0  0  0  0
    7.3379   -9.0672    0.0000 C   0  0  0  0  0  0  0  0  0  0  0  0
    6.6302   -9.4913    0.0000 C   0  0  0  0  0  0  0  0  0  0  0  0
    5.9092   -9.0904    0.0000 C   0  0  0  0  0  0  0  0  0  0  0  0
    5.8958   -8.2655    0.0000 C   0  0  0  0  0  0  0  0  0  0  0  0
    6.6035   -7.8415    0.0000 C   0  0  0  0  0  0  0  0  0  0  0  0
 15  6  1  0  0  0  0
  6  5  1  0  0  0  0
 13  8  1  0  0  0  0
  8  7  1  0  0  0  0
 12 10  1  0  0  0  0
 10  9  1  0  0  0  0
 16 11  2  0  0  0  0
 12 11  1  0  0  0  0
 13 12  2  0  0  0  0
 14 13  1  0  0  0  0
 15 14  2  0  0  0  0
 16 15  1  0  0  0  0
  1  2  1  0  0  0  0
  2  3  2  0  0  0  0
  1  4  1  0  0  0  0
  3 16  1  0  0  0  0
M  END
>  <cdx:fragmentId>
194462

$$$$
