68316.cdx
  Mrv1902 05222410212D          

 11 11  0  0  0  0            999 V2000
    7.0460   -4.1989    0.0000 O   0  0  0  0  0  0  0  0  0  0  0  0
    6.4939   -4.8120    0.0000 C   0  0  0  0  0  0  0  0  0  0  0  0
    5.7403   -4.4765    0.0000 C   0  0  0  0  0  0  0  0  0  0  0  0
    5.8265   -3.6560    0.0000 C   0  0  0  0  0  0  0  0  0  0  0  0
    6.6335   -3.4844    0.0000 C   0  0  0  0  0  0  0  0  0  0  0  0
    5.0258   -4.8890    0.0000 C   0  0  0  0  0  0  0  0  0  0  0  0
    4.3113   -4.4765    0.0000 C   0  0  0  0  0  0  0  0  0  0  0  0
    3.5968   -4.8890    0.0000 C   0  0  0  0  0  0  0  0  0  0  0  0
    2.8824   -4.4765    0.0000 C   0  0  0  0  0  0  0  0  0  0  0  0
    2.1679   -4.8890    0.0000 C   0  0  0  0  0  0  0  0  0  0  0  0
    2.8824   -3.6515    0.0000 C   0  0  0  0  0  0  0  0  0  0  0  0
  1  2  1  0  0  0  0
  2  3  2  0  0  0  0
  3  4  1  0  0  0  0
  4  5  2  0  0  0  0
  1  5  1  0  0  0  0
  6  7  1  0  0  0  0
  7  8  1  0  0  0  0
  8  9  2  0  0  0  0
  9 10  1  0  0  0  0
  9 11  1  0  0  0  0
  3  6  1  0  0  0  0
M  END
>  <cdx:groupId>
35

>  <cdx:fragmentId>
15

$$$$
