68313.cdx
  Mrv1902 05222410232D          

 12 12  0  0  0  0            999 V2000
    3.4577   -3.0387    0.0000 C   0  0  0  0  0  0  0  0  0  0  0  0
    3.4577   -2.2138    0.0000 C   0  0  0  0  0  0  0  0  0  0  0  0
    4.1722   -1.8012    0.0000 C   0  0  0  0  0  0  0  0  0  0  0  0
    4.8866   -2.2137    0.0000 C   0  0  0  0  0  0  0  0  0  0  0  0
    4.8866   -3.0387    0.0000 C   0  0  0  0  0  0  0  0  0  0  0  0
    4.1722   -3.4513    0.0000 C   0  0  0  0  0  0  0  0  0  0  0  0
    2.7432   -3.4513    0.0000 O   0  0  0  0  0  0  0  0  0  0  0  0
    5.6011   -1.8012    0.0000 C   0  0  0  0  0  0  0  0  0  0  0  0
    6.3156   -2.2138    0.0000 C   0  0  0  0  0  0  0  0  0  0  0  0
    7.0300   -1.8013    0.0000 N   0  0  0  0  0  0  0  0  0  0  0  0
    7.0300   -0.9763    0.0000 C   0  0  0  0  0  0  0  0  0  0  0  0
    7.7445   -2.2138    0.0000 C   0  0  0  0  0  0  0  0  0  0  0  0
  1  2  1  0  0  0  0
  2  3  2  0  0  0  0
  3  4  1  0  0  0  0
  4  5  2  0  0  0  0
  5  6  1  0  0  0  0
  1  6  2  0  0  0  0
  1  7  1  0  0  0  0
  8  9  1  0  0  0  0
 10 11  1  0  0  0  0
 10 12  1  0  0  0  0
  9 10  1  0  0  0  0
  4  8  1  0  0  0  0
M  END
>  <cdx:groupId>
38

>  <cdx:fragmentId>
5

$$$$
