68381.cdx
  Mrv1902 05222410272D          

 12 12  0  0  0  0            999 V2000
    6.8735   -5.6158    0.0000 C   0  0  0  0  0  0  0  0  0  0  0  0
    7.5879   -6.0283    0.0000 C   0  0  0  0  0  0  0  0  0  0  0  0
    8.3024   -5.6158    0.0000 C   0  0  0  0  0  0  0  0  0  0  0  0
    9.0169   -6.0283    0.0000 C   0  0  0  0  0  0  0  0  0  0  0  0
    9.7313   -5.6158    0.0000 C   0  0  0  0  0  0  0  0  0  0  0  0
    6.8735   -4.7908    0.0000 O   0  0  0  0  0  0  0  0  0  0  0  0
    9.0169   -6.8533    0.0000 C   0  0  0  0  0  0  0  0  0  0  0  0
    4.8533   -6.3058    0.0000 C   0  0  0  0  0  0  0  0  0  0  0  0
    5.4053   -5.6927    0.0000 C   0  0  0  0  0  0  0  0  0  0  0  0
    6.1590   -6.0283    0.0000 C   0  0  0  0  0  0  0  0  0  0  0  0
    6.0728   -6.8488    0.0000 C   0  0  0  0  0  0  0  0  0  0  0  0
    5.2658   -7.0203    0.0000 O   0  0  0  0  0  0  0  0  0  0  0  0
 12  8  1  0  0  0  0
  9  8  2  0  0  0  0
 10  9  1  0  0  0  0
 11 10  2  0  0  0  0
 12 11  1  0  0  0  0
  1  2  1  0  0  0  0
  2  3  1  0  0  0  0
  3  4  1  0  0  0  0
  4  5  1  0  0  0  0
  1  6  2  0  0  0  0
  4  7  1  0  0  0  0
  1 10  1  0  0  0  0
M  END
>  <cdx:fragmentId>
5

$$$$
