68406.cdx
  Mrv1902 05222410182D          

 29 28  0  0  0  0            999 V2000
    3.6997   -8.3954    0.0000 C   0  0  0  0  0  0  0  0  0  0  0  0
    4.4142   -8.8079    0.0000 C   0  0  0  0  0  0  0  0  0  0  0  0
    5.1287   -8.3954    0.0000 C   0  0  0  0  0  0  0  0  0  0  0  0
    5.8432   -8.8079    0.0000 C   0  0  0  0  0  0  0  0  0  0  0  0
    6.5576   -8.3954    0.0000 C   0  0  0  0  0  0  0  0  0  0  0  0
    7.2721   -8.8079    0.0000 C   0  0  0  0  0  0  0  0  0  0  0  0
    7.9866   -8.3954    0.0000 C   0  0  0  0  0  0  0  0  0  0  0  0
    8.7010   -8.8079    0.0000 C   0  0  0  0  0  0  0  0  0  0  0  0
    9.4155   -8.3954    0.0000 C   0  0  0  0  0  0  0  0  0  0  0  0
   10.1300   -8.8079    0.0000 C   0  0  0  0  0  0  0  0  0  0  0  0
   10.8444   -8.3954    0.0000 C   0  0  0  0  0  0  0  0  0  0  0  0
   11.5589   -8.8079    0.0000 C   0  0  0  0  0  0  0  0  0  0  0  0
   12.2734   -8.3954    0.0000 C   0  0  0  0  0  0  0  0  0  0  0  0
   12.9879   -8.8079    0.0000 C   0  0  0  0  0  0  0  0  0  0  0  0
   13.7023   -8.3954    0.0000 C   0  0  0  0  0  0  0  0  0  0  0  0
   14.4168   -8.8079    0.0000 C   0  0  0  0  0  0  0  0  0  0  0  0
   15.1313   -8.3954    0.0000 C   0  0  0  0  0  0  0  0  0  0  0  0
   15.8457   -8.8079    0.0000 C   0  0  0  0  0  0  0  0  0  0  0  0
   16.5602   -8.3954    0.0000 C   0  0  0  0  0  0  0  0  0  0  0  0
   17.2747   -8.8079    0.0000 C   0  0  0  0  0  0  0  0  0  0  0  0
   17.9892   -8.3954    0.0000 C   0  0  0  0  0  0  0  0  0  0  0  0
   18.7036   -8.8079    0.0000 C   0  0  0  0  0  0  0  0  0  0  0  0
   19.4181   -8.3954    0.0000 C   0  0  0  0  0  0  0  0  0  0  0  0
   20.1326   -8.8079    0.0000 C   0  0  0  0  0  0  0  0  0  0  0  0
   20.8470   -8.3954    0.0000 C   0  0  0  0  0  0  0  0  0  0  0  0
   21.5615   -8.8079    0.0000 C   0  0  0  0  0  0  0  0  0  0  0  0
   22.2760   -8.3954    0.0000 C   0  0  0  0  0  0  0  0  0  0  0  0
   22.9905   -8.8079    0.0000 C   0  0  0  0  0  0  0  0  0  0  0  0
    2.9853   -8.8079    0.0000 O   0  0  0  0  0  0  0  0  0  0  0  0
  1  2  1  0  0  0  0
  2  3  1  0  0  0  0
  3  4  1  0  0  0  0
  4  5  1  0  0  0  0
  5  6  1  0  0  0  0
  6  7  1  0  0  0  0
  7  8  1  0  0  0  0
  8  9  1  0  0  0  0
  9 10  1  0  0  0  0
 10 11  1  0  0  0  0
 11 12  1  0  0  0  0
 12 13  1  0  0  0  0
 13 14  1  0  0  0  0
 14 15  1  0  0  0  0
 15 16  1  0  0  0  0
 16 17  1  0  0  0  0
 17 18  1  0  0  0  0
 18 19  1  0  0  0  0
 19 20  1  0  0  0  0
 20 21  1  0  0  0  0
 21 22  1  0  0  0  0
 22 23  1  0  0  0  0
 23 24  1  0  0  0  0
 24 25  1  0  0  0  0
 25 26  1  0  0  0  0
 26 27  1  0  0  0  0
 27 28  1  0  0  0  0
  1 29  1  0  0  0  0
M  END
>  <cdx:fragmentId>
5

$$$$
