6841.cdx
  Mrv1902 05222410182D          

 22 21  0  0  0  0            999 V2000
    7.1505   -5.1446    0.0000 C   0  0  0  0  0  0  0  0  0  0  0  0
    7.9755   -5.1446    0.0000 C   0  0  0  0  0  0  0  0  0  0  0  0
    6.7380   -4.4301    0.0000 O   0  0  0  0  0  0  0  0  0  0  0  0
    6.7380   -5.8590    0.0000 O   0  0  0  0  0  0  0  0  0  0  0  0
   11.6880   -5.8590    0.0000 O   0  0  0  0  0  0  0  0  0  0  0  0
    7.1505   -6.5735    0.0000 C   0  0  2  0  0  0  0  0  0  0  0  0
    7.9755   -6.5735    0.0000 C   0  0  0  0  0  0  0  0  0  0  0  0
    8.8005   -6.5735    0.0000 C   0  0  0  0  0  0  0  0  0  0  0  0
    9.6255   -6.5735    0.0000 C   0  0  0  0  0  0  0  0  0  0  0  0
   10.4505   -6.5735    0.0000 C   0  0  0  0  0  0  0  0  0  0  0  0
   11.2755   -6.5735    0.0000 C   0  0  1  0  0  0  0  0  0  0  0  0
   11.8589   -7.1569    0.0000 C   0  0  0  0  0  0  0  0  0  0  0  0
   12.6839   -7.1569    0.0000 C   0  0  0  0  0  0  0  0  0  0  0  0
    6.7380   -7.2880    0.0000 C   0  0  0  0  0  0  0  0  0  0  0  0
    5.9130   -7.2880    0.0000 C   0  0  0  0  0  0  0  0  0  0  0  0
    5.5005   -6.5735    0.0000 C   0  0  0  0  0  0  0  0  0  0  0  0
    4.6755   -6.5735    0.0000 C   0  0  0  0  0  0  0  0  0  0  0  0
    4.2630   -5.8590    0.0000 C   0  0  0  0  0  0  0  0  0  0  0  0
    3.4380   -5.8590    0.0000 C   0  0  0  0  0  0  0  0  0  0  0  0
    3.0255   -5.1446    0.0000 C   0  0  0  0  0  0  0  0  0  0  0  0
    2.2005   -5.1446    0.0000 C   0  0  0  0  0  0  0  0  0  0  0  0
    1.7880   -4.4301    0.0000 C   0  0  0  0  0  0  0  0  0  0  0  0
  1  2  1  0  0  0  0
  4  1  1  0  0  0  0
  1  3  2  0  0  0  0
  6  4  1  6  0  0  0
 11  5  1  6  0  0  0
  7  6  1  0  0  0  0
  8  7  3  0  0  0  0
  9  8  1  0  0  0  0
 10  9  3  0  0  0  0
 11 10  1  0  0  0  0
 12 11  1  0  0  0  0
 13 12  2  0  0  0  0
  6 14  1  0  0  0  0
 14 15  2  0  0  0  0
 15 16  1  0  0  0  0
 16 17  1  0  0  0  0
 17 18  1  0  0  0  0
 18 19  1  0  0  0  0
 19 20  1  0  0  0  0
 20 21  1  0  0  0  0
 21 22  1  0  0  0  0
M  END
>  <cdx:fragmentId>
3

$$$$
