6844.cdx
  Mrv1902 05222410202D          

 14 15  0  0  0  0            999 V2000
    3.8305   -2.8185    0.0000 C   0  0  0  0  0  0  0  0  0  0  0  0
    4.5449   -3.2310    0.0000 C   0  0  0  0  0  0  0  0  0  0  0  0
    4.5449   -4.0560    0.0000 C   0  0  0  0  0  0  0  0  0  0  0  0
    3.8305   -4.4685    0.0000 C   0  0  0  0  0  0  0  0  0  0  0  0
    3.1160   -4.0560    0.0000 C   0  0  0  0  0  0  0  0  0  0  0  0
    2.4015   -4.4685    0.0000 C   0  0  0  0  0  0  0  0  0  0  0  0
    1.6870   -4.0560    0.0000 C   0  0  0  0  0  0  0  0  0  0  0  0
    1.6870   -3.2310    0.0000 C   0  0  0  0  0  0  0  0  0  0  0  0
    2.4015   -2.8185    0.0000 C   0  0  0  0  0  0  0  0  0  0  0  0
    3.1160   -3.2310    0.0000 C   0  0  0  0  0  0  0  0  0  0  0  0
    5.2594   -2.8185    0.0000 C   0  0  0  0  0  0  0  0  0  0  0  0
    5.2594   -1.9935    0.0000 O   0  0  0  0  0  0  0  0  0  0  0  0
    5.9739   -3.2310    0.0000 O   0  0  0  0  0  0  0  0  0  0  0  0
    3.8305   -1.9935    0.0000 O   0  0  0  0  0  0  0  0  0  0  0  0
  1  2  1  0  0  0  0
  2  3  2  0  0  0  0
  3  4  1  0  0  0  0
  4  5  2  0  0  0  0
  5  6  1  0  0  0  0
  6  7  2  0  0  0  0
  7  8  1  0  0  0  0
  8  9  2  0  0  0  0
  9 10  1  0  0  0  0
  1 10  2  0  0  0  0
  5 10  1  0  0  0  0
 11 12  2  0  0  0  0
 11 13  1  0  0  0  0
  2 11  1  0  0  0  0
  1 14  1  0  0  0  0
M  END
>  <cdx:groupId>
45

>  <cdx:fragmentId>
5

$$$$
