68486.cdx
  Mrv1902 05222410232D          

 18 19  0  0  0  0            999 V2000
    8.4457   -6.5871    0.0000 C   0  0  0  0  0  0  0  0  0  0  0  0
    7.7312   -6.1746    0.0000 O   0  0  0  0  0  0  0  0  0  0  0  0
    9.8746   -7.4121    0.0000 C   0  0  0  0  0  0  0  0  0  0  0  0
    9.1602   -8.6496    0.0000 C   0  0  0  0  0  0  0  0  0  0  0  0
    9.1602   -7.8246    0.0000 C   0  0  0  0  0  0  0  0  0  0  0  0
    8.4457   -7.4121    0.0000 C   0  0  0  0  0  0  0  0  0  0  0  0
    7.7312   -7.8246    0.0000 C   0  0  0  0  0  0  0  0  0  0  0  0
    3.4444   -6.1746    0.0000 O   0  0  0  0  0  0  0  0  0  0  0  0
    4.8733   -6.1746    0.0000 O   0  0  0  0  0  0  0  0  0  0  0  0
    5.5878   -6.5871    0.0000 C   0  0  0  0  0  0  0  0  0  0  0  0
    6.3023   -6.1746    0.0000 C   0  0  0  0  0  0  0  0  0  0  0  0
    7.0167   -6.5871    0.0000 C   0  0  0  0  0  0  0  0  0  0  0  0
    7.0167   -7.4121    0.0000 C   0  0  0  0  0  0  0  0  0  0  0  0
    6.3023   -7.8246    0.0000 C   0  0  0  0  0  0  0  0  0  0  0  0
    5.5878   -7.4121    0.0000 C   0  0  0  0  0  0  0  0  0  0  0  0
    4.8733   -7.8246    0.0000 C   0  0  0  0  0  0  0  0  0  0  0  0
    4.1589   -7.4121    0.0000 C   0  0  0  0  0  0  0  0  0  0  0  0
    4.1589   -6.5871    0.0000 C   0  0  0  0  0  0  0  0  0  0  0  0
 12  2  1  0  0  0  0
  2  1  1  0  0  0  0
 13  7  1  0  0  0  0
  5  3  1  0  0  0  0
  5  4  1  0  0  0  0
  6  5  2  0  0  0  0
  7  6  1  0  0  0  0
 18  8  2  0  0  0  0
 18  9  1  0  0  0  0
 10  9  1  0  0  0  0
 15 10  2  0  0  0  0
 11 10  1  0  0  0  0
 12 11  2  0  0  0  0
 13 12  1  0  0  0  0
 14 13  2  0  0  0  0
 15 14  1  0  0  0  0
 16 15  1  0  0  0  0
 17 16  2  0  0  0  0
 18 17  1  0  0  0  0
M  END
>  <cdx:fragmentId>
5

$$$$
