68490.cdx
  Mrv1902 05222410242D          

 10 10  0  0  0  0            999 V2000
    4.5491   -3.3547    0.0000 C   0  0  0  0  0  0  0  0  0  0  0  0
    3.8346   -3.7672    0.0000 C   0  0  0  0  0  0  0  0  0  0  0  0
    5.2635   -3.7672    0.0000 C   0  0  0  0  0  0  0  0  0  0  0  0
    5.9780   -3.3547    0.0000 C   0  0  0  0  0  0  0  0  0  0  0  0
    6.6925   -3.7672    0.0000 C   0  0  0  0  0  0  0  0  0  0  0  0
    6.6925   -4.5922    0.0000 C   0  0  0  0  0  0  0  0  0  0  0  0
    5.9780   -5.0047    0.0000 C   0  0  0  0  0  0  0  0  0  0  0  0
    5.2635   -4.5922    0.0000 C   0  0  0  0  0  0  0  0  0  0  0  0
    3.1201   -3.3547    0.0000 O   0  0  0  0  0  0  0  0  0  0  0  0
    4.5491   -2.5297    0.0000 O   0  0  0  0  0  0  0  0  0  0  0  0
  1  2  1  0  0  0  0
  3  4  1  0  0  0  0
  4  5  2  0  0  0  0
  5  6  1  0  0  0  0
  6  7  2  0  0  0  0
  7  8  1  0  0  0  0
  3  8  2  0  0  0  0
  1  3  1  0  0  0  0
  2  9  1  0  0  0  0
  1 10  2  0  0  0  0
M  END
>  <cdx:groupId>
32

>  <cdx:fragmentId>
9

$$$$
