6853.cdx
  Mrv1902 05222410202D          

 13 15  0  0  0  0            999 V2000
    4.1002   -2.9578    0.0000 C   0  0  0  0  0  0  0  0  0  0  0  0
    4.7677   -3.4427    0.0000 C   0  0  0  0  0  0  0  0  0  0  0  0
    5.5747   -3.2711    0.0000 C   0  0  0  0  0  0  0  0  0  0  0  0
    6.1267   -3.8842    0.0000 C   0  0  0  0  0  0  0  0  0  0  0  0
    5.8718   -4.6689    0.0000 C   0  0  0  0  0  0  0  0  0  0  0  0
    5.0648   -4.8404    0.0000 C   0  0  0  0  0  0  0  0  0  0  0  0
    4.5127   -4.2273    0.0000 C   0  0  0  0  0  0  0  0  0  0  0  0
    3.6877   -4.2273    0.0000 C   0  0  0  0  0  0  0  0  0  0  0  0
    3.1357   -4.8404    0.0000 C   0  0  0  0  0  0  0  0  0  0  0  0
    2.3287   -4.6689    0.0000 C   0  0  0  0  0  0  0  0  0  0  0  0
    2.0738   -3.8842    0.0000 C   0  0  0  0  0  0  0  0  0  0  0  0
    2.6258   -3.2711    0.0000 C   0  0  0  0  0  0  0  0  0  0  0  0
    3.4328   -3.4427    0.0000 C   0  0  0  0  0  0  0  0  0  0  0  0
  1  2  1  0  0  0  0
  2  3  1  0  0  0  0
  3  4  2  0  0  0  0
  4  5  1  0  0  0  0
  5  6  2  0  0  0  0
  6  7  1  0  0  0  0
  2  7  2  0  0  0  0
  7  8  1  0  0  0  0
  8  9  1  0  0  0  0
  9 10  2  0  0  0  0
 10 11  1  0  0  0  0
 11 12  2  0  0  0  0
 12 13  1  0  0  0  0
  8 13  2  0  0  0  0
  1 13  1  0  0  0  0
M  END
>  <cdx:groupId>
43

>  <cdx:fragmentId>
5

$$$$
