6857.cdx
  Mrv1902 05222410182D          

 29 31  0  0  0  0            999 V2000
    4.7883   -9.5356    0.0000 C   0  0  0  0  0  0  0  0  0  0  0  0
    4.7883  -10.3606    0.0000 C   0  0  0  0  0  0  0  0  0  0  0  0
    5.5027  -10.7731    0.0000 C   0  0  0  0  0  0  0  0  0  0  0  0
    6.2172  -10.3606    0.0000 C   0  0  0  0  0  0  0  0  0  0  0  0
    6.2172   -9.5356    0.0000 C   0  0  0  0  0  0  0  0  0  0  0  0
    5.5027   -9.1231    0.0000 C   0  0  0  0  0  0  0  0  0  0  0  0
    6.9317  -10.7731    0.0000 C   0  0  0  0  0  0  0  0  0  0  0  0
    7.6462  -10.3606    0.0000 C   0  0  0  0  0  0  0  0  0  0  0  0
    7.6462   -9.5356    0.0000 C   0  0  0  0  0  0  0  0  0  0  0  0
    6.9317   -9.1231    0.0000 O   0  0  0  0  0  0  0  0  0  0  0  0
    5.5027  -11.5981    0.0000 C   0  0  0  0  0  0  0  0  0  0  0  0
    6.9317  -11.5981    0.0000 O   0  0  0  0  0  0  0  0  0  0  0  0
    8.3606   -9.1231    0.0000 C   0  0  0  0  0  0  0  0  0  0  0  0
    9.0751   -9.5356    0.0000 C   0  0  1  0  0  0  0  0  0  0  0  0
    9.7896   -9.1231    0.0000 C   0  0  0  0  0  0  0  0  0  0  0  0
    4.0738   -9.1231    0.0000 O   0  0  0  0  0  0  0  0  0  0  0  0
    9.0751  -10.3606    0.0000 O   0  0  0  0  0  0  0  0  0  0  0  0
    6.1964   -7.0738    0.0000 C   0  0  2  0  0  0  0  0  0  0  0  0
    5.4812   -6.6626    0.0000 C   0  0  2  0  0  0  0  0  0  0  0  0
    4.7675   -7.0764    0.0000 C   0  0  1  0  0  0  0  0  0  0  0  0
    4.7690   -7.9014    0.0000 C   0  0  2  0  0  0  0  0  0  0  0  0
    5.4842   -8.3126    0.0000 C   0  0  1  0  0  0  0  0  0  0  0  0
    6.1979   -7.8988    0.0000 O   0  0  0  0  0  0  0  0  0  0  0  0
    6.9102   -6.6600    0.0000 C   0  0  0  0  0  0  0  0  0  0  0  0
    4.0523   -6.6652    0.0000 O   0  0  0  0  0  0  0  0  0  0  0  0
    5.4797   -5.8376    0.0000 O   0  0  0  0  0  0  0  0  0  0  0  0
    4.0553   -8.3152    0.0000 O   0  0  0  0  0  0  0  0  0  0  0  0
    6.9087   -5.8350    0.0000 O   0  0  0  0  0  0  0  0  0  0  0  0
    6.1987   -8.7251    0.0000 H   0  0  0  0  0  0  0  0  0  0  0  0
  1  2  2  0  0  0  0
  2  3  1  0  0  0  0
  3  4  2  0  0  0  0
  4  5  1  0  0  0  0
  5  6  2  0  0  0  0
  6  1  1  0  0  0  0
  4  7  1  0  0  0  0
  7  8  1  0  0  0  0
  8  9  2  0  0  0  0
  9 10  1  0  0  0  0
 10  5  1  0  0  0  0
  3 11  1  0  0  0  0
  7 12  2  0  0  0  0
  9 13  1  0  0  0  0
 13 14  1  0  0  0  0
 14 15  1  0  0  0  0
  1 16  1  0  0  0  0
 14 17  1  1  0  0  0
 18 19  1  0  0  0  0
 19 20  1  0  0  0  0
 20 21  1  0  0  0  0
 21 22  1  0  0  0  0
 22 23  1  0  0  0  0
 23 18  1  0  0  0  0
 18 24  1  1  0  0  0
 20 25  1  1  0  0  0
 19 26  1  6  0  0  0
 21 27  1  6  0  0  0
 24 28  1  0  0  0  0
 22  6  1  0  0  0  0
 22 29  1  6  0  0  0
M  END
>  <cdx:fragmentId>
5

$$$$
