70686274.cdx
  Mrv1902 05222410272D          

 29 31  0  0  0  0            999 V2000
    8.1527  -15.1745    0.0000 C   0  0  1  0  0  0  0  0  0  0  0  0
    8.8671  -14.7620    0.0000 C   0  0  1  0  0  0  0  0  0  0  0  0
    8.8671  -13.9370    0.0000 C   0  0  1  0  0  0  0  0  0  0  0  0
    8.1527  -13.5245    0.0000 C   0  0  0  0  0  0  0  0  0  0  0  0
    7.4382  -13.9370    0.0000 C   0  0  0  0  0  0  0  0  0  0  0  0
    7.4382  -14.7620    0.0000 O   0  0  0  0  0  0  0  0  0  0  0  0
    9.6518  -13.6821    0.0000 C   0  0  1  0  0  0  0  0  0  0  0  0
   10.1367  -14.3495    0.0000 C   0  0  0  0  0  0  0  0  0  0  0  0
    9.6518  -15.0169    0.0000 C   0  0  0  0  0  0  0  0  0  0  0  0
    8.1527  -12.6995    0.0000 C   0  0  0  0  0  0  0  0  0  0  0  0
    8.8671  -12.2870    0.0000 O   0  0  0  0  0  0  0  0  0  0  0  0
    7.4382  -12.2870    0.0000 O   0  0  0  0  0  0  0  0  0  0  0  0
    8.1527  -15.9995    0.0000 O   0  0  0  0  0  0  0  0  0  0  0  0
    6.7237  -15.9995    0.0000 O   0  0  0  0  0  0  0  0  0  0  0  0
    7.4382  -16.4120    0.0000 C   0  0  2  0  0  0  0  0  0  0  0  0
    7.4382  -17.2370    0.0000 C   0  0  1  0  0  0  0  0  0  0  0  0
    6.7237  -17.6495    0.0000 C   0  0  2  0  0  0  0  0  0  0  0  0
    6.0092  -17.2370    0.0000 C   0  0  1  0  0  0  0  0  0  0  0  0
    6.0092  -16.4120    0.0000 C   0  0  1  0  0  0  0  0  0  0  0  0
    5.2948  -15.9995    0.0000 C   0  0  0  0  0  0  0  0  0  0  0  0
    4.5803  -16.4120    0.0000 O   0  0  0  0  0  0  0  0  0  0  0  0
    5.2948  -17.6495    0.0000 O   0  0  0  0  0  0  0  0  0  0  0  0
    6.7237  -18.4745    0.0000 O   0  0  0  0  0  0  0  0  0  0  0  0
    8.1527  -17.6495    0.0000 O   0  0  0  0  0  0  0  0  0  0  0  0
    9.9067  -15.8016    0.0000 C   0  0  0  0  0  0  0  0  0  0  0  0
    9.9067  -12.8974    0.0000 O   0  0  0  0  0  0  0  0  0  0  0  0
    8.9534  -13.1165    0.0000 H   0  0  0  0  0  0  0  0  0  0  0  0
    8.9534  -15.5825    0.0000 H   0  0  0  0  0  0  0  0  0  0  0  0
    7.4382  -11.4620    0.0000 C   0  0  0  0  0  0  0  0  0  0  0  0
  1  2  1  0  0  0  0
  2  3  1  0  0  0  0
  3  4  1  0  0  0  0
  4  5  2  0  0  0  0
  5  6  1  0  0  0  0
  1  6  1  0  0  0  0
  7  8  1  0  0  0  0
  8  9  1  0  0  0  0
  9  2  1  0  0  0  0
  7  3  1  0  0  0  0
 10 11  2  0  0  0  0
 10 12  1  0  0  0  0
  4 10  1  0  0  0  0
 14 15  1  0  0  0  0
 15 16  1  0  0  0  0
 16 17  1  0  0  0  0
 17 18  1  0  0  0  0
 18 19  1  0  0  0  0
 14 19  1  0  0  0  0
 20 21  1  0  0  0  0
 19 20  1  1  0  0  0
 18 22  1  6  0  0  0
 17 23  1  1  0  0  0
 16 24  1  6  0  0  0
 15 13  1  1  0  0  0
  1 13  1  6  0  0  0
  9 25  2  0  0  0  0
  7 26  1  6  0  0  0
  3 27  1  6  0  0  0
  2 28  1  6  0  0  0
 12 29  1  0  0  0  0
M  END
>  <cdx:groupId>
48775

>  <cdx:fragmentId>
48689

$$$$
