70686276.cdx
  Mrv1902 05222410262D          

 31 34  0  0  0  0            999 V2000
    8.5228  -14.6217    0.0000 C   0  0  2  0  0  0  0  0  0  0  0  0
    9.3074  -14.8767    0.0000 C   0  0  1  0  0  0  0  0  0  0  0  0
   10.1279  -14.9629    0.0000 O   0  0  0  0  0  0  0  0  0  0  0  0
    9.7923  -14.2092    0.0000 C   0  0  1  0  0  0  0  0  0  0  0  0
    9.3074  -13.5418    0.0000 C   0  0  2  0  0  0  0  0  0  0  0  0
    8.5228  -13.7967    0.0000 C   0  0  2  0  0  0  0  0  0  0  0  0
    7.8083  -13.3842    0.0000 C   0  0  0  0  0  0  0  0  0  0  0  0
    7.0938  -13.7967    0.0000 C   0  0  0  0  0  0  0  0  0  0  0  0
    7.0938  -14.6217    0.0000 O   0  0  0  0  0  0  0  0  0  0  0  0
    7.8083  -15.0342    0.0000 C   0  0  1  0  0  0  0  0  0  0  0  0
    7.8083  -12.5592    0.0000 C   0  0  0  0  0  0  0  0  0  0  0  0
    8.5228  -12.1467    0.0000 O   0  0  0  0  0  0  0  0  0  0  0  0
    7.0938  -12.1467    0.0000 O   0  0  0  0  0  0  0  0  0  0  0  0
    7.8083  -15.8592    0.0000 O   0  0  0  0  0  0  0  0  0  0  0  0
    6.3794  -15.8592    0.0000 O   0  0  0  0  0  0  0  0  0  0  0  0
    7.0938  -16.2717    0.0000 C   0  0  2  0  0  0  0  0  0  0  0  0
    7.0938  -17.0967    0.0000 C   0  0  1  0  0  0  0  0  0  0  0  0
    6.3794  -17.5092    0.0000 C   0  0  2  0  0  0  0  0  0  0  0  0
    5.6649  -17.0967    0.0000 C   0  0  1  0  0  0  0  0  0  0  0  0
    5.6649  -16.2717    0.0000 C   0  0  1  0  0  0  0  0  0  0  0  0
    4.9504  -15.8592    0.0000 C   0  0  0  0  0  0  0  0  0  0  0  0
    4.2360  -16.2717    0.0000 O   0  0  0  0  0  0  0  0  0  0  0  0
    4.9504  -17.5092    0.0000 O   0  0  0  0  0  0  0  0  0  0  0  0
    6.3794  -18.3342    0.0000 O   0  0  0  0  0  0  0  0  0  0  0  0
    7.8083  -17.5092    0.0000 O   0  0  0  0  0  0  0  0  0  0  0  0
    9.1359  -15.6837    0.0000 C   0  0  0  0  0  0  0  0  0  0  0  0
    9.5623  -12.7572    0.0000 O   0  0  0  0  0  0  0  0  0  0  0  0
    8.5228  -15.4467    0.0000 H   0  0  0  0  0  0  0  0  0  0  0  0
   10.5068  -13.7967    0.0000 H   0  0  0  0  0  0  0  0  0  0  0  0
    8.6090  -12.9763    0.0000 H   0  0  0  0  0  0  0  0  0  0  0  0
    7.0938  -11.3217    0.0000 C   0  0  0  0  0  0  0  0  0  0  0  0
  1  2  1  0  0  0  0
  2  3  1  0  0  0  0
  3  4  1  0  0  0  0
  4  5  1  0  0  0  0
  5  6  1  0  0  0  0
  6  7  1  0  0  0  0
  7  8  2  0  0  0  0
  8  9  1  0  0  0  0
  9 10  1  0  0  0  0
  1 10  1  0  0  0  0
  1  6  1  0  0  0  0
  2  4  1  0  0  0  0
 11 12  2  0  0  0  0
 11 13  1  0  0  0  0
  7 11  1  0  0  0  0
 15 16  1  0  0  0  0
 16 17  1  0  0  0  0
 17 18  1  0  0  0  0
 18 19  1  0  0  0  0
 19 20  1  0  0  0  0
 15 20  1  0  0  0  0
 21 22  1  0  0  0  0
 20 21  1  1  0  0  0
 19 23  1  6  0  0  0
 18 24  1  1  0  0  0
 17 25  1  6  0  0  0
 16 14  1  1  0  0  0
 10 14  1  6  0  0  0
  2 26  1  1  0  0  0
  5 27  1  6  0  0  0
  1 28  1  6  0  0  0
  4 29  1  1  0  0  0
  6 30  1  6  0  0  0
 13 31  1  0  0  0  0
M  END
>  <cdx:groupId>
194701

>  <cdx:fragmentId>
194608

$$$$
