6862.cdx
  Mrv1902 05222410262D          

 14 15  0  0  0  0            999 V2000
    4.1597   -2.4885    0.0000 C   0  0  0  0  0  0  0  0  0  0  0  0
    3.4452   -2.9010    0.0000 C   0  0  0  0  0  0  0  0  0  0  0  0
    4.1597   -1.6635    0.0000 O   0  0  0  0  0  0  0  0  0  0  0  0
    4.8741   -2.9010    0.0000 O   0  0  0  0  0  0  0  0  0  0  0  0
    3.4452   -3.7260    0.0000 C   0  0  0  0  0  0  0  0  0  0  0  0
    4.1597   -4.1385    0.0000 C   0  0  0  0  0  0  0  0  0  0  0  0
    4.1597   -4.9635    0.0000 C   0  0  0  0  0  0  0  0  0  0  0  0
    3.4452   -5.3760    0.0000 C   0  0  0  0  0  0  0  0  0  0  0  0
    2.7307   -4.9635    0.0000 C   0  0  0  0  0  0  0  0  0  0  0  0
    2.0162   -5.3760    0.0000 C   0  0  0  0  0  0  0  0  0  0  0  0
    1.3018   -4.9635    0.0000 C   0  0  0  0  0  0  0  0  0  0  0  0
    1.3018   -4.1385    0.0000 C   0  0  0  0  0  0  0  0  0  0  0  0
    2.0162   -3.7260    0.0000 C   0  0  0  0  0  0  0  0  0  0  0  0
    2.7307   -4.1385    0.0000 C   0  0  0  0  0  0  0  0  0  0  0  0
  1  2  1  0  0  0  0
  1  3  2  0  0  0  0
  1  4  1  0  0  0  0
  5  6  1  0  0  0  0
  6  7  2  0  0  0  0
  7  8  1  0  0  0  0
  8  9  2  0  0  0  0
  9 10  1  0  0  0  0
 10 11  2  0  0  0  0
 11 12  1  0  0  0  0
 12 13  2  0  0  0  0
 13 14  1  0  0  0  0
  5 14  2  0  0  0  0
  9 14  1  0  0  0  0
  2  5  1  0  0  0  0
M  END
>  <cdx:groupId>
45

>  <cdx:fragmentId>
13

$$$$
