6865.cdx
  Mrv1902 05222410282D          

 32 35  0  0  0  0            999 V2000
    7.0609   -7.3453    0.0000 H   0  0  0  0  0  0  0  0  0  0  0  0
    6.5278   -8.9797    0.0000 H   0  0  0  0  0  0  0  0  0  0  0  0
    6.4763   -8.1191    0.0000 O   0  0  0  0  0  0  0  0  0  0  0  0
    5.7999   -8.5915    0.0000 C   0  0  1  0  0  0  0  0  0  0  0  0
    5.1416   -8.0942    0.0000 C   0  0  1  0  0  0  0  0  0  0  0  0
    5.4112   -7.3144    0.0000 C   0  0  2  0  0  0  0  0  0  0  0  0
    6.2360   -7.3299    0.0000 C   0  0  1  0  0  0  0  0  0  0  0  0
    4.9388   -6.6381    0.0000 O   0  0  0  0  0  0  0  0  0  0  0  0
    4.3524   -8.3344    0.0000 O   0  0  0  0  0  0  0  0  0  0  0  0
    7.5521   -6.7731    0.0000 O   0  0  0  0  0  0  0  0  0  0  0  0
    6.9092   -5.2535    0.0000 O   0  0  0  0  0  0  0  0  0  0  0  0
    6.4119   -5.9118    0.0000 C   0  0  0  0  0  0  0  0  0  0  0  0
    6.7333   -6.6716    0.0000 C   0  0  2  0  0  0  0  0  0  0  0  0
    4.3558   -9.3896    0.0000 O   0  0  0  0  0  0  0  0  0  0  0  0
   10.7309  -12.3968    0.0000 O   0  0  0  0  0  0  0  0  0  0  0  0
    9.3331  -10.7204    0.0000 C   0  0  0  0  0  0  0  0  0  0  0  0
   10.0397  -11.1461    0.0000 C   0  0  0  0  0  0  0  0  0  0  0  0
   10.0243  -11.9710    0.0000 C   0  0  0  0  0  0  0  0  0  0  0  0
    9.3022  -12.3701    0.0000 C   0  0  0  0  0  0  0  0  0  0  0  0
    8.5956  -11.9443    0.0000 C   0  0  0  0  0  0  0  0  0  0  0  0
    8.6110  -11.1194    0.0000 C   0  0  0  0  0  0  0  0  0  0  0  0
    7.1669  -11.9176    0.0000 O   0  0  0  0  0  0  0  0  0  0  0  0
    7.2131   -9.4430    0.0000 O   0  0  0  0  0  0  0  0  0  0  0  0
    6.4911   -9.8421    0.0000 C   0  0  0  0  0  0  0  0  0  0  0  0
    5.7845   -9.4163    0.0000 C   0  0  0  0  0  0  0  0  0  0  0  0
    5.0624   -9.8154    0.0000 C   0  0  0  0  0  0  0  0  0  0  0  0
    5.0470  -10.6403    0.0000 C   0  0  0  0  0  0  0  0  0  0  0  0
    5.7536  -11.0660    0.0000 C   0  0  0  0  0  0  0  0  0  0  0  0
    6.4757  -10.6670    0.0000 C   0  0  0  0  0  0  0  0  0  0  0  0
    7.1823  -11.0927    0.0000 C   0  0  0  0  0  0  0  0  0  0  0  0
    7.9044  -10.6937    0.0000 C   0  0  0  0  0  0  0  0  0  0  0  0
    7.9198   -9.8688    0.0000 C   0  0  0  0  0  0  0  0  0  0  0  0
  7  1  1  6  0  0  0
  4  2  1  1  0  0  0
  4 25  1  0  0  0  0
 13 10  1  1  0  0  0
 12 11  1  0  0  0  0
 13 12  1  0  0  0  0
 26 14  1  0  0  0  0
 31 21  1  0  0  0  0
 18 15  1  0  0  0  0
 21 16  2  0  0  0  0
 17 16  1  0  0  0  0
 18 17  2  0  0  0  0
 19 18  1  0  0  0  0
 20 19  2  0  0  0  0
 21 20  1  0  0  0  0
 30 22  2  0  0  0  0
 32 23  1  0  0  0  0
 24 23  1  0  0  0  0
 29 24  2  0  0  0  0
 25 24  1  0  0  0  0
 26 25  2  0  0  0  0
 27 26  1  0  0  0  0
 28 27  2  0  0  0  0
 29 28  1  0  0  0  0
 30 29  1  0  0  0  0
 31 30  1  0  0  0  0
 32 31  2  0  0  0  0
  3  4  1  0  0  0  0
  4  5  1  0  0  0  0
  5  6  1  0  0  0  0
  6  7  1  0  0  0  0
  7  3  1  0  0  0  0
  6  8  1  1  0  0  0
  5  9  1  6  0  0  0
  7 13  1  0  0  0  0
M  END
>  <cdx:fragmentId>
5

$$$$
