6867.cdx
  Mrv1902 05222410272D          

 32 35  0  0  0  0            999 V2000
    7.0290   -7.3555    0.0000 H   0  0  0  0  0  0  0  0  0  0  0  0
    6.5310   -9.0009    0.0000 H   0  0  0  0  0  0  0  0  0  0  0  0
    6.4610   -8.1416    0.0000 O   0  0  0  0  0  0  0  0  0  0  0  0
    5.7949   -8.6283    0.0000 C   0  0  2  0  0  0  0  0  0  0  0  0
    5.1262   -8.1452    0.0000 C   0  0  1  0  0  0  0  0  0  0  0  0
    5.3790   -7.3599    0.0000 C   0  0  2  0  0  0  0  0  0  0  0  0
    6.2040   -7.3577    0.0000 C   0  0  1  0  0  0  0  0  0  0  0  0
    4.8923   -6.6938    0.0000 O   0  0  0  0  0  0  0  0  0  0  0  0
    4.3422   -8.4023    0.0000 O   0  0  0  0  0  0  0  0  0  0  0  0
    7.5078   -6.7730    0.0000 O   0  0  0  0  0  0  0  0  0  0  0  0
    6.8327   -5.2674    0.0000 O   0  0  0  0  0  0  0  0  0  0  0  0
    6.3495   -5.9362    0.0000 C   0  0  0  0  0  0  0  0  0  0  0  0
    6.6871   -6.6890    0.0000 C   0  0  2  0  0  0  0  0  0  0  0  0
    4.3682   -9.4572    0.0000 O   0  0  0  0  0  0  0  0  0  0  0  0
   10.8062  -12.3274    0.0000 O   0  0  0  0  0  0  0  0  0  0  0  0
    9.3728  -10.6812    0.0000 C   0  0  0  0  0  0  0  0  0  0  0  0
   10.0884  -11.0918    0.0000 C   0  0  0  0  0  0  0  0  0  0  0  0
   10.0906  -11.9168    0.0000 C   0  0  0  0  0  0  0  0  0  0  0  0
    9.3772  -12.3312    0.0000 C   0  0  0  0  0  0  0  0  0  0  0  0
    8.6616  -11.9206    0.0000 C   0  0  0  0  0  0  0  0  0  0  0  0
    8.6594  -11.0957    0.0000 C   0  0  0  0  0  0  0  0  0  0  0  0
    7.2327  -11.9245    0.0000 O   0  0  0  0  0  0  0  0  0  0  0  0
    7.2261   -9.4495    0.0000 O   0  0  0  0  0  0  0  0  0  0  0  0
    6.5127   -9.8639    0.0000 C   0  0  0  0  0  0  0  0  0  0  0  0
    5.7971   -9.4533    0.0000 C   0  0  0  0  0  0  0  0  0  0  0  0
    5.0838   -9.8678    0.0000 C   0  0  0  0  0  0  0  0  0  0  0  0
    5.0860  -10.6927    0.0000 C   0  0  0  0  0  0  0  0  0  0  0  0
    5.8016  -11.1033    0.0000 C   0  0  0  0  0  0  0  0  0  0  0  0
    6.5149  -10.6889    0.0000 C   0  0  0  0  0  0  0  0  0  0  0  0
    7.2305  -11.0995    0.0000 C   0  0  0  0  0  0  0  0  0  0  0  0
    7.9438  -10.6851    0.0000 C   0  0  0  0  0  0  0  0  0  0  0  0
    7.9416   -9.8601    0.0000 C   0  0  0  0  0  0  0  0  0  0  0  0
  7  1  1  6  0  0  0
  4  2  1  6  0  0  0
  4 25  1  0  0  0  0
 13 10  1  1  0  0  0
 12 11  1  0  0  0  0
 13 12  1  0  0  0  0
 26 14  1  0  0  0  0
 31 21  1  0  0  0  0
 18 15  1  0  0  0  0
 21 16  2  0  0  0  0
 17 16  1  0  0  0  0
 18 17  2  0  0  0  0
 19 18  1  0  0  0  0
 20 19  2  0  0  0  0
 21 20  1  0  0  0  0
 30 22  2  0  0  0  0
 32 23  1  0  0  0  0
 24 23  1  0  0  0  0
 29 24  2  0  0  0  0
 25 24  1  0  0  0  0
 26 25  2  0  0  0  0
 27 26  1  0  0  0  0
 28 27  2  0  0  0  0
 29 28  1  0  0  0  0
 30 29  1  0  0  0  0
 31 30  1  0  0  0  0
 32 31  2  0  0  0  0
  3  4  1  0  0  0  0
  4  5  1  0  0  0  0
  5  6  1  0  0  0  0
  6  7  1  0  0  0  0
  7  3  1  0  0  0  0
  6  8  1  1  0  0  0
  5  9  1  6  0  0  0
  7 13  1  0  0  0  0
M  END
>  <cdx:fragmentId>
5

$$$$
