687027.cdx
  Mrv1902 05222410272D          

 29 30  0  0  0  0            999 V2000
    5.9921   -9.2106    0.0000 C   0  0  2  0  0  0  0  0  0  0  0  0
    6.7041   -8.7939    0.0000 C   0  0  1  0  0  0  0  0  0  0  0  0
    7.4210   -9.2022    0.0000 C   0  0  0  0  0  0  0  0  0  0  0  0
    5.2752   -8.8023    0.0000 O   0  0  0  0  0  0  0  0  0  0  0  0
    5.9969  -10.0355    0.0000 C   0  0  0  0  0  0  0  0  0  0  0  0
    5.2849  -10.4522    0.0000 C   0  0  0  0  0  0  0  0  0  0  0  0
    5.2897  -11.2772    0.0000 C   0  0  0  0  0  0  0  0  0  0  0  0
    6.0066  -11.6855    0.0000 C   0  0  0  0  0  0  0  0  0  0  0  0
    6.7186  -11.2688    0.0000 C   0  0  0  0  0  0  0  0  0  0  0  0
    6.7138  -10.4438    0.0000 C   0  0  0  0  0  0  0  0  0  0  0  0
    7.4355  -11.6771    0.0000 O   0  0  0  0  0  0  0  0  0  0  0  0
    7.4404  -12.5021    0.0000 C   0  0  0  0  0  0  0  0  0  0  0  0
    6.0114  -12.5105    0.0000 O   0  0  0  0  0  0  0  0  0  0  0  0
    5.2994  -12.9272    0.0000 C   0  0  0  0  0  0  0  0  0  0  0  0
    4.5777  -11.6939    0.0000 O   0  0  0  0  0  0  0  0  0  0  0  0
    3.8632  -11.2814    0.0000 C   0  0  0  0  0  0  0  0  0  0  0  0
    9.5470   -6.3015    0.0000 C   0  0  0  0  0  0  0  0  0  0  0  0
    9.5420   -5.4765    0.0000 C   0  0  0  0  0  0  0  0  0  0  0  0
   10.2539   -5.0597    0.0000 C   0  0  0  0  0  0  0  0  0  0  0  0
   10.2489   -4.2347    0.0000 O   0  0  0  0  0  0  0  0  0  0  0  0
    6.6842   -5.4939    0.0000 C   0  0  0  0  0  0  0  0  0  0  0  0
    6.6892   -6.3189    0.0000 O   0  0  0  0  0  0  0  0  0  0  0  0
    8.1282   -7.9602    0.0000 C   0  0  0  0  0  0  0  0  0  0  0  0
    8.8401   -7.5433    0.0000 C   0  0  0  0  0  0  0  0  0  0  0  0
    8.8351   -6.7183    0.0000 C   0  0  0  0  0  0  0  0  0  0  0  0
    8.1181   -6.3102    0.0000 C   0  0  0  0  0  0  0  0  0  0  0  0
    7.4062   -6.7270    0.0000 C   0  0  0  0  0  0  0  0  0  0  0  0
    7.4112   -7.5520    0.0000 C   0  0  0  0  0  0  0  0  0  0  0  0
    6.6992   -7.9689    0.0000 O   0  0  0  0  0  0  0  0  0  0  0  0
 25 17  1  0  0  0  0
 27 22  1  0  0  0  0
 22 21  1  0  0  0  0
 29 28  1  0  0  0  0
 28 23  2  0  0  0  0
 24 23  1  0  0  0  0
 25 24  2  0  0  0  0
 26 25  1  0  0  0  0
 27 26  2  0  0  0  0
 28 27  1  0  0  0  0
  1  2  1  0  0  0  0
  2  3  1  0  0  0  0
  1  4  1  1  0  0  0
  5  6  1  0  0  0  0
  6  7  2  0  0  0  0
  7  8  1  0  0  0  0
  8  9  2  0  0  0  0
  9 10  1  0  0  0  0
  5 10  2  0  0  0  0
 11 12  1  0  0  0  0
  9 11  1  0  0  0  0
 13 14  1  0  0  0  0
  8 13  1  0  0  0  0
 15 16  1  0  0  0  0
  7 15  1  0  0  0  0
  1  5  1  0  0  0  0
 17 18  1  0  0  0  0
 18 19  1  0  0  0  0
 19 20  1  0  0  0  0
  2 29  1  6  0  0  0
M  END
>  <cdx:fragmentId>
194724

$$$$
