687155.cdx
  Mrv1902 05222410262D          

 40 41  0  0  0  0            999 V2000
    2.9654   -7.3249    0.0000 C   0  0  0  0  0  0  0  0  0  0  0  0
    2.9654   -6.4999    0.0000 C   0  0  0  0  0  0  0  0  0  0  0  0
    5.8233   -8.9749    0.0000 C   0  0  1  0  0  0  0  0  0  0  0  0
    4.3944   -7.3249    0.0000 N   0  0  0  0  0  0  0  0  0  0  0  0
    5.8233   -9.7999    0.0000 C   0  0  0  0  0  0  0  0  0  0  0  0
    6.5378  -10.2124    0.0000 C   0  0  0  0  0  0  0  0  0  0  0  0
    6.5378  -11.0374    0.0000 C   0  0  0  0  0  0  0  0  0  0  0  0
    5.8233  -11.4499    0.0000 C   0  0  0  0  0  0  0  0  0  0  0  0
    5.1088  -11.0374    0.0000 C   0  0  0  0  0  0  0  0  0  0  0  0
    5.1088  -10.2124    0.0000 C   0  0  0  0  0  0  0  0  0  0  0  0
    6.5378   -8.5624    0.0000 N   0  0  0  0  0  0  0  0  0  0  0  0
    7.2523   -8.9749    0.0000 C   0  0  0  0  0  0  0  0  0  0  0  0
    7.9667   -8.5624    0.0000 C   0  0  2  0  0  0  0  0  0  0  0  0
    7.9667   -7.7374    0.0000 C   0  0  0  0  0  0  0  0  0  0  0  0
    7.2523   -9.7999    0.0000 O   0  0  0  0  0  0  0  0  0  0  0  0
    8.6812   -8.9749    0.0000 N   0  0  0  0  0  0  0  0  0  0  0  0
    9.3957   -8.5624    0.0000 C   0  0  0  0  0  0  0  0  0  0  0  0
   10.1101   -8.9749    0.0000 C   0  0  0  0  0  0  0  0  0  0  0  0
    9.3957   -7.7374    0.0000 O   0  0  0  0  0  0  0  0  0  0  0  0
   10.8246   -8.5624    0.0000 N   0  0  0  0  0  0  0  0  0  0  0  0
   11.5391   -8.9749    0.0000 C   0  0  0  0  0  0  0  0  0  0  0  0
   11.5391   -9.7999    0.0000 O   0  0  0  0  0  0  0  0  0  0  0  0
   13.0072   -8.8980    0.0000 N   0  0  0  0  0  0  0  0  0  0  0  0
   12.2535   -8.5624    0.0000 C   0  0  0  0  0  0  0  0  0  0  0  0
   12.3398   -7.7420    0.0000 C   0  0  0  0  0  0  0  0  0  0  0  0
   13.1468   -7.5704    0.0000 C   0  0  0  0  0  0  0  0  0  0  0  0
   13.5593   -8.2849    0.0000 C   0  0  0  0  0  0  0  0  0  0  0  0
   10.8246  -10.2124    0.0000 O   0  0  0  0  0  0  0  0  0  0  0  0
    8.6812   -7.3249    0.0000 O   0  0  0  0  0  0  0  0  0  0  0  0
    2.9654   -9.7999    0.0000 C   0  0  0  0  0  0  0  0  0  0  0  0
    2.2510   -7.7374    0.0000 O   0  0  0  0  0  0  0  0  0  0  0  0
    5.8233   -7.3249    0.0000 O   0  0  0  0  0  0  0  0  0  0  0  0
    5.1088   -8.5624    0.0000 C   0  0  0  0  0  0  0  0  0  0  0  0
    5.1088   -7.7374    0.0000 C   0  0  0  0  0  0  0  0  0  0  0  0
    2.9654   -8.9749    0.0000 O   0  0  0  0  0  0  0  0  0  0  0  0
    4.3944   -8.9749    0.0000 O   0  0  0  0  0  0  0  0  0  0  0  0
    9.3957  -10.2124    0.0000 C   0  0  0  0  0  0  0  0  0  0  0  0
   10.1101   -9.7999    0.0000 C   0  0  1  0  0  0  0  0  0  0  0  0
    3.6799   -7.7374    0.0000 C   0  0  1  0  0  0  0  0  0  0  0  0
    3.6799   -8.5624    0.0000 C   0  0  0  0  0  0  0  0  0  0  0  0
 35 30  1  0  0  0  0
 40 35  1  0  0  0  0
  4 34  1  0  0  0  0
 34 32  2  0  0  0  0
 34 33  1  0  0  0  0
 40 36  2  0  0  0  0
 39  1  1  0  0  0  0
 38 28  1  1  0  0  0
 38 37  1  0  0  0  0
 39 40  1  1  0  0  0
 33  3  1  0  0  0  0
  1  2  1  0  0  0  0
  5  6  1  0  0  0  0
  6  7  2  0  0  0  0
  7  8  1  0  0  0  0
  8  9  2  0  0  0  0
  9 10  1  0  0  0  0
  5 10  2  0  0  0  0
  3  5  1  6  0  0  0
 12 13  1  0  0  0  0
 13 14  1  6  0  0  0
 12 15  2  0  0  0  0
 17 18  1  0  0  0  0
 18 38  1  0  0  0  0
 17 19  2  0  0  0  0
 21 22  2  0  0  0  0
 23 24  1  0  0  0  0
 24 25  2  0  0  0  0
 25 26  1  0  0  0  0
 26 27  2  0  0  0  0
 23 27  1  0  0  0  0
 21 24  1  0  0  0  0
 20 21  1  0  0  0  0
 18 20  1  0  0  0  0
 16 17  1  0  0  0  0
 13 16  1  0  0  0  0
 14 29  1  0  0  0  0
 11 12  1  0  0  0  0
  3 11  1  0  0  0  0
  1 31  1  0  0  0  0
 39  4  1  0  0  0  0
M  END
>  <cdx:fragmentId>
67

$$$$
