6872.cdx
  Mrv1902 05222410272D          

 21 23  0  0  0  0            999 V2000
    2.8495   -5.4863    0.0000 C   0  0  0  0  0  0  0  0  0  0  0  0
    2.8495   -6.3113    0.0000 C   0  0  0  0  0  0  0  0  0  0  0  0
    3.5640   -6.7237    0.0000 C   0  0  0  0  0  0  0  0  0  0  0  0
    4.2785   -6.3113    0.0000 C   0  0  0  0  0  0  0  0  0  0  0  0
    4.2785   -5.4863    0.0000 C   0  0  0  0  0  0  0  0  0  0  0  0
    3.5640   -5.0737    0.0000 C   0  0  0  0  0  0  0  0  0  0  0  0
    4.9929   -6.7237    0.0000 C   0  0  0  0  0  0  0  0  0  0  0  0
    5.7074   -6.3113    0.0000 C   0  0  0  0  0  0  0  0  0  0  0  0
    5.7074   -5.4863    0.0000 C   0  0  0  0  0  0  0  0  0  0  0  0
    4.9929   -5.0737    0.0000 O   0  0  0  0  0  0  0  0  0  0  0  0
    6.4219   -5.0737    0.0000 C   0  0  0  0  0  0  0  0  0  0  0  0
    6.4219   -4.2488    0.0000 C   0  0  0  0  0  0  0  0  0  0  0  0
    7.1364   -5.4863    0.0000 C   0  0  0  0  0  0  0  0  0  0  0  0
    7.8508   -5.0737    0.0000 C   0  0  0  0  0  0  0  0  0  0  0  0
    7.8508   -4.2488    0.0000 C   0  0  0  0  0  0  0  0  0  0  0  0
    7.1364   -3.8363    0.0000 C   0  0  0  0  0  0  0  0  0  0  0  0
    2.1351   -5.0737    0.0000 O   0  0  0  0  0  0  0  0  0  0  0  0
    3.5640   -7.5488    0.0000 O   0  0  0  0  0  0  0  0  0  0  0  0
    4.9929   -7.5488    0.0000 O   0  0  0  0  0  0  0  0  0  0  0  0
    8.5653   -3.8363    0.0000 O   0  0  0  0  0  0  0  0  0  0  0  0
    2.1351   -6.7237    0.0000 C   0  0  0  0  0  0  0  0  0  0  0  0
  1  2  2  0  0  0  0
  2  3  1  0  0  0  0
  3  4  2  0  0  0  0
  4  5  1  0  0  0  0
  5  6  2  0  0  0  0
  6  1  1  0  0  0  0
  4  7  1  0  0  0  0
  7  8  1  0  0  0  0
  8  9  1  0  0  0  0
  9 10  1  0  0  0  0
 10  5  1  0  0  0  0
  9 11  1  0  0  0  0
 11 12  1  0  0  0  0
 11 13  2  0  0  0  0
 13 14  1  0  0  0  0
 14 15  2  0  0  0  0
 15 16  1  0  0  0  0
 16 12  2  0  0  0  0
  1 17  1  0  0  0  0
  3 18  1  0  0  0  0
  7 19  2  0  0  0  0
 15 20  1  0  0  0  0
  2 21  1  0  0  0  0
M  END
>  <cdx:fragmentId>
343

$$$$
