6873.cdx
  Mrv1902 05222410272D          

 15 16  0  0  0  0            999 V2000
    5.4277   -6.4350    0.0000 C   0  0  0  0  0  0  0  0  0  0  0  0
    5.4277   -7.2600    0.0000 C   0  0  0  0  0  0  0  0  0  0  0  0
    6.1421   -7.6725    0.0000 C   0  0  0  0  0  0  0  0  0  0  0  0
    6.8566   -7.2600    0.0000 C   0  0  0  0  0  0  0  0  0  0  0  0
    6.8566   -6.4350    0.0000 C   0  0  0  0  0  0  0  0  0  0  0  0
    6.1421   -6.0225    0.0000 C   0  0  0  0  0  0  0  0  0  0  0  0
    7.5711   -7.6725    0.0000 C   0  0  0  0  0  0  0  0  0  0  0  0
    8.2855   -7.2600    0.0000 C   0  0  0  0  0  0  0  0  0  0  0  0
    8.2855   -6.4350    0.0000 C   0  0  0  0  0  0  0  0  0  0  0  0
    7.5711   -6.0225    0.0000 C   0  0  0  0  0  0  0  0  0  0  0  0
    7.5711   -5.1975    0.0000 C   0  0  0  0  0  0  0  0  0  0  0  0
    6.8566   -8.0850    0.0000 C   0  0  0  0  0  0  0  0  0  0  0  0
    4.7132   -6.0225    0.0000 C   0  0  0  0  0  0  0  0  0  0  0  0
    3.9987   -6.4350    0.0000 C   0  0  0  0  0  0  0  0  0  0  0  0
    4.7132   -5.1975    0.0000 C   0  0  0  0  0  0  0  0  0  0  0  0
  1  2  1  0  0  0  0
  2  3  1  0  0  0  0
  3  4  1  0  0  0  0
  4  5  1  0  0  0  0
  5  6  1  0  0  0  0
  6  1  1  0  0  0  0
  4  7  1  0  0  0  0
  7  8  1  0  0  0  0
  8  9  1  0  0  0  0
  9 10  1  0  0  0  0
 10  5  2  0  0  0  0
 10 11  1  0  0  0  0
  4 12  1  0  0  0  0
  1 13  1  0  0  0  0
 13 14  1  0  0  0  0
 13 15  2  0  0  0  0
M  END
>  <cdx:fragmentId>
5

$$$$
