6874.cdx
  Mrv1902 05222410262D          

 26 28  0  0  0  0            999 V2000
    4.4583   -6.7237    0.0000 C   0  0  0  0  0  0  0  0  0  0  0  0
    4.4583   -7.5488    0.0000 C   0  0  0  0  0  0  0  0  0  0  0  0
    5.1727   -7.9612    0.0000 C   0  0  0  0  0  0  0  0  0  0  0  0
    5.8872   -7.5488    0.0000 C   0  0  0  0  0  0  0  0  0  0  0  0
    5.8872   -6.7237    0.0000 C   0  0  0  0  0  0  0  0  0  0  0  0
    5.1727   -6.3113    0.0000 C   0  0  0  0  0  0  0  0  0  0  0  0
    6.6017   -7.9612    0.0000 C   0  0  0  0  0  0  0  0  0  0  0  0
    7.3162   -7.5488    0.0000 C   0  0  0  0  0  0  0  0  0  0  0  0
    7.3162   -6.7237    0.0000 C   0  0  2  0  0  0  0  0  0  0  0  0
    6.6017   -6.3113    0.0000 O   0  0  0  0  0  0  0  0  0  0  0  0
    8.0306   -6.3113    0.0000 C   0  0  0  0  0  0  0  0  0  0  0  0
    8.0306   -5.4863    0.0000 C   0  0  0  0  0  0  0  0  0  0  0  0
    8.7451   -6.7237    0.0000 C   0  0  0  0  0  0  0  0  0  0  0  0
    9.4596   -6.3113    0.0000 C   0  0  0  0  0  0  0  0  0  0  0  0
    9.4596   -5.4863    0.0000 C   0  0  0  0  0  0  0  0  0  0  0  0
    8.7451   -5.0737    0.0000 C   0  0  0  0  0  0  0  0  0  0  0  0
    3.7438   -6.3113    0.0000 O   0  0  0  0  0  0  0  0  0  0  0  0
    5.1727   -8.7862    0.0000 O   0  0  0  0  0  0  0  0  0  0  0  0
    6.6017   -8.7862    0.0000 O   0  0  0  0  0  0  0  0  0  0  0  0
   10.1740   -6.7237    0.0000 O   0  0  0  0  0  0  0  0  0  0  0  0
   10.1740   -5.0737    0.0000 O   0  0  0  0  0  0  0  0  0  0  0  0
    5.1727   -5.4863    0.0000 C   0  0  0  0  0  0  0  0  0  0  0  0
    4.4583   -5.0737    0.0000 C   0  0  0  0  0  0  0  0  0  0  0  0
    4.4583   -4.2488    0.0000 C   0  0  0  0  0  0  0  0  0  0  0  0
    3.7438   -3.8363    0.0000 C   0  0  0  0  0  0  0  0  0  0  0  0
    5.1727   -3.8363    0.0000 C   0  0  0  0  0  0  0  0  0  0  0  0
  1  2  2  0  0  0  0
  2  3  1  0  0  0  0
  3  4  2  0  0  0  0
  4  5  1  0  0  0  0
  5  6  2  0  0  0  0
  6  1  1  0  0  0  0
  4  7  1  0  0  0  0
  7  8  1  0  0  0  0
  8  9  1  0  0  0  0
  9 10  1  0  0  0  0
 10  5  1  0  0  0  0
  9 11  1  6  0  0  0
 11 12  1  0  0  0  0
 11 13  2  0  0  0  0
 13 14  1  0  0  0  0
 14 15  2  0  0  0  0
 15 16  1  0  0  0  0
 16 12  2  0  0  0  0
  1 17  1  0  0  0  0
  3 18  1  0  0  0  0
  7 19  2  0  0  0  0
 14 20  1  0  0  0  0
 15 21  1  0  0  0  0
  6 22  1  0  0  0  0
 22 23  1  0  0  0  0
 23 24  2  0  0  0  0
 24 25  1  0  0  0  0
 24 26  1  0  0  0  0
M  END
>  <cdx:fragmentId>
5

$$$$
