687472.cdx
  Mrv1902 05222410202D          

 19 21  0  0  0  0            999 V2000
    7.2722   -5.7893    0.0000 H   0  0  0  0  0  0  0  0  0  0  0  0
    5.1512   -6.5522    0.0000 C   0  0  0  0  0  0  0  0  0  0  0  0
    7.7068   -9.1085    0.0000 C   0  0  0  0  0  0  0  0  0  0  0  0
    8.0232   -5.2077    0.0000 C   0  0  0  0  0  0  0  0  0  0  0  0
    6.7861   -7.5353    0.0000 O   0  0  0  0  0  0  0  0  0  0  0  0
    8.4577   -5.9090    0.0000 C   0  0  0  0  0  0  0  0  0  0  0  0
    9.2805   -5.9697    0.0000 C   0  0  0  0  0  0  0  0  0  0  0  0
    9.4770   -6.7709    0.0000 O   0  0  0  0  0  0  0  0  0  0  0  0
    8.7757   -7.2054    0.0000 C   0  0  0  0  0  0  0  0  0  0  0  0
    8.6294   -8.0174    0.0000 C   0  0  0  0  0  0  0  0  0  0  0  0
    7.8531   -8.2966    0.0000 C   0  0  0  0  0  0  0  0  0  0  0  0
    7.2231   -7.7639    0.0000 C   0  0  0  0  0  0  0  0  0  0  0  0
    6.4468   -8.0431    0.0000 C   0  0  0  0  0  0  0  0  0  0  0  0
    5.8168   -7.5104    0.0000 C   0  0  0  0  0  0  0  0  0  0  0  0
    5.9632   -6.6985    0.0000 C   0  0  2  0  0  0  0  0  0  0  0  0
    6.1095   -5.8866    0.0000 O   0  0  0  0  0  0  0  0  0  0  0  0
    6.7395   -6.4193    0.0000 C   0  0  1  0  0  0  0  0  0  0  0  0
    7.3694   -6.9520    0.0000 C   0  0  0  0  0  0  0  0  0  0  0  0
    8.1458   -6.6727    0.0000 C   0  0  0  0  0  0  0  0  0  0  0  0
 17  1  1  6  0  0  0
 15  2  1  6  0  0  0
 11  3  1  0  0  0  0
  6  4  1  0  0  0  0
 18  5  2  0  0  0  0
 17 15  1  0  0  0  0
 19  9  2  0  0  0  0
 19  6  1  0  0  0  0
  7  6  2  0  0  0  0
  8  7  1  0  0  0  0
  9  8  1  0  0  0  0
 10  9  1  0  0  0  0
 11 10  1  0  0  0  0
 12 11  2  0  0  0  0
 13 12  1  0  0  0  0
 14 13  1  0  0  0  0
 15 14  1  0  0  0  0
 16 15  1  0  0  0  0
 17 16  1  0  0  0  0
 18 17  1  0  0  0  0
 19 18  1  0  0  0  0
M  END
>  <cdx:groupId>
61

>  <cdx:fragmentId>
5

$$$$
