6876.cdx
  Mrv1902 05222410262D          

 13 14  0  0  0  0            999 V2000
    4.4583   -6.7237    0.0000 C   0  0  0  0  0  0  0  0  0  0  0  0
    4.4583   -7.5488    0.0000 C   0  0  0  0  0  0  0  0  0  0  0  0
    5.1727   -7.9612    0.0000 C   0  0  0  0  0  0  0  0  0  0  0  0
    5.8872   -7.5488    0.0000 C   0  0  0  0  0  0  0  0  0  0  0  0
    5.8872   -6.7237    0.0000 C   0  0  0  0  0  0  0  0  0  0  0  0
    5.1727   -6.3113    0.0000 C   0  0  0  0  0  0  0  0  0  0  0  0
    6.6017   -7.9612    0.0000 O   0  0  0  0  0  0  0  0  0  0  0  0
    7.3162   -7.5488    0.0000 C   0  0  0  0  0  0  0  0  0  0  0  0
    7.3162   -6.7237    0.0000 C   0  0  0  0  0  0  0  0  0  0  0  0
    6.6017   -6.3113    0.0000 C   0  0  0  0  0  0  0  0  0  0  0  0
    8.0306   -7.9612    0.0000 O   0  0  0  0  0  0  0  0  0  0  0  0
    5.1727   -5.4863    0.0000 O   0  0  0  0  0  0  0  0  0  0  0  0
    3.7438   -7.9612    0.0000 O   0  0  0  0  0  0  0  0  0  0  0  0
  1  2  2  0  0  0  0
  2  3  1  0  0  0  0
  3  4  2  0  0  0  0
  4  5  1  0  0  0  0
  5  6  2  0  0  0  0
  6  1  1  0  0  0  0
  4  7  1  0  0  0  0
  7  8  1  0  0  0  0
  8  9  1  0  0  0  0
  9 10  2  0  0  0  0
 10  5  1  0  0  0  0
  8 11  2  0  0  0  0
  6 12  1  0  0  0  0
  2 13  1  0  0  0  0
M  END
>  <cdx:fragmentId>
5

$$$$
