688128.cdx
  Mrv1902 05222410282D          

 56 60  0  0  0  0            999 V2000
    8.7893  -10.0771    0.0000 C   0  0  0  0  0  0  0  0  0  0  0  0
    9.5017  -11.3157    0.0000 O   0  0  0  0  0  0  0  0  0  0  0  0
    9.5031  -10.4907    0.0000 C   0  0  0  0  0  0  0  0  0  0  0  0
   10.2182  -10.0794    0.0000 O   0  0  0  0  0  0  0  0  0  0  0  0
   12.3609  -10.4954    0.0000 C   0  0  0  0  0  0  0  0  0  0  0  0
   10.9320  -10.4931    0.0000 O   0  0  0  0  0  0  0  0  0  0  0  0
   11.6471  -10.0817    0.0000 C   0  0  0  0  0  0  0  0  0  0  0  0
   11.6485   -9.2567    0.0000 O   0  0  0  0  0  0  0  0  0  0  0  0
    7.3657   -6.7748    0.0000 C   0  0  0  0  0  0  0  0  0  0  0  0
    8.0821   -5.5384    0.0000 O   0  0  0  0  0  0  0  0  0  0  0  0
    8.0808   -6.3634    0.0000 C   0  0  0  0  0  0  0  0  0  0  0  0
    8.7946   -6.7771    0.0000 O   0  0  0  0  0  0  0  0  0  0  0  0
    8.7933   -7.6021    0.0000 C   0  0  0  0  0  0  0  0  0  0  0  0
   10.9360   -8.0181    0.0000 C   0  0  1  0  0  0  0  0  0  0  0  0
   10.9347   -8.8431    0.0000 C   0  0  1  0  0  0  0  0  0  0  0  0
   10.2195   -9.2544    0.0000 C   0  0  2  0  0  0  0  0  0  0  0  0
    9.5057   -8.8407    0.0000 C   0  0  1  0  0  0  0  0  0  0  0  0
    9.5071   -8.0158    0.0000 C   0  0  2  0  0  0  0  0  0  0  0  0
   10.2222   -7.6044    0.0000 O   0  0  0  0  0  0  0  0  0  0  0  0
    6.6492   -8.0111    0.0000 O   0  0  0  0  0  0  0  0  0  0  0  0
    5.2162  -10.4838    0.0000 O   0  0  0  0  0  0  0  0  0  0  0  0
    3.7860  -11.3065    0.0000 O   0  0  0  0  0  0  0  0  0  0  0  0
    2.3584  -10.4792    0.0000 O   0  0  0  0  0  0  0  0  0  0  0  0
    1.6459   -9.2405    0.0000 O   0  0  0  0  0  0  0  0  0  0  0  0
    2.3610   -8.8292    0.0000 C   0  0  0  0  0  0  0  0  0  0  0  0
    3.0748   -9.2428    0.0000 C   0  0  2  0  0  0  0  0  0  0  0  0
    3.0735  -10.0678    0.0000 C   0  0  2  0  0  0  0  0  0  0  0  0
    3.7873  -10.4815    0.0000 C   0  0  1  0  0  0  0  0  0  0  0  0
    4.5024  -10.0702    0.0000 C   0  0  2  0  0  0  0  0  0  0  0  0
    4.5038   -9.2452    0.0000 C   0  0  1  0  0  0  0  0  0  0  0  0
    3.7900   -8.8315    0.0000 O   0  0  0  0  0  0  0  0  0  0  0  0
    5.2189   -8.8338    0.0000 O   0  0  0  0  0  0  0  0  0  0  0  0
    8.7906   -9.2521    0.0000 O   0  0  0  0  0  0  0  0  0  0  0  0
    8.0781   -8.0134    0.0000 O   0  0  0  0  0  0  0  0  0  0  0  0
    7.3603  -10.0748    0.0000 C   0  0  0  0  0  0  0  0  0  0  0  0
    6.6452  -10.4861    0.0000 C   0  0  0  0  0  0  0  0  0  0  0  0
    5.9314  -10.0725    0.0000 C   0  0  0  0  0  0  0  0  0  0  0  0
    5.9327   -9.2475    0.0000 C   0  0  0  0  0  0  0  0  0  0  0  0
    6.6479   -8.8361    0.0000 C   0  0  0  0  0  0  0  0  0  0  0  0
    7.3617   -9.2498    0.0000 C   0  0  0  0  0  0  0  0  0  0  0  0
    8.0768   -8.8384    0.0000 C   0  0  0  0  0  0  0  0  0  0  0  0
   11.6512   -7.6067    0.0000 O   0  0  0  0  0  0  0  0  0  0  0  0
   10.9400   -5.5431    0.0000 C   0  0  0  0  0  0  0  0  0  0  0  0
   11.6552   -5.1317    0.0000 C   0  0  0  0  0  0  0  0  0  0  0  0
   12.3690   -5.5454    0.0000 C   0  0  2  0  0  0  0  0  0  0  0  0
   12.3676   -6.3704    0.0000 C   0  0  2  0  0  0  0  0  0  0  0  0
   11.6525   -6.7817    0.0000 C   0  0  1  0  0  0  0  0  0  0  0  0
   10.9387   -6.3681    0.0000 O   0  0  0  0  0  0  0  0  0  0  0  0
   11.6565   -4.3067    0.0000 C   0  0  0  0  0  0  0  0  0  0  0  0
   13.0841   -5.1340    0.0000 C   0  0  0  0  0  0  0  0  0  0  0  0
   13.0854   -4.3090    0.0000 C   0  0  0  0  0  0  0  0  0  0  0  0
   12.3716   -3.8954    0.0000 O   0  0  0  0  0  0  0  0  0  0  0  0
   10.9427   -3.8931    0.0000 O   0  0  0  0  0  0  0  0  0  0  0  0
   13.0814   -6.7840    0.0000 C   0  0  0  0  0  0  0  0  0  0  0  0
   13.0801   -7.6090    0.0000 C   0  0  0  0  0  0  0  0  0  0  0  0
   13.0828   -5.9590    0.0000 H   0  0  0  0  0  0  0  0  0  0  0  0
 16 15  1  0  0  0  0
 17 16  1  0  0  0  0
 18 17  1  0  0  0  0
 19 18  1  0  0  0  0
 39 20  1  0  0  0  0
 38 32  1  0  0  0  0
 30 32  1  1  0  0  0
 29 21  1  6  0  0  0
 28 22  1  1  0  0  0
 27 23  1  6  0  0  0
 26 25  1  1  0  0  0
 25 24  1  0  0  0  0
 31 26  1  0  0  0  0
 27 26  1  0  0  0  0
 28 27  1  0  0  0  0
 29 28  1  0  0  0  0
 30 29  1  0  0  0  0
 31 30  1  0  0  0  0
 41 33  1  0  0  0  0
 41 34  2  0  0  0  0
 40 35  2  0  0  0  0
 36 35  1  0  0  0  0
 37 36  2  0  0  0  0
 38 37  1  0  0  0  0
 39 38  2  0  0  0  0
 40 39  1  0  0  0  0
 41 40  1  0  0  0  0
 43 44  2  0  0  0  0
 44 45  1  0  0  0  0
 45 46  1  0  0  0  0
 46 47  1  0  0  0  0
 47 48  1  0  0  0  0
 43 48  1  0  0  0  0
 50 51  1  0  0  0  0
 51 52  1  0  0  0  0
 49 52  1  0  0  0  0
 49 44  1  0  0  0  0
 50 45  1  0  0  0  0
 49 53  2  0  0  0  0
 54 55  2  0  0  0  0
 46 54  1  1  0  0  0
 47 42  1  6  0  0  0
 45 56  1  6  0  0  0
 17 33  1  6  0  0  0
 16  4  1  1  0  0  0
  4  3  1  0  0  0  0
  3  1  1  0  0  0  0
  3  2  2  0  0  0  0
 15  8  1  6  0  0  0
  8  7  1  0  0  0  0
  7  5  1  0  0  0  0
  7  6  2  0  0  0  0
 18 13  1  1  0  0  0
 13 12  1  0  0  0  0
 12 11  1  0  0  0  0
 11  9  1  0  0  0  0
 11 10  2  0  0  0  0
 14 42  1  1  0  0  0
 19 14  1  0  0  0  0
 15 14  1  0  0  0  0
M  END
>  <cdx:fragmentId>
262051

$$$$
