688305.cdx
  Mrv1902 05222410272D          

 11 11  0  0  0  0            999 V2000
    9.1314   -6.6261    0.0000 Br  0  0  0  0  0  0  0  0  0  0  0  0
    6.2736   -6.6071    0.0000 Br  0  0  0  0  0  0  0  0  0  0  0  0
    9.1424   -4.9762    0.0000 N   0  0  0  0  0  0  0  0  0  0  0  0
    8.4362   -3.7339    0.0000 O   0  0  0  0  0  0  0  0  0  0  0  0
    6.9963   -5.3744    0.0000 C   0  0  0  0  0  0  0  0  0  0  0  0
    6.9908   -6.1993    0.0000 C   0  0  0  0  0  0  0  0  0  0  0  0
    7.7025   -6.6166    0.0000 C   0  0  0  0  0  0  0  0  0  0  0  0
    8.4197   -6.2089    0.0000 C   0  0  0  0  0  0  0  0  0  0  0  0
    8.4252   -5.3839    0.0000 C   0  0  0  0  0  0  0  0  0  0  0  0
    7.7135   -4.9666    0.0000 C   0  0  0  0  0  0  0  0  0  0  0  0
    7.7190   -4.1417    0.0000 C   0  0  0  0  0  0  0  0  0  0  0  0
  8  1  1  0  0  0  0
  6  2  1  0  0  0  0
  9  3  1  0  0  0  0
 11  4  2  0  0  0  0
 10  5  2  0  0  0  0
  6  5  1  0  0  0  0
  7  6  2  0  0  0  0
  8  7  1  0  0  0  0
  9  8  2  0  0  0  0
 10  9  1  0  0  0  0
 11 10  1  0  0  0  0
M  END
>  <cdx:fragmentId>
14219

$$$$
