688359.cdx
  Mrv1902 05222410242D          

 23 23  0  0  0  0            999 V2000
   12.1370   -9.1786    0.0000 O   0  0  0  0  0  0  0  0  0  0  0  0
   12.8514   -7.9411    0.0000 C   0  0  0  0  0  0  0  0  0  0  0  0
   12.1370   -7.5286    0.0000 O   0  0  0  0  0  0  0  0  0  0  0  0
    9.9936   -8.7661    0.0000 C   0  0  0  0  0  0  0  0  0  0  0  0
   10.7080   -9.1786    0.0000 C   0  0  0  0  0  0  0  0  0  0  0  0
   11.4225   -8.7661    0.0000 C   0  0  0  0  0  0  0  0  0  0  0  0
   11.4225   -7.9411    0.0000 C   0  0  0  0  0  0  0  0  0  0  0  0
   10.7080   -7.5286    0.0000 C   0  0  0  0  0  0  0  0  0  0  0  0
    9.9936   -7.9411    0.0000 C   0  0  0  0  0  0  0  0  0  0  0  0
    9.2791   -7.5286    0.0000 C   0  0  0  0  0  0  0  0  0  0  0  0
    2.8488   -8.7661    0.0000 C   0  0  0  0  0  0  0  0  0  0  0  0
    8.5646   -7.9411    0.0000 N   0  0  0  0  0  0  0  0  0  0  0  0
    7.8501   -6.7036    0.0000 O   0  0  0  0  0  0  0  0  0  0  0  0
    1.4199   -7.9411    0.0000 C   0  0  0  0  0  0  0  0  0  0  0  0
    2.1344   -7.5286    0.0000 C   0  0  0  0  0  0  0  0  0  0  0  0
    2.8488   -7.9411    0.0000 C   0  0  0  0  0  0  0  0  0  0  0  0
    3.5633   -7.5286    0.0000 C   0  0  0  0  0  0  0  0  0  0  0  0
    4.2778   -7.9411    0.0000 C   0  0  0  0  0  0  0  0  0  0  0  0
    4.9923   -7.5286    0.0000 C   0  0  0  0  0  0  0  0  0  0  0  0
    5.7067   -7.9411    0.0000 C   0  0  0  0  0  0  0  0  0  0  0  0
    6.4212   -7.5286    0.0000 C   0  0  0  0  0  0  0  0  0  0  0  0
    7.1357   -7.9411    0.0000 C   0  0  0  0  0  0  0  0  0  0  0  0
    7.8501   -7.5286    0.0000 C   0  0  0  0  0  0  0  0  0  0  0  0
 12 10  1  0  0  0  0
 10  9  1  0  0  0  0
  6  1  1  0  0  0  0
  7  3  1  0  0  0  0
  3  2  1  0  0  0  0
  9  4  2  0  0  0  0
  5  4  1  0  0  0  0
  6  5  2  0  0  0  0
  7  6  1  0  0  0  0
  8  7  2  0  0  0  0
  9  8  1  0  0  0  0
 16 11  1  0  0  0  0
 23 12  1  0  0  0  0
 23 13  2  0  0  0  0
 15 14  1  0  0  0  0
 16 15  1  0  0  0  0
 17 16  1  0  0  0  0
 18 17  1  0  0  0  0
 19 18  1  0  0  0  0
 20 19  1  0  0  0  0
 21 20  1  0  0  0  0
 22 21  1  0  0  0  0
 23 22  1  0  0  0  0
M  END
>  <cdx:fragmentId>
78862

$$$$
