6885.cdx
  Mrv1902 05222410192D          

 10 11  0  0  0  0            999 V2000
    6.3721   -4.2251    0.0000 O   0  0  0  0  0  0  0  0  0  0  0  0
    5.8872   -3.5577    0.0000 C   0  0  0  0  0  0  0  0  0  0  0  0
    5.1026   -3.8126    0.0000 C   0  0  0  0  0  0  0  0  0  0  0  0
    5.1026   -4.6376    0.0000 C   0  0  0  0  0  0  0  0  0  0  0  0
    5.8872   -4.8926    0.0000 C   0  0  0  0  0  0  0  0  0  0  0  0
    4.3881   -5.0501    0.0000 C   0  0  0  0  0  0  0  0  0  0  0  0
    3.6736   -4.6376    0.0000 C   0  0  0  0  0  0  0  0  0  0  0  0
    3.6736   -3.8126    0.0000 C   0  0  0  0  0  0  0  0  0  0  0  0
    4.3881   -3.4001    0.0000 C   0  0  0  0  0  0  0  0  0  0  0  0
    6.1421   -2.7731    0.0000 O   0  0  0  0  0  0  0  0  0  0  0  0
  1  2  1  0  0  0  0
  2  3  1  0  0  0  0
  3  4  1  0  0  0  0
  4  5  1  0  0  0  0
  1  5  1  0  0  0  0
  6  7  1  0  0  0  0
  7  8  2  0  0  0  0
  8  9  1  0  0  0  0
  9  3  2  0  0  0  0
  6  4  2  0  0  0  0
  2 10  2  0  0  0  0
M  END
>  <cdx:groupId>
33

>  <cdx:fragmentId>
5

$$$$
