688660.cdx
  Mrv1902 05222410262D          

 47 50  0  0  0  0            999 V2000
   10.3710   -9.7602    0.0000 C   0  0  2  0  0  0  0  0  0  0  0  0
   10.5414  -10.5674    0.0000 C   0  0  2  0  0  0  0  0  0  0  0  0
   11.2788  -10.9375    0.0000 C   0  0  0  0  0  0  0  0  0  0  0  0
   12.0278  -10.5917    0.0000 C   0  0  0  0  0  0  0  0  0  0  0  0
   12.2245   -9.7905    0.0000 C   0  0  0  0  0  0  0  0  0  0  0  0
   11.7207   -9.1372    0.0000 C   0  0  2  0  0  0  0  0  0  0  0  0
   10.8958   -9.1237    0.0000 C   0  0  2  0  0  0  0  0  0  0  0  0
    9.5506   -9.6728    0.0000 C   0  0  0  0  0  0  0  0  0  0  0  0
    9.2140  -10.4261    0.0000 C   0  0  0  0  0  0  0  0  0  0  0  0
    9.8264  -10.9789    0.0000 C   0  0  0  0  0  0  0  0  0  0  0  0
   12.1448   -8.4295    0.0000 C   0  0  1  0  0  0  0  0  0  0  0  0
   11.7441   -7.7084    0.0000 C   0  0  1  0  0  0  0  0  0  0  0  0
   10.9192   -7.6949    0.0000 C   0  0  1  0  0  0  0  0  0  0  0  0
   10.4951   -8.4026    0.0000 C   0  0  1  0  0  0  0  0  0  0  0  0
   12.5689   -7.7219    0.0000 C   0  0  1  0  0  0  0  0  0  0  0  0
    8.4068  -10.5965    0.0000 C   0  0  0  0  0  0  0  0  0  0  0  0
    9.5703  -11.7632    0.0000 O   0  0  0  0  0  0  0  0  0  0  0  0
   12.7191  -11.0420    0.0000 C   0  0  0  0  0  0  0  0  0  0  0  0
   10.4971  -11.3912    0.0000 O   0  0  0  0  0  0  0  0  0  0  0  0
   11.7884   -6.8846    0.0000 O   0  0  0  0  0  0  0  0  0  0  0  0
    9.6712   -8.3583    0.0000 C   0  0  0  0  0  0  0  0  0  0  0  0
   10.5058   -6.9810    0.0000 O   0  0  0  0  0  0  0  0  0  0  0  0
    9.7868   -6.5764    0.0000 C   0  0  0  0  0  0  0  0  0  0  0  0
    9.0770   -6.9969    0.0000 C   0  0  0  0  0  0  0  0  0  0  0  0
    9.7776   -5.7515    0.0000 O   0  0  0  0  0  0  0  0  0  0  0  0
   12.2008   -6.1701    0.0000 C   0  0  0  0  0  0  0  0  0  0  0  0
   13.0258   -6.1701    0.0000 C   0  0  0  0  0  0  0  0  0  0  0  0
   12.9806   -7.0069    0.0000 C   0  0  0  0  0  0  0  0  0  0  0  0
   13.3939   -7.7209    0.0000 C   0  0  0  0  0  0  0  0  0  0  0  0
   12.8598   -8.8412    0.0000 H   0  0  0  0  0  0  0  0  0  0  0  0
   12.5457   -9.1362    0.0000 H   0  0  0  0  0  0  0  0  0  0  0  0
   10.0708   -9.1237    0.0000 O   0  0  0  0  0  0  0  0  0  0  0  0
   11.1960   -9.7602    0.0000 H   0  0  0  0  0  0  0  0  0  0  0  0
   12.5676  -11.8529    0.0000 O   0  0  0  0  0  0  0  0  0  0  0  0
   11.7883   -5.4557    0.0000 O   0  0  0  0  0  0  0  0  0  0  0  0
    0.5156   -6.9988    0.0000 C   0  0  0  0  0  0  0  0  0  0  0  0
    1.2301   -6.5863    0.0000 C   0  0  0  0  0  0  0  0  0  0  0  0
    1.9446   -6.9988    0.0000 C   0  0  0  0  0  0  0  0  0  0  0  0
    2.6590   -6.5863    0.0000 C   0  0  0  0  0  0  0  0  0  0  0  0
    3.3735   -6.9988    0.0000 C   0  0  0  0  0  0  0  0  0  0  0  0
    4.0880   -6.5863    0.0000 C   0  0  0  0  0  0  0  0  0  0  0  0
    4.8025   -6.9988    0.0000 C   0  0  0  0  0  0  0  0  0  0  0  0
    5.5169   -6.5863    0.0000 C   0  0  0  0  0  0  0  0  0  0  0  0
    6.2314   -6.9988    0.0000 C   0  0  0  0  0  0  0  0  0  0  0  0
    6.9459   -6.5863    0.0000 C   0  0  0  0  0  0  0  0  0  0  0  0
    7.6603   -6.9988    0.0000 C   0  0  0  0  0  0  0  0  0  0  0  0
    8.3748   -6.5863    0.0000 C   0  0  0  0  0  0  0  0  0  0  0  0
  1  2  1  0  0  0  0
  2  3  1  0  0  0  0
  3  4  1  0  0  0  0
  4  5  2  0  0  0  0
  5  6  1  0  0  0  0
  6  7  1  0  0  0  0
  7  1  1  0  0  0  0
  1  8  1  0  0  0  0
  8  9  2  0  0  0  0
  9 10  1  0  0  0  0
 10  2  1  0  0  0  0
  6 11  1  0  0  0  0
 11 12  1  0  0  0  0
 12 13  1  0  0  0  0
 13 14  1  0  0  0  0
 14  7  1  0  0  0  0
 11 15  1  0  0  0  0
 15 12  1  0  0  0  0
  9 16  1  0  0  0  0
 10 17  2  0  0  0  0
  4 18  1  0  0  0  0
  2 19  1  1  0  0  0
 12 20  1  6  0  0  0
 14 21  1  6  0  0  0
 13 22  1  1  0  0  0
 22 23  1  0  0  0  0
 23 24  1  0  0  0  0
 23 25  2  0  0  0  0
 20 26  1  0  0  0  0
 26 27  1  0  0  0  0
 15 28  1  1  0  0  0
 15 29  1  6  0  0  0
 11 30  1  6  0  0  0
  6 31  1  1  0  0  0
  7 32  1  6  0  0  0
  1 33  1  6  0  0  0
 18 34  1  0  0  0  0
 26 35  2  0  0  0  0
 36 37  1  0  0  0  0
 37 38  1  0  0  0  0
 38 39  1  0  0  0  0
 39 40  1  0  0  0  0
 40 41  1  0  0  0  0
 41 42  1  0  0  0  0
 42 43  1  0  0  0  0
 43 44  1  0  0  0  0
 44 45  1  0  0  0  0
 45 46  1  0  0  0  0
 46 47  1  0  0  0  0
 47 24  1  0  0  0  0
M  END
>  <cdx:fragmentId>
29

$$$$
