134688630.cdx
  Mrv1902 05222410222D          

 36 40  0  0  0  0            999 V2000
   15.3021   -8.5495    0.0000 C   0  0  1  0  0  0  0  0  0  0  0  0
   16.0166   -8.9620    0.0000 C   0  0  1  0  0  0  0  0  0  0  0  0
   16.0166   -9.7870    0.0000 C   0  0  0  0  0  0  0  0  0  0  0  0
   15.3021  -10.1995    0.0000 C   0  0  0  0  0  0  0  0  0  0  0  0
   14.5876   -9.7870    0.0000 C   0  0  1  0  0  0  0  0  0  0  0  0
   13.8732  -10.1995    0.0000 C   0  0  1  0  0  0  0  0  0  0  0  0
   13.8732  -11.0245    0.0000 C   0  0  0  0  0  0  0  0  0  0  0  0
   13.1587  -11.4370    0.0000 C   0  0  0  0  0  0  0  0  0  0  0  0
   12.4442  -11.0245    0.0000 C   0  0  1  0  0  0  0  0  0  0  0  0
   11.7297  -11.4370    0.0000 C   0  0  0  0  0  0  0  0  0  0  0  0
   11.0153  -11.0245    0.0000 C   0  0  0  0  0  0  0  0  0  0  0  0
   11.0153  -10.1995    0.0000 C   0  0  0  0  0  0  0  0  0  0  0  0
   11.7297   -9.7870    0.0000 C   0  0  0  0  0  0  0  0  0  0  0  0
   12.4442  -10.1995    0.0000 C   0  0  2  0  0  0  0  0  0  0  0  0
   13.1587   -9.7870    0.0000 C   0  0  1  0  0  0  0  0  0  0  0  0
   13.1587   -8.9620    0.0000 C   0  0  0  0  0  0  0  0  0  0  0  0
   13.8732   -8.5495    0.0000 C   0  0  0  0  0  0  0  0  0  0  0  0
   14.5876   -8.9620    0.0000 C   0  0  1  0  0  0  0  0  0  0  0  0
   16.6297   -8.4100    0.0000 C   0  0  2  0  0  0  0  0  0  0  0  0
   16.2941   -7.6563    0.0000 C   0  0  0  0  0  0  0  0  0  0  0  0
   15.4736   -7.7426    0.0000 C   0  0  0  0  0  0  0  0  0  0  0  0
   10.3008  -11.4370    0.0000 O   0  0  0  0  0  0  0  0  0  0  0  0
   15.3021   -9.3745    0.0000 C   0  0  0  0  0  0  0  0  0  0  0  0
   12.4442   -9.3745    0.0000 C   0  0  0  0  0  0  0  0  0  0  0  0
   12.1422  -12.1515    0.0000 C   0  0  0  0  0  0  0  0  0  0  0  0
   11.3172  -12.1515    0.0000 C   0  0  0  0  0  0  0  0  0  0  0  0
   13.8732   -9.3745    0.0000 C   0  0  0  0  0  0  0  0  0  0  0  0
   14.5876  -10.6120    0.0000 C   0  0  0  0  0  0  0  0  0  0  0  0
   17.6916   -9.3662    0.0000 C   0  0  0  0  0  0  0  0  0  0  0  0
   17.4366   -8.5815    0.0000 C   0  0  0  0  0  0  0  0  0  0  0  0
   18.0200   -7.9982    0.0000 C   0  0  0  0  0  0  0  0  0  0  0  0
   18.2436   -8.7531    0.0000 O   0  0  0  0  0  0  0  0  0  0  0  0
   16.7702   -9.2976    0.0000 H   0  0  0  0  0  0  0  0  0  0  0  0
   12.4442  -11.8495    0.0000 H   0  0  0  0  0  0  0  0  0  0  0  0
   13.1587  -10.6120    0.0000 H   0  0  0  0  0  0  0  0  0  0  0  0
   14.5876   -8.1370    0.0000 H   0  0  0  0  0  0  0  0  0  0  0  0
  1  2  1  0  0  0  0
  2  3  1  0  0  0  0
  3  4  1  0  0  0  0
  4  5  1  0  0  0  0
  5  6  1  0  0  0  0
  6  7  1  0  0  0  0
  7  8  1  0  0  0  0
  8  9  1  0  0  0  0
  9 10  1  0  0  0  0
 10 11  1  0  0  0  0
 11 12  1  0  0  0  0
 12 13  1  0  0  0  0
 13 14  1  0  0  0  0
  9 14  1  0  0  0  0
 14 15  1  0  0  0  0
  6 15  1  0  0  0  0
 15 16  1  0  0  0  0
 16 17  1  0  0  0  0
 17 18  1  0  0  0  0
  5 18  1  0  0  0  0
  1 18  1  0  0  0  0
 19 20  1  0  0  0  0
 20 21  1  0  0  0  0
 21  1  1  0  0  0  0
 19  2  1  0  0  0  0
 11 22  2  0  0  0  0
  1 23  1  6  0  0  0
 14 24  1  1  0  0  0
 10 25  1  0  0  0  0
 10 26  1  0  0  0  0
  6 27  1  6  0  0  0
  5 28  1  6  0  0  0
 29 30  1  0  0  0  0
 30 31  1  0  0  0  0
 30 32  1  0  0  0  0
 19 30  1  6  0  0  0
  2 33  1  1  0  0  0
  9 34  1  6  0  0  0
 15 35  1  6  0  0  0
 18 36  1  6  0  0  0
M  END
>  <cdx:groupId>
74825

>  <cdx:fragmentId>
74716

$$$$
