68911.cdx
  Mrv1902 05222410262D          

 24 27  0  0  0  0            999 V2000
    7.2063   -5.0430    0.0000 C   0  0  1  0  0  0  0  0  0  0  0  0
    6.3813   -5.0382    0.0000 C   0  0  0  0  0  0  0  0  0  0  0  0
    5.8710   -5.6865    0.0000 C   0  0  0  0  0  0  0  0  0  0  0  0
    6.0695   -6.4873    0.0000 C   0  0  1  0  0  0  0  0  0  0  0  0
    5.3526   -6.8956    0.0000 C   0  0  1  0  0  0  0  0  0  0  0  0
    5.3478   -7.7206    0.0000 C   0  0  0  0  0  0  0  0  0  0  0  0
    6.0599   -8.1372    0.0000 C   0  0  0  0  0  0  0  0  0  0  0  0
    6.7767   -7.7289    0.0000 C   0  0  1  0  0  0  0  0  0  0  0  0
    7.4888   -8.1455    0.0000 C   0  0  2  0  0  0  0  0  0  0  0  0
    8.2057   -7.7372    0.0000 C   0  0  2  0  0  0  0  0  0  0  0  0
    8.2104   -6.9122    0.0000 O   0  0  0  0  0  0  0  0  0  0  0  0
    7.4984   -6.4956    0.0000 C   0  0  1  0  0  0  0  0  0  0  0  0
    6.7815   -6.9039    0.0000 C   0  0  1  0  0  0  0  0  0  0  0  0
    6.4631   -6.2332    0.0000 O   0  0  0  0  0  0  0  0  0  0  0  0
    6.6283   -5.5093    0.0000 O   0  0  0  0  0  0  0  0  0  0  0  0
    7.7090   -5.6972    0.0000 O   0  0  0  0  0  0  0  0  0  0  0  0
    7.4840   -8.9705    0.0000 C   0  0  0  0  0  0  0  0  0  0  0  0
    4.6405   -6.4790    0.0000 C   0  0  0  0  0  0  0  0  0  0  0  0
    7.6229   -4.3309    0.0000 C   0  0  0  0  0  0  0  0  0  0  0  0
    8.9177   -8.1538    0.0000 O   0  0  0  0  0  0  0  0  0  0  0  0
    8.9129   -8.9788    0.0000 C   0  0  0  0  0  0  0  0  0  0  0  0
    5.3112   -6.1622    0.0000 H   0  0  0  0  0  0  0  0  0  0  0  0
    6.7720   -8.5539    0.0000 H   0  0  0  0  0  0  0  0  0  0  0  0
    8.2609   -6.1806    0.0000 H   0  0  0  0  0  0  0  0  0  0  0  0
  1  2  1  0  0  0  0
  2  3  1  0  0  0  0
  3  4  1  0  0  0  0
  4  5  1  0  0  0  0
  5  6  1  0  0  0  0
  6  7  1  0  0  0  0
  7  8  1  0  0  0  0
  8  9  1  0  0  0  0
  9 10  1  0  0  0  0
 10 11  1  0  0  0  0
 11 12  1  0  0  0  0
 12 13  1  0  0  0  0
 13 14  1  1  0  0  0
 14 15  1  0  0  0  0
  1 15  1  0  0  0  0
  1 16  1  0  0  0  0
 16 12  1  0  0  0  0
  8 13  1  0  0  0  0
  4 13  1  0  0  0  0
  9 17  1  6  0  0  0
  5 18  1  1  0  0  0
  1 19  1  1  0  0  0
 20 21  1  0  0  0  0
 10 20  1  6  0  0  0
  4 22  1  1  0  0  0
  8 23  1  1  0  0  0
 12 24  1  6  0  0  0
M  END
>  <cdx:fragmentId>
5

$$$$
