6892.cdx
  Mrv1902 05222410202D          

 27 29  0  0  0  0            999 V2000
    3.8788   -9.2340    0.0000 C   0  0  0  0  0  0  0  0  0  0  0  0
    3.8788  -10.0590    0.0000 C   0  0  0  0  0  0  0  0  0  0  0  0
    4.5933  -10.4715    0.0000 C   0  0  0  0  0  0  0  0  0  0  0  0
    5.3077  -10.0590    0.0000 C   0  0  0  0  0  0  0  0  0  0  0  0
    6.0222  -10.4715    0.0000 C   0  0  0  0  0  0  0  0  0  0  0  0
    6.7367  -10.0590    0.0000 C   0  0  0  0  0  0  0  0  0  0  0  0
    6.7367   -9.2340    0.0000 C   0  0  0  0  0  0  0  0  0  0  0  0
    6.0222   -8.8215    0.0000 C   0  0  0  0  0  0  0  0  0  0  0  0
    5.3077   -9.2340    0.0000 C   0  0  0  0  0  0  0  0  0  0  0  0
    4.5933   -8.8215    0.0000 O   0  0  0  0  0  0  0  0  0  0  0  0
    7.5213   -8.9791    0.0000 O   0  0  0  0  0  0  0  0  0  0  0  0
    7.5213  -10.3140    0.0000 C   0  0  0  0  0  0  0  0  0  0  0  0
    8.0062   -9.6465    0.0000 C   0  0  0  0  0  0  0  0  0  0  0  0
    3.1643   -8.8215    0.0000 O   0  0  0  0  0  0  0  0  0  0  0  0
    6.0222  -11.2965    0.0000 O   0  0  0  0  0  0  0  0  0  0  0  0
    6.7367  -11.7090    0.0000 C   0  0  0  0  0  0  0  0  0  0  0  0
    6.0222   -7.9965    0.0000 O   0  0  0  0  0  0  0  0  0  0  0  0
    6.7367   -7.5840    0.0000 C   0  0  0  0  0  0  0  0  0  0  0  0
    6.7367   -6.7590    0.0000 C   0  0  0  0  0  0  0  0  0  0  0  0
    7.4511   -6.3465    0.0000 C   0  0  0  0  0  0  0  0  0  0  0  0
    7.4511   -5.5215    0.0000 C   0  0  0  0  0  0  0  0  0  0  0  0
    8.1656   -5.1090    0.0000 C   0  0  0  0  0  0  0  0  0  0  0  0
    8.1656   -4.2840    0.0000 C   0  0  0  0  0  0  0  0  0  0  0  0
    8.8801   -3.8715    0.0000 C   0  0  0  0  0  0  0  0  0  0  0  0
    8.8801   -3.0465    0.0000 C   0  0  0  0  0  0  0  0  0  0  0  0
    9.5946   -4.2840    0.0000 C   0  0  0  0  0  0  0  0  0  0  0  0
    8.1656   -6.7590    0.0000 C   0  0  0  0  0  0  0  0  0  0  0  0
  1  2  1  0  0  0  0
  2  3  2  0  0  0  0
  3  4  1  0  0  0  0
  4  5  2  0  0  0  0
  5  6  1  0  0  0  0
  6  7  2  0  0  0  0
  7  8  1  0  0  0  0
  8  9  2  0  0  0  0
  4  9  1  0  0  0  0
  9 10  1  0  0  0  0
  1 10  1  0  0  0  0
 12 13  2  0  0  0  0
 11 13  1  0  0  0  0
 12  6  1  0  0  0  0
 11  7  1  0  0  0  0
  1 14  2  0  0  0  0
 15 16  1  0  0  0  0
  5 15  1  0  0  0  0
 18 19  1  0  0  0  0
 19 20  2  0  0  0  0
 20 21  1  0  0  0  0
 21 22  1  0  0  0  0
 22 23  1  0  0  0  0
 23 24  2  0  0  0  0
 24 25  1  0  0  0  0
 17 18  1  0  0  0  0
 24 26  1  0  0  0  0
 20 27  1  0  0  0  0
  8 17  1  0  0  0  0
M  END
>  <cdx:fragmentId>
5

$$$$
