689482.cdx
  Mrv1902 05222410242D          

 22 25  0  0  0  0            999 V2000
    8.2218   -4.6976    0.0000 C   0  0  0  0  0  0  0  0  0  0  0  0
    8.3215   -5.5166    0.0000 C   0  0  1  0  0  0  0  0  0  0  0  0
    7.6620   -6.0124    0.0000 C   0  0  1  0  0  0  0  0  0  0  0  0
    6.9030   -5.6892    0.0000 C   0  0  0  0  0  0  0  0  0  0  0  0
    6.2435   -6.1849    0.0000 C   0  0  0  0  0  0  0  0  0  0  0  0
    5.4845   -5.8617    0.0000 C   0  0  0  0  0  0  0  0  0  0  0  0
    5.3848   -5.0428    0.0000 C   0  0  0  0  0  0  0  0  0  0  0  0
    6.0443   -4.5470    0.0000 C   0  0  0  0  0  0  0  0  0  0  0  0
    6.8033   -4.8702    0.0000 C   0  0  0  0  0  0  0  0  0  0  0  0
    7.4628   -4.3744    0.0000 O   0  0  0  0  0  0  0  0  0  0  0  0
    8.9967   -5.9905    0.0000 C   0  0  0  0  0  0  0  0  0  0  0  0
    8.7547   -6.7792    0.0000 C   0  0  0  0  0  0  0  0  0  0  0  0
    9.1788   -7.4868    0.0000 C   0  0  0  0  0  0  0  0  0  0  0  0
    8.7780   -8.2080    0.0000 C   0  0  0  0  0  0  0  0  0  0  0  0
    7.9531   -8.2215    0.0000 C   0  0  0  0  0  0  0  0  0  0  0  0
    7.5290   -7.5138    0.0000 C   0  0  0  0  0  0  0  0  0  0  0  0
    7.9298   -6.7927    0.0000 C   0  0  0  0  0  0  0  0  0  0  0  0
    4.6258   -4.7196    0.0000 O   0  0  0  0  0  0  0  0  0  0  0  0
    9.0359   -5.1041    0.0000 O   0  0  0  0  0  0  0  0  0  0  0  0
    9.2021   -8.9156    0.0000 O   0  0  0  0  0  0  0  0  0  0  0  0
    7.5524   -8.9426    0.0000 O   0  0  0  0  0  0  0  0  0  0  0  0
    6.9476   -6.4249    0.0000 H   0  0  0  0  0  0  0  0  0  0  0  0
  1  2  1  0  0  0  0
  2  3  1  0  0  0  0
  3  4  1  0  0  0  0
  4  5  1  0  0  0  0
  5  6  2  0  0  0  0
  6  7  1  0  0  0  0
  7  8  2  0  0  0  0
  8  9  1  0  0  0  0
  4  9  2  0  0  0  0
  9 10  1  0  0  0  0
  1 10  1  0  0  0  0
 11 12  1  0  0  0  0
 12 13  1  0  0  0  0
 13 14  2  0  0  0  0
 14 15  1  0  0  0  0
 15 16  2  0  0  0  0
 16 17  1  0  0  0  0
 12 17  2  0  0  0  0
 11  2  1  0  0  0  0
 17  3  1  0  0  0  0
  7 18  1  0  0  0  0
  2 19  1  1  0  0  0
 14 20  1  0  0  0  0
 15 21  1  0  0  0  0
  3 22  1  1  0  0  0
M  END
>  <cdx:fragmentId>
5

$$$$
