68960.cdx
  Mrv1902 05222410272D          

  7  6  0  0  0  0            999 V2000
    5.4519   -7.6947    0.0000 S   0  0  0  0  0  0  0  0  0  0  0  0
    6.1664   -8.1072    0.0000 C   0  0  0  0  0  0  0  0  0  0  0  0
    6.8808   -8.5197    0.0000 N   0  0  0  0  0  0  0  0  0  0  0  0
    9.0242   -8.1072    0.0000 C   0  0  0  0  0  0  0  0  0  0  0  0
    8.3098   -9.3447    0.0000 C   0  0  0  0  0  0  0  0  0  0  0  0
    8.3098   -8.5197    0.0000 C   0  0  0  0  0  0  0  0  0  0  0  0
    7.5953   -8.1072    0.0000 C   0  0  0  0  0  0  0  0  0  0  0  0
  7  3  1  0  0  0  0
  2  1  2  0  0  0  0
  3  2  2  0  0  0  0
  6  4  1  0  0  0  0
  6  5  1  0  0  0  0
  7  6  1  0  0  0  0
M  END
>  <cdx:fragmentId>
5

$$$$
