68972.cdx
  Mrv1902 05222410282D          

 31 30  0  0  0  0            999 V2000
    1.5071   -3.8098    0.0000 C   0  0  0  0  0  0  0  0  0  0  0  0
    2.2216   -4.2223    0.0000 C   0  0  0  0  0  0  0  0  0  0  0  0
    2.9361   -3.8098    0.0000 C   0  0  0  0  0  0  0  0  0  0  0  0
    3.6506   -4.2223    0.0000 C   0  0  0  0  0  0  0  0  0  0  0  0
    4.3650   -3.8098    0.0000 C   0  0  0  0  0  0  0  0  0  0  0  0
    5.0795   -4.2223    0.0000 C   0  0  0  0  0  0  0  0  0  0  0  0
    5.7940   -3.8098    0.0000 C   0  0  0  0  0  0  0  0  0  0  0  0
    6.5084   -4.2223    0.0000 C   0  0  0  0  0  0  0  0  0  0  0  0
    7.2229   -3.8098    0.0000 C   0  0  0  0  0  0  0  0  0  0  0  0
    7.9374   -4.2223    0.0000 C   0  0  0  0  0  0  0  0  0  0  0  0
    8.6519   -3.8098    0.0000 C   0  0  0  0  0  0  0  0  0  0  0  0
    9.3663   -4.2223    0.0000 C   0  0  0  0  0  0  0  0  0  0  0  0
   10.0808   -3.8098    0.0000 C   0  0  0  0  0  0  0  0  0  0  0  0
   10.7953   -4.2223    0.0000 C   0  0  0  0  0  0  0  0  0  0  0  0
   11.5097   -3.8098    0.0000 C   0  0  0  0  0  0  0  0  0  0  0  0
   12.2242   -4.2223    0.0000 C   0  0  0  0  0  0  0  0  0  0  0  0
   12.9387   -3.8098    0.0000 C   0  0  0  0  0  0  0  0  0  0  0  0
   13.6531   -4.2223    0.0000 C   0  0  0  0  0  0  0  0  0  0  0  0
   14.3676   -3.8098    0.0000 C   0  0  0  0  0  0  0  0  0  0  0  0
   15.0821   -4.2223    0.0000 C   0  0  0  0  0  0  0  0  0  0  0  0
   15.7966   -3.8098    0.0000 C   0  0  0  0  0  0  0  0  0  0  0  0
   16.5110   -4.2223    0.0000 C   0  0  0  0  0  0  0  0  0  0  0  0
   17.2255   -3.8098    0.0000 C   0  0  0  0  0  0  0  0  0  0  0  0
   17.9400   -4.2223    0.0000 C   0  0  0  0  0  0  0  0  0  0  0  0
   18.6544   -3.8098    0.0000 C   0  0  0  0  0  0  0  0  0  0  0  0
   19.3689   -4.2223    0.0000 C   0  0  0  0  0  0  0  0  0  0  0  0
   20.0834   -3.8098    0.0000 C   0  0  0  0  0  0  0  0  0  0  0  0
   20.7979   -4.2223    0.0000 C   0  0  0  0  0  0  0  0  0  0  0  0
   21.5123   -3.8098    0.0000 C   0  0  0  0  0  0  0  0  0  0  0  0
   22.2268   -4.2223    0.0000 C   0  0  0  0  0  0  0  0  0  0  0  0
    0.7927   -4.2223    0.0000 O   0  0  0  0  0  0  0  0  0  0  0  0
  1  2  1  0  0  0  0
  2  3  1  0  0  0  0
  3  4  1  0  0  0  0
  4  5  1  0  0  0  0
  5  6  1  0  0  0  0
  6  7  1  0  0  0  0
  7  8  1  0  0  0  0
  8  9  1  0  0  0  0
  9 10  1  0  0  0  0
 10 11  1  0  0  0  0
 11 12  1  0  0  0  0
 12 13  1  0  0  0  0
 13 14  1  0  0  0  0
 14 15  1  0  0  0  0
 15 16  1  0  0  0  0
 16 17  1  0  0  0  0
 17 18  1  0  0  0  0
 18 19  1  0  0  0  0
 19 20  1  0  0  0  0
 20 21  1  0  0  0  0
 21 22  1  0  0  0  0
 22 23  1  0  0  0  0
 23 24  1  0  0  0  0
 24 25  1  0  0  0  0
 25 26  1  0  0  0  0
 26 27  1  0  0  0  0
 27 28  1  0  0  0  0
 28 29  1  0  0  0  0
 29 30  1  0  0  0  0
  1 31  1  0  0  0  0
M  END
>  <cdx:groupId>
94

>  <cdx:fragmentId>
5

$$$$
