6900.cdx
  Mrv1902 05222410262D          

 23 23  0  0  0  0            999 V2000
    3.3033   -9.3637    0.0000 C   0  0  0  0  0  0  0  0  0  0  0  0
    3.3033  -10.1888    0.0000 C   0  0  0  0  0  0  0  0  0  0  0  0
    4.0177  -10.6013    0.0000 C   0  0  0  0  0  0  0  0  0  0  0  0
    4.7322  -10.1888    0.0000 C   0  0  0  0  0  0  0  0  0  0  0  0
    4.7322   -9.3637    0.0000 C   0  0  0  0  0  0  0  0  0  0  0  0
    4.0177   -8.9513    0.0000 C   0  0  0  0  0  0  0  0  0  0  0  0
    2.5888   -8.9513    0.0000 O   0  0  0  0  0  0  0  0  0  0  0  0
    1.8743   -9.3637    0.0000 C   0  0  0  0  0  0  0  0  0  0  0  0
    2.5888  -10.6013    0.0000 O   0  0  0  0  0  0  0  0  0  0  0  0
    5.4467   -8.9513    0.0000 C   0  0  0  0  0  0  0  0  0  0  0  0
    6.1612   -9.3637    0.0000 C   0  0  0  0  0  0  0  0  0  0  0  0
    6.8756   -8.9513    0.0000 C   0  0  0  0  0  0  0  0  0  0  0  0
    7.5901   -9.3637    0.0000 C   0  0  0  0  0  0  0  0  0  0  0  0
    8.3046   -8.9513    0.0000 C   0  0  0  0  0  0  0  0  0  0  0  0
    9.0190   -9.3637    0.0000 C   0  0  0  0  0  0  0  0  0  0  0  0
    9.7335   -8.9513    0.0000 C   0  0  0  0  0  0  0  0  0  0  0  0
   10.4480   -9.3637    0.0000 C   0  0  0  0  0  0  0  0  0  0  0  0
   11.1625   -8.9513    0.0000 C   0  0  0  0  0  0  0  0  0  0  0  0
   11.8769   -9.3637    0.0000 C   0  0  0  0  0  0  0  0  0  0  0  0
   12.5914   -8.9513    0.0000 C   0  0  0  0  0  0  0  0  0  0  0  0
   13.3059   -9.3637    0.0000 C   0  0  0  0  0  0  0  0  0  0  0  0
    6.8756   -8.1263    0.0000 O   0  0  0  0  0  0  0  0  0  0  0  0
    8.3046   -8.1263    0.0000 O   0  0  0  0  0  0  0  0  0  0  0  0
  1  2  2  0  0  0  0
  2  3  1  0  0  0  0
  3  4  2  0  0  0  0
  4  5  1  0  0  0  0
  5  6  2  0  0  0  0
  6  1  1  0  0  0  0
  1  7  1  0  0  0  0
  7  8  1  0  0  0  0
  2  9  1  0  0  0  0
  5 10  1  0  0  0  0
 10 11  1  0  0  0  0
 11 12  1  0  0  0  0
 12 13  1  0  0  0  0
 13 14  1  0  0  0  0
 14 15  1  0  0  0  0
 15 16  1  0  0  0  0
 16 17  1  0  0  0  0
 17 18  1  0  0  0  0
 18 19  1  0  0  0  0
 19 20  1  0  0  0  0
 20 21  1  0  0  0  0
 12 22  2  0  0  0  0
 14 23  2  0  0  0  0
M  END
>  <cdx:fragmentId>
5

$$$$
