69016.cdx
  Mrv1902 05222410242D          

 11 10  0  0  0  0            999 V2000
    5.5571   -3.7036    0.0000 C   0  0  0  0  0  0  0  0  0  0  0  0
    6.2645   -3.2792    0.0000 C   0  0  0  0  0  0  0  0  0  0  0  0
    6.9858   -3.6797    0.0000 C   0  0  0  0  0  0  0  0  0  0  0  0
    7.6933   -3.2553    0.0000 C   0  0  0  0  0  0  0  0  0  0  0  0
    8.4146   -3.6558    0.0000 C   0  0  0  0  0  0  0  0  0  0  0  0
    8.4146   -4.4808    0.0000 C   0  0  0  0  0  0  0  0  0  0  0  0
    4.8426   -4.1161    0.0000 O   0  0  0  0  0  0  0  0  0  0  0  0
    9.1290   -3.2433    0.0000 C   0  0  0  0  0  0  0  0  0  0  0  0
    5.9696   -4.4181    0.0000 C   0  0  0  0  0  0  0  0  0  0  0  0
    5.1386   -2.9926    0.0000 C   0  0  0  0  0  0  0  0  0  0  0  0
    5.5451   -2.2747    0.0000 C   0  0  0  0  0  0  0  0  0  0  0  0
  1  2  1  0  0  0  0
  2  3  1  0  0  0  0
  3  4  1  0  0  0  0
  4  5  1  0  0  0  0
  5  6  2  0  0  0  0
  1  7  1  0  0  0  0
  5  8  1  0  0  0  0
  1  9  1  0  0  0  0
  1 10  1  0  0  0  0
 10 11  2  0  0  0  0
M  END
>  <cdx:fragmentId>
5

$$$$
