70690437.cdx
  Mrv1902 05222410192D          

 29 31  0  0  0  0            999 V2000
    8.1774  -15.0342    0.0000 C   0  0  1  0  0  0  0  0  0  0  0  0
    8.8919  -14.6217    0.0000 C   0  0  1  0  0  0  0  0  0  0  0  0
    8.8919  -13.7967    0.0000 C   0  0  1  0  0  0  0  0  0  0  0  0
    8.1774  -13.3842    0.0000 C   0  0  0  0  0  0  0  0  0  0  0  0
    7.4629  -13.7967    0.0000 C   0  0  0  0  0  0  0  0  0  0  0  0
    7.4629  -14.6217    0.0000 O   0  0  0  0  0  0  0  0  0  0  0  0
    9.6765  -13.5418    0.0000 C   0  0  1  0  0  0  0  0  0  0  0  0
   10.1614  -14.2092    0.0000 C   0  0  0  0  0  0  0  0  0  0  0  0
    9.6765  -14.8767    0.0000 C   0  0  0  0  0  0  0  0  0  0  0  0
    8.1774  -12.5592    0.0000 C   0  0  0  0  0  0  0  0  0  0  0  0
    8.8919  -12.1467    0.0000 O   0  0  0  0  0  0  0  0  0  0  0  0
    7.4629  -12.1467    0.0000 O   0  0  0  0  0  0  0  0  0  0  0  0
    8.1774  -15.8592    0.0000 O   0  0  0  0  0  0  0  0  0  0  0  0
    6.7485  -15.8592    0.0000 O   0  0  0  0  0  0  0  0  0  0  0  0
    7.4629  -16.2717    0.0000 C   0  0  2  0  0  0  0  0  0  0  0  0
    7.4629  -17.0967    0.0000 C   0  0  1  0  0  0  0  0  0  0  0  0
    6.7485  -17.5092    0.0000 C   0  0  2  0  0  0  0  0  0  0  0  0
    6.0340  -17.0967    0.0000 C   0  0  1  0  0  0  0  0  0  0  0  0
    6.0340  -16.2717    0.0000 C   0  0  1  0  0  0  0  0  0  0  0  0
    5.3195  -15.8592    0.0000 C   0  0  0  0  0  0  0  0  0  0  0  0
    4.6051  -16.2717    0.0000 O   0  0  0  0  0  0  0  0  0  0  0  0
    5.3195  -17.5092    0.0000 O   0  0  0  0  0  0  0  0  0  0  0  0
    6.7485  -18.3342    0.0000 O   0  0  0  0  0  0  0  0  0  0  0  0
    8.1774  -17.5092    0.0000 O   0  0  0  0  0  0  0  0  0  0  0  0
    9.9314  -15.6613    0.0000 C   0  0  0  0  0  0  0  0  0  0  0  0
    9.9314  -12.7572    0.0000 O   0  0  0  0  0  0  0  0  0  0  0  0
    8.9781  -12.9763    0.0000 H   0  0  0  0  0  0  0  0  0  0  0  0
    8.9781  -15.4422    0.0000 H   0  0  0  0  0  0  0  0  0  0  0  0
    7.4629  -11.3217    0.0000 C   0  0  0  0  0  0  0  0  0  0  0  0
  1  2  1  0  0  0  0
  2  3  1  0  0  0  0
  3  4  1  0  0  0  0
  4  5  2  0  0  0  0
  5  6  1  0  0  0  0
  1  6  1  0  0  0  0
  7  8  1  0  0  0  0
  8  9  2  0  0  0  0
  9  2  1  0  0  0  0
  7  3  1  0  0  0  0
 10 11  2  0  0  0  0
 10 12  1  0  0  0  0
  4 10  1  0  0  0  0
 14 15  1  0  0  0  0
 15 16  1  0  0  0  0
 16 17  1  0  0  0  0
 17 18  1  0  0  0  0
 18 19  1  0  0  0  0
 14 19  1  0  0  0  0
 20 21  1  0  0  0  0
 19 20  1  1  0  0  0
 18 22  1  6  0  0  0
 17 23  1  1  0  0  0
 16 24  1  6  0  0  0
 15 13  1  1  0  0  0
  1 13  1  6  0  0  0
  9 25  1  0  0  0  0
  7 26  1  6  0  0  0
  3 27  1  6  0  0  0
  2 28  1  6  0  0  0
 12 29  1  0  0  0  0
M  END
>  <cdx:groupId>
195284

>  <cdx:fragmentId>
195198

$$$$
