690815.cdx
  Mrv1902 05222410202D          

 61 68  0  0  0  0            999 V2000
    1.8371  -11.0032    0.0000 C   0  0  0  0  0  0  0  0  0  0  0  0
    1.1226  -10.5907    0.0000 C   0  0  0  0  0  0  0  0  0  0  0  0
    1.8371  -11.8282    0.0000 O   0  0  0  0  0  0  0  0  0  0  0  0
    2.5516  -10.5907    0.0000 O   0  0  0  0  0  0  0  0  0  0  0  0
    3.2661   -8.5282    0.0000 O   0  0  0  0  0  0  0  0  0  0  0  0
    3.2661   -9.3532    0.0000 C   0  0  2  0  0  0  0  0  0  0  0  0
    2.5516   -9.7657    0.0000 C   0  0  1  0  0  0  0  0  0  0  0  0
    1.8371   -9.3532    0.0000 C   0  0  2  0  0  0  0  0  0  0  0  0
    1.8371   -8.5282    0.0000 C   0  0  1  0  0  0  0  0  0  0  0  0
    2.5516   -8.1157    0.0000 C   0  0  1  0  0  0  0  0  0  0  0  0
    2.5516   -7.2907    0.0000 C   0  0  0  0  0  0  0  0  0  0  0  0
    1.8371   -6.8782    0.0000 O   0  0  0  0  0  0  0  0  0  0  0  0
    1.1226   -8.1157    0.0000 O   0  0  0  0  0  0  0  0  0  0  0  0
    1.1226   -9.7657    0.0000 O   0  0  0  0  0  0  0  0  0  0  0  0
    3.9805   -9.7657    0.0000 O   0  0  0  0  0  0  0  0  0  0  0  0
    6.1239   -8.5282    0.0000 O   0  0  0  0  0  0  0  0  0  0  0  0
    6.1239   -9.3532    0.0000 C   0  0  2  0  0  0  0  0  0  0  0  0
    5.4095   -9.7657    0.0000 C   0  0  1  0  0  0  0  0  0  0  0  0
    4.6950   -9.3532    0.0000 C   0  0  2  0  0  0  0  0  0  0  0  0
    4.6950   -8.5282    0.0000 C   0  0  2  0  0  0  0  0  0  0  0  0
    5.4095   -8.1157    0.0000 C   0  0  1  0  0  0  0  0  0  0  0  0
    5.4095   -7.2907    0.0000 C   0  0  0  0  0  0  0  0  0  0  0  0
    6.8384   -9.7657    0.0000 O   0  0  0  0  0  0  0  0  0  0  0  0
   12.5542   -7.2907    0.0000 C   0  0  0  0  0  0  0  0  0  0  0  0
   12.5542   -8.1157    0.0000 C   0  0  1  0  0  0  0  0  0  0  0  0
   11.8397   -8.5282    0.0000 C   0  0  0  0  0  0  0  0  0  0  0  0
   11.1252   -8.1157    0.0000 C   0  0  1  0  0  0  0  0  0  0  0  0
   10.4108   -8.5282    0.0000 C   0  0  2  0  0  0  0  0  0  0  0  0
   10.4108   -9.3532    0.0000 C   0  0  0  0  0  0  0  0  0  0  0  0
    9.6963   -9.7657    0.0000 C   0  0  0  0  0  0  0  0  0  0  0  0
    8.9818   -9.3532    0.0000 C   0  0  1  0  0  0  0  0  0  0  0  0
    8.2674   -9.7657    0.0000 C   0  0  2  0  0  0  0  0  0  0  0  0
    7.5529   -9.3532    0.0000 C   0  0  2  0  0  0  0  0  0  0  0  0
    7.5529   -8.5282    0.0000 C   0  0  0  0  0  0  0  0  0  0  0  0
    8.2674   -8.1157    0.0000 C   0  0  0  0  0  0  0  0  0  0  0  0
    8.9818   -8.5282    0.0000 C   0  0  2  0  0  0  0  0  0  0  0  0
    9.6963   -8.1157    0.0000 C   0  0  1  0  0  0  0  0  0  0  0  0
    9.6963   -7.2907    0.0000 C   0  0  0  0  0  0  0  0  0  0  0  0
   10.4108   -6.8782    0.0000 C   0  0  0  0  0  0  0  0  0  0  0  0
   11.1252   -7.2907    0.0000 C   0  0  0  0  0  0  0  0  0  0  0  0
   11.8397   -6.8782    0.0000 C   0  0  2  0  0  0  0  0  0  0  0  0
   11.8397   -6.0532    0.0000 C   0  0  0  0  0  0  0  0  0  0  0  0
   12.5542   -5.6407    0.0000 C   0  0  2  0  0  0  0  0  0  0  0  0
   13.2687   -6.0532    0.0000 C   0  0  0  0  0  0  0  0  0  0  0  0
   13.2687   -6.8782    0.0000 C   0  0  0  0  0  0  0  0  0  0  0  0
   12.1417   -4.9262    0.0000 C   0  0  0  0  0  0  0  0  0  0  0  0
   12.9667   -4.9262    0.0000 C   0  0  0  0  0  0  0  0  0  0  0  0
    8.9818   -7.7032    0.0000 C   0  0  0  0  0  0  0  0  0  0  0  0
    7.8549  -10.4801    0.0000 C   0  0  0  0  0  0  0  0  0  0  0  0
   10.4108   -7.7032    0.0000 C   0  0  0  0  0  0  0  0  0  0  0  0
   11.1252   -8.9407    0.0000 C   0  0  0  0  0  0  0  0  0  0  0  0
    8.6799  -10.4801    0.0000 C   0  0  0  0  0  0  0  0  0  0  0  0
    8.2674  -11.1946    0.0000 O   0  0  0  0  0  0  0  0  0  0  0  0
   13.2687   -8.5282    0.0000 O   0  0  0  0  0  0  0  0  0  0  0  0
    3.9805   -8.1157    0.0000 O   0  0  0  0  0  0  0  0  0  0  0  0
    5.4095  -10.5907    0.0000 O   0  0  0  0  0  0  0  0  0  0  0  0
    8.9818  -10.1782    0.0000 H   0  0  0  0  0  0  0  0  0  0  0  0
    9.6963   -8.9407    0.0000 H   0  0  0  0  0  0  0  0  0  0  0  0
   11.8397   -7.7032    0.0000 H   0  0  0  0  0  0  0  0  0  0  0  0
   11.1252   -6.4657    0.0000 O   0  0  0  0  0  0  0  0  0  0  0  0
   12.5542   -6.4657    0.0000 C   0  0  0  0  0  0  0  0  0  0  0  0
  1  2  1  0  0  0  0
  1  3  2  0  0  0  0
  1  4  1  0  0  0  0
  5  6  1  0  0  0  0
  6  7  1  0  0  0  0
  7  8  1  0  0  0  0
  8  9  1  0  0  0  0
  9 10  1  0  0  0  0
  5 10  1  0  0  0  0
 11 12  1  0  0  0  0
 10 11  1  1  0  0  0
  9 13  1  6  0  0  0
  8 14  1  1  0  0  0
 16 17  1  0  0  0  0
 17 18  1  0  0  0  0
 18 19  1  0  0  0  0
 19 20  1  0  0  0  0
 20 21  1  0  0  0  0
 16 21  1  0  0  0  0
 21 22  1  1  0  0  0
 24 25  1  0  0  0  0
 25 26  1  0  0  0  0
 26 27  1  0  0  0  0
 27 28  1  0  0  0  0
 28 29  1  0  0  0  0
 29 30  1  0  0  0  0
 30 31  1  0  0  0  0
 31 32  1  0  0  0  0
 32 33  1  0  0  0  0
 33 34  1  0  0  0  0
 34 35  1  0  0  0  0
 35 36  1  0  0  0  0
 36 37  1  0  0  0  0
 37 38  1  0  0  0  0
 38 39  2  0  0  0  0
 39 40  1  0  0  0  0
 40 41  1  0  0  0  0
 41 42  1  0  0  0  0
 42 43  1  0  0  0  0
 43 44  1  0  0  0  0
 44 45  1  0  0  0  0
 24 45  1  0  0  0  0
 24 41  1  0  0  0  0
 27 40  1  0  0  0  0
 28 37  1  0  0  0  0
 31 36  1  0  0  0  0
 43 46  1  1  0  0  0
 43 47  1  6  0  0  0
 36 48  1  1  0  0  0
 32 49  1  1  0  0  0
 28 50  1  1  0  0  0
 27 51  1  6  0  0  0
 52 53  1  0  0  0  0
 32 52  1  6  0  0  0
 25 54  1  6  0  0  0
 33 23  1  1  0  0  0
 17 23  1  1  0  0  0
 20 55  1  1  0  0  0
 18 56  1  6  0  0  0
 19 15  1  1  0  0  0
  6 15  1  1  0  0  0
  7  4  1  6  0  0  0
 31 57  1  6  0  0  0
 37 58  1  6  0  0  0
 41 59  1  1  0  0  0
 40 60  1  0  0  0  0
 24 61  1  0  0  0  0
 61 60  1  0  0  0  0
M  END
>  <cdx:fragmentId>
262433

$$$$
