690816.cdx
  Mrv1902 05222410192D          

 61 68  0  0  0  0            999 V2000
    1.0558   -7.1400    0.0000 C   0  0  0  0  0  0  0  0  0  0  0  0
    0.3413   -6.7275    0.0000 C   0  0  0  0  0  0  0  0  0  0  0  0
    1.0558   -7.9650    0.0000 O   0  0  0  0  0  0  0  0  0  0  0  0
    1.7703   -6.7275    0.0000 O   0  0  0  0  0  0  0  0  0  0  0  0
    3.9137   -7.1400    0.0000 O   0  0  0  0  0  0  0  0  0  0  0  0
    3.1992   -6.7275    0.0000 C   0  0  1  0  0  0  0  0  0  0  0  0
    2.4848   -7.1400    0.0000 C   0  0  2  0  0  0  0  0  0  0  0  0
    2.4848   -7.9650    0.0000 C   0  0  1  0  0  0  0  0  0  0  0  0
    3.1992   -8.3775    0.0000 C   0  0  2  0  0  0  0  0  0  0  0  0
    3.9137   -7.9650    0.0000 C   0  0  2  0  0  0  0  0  0  0  0  0
    3.1992   -5.9025    0.0000 C   0  0  0  0  0  0  0  0  0  0  0  0
    2.4848   -5.4900    0.0000 O   0  0  0  0  0  0  0  0  0  0  0  0
    3.1992   -9.2025    0.0000 O   0  0  0  0  0  0  0  0  0  0  0  0
    1.7703   -8.3775    0.0000 O   0  0  0  0  0  0  0  0  0  0  0  0
    4.6282   -8.3775    0.0000 O   0  0  0  0  0  0  0  0  0  0  0  0
    6.7716   -7.1400    0.0000 O   0  0  0  0  0  0  0  0  0  0  0  0
    6.7716   -7.9650    0.0000 C   0  0  2  0  0  0  0  0  0  0  0  0
    6.0571   -8.3775    0.0000 C   0  0  1  0  0  0  0  0  0  0  0  0
    5.3426   -7.9650    0.0000 C   0  0  2  0  0  0  0  0  0  0  0  0
    5.3426   -7.1400    0.0000 C   0  0  2  0  0  0  0  0  0  0  0  0
    6.0571   -6.7275    0.0000 C   0  0  1  0  0  0  0  0  0  0  0  0
    6.0571   -5.9025    0.0000 C   0  0  0  0  0  0  0  0  0  0  0  0
    7.4860   -8.3775    0.0000 O   0  0  0  0  0  0  0  0  0  0  0  0
   13.2018   -5.9025    0.0000 C   0  0  0  0  0  0  0  0  0  0  0  0
   13.2018   -6.7275    0.0000 C   0  0  1  0  0  0  0  0  0  0  0  0
   12.4873   -7.1400    0.0000 C   0  0  0  0  0  0  0  0  0  0  0  0
   11.7729   -6.7275    0.0000 C   0  0  1  0  0  0  0  0  0  0  0  0
   11.0584   -7.1400    0.0000 C   0  0  2  0  0  0  0  0  0  0  0  0
   11.0584   -7.9650    0.0000 C   0  0  0  0  0  0  0  0  0  0  0  0
   10.3439   -8.3775    0.0000 C   0  0  0  0  0  0  0  0  0  0  0  0
    9.6295   -7.9650    0.0000 C   0  0  1  0  0  0  0  0  0  0  0  0
    8.9150   -8.3775    0.0000 C   0  0  2  0  0  0  0  0  0  0  0  0
    8.2005   -7.9650    0.0000 C   0  0  2  0  0  0  0  0  0  0  0  0
    8.2005   -7.1400    0.0000 C   0  0  0  0  0  0  0  0  0  0  0  0
    8.9150   -6.7275    0.0000 C   0  0  0  0  0  0  0  0  0  0  0  0
    9.6295   -7.1400    0.0000 C   0  0  2  0  0  0  0  0  0  0  0  0
   10.3439   -6.7275    0.0000 C   0  0  1  0  0  0  0  0  0  0  0  0
   10.3439   -5.9025    0.0000 C   0  0  0  0  0  0  0  0  0  0  0  0
   11.0584   -5.4900    0.0000 C   0  0  0  0  0  0  0  0  0  0  0  0
   11.7729   -5.9025    0.0000 C   0  0  0  0  0  0  0  0  0  0  0  0
   12.4873   -5.4900    0.0000 C   0  0  2  0  0  0  0  0  0  0  0  0
   12.4873   -4.6650    0.0000 C   0  0  0  0  0  0  0  0  0  0  0  0
   13.2018   -4.2525    0.0000 C   0  0  2  0  0  0  0  0  0  0  0  0
   13.9163   -4.6650    0.0000 C   0  0  0  0  0  0  0  0  0  0  0  0
   13.9163   -5.4900    0.0000 C   0  0  0  0  0  0  0  0  0  0  0  0
   12.7893   -3.5380    0.0000 C   0  0  0  0  0  0  0  0  0  0  0  0
   13.6143   -3.5380    0.0000 C   0  0  0  0  0  0  0  0  0  0  0  0
    9.6295   -6.3150    0.0000 C   0  0  0  0  0  0  0  0  0  0  0  0
    8.5025   -9.0919    0.0000 C   0  0  0  0  0  0  0  0  0  0  0  0
   11.0584   -6.3150    0.0000 C   0  0  0  0  0  0  0  0  0  0  0  0
   11.7729   -7.5525    0.0000 C   0  0  0  0  0  0  0  0  0  0  0  0
    9.3275   -9.0919    0.0000 C   0  0  0  0  0  0  0  0  0  0  0  0
    8.9150   -9.8064    0.0000 O   0  0  0  0  0  0  0  0  0  0  0  0
   13.9163   -7.1400    0.0000 O   0  0  0  0  0  0  0  0  0  0  0  0
    4.6282   -6.7275    0.0000 O   0  0  0  0  0  0  0  0  0  0  0  0
    6.0571   -9.2025    0.0000 O   0  0  0  0  0  0  0  0  0  0  0  0
    9.6295   -8.7900    0.0000 H   0  0  0  0  0  0  0  0  0  0  0  0
   10.3439   -7.5525    0.0000 H   0  0  0  0  0  0  0  0  0  0  0  0
   12.4873   -6.3150    0.0000 H   0  0  0  0  0  0  0  0  0  0  0  0
   11.7729   -5.0775    0.0000 O   0  0  0  0  0  0  0  0  0  0  0  0
   13.2018   -5.0775    0.0000 C   0  0  0  0  0  0  0  0  0  0  0  0
  1  2  1  0  0  0  0
  1  3  2  0  0  0  0
  1  4  1  0  0  0  0
  5  6  1  0  0  0  0
  6  7  1  0  0  0  0
  7  8  1  0  0  0  0
  8  9  1  0  0  0  0
  9 10  1  0  0  0  0
  5 10  1  0  0  0  0
 11 12  1  0  0  0  0
  6 11  1  1  0  0  0
  9 13  1  6  0  0  0
  8 14  1  1  0  0  0
 16 17  1  0  0  0  0
 17 18  1  0  0  0  0
 18 19  1  0  0  0  0
 19 20  1  0  0  0  0
 20 21  1  0  0  0  0
 16 21  1  0  0  0  0
 21 22  1  1  0  0  0
 24 25  1  0  0  0  0
 25 26  1  0  0  0  0
 26 27  1  0  0  0  0
 27 28  1  0  0  0  0
 28 29  1  0  0  0  0
 29 30  1  0  0  0  0
 30 31  1  0  0  0  0
 31 32  1  0  0  0  0
 32 33  1  0  0  0  0
 33 34  1  0  0  0  0
 34 35  1  0  0  0  0
 35 36  1  0  0  0  0
 36 37  1  0  0  0  0
 37 38  1  0  0  0  0
 38 39  2  0  0  0  0
 39 40  1  0  0  0  0
 40 41  1  0  0  0  0
 41 42  1  0  0  0  0
 42 43  1  0  0  0  0
 43 44  1  0  0  0  0
 44 45  1  0  0  0  0
 24 45  1  0  0  0  0
 24 41  1  0  0  0  0
 27 40  1  0  0  0  0
 28 37  1  0  0  0  0
 31 36  1  0  0  0  0
 43 46  1  1  0  0  0
 43 47  1  6  0  0  0
 36 48  1  1  0  0  0
 32 49  1  1  0  0  0
 28 50  1  1  0  0  0
 27 51  1  6  0  0  0
 52 53  1  0  0  0  0
 32 52  1  6  0  0  0
 25 54  1  6  0  0  0
 33 23  1  1  0  0  0
 17 23  1  1  0  0  0
 20 55  1  1  0  0  0
 18 56  1  6  0  0  0
 19 15  1  1  0  0  0
 10 15  1  1  0  0  0
  7  4  1  6  0  0  0
 31 57  1  6  0  0  0
 37 58  1  6  0  0  0
 41 59  1  1  0  0  0
 40 60  1  0  0  0  0
 24 61  1  0  0  0  0
 61 60  1  0  0  0  0
M  END
>  <cdx:fragmentId>
262633

$$$$
