6908.cdx
  Mrv1902 05222410182D          

 12 12  0  0  0  0            999 V2000
    3.9485   -3.9394    0.0000 C   0  0  0  0  0  0  0  0  0  0  0  0
    3.2340   -4.3519    0.0000 C   0  0  0  0  0  0  0  0  0  0  0  0
    2.5195   -3.9394    0.0000 C   0  0  0  0  0  0  0  0  0  0  0  0
    2.5195   -3.1144    0.0000 C   0  0  0  0  0  0  0  0  0  0  0  0
    3.2340   -2.7019    0.0000 C   0  0  0  0  0  0  0  0  0  0  0  0
    3.9485   -3.1144    0.0000 C   0  0  0  0  0  0  0  0  0  0  0  0
    4.6629   -2.7019    0.0000 C   0  0  0  0  0  0  0  0  0  0  0  0
    3.2340   -1.8769    0.0000 C   0  0  0  0  0  0  0  0  0  0  0  0
    1.8051   -2.7019    0.0000 C   0  0  0  0  0  0  0  0  0  0  0  0
    1.8051   -4.3519    0.0000 C   0  0  0  0  0  0  0  0  0  0  0  0
    3.2340   -5.1769    0.0000 C   0  0  0  0  0  0  0  0  0  0  0  0
    4.6629   -4.3519    0.0000 C   0  0  0  0  0  0  0  0  0  0  0  0
  1  2  1  0  0  0  0
  2  3  2  0  0  0  0
  3  4  1  0  0  0  0
  4  5  2  0  0  0  0
  5  6  1  0  0  0  0
  1  6  2  0  0  0  0
  6  7  1  0  0  0  0
  5  8  1  0  0  0  0
  4  9  1  0  0  0  0
  3 10  1  0  0  0  0
  2 11  1  0  0  0  0
  1 12  1  0  0  0  0
M  END
>  <cdx:groupId>
38

>  <cdx:fragmentId>
5

$$$$
