690814.cdx
  Mrv1902 05222410202D          

 61 68  0  0  0  0            999 V2000
    0.8313   -9.5187    0.0000 C   0  0  0  0  0  0  0  0  0  0  0  0
    0.1169   -9.1062    0.0000 C   0  0  0  0  0  0  0  0  0  0  0  0
    0.8313  -10.3437    0.0000 O   0  0  0  0  0  0  0  0  0  0  0  0
    1.5458   -9.1062    0.0000 O   0  0  0  0  0  0  0  0  0  0  0  0
    3.6892   -9.5187    0.0000 O   0  0  0  0  0  0  0  0  0  0  0  0
    2.9748   -9.1062    0.0000 C   0  0  1  0  0  0  0  0  0  0  0  0
    2.2603   -9.5187    0.0000 C   0  0  2  0  0  0  0  0  0  0  0  0
    2.2603  -10.3437    0.0000 C   0  0  1  0  0  0  0  0  0  0  0  0
    2.9748  -10.7562    0.0000 C   0  0  2  0  0  0  0  0  0  0  0  0
    3.6892  -10.3437    0.0000 C   0  0  2  0  0  0  0  0  0  0  0  0
    2.9748   -8.2812    0.0000 C   0  0  0  0  0  0  0  0  0  0  0  0
    2.2603   -7.8687    0.0000 O   0  0  0  0  0  0  0  0  0  0  0  0
    2.9748  -11.5812    0.0000 O   0  0  0  0  0  0  0  0  0  0  0  0
    1.5458  -10.7562    0.0000 O   0  0  0  0  0  0  0  0  0  0  0  0
    4.4037  -10.7562    0.0000 O   0  0  0  0  0  0  0  0  0  0  0  0
    6.5471   -9.5187    0.0000 O   0  0  0  0  0  0  0  0  0  0  0  0
    6.5471  -10.3437    0.0000 C   0  0  2  0  0  0  0  0  0  0  0  0
    5.8326  -10.7562    0.0000 C   0  0  1  0  0  0  0  0  0  0  0  0
    5.1182  -10.3437    0.0000 C   0  0  2  0  0  0  0  0  0  0  0  0
    5.1182   -9.5187    0.0000 C   0  0  2  0  0  0  0  0  0  0  0  0
    5.8326   -9.1062    0.0000 C   0  0  1  0  0  0  0  0  0  0  0  0
    5.8326   -8.2812    0.0000 C   0  0  0  0  0  0  0  0  0  0  0  0
    7.2616  -10.7562    0.0000 O   0  0  0  0  0  0  0  0  0  0  0  0
   12.9774   -8.2812    0.0000 C   0  0  0  0  0  0  0  0  0  0  0  0
   12.9774   -9.1062    0.0000 C   0  0  2  0  0  0  0  0  0  0  0  0
   12.2629   -9.5187    0.0000 C   0  0  0  0  0  0  0  0  0  0  0  0
   11.5484   -9.1062    0.0000 C   0  0  1  0  0  0  0  0  0  0  0  0
   10.8339   -9.5187    0.0000 C   0  0  2  0  0  0  0  0  0  0  0  0
   10.8339  -10.3437    0.0000 C   0  0  0  0  0  0  0  0  0  0  0  0
   10.1195  -10.7562    0.0000 C   0  0  0  0  0  0  0  0  0  0  0  0
    9.4050  -10.3437    0.0000 C   0  0  1  0  0  0  0  0  0  0  0  0
    8.6905  -10.7562    0.0000 C   0  0  2  0  0  0  0  0  0  0  0  0
    7.9761  -10.3437    0.0000 C   0  0  2  0  0  0  0  0  0  0  0  0
    7.9761   -9.5187    0.0000 C   0  0  0  0  0  0  0  0  0  0  0  0
    8.6905   -9.1062    0.0000 C   0  0  0  0  0  0  0  0  0  0  0  0
    9.4050   -9.5187    0.0000 C   0  0  2  0  0  0  0  0  0  0  0  0
   10.1195   -9.1062    0.0000 C   0  0  1  0  0  0  0  0  0  0  0  0
   10.1195   -8.2812    0.0000 C   0  0  0  0  0  0  0  0  0  0  0  0
   10.8339   -7.8687    0.0000 C   0  0  0  0  0  0  0  0  0  0  0  0
   11.5484   -8.2812    0.0000 C   0  0  0  0  0  0  0  0  0  0  0  0
   12.2629   -7.8687    0.0000 C   0  0  2  0  0  0  0  0  0  0  0  0
   12.2629   -7.0437    0.0000 C   0  0  0  0  0  0  0  0  0  0  0  0
   12.9774   -6.6312    0.0000 C   0  0  2  0  0  0  0  0  0  0  0  0
   13.6918   -7.0437    0.0000 C   0  0  0  0  0  0  0  0  0  0  0  0
   13.6918   -7.8687    0.0000 C   0  0  0  0  0  0  0  0  0  0  0  0
   12.5649   -5.9167    0.0000 C   0  0  0  0  0  0  0  0  0  0  0  0
   13.3899   -5.9167    0.0000 C   0  0  0  0  0  0  0  0  0  0  0  0
    9.4050   -8.6937    0.0000 C   0  0  0  0  0  0  0  0  0  0  0  0
    8.2780  -11.4707    0.0000 C   0  0  0  0  0  0  0  0  0  0  0  0
   10.8339   -8.6937    0.0000 C   0  0  0  0  0  0  0  0  0  0  0  0
   11.5484   -9.9312    0.0000 C   0  0  0  0  0  0  0  0  0  0  0  0
    9.1030  -11.4707    0.0000 C   0  0  0  0  0  0  0  0  0  0  0  0
    8.6905  -12.1851    0.0000 O   0  0  0  0  0  0  0  0  0  0  0  0
   13.6918   -9.5187    0.0000 O   0  0  0  0  0  0  0  0  0  0  0  0
    4.4037   -9.1062    0.0000 O   0  0  0  0  0  0  0  0  0  0  0  0
    5.8326  -11.5812    0.0000 O   0  0  0  0  0  0  0  0  0  0  0  0
    9.4050  -11.1687    0.0000 H   0  0  0  0  0  0  0  0  0  0  0  0
   10.1195   -9.9312    0.0000 H   0  0  0  0  0  0  0  0  0  0  0  0
   12.2629   -8.6937    0.0000 H   0  0  0  0  0  0  0  0  0  0  0  0
   11.5484   -7.4562    0.0000 O   0  0  0  0  0  0  0  0  0  0  0  0
   12.9774   -7.4562    0.0000 C   0  0  0  0  0  0  0  0  0  0  0  0
  1  2  1  0  0  0  0
  1  3  2  0  0  0  0
  1  4  1  0  0  0  0
  5  6  1  0  0  0  0
  6  7  1  0  0  0  0
  7  8  1  0  0  0  0
  8  9  1  0  0  0  0
  9 10  1  0  0  0  0
  5 10  1  0  0  0  0
 11 12  1  0  0  0  0
  6 11  1  1  0  0  0
  9 13  1  6  0  0  0
  8 14  1  1  0  0  0
 16 17  1  0  0  0  0
 17 18  1  0  0  0  0
 18 19  1  0  0  0  0
 19 20  1  0  0  0  0
 20 21  1  0  0  0  0
 16 21  1  0  0  0  0
 21 22  1  1  0  0  0
 24 25  1  0  0  0  0
 25 26  1  0  0  0  0
 26 27  1  0  0  0  0
 27 28  1  0  0  0  0
 28 29  1  0  0  0  0
 29 30  1  0  0  0  0
 30 31  1  0  0  0  0
 31 32  1  0  0  0  0
 32 33  1  0  0  0  0
 33 34  1  0  0  0  0
 34 35  1  0  0  0  0
 35 36  1  0  0  0  0
 36 37  1  0  0  0  0
 37 38  1  0  0  0  0
 38 39  2  0  0  0  0
 39 40  1  0  0  0  0
 40 41  1  0  0  0  0
 41 42  1  0  0  0  0
 42 43  1  0  0  0  0
 43 44  1  0  0  0  0
 44 45  1  0  0  0  0
 24 45  1  0  0  0  0
 24 41  1  0  0  0  0
 27 40  1  0  0  0  0
 28 37  1  0  0  0  0
 31 36  1  0  0  0  0
 43 46  1  1  0  0  0
 43 47  1  6  0  0  0
 36 48  1  1  0  0  0
 32 49  1  1  0  0  0
 28 50  1  1  0  0  0
 27 51  1  6  0  0  0
 52 53  1  0  0  0  0
 32 52  1  6  0  0  0
 25 54  1  1  0  0  0
 33 23  1  1  0  0  0
 17 23  1  1  0  0  0
 20 55  1  1  0  0  0
 18 56  1  6  0  0  0
 19 15  1  1  0  0  0
 10 15  1  1  0  0  0
  7  4  1  6  0  0  0
 31 57  1  6  0  0  0
 37 58  1  6  0  0  0
 41 59  1  1  0  0  0
 40 60  1  0  0  0  0
 24 61  1  0  0  0  0
 61 60  1  0  0  0  0
M  END
>  <cdx:fragmentId>
262230

$$$$
