15690922.cdx
  Mrv1902 05222410262D          

 15 17  0  0  0  0            999 V2000
    7.5307  -14.6723    0.0000 C   0  0  0  0  0  0  0  0  0  0  0  0
    7.2757  -13.8877    0.0000 C   0  0  0  0  0  0  0  0  0  0  0  0
    7.9432  -13.4028    0.0000 C   0  0  0  0  0  0  0  0  0  0  0  0
    8.6106  -13.8877    0.0000 C   0  0  0  0  0  0  0  0  0  0  0  0
    8.3557  -14.6723    0.0000 C   0  0  0  0  0  0  0  0  0  0  0  0
    8.3557  -15.4973    0.0000 C   0  0  0  0  0  0  0  0  0  0  0  0
    7.5307  -15.4973    0.0000 C   0  0  0  0  0  0  0  0  0  0  0  0
    6.8162  -15.9098    0.0000 C   0  0  0  0  0  0  0  0  0  0  0  0
    6.1017  -15.4973    0.0000 C   0  0  0  0  0  0  0  0  0  0  0  0
    6.1017  -14.6723    0.0000 C   0  0  0  0  0  0  0  0  0  0  0  0
    6.8162  -14.2598    0.0000 C   0  0  0  0  0  0  0  0  0  0  0  0
    5.3873  -15.9098    0.0000 C   0  0  0  0  0  0  0  0  0  0  0  0
    9.1526  -15.7108    0.0000 C   0  0  0  0  0  0  0  0  0  0  0  0
    8.5692  -16.2942    0.0000 C   0  0  0  0  0  0  0  0  0  0  0  0
    6.4911  -13.6327    0.0000 C   0  0  0  0  0  0  0  0  0  0  0  0
  1  2  1  0  0  0  0
  2  3  1  0  0  0  0
  3  4  1  0  0  0  0
  4  5  1  0  0  0  0
  5  6  1  0  0  0  0
  6  7  1  0  0  0  0
  7  8  1  0  0  0  0
  8  9  2  0  0  0  0
  9 10  1  0  0  0  0
 10 11  1  0  0  0  0
  1 11  1  0  0  0  0
  1  7  1  0  0  0  0
  1  5  1  0  0  0  0
  9 12  1  0  0  0  0
  6 13  1  0  0  0  0
  6 14  1  0  0  0  0
  2 15  1  0  0  0  0
M  END
>  <cdx:groupId>
115544

>  <cdx:fragmentId>
115500

$$$$
