6912.cdx
  Mrv1902 05222410272D          

 10  9  0  0  0  0            999 V2000
    3.5582   -3.1014    0.0000 C   0  0  0  0  0  0  0  0  0  0  0  0
    4.2727   -3.5139    0.0000 C   0  0  1  0  0  0  0  0  0  0  0  0
    4.9871   -3.1014    0.0000 C   0  0  0  0  0  0  0  0  0  0  0  0
    5.7016   -3.5139    0.0000 C   0  0  1  0  0  0  0  0  0  0  0  0
    6.4161   -3.1014    0.0000 C   0  0  0  0  0  0  0  0  0  0  0  0
    2.8437   -3.5139    0.0000 O   0  0  0  0  0  0  0  0  0  0  0  0
    4.2727   -4.3389    0.0000 O   0  0  0  0  0  0  0  0  0  0  0  0
    4.9871   -2.2764    0.0000 O   0  0  0  0  0  0  0  0  0  0  0  0
    5.7016   -4.3389    0.0000 O   0  0  0  0  0  0  0  0  0  0  0  0
    7.1305   -3.5139    0.0000 O   0  0  0  0  0  0  0  0  0  0  0  0
  1  2  1  0  0  0  0
  2  3  1  0  0  0  0
  3  4  1  0  0  0  0
  4  5  1  0  0  0  0
  1  6  1  0  0  0  0
  2  7  1  1  0  0  0
  3  8  1  0  0  0  0
  4  9  1  1  0  0  0
  5 10  1  0  0  0  0
M  END
>  <cdx:groupId>
31

>  <cdx:fragmentId>
5

$$$$
