69144.cdx
  Mrv1902 05222410222D          

 11 11  0  0  0  0            999 V2000
    8.1723   -4.3066    0.0000 C   0  0  0  0  0  0  0  0  0  0  0  0
    8.8730   -5.5519    0.0000 C   0  0  0  0  0  0  0  0  0  0  0  0
    8.1632   -5.1315    0.0000 C   0  0  0  0  0  0  0  0  0  0  0  0
    8.1448   -6.7814    0.0000 C   0  0  0  0  0  0  0  0  0  0  0  0
    8.1356   -7.6064    0.0000 C   0  0  0  0  0  0  0  0  0  0  0  0
    7.4166   -8.0109    0.0000 C   0  0  0  0  0  0  0  0  0  0  0  0
    6.7068   -7.5905    0.0000 C   0  0  0  0  0  0  0  0  0  0  0  0
    6.7160   -6.7655    0.0000 C   0  0  0  0  0  0  0  0  0  0  0  0
    7.4350   -6.3610    0.0000 C   0  0  0  0  0  0  0  0  0  0  0  0
    6.7343   -5.1156    0.0000 O   0  0  0  0  0  0  0  0  0  0  0  0
    7.4441   -5.5360    0.0000 C   0  0  0  0  0  0  0  0  0  0  0  0
 11  3  1  0  0  0  0
  3  1  1  0  0  0  0
  3  2  1  0  0  0  0
 11  9  1  0  0  0  0
  9  4  2  0  0  0  0
  5  4  1  0  0  0  0
  6  5  2  0  0  0  0
  7  6  1  0  0  0  0
  8  7  2  0  0  0  0
  9  8  1  0  0  0  0
 11 10  2  0  0  0  0
M  END
>  <cdx:fragmentId>
9

$$$$
