91691581.cdx
  Mrv1902 05222410232D          

 13 12  0  0  0  0            999 V2000
    5.4821  -14.7394    0.0000 C   0  0  0  0  0  0  0  0  0  0  0  0
    4.7676  -15.1519    0.0000 C   0  0  0  0  0  0  0  0  0  0  0  0
    4.7676  -15.9769    0.0000 C   0  0  0  0  0  0  0  0  0  0  0  0
    5.4821  -13.9144    0.0000 O   0  0  0  0  0  0  0  0  0  0  0  0
    6.1965  -15.1519    0.0000 O   0  0  0  0  0  0  0  0  0  0  0  0
    4.0531  -14.7394    0.0000 C   0  0  0  0  0  0  0  0  0  0  0  0
    6.9110  -14.7394    0.0000 C   0  0  0  0  0  0  0  0  0  0  0  0
    7.6255  -15.1519    0.0000 C   0  0  0  0  0  0  0  0  0  0  0  0
    8.3400  -14.7394    0.0000 C   0  0  0  0  0  0  0  0  0  0  0  0
    9.0544  -15.1519    0.0000 C   0  0  0  0  0  0  0  0  0  0  0  0
    9.7689  -14.7394    0.0000 C   0  0  0  0  0  0  0  0  0  0  0  0
   10.4834  -15.1519    0.0000 C   0  0  0  0  0  0  0  0  0  0  0  0
    9.0544  -15.9769    0.0000 C   0  0  0  0  0  0  0  0  0  0  0  0
  1  2  1  0  0  0  0
  2  3  1  0  0  0  0
  1  4  2  0  0  0  0
  1  5  1  0  0  0  0
  2  6  1  0  0  0  0
  7  8  1  0  0  0  0
  8  9  1  0  0  0  0
  9 10  1  0  0  0  0
 10 11  1  0  0  0  0
 11 12  1  0  0  0  0
 10 13  1  0  0  0  0
  5  7  1  0  0  0  0
M  END
>  <cdx:groupId>
213856

>  <cdx:fragmentId>
213833

$$$$
