6919.cdx
  Mrv1902 05222410202D          

  8  8  0  0  0  0            999 V2000
    3.1892   -3.8031    0.0000 O   0  0  0  0  0  0  0  0  0  0  0  0
    3.2754   -2.9827    0.0000 C   0  0  0  0  0  0  0  0  0  0  0  0
    2.5217   -2.6471    0.0000 C   0  0  0  0  0  0  0  0  0  0  0  0
    1.9697   -3.2602    0.0000 C   0  0  0  0  0  0  0  0  0  0  0  0
    2.3822   -3.9747    0.0000 C   0  0  0  0  0  0  0  0  0  0  0  0
    3.9899   -2.5702    0.0000 C   0  0  0  0  0  0  0  0  0  0  0  0
    3.9899   -1.7452    0.0000 O   0  0  0  0  0  0  0  0  0  0  0  0
    4.7044   -2.9827    0.0000 O   0  0  0  0  0  0  0  0  0  0  0  0
  1  2  1  0  0  0  0
  2  3  2  0  0  0  0
  3  4  1  0  0  0  0
  4  5  2  0  0  0  0
  1  5  1  0  0  0  0
  6  7  2  0  0  0  0
  6  8  1  0  0  0  0
  2  6  1  0  0  0  0
M  END
>  <cdx:groupId>
26

>  <cdx:fragmentId>
5

$$$$
