692086.cdx
  Mrv1902 05222410222D          

 28 31  0  0  0  0            999 V2000
    5.6827   -8.1270    0.0000 C   0  0  0  0  0  0  0  0  0  0  0  0
    4.9682   -8.5395    0.0000 C   0  0  0  0  0  0  0  0  0  0  0  0
    4.9682   -9.3645    0.0000 C   0  0  0  0  0  0  0  0  0  0  0  0
    5.6827   -9.7770    0.0000 C   0  0  0  0  0  0  0  0  0  0  0  0
    6.3972   -9.3645    0.0000 C   0  0  0  0  0  0  0  0  0  0  0  0
    7.1116   -9.7770    0.0000 C   0  0  0  0  0  0  0  0  0  0  0  0
    7.8261   -9.3645    0.0000 C   0  0  0  0  0  0  0  0  0  0  0  0
    7.8261   -8.5395    0.0000 C   0  0  1  0  0  0  0  0  0  0  0  0
    8.5406   -8.1270    0.0000 C   0  0  2  0  0  0  0  0  0  0  0  0
    9.3252   -8.3819    0.0000 C   0  0  0  0  0  0  0  0  0  0  0  0
    9.8101   -7.7145    0.0000 C   0  0  0  0  0  0  0  0  0  0  0  0
    9.3252   -7.0471    0.0000 C   0  0  1  0  0  0  0  0  0  0  0  0
    8.5406   -7.3020    0.0000 C   0  0  1  0  0  0  0  0  0  0  0  0
    7.8261   -6.8895    0.0000 C   0  0  0  0  0  0  0  0  0  0  0  0
    7.1116   -7.3020    0.0000 C   0  0  0  0  0  0  0  0  0  0  0  0
    7.1116   -8.1270    0.0000 C   0  0  2  0  0  0  0  0  0  0  0  0
    6.3972   -8.5395    0.0000 C   0  0  1  0  0  0  0  0  0  0  0  0
    4.2538   -9.7770    0.0000 O   0  0  0  0  0  0  0  0  0  0  0  0
    8.5406   -9.7770    0.0000 O   0  0  0  0  0  0  0  0  0  0  0  0
    6.3972   -6.8895    0.0000 O   0  0  0  0  0  0  0  0  0  0  0  0
    8.5406   -6.4770    0.0000 C   0  0  0  0  0  0  0  0  0  0  0  0
    6.3972   -7.7145    0.0000 C   0  0  0  0  0  0  0  0  0  0  0  0
    9.5802   -6.2624    0.0000 C   0  0  0  0  0  0  0  0  0  0  0  0
    9.0281   -5.6493    0.0000 O   0  0  0  0  0  0  0  0  0  0  0  0
   10.3871   -6.0909    0.0000 C   0  0  0  0  0  0  0  0  0  0  0  0
    7.8261   -7.7145    0.0000 H   0  0  0  0  0  0  0  0  0  0  0  0
    7.1116   -8.9520    0.0000 H   0  0  0  0  0  0  0  0  0  0  0  0
    8.5406   -8.9520    0.0000 H   0  0  0  0  0  0  0  0  0  0  0  0
  1  2  1  0  0  0  0
  2  3  1  0  0  0  0
  3  4  1  0  0  0  0
  4  5  1  0  0  0  0
  5  6  1  0  0  0  0
  6  7  1  0  0  0  0
  7  8  1  0  0  0  0
  8  9  1  0  0  0  0
  9 10  1  0  0  0  0
 10 11  1  0  0  0  0
 11 12  1  0  0  0  0
 12 13  1  0  0  0  0
  9 13  1  0  0  0  0
 13 14  1  0  0  0  0
 14 15  1  0  0  0  0
 15 16  1  0  0  0  0
  8 16  1  0  0  0  0
 16 17  1  0  0  0  0
  5 17  1  0  0  0  0
  1 17  1  0  0  0  0
  3 18  2  0  0  0  0
  7 19  2  0  0  0  0
 15 20  2  0  0  0  0
 13 21  1  1  0  0  0
 17 22  1  1  0  0  0
 23 24  2  0  0  0  0
 23 25  1  0  0  0  0
 12 23  1  1  0  0  0
  8 26  1  1  0  0  0
 16 27  1  6  0  0  0
  9 28  1  6  0  0  0
M  END
>  <cdx:fragmentId>
213923

$$$$
