69217.cdx
  Mrv1902 05222410232D          

  8  8  0  0  0  0            999 V2000
    4.1529   -2.2737    0.0000 C   0  0  0  0  0  0  0  0  0  0  0  0
    4.9376   -2.5287    0.0000 N   0  0  0  0  0  0  0  0  0  0  0  0
    4.9376   -3.3537    0.0000 C   0  0  0  0  0  0  0  0  0  0  0  0
    5.6050   -3.8386    0.0000 O   0  0  0  0  0  0  0  0  0  0  0  0
    4.1529   -3.6086    0.0000 N   0  0  0  0  0  0  0  0  0  0  0  0
    3.6680   -2.9412    0.0000 C   0  0  0  0  0  0  0  0  0  0  0  0
    2.8430   -2.9412    0.0000 O   0  0  0  0  0  0  0  0  0  0  0  0
    5.6050   -2.0438    0.0000 C   0  0  0  0  0  0  0  0  0  0  0  0
  1  2  1  0  0  0  0
  2  3  1  0  0  0  0
  3  4  2  0  0  0  0
  3  5  1  0  0  0  0
  5  6  1  0  0  0  0
  6  7  2  0  0  0  0
  1  6  1  0  0  0  0
  2  8  1  0  0  0  0
M  END
>  <cdx:groupId>
26

>  <cdx:fragmentId>
5

$$$$
