6923.cdx
  Mrv1902 05222410192D          

 11 11  0  0  0  0            999 V2000
    3.2374   -1.9808    0.0000 C   0  0  0  0  0  0  0  0  0  0  0  0
    3.2374   -2.8058    0.0000 C   0  0  0  0  0  0  0  0  0  0  0  0
    2.5230   -3.2183    0.0000 C   0  0  0  0  0  0  0  0  0  0  0  0
    1.8085   -2.8058    0.0000 C   0  0  0  0  0  0  0  0  0  0  0  0
    1.8085   -1.9808    0.0000 C   0  0  0  0  0  0  0  0  0  0  0  0
    2.5230   -1.5683    0.0000 C   0  0  0  0  0  0  0  0  0  0  0  0
    3.9519   -1.5683    0.0000 O   0  0  0  0  0  0  0  0  0  0  0  0
    3.9519   -3.2183    0.0000 C   0  0  0  0  0  0  0  0  0  0  0  0
    4.6664   -3.6308    0.0000 C   0  0  0  0  0  0  0  0  0  0  0  0
    3.9519   -4.0433    0.0000 C   0  0  0  0  0  0  0  0  0  0  0  0
    4.6664   -2.8058    0.0000 C   0  0  0  0  0  0  0  0  0  0  0  0
  1  2  1  0  0  0  0
  2  3  2  0  0  0  0
  3  4  1  0  0  0  0
  4  5  2  0  0  0  0
  5  6  1  0  0  0  0
  1  6  2  0  0  0  0
  1  7  1  0  0  0  0
  8  9  1  0  0  0  0
  8 11  1  0  0  0  0
  8 10  1  0  0  0  0
  2  8  1  0  0  0  0
M  END
>  <cdx:groupId>
35

>  <cdx:fragmentId>
5

$$$$
