91692434.cdx
  Mrv1902 05222410202D          

 33 36  0  0  0  0            999 V2000
    4.2168  -15.7901    0.0000 C   0  0  0  0  0  0  0  0  0  0  0  0
    3.5023  -16.2026    0.0000 C   0  0  0  0  0  0  0  0  0  0  0  0
    3.5023  -17.0276    0.0000 C   0  0  0  0  0  0  0  0  0  0  0  0
    4.2168  -17.4401    0.0000 C   0  0  0  0  0  0  0  0  0  0  0  0
    4.9313  -17.0276    0.0000 C   0  0  0  0  0  0  0  0  0  0  0  0
    5.6458  -17.4401    0.0000 C   0  0  0  0  0  0  0  0  0  0  0  0
    6.3602  -17.0276    0.0000 C   0  0  0  0  0  0  0  0  0  0  0  0
    6.3602  -16.2026    0.0000 C   0  0  1  0  0  0  0  0  0  0  0  0
    7.0747  -15.7901    0.0000 C   0  0  2  0  0  0  0  0  0  0  0  0
    7.8593  -16.0450    0.0000 C   0  0  0  0  0  0  0  0  0  0  0  0
    8.3442  -15.3776    0.0000 C   0  0  0  0  0  0  0  0  0  0  0  0
    7.8593  -14.7101    0.0000 C   0  0  1  0  0  0  0  0  0  0  0  0
    7.0747  -14.9651    0.0000 C   0  0  1  0  0  0  0  0  0  0  0  0
    6.3602  -14.5526    0.0000 C   0  0  0  0  0  0  0  0  0  0  0  0
    5.6458  -14.9651    0.0000 C   0  0  0  0  0  0  0  0  0  0  0  0
    5.6458  -15.7901    0.0000 C   0  0  2  0  0  0  0  0  0  0  0  0
    4.9313  -16.2026    0.0000 C   0  0  1  0  0  0  0  0  0  0  0  0
    5.6458  -18.2651    0.0000 O   0  0  0  0  0  0  0  0  0  0  0  0
    7.5622  -13.3124    0.0000 C   0  0  0  0  0  0  0  0  0  0  0  0
    8.1143  -13.9255    0.0000 C   0  0  2  0  0  0  0  0  0  0  0  0
    8.9212  -13.7540    0.0000 C   0  0  0  0  0  0  0  0  0  0  0  0
    9.1762  -12.9694    0.0000 C   0  0  0  0  0  0  0  0  0  0  0  0
    9.9831  -12.7978    0.0000 C   0  0  0  0  0  0  0  0  0  0  0  0
   10.2381  -12.0132    0.0000 C   0  0  0  0  0  0  0  0  0  0  0  0
    9.6860  -11.4001    0.0000 C   0  0  0  0  0  0  0  0  0  0  0  0
   11.0450  -11.8417    0.0000 C   0  0  0  0  0  0  0  0  0  0  0  0
    7.1609  -14.1446    0.0000 C   0  0  0  0  0  0  0  0  0  0  0  0
    4.9313  -15.3776    0.0000 C   0  0  0  0  0  0  0  0  0  0  0  0
    4.6293  -18.1545    0.0000 C   0  0  0  0  0  0  0  0  0  0  0  0
    3.8043  -18.1545    0.0000 C   0  0  0  0  0  0  0  0  0  0  0  0
    6.3602  -15.3776    0.0000 H   0  0  0  0  0  0  0  0  0  0  0  0
    5.6458  -16.6151    0.0000 H   0  0  0  0  0  0  0  0  0  0  0  0
    7.0747  -16.6151    0.0000 H   0  0  0  0  0  0  0  0  0  0  0  0
  1  2  1  0  0  0  0
  2  3  1  0  0  0  0
  3  4  1  0  0  0  0
  4  5  1  0  0  0  0
  5  6  1  0  0  0  0
  6  7  1  0  0  0  0
  7  8  1  0  0  0  0
  8  9  1  0  0  0  0
  9 10  1  0  0  0  0
 10 11  1  0  0  0  0
 12 11  1  1  0  0  0
 12 13  1  0  0  0  0
  9 13  1  0  0  0  0
 13 14  1  0  0  0  0
 14 15  1  0  0  0  0
 15 16  1  0  0  0  0
  8 16  1  0  0  0  0
 16 17  1  0  0  0  0
  5 17  1  0  0  0  0
  1 17  1  0  0  0  0
  6 18  1  0  0  0  0
 20 19  1  6  0  0  0
 20 21  1  0  0  0  0
 21 22  2  0  0  0  0
 22 23  1  0  0  0  0
 23 24  2  0  0  0  0
 24 25  1  0  0  0  0
 24 26  1  0  0  0  0
 12 20  1  0  0  0  0
 13 27  1  1  0  0  0
 17 28  1  1  0  0  0
  4 29  1  0  0  0  0
  4 30  1  0  0  0  0
  8 31  1  1  0  0  0
 16 32  1  6  0  0  0
  9 33  1  6  0  0  0
M  END
>  <cdx:groupId>
214119

>  <cdx:fragmentId>
214020

$$$$
