6924.cdx
  Mrv1902 05222410202D          

 13 12  0  0  0  0            999 V2000
    3.3371   -6.9425    0.0000 O   0  0  0  0  0  0  0  0  0  0  0  0
    4.0516   -7.3550    0.0000 C   0  0  0  0  0  0  0  0  0  0  0  0
    4.7661   -6.9425    0.0000 C   0  0  0  0  0  0  0  0  0  0  0  0
    5.4805   -7.3550    0.0000 C   0  0  0  0  0  0  0  0  0  0  0  0
    6.1950   -6.9425    0.0000 C   0  0  0  0  0  0  0  0  0  0  0  0
    6.9095   -7.3550    0.0000 C   0  0  0  0  0  0  0  0  0  0  0  0
    7.6240   -6.9425    0.0000 C   0  0  0  0  0  0  0  0  0  0  0  0
    8.3384   -7.3550    0.0000 C   0  0  0  0  0  0  0  0  0  0  0  0
    9.0529   -6.9425    0.0000 C   0  0  0  0  0  0  0  0  0  0  0  0
    9.7674   -7.3550    0.0000 O   0  0  0  0  0  0  0  0  0  0  0  0
    9.0529   -6.1175    0.0000 O   0  0  0  0  0  0  0  0  0  0  0  0
    8.3384   -8.1800    0.0000 C   0  0  0  0  0  0  0  0  0  0  0  0
    5.4805   -8.1800    0.0000 C   0  0  0  0  0  0  0  0  0  0  0  0
  1  2  1  0  0  0  0
  2  3  1  0  0  0  0
  3  4  2  0  0  0  0
  4  5  1  0  0  0  0
  5  6  1  0  0  0  0
  6  7  1  0  0  0  0
  7  8  2  0  0  0  0
  8  9  1  0  0  0  0
  9 10  1  0  0  0  0
  9 11  2  0  0  0  0
  8 12  1  0  0  0  0
  4 13  1  0  0  0  0
M  END
>  <cdx:fragmentId>
3

$$$$
