692460.cdx
  Mrv1902 05222410242D          

 40 43  0  0  0  0            999 V2000
    8.1064  -13.7472    0.0000 C   0  0  1  0  0  0  0  0  0  0  0  0
    8.8209  -13.3347    0.0000 C   0  0  1  0  0  0  0  0  0  0  0  0
    8.8209  -12.5097    0.0000 C   0  0  1  0  0  0  0  0  0  0  0  0
    8.1064  -12.0972    0.0000 C   0  0  0  0  0  0  0  0  0  0  0  0
    7.3919  -12.5097    0.0000 C   0  0  0  0  0  0  0  0  0  0  0  0
    7.3919  -13.3347    0.0000 O   0  0  0  0  0  0  0  0  0  0  0  0
    9.6055  -12.2548    0.0000 C   0  0  0  0  0  0  0  0  0  0  0  0
   10.0904  -12.9222    0.0000 C   0  0  0  0  0  0  0  0  0  0  0  0
    9.6055  -13.5897    0.0000 C   0  0  0  0  0  0  0  0  0  0  0  0
    8.1064  -11.2722    0.0000 C   0  0  0  0  0  0  0  0  0  0  0  0
    8.8209  -10.8597    0.0000 O   0  0  0  0  0  0  0  0  0  0  0  0
    7.3919  -10.8597    0.0000 O   0  0  0  0  0  0  0  0  0  0  0  0
    9.8604  -14.3743    0.0000 C   0  0  0  0  0  0  0  0  0  0  0  0
   10.6674  -14.5458    0.0000 O   0  0  0  0  0  0  0  0  0  0  0  0
    8.1064  -14.5722    0.0000 O   0  0  0  0  0  0  0  0  0  0  0  0
    6.6775  -14.5722    0.0000 O   0  0  0  0  0  0  0  0  0  0  0  0
    7.3919  -14.9847    0.0000 C   0  0  2  0  0  0  0  0  0  0  0  0
    7.3919  -15.8097    0.0000 C   0  0  1  0  0  0  0  0  0  0  0  0
    6.6775  -16.2222    0.0000 C   0  0  2  0  0  0  0  0  0  0  0  0
    5.9630  -15.8097    0.0000 C   0  0  1  0  0  0  0  0  0  0  0  0
    5.9630  -14.9847    0.0000 C   0  0  1  0  0  0  0  0  0  0  0  0
    5.2485  -16.2222    0.0000 O   0  0  0  0  0  0  0  0  0  0  0  0
    5.9630  -17.4597    0.0000 O   0  0  0  0  0  0  0  0  0  0  0  0
    5.2485  -17.0472    0.0000 C   0  0  2  0  0  0  0  0  0  0  0  0
    4.5341  -17.4597    0.0000 C   0  0  1  0  0  0  0  0  0  0  0  0
    4.5341  -18.2847    0.0000 C   0  0  2  0  0  0  0  0  0  0  0  0
    5.2485  -18.6972    0.0000 C   0  0  1  0  0  0  0  0  0  0  0  0
    5.9630  -18.2847    0.0000 C   0  0  1  0  0  0  0  0  0  0  0  0
    6.6775  -18.6972    0.0000 C   0  0  0  0  0  0  0  0  0  0  0  0
    6.6775  -19.5222    0.0000 O   0  0  0  0  0  0  0  0  0  0  0  0
    5.2485  -19.5222    0.0000 O   0  0  0  0  0  0  0  0  0  0  0  0
    3.8196  -18.6972    0.0000 O   0  0  0  0  0  0  0  0  0  0  0  0
    3.8196  -17.0472    0.0000 O   0  0  0  0  0  0  0  0  0  0  0  0
    5.2485  -14.5722    0.0000 C   0  0  0  0  0  0  0  0  0  0  0  0
    4.5341  -14.9847    0.0000 O   0  0  0  0  0  0  0  0  0  0  0  0
    6.6775  -17.0472    0.0000 O   0  0  0  0  0  0  0  0  0  0  0  0
    8.1064  -16.2222    0.0000 O   0  0  0  0  0  0  0  0  0  0  0  0
    8.9071  -11.6893    0.0000 H   0  0  0  0  0  0  0  0  0  0  0  0
    8.9071  -14.1552    0.0000 H   0  0  0  0  0  0  0  0  0  0  0  0
    7.3919  -10.0347    0.0000 C   0  0  0  0  0  0  0  0  0  0  0  0
  1  2  1  0  0  0  0
  2  3  1  0  0  0  0
  3  4  1  0  0  0  0
  4  5  2  0  0  0  0
  5  6  1  0  0  0  0
  1  6  1  0  0  0  0
  7  8  1  0  0  0  0
  8  9  2  0  0  0  0
  9  2  1  0  0  0  0
  7  3  1  0  0  0  0
 10 11  2  0  0  0  0
 10 12  1  0  0  0  0
  4 10  1  0  0  0  0
 13 14  1  0  0  0  0
  9 13  1  0  0  0  0
 16 17  1  0  0  0  0
 17 18  1  0  0  0  0
 18 19  1  0  0  0  0
 19 20  1  0  0  0  0
 20 21  1  0  0  0  0
 16 21  1  0  0  0  0
 23 24  1  0  0  0  0
 24 25  1  0  0  0  0
 25 26  1  0  0  0  0
 26 27  1  0  0  0  0
 27 28  1  0  0  0  0
 23 28  1  0  0  0  0
 29 30  1  0  0  0  0
 28 29  1  6  0  0  0
 27 31  1  1  0  0  0
 26 32  1  6  0  0  0
 25 33  1  1  0  0  0
 24 22  1  6  0  0  0
 20 22  1  6  0  0  0
 34 35  1  0  0  0  0
 21 34  1  1  0  0  0
 19 36  1  1  0  0  0
 18 37  1  6  0  0  0
 17 15  1  1  0  0  0
  1 15  1  6  0  0  0
  3 38  1  6  0  0  0
  2 39  1  6  0  0  0
 12 40  1  0  0  0  0
M  END
>  <cdx:fragmentId>
78981

$$$$
