692952.cdx
  Mrv1902 05222410272D          

 36 35  0  0  0  0            999 V2000
    4.3486   -9.7871    0.0000 C   0  0  0  0  0  0  0  0  0  0  0  0
    3.6341   -9.3746    0.0000 C   0  0  0  0  0  0  0  0  0  0  0  0
    2.9197   -9.7871    0.0000 C   0  0  0  0  0  0  0  0  0  0  0  0
    4.3486  -10.6121    0.0000 O   0  0  0  0  0  0  0  0  0  0  0  0
    5.0631   -9.3746    0.0000 O   0  0  0  0  0  0  0  0  0  0  0  0
    2.2052  -10.1996    0.0000 F   0  0  0  0  0  0  0  0  0  0  0  0
    2.9197  -10.6121    0.0000 F   0  0  0  0  0  0  0  0  0  0  0  0
    2.2052   -9.3746    0.0000 F   0  0  0  0  0  0  0  0  0  0  0  0
    4.0466   -8.6601    0.0000 F   0  0  0  0  0  0  0  0  0  0  0  0
    3.2216   -8.6601    0.0000 F   0  0  0  0  0  0  0  0  0  0  0  0
    5.7775   -9.7871    0.0000 C   0  0  0  0  0  0  0  0  0  0  0  0
    6.4920   -9.3746    0.0000 C   0  0  0  0  0  0  0  0  0  0  0  0
    7.2065   -9.7871    0.0000 C   0  0  0  0  0  0  0  0  0  0  0  0
    7.9210   -9.3746    0.0000 C   0  0  0  0  0  0  0  0  0  0  0  0
    8.6354   -9.7871    0.0000 C   0  0  0  0  0  0  0  0  0  0  0  0
    9.3499   -9.3746    0.0000 C   0  0  0  0  0  0  0  0  0  0  0  0
   10.0644   -9.7871    0.0000 C   0  0  0  0  0  0  0  0  0  0  0  0
   10.7788   -9.3746    0.0000 C   0  0  0  0  0  0  0  0  0  0  0  0
   11.4933   -9.7871    0.0000 C   0  0  0  0  0  0  0  0  0  0  0  0
   12.2078   -9.3746    0.0000 C   0  0  0  0  0  0  0  0  0  0  0  0
   12.9222   -9.7871    0.0000 C   0  0  0  0  0  0  0  0  0  0  0  0
   13.6367   -9.3746    0.0000 C   0  0  0  0  0  0  0  0  0  0  0  0
   14.3512   -9.7871    0.0000 C   0  0  0  0  0  0  0  0  0  0  0  0
   15.0657   -9.3746    0.0000 C   0  0  0  0  0  0  0  0  0  0  0  0
   15.7801   -9.7871    0.0000 C   0  0  0  0  0  0  0  0  0  0  0  0
   16.4946   -9.3746    0.0000 C   0  0  0  0  0  0  0  0  0  0  0  0
   17.2091   -9.7871    0.0000 C   0  0  0  0  0  0  0  0  0  0  0  0
   17.9235   -9.3746    0.0000 C   0  0  0  0  0  0  0  0  0  0  0  0
   18.6380   -9.7871    0.0000 C   0  0  0  0  0  0  0  0  0  0  0  0
   19.3525   -9.3746    0.0000 C   0  0  0  0  0  0  0  0  0  0  0  0
   20.0670   -9.7871    0.0000 C   0  0  0  0  0  0  0  0  0  0  0  0
   20.7814   -9.3746    0.0000 C   0  0  0  0  0  0  0  0  0  0  0  0
   21.4959   -9.7871    0.0000 C   0  0  0  0  0  0  0  0  0  0  0  0
   22.2104   -9.3746    0.0000 C   0  0  0  0  0  0  0  0  0  0  0  0
   22.9248   -9.7871    0.0000 C   0  0  0  0  0  0  0  0  0  0  0  0
   23.6393   -9.3746    0.0000 C   0  0  0  0  0  0  0  0  0  0  0  0
  1  2  1  0  0  0  0
  2  3  1  0  0  0  0
  1  4  2  0  0  0  0
  1  5  1  0  0  0  0
  3  6  1  0  0  0  0
  3  7  1  0  0  0  0
  3  8  1  0  0  0  0
  2  9  1  0  0  0  0
  2 10  1  0  0  0  0
 11 12  1  0  0  0  0
 12 13  1  0  0  0  0
 13 14  1  0  0  0  0
 14 15  1  0  0  0  0
 15 16  1  0  0  0  0
 16 17  1  0  0  0  0
 17 18  1  0  0  0  0
 18 19  1  0  0  0  0
 19 20  1  0  0  0  0
 20 21  1  0  0  0  0
 21 22  1  0  0  0  0
 22 23  1  0  0  0  0
 23 24  1  0  0  0  0
 24 25  1  0  0  0  0
 25 26  1  0  0  0  0
 26 27  1  0  0  0  0
 27 28  1  0  0  0  0
 28 29  1  0  0  0  0
 29 30  1  0  0  0  0
 30 31  1  0  0  0  0
 31 32  1  0  0  0  0
 32 33  1  0  0  0  0
 33 34  1  0  0  0  0
 34 35  1  0  0  0  0
 35 36  1  0  0  0  0
  5 11  1  0  0  0  0
M  END
>  <cdx:fragmentId>
214593

$$$$
