692956.cdx
  Mrv1902 05222410272D          

 45 44  0  0  0  0            999 V2000
    3.9154   -7.2058    0.0000 C   0  0  0  0  0  0  0  0  0  0  0  0
    3.2009   -7.6183    0.0000 C   0  0  0  0  0  0  0  0  0  0  0  0
    2.4865   -7.2058    0.0000 C   0  0  0  0  0  0  0  0  0  0  0  0
    1.7720   -7.6183    0.0000 C   0  0  0  0  0  0  0  0  0  0  0  0
    3.9154   -6.3808    0.0000 O   0  0  0  0  0  0  0  0  0  0  0  0
    4.6299   -7.6183    0.0000 O   0  0  0  0  0  0  0  0  0  0  0  0
    1.0575   -8.0308    0.0000 F   0  0  0  0  0  0  0  0  0  0  0  0
    1.7720   -8.4433    0.0000 F   0  0  0  0  0  0  0  0  0  0  0  0
    1.0575   -7.2058    0.0000 F   0  0  0  0  0  0  0  0  0  0  0  0
    2.8990   -6.4913    0.0000 F   0  0  0  0  0  0  0  0  0  0  0  0
    2.0740   -6.4913    0.0000 F   0  0  0  0  0  0  0  0  0  0  0  0
    2.7884   -8.3328    0.0000 F   0  0  0  0  0  0  0  0  0  0  0  0
    3.6134   -8.3328    0.0000 F   0  0  0  0  0  0  0  0  0  0  0  0
    5.3444   -7.2058    0.0000 C   0  0  0  0  0  0  0  0  0  0  0  0
    6.0588   -7.6183    0.0000 C   0  0  0  0  0  0  0  0  0  0  0  0
    6.7733   -7.2058    0.0000 C   0  0  0  0  0  0  0  0  0  0  0  0
    7.4878   -7.6183    0.0000 C   0  0  0  0  0  0  0  0  0  0  0  0
    8.2022   -7.2058    0.0000 C   0  0  0  0  0  0  0  0  0  0  0  0
    8.9167   -7.6183    0.0000 C   0  0  0  0  0  0  0  0  0  0  0  0
    9.6312   -7.2058    0.0000 C   0  0  0  0  0  0  0  0  0  0  0  0
   10.3457   -7.6183    0.0000 C   0  0  0  0  0  0  0  0  0  0  0  0
   11.0601   -7.2058    0.0000 C   0  0  0  0  0  0  0  0  0  0  0  0
   11.7746   -7.6183    0.0000 C   0  0  0  0  0  0  0  0  0  0  0  0
   12.4891   -7.2058    0.0000 C   0  0  0  0  0  0  0  0  0  0  0  0
   13.2035   -7.6183    0.0000 C   0  0  0  0  0  0  0  0  0  0  0  0
   13.9180   -7.2058    0.0000 C   0  0  0  0  0  0  0  0  0  0  0  0
   14.6325   -7.6183    0.0000 C   0  0  0  0  0  0  0  0  0  0  0  0
   15.3470   -7.2058    0.0000 C   0  0  0  0  0  0  0  0  0  0  0  0
   16.0614   -7.6183    0.0000 C   0  0  0  0  0  0  0  0  0  0  0  0
   16.7759   -7.2058    0.0000 C   0  0  0  0  0  0  0  0  0  0  0  0
   17.4904   -7.6183    0.0000 C   0  0  0  0  0  0  0  0  0  0  0  0
   18.2048   -7.2058    0.0000 C   0  0  0  0  0  0  0  0  0  0  0  0
   18.9193   -7.6183    0.0000 C   0  0  0  0  0  0  0  0  0  0  0  0
   19.6338   -7.2058    0.0000 C   0  0  0  0  0  0  0  0  0  0  0  0
   20.3483   -7.6183    0.0000 C   0  0  0  0  0  0  0  0  0  0  0  0
   21.0627   -7.2058    0.0000 C   0  0  0  0  0  0  0  0  0  0  0  0
   21.7772   -7.6183    0.0000 C   0  0  0  0  0  0  0  0  0  0  0  0
   22.4917   -7.2058    0.0000 C   0  0  0  0  0  0  0  0  0  0  0  0
   23.2061   -7.6183    0.0000 C   0  0  0  0  0  0  0  0  0  0  0  0
   23.9206   -7.2058    0.0000 C   0  0  0  0  0  0  0  0  0  0  0  0
   24.6351   -7.6183    0.0000 C   0  0  0  0  0  0  0  0  0  0  0  0
   25.3495   -7.2058    0.0000 C   0  0  0  0  0  0  0  0  0  0  0  0
   26.0640   -7.6183    0.0000 C   0  0  0  0  0  0  0  0  0  0  0  0
   26.7785   -7.2058    0.0000 C   0  0  0  0  0  0  0  0  0  0  0  0
   27.4930   -7.6183    0.0000 C   0  0  0  0  0  0  0  0  0  0  0  0
  1  2  1  0  0  0  0
  2  3  1  0  0  0  0
  3  4  1  0  0  0  0
  1  5  2  0  0  0  0
  1  6  1  0  0  0  0
  4  7  1  0  0  0  0
  4  8  1  0  0  0  0
  4  9  1  0  0  0  0
  3 10  1  0  0  0  0
  3 11  1  0  0  0  0
  2 12  1  0  0  0  0
  2 13  1  0  0  0  0
 14 15  1  0  0  0  0
 15 16  1  0  0  0  0
 16 17  1  0  0  0  0
 17 18  1  0  0  0  0
 18 19  1  0  0  0  0
 19 20  1  0  0  0  0
 20 21  1  0  0  0  0
 21 22  1  0  0  0  0
 22 23  1  0  0  0  0
 23 24  1  0  0  0  0
 24 25  1  0  0  0  0
 25 26  1  0  0  0  0
 26 27  1  0  0  0  0
 27 28  1  0  0  0  0
 28 29  1  0  0  0  0
 29 30  1  0  0  0  0
 30 31  1  0  0  0  0
 31 32  1  0  0  0  0
 32 33  1  0  0  0  0
 33 34  1  0  0  0  0
 34 35  1  0  0  0  0
 35 36  1  0  0  0  0
 36 37  1  0  0  0  0
 37 38  1  0  0  0  0
 38 39  1  0  0  0  0
 39 40  1  0  0  0  0
 40 41  1  0  0  0  0
 41 42  1  0  0  0  0
 42 43  1  0  0  0  0
 43 44  1  0  0  0  0
 44 45  1  0  0  0  0
  6 14  1  0  0  0  0
M  END
>  <cdx:fragmentId>
214716

$$$$
