91692919.cdx
  Mrv1902 05222410242D          

 47 46  0  0  0  0            999 V2000
    2.9479  -14.6858    0.0000 C   0  0  0  0  0  0  0  0  0  0  0  0
    2.2335  -15.0983    0.0000 C   0  0  0  0  0  0  0  0  0  0  0  0
    1.5190  -14.6858    0.0000 C   0  0  0  0  0  0  0  0  0  0  0  0
    0.8045  -15.0983    0.0000 C   0  0  0  0  0  0  0  0  0  0  0  0
    2.9479  -13.8608    0.0000 O   0  0  0  0  0  0  0  0  0  0  0  0
    3.6624  -15.0983    0.0000 O   0  0  0  0  0  0  0  0  0  0  0  0
    0.0901  -15.5108    0.0000 F   0  0  0  0  0  0  0  0  0  0  0  0
    0.8045  -15.9233    0.0000 F   0  0  0  0  0  0  0  0  0  0  0  0
    0.0901  -14.6858    0.0000 F   0  0  0  0  0  0  0  0  0  0  0  0
    1.9315  -13.9713    0.0000 F   0  0  0  0  0  0  0  0  0  0  0  0
    1.1065  -13.9713    0.0000 F   0  0  0  0  0  0  0  0  0  0  0  0
    1.8210  -15.8128    0.0000 F   0  0  0  0  0  0  0  0  0  0  0  0
    2.6460  -15.8128    0.0000 F   0  0  0  0  0  0  0  0  0  0  0  0
    4.3769  -14.6858    0.0000 C   0  0  0  0  0  0  0  0  0  0  0  0
    5.0914  -15.0983    0.0000 C   0  0  0  0  0  0  0  0  0  0  0  0
    5.8058  -14.6858    0.0000 C   0  0  0  0  0  0  0  0  0  0  0  0
    6.5203  -15.0983    0.0000 C   0  0  0  0  0  0  0  0  0  0  0  0
    7.2348  -14.6858    0.0000 C   0  0  0  0  0  0  0  0  0  0  0  0
    7.9492  -15.0983    0.0000 C   0  0  0  0  0  0  0  0  0  0  0  0
    8.6637  -14.6858    0.0000 C   0  0  0  0  0  0  0  0  0  0  0  0
    9.3782  -15.0983    0.0000 C   0  0  0  0  0  0  0  0  0  0  0  0
   10.0927  -14.6858    0.0000 C   0  0  0  0  0  0  0  0  0  0  0  0
   10.8071  -15.0983    0.0000 C   0  0  0  0  0  0  0  0  0  0  0  0
   11.5216  -14.6858    0.0000 C   0  0  0  0  0  0  0  0  0  0  0  0
   12.2361  -15.0983    0.0000 C   0  0  0  0  0  0  0  0  0  0  0  0
   12.9505  -14.6858    0.0000 C   0  0  0  0  0  0  0  0  0  0  0  0
   13.6650  -15.0983    0.0000 C   0  0  0  0  0  0  0  0  0  0  0  0
   14.3795  -14.6858    0.0000 C   0  0  0  0  0  0  0  0  0  0  0  0
   15.0940  -15.0983    0.0000 C   0  0  0  0  0  0  0  0  0  0  0  0
   15.8084  -14.6858    0.0000 C   0  0  0  0  0  0  0  0  0  0  0  0
   16.5229  -15.0983    0.0000 C   0  0  0  0  0  0  0  0  0  0  0  0
   17.2374  -14.6858    0.0000 C   0  0  0  0  0  0  0  0  0  0  0  0
   17.9518  -15.0983    0.0000 C   0  0  0  0  0  0  0  0  0  0  0  0
   18.6663  -14.6858    0.0000 C   0  0  0  0  0  0  0  0  0  0  0  0
   19.3808  -15.0983    0.0000 C   0  0  0  0  0  0  0  0  0  0  0  0
   20.0953  -14.6858    0.0000 C   0  0  0  0  0  0  0  0  0  0  0  0
   20.8097  -15.0983    0.0000 C   0  0  0  0  0  0  0  0  0  0  0  0
   21.5242  -14.6858    0.0000 C   0  0  0  0  0  0  0  0  0  0  0  0
   22.2387  -15.0983    0.0000 C   0  0  0  0  0  0  0  0  0  0  0  0
   22.9531  -14.6858    0.0000 C   0  0  0  0  0  0  0  0  0  0  0  0
   23.6676  -15.0983    0.0000 C   0  0  0  0  0  0  0  0  0  0  0  0
   24.3821  -14.6858    0.0000 C   0  0  0  0  0  0  0  0  0  0  0  0
   25.0965  -15.0983    0.0000 C   0  0  0  0  0  0  0  0  0  0  0  0
   25.8110  -14.6858    0.0000 C   0  0  0  0  0  0  0  0  0  0  0  0
   26.5255  -15.0983    0.0000 C   0  0  0  0  0  0  0  0  0  0  0  0
   27.2400  -14.6858    0.0000 C   0  0  0  0  0  0  0  0  0  0  0  0
   27.9544  -15.0983    0.0000 C   0  0  0  0  0  0  0  0  0  0  0  0
  1  2  1  0  0  0  0
  2  3  1  0  0  0  0
  3  4  1  0  0  0  0
  1  5  2  0  0  0  0
  1  6  1  0  0  0  0
  4  7  1  0  0  0  0
  4  8  1  0  0  0  0
  4  9  1  0  0  0  0
  3 10  1  0  0  0  0
  3 11  1  0  0  0  0
  2 12  1  0  0  0  0
  2 13  1  0  0  0  0
 14 15  1  0  0  0  0
 15 16  1  0  0  0  0
 16 17  1  0  0  0  0
 17 18  1  0  0  0  0
 18 19  1  0  0  0  0
 19 20  1  0  0  0  0
 20 21  1  0  0  0  0
 21 22  1  0  0  0  0
 22 23  1  0  0  0  0
 23 24  1  0  0  0  0
 24 25  1  0  0  0  0
 25 26  1  0  0  0  0
 26 27  1  0  0  0  0
 27 28  1  0  0  0  0
 28 29  1  0  0  0  0
 29 30  1  0  0  0  0
 30 31  1  0  0  0  0
 31 32  1  0  0  0  0
 32 33  1  0  0  0  0
 33 34  1  0  0  0  0
 34 35  1  0  0  0  0
 35 36  1  0  0  0  0
 36 37  1  0  0  0  0
 37 38  1  0  0  0  0
 38 39  1  0  0  0  0
 39 40  1  0  0  0  0
 40 41  1  0  0  0  0
 41 42  1  0  0  0  0
 42 43  1  0  0  0  0
 43 44  1  0  0  0  0
 44 45  1  0  0  0  0
 45 46  1  0  0  0  0
 46 47  1  0  0  0  0
  6 14  1  0  0  0  0
M  END
>  <cdx:groupId>
214553

>  <cdx:fragmentId>
214442

$$$$
