692905.cdx
  Mrv1902 05222410222D          

 37 36  0  0  0  0            999 V2000
    6.4213   -9.1308    0.0000 C   0  0  0  0  0  0  0  0  0  0  0  0
    5.7068   -9.5433    0.0000 C   0  0  0  0  0  0  0  0  0  0  0  0
    4.9924   -9.1308    0.0000 C   0  0  0  0  0  0  0  0  0  0  0  0
    4.2779   -9.5433    0.0000 C   0  0  0  0  0  0  0  0  0  0  0  0
    6.4213   -8.3058    0.0000 O   0  0  0  0  0  0  0  0  0  0  0  0
    7.1358   -9.5433    0.0000 O   0  0  0  0  0  0  0  0  0  0  0  0
    3.5634   -9.9558    0.0000 F   0  0  0  0  0  0  0  0  0  0  0  0
    4.2779  -10.3683    0.0000 F   0  0  0  0  0  0  0  0  0  0  0  0
    3.5634   -9.1308    0.0000 F   0  0  0  0  0  0  0  0  0  0  0  0
    5.4049   -8.4163    0.0000 F   0  0  0  0  0  0  0  0  0  0  0  0
    4.5799   -8.4163    0.0000 F   0  0  0  0  0  0  0  0  0  0  0  0
    5.2943  -10.2578    0.0000 F   0  0  0  0  0  0  0  0  0  0  0  0
    6.1193  -10.2578    0.0000 F   0  0  0  0  0  0  0  0  0  0  0  0
    7.8502   -9.1308    0.0000 C   0  0  0  0  0  0  0  0  0  0  0  0
    8.5647   -9.5433    0.0000 C   0  0  0  0  0  0  0  0  0  0  0  0
    9.2792   -9.1308    0.0000 C   0  0  0  0  0  0  0  0  0  0  0  0
    9.9937   -9.5433    0.0000 C   0  0  0  0  0  0  0  0  0  0  0  0
   10.7081   -9.1308    0.0000 C   0  0  0  0  0  0  0  0  0  0  0  0
   11.4226   -9.5433    0.0000 C   0  0  0  0  0  0  0  0  0  0  0  0
   12.1371   -9.1308    0.0000 C   0  0  0  0  0  0  0  0  0  0  0  0
   12.8515   -9.5433    0.0000 C   0  0  0  0  0  0  0  0  0  0  0  0
   13.5660   -9.1308    0.0000 C   0  0  0  0  0  0  0  0  0  0  0  0
   14.2805   -9.5433    0.0000 C   0  0  0  0  0  0  0  0  0  0  0  0
   14.9950   -9.1308    0.0000 C   0  0  0  0  0  0  0  0  0  0  0  0
   15.7094   -9.5433    0.0000 C   0  0  0  0  0  0  0  0  0  0  0  0
   16.4239   -9.1308    0.0000 C   0  0  0  0  0  0  0  0  0  0  0  0
   17.1384   -9.5433    0.0000 C   0  0  0  0  0  0  0  0  0  0  0  0
   17.8528   -9.1308    0.0000 C   0  0  0  0  0  0  0  0  0  0  0  0
   18.5673   -9.5433    0.0000 C   0  0  0  0  0  0  0  0  0  0  0  0
   19.2818   -9.1308    0.0000 C   0  0  0  0  0  0  0  0  0  0  0  0
   19.9963   -9.5433    0.0000 C   0  0  0  0  0  0  0  0  0  0  0  0
   20.7107   -9.1308    0.0000 C   0  0  0  0  0  0  0  0  0  0  0  0
   21.4252   -9.5433    0.0000 C   0  0  0  0  0  0  0  0  0  0  0  0
   22.1397   -9.1308    0.0000 C   0  0  0  0  0  0  0  0  0  0  0  0
   22.8541   -9.5433    0.0000 C   0  0  0  0  0  0  0  0  0  0  0  0
   23.5686   -9.1308    0.0000 C   0  0  0  0  0  0  0  0  0  0  0  0
   24.2831   -9.5433    0.0000 C   0  0  0  0  0  0  0  0  0  0  0  0
  1  2  1  0  0  0  0
  2  3  1  0  0  0  0
  3  4  1  0  0  0  0
  1  5  2  0  0  0  0
  1  6  1  0  0  0  0
  4  7  1  0  0  0  0
  4  8  1  0  0  0  0
  4  9  1  0  0  0  0
  3 10  1  0  0  0  0
  3 11  1  0  0  0  0
  2 12  1  0  0  0  0
  2 13  1  0  0  0  0
 14 15  1  0  0  0  0
 15 16  1  0  0  0  0
 16 17  1  0  0  0  0
 17 18  1  0  0  0  0
 18 19  1  0  0  0  0
 19 20  1  0  0  0  0
 20 21  1  0  0  0  0
 21 22  1  0  0  0  0
 22 23  1  0  0  0  0
 23 24  1  0  0  0  0
 24 25  1  0  0  0  0
 25 26  1  0  0  0  0
 26 27  1  0  0  0  0
 27 28  1  0  0  0  0
 28 29  1  0  0  0  0
 29 30  1  0  0  0  0
 30 31  1  0  0  0  0
 31 32  1  0  0  0  0
 32 33  1  0  0  0  0
 33 34  1  0  0  0  0
 34 35  1  0  0  0  0
 35 36  1  0  0  0  0
 36 37  1  0  0  0  0
  6 14  1  0  0  0  0
M  END
>  <cdx:fragmentId>
214321

$$$$
