692903.cdx
  Mrv1902 05222410212D          

 33 32  0  0  0  0            999 V2000
    4.6778  -10.2821    0.0000 C   0  0  0  0  0  0  0  0  0  0  0  0
    3.9633   -9.8696    0.0000 C   0  0  0  0  0  0  0  0  0  0  0  0
    3.2489  -10.2821    0.0000 C   0  0  0  0  0  0  0  0  0  0  0  0
    4.6778  -11.1071    0.0000 O   0  0  0  0  0  0  0  0  0  0  0  0
    5.3923   -9.8696    0.0000 O   0  0  0  0  0  0  0  0  0  0  0  0
    2.5344  -10.6946    0.0000 F   0  0  0  0  0  0  0  0  0  0  0  0
    3.2489  -11.1071    0.0000 F   0  0  0  0  0  0  0  0  0  0  0  0
    2.5344   -9.8696    0.0000 F   0  0  0  0  0  0  0  0  0  0  0  0
    4.3758   -9.1551    0.0000 F   0  0  0  0  0  0  0  0  0  0  0  0
    3.5508   -9.1551    0.0000 F   0  0  0  0  0  0  0  0  0  0  0  0
    6.1067  -10.2821    0.0000 C   0  0  0  0  0  0  0  0  0  0  0  0
    6.8212   -9.8696    0.0000 C   0  0  0  0  0  0  0  0  0  0  0  0
    7.5357  -10.2821    0.0000 C   0  0  0  0  0  0  0  0  0  0  0  0
    8.2502   -9.8696    0.0000 C   0  0  0  0  0  0  0  0  0  0  0  0
    8.9646  -10.2821    0.0000 C   0  0  0  0  0  0  0  0  0  0  0  0
    9.6791   -9.8696    0.0000 C   0  0  0  0  0  0  0  0  0  0  0  0
   10.3936  -10.2821    0.0000 C   0  0  0  0  0  0  0  0  0  0  0  0
   11.1080   -9.8696    0.0000 C   0  0  0  0  0  0  0  0  0  0  0  0
   11.8225  -10.2821    0.0000 C   0  0  0  0  0  0  0  0  0  0  0  0
   12.5370   -9.8696    0.0000 C   0  0  0  0  0  0  0  0  0  0  0  0
   13.2515  -10.2821    0.0000 C   0  0  0  0  0  0  0  0  0  0  0  0
   13.9659   -9.8696    0.0000 C   0  0  0  0  0  0  0  0  0  0  0  0
   14.6804  -10.2821    0.0000 C   0  0  0  0  0  0  0  0  0  0  0  0
   15.3949   -9.8696    0.0000 C   0  0  0  0  0  0  0  0  0  0  0  0
   16.1093  -10.2821    0.0000 C   0  0  0  0  0  0  0  0  0  0  0  0
   16.8238   -9.8696    0.0000 C   0  0  0  0  0  0  0  0  0  0  0  0
   17.5383  -10.2821    0.0000 C   0  0  0  0  0  0  0  0  0  0  0  0
   18.2528   -9.8696    0.0000 C   0  0  0  0  0  0  0  0  0  0  0  0
   18.9672  -10.2821    0.0000 C   0  0  0  0  0  0  0  0  0  0  0  0
   19.6817   -9.8696    0.0000 C   0  0  0  0  0  0  0  0  0  0  0  0
   20.3962  -10.2821    0.0000 C   0  0  0  0  0  0  0  0  0  0  0  0
   21.1106   -9.8696    0.0000 C   0  0  0  0  0  0  0  0  0  0  0  0
   21.8251  -10.2821    0.0000 C   0  0  0  0  0  0  0  0  0  0  0  0
  1  2  1  0  0  0  0
  2  3  1  0  0  0  0
  1  4  2  0  0  0  0
  1  5  1  0  0  0  0
  3  6  1  0  0  0  0
  3  7  1  0  0  0  0
  3  8  1  0  0  0  0
  2  9  1  0  0  0  0
  2 10  1  0  0  0  0
 11 12  1  0  0  0  0
 12 13  1  0  0  0  0
 13 14  1  0  0  0  0
 14 15  1  0  0  0  0
 15 16  1  0  0  0  0
 16 17  1  0  0  0  0
 17 18  1  0  0  0  0
 18 19  1  0  0  0  0
 19 20  1  0  0  0  0
 20 21  1  0  0  0  0
 21 22  1  0  0  0  0
 22 23  1  0  0  0  0
 23 24  1  0  0  0  0
 24 25  1  0  0  0  0
 25 26  1  0  0  0  0
 26 27  1  0  0  0  0
 27 28  1  0  0  0  0
 28 29  1  0  0  0  0
 29 30  1  0  0  0  0
 30 31  1  0  0  0  0
 31 32  1  0  0  0  0
 32 33  1  0  0  0  0
  5 11  1  0  0  0  0
M  END
>  <cdx:fragmentId>
214207

$$$$
