693082.cdx
  Mrv1902 05222410262D          

 48 47  0  0  0  0            999 V2000
    2.9493   -9.3471    0.0000 C   0  0  0  0  0  0  0  0  0  0  0  0
    2.2348   -8.9346    0.0000 C   0  0  0  0  0  0  0  0  0  0  0  0
    1.5203   -9.3471    0.0000 C   0  0  0  0  0  0  0  0  0  0  0  0
    2.9493  -10.1721    0.0000 O   0  0  0  0  0  0  0  0  0  0  0  0
    3.6637   -8.9346    0.0000 O   0  0  0  0  0  0  0  0  0  0  0  0
    0.8059   -9.7596    0.0000 F   0  0  0  0  0  0  0  0  0  0  0  0
    1.5203  -10.1721    0.0000 F   0  0  0  0  0  0  0  0  0  0  0  0
    0.8059   -8.9346    0.0000 F   0  0  0  0  0  0  0  0  0  0  0  0
    2.6473   -8.2201    0.0000 F   0  0  0  0  0  0  0  0  0  0  0  0
    1.8223   -8.2201    0.0000 F   0  0  0  0  0  0  0  0  0  0  0  0
    4.3782   -9.3471    0.0000 C   0  0  0  0  0  0  0  0  0  0  0  0
    5.0927   -8.9346    0.0000 C   0  0  0  0  0  0  0  0  0  0  0  0
    5.8072   -9.3471    0.0000 C   0  0  0  0  0  0  0  0  0  0  0  0
    6.5216   -8.9346    0.0000 C   0  0  0  0  0  0  0  0  0  0  0  0
    7.2361   -9.3471    0.0000 C   0  0  0  0  0  0  0  0  0  0  0  0
    7.9506   -8.9346    0.0000 C   0  0  0  0  0  0  0  0  0  0  0  0
    8.6650   -9.3471    0.0000 C   0  0  0  0  0  0  0  0  0  0  0  0
    9.3795   -8.9346    0.0000 C   0  0  0  0  0  0  0  0  0  0  0  0
   10.0940   -9.3471    0.0000 C   0  0  0  0  0  0  0  0  0  0  0  0
   10.8085   -8.9346    0.0000 C   0  0  0  0  0  0  0  0  0  0  0  0
   11.5229   -9.3471    0.0000 C   0  0  0  0  0  0  0  0  0  0  0  0
   12.2374   -8.9346    0.0000 C   0  0  0  0  0  0  0  0  0  0  0  0
   12.9519   -9.3471    0.0000 C   0  0  0  0  0  0  0  0  0  0  0  0
   13.6663   -8.9346    0.0000 C   0  0  0  0  0  0  0  0  0  0  0  0
   14.3808   -9.3471    0.0000 C   0  0  0  0  0  0  0  0  0  0  0  0
   15.0953   -8.9346    0.0000 C   0  0  0  0  0  0  0  0  0  0  0  0
   15.8097   -9.3471    0.0000 C   0  0  0  0  0  0  0  0  0  0  0  0
   16.5242   -8.9346    0.0000 C   0  0  0  0  0  0  0  0  0  0  0  0
   17.2387   -9.3471    0.0000 C   0  0  0  0  0  0  0  0  0  0  0  0
   17.9532   -8.9346    0.0000 C   0  0  0  0  0  0  0  0  0  0  0  0
   18.6676   -9.3471    0.0000 C   0  0  0  0  0  0  0  0  0  0  0  0
   19.3821   -8.9346    0.0000 C   0  0  0  0  0  0  0  0  0  0  0  0
   20.0966   -9.3471    0.0000 C   0  0  0  0  0  0  0  0  0  0  0  0
   20.8110   -8.9346    0.0000 C   0  0  0  0  0  0  0  0  0  0  0  0
   21.5255   -9.3471    0.0000 C   0  0  0  0  0  0  0  0  0  0  0  0
   22.2400   -8.9346    0.0000 C   0  0  0  0  0  0  0  0  0  0  0  0
   22.9545   -9.3471    0.0000 C   0  0  0  0  0  0  0  0  0  0  0  0
   23.6689   -8.9346    0.0000 C   0  0  0  0  0  0  0  0  0  0  0  0
   24.3834   -9.3471    0.0000 C   0  0  0  0  0  0  0  0  0  0  0  0
   25.0979   -8.9346    0.0000 C   0  0  0  0  0  0  0  0  0  0  0  0
   25.8123   -9.3471    0.0000 C   0  0  0  0  0  0  0  0  0  0  0  0
   26.5268   -8.9346    0.0000 C   0  0  0  0  0  0  0  0  0  0  0  0
   27.2413   -9.3471    0.0000 C   0  0  0  0  0  0  0  0  0  0  0  0
   27.9558   -8.9346    0.0000 C   0  0  0  0  0  0  0  0  0  0  0  0
   28.6702   -9.3471    0.0000 C   0  0  0  0  0  0  0  0  0  0  0  0
   29.3847   -8.9346    0.0000 C   0  0  0  0  0  0  0  0  0  0  0  0
   30.0992   -9.3471    0.0000 C   0  0  0  0  0  0  0  0  0  0  0  0
   30.8136   -8.9346    0.0000 C   0  0  0  0  0  0  0  0  0  0  0  0
  1  2  1  0  0  0  0
  2  3  1  0  0  0  0
  1  4  2  0  0  0  0
  1  5  1  0  0  0  0
  3  6  1  0  0  0  0
  3  7  1  0  0  0  0
  3  8  1  0  0  0  0
  2  9  1  0  0  0  0
  2 10  1  0  0  0  0
 11 12  1  0  0  0  0
 12 13  1  0  0  0  0
 13 14  1  0  0  0  0
 14 15  1  0  0  0  0
 15 16  1  0  0  0  0
 16 17  1  0  0  0  0
 17 18  1  0  0  0  0
 18 19  1  0  0  0  0
 19 20  1  0  0  0  0
 20 21  1  0  0  0  0
 21 22  1  0  0  0  0
 22 23  1  0  0  0  0
 23 24  1  0  0  0  0
 24 25  1  0  0  0  0
 25 26  1  0  0  0  0
 26 27  1  0  0  0  0
 27 28  1  0  0  0  0
 28 29  1  0  0  0  0
 29 30  1  0  0  0  0
 30 31  1  0  0  0  0
 31 32  1  0  0  0  0
 32 33  1  0  0  0  0
 33 34  1  0  0  0  0
 34 35  1  0  0  0  0
 35 36  1  0  0  0  0
 36 37  1  0  0  0  0
 37 38  1  0  0  0  0
 38 39  1  0  0  0  0
 39 40  1  0  0  0  0
 40 41  1  0  0  0  0
 41 42  1  0  0  0  0
 42 43  1  0  0  0  0
 43 44  1  0  0  0  0
 44 45  1  0  0  0  0
 45 46  1  0  0  0  0
 46 47  1  0  0  0  0
 47 48  1  0  0  0  0
  5 11  1  0  0  0  0
M  END
>  <cdx:fragmentId>
214860

$$$$
