693161.cdx
  Mrv1902 05222410212D          

 44 43  0  0  0  0            999 V2000
    2.9427  -10.8636    0.0000 C   0  0  0  0  0  0  0  0  0  0  0  0
    2.2282  -11.2761    0.0000 C   0  0  0  0  0  0  0  0  0  0  0  0
    1.5138  -10.8636    0.0000 C   0  0  0  0  0  0  0  0  0  0  0  0
    2.9427  -10.0386    0.0000 O   0  0  0  0  0  0  0  0  0  0  0  0
    3.6572  -11.2761    0.0000 O   0  0  0  0  0  0  0  0  0  0  0  0
    0.7993  -10.4511    0.0000 F   0  0  0  0  0  0  0  0  0  0  0  0
    1.5138  -10.0386    0.0000 F   0  0  0  0  0  0  0  0  0  0  0  0
    0.7993  -11.2761    0.0000 F   0  0  0  0  0  0  0  0  0  0  0  0
    2.6407  -11.9905    0.0000 F   0  0  0  0  0  0  0  0  0  0  0  0
    1.8157  -11.9905    0.0000 F   0  0  0  0  0  0  0  0  0  0  0  0
    4.3717  -10.8636    0.0000 C   0  0  0  0  0  0  0  0  0  0  0  0
    5.0861  -11.2761    0.0000 C   0  0  0  0  0  0  0  0  0  0  0  0
    5.8006  -10.8636    0.0000 C   0  0  0  0  0  0  0  0  0  0  0  0
    6.5151  -11.2761    0.0000 C   0  0  0  0  0  0  0  0  0  0  0  0
    7.2295  -10.8636    0.0000 C   0  0  0  0  0  0  0  0  0  0  0  0
    7.9440  -11.2761    0.0000 C   0  0  0  0  0  0  0  0  0  0  0  0
    8.6585  -10.8636    0.0000 C   0  0  0  0  0  0  0  0  0  0  0  0
    9.3730  -11.2761    0.0000 C   0  0  0  0  0  0  0  0  0  0  0  0
   10.0874  -10.8636    0.0000 C   0  0  0  0  0  0  0  0  0  0  0  0
   10.8019  -11.2761    0.0000 C   0  0  0  0  0  0  0  0  0  0  0  0
   11.5164  -10.8636    0.0000 C   0  0  0  0  0  0  0  0  0  0  0  0
   12.2308  -11.2761    0.0000 C   0  0  0  0  0  0  0  0  0  0  0  0
   12.9453  -10.8636    0.0000 C   0  0  0  0  0  0  0  0  0  0  0  0
   13.6598  -11.2761    0.0000 C   0  0  0  0  0  0  0  0  0  0  0  0
   14.3742  -10.8636    0.0000 C   0  0  0  0  0  0  0  0  0  0  0  0
   15.0887  -11.2761    0.0000 C   0  0  0  0  0  0  0  0  0  0  0  0
   15.8032  -10.8636    0.0000 C   0  0  0  0  0  0  0  0  0  0  0  0
   16.5177  -11.2761    0.0000 C   0  0  0  0  0  0  0  0  0  0  0  0
   17.2321  -10.8636    0.0000 C   0  0  0  0  0  0  0  0  0  0  0  0
   17.9466  -11.2761    0.0000 C   0  0  0  0  0  0  0  0  0  0  0  0
   18.6611  -10.8636    0.0000 C   0  0  0  0  0  0  0  0  0  0  0  0
   19.3755  -11.2761    0.0000 C   0  0  0  0  0  0  0  0  0  0  0  0
   20.0900  -10.8636    0.0000 C   0  0  0  0  0  0  0  0  0  0  0  0
   20.8045  -11.2761    0.0000 C   0  0  0  0  0  0  0  0  0  0  0  0
   21.5190  -10.8636    0.0000 C   0  0  0  0  0  0  0  0  0  0  0  0
   22.2334  -11.2761    0.0000 C   0  0  0  0  0  0  0  0  0  0  0  0
   22.9479  -10.8636    0.0000 C   0  0  0  0  0  0  0  0  0  0  0  0
   23.6624  -11.2761    0.0000 C   0  0  0  0  0  0  0  0  0  0  0  0
   24.3768  -10.8636    0.0000 C   0  0  0  0  0  0  0  0  0  0  0  0
   25.0913  -11.2761    0.0000 C   0  0  0  0  0  0  0  0  0  0  0  0
   25.8058  -10.8636    0.0000 C   0  0  0  0  0  0  0  0  0  0  0  0
   26.5203  -11.2761    0.0000 C   0  0  0  0  0  0  0  0  0  0  0  0
   27.2347  -10.8636    0.0000 C   0  0  0  0  0  0  0  0  0  0  0  0
   27.9492  -11.2761    0.0000 C   0  0  0  0  0  0  0  0  0  0  0  0
  1  2  1  0  0  0  0
  2  3  1  0  0  0  0
  1  4  2  0  0  0  0
  1  5  1  0  0  0  0
  3  6  1  0  0  0  0
  3  7  1  0  0  0  0
  3  8  1  0  0  0  0
  2  9  1  0  0  0  0
  2 10  1  0  0  0  0
 11 12  1  0  0  0  0
 12 13  1  0  0  0  0
 13 14  1  0  0  0  0
 14 15  1  0  0  0  0
 15 16  1  0  0  0  0
 16 17  1  0  0  0  0
 17 18  1  0  0  0  0
 18 19  1  0  0  0  0
 19 20  1  0  0  0  0
 20 21  1  0  0  0  0
 21 22  1  0  0  0  0
 22 23  1  0  0  0  0
 23 24  1  0  0  0  0
 24 25  1  0  0  0  0
 25 26  1  0  0  0  0
 26 27  1  0  0  0  0
 27 28  1  0  0  0  0
 28 29  1  0  0  0  0
 29 30  1  0  0  0  0
 30 31  1  0  0  0  0
 31 32  1  0  0  0  0
 32 33  1  0  0  0  0
 33 34  1  0  0  0  0
 34 35  1  0  0  0  0
 35 36  1  0  0  0  0
 36 37  1  0  0  0  0
 37 38  1  0  0  0  0
 38 39  1  0  0  0  0
 39 40  1  0  0  0  0
 40 41  1  0  0  0  0
 41 42  1  0  0  0  0
 42 43  1  0  0  0  0
 43 44  1  0  0  0  0
  5 11  1  0  0  0  0
M  END
>  <cdx:fragmentId>
215017

$$$$
