134693217.cdx
  Mrv1902 05222410212D          

 46 51  0  0  0  0            999 V2000
   14.7287  -10.2635    0.0000 C   0  0  0  0  0  0  0  0  0  0  0  0
   14.0143  -10.6760    0.0000 C   0  0  0  0  0  0  0  0  0  0  0  0
   13.2998  -10.2635    0.0000 C   0  0  0  0  0  0  0  0  0  0  0  0
   13.2998   -9.4385    0.0000 C   0  0  0  0  0  0  0  0  0  0  0  0
   14.0143   -9.0260    0.0000 C   0  0  0  0  0  0  0  0  0  0  0  0
   14.7287   -9.4385    0.0000 C   0  0  0  0  0  0  0  0  0  0  0  0
   15.4432  -10.6760    0.0000 O   0  0  0  0  0  0  0  0  0  0  0  0
   14.0143  -11.5010    0.0000 O   0  0  0  0  0  0  0  0  0  0  0  0
   16.8721  -11.5010    0.0000 C   0  0  0  0  0  0  0  0  0  0  0  0
   17.5866  -11.9135    0.0000 N   0  0  0  0  0  0  0  0  0  0  0  0
   17.5866  -12.7385    0.0000 C   0  0  0  0  0  0  0  0  0  0  0  0
   16.8721  -13.1510    0.0000 C   0  0  0  0  0  0  0  0  0  0  0  0
   16.1577  -12.7385    0.0000 C   0  0  0  0  0  0  0  0  0  0  0  0
   15.4432  -13.1510    0.0000 C   0  0  0  0  0  0  0  0  0  0  0  0
   14.7287  -12.7385    0.0000 C   0  0  0  0  0  0  0  0  0  0  0  0
   14.7287  -11.9135    0.0000 C   0  0  0  0  0  0  0  0  0  0  0  0
   15.4432  -11.5010    0.0000 C   0  0  0  0  0  0  0  0  0  0  0  0
   16.1577  -11.9135    0.0000 C   0  0  0  0  0  0  0  0  0  0  0  0
   18.3011  -11.5010    0.0000 C   0  0  0  0  0  0  0  0  0  0  0  0
   16.8721  -10.6760    0.0000 C   0  0  0  0  0  0  0  0  0  0  0  0
   17.5866  -10.2635    0.0000 C   0  0  0  0  0  0  0  0  0  0  0  0
   17.5866   -9.4385    0.0000 C   0  0  0  0  0  0  0  0  0  0  0  0
   18.3011   -9.0260    0.0000 C   0  0  0  0  0  0  0  0  0  0  0  0
   19.0156   -9.4385    0.0000 C   0  0  0  0  0  0  0  0  0  0  0  0
   19.0156  -10.2635    0.0000 C   0  0  0  0  0  0  0  0  0  0  0  0
   18.3011  -10.6760    0.0000 C   0  0  0  0  0  0  0  0  0  0  0  0
   19.7300   -9.0260    0.0000 O   0  0  0  0  0  0  0  0  0  0  0  0
   20.4445   -9.4385    0.0000 C   0  0  0  0  0  0  0  0  0  0  0  0
   14.0143  -13.1510    0.0000 O   0  0  0  0  0  0  0  0  0  0  0  0
   13.2998  -12.7385    0.0000 C   0  0  0  0  0  0  0  0  0  0  0  0
   12.5853   -9.0260    0.0000 C   0  0  0  0  0  0  0  0  0  0  0  0
   11.8709   -9.4385    0.0000 C   0  0  1  0  0  0  0  0  0  0  0  0
   11.8709  -10.2635    0.0000 N   0  0  0  0  0  0  0  0  0  0  0  0
   11.1564  -10.6760    0.0000 C   0  0  0  0  0  0  0  0  0  0  0  0
   10.4419  -10.2635    0.0000 C   0  0  0  0  0  0  0  0  0  0  0  0
   10.4419   -9.4385    0.0000 C   0  0  0  0  0  0  0  0  0  0  0  0
    9.7274   -9.0260    0.0000 C   0  0  0  0  0  0  0  0  0  0  0  0
    9.7274   -8.2010    0.0000 C   0  0  0  0  0  0  0  0  0  0  0  0
   10.4419   -7.7885    0.0000 C   0  0  0  0  0  0  0  0  0  0  0  0
   11.1564   -8.2010    0.0000 C   0  0  0  0  0  0  0  0  0  0  0  0
   11.1564   -9.0260    0.0000 C   0  0  0  0  0  0  0  0  0  0  0  0
   12.5853  -10.6760    0.0000 C   0  0  0  0  0  0  0  0  0  0  0  0
   10.4419   -6.9635    0.0000 O   0  0  0  0  0  0  0  0  0  0  0  0
    9.7274   -6.5510    0.0000 C   0  0  0  0  0  0  0  0  0  0  0  0
    9.0130   -7.7885    0.0000 O   0  0  0  0  0  0  0  0  0  0  0  0
    8.2985   -8.2010    0.0000 C   0  0  0  0  0  0  0  0  0  0  0  0
  1  2  1  0  0  0  0
  2  3  2  0  0  0  0
  3  4  1  0  0  0  0
  4  5  2  0  0  0  0
  5  6  1  0  0  0  0
  1  6  2  0  0  0  0
  1  7  1  0  0  0  0
  9 10  1  0  0  0  0
 10 11  1  0  0  0  0
 11 12  1  0  0  0  0
 12 13  1  0  0  0  0
 13 14  1  0  0  0  0
 14 15  2  0  0  0  0
 15 16  1  0  0  0  0
 16 17  2  0  0  0  0
 17 18  1  0  0  0  0
  9 18  1  0  0  0  0
 13 18  2  0  0  0  0
 10 19  1  0  0  0  0
 21 22  1  0  0  0  0
 22 23  2  0  0  0  0
 23 24  1  0  0  0  0
 24 25  2  0  0  0  0
 25 26  1  0  0  0  0
 21 26  2  0  0  0  0
 27 28  1  0  0  0  0
 24 27  1  0  0  0  0
 20 21  1  0  0  0  0
  9 20  1  0  0  0  0
 29 30  1  0  0  0  0
 15 29  1  0  0  0  0
  8 16  1  0  0  0  0
  2  8  1  0  0  0  0
 32 33  1  0  0  0  0
 33 34  1  0  0  0  0
 34 35  1  0  0  0  0
 35 36  1  0  0  0  0
 36 37  1  0  0  0  0
 37 38  2  0  0  0  0
 38 39  1  0  0  0  0
 39 40  2  0  0  0  0
 40 41  1  0  0  0  0
 32 41  1  0  0  0  0
 36 41  2  0  0  0  0
 33 42  1  0  0  0  0
 43 44  1  0  0  0  0
 39 43  1  0  0  0  0
 45 46  1  0  0  0  0
 38 45  1  0  0  0  0
 32 31  1  1  0  0  0
  4 31  1  0  0  0  0
M  END
>  <cdx:groupId>
76111

>  <cdx:fragmentId>
75987

$$$$
