6932.cdx
  Mrv1902 05222410192D          

 21 20  0  0  0  0            999 V2000
    5.3376   -5.9765    0.0000 C   0  0  0  0  0  0  0  0  0  0  0  0
    4.6243   -5.5619    0.0000 C   0  0  0  0  0  0  0  0  0  0  0  0
    5.3351   -6.8015    0.0000 O   0  0  0  0  0  0  0  0  0  0  0  0
    6.0532   -5.5661    0.0000 C   0  0  0  0  0  0  0  0  0  0  0  0
    6.7689   -5.1557    0.0000 C   0  0  0  0  0  0  0  0  0  0  0  0
    7.4846   -4.7453    0.0000 C   0  0  0  0  0  0  0  0  0  0  0  0
   11.7738   -3.9328    0.0000 C   0  0  0  0  0  0  0  0  0  0  0  0
   11.0581   -4.3432    0.0000 O   0  0  0  0  0  0  0  0  0  0  0  0
    8.2002   -4.3348    0.0000 C   0  0  0  0  0  0  0  0  0  0  0  0
   10.3449   -3.9286    0.0000 C   0  0  0  0  0  0  0  0  0  0  0  0
    9.6292   -4.3390    0.0000 C   0  0  0  0  0  0  0  0  0  0  0  0
    8.9159   -3.9244    0.0000 C   0  0  0  0  0  0  0  0  0  0  0  0
    8.9183   -3.0994    0.0000 O   0  0  0  0  0  0  0  0  0  0  0  0
    3.9086   -5.9723    0.0000 C   0  0  0  0  0  0  0  0  0  0  0  0
    3.9062   -6.7973    0.0000 C   0  0  0  0  0  0  0  0  0  0  0  0
    3.1905   -7.2077    0.0000 C   0  0  0  0  0  0  0  0  0  0  0  0
    3.1881   -8.0327    0.0000 C   0  0  0  0  0  0  0  0  0  0  0  0
    2.4725   -8.4431    0.0000 C   0  0  0  0  0  0  0  0  0  0  0  0
    2.4700   -9.2681    0.0000 C   0  0  0  0  0  0  0  0  0  0  0  0
    1.7544   -9.6785    0.0000 C   0  0  0  0  0  0  0  0  0  0  0  0
    1.7520  -10.5035    0.0000 C   0  0  0  0  0  0  0  0  0  0  0  0
  1  2  1  0  0  0  0
  4  1  1  0  0  0  0
  1  3  1  0  0  0  0
  5  4  3  0  0  0  0
  6  5  1  0  0  0  0
  9  6  3  0  0  0  0
 12  9  1  0  0  0  0
  7  8  1  0  0  0  0
  8 10  1  0  0  0  0
 10 11  1  0  0  0  0
 11 12  1  0  0  0  0
 12 13  2  0  0  0  0
  2 14  2  0  0  0  0
 14 15  1  0  0  0  0
 15 16  1  0  0  0  0
 16 17  1  0  0  0  0
 17 18  1  0  0  0  0
 18 19  1  0  0  0  0
 19 20  1  0  0  0  0
 20 21  1  0  0  0  0
M  END
>  <cdx:fragmentId>
3

$$$$
