693219.cdx
  Mrv1902 05222410252D          

 48 50  0  0  0  0            999 V2000
    5.6466  -14.8228    0.0000 C   0  0  0  0  0  0  0  0  0  0  0  0
    5.6466  -13.9978    0.0000 C   0  0  0  0  0  0  0  0  0  0  0  0
    6.2300  -13.4145    0.0000 C   0  0  0  0  0  0  0  0  0  0  0  0
    6.3611  -15.2353    0.0000 O   0  0  0  0  0  0  0  0  0  0  0  0
    4.9321  -15.2353    0.0000 O   0  0  0  0  0  0  0  0  0  0  0  0
    7.3637  -11.7538    0.0000 O   0  0  0  0  0  0  0  0  0  0  0  0
    7.3637  -10.9288    0.0000 C   0  0  0  0  0  0  0  0  0  0  0  0
    6.6492  -10.5163    0.0000 C   0  0  1  0  0  0  0  0  0  0  0  0
    6.6492   -9.6913    0.0000 C   0  0  0  0  0  0  0  0  0  0  0  0
    7.3637   -9.2788    0.0000 C   0  0  0  0  0  0  0  0  0  0  0  0
    8.0781   -9.6913    0.0000 C   0  0  0  0  0  0  0  0  0  0  0  0
    8.0781  -10.5163    0.0000 C   0  0  1  0  0  0  0  0  0  0  0  0
    7.3637   -8.4538    0.0000 C   0  0  0  0  0  0  0  0  0  0  0  0
    6.6492   -8.0413    0.0000 O   0  0  0  0  0  0  0  0  0  0  0  0
    8.0781   -8.0413    0.0000 O   0  0  0  0  0  0  0  0  0  0  0  0
    8.0781   -7.2163    0.0000 C   0  0  0  0  0  0  0  0  0  0  0  0
    6.6492   -8.8663    0.0000 O   0  0  0  0  0  0  0  0  0  0  0  0
    8.7926  -10.9288    0.0000 O   0  0  0  0  0  0  0  0  0  0  0  0
    5.9347  -10.9288    0.0000 O   0  0  0  0  0  0  0  0  0  0  0  0
    5.5155  -13.0020    0.0000 O   0  0  0  0  0  0  0  0  0  0  0  0
    6.9444  -13.8270    0.0000 C   0  0  0  0  0  0  0  0  0  0  0  0
    5.9347  -11.7538    0.0000 O   0  0  0  0  0  0  0  0  0  0  0  0
    6.6492  -12.1663    0.0000 C   0  0  0  0  0  0  0  0  0  0  0  0
    6.6492  -12.9913    0.0000 C   0  0  0  0  0  0  0  0  0  0  0  0
   12.3650  -12.9913    0.0000 O   0  0  0  0  0  0  0  0  0  0  0  0
   13.7939  -12.1663    0.0000 O   0  0  0  0  0  0  0  0  0  0  0  0
   12.3650  -10.5163    0.0000 C   0  0  0  0  0  0  0  0  0  0  0  0
   13.0794  -10.9288    0.0000 C   0  0  0  0  0  0  0  0  0  0  0  0
   13.0794  -11.7538    0.0000 C   0  0  0  0  0  0  0  0  0  0  0  0
   12.3650  -12.1663    0.0000 C   0  0  0  0  0  0  0  0  0  0  0  0
   11.6505  -11.7538    0.0000 C   0  0  0  0  0  0  0  0  0  0  0  0
   11.6505  -10.9288    0.0000 C   0  0  0  0  0  0  0  0  0  0  0  0
    9.5071   -9.6913    0.0000 O   0  0  0  0  0  0  0  0  0  0  0  0
   10.9360  -10.5163    0.0000 C   0  0  0  0  0  0  0  0  0  0  0  0
   10.2215  -10.9288    0.0000 C   0  0  0  0  0  0  0  0  0  0  0  0
    9.5071  -10.5163    0.0000 C   0  0  0  0  0  0  0  0  0  0  0  0
    0.9334  -10.5163    0.0000 O   0  0  0  0  0  0  0  0  0  0  0  0
    0.9334  -12.1663    0.0000 O   0  0  0  0  0  0  0  0  0  0  0  0
    3.0768  -11.7538    0.0000 C   0  0  0  0  0  0  0  0  0  0  0  0
    2.3624  -12.1663    0.0000 C   0  0  0  0  0  0  0  0  0  0  0  0
    1.6479  -11.7538    0.0000 C   0  0  0  0  0  0  0  0  0  0  0  0
    1.6479  -10.9288    0.0000 C   0  0  0  0  0  0  0  0  0  0  0  0
    2.3624  -10.5163    0.0000 C   0  0  0  0  0  0  0  0  0  0  0  0
    3.0768  -10.9288    0.0000 C   0  0  0  0  0  0  0  0  0  0  0  0
    5.2202   -9.6913    0.0000 O   0  0  0  0  0  0  0  0  0  0  0  0
    3.7913  -10.5163    0.0000 C   0  0  0  0  0  0  0  0  0  0  0  0
    4.5058  -10.9288    0.0000 C   0  0  0  0  0  0  0  0  0  0  0  0
    5.2202  -10.5163    0.0000 C   0  0  0  0  0  0  0  0  0  0  0  0
 23  6  1  0  0  0  0
  3 20  1  0  0  0  0
 23 22  2  0  0  0  0
 24 23  1  0  0  0  0
  3 24  1  0  0  0  0
 34 32  1  0  0  0  0
 30 25  1  0  0  0  0
 29 26  1  0  0  0  0
 32 27  2  0  0  0  0
 28 27  1  0  0  0  0
 29 28  2  0  0  0  0
 30 29  1  0  0  0  0
 31 30  2  0  0  0  0
 32 31  1  0  0  0  0
 36 33  2  0  0  0  0
 35 34  2  0  0  0  0
 36 35  1  0  0  0  0
 46 44  1  0  0  0  0
 42 37  1  0  0  0  0
 41 38  1  0  0  0  0
 44 39  2  0  0  0  0
 40 39  1  0  0  0  0
 41 40  2  0  0  0  0
 42 41  1  0  0  0  0
 43 42  2  0  0  0  0
 44 43  1  0  0  0  0
 48 45  2  0  0  0  0
 47 46  2  0  0  0  0
 48 47  1  0  0  0  0
  1  2  1  0  0  0  0
  2  3  1  0  0  0  0
  1  4  2  0  0  0  0
  1  5  1  0  0  0  0
  7  8  1  0  0  0  0
  8  9  1  0  0  0  0
  9 10  1  0  0  0  0
 10 11  1  0  0  0  0
 11 12  1  0  0  0  0
  7 12  1  0  0  0  0
 13 14  2  0  0  0  0
 15 16  1  0  0  0  0
 13 15  1  0  0  0  0
 10 13  1  0  0  0  0
 10 17  1  0  0  0  0
 18 36  1  0  0  0  0
 12 18  1  1  0  0  0
 19 48  1  0  0  0  0
  8 19  1  6  0  0  0
  6  7  1  0  0  0  0
  3 21  1  0  0  0  0
M  END
>  <cdx:fragmentId>
79125

$$$$
