69351.cdx
  Mrv1902 05222410222D          

 13 12  0  0  0  0            999 V2000
    8.2973   -6.6421    0.0000 C   0  0  0  0  0  0  0  0  0  0  0  0
    7.5829   -7.0546    0.0000 C   0  0  0  0  0  0  0  0  0  0  0  0
    6.8684   -6.6421    0.0000 C   0  0  0  0  0  0  0  0  0  0  0  0
    6.1539   -7.0546    0.0000 C   0  0  0  0  0  0  0  0  0  0  0  0
    5.4394   -6.6421    0.0000 C   0  0  0  0  0  0  0  0  0  0  0  0
    4.7250   -7.0546    0.0000 C   0  0  0  0  0  0  0  0  0  0  0  0
    4.0105   -6.6421    0.0000 C   0  0  0  0  0  0  0  0  0  0  0  0
    3.2960   -7.0546    0.0000 C   0  0  0  0  0  0  0  0  0  0  0  0
    8.2973   -5.8171    0.0000 O   0  0  0  0  0  0  0  0  0  0  0  0
    9.0118   -7.0546    0.0000 O   0  0  0  0  0  0  0  0  0  0  0  0
    9.7263   -6.6421    0.0000 C   0  0  0  0  0  0  0  0  0  0  0  0
   10.4407   -7.0546    0.0000 C   0  0  0  0  0  0  0  0  0  0  0  0
   11.1552   -6.6421    0.0000 C   0  0  0  0  0  0  0  0  0  0  0  0
  1  2  1  0  0  0  0
  2  3  1  0  0  0  0
  3  4  1  0  0  0  0
  4  5  1  0  0  0  0
  5  6  1  0  0  0  0
  6  7  1  0  0  0  0
  7  8  1  0  0  0  0
  1  9  2  0  0  0  0
  1 10  1  0  0  0  0
 11 12  1  0  0  0  0
 12 13  1  0  0  0  0
 10 11  1  0  0  0  0
M  END
>  <cdx:groupId>
40

>  <cdx:fragmentId>
5

$$$$
