69362.cdx
  Mrv1902 05222410232D          

  8  7  0  0  0  0            999 V2000
    5.8253   -4.5246    0.0000 C   0  0  0  0  0  0  0  0  0  0  0  0
    5.1109   -4.9371    0.0000 C   0  0  0  0  0  0  0  0  0  0  0  0
    4.3964   -4.5246    0.0000 C   0  0  0  0  0  0  0  0  0  0  0  0
    3.6819   -4.9371    0.0000 C   0  0  0  0  0  0  0  0  0  0  0  0
    4.3964   -3.6996    0.0000 C   0  0  0  0  0  0  0  0  0  0  0  0
    5.8253   -3.6996    0.0000 O   0  0  0  0  0  0  0  0  0  0  0  0
    6.5398   -4.9371    0.0000 O   0  0  0  0  0  0  0  0  0  0  0  0
    3.6819   -4.1121    0.0000 O   0  0  0  0  0  0  0  0  0  0  0  0
  1  2  1  0  0  0  0
  2  3  1  0  0  0  0
  3  4  1  0  0  0  0
  3  5  1  0  0  0  0
  1  6  2  0  0  0  0
  1  7  1  0  0  0  0
  3  8  1  0  0  0  0
M  END
>  <cdx:groupId>
25

>  <cdx:fragmentId>
5

$$$$
