693717.cdx
  Mrv1902 05222410202D          

 72 77  0  0  0  0            999 V2000
    3.0074   -9.8788    0.0000 C   0  0  0  0  0  0  0  0  0  0  0  0
    3.4199   -9.1644    0.0000 C   0  0  2  0  0  0  0  0  0  0  0  0
    4.1343   -9.5769    0.0000 C   0  0  0  0  0  0  0  0  0  0  0  0
    4.8488   -9.1644    0.0000 C   0  0  0  0  0  0  0  0  0  0  0  0
    2.1824   -9.8788    0.0000 O   0  0  0  0  0  0  0  0  0  0  0  0
    3.4199  -10.5933    0.0000 O   0  0  0  0  0  0  0  0  0  0  0  0
    4.8488   -8.3394    0.0000 O   0  0  0  0  0  0  0  0  0  0  0  0
    5.5633   -9.5769    0.0000 O   0  0  0  0  0  0  0  0  0  0  0  0
    2.4910   -8.6281    0.0000 C   0  0  0  0  0  0  0  0  0  0  0  0
    1.5622   -9.1644    0.0000 C   0  0  0  0  0  0  0  0  0  0  0  0
    1.5622   -9.9894    0.0000 C   0  0  0  0  0  0  0  0  0  0  0  0
    0.8478   -8.7519    0.0000 C   0  0  0  0  0  0  0  0  0  0  0  0
    3.0074  -11.3078    0.0000 C   0  0  0  0  0  0  0  0  0  0  0  0
    3.4199  -12.0223    0.0000 C   0  0  0  0  0  0  0  0  0  0  0  0
    4.2449  -12.0223    0.0000 C   0  0  0  0  0  0  0  0  0  0  0  0
    4.6574  -12.7367    0.0000 C   0  0  0  0  0  0  0  0  0  0  0  0
    4.2449  -13.4512    0.0000 C   0  0  0  0  0  0  0  0  0  0  0  0
    3.4199  -13.4512    0.0000 C   0  0  0  0  0  0  0  0  0  0  0  0
    3.0074  -12.7367    0.0000 C   0  0  0  0  0  0  0  0  0  0  0  0
    4.6574  -14.1657    0.0000 O   0  0  0  0  0  0  0  0  0  0  0  0
    5.8949  -14.8801    0.0000 O   0  0  0  0  0  0  0  0  0  0  0  0
    5.4824  -14.1657    0.0000 C   0  0  2  0  0  0  0  0  0  0  0  0
    5.8949  -13.4512    0.0000 C   0  0  1  0  0  0  0  0  0  0  0  0
    6.7199  -13.4512    0.0000 C   0  0  2  0  0  0  0  0  0  0  0  0
    7.1324  -14.1657    0.0000 C   0  0  1  0  0  0  0  0  0  0  0  0
    6.7199  -14.8801    0.0000 C   0  0  1  0  0  0  0  0  0  0  0  0
    7.1324  -15.5946    0.0000 C   0  0  0  0  0  0  0  0  0  0  0  0
    7.9574  -15.5946    0.0000 O   0  0  0  0  0  0  0  0  0  0  0  0
    7.9574  -14.1657    0.0000 O   0  0  0  0  0  0  0  0  0  0  0  0
    7.1324  -12.7367    0.0000 O   0  0  0  0  0  0  0  0  0  0  0  0
    5.4824  -12.7367    0.0000 O   0  0  0  0  0  0  0  0  0  0  0  0
    6.2777   -9.1644    0.0000 C   0  0  0  0  0  0  0  0  0  0  0  0
    6.9922   -9.5769    0.0000 C   0  0  0  0  0  0  0  0  0  0  0  0
    7.7067   -9.1644    0.0000 C   0  0  0  0  0  0  0  0  0  0  0  0
    8.4211   -9.5769    0.0000 C   0  0  0  0  0  0  0  0  0  0  0  0
    8.4211  -10.4019    0.0000 C   0  0  0  0  0  0  0  0  0  0  0  0
    7.7067  -10.8144    0.0000 C   0  0  0  0  0  0  0  0  0  0  0  0
    6.9922  -10.4019    0.0000 C   0  0  0  0  0  0  0  0  0  0  0  0
    9.1356  -10.8144    0.0000 O   0  0  0  0  0  0  0  0  0  0  0  0
   10.5646  -10.8144    0.0000 O   0  0  0  0  0  0  0  0  0  0  0  0
    9.8501  -10.4019    0.0000 C   0  0  2  0  0  0  0  0  0  0  0  0
    9.8501   -9.5769    0.0000 C   0  0  1  0  0  0  0  0  0  0  0  0
   10.5646   -9.1644    0.0000 C   0  0  2  0  0  0  0  0  0  0  0  0
   11.2790   -9.5769    0.0000 C   0  0  1  0  0  0  0  0  0  0  0  0
   11.2790  -10.4019    0.0000 C   0  0  1  0  0  0  0  0  0  0  0  0
   11.9935  -10.8144    0.0000 C   0  0  0  0  0  0  0  0  0  0  0  0
   12.7080  -10.4019    0.0000 O   0  0  0  0  0  0  0  0  0  0  0  0
   11.9935   -9.1644    0.0000 O   0  0  0  0  0  0  0  0  0  0  0  0
   10.5646   -8.3394    0.0000 O   0  0  0  0  0  0  0  0  0  0  0  0
    9.1356   -9.1644    0.0000 O   0  0  0  0  0  0  0  0  0  0  0  0
    5.9726   -6.3841    0.0000 O   0  0  0  0  0  0  0  0  0  0  0  0
    5.2575   -5.9727    0.0000 C   0  0  0  0  0  0  0  0  0  0  0  0
    2.4021   -7.6271    0.0000 O   0  0  0  0  0  0  0  0  0  0  0  0
    2.3996   -5.9771    0.0000 O   0  0  0  0  0  0  0  0  0  0  0  0
    4.5373   -2.2613    0.0000 C   0  0  0  0  0  0  0  0  0  0  0  0
    4.5360   -1.4363    0.0000 C   0  0  0  0  0  0  0  0  0  0  0  0
    5.2499   -1.0227    0.0000 C   0  0  0  0  0  0  0  0  0  0  0  0
    5.9650   -1.4341    0.0000 C   0  0  0  0  0  0  0  0  0  0  0  0
    5.9663   -2.2591    0.0000 C   0  0  0  0  0  0  0  0  0  0  0  0
    5.2524   -2.6727    0.0000 C   0  0  0  0  0  0  0  0  0  0  0  0
    5.2562   -5.1477    0.0000 O   0  0  0  0  0  0  0  0  0  0  0  0
    5.2537   -3.4977    0.0000 C   0  0  0  0  0  0  0  0  0  0  0  0
    4.5398   -3.9113    0.0000 C   0  0  0  0  0  0  0  0  0  0  0  0
    4.5411   -4.7363    0.0000 C   0  0  0  0  0  0  0  0  0  0  0  0
    3.8273   -5.1499    0.0000 O   0  0  0  0  0  0  0  0  0  0  0  0
    4.5437   -6.3863    0.0000 C   0  0  2  0  0  0  0  0  0  0  0  0
    3.8285   -5.9749    0.0000 C   0  0  2  0  0  0  0  0  0  0  0  0
    3.1147   -6.3885    0.0000 C   0  0  1  0  0  0  0  0  0  0  0  0
    3.1160   -7.2135    0.0000 C   0  0  2  0  0  0  0  0  0  0  0  0
    3.8311   -7.6249    0.0000 C   0  0  1  0  0  0  0  0  0  0  0  0
    4.5449   -7.2113    0.0000 O   0  0  0  0  0  0  0  0  0  0  0  0
    3.8324   -8.4499    0.0000 O   0  0  0  0  0  0  0  0  0  0  0  0
 70 72  1  1  0  0  0
 66 52  1  1  0  0  0
 52 51  1  0  0  0  0
 69 53  1  6  0  0  0
 68 54  1  1  0  0  0
 67 65  1  6  0  0  0
 65 64  1  0  0  0  0
 62 60  1  0  0  0  0
 60 55  2  0  0  0  0
 56 55  1  0  0  0  0
 57 56  2  0  0  0  0
 58 57  1  0  0  0  0
 59 58  2  0  0  0  0
 60 59  1  0  0  0  0
 64 61  2  0  0  0  0
 63 62  2  0  0  0  0
 64 63  1  0  0  0  0
 71 66  1  0  0  0  0
 67 66  1  0  0  0  0
 68 67  1  0  0  0  0
 69 68  1  0  0  0  0
 70 69  1  0  0  0  0
  1  2  1  0  0  0  0
  2  3  1  1  0  0  0
  3  4  1  0  0  0  0
  1  5  2  0  0  0  0
  1  6  1  0  0  0  0
  4  7  2  0  0  0  0
  4  8  1  0  0  0  0
  9 10  1  0  0  0  0
 10 11  1  0  0  0  0
 10 12  1  0  0  0  0
  2  9  1  1  0  0  0
 71 70  1  0  0  0  0
  2 72  1  0  0  0  0
 14 15  1  0  0  0  0
 15 16  2  0  0  0  0
 16 17  1  0  0  0  0
 17 18  2  0  0  0  0
 18 19  1  0  0  0  0
 14 19  2  0  0  0  0
 21 22  1  0  0  0  0
 22 23  1  0  0  0  0
 23 24  1  0  0  0  0
 24 25  1  0  0  0  0
 25 26  1  0  0  0  0
 21 26  1  0  0  0  0
 27 28  1  0  0  0  0
 26 27  1  1  0  0  0
 25 29  1  6  0  0  0
 24 30  1  1  0  0  0
 23 31  1  6  0  0  0
 22 20  1  1  0  0  0
 17 20  1  0  0  0  0
 13 14  1  0  0  0  0
  6 13  1  0  0  0  0
 33 34  1  0  0  0  0
 34 35  2  0  0  0  0
 35 36  1  0  0  0  0
 36 37  2  0  0  0  0
 37 38  1  0  0  0  0
 33 38  2  0  0  0  0
 40 41  1  0  0  0  0
 41 42  1  0  0  0  0
 42 43  1  0  0  0  0
 43 44  1  0  0  0  0
 44 45  1  0  0  0  0
 40 45  1  0  0  0  0
 46 47  1  0  0  0  0
 45 46  1  1  0  0  0
 44 48  1  6  0  0  0
 43 49  1  1  0  0  0
 42 50  1  6  0  0  0
 41 39  1  1  0  0  0
 36 39  1  0  0  0  0
 32 33  1  0  0  0  0
  8 32  1  0  0  0  0
M  END
>  <cdx:fragmentId>
53

$$$$
