69420.cdx
  Mrv1902 05222410222D          

 10  9  0  0  0  0            999 V2000
    5.1100   -4.0158    0.0000 C   0  0  0  0  0  0  0  0  0  0  0  0
    5.8244   -4.4283    0.0000 C   0  0  0  0  0  0  0  0  0  0  0  0
    6.5389   -4.0158    0.0000 C   0  0  0  0  0  0  0  0  0  0  0  0
    7.2534   -4.4283    0.0000 C   0  0  0  0  0  0  0  0  0  0  0  0
    7.9679   -4.0158    0.0000 C   0  0  0  0  0  0  0  0  0  0  0  0
    8.6823   -4.4283    0.0000 C   0  0  0  0  0  0  0  0  0  0  0  0
    9.3968   -4.0158    0.0000 C   0  0  0  0  0  0  0  0  0  0  0  0
   10.1113   -4.4283    0.0000 C   0  0  0  0  0  0  0  0  0  0  0  0
    4.3955   -4.4283    0.0000 O   0  0  0  0  0  0  0  0  0  0  0  0
   10.8257   -4.0158    0.0000 O   0  0  0  0  0  0  0  0  0  0  0  0
  1  2  1  0  0  0  0
  2  3  1  0  0  0  0
  3  4  1  0  0  0  0
  4  5  1  0  0  0  0
  5  6  1  0  0  0  0
  6  7  1  0  0  0  0
  7  8  1  0  0  0  0
  1  9  1  0  0  0  0
  8 10  1  0  0  0  0
M  END
>  <cdx:fragmentId>
5

$$$$
