69423.cdx
  Mrv1902 05222410222D          

 20 19  0  0  0  0            999 V2000
    1.3105   -8.5216    0.0000 O   0  0  0  0  0  0  0  0  0  0  0  0
   13.4565   -7.2841    0.0000 C   0  0  0  0  0  0  0  0  0  0  0  0
   12.7420   -7.6966    0.0000 C   0  0  0  0  0  0  0  0  0  0  0  0
   12.0275   -7.2841    0.0000 C   0  0  0  0  0  0  0  0  0  0  0  0
   11.3131   -7.6966    0.0000 C   0  0  0  0  0  0  0  0  0  0  0  0
   10.5986   -7.2841    0.0000 C   0  0  0  0  0  0  0  0  0  0  0  0
    9.8841   -7.6966    0.0000 C   0  0  0  0  0  0  0  0  0  0  0  0
    9.1697   -7.2841    0.0000 C   0  0  0  0  0  0  0  0  0  0  0  0
    8.4552   -7.6966    0.0000 C   0  0  0  0  0  0  0  0  0  0  0  0
    7.7407   -7.2841    0.0000 C   0  0  0  0  0  0  0  0  0  0  0  0
    7.0262   -7.6966    0.0000 C   0  0  0  0  0  0  0  0  0  0  0  0
    6.3118   -7.2841    0.0000 C   0  0  0  0  0  0  0  0  0  0  0  0
    5.5973   -7.6966    0.0000 C   0  0  0  0  0  0  0  0  0  0  0  0
    4.8828   -7.2841    0.0000 C   0  0  0  0  0  0  0  0  0  0  0  0
    4.1684   -7.6966    0.0000 C   0  0  0  0  0  0  0  0  0  0  0  0
    3.4539   -7.2841    0.0000 C   0  0  0  0  0  0  0  0  0  0  0  0
    2.7394   -7.6966    0.0000 C   0  0  0  0  0  0  0  0  0  0  0  0
    2.0250   -7.2841    0.0000 C   0  0  0  0  0  0  0  0  0  0  0  0
    1.3105   -7.6966    0.0000 C   0  0  0  0  0  0  0  0  0  0  0  0
    0.5960   -7.2841    0.0000 C   0  0  0  0  0  0  0  0  0  0  0  0
 19  1  2  0  0  0  0
  3  2  1  0  0  0  0
  4  3  1  0  0  0  0
  5  4  1  0  0  0  0
  6  5  1  0  0  0  0
  7  6  1  0  0  0  0
  8  7  1  0  0  0  0
  9  8  1  0  0  0  0
 10  9  1  0  0  0  0
 11 10  1  0  0  0  0
 12 11  1  0  0  0  0
 13 12  1  0  0  0  0
 14 13  1  0  0  0  0
 15 14  1  0  0  0  0
 16 15  1  0  0  0  0
 17 16  1  0  0  0  0
 18 17  1  0  0  0  0
 19 18  1  0  0  0  0
 20 19  1  0  0  0  0
M  END
>  <cdx:groupId>
61

>  <cdx:fragmentId>
5

$$$$
