69425.cdx
  Mrv1902 05222410202D          

 18 17  0  0  0  0            999 V2000
    0.9986   -7.6522    0.0000 C   0  0  0  0  0  0  0  0  0  0  0  0
    1.7131   -7.2397    0.0000 C   0  0  0  0  0  0  0  0  0  0  0  0
    2.4276   -6.8272    0.0000 C   0  0  0  0  0  0  0  0  0  0  0  0
    3.1420   -7.2397    0.0000 C   0  0  0  0  0  0  0  0  0  0  0  0
    3.8565   -6.8272    0.0000 C   0  0  0  0  0  0  0  0  0  0  0  0
    4.5710   -7.2397    0.0000 C   0  0  0  0  0  0  0  0  0  0  0  0
    5.2854   -6.8272    0.0000 C   0  0  0  0  0  0  0  0  0  0  0  0
    5.9999   -7.2397    0.0000 C   0  0  0  0  0  0  0  0  0  0  0  0
    6.7144   -6.8272    0.0000 C   0  0  0  0  0  0  0  0  0  0  0  0
    7.4289   -7.2397    0.0000 C   0  0  0  0  0  0  0  0  0  0  0  0
    8.1433   -6.8272    0.0000 C   0  0  0  0  0  0  0  0  0  0  0  0
    8.8578   -7.2397    0.0000 C   0  0  0  0  0  0  0  0  0  0  0  0
    9.5723   -6.8272    0.0000 C   0  0  0  0  0  0  0  0  0  0  0  0
   10.2867   -7.2397    0.0000 C   0  0  0  0  0  0  0  0  0  0  0  0
   11.0012   -6.8272    0.0000 C   0  0  0  0  0  0  0  0  0  0  0  0
   11.7157   -7.2397    0.0000 C   0  0  0  0  0  0  0  0  0  0  0  0
   12.4302   -6.8272    0.0000 C   0  0  0  0  0  0  0  0  0  0  0  0
   13.1446   -7.2397    0.0000 C   0  0  0  0  0  0  0  0  0  0  0  0
  1  2  3  0  0  0  0
  2  3  1  0  0  0  0
  3  4  1  0  0  0  0
  4  5  1  0  0  0  0
  5  6  1  0  0  0  0
  6  7  1  0  0  0  0
  7  8  1  0  0  0  0
  8  9  1  0  0  0  0
  9 10  1  0  0  0  0
 10 11  1  0  0  0  0
 11 12  1  0  0  0  0
 12 13  1  0  0  0  0
 13 14  1  0  0  0  0
 14 15  1  0  0  0  0
 15 16  1  0  0  0  0
 16 17  1  0  0  0  0
 17 18  1  0  0  0  0
M  END
>  <cdx:fragmentId>
5

$$$$
