69421.cdx
  Mrv1902 05222410232D          

 18 17  0  0  0  0            999 V2000
   12.0377   -3.7738    0.0000 C   0  0  0  0  0  0  0  0  0  0  0  0
   11.3232   -4.1863    0.0000 C   0  0  0  0  0  0  0  0  0  0  0  0
   10.6087   -3.7738    0.0000 C   0  0  0  0  0  0  0  0  0  0  0  0
    9.8942   -4.1863    0.0000 C   0  0  0  0  0  0  0  0  0  0  0  0
    9.1798   -3.7738    0.0000 C   0  0  0  0  0  0  0  0  0  0  0  0
    8.4653   -4.1863    0.0000 C   0  0  0  0  0  0  0  0  0  0  0  0
    7.7508   -3.7738    0.0000 C   0  0  0  0  0  0  0  0  0  0  0  0
    7.0364   -4.1863    0.0000 C   0  0  0  0  0  0  0  0  0  0  0  0
    6.3219   -3.7738    0.0000 C   0  0  0  0  0  0  0  0  0  0  0  0
    5.6074   -4.1863    0.0000 C   0  0  0  0  0  0  0  0  0  0  0  0
    4.8930   -3.7738    0.0000 C   0  0  0  0  0  0  0  0  0  0  0  0
    4.1785   -4.1863    0.0000 C   0  0  0  0  0  0  0  0  0  0  0  0
    3.4640   -3.7738    0.0000 C   0  0  0  0  0  0  0  0  0  0  0  0
    2.7495   -4.1863    0.0000 C   0  0  0  0  0  0  0  0  0  0  0  0
    2.0351   -3.7738    0.0000 C   0  0  0  0  0  0  0  0  0  0  0  0
    1.3206   -4.1863    0.0000 C   0  0  0  0  0  0  0  0  0  0  0  0
   12.0377   -2.9488    0.0000 O   0  0  0  0  0  0  0  0  0  0  0  0
   12.7521   -4.1863    0.0000 N   0  0  0  0  0  0  0  0  0  0  0  0
  1  2  1  0  0  0  0
  2  3  1  0  0  0  0
  3  4  1  0  0  0  0
  4  5  1  0  0  0  0
  5  6  1  0  0  0  0
  6  7  1  0  0  0  0
  7  8  1  0  0  0  0
  8  9  1  0  0  0  0
  9 10  1  0  0  0  0
 10 11  1  0  0  0  0
 11 12  1  0  0  0  0
 12 13  1  0  0  0  0
 13 14  1  0  0  0  0
 14 15  1  0  0  0  0
 15 16  1  0  0  0  0
  1 17  2  0  0  0  0
  1 18  1  0  0  0  0
M  END
>  <cdx:groupId>
55

>  <cdx:fragmentId>
5

$$$$
