694374.cdx
  Mrv1902 05222410232D          

 23 22  0  0  0  0            999 V2000
    0.9288  -11.1369    0.0000 C   0  0  0  0  0  0  0  0  0  0  0  0
    1.6432  -10.7244    0.0000 O   0  0  0  0  0  0  0  0  0  0  0  0
    2.3577  -11.9619    0.0000 O   0  0  0  0  0  0  0  0  0  0  0  0
    6.6445  -11.1369    0.0000 C   0  0  0  0  0  0  0  0  0  0  0  0
    5.9301  -10.7244    0.0000 C   0  0  0  0  0  0  0  0  0  0  0  0
    5.2156  -11.1369    0.0000 C   0  0  0  0  0  0  0  0  0  0  0  0
    4.5011  -10.7244    0.0000 C   0  0  0  0  0  0  0  0  0  0  0  0
    3.7866  -11.1369    0.0000 C   0  0  0  0  0  0  0  0  0  0  0  0
    3.0722  -10.7244    0.0000 C   0  0  0  0  0  0  0  0  0  0  0  0
    2.3577  -11.1369    0.0000 C   0  0  0  0  0  0  0  0  0  0  0  0
    7.3590  -10.7244    0.0000 C   0  0  0  0  0  0  0  0  0  0  0  0
    7.3590   -9.8994    0.0000 C   0  0  0  0  0  0  0  0  0  0  0  0
    8.0735   -9.4869    0.0000 C   0  0  0  0  0  0  0  0  0  0  0  0
    8.0735   -8.6619    0.0000 C   0  0  0  0  0  0  0  0  0  0  0  0
    8.7879   -8.2494    0.0000 C   0  0  0  0  0  0  0  0  0  0  0  0
    9.5024   -8.6619    0.0000 C   0  0  0  0  0  0  0  0  0  0  0  0
   10.2169   -8.2494    0.0000 C   0  0  0  0  0  0  0  0  0  0  0  0
   10.9314   -8.6619    0.0000 C   0  0  0  0  0  0  0  0  0  0  0  0
   10.9314   -9.4869    0.0000 C   0  0  0  0  0  0  0  0  0  0  0  0
   11.6458   -9.8994    0.0000 C   0  0  0  0  0  0  0  0  0  0  0  0
   11.6458  -10.7244    0.0000 C   0  0  0  0  0  0  0  0  0  0  0  0
   12.3603  -11.1369    0.0000 C   0  0  0  0  0  0  0  0  0  0  0  0
   12.3603  -11.9619    0.0000 C   0  0  0  0  0  0  0  0  0  0  0  0
  2  1  1  0  0  0  0
 10  2  1  0  0  0  0
 10  3  2  0  0  0  0
  5  4  1  0  0  0  0
  6  5  1  0  0  0  0
  7  6  1  0  0  0  0
  8  7  1  0  0  0  0
  9  8  1  0  0  0  0
 10  9  1  0  0  0  0
  4 11  2  0  0  0  0
 11 12  1  0  0  0  0
 12 13  1  0  0  0  0
 13 14  1  0  0  0  0
 14 15  2  0  0  0  0
 15 16  1  0  0  0  0
 16 17  1  0  0  0  0
 17 18  2  0  0  0  0
 18 19  1  0  0  0  0
 19 20  1  0  0  0  0
 20 21  1  0  0  0  0
 21 22  1  0  0  0  0
 22 23  1  0  0  0  0
M  END
>  <cdx:fragmentId>
73

$$$$
