15694364.cdx
  Mrv1902 05222410252D          

 40 44  0  0  0  0            999 V2000
   10.9399  -13.8892    0.0000 O   0  0  0  0  0  0  0  0  0  0  0  0
   10.2254  -13.4767    0.0000 C   0  0  1  0  0  0  0  0  0  0  0  0
    9.5110  -13.8892    0.0000 C   0  0  0  0  0  0  0  0  0  0  0  0
    9.5110  -14.7142    0.0000 C   0  0  1  0  0  0  0  0  0  0  0  0
    8.7965  -15.1267    0.0000 C   0  0  1  0  0  0  0  0  0  0  0  0
    8.7965  -15.9517    0.0000 C   0  0  1  0  0  0  0  0  0  0  0  0
    9.5110  -16.3642    0.0000 C   0  0  0  0  0  0  0  0  0  0  0  0
   10.2254  -15.9517    0.0000 C   0  0  0  0  0  0  0  0  0  0  0  0
   10.2254  -15.1267    0.0000 C   0  0  2  0  0  0  0  0  0  0  0  0
   10.9399  -14.7142    0.0000 C   0  0  0  0  0  0  0  0  0  0  0  0
    8.0820  -16.3642    0.0000 C   0  0  0  0  0  0  0  0  0  0  0  0
    7.3675  -15.9517    0.0000 C   0  0  0  0  0  0  0  0  0  0  0  0
    7.3675  -15.1267    0.0000 C   0  0  1  0  0  0  0  0  0  0  0  0
    8.0820  -14.7142    0.0000 C   0  0  0  0  0  0  0  0  0  0  0  0
    8.0820  -17.1892    0.0000 C   0  0  0  0  0  0  0  0  0  0  0  0
    8.7965  -17.6017    0.0000 O   0  0  0  0  0  0  0  0  0  0  0  0
    7.3675  -17.6017    0.0000 O   0  0  0  0  0  0  0  0  0  0  0  0
    6.6531  -14.7142    0.0000 O   0  0  0  0  0  0  0  0  0  0  0  0
    5.2241  -14.7142    0.0000 O   0  0  0  0  0  0  0  0  0  0  0  0
    5.9386  -15.1267    0.0000 C   0  0  2  0  0  0  0  0  0  0  0  0
    5.9386  -15.9517    0.0000 C   0  0  1  0  0  0  0  0  0  0  0  0
    5.2241  -16.3642    0.0000 C   0  0  2  0  0  0  0  0  0  0  0  0
    4.5097  -15.9517    0.0000 C   0  0  1  0  0  0  0  0  0  0  0  0
    4.5097  -15.1267    0.0000 C   0  0  1  0  0  0  0  0  0  0  0  0
    3.7952  -14.7142    0.0000 C   0  0  0  0  0  0  0  0  0  0  0  0
    3.0807  -15.1267    0.0000 O   0  0  0  0  0  0  0  0  0  0  0  0
    3.7952  -16.3642    0.0000 O   0  0  0  0  0  0  0  0  0  0  0  0
    5.2241  -17.1892    0.0000 O   0  0  0  0  0  0  0  0  0  0  0  0
    6.6531  -16.3642    0.0000 O   0  0  0  0  0  0  0  0  0  0  0  0
   11.6544  -15.1267    0.0000 O   0  0  0  0  0  0  0  0  0  0  0  0
    9.5110  -15.5392    0.0000 C   0  0  0  0  0  0  0  0  0  0  0  0
    8.7965  -16.7767    0.0000 C   0  0  0  0  0  0  0  0  0  0  0  0
   10.6379  -11.3822    0.0000 O   0  0  0  0  0  0  0  0  0  0  0  0
   10.8929  -12.1668    0.0000 C   0  0  0  0  0  0  0  0  0  0  0  0
   10.2254  -12.6517    0.0000 C   0  0  0  0  0  0  0  0  0  0  0  0
    9.5580  -12.1668    0.0000 C   0  0  0  0  0  0  0  0  0  0  0  0
    9.8129  -11.3822    0.0000 C   0  0  0  0  0  0  0  0  0  0  0  0
   10.9399  -15.5392    0.0000 H   0  0  0  0  0  0  0  0  0  0  0  0
    8.7965  -14.3017    0.0000 H   0  0  0  0  0  0  0  0  0  0  0  0
    7.3675  -18.4267    0.0000 C   0  0  0  0  0  0  0  0  0  0  0  0
  1  2  1  0  0  0  0
  2  3  1  0  0  0  0
  3  4  1  0  0  0  0
  4  5  1  0  0  0  0
  5  6  1  0  0  0  0
  6  7  1  0  0  0  0
  7  8  1  0  0  0  0
  8  9  1  0  0  0  0
  4  9  1  0  0  0  0
  9 10  1  0  0  0  0
  1 10  1  0  0  0  0
 11 12  2  0  0  0  0
 12 13  1  0  0  0  0
 13 14  1  0  0  0  0
 14  5  1  0  0  0  0
 11  6  1  0  0  0  0
 15 16  2  0  0  0  0
 15 17  1  0  0  0  0
 11 15  1  0  0  0  0
 19 20  1  0  0  0  0
 20 21  1  0  0  0  0
 21 22  1  0  0  0  0
 22 23  1  0  0  0  0
 23 24  1  0  0  0  0
 19 24  1  0  0  0  0
 25 26  1  0  0  0  0
 24 25  1  1  0  0  0
 23 27  1  6  0  0  0
 22 28  1  1  0  0  0
 21 29  1  6  0  0  0
 20 18  1  1  0  0  0
 13 18  1  6  0  0  0
 10 30  2  0  0  0  0
  4 31  1  1  0  0  0
  6 32  1  6  0  0  0
 33 34  1  0  0  0  0
 34 35  2  0  0  0  0
 35 36  1  0  0  0  0
 36 37  2  0  0  0  0
 33 37  1  0  0  0  0
  2 35  1  1  0  0  0
  9 38  1  6  0  0  0
  5 39  1  6  0  0  0
 17 40  1  0  0  0  0
M  END
>  <cdx:groupId>
115673

>  <cdx:fragmentId>
115552

$$$$
