694384.cdx
  Mrv1902 05222410222D          

 17 16  0  0  0  0            999 V2000
    1.8272   -6.7094    0.0000 C   0  0  0  0  0  0  0  0  0  0  0  0
    2.5417   -6.2969    0.0000 O   0  0  0  0  0  0  0  0  0  0  0  0
    3.2562   -7.5344    0.0000 O   0  0  0  0  0  0  0  0  0  0  0  0
   12.5443   -7.1219    0.0000 C   0  0  0  0  0  0  0  0  0  0  0  0
   11.8298   -6.7094    0.0000 C   0  0  0  0  0  0  0  0  0  0  0  0
   11.1153   -7.1219    0.0000 C   0  0  0  0  0  0  0  0  0  0  0  0
   10.4009   -6.7094    0.0000 C   0  0  0  0  0  0  0  0  0  0  0  0
    9.6864   -6.2969    0.0000 C   0  0  0  0  0  0  0  0  0  0  0  0
    8.9719   -6.7094    0.0000 C   0  0  0  0  0  0  0  0  0  0  0  0
    8.2575   -6.2969    0.0000 C   0  0  0  0  0  0  0  0  0  0  0  0
    7.5430   -6.7094    0.0000 C   0  0  0  0  0  0  0  0  0  0  0  0
    6.8285   -6.2969    0.0000 C   0  0  0  0  0  0  0  0  0  0  0  0
    6.1140   -6.7094    0.0000 C   0  0  0  0  0  0  0  0  0  0  0  0
    5.3996   -6.2969    0.0000 C   0  0  0  0  0  0  0  0  0  0  0  0
    4.6851   -6.7094    0.0000 C   0  0  0  0  0  0  0  0  0  0  0  0
    3.9706   -6.2969    0.0000 C   0  0  0  0  0  0  0  0  0  0  0  0
    3.2562   -6.7094    0.0000 C   0  0  0  0  0  0  0  0  0  0  0  0
  2  1  1  0  0  0  0
 17  2  1  0  0  0  0
 17  3  2  0  0  0  0
  5  4  1  0  0  0  0
  6  5  1  0  0  0  0
  7  6  2  0  0  0  0
  8  7  2  0  0  0  0
  9  8  1  0  0  0  0
 10  9  1  0  0  0  0
 11 10  1  0  0  0  0
 12 11  1  0  0  0  0
 13 12  1  0  0  0  0
 14 13  1  0  0  0  0
 15 14  1  0  0  0  0
 16 15  1  0  0  0  0
 17 16  1  0  0  0  0
M  END
>  <cdx:fragmentId>
215186

$$$$
