6943.cdx
  Mrv1902 05222410202D          

 15 16  0  0  0  0            999 V2000
    5.5102   -7.1981    0.0000 C   0  0  0  0  0  0  0  0  0  0  0  0
    5.5102   -8.0231    0.0000 C   0  0  0  0  0  0  0  0  0  0  0  0
    6.2246   -8.4356    0.0000 C   0  0  0  0  0  0  0  0  0  0  0  0
    6.9391   -8.0231    0.0000 C   0  0  0  0  0  0  0  0  0  0  0  0
    6.9391   -7.1981    0.0000 C   0  0  0  0  0  0  0  0  0  0  0  0
    6.2246   -6.7856    0.0000 C   0  0  0  0  0  0  0  0  0  0  0  0
    7.7237   -8.2781    0.0000 C   0  0  0  0  0  0  0  0  0  0  0  0
    8.2086   -7.6106    0.0000 C   0  0  0  0  0  0  0  0  0  0  0  0
    7.7237   -6.9432    0.0000 C   0  0  0  0  0  0  0  0  0  0  0  0
    6.2246   -5.9606    0.0000 O   0  0  0  0  0  0  0  0  0  0  0  0
    9.0336   -7.6106    0.0000 C   0  0  0  0  0  0  0  0  0  0  0  0
    9.4461   -6.8962    0.0000 C   0  0  0  0  0  0  0  0  0  0  0  0
    9.4461   -8.3251    0.0000 C   0  0  0  0  0  0  0  0  0  0  0  0
    7.1526   -6.4012    0.0000 H   0  0  0  0  0  0  0  0  0  0  0  0
    7.1526   -8.8200    0.0000 H   0  0  0  0  0  0  0  0  0  0  0  0
  1  2  1  0  0  0  0
  2  3  1  0  0  0  0
  3  4  1  0  0  0  0
  4  5  1  0  0  0  0
  5  6  1  0  0  0  0
  6  1  1  0  0  0  0
  4  7  1  0  0  0  0
  7  8  1  0  0  0  0
  8  9  1  0  0  0  0
  9  5  1  0  0  0  0
  6 10  2  0  0  0  0
  8 11  2  0  0  0  0
 11 12  1  0  0  0  0
 11 13  1  0  0  0  0
  5 14  1  0  0  0  0
  4 15  1  0  0  0  0
M  END
>  <cdx:fragmentId>
5

$$$$
