694359.cdx
  Mrv1902 05222410252D          

 13 12  0  0  0  0            999 V2000
    5.6856   -6.6283    0.0000 C   0  0  0  0  0  0  0  0  0  0  0  0
    4.9711   -7.0408    0.0000 C   0  0  0  0  0  0  0  0  0  0  0  0
    5.6856   -5.8033    0.0000 O   0  0  0  0  0  0  0  0  0  0  0  0
    6.4000   -7.0408    0.0000 O   0  0  0  0  0  0  0  0  0  0  0  0
    4.2566   -7.4533    0.0000 F   0  0  0  0  0  0  0  0  0  0  0  0
    5.3836   -7.7553    0.0000 F   0  0  0  0  0  0  0  0  0  0  0  0
    4.5586   -6.3263    0.0000 F   0  0  0  0  0  0  0  0  0  0  0  0
    7.1145   -6.6283    0.0000 C   0  0  0  0  0  0  0  0  0  0  0  0
    7.8290   -7.0408    0.0000 C   0  0  0  0  0  0  0  0  0  0  0  0
    8.5435   -6.6283    0.0000 C   0  0  0  0  0  0  0  0  0  0  0  0
    9.2579   -7.0408    0.0000 C   0  0  0  0  0  0  0  0  0  0  0  0
    9.9724   -6.6283    0.0000 C   0  0  0  0  0  0  0  0  0  0  0  0
   10.6869   -7.0408    0.0000 C   0  0  0  0  0  0  0  0  0  0  0  0
  1  2  1  0  0  0  0
  1  3  2  0  0  0  0
  1  4  1  0  0  0  0
  2  5  1  0  0  0  0
  2  6  1  0  0  0  0
  2  7  1  0  0  0  0
  8  9  1  0  0  0  0
  9 10  1  0  0  0  0
 10 11  1  0  0  0  0
 11 12  2  0  0  0  0
 12 13  1  0  0  0  0
  4  8  1  0  0  0  0
M  END
>  <cdx:fragmentId>
215143

$$$$
