15694585.cdx
  Mrv1902 05222410202D          

 17 18  0  0  0  0            999 V2000
    7.9827  -16.0869    0.0000 C   0  0  0  0  0  0  0  0  0  0  0  0
    8.6972  -15.6744    0.0000 C   0  0  0  0  0  0  0  0  0  0  0  0
    8.6972  -14.8494    0.0000 C   0  0  0  0  0  0  0  0  0  0  0  0
    7.9827  -14.4369    0.0000 C   0  0  2  0  0  0  0  0  0  0  0  0
    7.2682  -14.8494    0.0000 C   0  0  1  0  0  0  0  0  0  0  0  0
    6.5538  -14.4369    0.0000 C   0  0  1  0  0  0  0  0  0  0  0  0
    5.8393  -14.8494    0.0000 C   0  0  0  0  0  0  0  0  0  0  0  0
    5.8393  -15.6744    0.0000 C   0  0  0  0  0  0  0  0  0  0  0  0
    6.5538  -16.0869    0.0000 C   0  0  0  0  0  0  0  0  0  0  0  0
    7.2682  -15.6744    0.0000 C   0  0  0  0  0  0  0  0  0  0  0  0
    7.9827  -16.9119    0.0000 O   0  0  0  0  0  0  0  0  0  0  0  0
    6.5538  -13.6119    0.0000 C   0  0  0  0  0  0  0  0  0  0  0  0
    7.2682  -14.0244    0.0000 C   0  0  0  0  0  0  0  0  0  0  0  0
    7.2682  -13.1994    0.0000 C   0  0  0  0  0  0  0  0  0  0  0  0
    7.9827  -13.6119    0.0000 C   0  0  0  0  0  0  0  0  0  0  0  0
    8.6972  -13.1994    0.0000 C   0  0  0  0  0  0  0  0  0  0  0  0
    7.9827  -12.7869    0.0000 O   0  0  0  0  0  0  0  0  0  0  0  0
  1  2  1  0  0  0  0
  2  3  1  0  0  0  0
  3  4  1  0  0  0  0
  4  5  1  0  0  0  0
  5  6  1  0  0  0  0
  6  7  1  0  0  0  0
  7  8  1  0  0  0  0
  8  9  1  0  0  0  0
  9 10  2  0  0  0  0
  1 10  1  0  0  0  0
  5 10  1  0  0  0  0
  1 11  2  0  0  0  0
  6 12  1  1  0  0  0
  5 13  1  1  0  0  0
 14 15  1  0  0  0  0
 15 16  1  0  0  0  0
 15 17  1  0  0  0  0
  4 15  1  6  0  0  0
M  END
>  <cdx:groupId>
115739

>  <cdx:fragmentId>
115690

$$$$
