69456.cdx
  Mrv1902 05222410202D          

 18 18  0  0  0  0            999 V2000
    4.2314   -4.5581    0.0000 C   0  0  0  0  0  0  0  0  0  0  0  0
    4.2314   -3.7331    0.0000 C   0  0  0  0  0  0  0  0  0  0  0  0
    4.9459   -3.3206    0.0000 C   0  0  0  0  0  0  0  0  0  0  0  0
    5.6603   -3.7331    0.0000 C   0  0  0  0  0  0  0  0  0  0  0  0
    5.6603   -4.5581    0.0000 C   0  0  0  0  0  0  0  0  0  0  0  0
    4.9459   -4.9706    0.0000 C   0  0  0  0  0  0  0  0  0  0  0  0
    6.3748   -4.9706    0.0000 C   0  0  0  0  0  0  0  0  0  0  0  0
    6.3748   -5.7956    0.0000 C   0  0  0  0  0  0  0  0  0  0  0  0
    7.0893   -4.5581    0.0000 C   0  0  0  0  0  0  0  0  0  0  0  0
    6.3748   -3.3206    0.0000 C   0  0  0  0  0  0  0  0  0  0  0  0
    6.3748   -2.4956    0.0000 C   0  0  0  0  0  0  0  0  0  0  0  0
    7.0893   -3.7331    0.0000 C   0  0  0  0  0  0  0  0  0  0  0  0
    3.5169   -3.3206    0.0000 C   0  0  0  0  0  0  0  0  0  0  0  0
    3.5169   -2.4956    0.0000 C   0  0  0  0  0  0  0  0  0  0  0  0
    2.8025   -3.7331    0.0000 C   0  0  0  0  0  0  0  0  0  0  0  0
    3.5169   -4.9706    0.0000 C   0  0  0  0  0  0  0  0  0  0  0  0
    3.5169   -5.7956    0.0000 C   0  0  0  0  0  0  0  0  0  0  0  0
    2.8025   -4.5581    0.0000 C   0  0  0  0  0  0  0  0  0  0  0  0
  1  2  1  0  0  0  0
  2  3  2  0  0  0  0
  3  4  1  0  0  0  0
  4  5  2  0  0  0  0
  5  6  1  0  0  0  0
  1  6  2  0  0  0  0
  7  8  1  0  0  0  0
  7  9  1  0  0  0  0
  5  7  1  0  0  0  0
 10 11  1  0  0  0  0
 10 12  1  0  0  0  0
  4 10  1  0  0  0  0
 13 14  1  0  0  0  0
 13 15  1  0  0  0  0
  2 13  1  0  0  0  0
 16 17  1  0  0  0  0
 16 18  1  0  0  0  0
  1 16  1  0  0  0  0
M  END
>  <cdx:groupId>
56

>  <cdx:fragmentId>
5

$$$$
