694682.cdx
  Mrv1902 05222410192D          

 20 20  0  0  0  0            999 V2000
    4.1116   -7.2242    0.0000 C   0  0  0  0  0  0  0  0  0  0  0  0
    3.3971   -6.8117    0.0000 C   0  0  0  0  0  0  0  0  0  0  0  0
    3.3971   -5.9867    0.0000 C   0  0  0  0  0  0  0  0  0  0  0  0
    4.1116   -5.5742    0.0000 C   0  0  0  0  0  0  0  0  0  0  0  0
    4.8260   -5.9867    0.0000 C   0  0  0  0  0  0  0  0  0  0  0  0
    4.8260   -6.8117    0.0000 C   0  0  0  0  0  0  0  0  0  0  0  0
    9.8273   -7.2242    0.0000 C   0  0  0  0  0  0  0  0  0  0  0  0
   10.5418   -3.5117    0.0000 C   0  0  0  0  0  0  0  0  0  0  0  0
    5.5405   -7.2242    0.0000 O   0  0  0  0  0  0  0  0  0  0  0  0
    6.2550   -5.9867    0.0000 O   0  0  0  0  0  0  0  0  0  0  0  0
   11.2563   -4.7492    0.0000 C   0  0  0  0  0  0  0  0  0  0  0  0
   10.5418   -4.3367    0.0000 C   0  0  0  0  0  0  0  0  0  0  0  0
    9.8273   -4.7492    0.0000 C   0  0  0  0  0  0  0  0  0  0  0  0
    9.8273   -5.5742    0.0000 C   0  0  0  0  0  0  0  0  0  0  0  0
    9.1129   -5.9867    0.0000 C   0  0  0  0  0  0  0  0  0  0  0  0
    9.1129   -6.8117    0.0000 C   0  0  0  0  0  0  0  0  0  0  0  0
    8.3984   -7.2242    0.0000 C   0  0  0  0  0  0  0  0  0  0  0  0
    7.6839   -6.8117    0.0000 C   0  0  0  0  0  0  0  0  0  0  0  0
    6.9695   -7.2242    0.0000 C   0  0  0  0  0  0  0  0  0  0  0  0
    6.2550   -6.8117    0.0000 C   0  0  0  0  0  0  0  0  0  0  0  0
  9  6  1  0  0  0  0
  6  1  2  0  0  0  0
  2  1  1  0  0  0  0
  3  2  2  0  0  0  0
  4  3  1  0  0  0  0
  5  4  2  0  0  0  0
  6  5  1  0  0  0  0
 16  7  1  0  0  0  0
 12  8  1  0  0  0  0
 20  9  1  0  0  0  0
 20 10  2  0  0  0  0
 12 11  1  0  0  0  0
 13 12  2  0  0  0  0
 14 13  1  0  0  0  0
 15 14  1  0  0  0  0
 16 15  1  0  0  0  0
 17 16  2  0  0  0  0
 18 17  1  0  0  0  0
 19 18  1  0  0  0  0
 20 19  1  0  0  0  0
M  END
>  <cdx:fragmentId>
215241

$$$$
