6949.cdx
  Mrv1902 05222410242D          

 15 16  0  0  0  0            999 V2000
    8.2878   -5.5125    0.0000 C   0  0  1  0  0  0  0  0  0  0  0  0
    8.7727   -6.1799    0.0000 C   0  0  0  0  0  0  0  0  0  0  0  0
    8.2878   -6.8474    0.0000 C   0  0  0  0  0  0  0  0  0  0  0  0
    7.5031   -6.5924    0.0000 C   0  0  0  0  0  0  0  0  0  0  0  0
    6.8581   -7.1068    0.0000 C   0  0  2  0  0  0  0  0  0  0  0  0
    6.0538   -6.9232    0.0000 C   0  0  0  0  0  0  0  0  0  0  0  0
    5.6959   -6.1799    0.0000 C   0  0  0  0  0  0  0  0  0  0  0  0
    6.0538   -5.4366    0.0000 C   0  0  0  0  0  0  0  0  0  0  0  0
    6.8581   -5.2530    0.0000 C   0  0  0  0  0  0  0  0  0  0  0  0
    7.5031   -5.7674    0.0000 C   0  0  0  0  0  0  0  0  0  0  0  0
    5.8409   -4.0236    0.0000 C   0  0  0  0  0  0  0  0  0  0  0  0
    5.5394   -4.7916    0.0000 C   0  0  0  0  0  0  0  0  0  0  0  0
    4.7237   -4.9146    0.0000 C   0  0  0  0  0  0  0  0  0  0  0  0
    7.0417   -7.9111    0.0000 C   0  0  0  0  0  0  0  0  0  0  0  0
    8.5427   -4.7279    0.0000 C   0  0  0  0  0  0  0  0  0  0  0  0
  1  2  1  0  0  0  0
  2  3  1  0  0  0  0
  3  4  1  0  0  0  0
  4  5  1  0  0  0  0
  5  6  1  0  0  0  0
  6  7  1  0  0  0  0
  7  8  1  0  0  0  0
  8  9  1  0  0  0  0
  9 10  1  0  0  0  0
  1 10  1  0  0  0  0
  4 10  2  0  0  0  0
 11 12  1  0  0  0  0
 12 13  1  0  0  0  0
  8 12  2  0  0  0  0
  5 14  1  1  0  0  0
  1 15  1  1  0  0  0
M  END
>  <cdx:fragmentId>
7182

$$$$
