91694932.cdx
  Mrv1902 05222410272D          

 17 16  0  0  0  0            999 V2000
    5.8393  -14.5058    0.0000 C   0  0  0  0  0  0  0  0  0  0  0  0
    5.1248  -14.9183    0.0000 C   0  0  0  0  0  0  0  0  0  0  0  0
    4.4104  -14.5058    0.0000 C   0  0  0  0  0  0  0  0  0  0  0  0
    4.4104  -13.6808    0.0000 C   0  0  0  0  0  0  0  0  0  0  0  0
    5.8393  -13.6808    0.0000 O   0  0  0  0  0  0  0  0  0  0  0  0
    6.5538  -14.9183    0.0000 O   0  0  0  0  0  0  0  0  0  0  0  0
    3.6959  -14.9183    0.0000 C   0  0  0  0  0  0  0  0  0  0  0  0
    7.2682  -14.5058    0.0000 C   0  0  0  0  0  0  0  0  0  0  0  0
    7.9827  -14.9183    0.0000 C   0  0  2  0  0  0  0  0  0  0  0  0
    8.6972  -14.5058    0.0000 C   0  0  0  0  0  0  0  0  0  0  0  0
    9.4117  -14.9183    0.0000 C   0  0  0  0  0  0  0  0  0  0  0  0
   10.1261  -14.5058    0.0000 C   0  0  0  0  0  0  0  0  0  0  0  0
   10.8406  -14.9183    0.0000 C   0  0  0  0  0  0  0  0  0  0  0  0
    8.6972  -16.1558    0.0000 C   0  0  0  0  0  0  0  0  0  0  0  0
    7.9827  -15.7433    0.0000 C   0  0  0  0  0  0  0  0  0  0  0  0
    7.2682  -16.1558    0.0000 C   0  0  0  0  0  0  0  0  0  0  0  0
   10.1261  -13.6808    0.0000 C   0  0  0  0  0  0  0  0  0  0  0  0
  1  2  1  0  0  0  0
  2  3  1  0  0  0  0
  3  4  1  0  0  0  0
  1  5  2  0  0  0  0
  1  6  1  0  0  0  0
  3  7  1  0  0  0  0
  8  9  1  0  0  0  0
  9 10  1  0  0  0  0
 10 11  1  0  0  0  0
 11 12  2  0  0  0  0
 12 13  1  0  0  0  0
 14 15  2  0  0  0  0
 15 16  1  0  0  0  0
  9 15  1  6  0  0  0
 12 17  1  0  0  0  0
  6  8  1  0  0  0  0
M  END
>  <cdx:groupId>
215353

>  <cdx:fragmentId>
215320

$$$$
