69502.cdx
  Mrv1902 05222410282D          

 20 22  0  0  0  0            999 V2000
    5.6289   -7.3339    0.0000 C   0  0  0  0  0  0  0  0  0  0  0  0
    5.6289   -8.1589    0.0000 C   0  0  0  0  0  0  0  0  0  0  0  0
    6.3433   -8.5714    0.0000 C   0  0  0  0  0  0  0  0  0  0  0  0
    7.0578   -8.1589    0.0000 C   0  0  0  0  0  0  0  0  0  0  0  0
    7.0578   -7.3339    0.0000 C   0  0  0  0  0  0  0  0  0  0  0  0
    6.3433   -6.9214    0.0000 O   0  0  0  0  0  0  0  0  0  0  0  0
    7.7723   -6.9214    0.0000 C   0  0  0  0  0  0  0  0  0  0  0  0
    8.4868   -7.3339    0.0000 C   0  0  0  0  0  0  0  0  0  0  0  0
    8.4868   -8.1589    0.0000 C   0  0  0  0  0  0  0  0  0  0  0  0
    7.7723   -8.5714    0.0000 C   0  0  0  0  0  0  0  0  0  0  0  0
    9.2714   -7.0790    0.0000 O   0  0  0  0  0  0  0  0  0  0  0  0
    9.2714   -8.4139    0.0000 C   0  0  0  0  0  0  0  0  0  0  0  0
    9.7563   -7.7464    0.0000 C   0  0  0  0  0  0  0  0  0  0  0  0
    4.9144   -6.9214    0.0000 O   0  0  0  0  0  0  0  0  0  0  0  0
    7.7723   -9.3964    0.0000 C   0  0  0  0  0  0  0  0  0  0  0  0
    8.4868   -9.8089    0.0000 C   0  0  0  0  0  0  0  0  0  0  0  0
    8.4868  -10.6339    0.0000 C   0  0  0  0  0  0  0  0  0  0  0  0
    7.7723  -11.0464    0.0000 C   0  0  0  0  0  0  0  0  0  0  0  0
    9.2013  -11.0464    0.0000 C   0  0  0  0  0  0  0  0  0  0  0  0
    7.7723   -6.0964    0.0000 O   0  0  0  0  0  0  0  0  0  0  0  0
  1  2  1  0  0  0  0
  2  3  2  0  0  0  0
  3  4  1  0  0  0  0
  4  5  1  0  0  0  0
  5  6  1  0  0  0  0
  1  6  1  0  0  0  0
  7  8  1  0  0  0  0
  8  9  2  0  0  0  0
  9 10  1  0  0  0  0
  4 10  2  0  0  0  0
  5  7  2  0  0  0  0
 12 13  2  0  0  0  0
 11 13  1  0  0  0  0
  9 12  1  0  0  0  0
  8 11  1  0  0  0  0
  1 14  2  0  0  0  0
 15 16  1  0  0  0  0
 16 17  2  0  0  0  0
 17 18  1  0  0  0  0
 17 19  1  0  0  0  0
 10 15  1  0  0  0  0
  7 20  1  0  0  0  0
M  END
>  <cdx:fragmentId>
3

$$$$
