695548.cdx
  Mrv1902 05222410202D          

 19 21  0  0  0  0            999 V2000
    7.5331   -7.8089    0.0000 C   0  0  0  0  0  0  0  0  0  0  0  0
    7.5331   -8.6339    0.0000 C   0  0  0  0  0  0  0  0  0  0  0  0
    8.2475   -9.0464    0.0000 N   0  0  0  0  0  0  0  0  0  0  0  0
    8.9620   -8.6339    0.0000 C   0  0  0  0  0  0  0  0  0  0  0  0
    8.9620   -7.8089    0.0000 N   0  0  0  0  0  0  0  0  0  0  0  0
    8.2475   -7.3964    0.0000 C   0  0  0  0  0  0  0  0  0  0  0  0
    6.7484   -7.5540    0.0000 N   0  0  0  0  0  0  0  0  0  0  0  0
    6.2635   -8.2214    0.0000 C   0  0  0  0  0  0  0  0  0  0  0  0
    6.7484   -8.8888    0.0000 N   0  0  0  0  0  0  0  0  0  0  0  0
    8.2475   -6.5714    0.0000 N   0  0  0  0  0  0  0  0  0  0  0  0
    6.4935   -9.6735    0.0000 C   0  0  1  0  0  0  0  0  0  0  0  0
    5.7089   -9.9284    0.0000 O   0  0  0  0  0  0  0  0  0  0  0  0
    5.7089  -10.7534    0.0000 C   0  0  1  0  0  0  0  0  0  0  0  0
    6.4935  -11.0083    0.0000 C   0  0  2  0  0  0  0  0  0  0  0  0
    6.9784  -10.3409    0.0000 C   0  0  2  0  0  0  0  0  0  0  0  0
    5.0414  -11.2383    0.0000 C   0  0  0  0  0  0  0  0  0  0  0  0
    7.8034  -10.3409    0.0000 O   0  0  0  0  0  0  0  0  0  0  0  0
    6.7484  -11.7930    0.0000 O   0  0  0  0  0  0  0  0  0  0  0  0
    5.0414  -12.0633    0.0000 O   0  0  0  0  0  0  0  0  0  0  0  0
  1  2  1  0  0  0  0
  2  3  2  0  0  0  0
  3  4  1  0  0  0  0
  4  5  2  0  0  0  0
  5  6  1  0  0  0  0
  6  1  2  0  0  0  0
  1  7  1  0  0  0  0
  7  8  2  0  0  0  0
  8  9  1  0  0  0  0
  9  2  1  0  0  0  0
  6 10  1  0  0  0  0
 11  9  1  6  0  0  0
 11 12  1  0  0  0  0
 12 13  1  0  0  0  0
 13 14  1  0  0  0  0
 14 15  1  0  0  0  0
 15 11  1  0  0  0  0
 13 16  1  1  0  0  0
 15 17  1  1  0  0  0
 14 18  1  6  0  0  0
 16 19  1  0  0  0  0
M  END
>  <cdx:fragmentId>
5

$$$$
