69550.cdx
  Mrv1902 05222410212D          

 17 18  0  0  0  0            999 V2000
    3.0581   -5.1289    0.0000 C   0  0  0  0  0  0  0  0  0  0  0  0
    3.8651   -4.9573    0.0000 C   0  0  0  0  0  0  0  0  0  0  0  0
    2.8032   -5.9135    0.0000 O   0  0  0  0  0  0  0  0  0  0  0  0
    2.5061   -4.5158    0.0000 O   0  0  0  0  0  0  0  0  0  0  0  0
    4.1200   -4.1727    0.0000 N   0  0  0  0  0  0  0  0  0  0  0  0
    3.6351   -3.5053    0.0000 C   0  0  0  0  0  0  0  0  0  0  0  0
    4.1200   -2.8378    0.0000 N   0  0  0  0  0  0  0  0  0  0  0  0
    4.9046   -3.0928    0.0000 C   0  0  0  0  0  0  0  0  0  0  0  0
    5.6191   -2.6803    0.0000 N   0  0  0  0  0  0  0  0  0  0  0  0
    6.3336   -3.0928    0.0000 C   0  0  0  0  0  0  0  0  0  0  0  0
    6.3336   -3.9178    0.0000 N   0  0  0  0  0  0  0  0  0  0  0  0
    5.6191   -4.3303    0.0000 C   0  0  0  0  0  0  0  0  0  0  0  0
    4.9046   -3.9178    0.0000 C   0  0  0  0  0  0  0  0  0  0  0  0
    5.6191   -5.1553    0.0000 O   0  0  0  0  0  0  0  0  0  0  0  0
    7.0480   -2.6803    0.0000 O   0  0  0  0  0  0  0  0  0  0  0  0
    5.6191   -1.8553    0.0000 C   0  0  0  0  0  0  0  0  0  0  0  0
    7.0480   -4.3303    0.0000 C   0  0  0  0  0  0  0  0  0  0  0  0
  1  2  1  0  0  0  0
  1  3  2  0  0  0  0
  1  4  1  0  0  0  0
  5  6  1  0  0  0  0
  6  7  2  0  0  0  0
  7  8  1  0  0  0  0
  8  9  1  0  0  0  0
  9 10  1  0  0  0  0
 10 11  1  0  0  0  0
 11 12  1  0  0  0  0
 12 13  1  0  0  0  0
  5 13  1  0  0  0  0
  8 13  2  0  0  0  0
 12 14  2  0  0  0  0
 10 15  2  0  0  0  0
  9 16  1  0  0  0  0
 11 17  1  0  0  0  0
  2  5  1  0  0  0  0
M  END
>  <cdx:groupId>
54

>  <cdx:fragmentId>
13

$$$$
