69568.cdx
  Mrv1902 05222410222D          

 28 29  0  0  0  0            999 V2000
    4.8130   -5.2525    0.0000 C   0  0  0  0  0  0  0  0  0  0  0  0
    4.8130   -6.0775    0.0000 C   0  0  0  0  0  0  0  0  0  0  0  0
    5.5275   -6.4900    0.0000 C   0  0  0  0  0  0  0  0  0  0  0  0
    6.2420   -6.0775    0.0000 C   0  0  0  0  0  0  0  0  0  0  0  0
    6.2420   -5.2525    0.0000 C   0  0  0  0  0  0  0  0  0  0  0  0
    5.5275   -4.8400    0.0000 C   0  0  0  0  0  0  0  0  0  0  0  0
    6.9564   -4.8400    0.0000 C   0  0  0  0  0  0  0  0  0  0  0  0
    7.6709   -5.2525    0.0000 C   0  0  0  0  0  0  0  0  0  0  0  0
    7.6709   -6.0775    0.0000 C   0  0  0  0  0  0  0  0  0  0  0  0
    8.3854   -6.4900    0.0000 C   0  0  0  0  0  0  0  0  0  0  0  0
    9.0999   -6.0775    0.0000 C   0  0  0  0  0  0  0  0  0  0  0  0
    9.0999   -5.2525    0.0000 C   0  0  0  0  0  0  0  0  0  0  0  0
    8.3854   -4.8400    0.0000 C   0  0  0  0  0  0  0  0  0  0  0  0
    5.5275   -4.0150    0.0000 O   0  0  0  0  0  0  0  0  0  0  0  0
    8.3854   -4.0150    0.0000 O   0  0  0  0  0  0  0  0  0  0  0  0
    6.9564   -4.0150    0.0000 C   0  0  2  0  0  0  0  0  0  0  0  0
    7.6709   -3.6025    0.0000 O   0  0  0  0  0  0  0  0  0  0  0  0
    6.2420   -3.6025    0.0000 C   0  0  0  0  0  0  0  0  0  0  0  0
    5.5275   -7.3150    0.0000 O   0  0  0  0  0  0  0  0  0  0  0  0
    4.0986   -6.4900    0.0000 O   0  0  0  0  0  0  0  0  0  0  0  0
    8.3854   -7.3150    0.0000 O   0  0  0  0  0  0  0  0  0  0  0  0
    9.8143   -6.4900    0.0000 O   0  0  0  0  0  0  0  0  0  0  0  0
    4.0986   -7.3150    0.0000 C   0  0  0  0  0  0  0  0  0  0  0  0
    6.2420   -7.7275    0.0000 C   0  0  0  0  0  0  0  0  0  0  0  0
    7.6709   -7.7275    0.0000 C   0  0  0  0  0  0  0  0  0  0  0  0
    9.8143   -7.3150    0.0000 C   0  0  0  0  0  0  0  0  0  0  0  0
    9.0999   -3.6025    0.0000 C   0  0  0  0  0  0  0  0  0  0  0  0
    4.8130   -3.6025    0.0000 C   0  0  0  0  0  0  0  0  0  0  0  0
  1  2  2  0  0  0  0
  2  3  1  0  0  0  0
  3  4  2  0  0  0  0
  4  5  1  0  0  0  0
  5  6  2  0  0  0  0
  6  1  1  0  0  0  0
  5  7  1  0  0  0  0
  7  8  1  0  0  0  0
  8  9  2  0  0  0  0
  9 10  1  0  0  0  0
 10 11  2  0  0  0  0
 11 12  1  0  0  0  0
 12 13  2  0  0  0  0
 13  8  1  0  0  0  0
  6 14  1  0  0  0  0
 13 15  1  0  0  0  0
  7 16  1  0  0  0  0
 16 17  1  1  0  0  0
 16 18  1  0  0  0  0
  3 19  1  0  0  0  0
  2 20  1  0  0  0  0
 10 21  1  0  0  0  0
 11 22  1  0  0  0  0
 20 23  1  0  0  0  0
 19 24  1  0  0  0  0
 21 25  1  0  0  0  0
 22 26  1  0  0  0  0
 15 27  1  0  0  0  0
 14 28  1  0  0  0  0
M  END
>  <cdx:fragmentId>
118220

$$$$
