695620.cdx
  Mrv1902 05222410272D          

 17 16  0  0  0  0            999 V2000
   11.8397   -8.6955    0.0000 C   0  0  0  0  0  0  0  0  0  0  0  0
   11.1252   -9.9330    0.0000 C   0  0  0  0  0  0  0  0  0  0  0  0
   11.1252   -9.1080    0.0000 C   0  0  0  0  0  0  0  0  0  0  0  0
   10.4108   -8.6955    0.0000 C   0  0  0  0  0  0  0  0  0  0  0  0
    9.6963   -9.1080    0.0000 C   0  0  0  0  0  0  0  0  0  0  0  0
    2.5516   -9.1080    0.0000 C   0  0  0  0  0  0  0  0  0  0  0  0
    8.9818   -8.6955    0.0000 O   0  0  0  0  0  0  0  0  0  0  0  0
    8.2674   -9.9330    0.0000 O   0  0  0  0  0  0  0  0  0  0  0  0
    3.2661   -7.8705    0.0000 C   0  0  0  0  0  0  0  0  0  0  0  0
    3.2661   -8.6955    0.0000 C   0  0  0  0  0  0  0  0  0  0  0  0
    3.9805   -9.1080    0.0000 C   0  0  0  0  0  0  0  0  0  0  0  0
    4.6950   -8.6955    0.0000 C   0  0  0  0  0  0  0  0  0  0  0  0
    5.4095   -9.1080    0.0000 C   0  0  0  0  0  0  0  0  0  0  0  0
    6.1239   -8.6955    0.0000 C   0  0  0  0  0  0  0  0  0  0  0  0
    6.8384   -9.1080    0.0000 C   0  0  0  0  0  0  0  0  0  0  0  0
    7.5529   -8.6955    0.0000 C   0  0  0  0  0  0  0  0  0  0  0  0
    8.2674   -9.1080    0.0000 C   0  0  0  0  0  0  0  0  0  0  0  0
  7  5  1  0  0  0  0
  3  1  1  0  0  0  0
  3  2  1  0  0  0  0
  4  3  1  0  0  0  0
  5  4  1  0  0  0  0
 10  6  1  0  0  0  0
 17  7  1  0  0  0  0
 17  8  2  0  0  0  0
 10  9  1  0  0  0  0
 11 10  1  0  0  0  0
 12 11  2  0  0  0  0
 13 12  1  0  0  0  0
 14 13  1  0  0  0  0
 15 14  1  0  0  0  0
 16 15  1  0  0  0  0
 17 16  1  0  0  0  0
M  END
>  <cdx:fragmentId>
5

$$$$
