69567.cdx
  Mrv1902 05222410242D          

 25 27  0  0  0  0            999 V2000
    3.4443   -6.2829    0.0000 O   0  0  0  0  0  0  0  0  0  0  0  0
    5.6270   -6.2987    0.0000 C   0  0  0  0  0  0  0  0  0  0  0  0
    4.8455   -6.5631    0.0000 C   0  0  0  0  0  0  0  0  0  0  0  0
    4.2258   -6.0185    0.0000 C   0  0  0  0  0  0  0  0  0  0  0  0
    4.3875   -5.2095    0.0000 C   0  0  0  0  0  0  0  0  0  0  0  0
    5.1690   -4.9451    0.0000 C   0  0  0  0  0  0  0  0  0  0  0  0
    5.7887   -5.4897    0.0000 C   0  0  0  0  0  0  0  0  0  0  0  0
    8.1174   -3.7544    0.0000 C   0  0  0  0  0  0  0  0  0  0  0  0
    6.3227   -3.7761    0.0000 C   0  0  0  0  0  0  0  0  0  0  0  0
    6.5702   -5.2253    0.0000 C   0  0  1  0  0  0  0  0  0  0  0  0
    6.8156   -4.4376    0.0000 C   0  0  2  0  0  0  0  0  0  0  0  0
    7.6406   -4.4276    0.0000 C   0  0  1  0  0  0  0  0  0  0  0  0
    7.9050   -5.2091    0.0000 C   0  0  2  0  0  0  0  0  0  0  0  0
    7.2435   -5.7021    0.0000 O   0  0  0  0  0  0  0  0  0  0  0  0
   11.0556   -6.1908    0.0000 O   0  0  0  0  0  0  0  0  0  0  0  0
    9.6616   -6.5048    0.0000 C   0  0  0  0  0  0  0  0  0  0  0  0
    8.8739   -6.2594    0.0000 C   0  0  0  0  0  0  0  0  0  0  0  0
    8.6926   -5.4545    0.0000 C   0  0  0  0  0  0  0  0  0  0  0  0
    9.2990   -4.8951    0.0000 C   0  0  0  0  0  0  0  0  0  0  0  0
   10.0867   -5.1405    0.0000 C   0  0  0  0  0  0  0  0  0  0  0  0
   10.2679   -5.9454    0.0000 C   0  0  0  0  0  0  0  0  0  0  0  0
    4.6838   -7.3721    0.0000 O   0  0  0  0  0  0  0  0  0  0  0  0
    9.8429   -7.3096    0.0000 O   0  0  0  0  0  0  0  0  0  0  0  0
   10.6305   -7.5550    0.0000 C   0  0  0  0  0  0  0  0  0  0  0  0
    3.9023   -7.6365    0.0000 C   0  0  0  0  0  0  0  0  0  0  0  0
 13 18  1  1  0  0  0
 10  7  1  1  0  0  0
  4  1  1  0  0  0  0
  7  2  2  0  0  0  0
  3  2  1  0  0  0  0
  4  3  2  0  0  0  0
  5  4  1  0  0  0  0
  6  5  2  0  0  0  0
  7  6  1  0  0  0  0
 12  8  1  6  0  0  0
 11  9  1  1  0  0  0
 14 10  1  0  0  0  0
 11 10  1  0  0  0  0
 12 11  1  0  0  0  0
 13 12  1  0  0  0  0
 14 13  1  0  0  0  0
 21 15  1  0  0  0  0
 21 16  2  0  0  0  0
 17 16  1  0  0  0  0
 18 17  2  0  0  0  0
 19 18  1  0  0  0  0
 20 19  2  0  0  0  0
 21 20  1  0  0  0  0
  3 22  1  0  0  0  0
 16 23  1  0  0  0  0
 23 24  1  0  0  0  0
 22 25  1  0  0  0  0
M  END
>  <cdx:fragmentId>
118117

$$$$
