69600.cdx
  Mrv1902 05222410242D          

 11 11  0  0  0  0            999 V2000
    3.3485   -1.7473    0.0000 C   0  0  0  0  0  0  0  0  0  0  0  0
    4.0630   -2.1598    0.0000 C   0  0  0  0  0  0  0  0  0  0  0  0
    4.0630   -2.9848    0.0000 C   0  0  0  0  0  0  0  0  0  0  0  0
    4.7774   -3.3973    0.0000 C   0  0  0  0  0  0  0  0  0  0  0  0
    5.4919   -2.9848    0.0000 C   0  0  0  0  0  0  0  0  0  0  0  0
    5.4919   -2.1598    0.0000 C   0  0  0  0  0  0  0  0  0  0  0  0
    4.7774   -1.7473    0.0000 C   0  0  0  0  0  0  0  0  0  0  0  0
    2.6340   -2.1598    0.0000 O   0  0  0  0  0  0  0  0  0  0  0  0
    6.2064   -3.3973    0.0000 O   0  0  0  0  0  0  0  0  0  0  0  0
    6.9209   -2.9848    0.0000 C   0  0  0  0  0  0  0  0  0  0  0  0
    3.3485   -3.3973    0.0000 O   0  0  0  0  0  0  0  0  0  0  0  0
  1  2  1  0  0  0  0
  2  3  1  0  0  0  0
  3  4  2  0  0  0  0
  4  5  1  0  0  0  0
  5  6  2  0  0  0  0
  6  7  1  0  0  0  0
  2  7  2  0  0  0  0
  1  8  2  0  0  0  0
  9 10  1  0  0  0  0
  5  9  1  0  0  0  0
  3 11  1  0  0  0  0
M  END
>  <cdx:groupId>
35

>  <cdx:fragmentId>
5

$$$$
