70696678.cdx
  Mrv1902 05222410192D          

 31 33  0  0  0  0            999 V2000
    7.7225  -15.0342    0.0000 C   0  0  1  0  0  0  0  0  0  0  0  0
    8.4370  -14.6217    0.0000 C   0  0  1  0  0  0  0  0  0  0  0  0
    8.4370  -13.7967    0.0000 C   0  0  1  0  0  0  0  0  0  0  0  0
    7.7225  -13.3842    0.0000 C   0  0  0  0  0  0  0  0  0  0  0  0
    7.0080  -13.7967    0.0000 C   0  0  0  0  0  0  0  0  0  0  0  0
    7.0080  -14.6217    0.0000 O   0  0  0  0  0  0  0  0  0  0  0  0
    9.2216  -13.5418    0.0000 C   0  0  1  0  0  0  0  0  0  0  0  0
    9.7065  -14.2092    0.0000 C   0  0  2  0  0  0  0  0  0  0  0  0
    9.2216  -14.8767    0.0000 C   0  0  1  0  0  0  0  0  0  0  0  0
    7.7225  -12.5592    0.0000 C   0  0  0  0  0  0  0  0  0  0  0  0
    8.4370  -12.1467    0.0000 O   0  0  0  0  0  0  0  0  0  0  0  0
    7.0080  -12.1467    0.0000 O   0  0  0  0  0  0  0  0  0  0  0  0
    7.7225  -15.8592    0.0000 O   0  0  0  0  0  0  0  0  0  0  0  0
    6.2936  -15.8592    0.0000 O   0  0  0  0  0  0  0  0  0  0  0  0
    7.0080  -16.2717    0.0000 C   0  0  2  0  0  0  0  0  0  0  0  0
    7.0080  -17.0967    0.0000 C   0  0  1  0  0  0  0  0  0  0  0  0
    6.2936  -17.5092    0.0000 C   0  0  2  0  0  0  0  0  0  0  0  0
    5.5791  -17.0967    0.0000 C   0  0  1  0  0  0  0  0  0  0  0  0
    5.5791  -16.2717    0.0000 C   0  0  1  0  0  0  0  0  0  0  0  0
    4.8646  -15.8592    0.0000 C   0  0  0  0  0  0  0  0  0  0  0  0
    4.1501  -16.2717    0.0000 O   0  0  0  0  0  0  0  0  0  0  0  0
    4.8646  -17.5092    0.0000 O   0  0  0  0  0  0  0  0  0  0  0  0
    6.2936  -18.3342    0.0000 O   0  0  0  0  0  0  0  0  0  0  0  0
    7.7225  -17.5092    0.0000 O   0  0  0  0  0  0  0  0  0  0  0  0
    9.0501  -15.6837    0.0000 C   0  0  0  0  0  0  0  0  0  0  0  0
    9.8347  -15.4287    0.0000 O   0  0  0  0  0  0  0  0  0  0  0  0
    9.4765  -12.7572    0.0000 O   0  0  0  0  0  0  0  0  0  0  0  0
   10.5315  -14.2092    0.0000 Cl  0  0  0  0  0  0  0  0  0  0  0  0
    8.5232  -12.9763    0.0000 H   0  0  0  0  0  0  0  0  0  0  0  0
    8.5232  -15.4422    0.0000 H   0  0  0  0  0  0  0  0  0  0  0  0
    7.0080  -11.3217    0.0000 C   0  0  0  0  0  0  0  0  0  0  0  0
  1  2  1  0  0  0  0
  2  3  1  0  0  0  0
  3  4  1  0  0  0  0
  4  5  2  0  0  0  0
  5  6  1  0  0  0  0
  1  6  1  0  0  0  0
  7  8  1  0  0  0  0
  8  9  1  0  0  0  0
  9  2  1  0  0  0  0
  7  3  1  0  0  0  0
 10 11  2  0  0  0  0
 10 12  1  0  0  0  0
  4 10  1  0  0  0  0
 14 15  1  0  0  0  0
 15 16  1  0  0  0  0
 16 17  1  0  0  0  0
 17 18  1  0  0  0  0
 18 19  1  0  0  0  0
 14 19  1  0  0  0  0
 20 21  1  0  0  0  0
 19 20  1  1  0  0  0
 18 22  1  6  0  0  0
 17 23  1  1  0  0  0
 16 24  1  6  0  0  0
 15 13  1  1  0  0  0
  1 13  1  6  0  0  0
  9 25  1  1  0  0  0
  9 26  1  6  0  0  0
  7 27  1  6  0  0  0
  8 28  1  1  0  0  0
  3 29  1  6  0  0  0
  2 30  1  6  0  0  0
 12 31  1  0  0  0  0
M  END
>  <cdx:groupId>
195727

>  <cdx:fragmentId>
195635

$$$$
