10069677.cdx
  Mrv1902 05222410272D          

 29 31  0  0  0  0            999 V2000
    4.7802  -15.2468    0.0000 O   0  0  0  0  0  0  0  0  0  0  0  0
    5.1927  -14.5324    0.0000 C   0  0  0  0  0  0  0  0  0  0  0  0
    5.9997  -14.7039    0.0000 C   0  0  1  0  0  0  0  0  0  0  0  0
    6.0859  -15.5244    0.0000 C   0  0  2  0  0  0  0  0  0  0  0  0
    5.3322  -15.8599    0.0000 C   0  0  0  0  0  0  0  0  0  0  0  0
    4.8571  -13.7787    0.0000 O   0  0  0  0  0  0  0  0  0  0  0  0
    6.8004  -15.9369    0.0000 C   0  0  0  0  0  0  0  0  0  0  0  0
    7.5149  -15.5244    0.0000 C   0  0  0  0  0  0  0  0  0  0  0  0
    7.5149  -14.6994    0.0000 C   0  0  0  0  0  0  0  0  0  0  0  0
    8.2293  -14.2869    0.0000 C   0  0  0  0  0  0  0  0  0  0  0  0
    8.9438  -14.6994    0.0000 C   0  0  0  0  0  0  0  0  0  0  0  0
    8.9438  -15.5244    0.0000 C   0  0  0  0  0  0  0  0  0  0  0  0
    8.2293  -15.9369    0.0000 C   0  0  0  0  0  0  0  0  0  0  0  0
    9.6583  -15.9369    0.0000 O   0  0  0  0  0  0  0  0  0  0  0  0
   10.3727  -15.5244    0.0000 C   0  0  0  0  0  0  0  0  0  0  0  0
    9.6583  -14.2869    0.0000 O   0  0  0  0  0  0  0  0  0  0  0  0
   10.3727  -14.6994    0.0000 C   0  0  0  0  0  0  0  0  0  0  0  0
    8.2293  -13.4619    0.0000 O   0  0  0  0  0  0  0  0  0  0  0  0
    7.5149  -13.0494    0.0000 C   0  0  0  0  0  0  0  0  0  0  0  0
    6.6128  -14.1519    0.0000 C   0  0  0  0  0  0  0  0  0  0  0  0
    6.4412  -13.3449    0.0000 C   0  0  0  0  0  0  0  0  0  0  0  0
    5.6566  -13.0900    0.0000 C   0  0  0  0  0  0  0  0  0  0  0  0
    5.4851  -12.2830    0.0000 C   0  0  0  0  0  0  0  0  0  0  0  0
    6.0982  -11.7309    0.0000 C   0  0  0  0  0  0  0  0  0  0  0  0
    6.8828  -11.9859    0.0000 C   0  0  0  0  0  0  0  0  0  0  0  0
    7.0543  -12.7929    0.0000 C   0  0  0  0  0  0  0  0  0  0  0  0
    4.7005  -12.0280    0.0000 O   0  0  0  0  0  0  0  0  0  0  0  0
    4.1171  -12.6114    0.0000 C   0  0  0  0  0  0  0  0  0  0  0  0
    5.9267  -10.9240    0.0000 O   0  0  0  0  0  0  0  0  0  0  0  0
  1  2  1  0  0  0  0
  2  3  1  0  0  0  0
  3  4  1  0  0  0  0
  4  5  1  0  0  0  0
  1  5  1  0  0  0  0
  2  6  2  0  0  0  0
  8  9  1  0  0  0  0
  9 10  2  0  0  0  0
 10 11  1  0  0  0  0
 11 12  2  0  0  0  0
 12 13  1  0  0  0  0
  8 13  2  0  0  0  0
 14 15  1  0  0  0  0
 12 14  1  0  0  0  0
 16 17  1  0  0  0  0
 11 16  1  0  0  0  0
 18 19  1  0  0  0  0
 10 18  1  0  0  0  0
  7  8  1  0  0  0  0
  4  7  1  1  0  0  0
 21 22  1  0  0  0  0
 22 23  2  0  0  0  0
 23 24  1  0  0  0  0
 24 25  2  0  0  0  0
 25 26  1  0  0  0  0
 21 26  2  0  0  0  0
 27 28  1  0  0  0  0
 23 27  1  0  0  0  0
 24 29  1  0  0  0  0
 20 21  1  0  0  0  0
  3 20  1  6  0  0  0
M  END
>  <cdx:groupId>
38869

>  <cdx:fragmentId>
38797

$$$$
