697378.cdx
  Mrv1902 05222410272D          

 15 16  0  0  0  0            999 V2000
    6.1239  -10.1942    0.0000 O   0  0  0  0  0  0  0  0  0  0  0  0
    4.6950   -7.7192    0.0000 O   0  0  0  0  0  0  0  0  0  0  0  0
    9.6963   -8.1317    0.0000 O   0  0  0  0  0  0  0  0  0  0  0  0
    8.9818   -7.7192    0.0000 C   0  0  0  0  0  0  0  0  0  0  0  0
    7.5529  -10.1942    0.0000 O   0  0  0  0  0  0  0  0  0  0  0  0
    7.5529   -7.7192    0.0000 O   0  0  0  0  0  0  0  0  0  0  0  0
    6.8384   -8.1317    0.0000 C   0  0  0  0  0  0  0  0  0  0  0  0
    6.1239   -7.7192    0.0000 C   0  0  0  0  0  0  0  0  0  0  0  0
    5.4095   -8.1317    0.0000 C   0  0  0  0  0  0  0  0  0  0  0  0
    5.4095   -8.9567    0.0000 C   0  0  0  0  0  0  0  0  0  0  0  0
    6.1239   -9.3692    0.0000 C   0  0  0  0  0  0  0  0  0  0  0  0
    6.8384   -8.9567    0.0000 C   0  0  0  0  0  0  0  0  0  0  0  0
    7.5529   -9.3692    0.0000 C   0  0  0  0  0  0  0  0  0  0  0  0
    8.2674   -8.9567    0.0000 C   0  0  0  0  0  0  0  0  0  0  0  0
    8.2674   -8.1317    0.0000 C   0  0  0  0  0  0  0  0  0  0  0  0
 11  1  1  0  0  0  0
  9  2  1  0  0  0  0
 15  4  1  0  0  0  0
  4  3  1  0  0  0  0
 13  5  2  0  0  0  0
 15  6  1  0  0  0  0
  7  6  1  0  0  0  0
 12  7  2  0  0  0  0
  8  7  1  0  0  0  0
  9  8  2  0  0  0  0
 10  9  1  0  0  0  0
 11 10  2  0  0  0  0
 12 11  1  0  0  0  0
 13 12  1  0  0  0  0
 14 13  1  0  0  0  0
 15 14  2  0  0  0  0
M  END
>  <cdx:fragmentId>
5

$$$$
