12697524.cdx
  Mrv1902 05222410242D          

 29 33  0  0  0  0            999 V2000
   18.4039   -8.3895    0.0000 O   0  0  0  0  0  0  0  0  0  0  0  0
   18.8888   -9.0569    0.0000 C   0  0  0  0  0  0  0  0  0  0  0  0
   18.4039   -9.7244    0.0000 O   0  0  0  0  0  0  0  0  0  0  0  0
   17.6192   -9.4694    0.0000 C   0  0  0  0  0  0  0  0  0  0  0  0
   17.6192   -8.6444    0.0000 C   0  0  0  0  0  0  0  0  0  0  0  0
   16.9048   -9.8819    0.0000 C   0  0  0  0  0  0  0  0  0  0  0  0
   16.1903   -9.4694    0.0000 C   0  0  0  0  0  0  0  0  0  0  0  0
   16.1903   -8.6444    0.0000 C   0  0  0  0  0  0  0  0  0  0  0  0
   16.9048   -8.2319    0.0000 C   0  0  0  0  0  0  0  0  0  0  0  0
   15.3896  -10.7024    0.0000 O   0  0  0  0  0  0  0  0  0  0  0  0
   14.5826  -10.8740    0.0000 C   0  0  0  0  0  0  0  0  0  0  0  0
   14.1701  -10.1595    0.0000 C   0  0  1  0  0  0  0  0  0  0  0  0
   14.7222   -9.5464    0.0000 C   0  0  1  0  0  0  0  0  0  0  0  0
   15.4758   -9.8819    0.0000 C   0  0  2  0  0  0  0  0  0  0  0  0
   13.5027   -9.0034    0.0000 O   0  0  0  0  0  0  0  0  0  0  0  0
   13.4164   -9.8239    0.0000 C   0  0  1  0  0  0  0  0  0  0  0  0
   14.3097   -8.8319    0.0000 C   0  0  0  0  0  0  0  0  0  0  0  0
   12.7020  -10.2364    0.0000 C   0  0  0  0  0  0  0  0  0  0  0  0
   11.9875   -9.8239    0.0000 C   0  0  0  0  0  0  0  0  0  0  0  0
   11.2730  -10.2364    0.0000 C   0  0  0  0  0  0  0  0  0  0  0  0
   11.2730  -11.0614    0.0000 C   0  0  0  0  0  0  0  0  0  0  0  0
   11.9875  -11.4739    0.0000 C   0  0  0  0  0  0  0  0  0  0  0  0
   12.7020  -11.0614    0.0000 C   0  0  0  0  0  0  0  0  0  0  0  0
   10.5586  -11.4739    0.0000 O   0  0  0  0  0  0  0  0  0  0  0  0
    9.8441  -11.0614    0.0000 C   0  0  0  0  0  0  0  0  0  0  0  0
   10.5586   -9.8239    0.0000 O   0  0  0  0  0  0  0  0  0  0  0  0
    9.8441  -10.2364    0.0000 C   0  0  0  0  0  0  0  0  0  0  0  0
   15.2742   -8.9333    0.0000 H   0  0  0  0  0  0  0  0  0  0  0  0
   13.6181  -10.7726    0.0000 H   0  0  0  0  0  0  0  0  0  0  0  0
  1  2  1  0  0  0  0
  2  3  1  0  0  0  0
  3  4  1  0  0  0  0
  4  5  1  0  0  0  0
  1  5  1  0  0  0  0
  6  7  1  0  0  0  0
  7  8  2  0  0  0  0
  8  9  1  0  0  0  0
  9  5  2  0  0  0  0
  6  4  2  0  0  0  0
 10 11  1  0  0  0  0
 11 12  1  0  0  0  0
 12 13  1  0  0  0  0
 13 14  1  0  0  0  0
 10 14  1  0  0  0  0
 15 16  1  0  0  0  0
 15 17  1  0  0  0  0
 16 12  1  0  0  0  0
 17 13  1  0  0  0  0
 18 19  1  0  0  0  0
 19 20  2  0  0  0  0
 20 21  1  0  0  0  0
 21 22  2  0  0  0  0
 22 23  1  0  0  0  0
 18 23  2  0  0  0  0
 24 25  1  0  0  0  0
 21 24  1  0  0  0  0
 26 27  1  0  0  0  0
 20 26  1  0  0  0  0
 16 18  1  6  0  0  0
 14  7  1  6  0  0  0
 13 28  1  1  0  0  0
 12 29  1  1  0  0  0
M  END
>  <cdx:groupId>
44316

>  <cdx:fragmentId>
44262

$$$$
