70697735.cdx
  Mrv1902 05222410232D          

 32 35  0  0  0  0            999 V2000
    8.6972  -13.2407    0.0000 C   0  0  0  0  0  0  0  0  0  0  0  0
    9.4117  -13.6532    0.0000 C   0  0  0  0  0  0  0  0  0  0  0  0
   10.1261  -13.2407    0.0000 C   0  0  0  0  0  0  0  0  0  0  0  0
   10.8406  -13.6532    0.0000 C   0  0  0  0  0  0  0  0  0  0  0  0
   10.8406  -14.4782    0.0000 C   0  0  0  0  0  0  0  0  0  0  0  0
   10.1261  -14.8907    0.0000 C   0  0  0  0  0  0  0  0  0  0  0  0
    9.4117  -14.4782    0.0000 C   0  0  0  0  0  0  0  0  0  0  0  0
    8.6972  -12.4157    0.0000 O   0  0  0  0  0  0  0  0  0  0  0  0
    7.9827  -13.6532    0.0000 O   0  0  0  0  0  0  0  0  0  0  0  0
   10.1261  -15.7157    0.0000 O   0  0  0  0  0  0  0  0  0  0  0  0
   11.5551  -14.8907    0.0000 O   0  0  0  0  0  0  0  0  0  0  0  0
   11.5551  -13.2407    0.0000 O   0  0  0  0  0  0  0  0  0  0  0  0
    5.8393  -15.7157    0.0000 C   0  0  2  0  0  0  0  0  0  0  0  0
    5.8393  -14.8907    0.0000 C   0  0  1  0  0  0  0  0  0  0  0  0
    6.5538  -14.4782    0.0000 C   0  0  0  0  0  0  0  0  0  0  0  0
    7.2682  -14.8907    0.0000 C   0  0  0  0  0  0  0  0  0  0  0  0
    7.9827  -14.4782    0.0000 C   0  0  0  0  0  0  0  0  0  0  0  0
    8.6972  -14.8907    0.0000 C   0  0  0  0  0  0  0  0  0  0  0  0
    8.6972  -15.7157    0.0000 C   0  0  0  0  0  0  0  0  0  0  0  0
    7.9827  -16.1282    0.0000 C   0  0  0  0  0  0  0  0  0  0  0  0
    7.2682  -15.7157    0.0000 C   0  0  0  0  0  0  0  0  0  0  0  0
    6.5538  -16.1282    0.0000 O   0  0  0  0  0  0  0  0  0  0  0  0
    9.4117  -16.1282    0.0000 O   0  0  0  0  0  0  0  0  0  0  0  0
    5.1248  -14.4782    0.0000 O   0  0  0  0  0  0  0  0  0  0  0  0
    5.1248  -16.1282    0.0000 C   0  0  0  0  0  0  0  0  0  0  0  0
    4.4104  -15.7157    0.0000 C   0  0  0  0  0  0  0  0  0  0  0  0
    3.6959  -16.1282    0.0000 C   0  0  0  0  0  0  0  0  0  0  0  0
    3.6959  -16.9532    0.0000 C   0  0  0  0  0  0  0  0  0  0  0  0
    4.4104  -17.3657    0.0000 C   0  0  0  0  0  0  0  0  0  0  0  0
    5.1248  -16.9532    0.0000 C   0  0  0  0  0  0  0  0  0  0  0  0
    2.9814  -17.3657    0.0000 O   0  0  0  0  0  0  0  0  0  0  0  0
    2.9814  -15.7157    0.0000 O   0  0  0  0  0  0  0  0  0  0  0  0
  1  2  1  0  0  0  0
  2  3  1  0  0  0  0
  3  4  2  0  0  0  0
  4  5  1  0  0  0  0
  5  6  2  0  0  0  0
  6  7  1  0  0  0  0
  2  7  2  0  0  0  0
  1  8  2  0  0  0  0
  1  9  1  0  0  0  0
  6 10  1  0  0  0  0
  5 11  1  0  0  0  0
  4 12  1  0  0  0  0
 13 14  1  0  0  0  0
 14 15  1  0  0  0  0
 15 16  1  0  0  0  0
 16 17  1  0  0  0  0
 17 18  2  0  0  0  0
 18 19  1  0  0  0  0
 19 20  2  0  0  0  0
 20 21  1  0  0  0  0
 16 21  2  0  0  0  0
 21 22  1  0  0  0  0
 13 22  1  0  0  0  0
 19 23  1  0  0  0  0
 14 24  1  6  0  0  0
 25 26  1  0  0  0  0
 26 27  2  0  0  0  0
 27 28  1  0  0  0  0
 28 29  2  0  0  0  0
 29 30  1  0  0  0  0
 25 30  2  0  0  0  0
 28 31  1  0  0  0  0
 27 32  1  0  0  0  0
 13 25  1  6  0  0  0
  9 17  1  0  0  0  0
M  END
>  <cdx:groupId>
196066

>  <cdx:fragmentId>
195994

$$$$
