70697841.cdx
  Mrv1902 05222410222D          

 22 23  0  0  0  0            999 V2000
    8.0220  -14.7822    0.0000 O   0  0  0  0  0  0  0  0  0  0  0  0
    8.5070  -14.1147    0.0000 C   0  0  1  0  0  0  0  0  0  0  0  0
    8.0220  -13.4473    0.0000 C   0  0  2  0  0  0  0  0  0  0  0  0
    7.2374  -13.7022    0.0000 C   0  0  0  0  0  0  0  0  0  0  0  0
    6.5229  -13.2897    0.0000 C   0  0  0  0  0  0  0  0  0  0  0  0
    5.8085  -13.7022    0.0000 C   0  0  0  0  0  0  0  0  0  0  0  0
    5.8085  -14.5272    0.0000 C   0  0  0  0  0  0  0  0  0  0  0  0
    6.5229  -14.9397    0.0000 C   0  0  0  0  0  0  0  0  0  0  0  0
    7.2374  -14.5272    0.0000 C   0  0  0  0  0  0  0  0  0  0  0  0
    5.0940  -13.2897    0.0000 C   0  0  0  0  0  0  0  0  0  0  0  0
    5.0940  -12.4647    0.0000 O   0  0  0  0  0  0  0  0  0  0  0  0
    4.3795  -13.7022    0.0000 O   0  0  0  0  0  0  0  0  0  0  0  0
    6.5229  -15.7647    0.0000 C   0  0  0  0  0  0  0  0  0  0  0  0
    5.8085  -16.1772    0.0000 C   0  0  0  0  0  0  0  0  0  0  0  0
    5.8085  -17.0022    0.0000 C   0  0  0  0  0  0  0  0  0  0  0  0
    6.5229  -17.4147    0.0000 C   0  0  0  0  0  0  0  0  0  0  0  0
    5.0940  -17.4147    0.0000 C   0  0  0  0  0  0  0  0  0  0  0  0
    9.7445  -14.8292    0.0000 C   0  0  0  0  0  0  0  0  0  0  0  0
    9.3320  -14.1147    0.0000 C   0  0  0  0  0  0  0  0  0  0  0  0
    9.7445  -13.4003    0.0000 C   0  0  0  0  0  0  0  0  0  0  0  0
   10.1570  -14.1147    0.0000 O   0  0  0  0  0  0  0  0  0  0  0  0
    8.2770  -12.6627    0.0000 O   0  0  0  0  0  0  0  0  0  0  0  0
  1  2  1  0  0  0  0
  2  3  1  0  0  0  0
  3  4  1  0  0  0  0
  4  5  1  0  0  0  0
  5  6  2  0  0  0  0
  6  7  1  0  0  0  0
  7  8  2  0  0  0  0
  8  9  1  0  0  0  0
  4  9  2  0  0  0  0
  1  9  1  0  0  0  0
 10 11  2  0  0  0  0
 10 12  1  0  0  0  0
  6 10  1  0  0  0  0
 13 14  1  0  0  0  0
 14 15  2  0  0  0  0
 15 16  1  0  0  0  0
 15 17  1  0  0  0  0
  8 13  1  0  0  0  0
 18 19  1  0  0  0  0
 19 20  1  0  0  0  0
 19 21  1  0  0  0  0
  2 19  1  1  0  0  0
  3 22  1  6  0  0  0
M  END
>  <cdx:groupId>
196141

>  <cdx:fragmentId>
196077

$$$$
