70698181.cdx
  Mrv1902 05222410202D          

 41 45  0  0  0  0            999 V2000
    8.7546   -8.7032    0.0000 C   0  0  0  0  0  0  0  0  0  0  0  0
    8.7546   -7.8782    0.0000 C   0  0  0  0  0  0  0  0  0  0  0  0
    8.0402   -7.4657    0.0000 C   0  0  0  0  0  0  0  0  0  0  0  0
    7.3257   -7.8782    0.0000 C   0  0  0  0  0  0  0  0  0  0  0  0
    6.6112   -7.4657    0.0000 C   0  0  0  0  0  0  0  0  0  0  0  0
    5.8968   -7.8782    0.0000 C   0  0  0  0  0  0  0  0  0  0  0  0
    5.8968   -8.7032    0.0000 C   0  0  0  0  0  0  0  0  0  0  0  0
    6.6112   -9.1157    0.0000 C   0  0  0  0  0  0  0  0  0  0  0  0
    7.3257   -8.7032    0.0000 C   0  0  0  0  0  0  0  0  0  0  0  0
    8.0402   -9.1157    0.0000 O   0  0  0  0  0  0  0  0  0  0  0  0
    8.0402   -6.6407    0.0000 O   0  0  0  0  0  0  0  0  0  0  0  0
    4.4678   -7.8782    0.0000 O   0  0  0  0  0  0  0  0  0  0  0  0
    5.1823   -7.4657    0.0000 C   0  0  1  0  0  0  0  0  0  0  0  0
    5.1823   -6.6407    0.0000 C   0  0  2  0  0  0  0  0  0  0  0  0
    4.4678   -6.2282    0.0000 C   0  0  1  0  0  0  0  0  0  0  0  0
    3.7533   -6.6407    0.0000 C   0  0  0  0  0  0  0  0  0  0  0  0
    3.7533   -7.4657    0.0000 C   0  0  2  0  0  0  0  0  0  0  0  0
    5.8968   -6.2282    0.0000 O   0  0  0  0  0  0  0  0  0  0  0  0
    5.1823   -4.9907    0.0000 O   0  0  0  0  0  0  0  0  0  0  0  0
    5.8968   -5.4032    0.0000 C   0  0  1  0  0  0  0  0  0  0  0  0
    6.6112   -4.9907    0.0000 C   0  0  2  0  0  0  0  0  0  0  0  0
    6.6112   -4.1657    0.0000 C   0  0  2  0  0  0  0  0  0  0  0  0
    5.8968   -3.7532    0.0000 C   0  0  1  0  0  0  0  0  0  0  0  0
    5.1823   -4.1657    0.0000 C   0  0  1  0  0  0  0  0  0  0  0  0
    4.4678   -3.7532    0.0000 C   0  0  0  0  0  0  0  0  0  0  0  0
    5.8968   -2.9282    0.0000 O   0  0  0  0  0  0  0  0  0  0  0  0
    7.3257   -3.7532    0.0000 O   0  0  0  0  0  0  0  0  0  0  0  0
    7.3257   -5.4032    0.0000 O   0  0  0  0  0  0  0  0  0  0  0  0
    3.0389   -6.2282    0.0000 O   0  0  0  0  0  0  0  0  0  0  0  0
    3.0389   -7.8782    0.0000 C   0  0  0  0  0  0  0  0  0  0  0  0
    4.4678   -5.4032    0.0000 O   0  0  0  0  0  0  0  0  0  0  0  0
    5.1823   -9.1157    0.0000 O   0  0  0  0  0  0  0  0  0  0  0  0
    6.6112   -6.6407    0.0000 O   0  0  0  0  0  0  0  0  0  0  0  0
    9.4691   -9.1157    0.0000 C   0  0  0  0  0  0  0  0  0  0  0  0
   10.1836   -8.7032    0.0000 C   0  0  0  0  0  0  0  0  0  0  0  0
   10.8981   -9.1157    0.0000 C   0  0  0  0  0  0  0  0  0  0  0  0
   10.8981   -9.9407    0.0000 C   0  0  0  0  0  0  0  0  0  0  0  0
   10.1836  -10.3532    0.0000 C   0  0  0  0  0  0  0  0  0  0  0  0
    9.4691   -9.9407    0.0000 C   0  0  0  0  0  0  0  0  0  0  0  0
   11.6125  -10.3532    0.0000 O   0  0  0  0  0  0  0  0  0  0  0  0
   11.6125   -8.7032    0.0000 O   0  0  0  0  0  0  0  0  0  0  0  0
  1  2  2  0  0  0  0
  2  3  1  0  0  0  0
  3  4  1  0  0  0  0
  4  5  1  0  0  0  0
  5  6  2  0  0  0  0
  6  7  1  0  0  0  0
  7  8  2  0  0  0  0
  8  9  1  0  0  0  0
  4  9  2  0  0  0  0
  9 10  1  0  0  0  0
  1 10  1  0  0  0  0
  3 11  2  0  0  0  0
 12 13  1  0  0  0  0
 13 14  1  0  0  0  0
 14 15  1  0  0  0  0
 15 16  1  0  0  0  0
 16 17  1  0  0  0  0
 12 17  1  0  0  0  0
 19 20  1  0  0  0  0
 20 21  1  0  0  0  0
 21 22  1  0  0  0  0
 22 23  1  0  0  0  0
 23 24  1  0  0  0  0
 19 24  1  0  0  0  0
 24 25  1  6  0  0  0
 23 26  1  1  0  0  0
 22 27  1  6  0  0  0
 21 28  1  6  0  0  0
 20 18  1  1  0  0  0
 14 18  1  6  0  0  0
 16 29  2  0  0  0  0
 17 30  1  1  0  0  0
 15 31  1  1  0  0  0
 13  6  1  1  0  0  0
  7 32  1  0  0  0  0
  5 33  1  0  0  0  0
 34 35  1  0  0  0  0
 35 36  2  0  0  0  0
 36 37  1  0  0  0  0
 37 38  2  0  0  0  0
 38 39  1  0  0  0  0
 34 39  2  0  0  0  0
 37 40  1  0  0  0  0
 36 41  1  0  0  0  0
  1 34  1  0  0  0  0
M  END
>  <cdx:groupId>
129

>  <cdx:fragmentId>
41

$$$$
