69821.cdx
  Mrv1902 05222410232D          

 12 11  0  0  0  0            999 V2000
    1.4948   -2.3921    0.0000 C   0  0  0  0  0  0  0  0  0  0  0  0
    2.2093   -2.8046    0.0000 C   0  0  0  0  0  0  0  0  0  0  0  0
    2.9237   -3.2171    0.0000 C   0  0  0  0  0  0  0  0  0  0  0  0
    3.6382   -2.8046    0.0000 C   0  0  0  0  0  0  0  0  0  0  0  0
    4.3527   -3.2171    0.0000 C   0  0  0  0  0  0  0  0  0  0  0  0
    5.0671   -2.8046    0.0000 C   0  0  0  0  0  0  0  0  0  0  0  0
    5.7816   -3.2171    0.0000 C   0  0  0  0  0  0  0  0  0  0  0  0
    6.4961   -2.8046    0.0000 C   0  0  0  0  0  0  0  0  0  0  0  0
    7.2106   -3.2171    0.0000 C   0  0  0  0  0  0  0  0  0  0  0  0
    7.9250   -2.8046    0.0000 C   0  0  0  0  0  0  0  0  0  0  0  0
    8.6395   -3.2171    0.0000 C   0  0  0  0  0  0  0  0  0  0  0  0
    9.3540   -2.8046    0.0000 C   0  0  0  0  0  0  0  0  0  0  0  0
  1  2  3  0  0  0  0
  2  3  1  0  0  0  0
  3  4  1  0  0  0  0
  4  5  1  0  0  0  0
  5  6  1  0  0  0  0
  6  7  1  0  0  0  0
  7  8  1  0  0  0  0
  8  9  1  0  0  0  0
  9 10  1  0  0  0  0
 10 11  1  0  0  0  0
 11 12  1  0  0  0  0
M  END
>  <cdx:groupId>
37

>  <cdx:fragmentId>
5

$$$$
