698388.cdx
  Mrv1902 05222410242D          

 34 36  0  0  0  0            999 V2000
    8.3182   -6.4935    0.0000 C   0  0  1  0  0  0  0  0  0  0  0  0
    6.0985  -10.3744    0.0000 O   0  0  0  0  0  0  0  0  0  0  0  0
    5.3840  -10.7869    0.0000 C   0  0  1  0  0  0  0  0  0  0  0  0
    5.3840  -11.6119    0.0000 C   0  0  1  0  0  0  0  0  0  0  0  0
    6.0985  -12.0244    0.0000 C   0  0  1  0  0  0  0  0  0  0  0  0
    6.8130  -11.6119    0.0000 C   0  0  2  0  0  0  0  0  0  0  0  0
    6.8130  -10.7869    0.0000 C   0  0  1  0  0  0  0  0  0  0  0  0
    4.6695  -10.3744    0.0000 C   0  0  0  0  0  0  0  0  0  0  0  0
    4.6695  -12.0244    0.0000 O   0  0  0  0  0  0  0  0  0  0  0  0
    6.0985  -12.8494    0.0000 O   0  0  0  0  0  0  0  0  0  0  0  0
    7.5274  -12.0244    0.0000 O   0  0  0  0  0  0  0  0  0  0  0  0
    7.5274  -10.3744    0.0000 O   0  0  0  0  0  0  0  0  0  0  0  0
    3.9551  -10.7869    0.0000 O   0  0  0  0  0  0  0  0  0  0  0  0
    7.5274   -9.5494    0.0000 C   0  0  0  0  0  0  0  0  0  0  0  0
    8.2419   -9.1369    0.0000 C   0  0  2  0  0  0  0  0  0  0  0  0
    8.9564   -9.5494    0.0000 C   0  0  2  0  0  0  0  0  0  0  0  0
    9.6708   -9.1369    0.0000 C   0  0  1  0  0  0  0  0  0  0  0  0
    9.6708   -8.3119    0.0000 C   0  0  2  0  0  0  0  0  0  0  0  0
    8.9564   -7.8994    0.0000 C   0  0  2  0  0  0  0  0  0  0  0  0
    8.2419   -8.3119    0.0000 O   0  0  0  0  0  0  0  0  0  0  0  0
    8.9564  -10.3744    0.0000 O   0  0  0  0  0  0  0  0  0  0  0  0
    8.9564   -7.0744    0.0000 O   0  0  0  0  0  0  0  0  0  0  0  0
   10.3853   -7.8994    0.0000 O   0  0  0  0  0  0  0  0  0  0  0  0
   10.3853   -9.5494    0.0000 O   0  0  0  0  0  0  0  0  0  0  0  0
    8.0463   -5.7146    0.0000 C   0  0  2  0  0  0  0  0  0  0  0  0
    7.2215   -5.7325    0.0000 C   0  0  1  0  0  0  0  0  0  0  0  0
    6.9836   -6.5225    0.0000 C   0  0  2  0  0  0  0  0  0  0  0  0
    7.6614   -6.9928    0.0000 O   0  0  0  0  0  0  0  0  0  0  0  0
    6.2047   -6.7944    0.0000 C   0  0  0  0  0  0  0  0  0  0  0  0
    6.7222   -5.0757    0.0000 O   0  0  0  0  0  0  0  0  0  0  0  0
    8.5166   -5.0368    0.0000 O   0  0  0  0  0  0  0  0  0  0  0  0
    9.1151   -6.2800    0.0000 C   0  0  0  0  0  0  0  0  0  0  0  0
    5.5798   -6.2558    0.0000 O   0  0  0  0  0  0  0  0  0  0  0  0
    9.3286   -5.4831    0.0000 O   0  0  0  0  0  0  0  0  0  0  0  0
  2  3  1  0  0  0  0
  3  4  1  0  0  0  0
  4  5  1  0  0  0  0
  5  6  1  0  0  0  0
  6  7  1  0  0  0  0
  2  7  1  0  0  0  0
  3  8  1  1  0  0  0
  4  9  1  1  0  0  0
  5 10  1  1  0  0  0
  6 11  1  6  0  0  0
  7 12  1  6  0  0  0
  8 13  1  0  0  0  0
 12 14  1  0  0  0  0
 15 14  1  1  0  0  0
 15 16  1  0  0  0  0
 16 17  1  0  0  0  0
 17 18  1  0  0  0  0
 18 19  1  0  0  0  0
 19 20  1  0  0  0  0
 20 15  1  0  0  0  0
 16 21  1  6  0  0  0
 19 22  1  6  0  0  0
 18 23  1  6  0  0  0
 17 24  1  1  0  0  0
  1 22  1  6  0  0  0
  1 25  1  0  0  0  0
 25 26  1  0  0  0  0
 26 27  1  0  0  0  0
 27 28  1  0  0  0  0
 28  1  1  0  0  0  0
 27 29  1  6  0  0  0
 26 30  1  1  0  0  0
 25 31  1  6  0  0  0
  1 32  1  0  0  0  0
 29 33  1  0  0  0  0
 32 34  1  0  0  0  0
M  END
>  <cdx:fragmentId>
43512

$$$$
