698331.cdx
  Mrv1902 05222410192D          

 16 16  0  0  0  0            999 V2000
    9.9916   -4.7655    0.0000 C   0  0  0  0  0  0  0  0  0  0  0  0
    9.9916   -5.5905    0.0000 C   0  0  0  0  0  0  0  0  0  0  0  0
    9.2772   -6.0030    0.0000 C   0  0  0  0  0  0  0  0  0  0  0  0
    8.5627   -5.5905    0.0000 C   0  0  0  0  0  0  0  0  0  0  0  0
    7.8482   -6.0030    0.0000 C   0  0  0  0  0  0  0  0  0  0  0  0
    7.1338   -5.5905    0.0000 C   0  0  0  0  0  0  0  0  0  0  0  0
    7.1338   -4.7655    0.0000 C   0  0  0  0  0  0  0  0  0  0  0  0
    8.5627   -4.7655    0.0000 O   0  0  0  0  0  0  0  0  0  0  0  0
   10.7061   -6.0030    0.0000 C   0  0  0  0  0  0  0  0  0  0  0  0
    4.2759   -7.2405    0.0000 C   0  0  0  0  0  0  0  0  0  0  0  0
    5.7048   -5.5905    0.0000 C   0  0  0  0  0  0  0  0  0  0  0  0
    4.9904   -6.0030    0.0000 C   0  0  0  0  0  0  0  0  0  0  0  0
    4.9904   -6.8280    0.0000 C   0  0  0  0  0  0  0  0  0  0  0  0
    5.7048   -7.2405    0.0000 C   0  0  0  0  0  0  0  0  0  0  0  0
    6.4193   -6.8280    0.0000 C   0  0  0  0  0  0  0  0  0  0  0  0
    6.4193   -6.0030    0.0000 C   0  0  0  0  0  0  0  0  0  0  0  0
 13 10  1  0  0  0  0
 16 11  1  0  0  0  0
 12 11  1  0  0  0  0
 13 12  1  0  0  0  0
 14 13  2  0  0  0  0
 15 14  1  0  0  0  0
 16 15  1  0  0  0  0
  1  2  1  0  0  0  0
  2  3  2  0  0  0  0
  3  4  1  0  0  0  0
  4  5  1  0  0  0  0
  5  6  1  0  0  0  0
  6  7  1  0  0  0  0
  4  8  2  0  0  0  0
  6 16  2  0  0  0  0
  2  9  1  0  0  0  0
M  END
>  <cdx:fragmentId>
5

$$$$
