69840.cdx
  Mrv1902 05222410272D          

  9  9  0  0  0  0            999 V2000
    4.1796   -3.1498    0.0000 C   0  0  0  0  0  0  0  0  0  0  0  0
    3.4651   -3.5623    0.0000 C   0  0  0  0  0  0  0  0  0  0  0  0
    2.7506   -3.1498    0.0000 C   0  0  0  0  0  0  0  0  0  0  0  0
    2.7506   -2.3248    0.0000 C   0  0  0  0  0  0  0  0  0  0  0  0
    3.4651   -1.9123    0.0000 C   0  0  0  0  0  0  0  0  0  0  0  0
    4.1796   -2.3248    0.0000 C   0  0  0  0  0  0  0  0  0  0  0  0
    4.8940   -3.5623    0.0000 O   0  0  0  0  0  0  0  0  0  0  0  0
    5.6085   -3.1498    0.0000 C   0  0  0  0  0  0  0  0  0  0  0  0
    6.3230   -3.5623    0.0000 C   0  0  0  0  0  0  0  0  0  0  0  0
  1  2  1  0  0  0  0
  2  3  2  0  0  0  0
  3  4  1  0  0  0  0
  4  5  2  0  0  0  0
  5  6  1  0  0  0  0
  1  6  2  0  0  0  0
  8  9  2  0  0  0  0
  7  8  1  0  0  0  0
  1  7  1  0  0  0  0
M  END
>  <cdx:groupId>
29

>  <cdx:fragmentId>
5

$$$$
