6985.cdx
  Mrv1902 05222410232D          

 11 11  0  0  0  0            999 V2000
    8.1901   -5.4516    0.0000 C   0  0  0  0  0  0  0  0  0  0  0  0
    8.9046   -5.8641    0.0000 C   0  0  0  0  0  0  0  0  0  0  0  0
    7.4756   -5.8641    0.0000 C   0  0  0  0  0  0  0  0  0  0  0  0
    7.4756   -6.6891    0.0000 C   0  0  0  0  0  0  0  0  0  0  0  0
    6.7611   -7.1016    0.0000 C   0  0  0  0  0  0  0  0  0  0  0  0
    6.0467   -6.6891    0.0000 C   0  0  0  0  0  0  0  0  0  0  0  0
    6.0467   -5.8641    0.0000 C   0  0  0  0  0  0  0  0  0  0  0  0
    6.7611   -5.4516    0.0000 C   0  0  0  0  0  0  0  0  0  0  0  0
    5.3322   -7.1016    0.0000 C   0  0  0  0  0  0  0  0  0  0  0  0
    8.1901   -7.1016    0.0000 C   0  0  0  0  0  0  0  0  0  0  0  0
    8.1901   -4.6266    0.0000 O   0  0  0  0  0  0  0  0  0  0  0  0
  1  2  1  0  0  0  0
  3  4  1  0  0  0  0
  4  5  2  0  0  0  0
  5  6  1  0  0  0  0
  6  7  2  0  0  0  0
  7  8  1  0  0  0  0
  3  8  2  0  0  0  0
  6  9  1  0  0  0  0
  4 10  1  0  0  0  0
  1  3  1  0  0  0  0
  1 11  2  0  0  0  0
M  END
>  <cdx:groupId>
35

>  <cdx:fragmentId>
9

$$$$
