69867.cdx
  Mrv1902 05222410202D          

 12 13  0  0  0  0            999 V2000
    7.8713   -7.8675    0.0000 N   0  0  0  0  0  0  0  0  0  0  0  0
    8.3562   -7.2001    0.0000 C   0  0  0  0  0  0  0  0  0  0  0  0
    7.8713   -6.5326    0.0000 C   0  0  0  0  0  0  0  0  0  0  0  0
    7.0867   -6.7876    0.0000 C   0  0  0  0  0  0  0  0  0  0  0  0
    6.3722   -6.3751    0.0000 C   0  0  0  0  0  0  0  0  0  0  0  0
    5.6577   -6.7876    0.0000 C   0  0  0  0  0  0  0  0  0  0  0  0
    5.6577   -7.6126    0.0000 C   0  0  0  0  0  0  0  0  0  0  0  0
    6.3722   -8.0251    0.0000 C   0  0  0  0  0  0  0  0  0  0  0  0
    7.0867   -7.6126    0.0000 C   0  0  0  0  0  0  0  0  0  0  0  0
    8.1262   -5.7480    0.0000 C   0  0  0  0  0  0  0  0  0  0  0  0
    7.5742   -5.1349    0.0000 O   0  0  0  0  0  0  0  0  0  0  0  0
    8.9332   -5.5765    0.0000 O   0  0  0  0  0  0  0  0  0  0  0  0
  1  2  1  0  0  0  0
  2  3  2  0  0  0  0
  3  4  1  0  0  0  0
  4  5  1  0  0  0  0
  5  6  2  0  0  0  0
  6  7  1  0  0  0  0
  7  8  2  0  0  0  0
  8  9  1  0  0  0  0
  1  9  1  0  0  0  0
  4  9  2  0  0  0  0
 10 11  2  0  0  0  0
 10 12  1  0  0  0  0
  3 10  1  0  0  0  0
M  END
>  <cdx:fragmentId>
5

$$$$
