6987.cdx
  Mrv1902 05222410222D          

 11 11  0  0  0  0            999 V2000
    5.3768   -5.1528    0.0000 C   0  0  0  0  0  0  0  0  0  0  0  0
    6.0888   -4.7361    0.0000 C   0  0  1  0  0  0  0  0  0  0  0  0
    6.8058   -5.1443    0.0000 C   0  0  0  0  0  0  0  0  0  0  0  0
    6.8107   -5.9693    0.0000 C   0  0  0  0  0  0  0  0  0  0  0  0
    6.0986   -6.3860    0.0000 C   0  0  1  0  0  0  0  0  0  0  0  0
    5.3817   -5.9778    0.0000 C   0  0  0  0  0  0  0  0  0  0  0  0
    4.6599   -4.7445    0.0000 O   0  0  0  0  0  0  0  0  0  0  0  0
    6.7960   -3.4943    0.0000 C   0  0  0  0  0  0  0  0  0  0  0  0
    6.0839   -3.9111    0.0000 C   0  0  0  0  0  0  0  0  0  0  0  0
    5.3670   -3.5028    0.0000 C   0  0  0  0  0  0  0  0  0  0  0  0
    6.1035   -7.2110    0.0000 C   0  0  0  0  0  0  0  0  0  0  0  0
  1  2  1  0  0  0  0
  2  3  1  0  0  0  0
  3  4  1  0  0  0  0
  4  5  1  0  0  0  0
  5  6  1  0  0  0  0
  1  6  1  0  0  0  0
  1  7  2  0  0  0  0
  8  9  1  0  0  0  0
  9 10  1  0  0  0  0
  2  9  1  6  0  0  0
  5 11  1  6  0  0  0
M  END
>  <cdx:fragmentId>
5

$$$$
