15698703.cdx
  Mrv1902 05222410282D          

 22 24  0  0  0  0            999 V2000
    7.6255  -15.0557    0.0000 C   0  0  0  0  0  0  0  0  0  0  0  0
    7.6255  -14.2307    0.0000 C   0  0  0  0  0  0  0  0  0  0  0  0
    6.9110  -13.8182    0.0000 C   0  0  0  0  0  0  0  0  0  0  0  0
    6.1965  -14.2307    0.0000 C   0  0  0  0  0  0  0  0  0  0  0  0
    5.4821  -13.8182    0.0000 C   0  0  0  0  0  0  0  0  0  0  0  0
    4.7676  -14.2307    0.0000 C   0  0  0  0  0  0  0  0  0  0  0  0
    4.7676  -15.0557    0.0000 C   0  0  0  0  0  0  0  0  0  0  0  0
    5.4821  -15.4682    0.0000 C   0  0  0  0  0  0  0  0  0  0  0  0
    6.1965  -15.0557    0.0000 C   0  0  0  0  0  0  0  0  0  0  0  0
    6.9110  -15.4682    0.0000 O   0  0  0  0  0  0  0  0  0  0  0  0
    6.9110  -12.9932    0.0000 O   0  0  0  0  0  0  0  0  0  0  0  0
    5.4821  -16.2932    0.0000 C   0  0  0  0  0  0  0  0  0  0  0  0
    4.0531  -13.8182    0.0000 C   0  0  0  0  0  0  0  0  0  0  0  0
    8.3400  -15.4682    0.0000 C   0  0  0  0  0  0  0  0  0  0  0  0
    9.0544  -15.0557    0.0000 C   0  0  0  0  0  0  0  0  0  0  0  0
    9.7689  -15.4682    0.0000 C   0  0  0  0  0  0  0  0  0  0  0  0
    9.7689  -16.2932    0.0000 C   0  0  0  0  0  0  0  0  0  0  0  0
    9.0544  -16.7057    0.0000 C   0  0  0  0  0  0  0  0  0  0  0  0
    8.3400  -16.2932    0.0000 C   0  0  0  0  0  0  0  0  0  0  0  0
   10.4834  -16.7057    0.0000 O   0  0  0  0  0  0  0  0  0  0  0  0
    4.0531  -15.4682    0.0000 O   0  0  0  0  0  0  0  0  0  0  0  0
    5.4821  -12.9932    0.0000 O   0  0  0  0  0  0  0  0  0  0  0  0
  1  2  2  0  0  0  0
  2  3  1  0  0  0  0
  3  4  1  0  0  0  0
  4  5  1  0  0  0  0
  5  6  2  0  0  0  0
  6  7  1  0  0  0  0
  7  8  2  0  0  0  0
  8  9  1  0  0  0  0
  4  9  2  0  0  0  0
  9 10  1  0  0  0  0
  1 10  1  0  0  0  0
  3 11  2  0  0  0  0
  8 12  1  0  0  0  0
  6 13  1  0  0  0  0
 14 15  1  0  0  0  0
 15 16  2  0  0  0  0
 16 17  1  0  0  0  0
 17 18  2  0  0  0  0
 18 19  1  0  0  0  0
 14 19  2  0  0  0  0
 17 20  1  0  0  0  0
  1 14  1  0  0  0  0
  7 21  1  0  0  0  0
  5 22  1  0  0  0  0
M  END
>  <cdx:groupId>
115862

>  <cdx:fragmentId>
115797

$$$$
