6988.cdx
  Mrv1902 05222410232D          

 11 11  0  0  0  0            999 V2000
    6.6167   -8.4563    0.0000 C   0  0  0  0  0  0  0  0  0  0  0  0
    7.3311   -8.0438    0.0000 C   0  0  0  0  0  0  0  0  0  0  0  0
    8.0456   -8.4562    0.0000 C   0  0  0  0  0  0  0  0  0  0  0  0
    8.0457   -9.2812    0.0000 C   0  0  0  0  0  0  0  0  0  0  0  0
    7.3313   -9.6938    0.0000 C   0  0  0  0  0  0  0  0  0  0  0  0
    6.6168   -9.2813    0.0000 C   0  0  0  0  0  0  0  0  0  0  0  0
    5.9022   -8.0439    0.0000 O   0  0  0  0  0  0  0  0  0  0  0  0
    8.0455   -6.8062    0.0000 C   0  0  0  0  0  0  0  0  0  0  0  0
    7.3310   -7.2188    0.0000 C   0  0  0  0  0  0  0  0  0  0  0  0
    6.6165   -6.8063    0.0000 C   0  0  0  0  0  0  0  0  0  0  0  0
    7.3314  -10.5188    0.0000 C   0  0  0  0  0  0  0  0  0  0  0  0
  1  2  1  0  0  0  0
  2  3  1  0  0  0  0
  3  4  1  0  0  0  0
  4  5  1  0  0  0  0
  5  6  1  0  0  0  0
  1  6  1  0  0  0  0
  1  7  2  0  0  0  0
  8  9  1  0  0  0  0
  9 10  1  0  0  0  0
  2  9  2  0  0  0  0
  5 11  1  0  0  0  0
M  END
>  <cdx:fragmentId>
5

$$$$
