6989.cdx
  Mrv1902 05222410232D          

 11 11  0  0  0  0            999 V2000
    3.0830   -3.3687    0.0000 C   0  0  0  0  0  0  0  0  0  0  0  0
    3.0830   -2.5437    0.0000 C   0  0  0  0  0  0  0  0  0  0  0  0
    3.7975   -2.1313    0.0000 C   0  0  0  0  0  0  0  0  0  0  0  0
    4.5120   -2.5437    0.0000 C   0  0  0  0  0  0  0  0  0  0  0  0
    4.5120   -3.3687    0.0000 C   0  0  0  0  0  0  0  0  0  0  0  0
    3.7975   -3.7813    0.0000 C   0  0  0  0  0  0  0  0  0  0  0  0
    2.3685   -3.7813    0.0000 O   0  0  0  0  0  0  0  0  0  0  0  0
    2.3685   -1.3063    0.0000 C   0  0  0  0  0  0  0  0  0  0  0  0
    2.3685   -2.1313    0.0000 C   0  0  0  0  0  0  0  0  0  0  0  0
    1.6541   -2.5437    0.0000 C   0  0  0  0  0  0  0  0  0  0  0  0
    5.2264   -3.7813    0.0000 C   0  0  0  0  0  0  0  0  0  0  0  0
  1  2  1  0  0  0  0
  2  3  2  0  0  0  0
  3  4  1  0  0  0  0
  4  5  2  0  0  0  0
  5  6  1  0  0  0  0
  1  6  2  0  0  0  0
  1  7  1  0  0  0  0
  8  9  1  0  0  0  0
  9 10  1  0  0  0  0
  2  9  1  0  0  0  0
  5 11  1  0  0  0  0
M  END
>  <cdx:groupId>
35

>  <cdx:fragmentId>
5

$$$$
