6990.cdx
  Mrv1902 05222410232D          

 11 11  0  0  0  0            999 V2000
    7.3183   -3.7097    0.0000 C   0  0  0  0  0  0  0  0  0  0  0  0
    8.0280   -3.2892    0.0000 C   0  0  0  0  0  0  0  0  0  0  0  0
    7.3276   -4.5347    0.0000 C   0  0  0  0  0  0  0  0  0  0  0  0
    8.0467   -4.9391    0.0000 C   0  0  0  0  0  0  0  0  0  0  0  0
    8.0560   -5.7640    0.0000 C   0  0  0  0  0  0  0  0  0  0  0  0
    7.3462   -6.1846    0.0000 C   0  0  0  0  0  0  0  0  0  0  0  0
    6.6272   -5.7802    0.0000 C   0  0  0  0  0  0  0  0  0  0  0  0
    6.6178   -4.9552    0.0000 C   0  0  0  0  0  0  0  0  0  0  0  0
    7.3556   -7.0095    0.0000 O   0  0  0  0  0  0  0  0  0  0  0  0
    8.7564   -4.5185    0.0000 O   0  0  0  0  0  0  0  0  0  0  0  0
    6.5992   -3.3053    0.0000 O   0  0  0  0  0  0  0  0  0  0  0  0
  1  2  1  0  0  0  0
  3  4  1  0  0  0  0
  4  5  2  0  0  0  0
  5  6  1  0  0  0  0
  6  7  2  0  0  0  0
  7  8  1  0  0  0  0
  3  8  2  0  0  0  0
  6  9  1  0  0  0  0
  4 10  1  0  0  0  0
  1  3  1  0  0  0  0
  1 11  2  0  0  0  0
M  END
>  <cdx:fragmentId>
9

$$$$
