91699505.cdx
  Mrv1902 05222410212D          

 16 17  0  0  0  0            999 V2000
    6.4207  -12.8832    0.0000 C   0  0  0  0  0  0  0  0  0  0  0  0
    6.4207  -13.7082    0.0000 C   0  0  0  0  0  0  0  0  0  0  0  0
    7.1351  -14.1207    0.0000 C   0  0  0  0  0  0  0  0  0  0  0  0
    5.7062  -12.4707    0.0000 O   0  0  0  0  0  0  0  0  0  0  0  0
    5.7062  -14.1207    0.0000 C   0  0  0  0  0  0  0  0  0  0  0  0
    8.6342  -16.4381    0.0000 C   0  0  0  0  0  0  0  0  0  0  0  0
    9.1192  -15.7707    0.0000 C   0  0  0  0  0  0  0  0  0  0  0  0
    8.6342  -15.1032    0.0000 C   0  0  0  0  0  0  0  0  0  0  0  0
    7.8496  -15.3582    0.0000 C   0  0  0  0  0  0  0  0  0  0  0  0
    7.1351  -14.9457    0.0000 C   0  0  0  0  0  0  0  0  0  0  0  0
    6.4207  -15.3582    0.0000 C   0  0  0  0  0  0  0  0  0  0  0  0
    6.4207  -16.1832    0.0000 C   0  0  0  0  0  0  0  0  0  0  0  0
    7.1351  -16.5957    0.0000 C   0  0  0  0  0  0  0  0  0  0  0  0
    7.8496  -16.1832    0.0000 C   0  0  0  0  0  0  0  0  0  0  0  0
    7.1351  -17.4207    0.0000 C   0  0  0  0  0  0  0  0  0  0  0  0
    8.8892  -14.3186    0.0000 C   0  0  0  0  0  0  0  0  0  0  0  0
  1  2  1  0  0  0  0
  2  3  2  0  0  0  0
  1  4  1  0  0  0  0
  2  5  1  0  0  0  0
  6  7  1  0  0  0  0
  7  8  1  0  0  0  0
  8  9  2  0  0  0  0
  9 10  1  0  0  0  0
 10 11  1  0  0  0  0
 11 12  1  0  0  0  0
 12 13  1  0  0  0  0
 13 14  1  0  0  0  0
  6 14  1  0  0  0  0
  9 14  1  0  0  0  0
 13 15  1  0  0  0  0
  8 16  1  0  0  0  0
  3 10  1  0  0  0  0
M  END
>  <cdx:groupId>
215509

>  <cdx:fragmentId>
215473

$$$$
