6998.cdx
  Mrv1902 05222410252D          

  9  9  0  0  0  0            999 V2000
    7.6335   -4.0079    0.0000 C   0  0  0  0  0  0  0  0  0  0  0  0
    6.9190   -3.5954    0.0000 C   0  0  0  0  0  0  0  0  0  0  0  0
    6.9190   -2.7704    0.0000 C   0  0  0  0  0  0  0  0  0  0  0  0
    6.2045   -2.3579    0.0000 C   0  0  0  0  0  0  0  0  0  0  0  0
    5.4901   -2.7704    0.0000 C   0  0  0  0  0  0  0  0  0  0  0  0
    5.4901   -3.5954    0.0000 C   0  0  0  0  0  0  0  0  0  0  0  0
    6.2045   -4.0079    0.0000 C   0  0  0  0  0  0  0  0  0  0  0  0
    8.3479   -3.5954    0.0000 O   0  0  0  0  0  0  0  0  0  0  0  0
    7.6335   -2.3579    0.0000 O   0  0  0  0  0  0  0  0  0  0  0  0
  1  2  1  0  0  0  0
  2  3  1  0  0  0  0
  3  4  2  0  0  0  0
  4  5  1  0  0  0  0
  5  6  2  0  0  0  0
  6  7  1  0  0  0  0
  2  7  2  0  0  0  0
  1  8  2  0  0  0  0
  3  9  1  0  0  0  0
M  END
>  <cdx:groupId>
29

>  <cdx:fragmentId>
5

$$$$
