699888.cdx
  Mrv1902 05222410232D          

 42 44  0  0  0  0            999 V2000
    7.4512  -13.1010    0.0000 C   0  0  1  0  0  0  0  0  0  0  0  0
    8.1657  -13.5135    0.0000 C   0  0  0  0  0  0  0  0  0  0  0  0
    8.1657  -14.3385    0.0000 C   0  0  2  0  0  0  0  0  0  0  0  0
    7.4512  -14.7510    0.0000 C   0  0  1  0  0  0  0  0  0  0  0  0
    6.7368  -14.3385    0.0000 C   0  0  1  0  0  0  0  0  0  0  0  0
    6.7368  -13.5135    0.0000 C   0  0  0  0  0  0  0  0  0  0  0  0
    7.4512  -12.2760    0.0000 C   0  0  0  0  0  0  0  0  0  0  0  0
    6.7368  -11.8635    0.0000 O   0  0  0  0  0  0  0  0  0  0  0  0
    8.1657  -11.8635    0.0000 O   0  0  0  0  0  0  0  0  0  0  0  0
    6.0223  -14.7510    0.0000 O   0  0  0  0  0  0  0  0  0  0  0  0
    5.3078  -14.3385    0.0000 C   0  0  0  0  0  0  0  0  0  0  0  0
    4.5934  -14.7510    0.0000 C   0  0  0  0  0  0  0  0  0  0  0  0
    3.8789  -14.3385    0.0000 C   0  0  0  0  0  0  0  0  0  0  0  0
    5.3078  -13.5135    0.0000 O   0  0  0  0  0  0  0  0  0  0  0  0
    3.1644  -14.7510    0.0000 C   0  0  0  0  0  0  0  0  0  0  0  0
    3.1644  -15.5760    0.0000 C   0  0  0  0  0  0  0  0  0  0  0  0
    2.4500  -15.9885    0.0000 C   0  0  0  0  0  0  0  0  0  0  0  0
    1.7355  -15.5760    0.0000 C   0  0  0  0  0  0  0  0  0  0  0  0
    1.7355  -14.7510    0.0000 C   0  0  0  0  0  0  0  0  0  0  0  0
    2.4500  -14.3385    0.0000 C   0  0  0  0  0  0  0  0  0  0  0  0
    1.0210  -14.3385    0.0000 O   0  0  0  0  0  0  0  0  0  0  0  0
    0.3065  -14.7510    0.0000 C   0  0  0  0  0  0  0  0  0  0  0  0
    2.4500  -16.8135    0.0000 O   0  0  0  0  0  0  0  0  0  0  0  0
    1.7355  -17.2260    0.0000 C   0  0  0  0  0  0  0  0  0  0  0  0
    1.0210  -15.9885    0.0000 O   0  0  0  0  0  0  0  0  0  0  0  0
    7.4512  -15.5760    0.0000 O   0  0  0  0  0  0  0  0  0  0  0  0
    8.1657  -12.6885    0.0000 O   0  0  0  0  0  0  0  0  0  0  0  0
    8.8802  -14.7510    0.0000 O   0  0  0  0  0  0  0  0  0  0  0  0
    9.5947  -14.3385    0.0000 C   0  0  0  0  0  0  0  0  0  0  0  0
   10.3091  -14.7510    0.0000 C   0  0  0  0  0  0  0  0  0  0  0  0
   11.0236  -14.3385    0.0000 C   0  0  0  0  0  0  0  0  0  0  0  0
    9.5947  -13.5135    0.0000 O   0  0  0  0  0  0  0  0  0  0  0  0
   11.7381  -14.7510    0.0000 C   0  0  0  0  0  0  0  0  0  0  0  0
   12.4525  -14.3385    0.0000 C   0  0  0  0  0  0  0  0  0  0  0  0
   13.1670  -14.7510    0.0000 C   0  0  0  0  0  0  0  0  0  0  0  0
   13.1670  -15.5760    0.0000 C   0  0  0  0  0  0  0  0  0  0  0  0
   12.4525  -15.9885    0.0000 C   0  0  0  0  0  0  0  0  0  0  0  0
   11.7381  -15.5760    0.0000 C   0  0  0  0  0  0  0  0  0  0  0  0
   13.8815  -15.9885    0.0000 O   0  0  0  0  0  0  0  0  0  0  0  0
   13.8815  -14.3385    0.0000 O   0  0  0  0  0  0  0  0  0  0  0  0
    8.1657  -11.0385    0.0000 C   0  0  0  0  0  0  0  0  0  0  0  0
    8.8802  -10.6260    0.0000 C   0  0  0  0  0  0  0  0  0  0  0  0
  1  2  1  0  0  0  0
  2  3  1  0  0  0  0
  3  4  1  0  0  0  0
  4  5  1  0  0  0  0
  5  6  1  0  0  0  0
  1  6  1  0  0  0  0
  7  8  2  0  0  0  0
  7  9  1  0  0  0  0
  1  7  1  0  0  0  0
 11 12  1  0  0  0  0
 12 13  2  0  0  0  0
 11 14  2  0  0  0  0
 15 16  1  0  0  0  0
 16 17  2  0  0  0  0
 17 18  1  0  0  0  0
 18 19  2  0  0  0  0
 19 20  1  0  0  0  0
 15 20  2  0  0  0  0
 21 22  1  0  0  0  0
 19 21  1  0  0  0  0
 23 24  1  0  0  0  0
 17 23  1  0  0  0  0
 18 25  1  0  0  0  0
 13 15  1  0  0  0  0
 10 11  1  0  0  0  0
  5 10  1  6  0  0  0
  4 26  1  6  0  0  0
  1 27  1  6  0  0  0
 29 30  1  0  0  0  0
 30 31  2  0  0  0  0
 29 32  2  0  0  0  0
 33 34  1  0  0  0  0
 34 35  2  0  0  0  0
 35 36  1  0  0  0  0
 36 37  2  0  0  0  0
 37 38  1  0  0  0  0
 33 38  2  0  0  0  0
 36 39  1  0  0  0  0
 35 40  1  0  0  0  0
 31 33  1  0  0  0  0
 28 29  1  0  0  0  0
  3 28  1  1  0  0  0
 41 42  1  0  0  0  0
  9 41  1  0  0  0  0
M  END
>  <cdx:fragmentId>
79499

$$$$
