70007.cdx
  Mrv1902 05222410222D          

 33 36  0  0  0  0            999 V2000
    6.4743   -7.7814    0.0000 C   0  0  0  0  0  0  0  0  0  0  0  0
    6.4743   -8.6064    0.0000 C   0  0  0  0  0  0  0  0  0  0  0  0
    7.1888   -9.0189    0.0000 C   0  0  0  0  0  0  0  0  0  0  0  0
    7.9032   -8.6064    0.0000 C   0  0  0  0  0  0  0  0  0  0  0  0
    7.9032   -7.7814    0.0000 C   0  0  0  0  0  0  0  0  0  0  0  0
    7.1888   -7.3689    0.0000 C   0  0  0  0  0  0  0  0  0  0  0  0
    8.6177   -9.0189    0.0000 C   0  0  0  0  0  0  0  0  0  0  0  0
    9.3322   -8.6064    0.0000 C   0  0  0  0  0  0  0  0  0  0  0  0
    9.3322   -7.7814    0.0000 C   0  0  2  0  0  0  0  0  0  0  0  0
    8.6177   -7.3689    0.0000 O   0  0  0  0  0  0  0  0  0  0  0  0
   10.7611   -7.7814    0.0000 C   0  0  0  0  0  0  0  0  0  0  0  0
   10.0467   -7.3689    0.0000 C   0  0  0  0  0  0  0  0  0  0  0  0
   11.4756   -7.3689    0.0000 C   0  0  0  0  0  0  0  0  0  0  0  0
   11.4756   -6.5439    0.0000 C   0  0  0  0  0  0  0  0  0  0  0  0
   10.7611   -6.1314    0.0000 C   0  0  0  0  0  0  0  0  0  0  0  0
   10.0467   -6.5439    0.0000 C   0  0  0  0  0  0  0  0  0  0  0  0
    8.6177   -9.8439    0.0000 O   0  0  0  0  0  0  0  0  0  0  0  0
    7.1888   -9.8439    0.0000 O   0  0  0  0  0  0  0  0  0  0  0  0
    5.7598   -7.3689    0.0000 O   0  0  0  0  0  0  0  0  0  0  0  0
    4.9349   -7.3587    0.0000 C   0  0  2  0  0  0  0  0  0  0  0  0
    4.5313   -6.6391    0.0000 O   0  0  0  0  0  0  0  0  0  0  0  0
    3.7064   -6.6289    0.0000 C   0  0  1  0  0  0  0  0  0  0  0  0
    3.2850   -7.3382    0.0000 C   0  0  2  0  0  0  0  0  0  0  0  0
    3.6886   -8.0577    0.0000 C   0  0  1  0  0  0  0  0  0  0  0  0
    4.5136   -8.0680    0.0000 C   0  0  1  0  0  0  0  0  0  0  0  0
    3.3027   -5.9094    0.0000 C   0  0  0  0  0  0  0  0  0  0  0  0
    3.2673   -8.7670    0.0000 O   0  0  0  0  0  0  0  0  0  0  0  0
    4.9172   -8.7875    0.0000 O   0  0  0  0  0  0  0  0  0  0  0  0
    2.4601   -7.3280    0.0000 O   0  0  0  0  0  0  0  0  0  0  0  0
    2.4778   -5.8991    0.0000 O   0  0  0  0  0  0  0  0  0  0  0  0
    3.7241   -5.2001    0.0000 O   0  0  0  0  0  0  0  0  0  0  0  0
    5.7598   -9.0189    0.0000 O   0  0  0  0  0  0  0  0  0  0  0  0
    5.7598   -9.8439    0.0000 C   0  0  0  0  0  0  0  0  0  0  0  0
  1  2  1  0  0  0  0
  2  3  2  0  0  0  0
  3  4  1  0  0  0  0
  4  5  2  0  0  0  0
  5  6  1  0  0  0  0
  6  1  2  0  0  0  0
  4  7  1  0  0  0  0
  7  8  1  0  0  0  0
  8  9  1  0  0  0  0
  9 10  1  0  0  0  0
 10  5  1  0  0  0  0
 11 12  2  0  0  0  0
  9 12  1  6  0  0  0
 11 13  1  0  0  0  0
 13 14  2  0  0  0  0
 14 15  1  0  0  0  0
 15 16  2  0  0  0  0
 16 12  1  0  0  0  0
  7 17  2  0  0  0  0
  3 18  1  0  0  0  0
  1 19  1  0  0  0  0
 20 19  1  1  0  0  0
 20 21  1  0  0  0  0
 21 22  1  0  0  0  0
 22 23  1  0  0  0  0
 23 24  1  0  0  0  0
 24 25  1  0  0  0  0
 25 20  1  0  0  0  0
 22 26  1  1  0  0  0
 24 27  1  1  0  0  0
 25 28  1  6  0  0  0
 23 29  1  6  0  0  0
 26 30  1  0  0  0  0
 26 31  2  0  0  0  0
  2 32  1  0  0  0  0
 32 33  1  0  0  0  0
M  END
>  <cdx:fragmentId>
5

$$$$
