70009.cdx
  Mrv1902 05222410232D          

 22 24  0  0  0  0            999 V2000
    5.0856   -8.3451    0.0000 C   0  0  0  0  0  0  0  0  0  0  0  0
    5.0856   -7.5201    0.0000 C   0  0  0  0  0  0  0  0  0  0  0  0
    5.8000   -7.1076    0.0000 C   0  0  0  0  0  0  0  0  0  0  0  0
    6.5145   -7.5201    0.0000 C   0  0  0  0  0  0  0  0  0  0  0  0
    6.5145   -8.3451    0.0000 C   0  0  0  0  0  0  0  0  0  0  0  0
    5.8000   -8.7576    0.0000 C   0  0  0  0  0  0  0  0  0  0  0  0
    7.2290   -7.1076    0.0000 O   0  0  0  0  0  0  0  0  0  0  0  0
    7.9434   -7.5201    0.0000 C   0  0  0  0  0  0  0  0  0  0  0  0
    7.9434   -8.3451    0.0000 C   0  0  0  0  0  0  0  0  0  0  0  0
    7.2290   -8.7576    0.0000 C   0  0  0  0  0  0  0  0  0  0  0  0
    8.6579   -7.1076    0.0000 C   0  0  0  0  0  0  0  0  0  0  0  0
    9.3724   -7.5201    0.0000 C   0  0  0  0  0  0  0  0  0  0  0  0
    8.6579   -6.2826    0.0000 C   0  0  0  0  0  0  0  0  0  0  0  0
    9.3724   -5.8701    0.0000 C   0  0  0  0  0  0  0  0  0  0  0  0
   10.0869   -6.2826    0.0000 C   0  0  0  0  0  0  0  0  0  0  0  0
   10.0869   -7.1076    0.0000 C   0  0  0  0  0  0  0  0  0  0  0  0
    7.2290   -9.5826    0.0000 O   0  0  0  0  0  0  0  0  0  0  0  0
    8.6579   -8.7576    0.0000 O   0  0  0  0  0  0  0  0  0  0  0  0
    5.8000   -9.5826    0.0000 O   0  0  0  0  0  0  0  0  0  0  0  0
    4.3711   -7.1076    0.0000 O   0  0  0  0  0  0  0  0  0  0  0  0
    7.9434   -5.8701    0.0000 O   0  0  0  0  0  0  0  0  0  0  0  0
    9.3724   -5.0451    0.0000 O   0  0  0  0  0  0  0  0  0  0  0  0
  1  2  2  0  0  0  0
  2  3  1  0  0  0  0
  3  4  2  0  0  0  0
  4  5  1  0  0  0  0
  5  6  2  0  0  0  0
  6  1  1  0  0  0  0
  4  7  1  0  0  0  0
  7  8  1  0  0  0  0
  8  9  1  0  0  0  0
  9 10  1  0  0  0  0
 10  5  1  0  0  0  0
  8 11  1  0  0  0  0
 11 12  1  0  0  0  0
 11 13  2  0  0  0  0
 13 14  1  0  0  0  0
 14 15  2  0  0  0  0
 15 16  1  0  0  0  0
 16 12  2  0  0  0  0
 10 17  2  0  0  0  0
  9 18  1  0  0  0  0
  6 19  1  0  0  0  0
  2 20  1  0  0  0  0
 13 21  1  0  0  0  0
 14 22  1  0  0  0  0
M  END
>  <cdx:fragmentId>
5

$$$$
