70004.cdx
  Mrv1902 05222410232D          

 12 13  0  0  0  0            999 V2000
    4.6490   -2.3493    0.0000 C   0  0  0  0  0  0  0  0  0  0  0  0
    5.3635   -2.7618    0.0000 C   0  0  0  0  0  0  0  0  0  0  0  0
    5.3635   -3.5868    0.0000 C   0  0  0  0  0  0  0  0  0  0  0  0
    4.6490   -3.9993    0.0000 C   0  0  0  0  0  0  0  0  0  0  0  0
    3.9346   -3.5868    0.0000 C   0  0  0  0  0  0  0  0  0  0  0  0
    3.2201   -3.9993    0.0000 C   0  0  0  0  0  0  0  0  0  0  0  0
    2.5056   -3.5868    0.0000 C   0  0  0  0  0  0  0  0  0  0  0  0
    2.5056   -2.7618    0.0000 C   0  0  0  0  0  0  0  0  0  0  0  0
    3.2201   -2.3493    0.0000 C   0  0  0  0  0  0  0  0  0  0  0  0
    3.9346   -2.7618    0.0000 C   0  0  0  0  0  0  0  0  0  0  0  0
    4.6490   -1.5243    0.0000 C   0  0  0  0  0  0  0  0  0  0  0  0
    5.3635   -1.1118    0.0000 C   0  0  0  0  0  0  0  0  0  0  0  0
  1  2  1  0  0  0  0
  2  3  2  0  0  0  0
  3  4  1  0  0  0  0
  4  5  2  0  0  0  0
  5  6  1  0  0  0  0
  6  7  2  0  0  0  0
  7  8  1  0  0  0  0
  8  9  2  0  0  0  0
  9 10  1  0  0  0  0
  1 10  2  0  0  0  0
  5 10  1  0  0  0  0
 11 12  2  0  0  0  0
  1 11  1  0  0  0  0
M  END
>  <cdx:groupId>
39

>  <cdx:fragmentId>
5

$$$$
