70006.cdx
  Mrv1902 05222410222D          

 32 35  0  0  0  0            999 V2000
    5.9793   -9.3489    0.0000 C   0  0  0  0  0  0  0  0  0  0  0  0
    5.9793  -10.1739    0.0000 C   0  0  0  0  0  0  0  0  0  0  0  0
    6.6938  -10.5864    0.0000 C   0  0  0  0  0  0  0  0  0  0  0  0
    7.4082  -10.1739    0.0000 C   0  0  0  0  0  0  0  0  0  0  0  0
    7.4082   -9.3489    0.0000 C   0  0  0  0  0  0  0  0  0  0  0  0
    6.6938   -8.9364    0.0000 C   0  0  0  0  0  0  0  0  0  0  0  0
    8.1227  -10.5864    0.0000 C   0  0  0  0  0  0  0  0  0  0  0  0
    8.8372  -10.1739    0.0000 C   0  0  0  0  0  0  0  0  0  0  0  0
    8.8372   -9.3489    0.0000 C   0  0  2  0  0  0  0  0  0  0  0  0
    8.1227   -8.9364    0.0000 O   0  0  0  0  0  0  0  0  0  0  0  0
   10.2661   -9.3489    0.0000 C   0  0  0  0  0  0  0  0  0  0  0  0
    9.5517   -8.9364    0.0000 C   0  0  0  0  0  0  0  0  0  0  0  0
   10.9806   -8.9364    0.0000 C   0  0  0  0  0  0  0  0  0  0  0  0
   10.9806   -8.1114    0.0000 C   0  0  0  0  0  0  0  0  0  0  0  0
   10.2661   -7.6989    0.0000 C   0  0  0  0  0  0  0  0  0  0  0  0
    9.5517   -8.1114    0.0000 C   0  0  0  0  0  0  0  0  0  0  0  0
    8.1227  -11.4114    0.0000 O   0  0  0  0  0  0  0  0  0  0  0  0
    6.6938  -11.4114    0.0000 O   0  0  0  0  0  0  0  0  0  0  0  0
    5.2648   -8.9364    0.0000 O   0  0  0  0  0  0  0  0  0  0  0  0
   10.2661   -6.8739    0.0000 O   0  0  0  0  0  0  0  0  0  0  0  0
   11.6951   -9.3489    0.0000 O   0  0  0  0  0  0  0  0  0  0  0  0
    4.5504   -9.3489    0.0000 C   0  0  2  0  0  0  0  0  0  0  0  0
    3.8359   -8.9364    0.0000 O   0  0  0  0  0  0  0  0  0  0  0  0
    3.1214   -9.3489    0.0000 C   0  0  1  0  0  0  0  0  0  0  0  0
    3.1214  -10.1739    0.0000 C   0  0  2  0  0  0  0  0  0  0  0  0
    3.8359  -10.5864    0.0000 C   0  0  1  0  0  0  0  0  0  0  0  0
    4.5504  -10.1739    0.0000 C   0  0  1  0  0  0  0  0  0  0  0  0
    2.4069   -8.9364    0.0000 C   0  0  0  0  0  0  0  0  0  0  0  0
    3.8359  -11.4114    0.0000 O   0  0  0  0  0  0  0  0  0  0  0  0
    5.2648  -10.5864    0.0000 O   0  0  0  0  0  0  0  0  0  0  0  0
    2.4069  -10.5864    0.0000 O   0  0  0  0  0  0  0  0  0  0  0  0
    1.6925   -9.3489    0.0000 O   0  0  0  0  0  0  0  0  0  0  0  0
  1  2  1  0  0  0  0
  2  3  2  0  0  0  0
  3  4  1  0  0  0  0
  4  5  2  0  0  0  0
  5  6  1  0  0  0  0
  6  1  2  0  0  0  0
  4  7  1  0  0  0  0
  7  8  1  0  0  0  0
  8  9  1  0  0  0  0
  9 10  1  0  0  0  0
 10  5  1  0  0  0  0
 11 12  2  0  0  0  0
  9 12  1  6  0  0  0
 11 13  1  0  0  0  0
 13 14  2  0  0  0  0
 14 15  1  0  0  0  0
 15 16  2  0  0  0  0
 16 12  1  0  0  0  0
  7 17  2  0  0  0  0
  3 18  1  0  0  0  0
  1 19  1  0  0  0  0
 15 20  1  0  0  0  0
 13 21  1  0  0  0  0
 22 19  1  1  0  0  0
 22 23  1  0  0  0  0
 23 24  1  0  0  0  0
 24 25  1  0  0  0  0
 25 26  1  0  0  0  0
 26 27  1  0  0  0  0
 27 22  1  0  0  0  0
 24 28  1  1  0  0  0
 26 29  1  1  0  0  0
 27 30  1  6  0  0  0
 25 31  1  6  0  0  0
 28 32  1  0  0  0  0
M  END
>  <cdx:fragmentId>
5

$$$$
