70003.cdx
  Mrv1902 05222410212D          

 43 47  0  0  0  0            999 V2000
    6.1306   -6.5714    0.0000 C   0  0  0  0  0  0  0  0  0  0  0  0
    6.1306   -7.3964    0.0000 C   0  0  0  0  0  0  0  0  0  0  0  0
    6.8450   -7.8089    0.0000 C   0  0  0  0  0  0  0  0  0  0  0  0
    7.5595   -7.3964    0.0000 C   0  0  0  0  0  0  0  0  0  0  0  0
    7.5595   -6.5714    0.0000 C   0  0  0  0  0  0  0  0  0  0  0  0
    6.8450   -6.1589    0.0000 C   0  0  0  0  0  0  0  0  0  0  0  0
    8.2740   -7.8089    0.0000 C   0  0  1  0  0  0  0  0  0  0  0  0
    8.9884   -7.3964    0.0000 N   0  0  0  0  0  0  0  0  0  0  0  0
    8.9884   -6.5714    0.0000 C   0  0  0  0  0  0  0  0  0  0  0  0
    8.2740   -6.1589    0.0000 C   0  0  0  0  0  0  0  0  0  0  0  0
   11.1319  -10.2839    0.0000 O   0  0  0  0  0  0  0  0  0  0  0  0
   11.1350  -11.1089    0.0000 C   0  0  2  0  0  0  0  0  0  0  0  0
   10.4222  -11.5242    0.0000 O   0  0  0  0  0  0  0  0  0  0  0  0
   10.4254  -12.3492    0.0000 C   0  0  1  0  0  0  0  0  0  0  0  0
   11.1414  -12.7589    0.0000 C   0  0  2  0  0  0  0  0  0  0  0  0
   11.8543  -12.3436    0.0000 C   0  0  1  0  0  0  0  0  0  0  0  0
   11.8511  -11.5186    0.0000 C   0  0  1  0  0  0  0  0  0  0  0  0
    5.4161   -6.1589    0.0000 O   0  0  0  0  0  0  0  0  0  0  0  0
    4.7016   -6.5714    0.0000 C   0  0  0  0  0  0  0  0  0  0  0  0
    5.4161   -7.8089    0.0000 O   0  0  0  0  0  0  0  0  0  0  0  0
    9.7125  -12.7644    0.0000 C   0  0  0  0  0  0  0  0  0  0  0  0
    4.5911   -7.8079    0.0000 C   0  0  2  0  0  0  0  0  0  0  0  0
    4.1794   -7.0930    0.0000 O   0  0  0  0  0  0  0  0  0  0  0  0
    3.3544   -7.0920    0.0000 C   0  0  1  0  0  0  0  0  0  0  0  0
    2.9411   -7.8060    0.0000 C   0  0  2  0  0  0  0  0  0  0  0  0
    3.3528   -8.5210    0.0000 C   0  0  1  0  0  0  0  0  0  0  0  0
    4.1777   -8.5219    0.0000 C   0  0  1  0  0  0  0  0  0  0  0  0
    2.9428   -6.3771    0.0000 C   0  0  0  0  0  0  0  0  0  0  0  0
    2.9394   -9.2350    0.0000 O   0  0  0  0  0  0  0  0  0  0  0  0
   12.5704  -12.7533    0.0000 O   0  0  0  0  0  0  0  0  0  0  0  0
   12.5640  -11.1034    0.0000 O   0  0  0  0  0  0  0  0  0  0  0  0
   11.1446  -13.5839    0.0000 O   0  0  0  0  0  0  0  0  0  0  0  0
    9.7157  -13.5894    0.0000 O   0  0  0  0  0  0  0  0  0  0  0  0
    8.9884   -9.8714    0.0000 C   0  0  0  0  0  0  0  0  0  0  0  0
    9.7029  -10.2839    0.0000 C   0  0  0  0  0  0  0  0  0  0  0  0
   10.4174   -9.8714    0.0000 C   0  0  0  0  0  0  0  0  0  0  0  0
    4.5894   -9.2369    0.0000 O   0  0  0  0  0  0  0  0  0  0  0  0
    2.1161   -7.8050    0.0000 O   0  0  0  0  0  0  0  0  0  0  0  0
   10.4174   -9.0464    0.0000 C   0  0  0  0  0  0  0  0  0  0  0  0
    8.2740   -8.6339    0.0000 C   0  0  0  0  0  0  0  0  0  0  0  0
    2.1178   -6.3761    0.0000 O   0  0  0  0  0  0  0  0  0  0  0  0
    8.9884   -9.0464    0.0000 C   0  0  0  0  0  0  0  0  0  0  0  0
    9.7029   -8.6339    0.0000 C   0  0  0  0  0  0  0  0  0  0  0  0
  1  2  2  0  0  0  0
  2  3  1  0  0  0  0
  3  4  2  0  0  0  0
  4  5  1  0  0  0  0
  5  6  2  0  0  0  0
  6  1  1  0  0  0  0
  4  7  1  0  0  0  0
  7  8  1  0  0  0  0
  8  9  1  0  0  0  0
  9 10  1  0  0  0  0
 10  5  1  0  0  0  0
 12 11  1  1  0  0  0
  7 40  1  1  0  0  0
 12 13  1  0  0  0  0
 13 14  1  0  0  0  0
 14 15  1  0  0  0  0
 15 16  1  0  0  0  0
 16 17  1  0  0  0  0
 17 12  1  0  0  0  0
  1 18  1  0  0  0  0
 18 19  1  0  0  0  0
  2 20  1  0  0  0  0
 14 21  1  1  0  0  0
 22 20  1  1  0  0  0
 22 23  1  0  0  0  0
 23 24  1  0  0  0  0
 24 25  1  0  0  0  0
 25 26  1  0  0  0  0
 26 27  1  0  0  0  0
 27 22  1  0  0  0  0
 24 28  1  1  0  0  0
 26 29  1  1  0  0  0
 16 30  1  1  0  0  0
 17 31  1  6  0  0  0
 15 32  1  6  0  0  0
 36 11  1  0  0  0  0
 21 33  1  0  0  0  0
 34 42  1  0  0  0  0
 35 34  2  0  0  0  0
 36 35  1  0  0  0  0
 39 36  2  0  0  0  0
 43 39  1  0  0  0  0
 27 37  1  6  0  0  0
 25 38  1  6  0  0  0
 42 40  1  0  0  0  0
 43 42  2  0  0  0  0
 28 41  1  0  0  0  0
M  END
>  <cdx:fragmentId>
5

$$$$
