70008.cdx
  Mrv1902 05222410232D          

 42 46  0  0  0  0            999 V2000
    7.1206   -8.2901    0.0000 C   0  0  0  0  0  0  0  0  0  0  0  0
    7.1206   -9.1151    0.0000 C   0  0  0  0  0  0  0  0  0  0  0  0
    7.8350   -9.5276    0.0000 C   0  0  0  0  0  0  0  0  0  0  0  0
    8.5495   -9.1151    0.0000 C   0  0  0  0  0  0  0  0  0  0  0  0
    8.5495   -8.2901    0.0000 C   0  0  0  0  0  0  0  0  0  0  0  0
    7.8350   -7.8776    0.0000 C   0  0  0  0  0  0  0  0  0  0  0  0
    9.2640   -9.5276    0.0000 C   0  0  0  0  0  0  0  0  0  0  0  0
    9.9784   -9.1151    0.0000 C   0  0  0  0  0  0  0  0  0  0  0  0
    9.9784   -8.2901    0.0000 C   0  0  2  0  0  0  0  0  0  0  0  0
    9.2640   -7.8776    0.0000 O   0  0  0  0  0  0  0  0  0  0  0  0
   11.4074   -8.2901    0.0000 C   0  0  0  0  0  0  0  0  0  0  0  0
   10.6929   -7.8776    0.0000 C   0  0  0  0  0  0  0  0  0  0  0  0
   12.1219   -7.8776    0.0000 C   0  0  0  0  0  0  0  0  0  0  0  0
   12.1219   -7.0526    0.0000 C   0  0  0  0  0  0  0  0  0  0  0  0
   11.4074   -6.6401    0.0000 C   0  0  0  0  0  0  0  0  0  0  0  0
   10.6929   -7.0526    0.0000 C   0  0  0  0  0  0  0  0  0  0  0  0
    9.2640  -10.3526    0.0000 O   0  0  0  0  0  0  0  0  0  0  0  0
    7.8350  -10.3526    0.0000 O   0  0  0  0  0  0  0  0  0  0  0  0
    6.4061   -7.8776    0.0000 O   0  0  0  0  0  0  0  0  0  0  0  0
   11.4074   -5.8151    0.0000 O   0  0  0  0  0  0  0  0  0  0  0  0
   12.8363   -8.2901    0.0000 O   0  0  0  0  0  0  0  0  0  0  0  0
    7.1033   -5.8242    0.0000 C   0  0  2  0  0  0  0  0  0  0  0  0
    6.3875   -5.4140    0.0000 C   0  0  2  0  0  0  0  0  0  0  0  0
    5.6743   -5.8288    0.0000 C   0  0  1  0  0  0  0  0  0  0  0  0
    5.6770   -6.6538    0.0000 C   0  0  2  0  0  0  0  0  0  0  0  0
    6.3928   -7.0640    0.0000 C   0  0  1  0  0  0  0  0  0  0  0  0
    7.1059   -6.6492    0.0000 O   0  0  0  0  0  0  0  0  0  0  0  0
    4.9639   -7.0686    0.0000 O   0  0  0  0  0  0  0  0  0  0  0  0
    7.8164   -5.4094    0.0000 C   0  0  0  0  0  0  0  0  0  0  0  0
    6.3848   -4.5890    0.0000 O   0  0  0  0  0  0  0  0  0  0  0  0
    4.9585   -5.4186    0.0000 O   0  0  0  0  0  0  0  0  0  0  0  0
    7.8137   -4.5844    0.0000 O   0  0  0  0  0  0  0  0  0  0  0  0
    4.2494   -6.6561    0.0000 C   0  0  2  0  0  0  0  0  0  0  0  0
    4.2494   -5.8311    0.0000 O   0  0  0  0  0  0  0  0  0  0  0  0
    3.5349   -5.4186    0.0000 C   0  0  2  0  0  0  0  0  0  0  0  0
    2.8204   -5.8311    0.0000 C   0  0  1  0  0  0  0  0  0  0  0  0
    2.8204   -6.6561    0.0000 C   0  0  2  0  0  0  0  0  0  0  0  0
    3.5349   -7.0686    0.0000 C   0  0  1  0  0  0  0  0  0  0  0  0
    2.1060   -5.4186    0.0000 O   0  0  0  0  0  0  0  0  0  0  0  0
    3.5349   -7.8936    0.0000 O   0  0  0  0  0  0  0  0  0  0  0  0
    2.1060   -7.0686    0.0000 O   0  0  0  0  0  0  0  0  0  0  0  0
    3.5349   -4.5936    0.0000 C   0  0  0  0  0  0  0  0  0  0  0  0
  1  2  2  0  0  0  0
  2  3  1  0  0  0  0
  3  4  2  0  0  0  0
  4  5  1  0  0  0  0
  5  6  2  0  0  0  0
  6  1  1  0  0  0  0
  4  7  1  0  0  0  0
  7  8  1  0  0  0  0
  8  9  1  0  0  0  0
  9 10  1  0  0  0  0
 10  5  1  0  0  0  0
 11 12  2  0  0  0  0
  9 12  1  6  0  0  0
 11 13  1  0  0  0  0
 13 14  2  0  0  0  0
 14 15  1  0  0  0  0
 15 16  2  0  0  0  0
 16 12  1  0  0  0  0
  7 17  2  0  0  0  0
  3 18  1  0  0  0  0
  1 19  1  0  0  0  0
 15 20  1  0  0  0  0
 13 21  1  0  0  0  0
 22 23  1  0  0  0  0
 23 24  1  0  0  0  0
 24 25  1  0  0  0  0
 25 26  1  0  0  0  0
 26 27  1  0  0  0  0
 27 22  1  0  0  0  0
 25 28  1  6  0  0  0
 22 29  1  1  0  0  0
 23 30  1  6  0  0  0
 24 31  1  1  0  0  0
 29 32  1  0  0  0  0
 26 19  1  1  0  0  0
 33 28  1  1  0  0  0
 33 34  1  0  0  0  0
 34 35  1  0  0  0  0
 35 36  1  0  0  0  0
 36 37  1  0  0  0  0
 37 38  1  0  0  0  0
 38 33  1  0  0  0  0
 36 39  1  1  0  0  0
 38 40  1  6  0  0  0
 37 41  1  6  0  0  0
 35 42  1  6  0  0  0
M  END
>  <cdx:fragmentId>
5

$$$$
