70010.cdx
  Mrv1902 05222410232D          

 33 36  0  0  0  0            999 V2000
    5.7043   -6.1589    0.0000 C   0  0  0  0  0  0  0  0  0  0  0  0
    5.7043   -6.9839    0.0000 C   0  0  0  0  0  0  0  0  0  0  0  0
    6.4188   -7.3964    0.0000 C   0  0  0  0  0  0  0  0  0  0  0  0
    7.1332   -6.9839    0.0000 C   0  0  0  0  0  0  0  0  0  0  0  0
    7.1332   -6.1589    0.0000 C   0  0  0  0  0  0  0  0  0  0  0  0
    6.4188   -5.7464    0.0000 C   0  0  0  0  0  0  0  0  0  0  0  0
    7.8477   -7.3964    0.0000 C   0  0  0  0  0  0  0  0  0  0  0  0
    8.5622   -6.9839    0.0000 C   0  0  0  0  0  0  0  0  0  0  0  0
    8.5622   -6.1589    0.0000 C   0  0  0  0  0  0  0  0  0  0  0  0
    7.8477   -5.7464    0.0000 O   0  0  0  0  0  0  0  0  0  0  0  0
    9.2767   -7.3964    0.0000 C   0  0  0  0  0  0  0  0  0  0  0  0
    9.9911   -6.9839    0.0000 C   0  0  0  0  0  0  0  0  0  0  0  0
    9.2767   -8.2214    0.0000 C   0  0  0  0  0  0  0  0  0  0  0  0
    9.9911   -8.6339    0.0000 C   0  0  0  0  0  0  0  0  0  0  0  0
   10.7056   -8.2214    0.0000 C   0  0  0  0  0  0  0  0  0  0  0  0
   10.7056   -7.3964    0.0000 C   0  0  0  0  0  0  0  0  0  0  0  0
    9.9911   -6.1589    0.0000 O   0  0  0  0  0  0  0  0  0  0  0  0
   11.4201   -8.6339    0.0000 O   0  0  0  0  0  0  0  0  0  0  0  0
   10.7056   -5.7464    0.0000 C   0  0  0  0  0  0  0  0  0  0  0  0
   11.4201   -9.4589    0.0000 C   0  0  0  0  0  0  0  0  0  0  0  0
   11.4201   -6.9839    0.0000 O   0  0  0  0  0  0  0  0  0  0  0  0
    4.9898   -7.3964    0.0000 O   0  0  0  0  0  0  0  0  0  0  0  0
    4.2754   -7.8089    0.0000 C   0  0  2  0  0  0  0  0  0  0  0  0
    3.5609   -7.3964    0.0000 O   0  0  0  0  0  0  0  0  0  0  0  0
    2.8464   -7.8089    0.0000 C   0  0  1  0  0  0  0  0  0  0  0  0
    2.8464   -8.6339    0.0000 C   0  0  2  0  0  0  0  0  0  0  0  0
    3.5609   -9.0464    0.0000 C   0  0  1  0  0  0  0  0  0  0  0  0
    4.2754   -8.6339    0.0000 C   0  0  1  0  0  0  0  0  0  0  0  0
    2.1319   -7.3964    0.0000 C   0  0  0  0  0  0  0  0  0  0  0  0
    3.5609   -9.8714    0.0000 O   0  0  0  0  0  0  0  0  0  0  0  0
    4.9898   -9.0464    0.0000 O   0  0  0  0  0  0  0  0  0  0  0  0
    2.1319   -9.0464    0.0000 O   0  0  0  0  0  0  0  0  0  0  0  0
    1.4175   -7.8089    0.0000 O   0  0  0  0  0  0  0  0  0  0  0  0
  1  2  2  0  0  0  0
  2  3  1  0  0  0  0
  3  4  2  0  0  0  0
  4  5  1  0  0  0  0
  5  6  2  0  0  0  0
  6  1  1  0  0  0  0
  4  7  1  0  0  0  0
  7  8  1  0  0  0  0
  8  9  1  0  0  0  0
  9 10  1  0  0  0  0
 10  5  1  0  0  0  0
  8 11  1  0  0  0  0
 11 12  1  0  0  0  0
 11 13  2  0  0  0  0
 13 14  1  0  0  0  0
 14 15  2  0  0  0  0
 15 16  1  0  0  0  0
 16 12  2  0  0  0  0
 12 17  1  0  0  0  0
 15 18  1  0  0  0  0
 17 19  1  0  0  0  0
 18 20  1  0  0  0  0
 16 21  1  0  0  0  0
  2 22  1  0  0  0  0
 23 22  1  1  0  0  0
 23 24  1  0  0  0  0
 24 25  1  0  0  0  0
 25 26  1  0  0  0  0
 26 27  1  0  0  0  0
 27 28  1  0  0  0  0
 28 23  1  0  0  0  0
 25 29  1  1  0  0  0
 27 30  1  1  0  0  0
 28 31  1  6  0  0  0
 26 32  1  6  0  0  0
 29 33  1  0  0  0  0
M  END
>  <cdx:fragmentId>
5

$$$$
