70014.cdx
  Mrv1902 05222410202D          

 41 46  0  0  0  0            999 V2000
    4.8105  -11.8330    0.0000 O   0  0  0  0  0  0  0  0  0  0  0  0
    2.6407   -8.9653    0.0000 O   0  0  0  0  0  0  0  0  0  0  0  0
    4.7878   -9.3581    0.0000 C   0  0  0  0  0  0  0  0  0  0  0  0
    4.0696   -8.9522    0.0000 C   0  0  0  0  0  0  0  0  0  0  0  0
    3.3590   -9.3712    0.0000 C   0  0  0  0  0  0  0  0  0  0  0  0
    3.3665  -10.1962    0.0000 C   0  0  0  0  0  0  0  0  0  0  0  0
    4.0847  -10.6021    0.0000 C   0  0  0  0  0  0  0  0  0  0  0  0
    4.7954  -10.1831    0.0000 C   0  0  0  0  0  0  0  0  0  0  0  0
    6.2243  -10.1700    0.0000 O   0  0  0  0  0  0  0  0  0  0  0  0
    5.5136  -10.5890    0.0000 C   0  0  0  0  0  0  0  0  0  0  0  0
    5.5212  -11.4140    0.0000 C   0  0  0  0  0  0  0  0  0  0  0  0
    6.2394  -11.8199    0.0000 C   0  0  0  0  0  0  0  0  0  0  0  0
    7.6759  -12.6318    0.0000 O   0  0  0  0  0  0  0  0  0  0  0  0
    9.0821  -10.1438    0.0000 O   0  0  0  0  0  0  0  0  0  0  0  0
    6.9425  -10.5759    0.0000 C   0  0  0  0  0  0  0  0  0  0  0  0
    6.9501  -11.4009    0.0000 C   0  0  0  0  0  0  0  0  0  0  0  0
    7.6683  -11.8068    0.0000 C   0  0  0  0  0  0  0  0  0  0  0  0
    8.3790  -11.3878    0.0000 C   0  0  0  0  0  0  0  0  0  0  0  0
    8.3714  -10.5628    0.0000 C   0  0  0  0  0  0  0  0  0  0  0  0
    7.6532  -10.1569    0.0000 C   0  0  0  0  0  0  0  0  0  0  0  0
   11.1865   -5.8893    0.0000 O   0  0  0  0  0  0  0  0  0  0  0  0
    9.7501   -5.0775    0.0000 O   0  0  0  0  0  0  0  0  0  0  0  0
    6.2195   -9.6475    0.0000 O   0  0  0  0  0  0  0  0  0  0  0  0
    4.7679   -7.1857    0.0000 O   0  0  0  0  0  0  0  0  0  0  0  0
   10.4834   -7.1333    0.0000 C   0  0  0  0  0  0  0  0  0  0  0  0
   10.4759   -6.3084    0.0000 C   0  0  0  0  0  0  0  0  0  0  0  0
    9.7577   -5.9024    0.0000 C   0  0  0  0  0  0  0  0  0  0  0  0
    9.0470   -6.3215    0.0000 C   0  0  0  0  0  0  0  0  0  0  0  0
    9.0697   -8.7964    0.0000 O   0  0  0  0  0  0  0  0  0  0  0  0
    9.7728   -7.5524    0.0000 C   0  0  0  0  0  0  0  0  0  0  0  0
    9.0546   -7.1464    0.0000 C   0  0  0  0  0  0  0  0  0  0  0  0
    7.6408   -8.8095    0.0000 C   0  0  0  0  0  0  0  0  0  0  0  0
    8.3515   -8.3904    0.0000 C   0  0  0  0  0  0  0  0  0  0  0  0
    8.3439   -7.5655    0.0000 C   0  0  0  0  0  0  0  0  0  0  0  0
    7.6257   -7.1595    0.0000 O   0  0  0  0  0  0  0  0  0  0  0  0
    6.2119   -8.8226    0.0000 C   0  0  0  0  0  0  0  0  0  0  0  0
    6.9226   -8.4035    0.0000 C   0  0  0  0  0  0  0  0  0  0  0  0
    6.9150   -7.5786    0.0000 C   0  0  0  0  0  0  0  0  0  0  0  0
    6.1968   -7.1726    0.0000 C   0  0  0  0  0  0  0  0  0  0  0  0
    5.4861   -7.5917    0.0000 C   0  0  0  0  0  0  0  0  0  0  0  0
    5.4937   -8.4166    0.0000 C   0  0  0  0  0  0  0  0  0  0  0  0
 11  1  1  0  0  0  0
  5  2  1  0  0  0  0
  3  8  1  0  0  0  0
  4  3  2  0  0  0  0
  5  4  1  0  0  0  0
  6  5  2  0  0  0  0
  7  6  1  0  0  0  0
  8  7  2  0  0  0  0
 10  8  1  0  0  0  0
  9 15  1  0  0  0  0
 10  9  1  0  0  0  0
 11 10  1  0  0  0  0
 12 11  1  0  0  0  0
 16 12  1  0  0  0  0
 17 13  1  0  0  0  0
 19 14  1  0  0  0  0
 15 20  1  0  0  0  0
 16 15  2  0  0  0  0
 17 16  1  0  0  0  0
 18 17  2  0  0  0  0
 19 18  1  0  0  0  0
 20 19  2  0  0  0  0
 32 20  1  0  0  0  0
 26 21  1  0  0  0  0
 27 22  1  0  0  0  0
 36 23  1  0  0  0  0
 40 24  1  0  0  0  0
 25 30  2  0  0  0  0
 26 25  1  0  0  0  0
 27 26  2  0  0  0  0
 28 27  1  0  0  0  0
 31 28  2  0  0  0  0
 29 33  1  0  0  0  0
 31 30  1  0  0  0  0
 34 31  1  0  0  0  0
 32 37  1  0  0  0  0
 33 32  1  0  0  0  0
 34 33  1  0  0  0  0
 35 34  1  0  0  0  0
 38 35  1  0  0  0  0
 36 41  1  0  0  0  0
 37 36  2  0  0  0  0
 38 37  1  0  0  0  0
 39 38  2  0  0  0  0
 40 39  1  0  0  0  0
 41 40  2  0  0  0  0
M  END
>  <cdx:fragmentId>
5

$$$$
