70015.cdx
  Mrv1902 05222410212D          

 38 42  0  0  0  0            999 V2000
    4.7418   -8.3864    0.0000 C   0  0  0  0  0  0  0  0  0  0  0  0
    4.7418   -9.2114    0.0000 C   0  0  0  0  0  0  0  0  0  0  0  0
    5.4563   -9.6239    0.0000 C   0  0  0  0  0  0  0  0  0  0  0  0
    6.1707   -9.2114    0.0000 C   0  0  0  0  0  0  0  0  0  0  0  0
    6.1707   -8.3864    0.0000 C   0  0  0  0  0  0  0  0  0  0  0  0
    5.4563   -7.9739    0.0000 C   0  0  0  0  0  0  0  0  0  0  0  0
    6.8852   -9.6239    0.0000 C   0  0  0  0  0  0  0  0  0  0  0  0
    7.5997   -9.2114    0.0000 C   0  0  0  0  0  0  0  0  0  0  0  0
    7.5997   -8.3864    0.0000 C   0  0  0  0  0  0  0  0  0  0  0  0
    6.8852   -7.9739    0.0000 O   0  0  0  0  0  0  0  0  0  0  0  0
    8.3142   -9.6239    0.0000 O   0  0  0  0  0  0  0  0  0  0  0  0
    9.0286   -8.3864    0.0000 C   0  0  0  0  0  0  0  0  0  0  0  0
    8.3142   -7.9739    0.0000 C   0  0  0  0  0  0  0  0  0  0  0  0
    9.7431   -7.9739    0.0000 C   0  0  0  0  0  0  0  0  0  0  0  0
    9.7431   -7.1489    0.0000 C   0  0  0  0  0  0  0  0  0  0  0  0
    9.0286   -6.7364    0.0000 C   0  0  0  0  0  0  0  0  0  0  0  0
    8.3142   -7.1489    0.0000 C   0  0  0  0  0  0  0  0  0  0  0  0
    3.9572   -8.1315    0.0000 O   0  0  0  0  0  0  0  0  0  0  0  0
    3.4723   -8.7989    0.0000 C   0  0  0  0  0  0  0  0  0  0  0  0
    3.9572   -9.4663    0.0000 O   0  0  0  0  0  0  0  0  0  0  0  0
   10.4576   -6.7364    0.0000 O   0  0  0  0  0  0  0  0  0  0  0  0
    6.8852  -10.4489    0.0000 O   0  0  0  0  0  0  0  0  0  0  0  0
    5.4563  -10.4489    0.0000 O   0  0  0  0  0  0  0  0  0  0  0  0
    8.3142  -10.4489    0.0000 C   0  0  2  0  0  0  0  0  0  0  0  0
    7.5997  -10.8614    0.0000 O   0  0  0  0  0  0  0  0  0  0  0  0
    7.5997  -11.6864    0.0000 C   0  0  1  0  0  0  0  0  0  0  0  0
    8.3142  -12.0989    0.0000 C   0  0  2  0  0  0  0  0  0  0  0  0
    9.0286  -11.6864    0.0000 C   0  0  1  0  0  0  0  0  0  0  0  0
    9.0286  -10.8614    0.0000 C   0  0  1  0  0  0  0  0  0  0  0  0
    6.8852  -12.0989    0.0000 C   0  0  0  0  0  0  0  0  0  0  0  0
    9.7431  -12.0989    0.0000 O   0  0  0  0  0  0  0  0  0  0  0  0
    8.3142  -12.9239    0.0000 O   0  0  0  0  0  0  0  0  0  0  0  0
    9.7431  -10.4489    0.0000 O   0  0  0  0  0  0  0  0  0  0  0  0
    6.1707  -11.6864    0.0000 O   0  0  0  0  0  0  0  0  0  0  0  0
    6.8852  -12.9239    0.0000 O   0  0  0  0  0  0  0  0  0  0  0  0
   10.4576  -10.8614    0.0000 C   0  0  0  0  0  0  0  0  0  0  0  0
   11.1720  -10.4489    0.0000 C   0  0  0  0  0  0  0  0  0  0  0  0
   10.4576  -11.6864    0.0000 O   0  0  0  0  0  0  0  0  0  0  0  0
  1  2  2  0  0  0  0
  2  3  1  0  0  0  0
  3  4  2  0  0  0  0
  4  5  1  0  0  0  0
  5  6  2  0  0  0  0
  6  1  1  0  0  0  0
  4  7  1  0  0  0  0
  7  8  1  0  0  0  0
  8  9  2  0  0  0  0
  9 10  1  0  0  0  0
 10  5  1  0  0  0  0
  8 11  1  0  0  0  0
 12 13  1  0  0  0  0
 13  9  1  0  0  0  0
 12 14  2  0  0  0  0
 14 15  1  0  0  0  0
 15 16  2  0  0  0  0
 16 17  1  0  0  0  0
 17 13  2  0  0  0  0
  1 18  1  0  0  0  0
 18 19  1  0  0  0  0
 19 20  1  0  0  0  0
 20  2  1  0  0  0  0
 15 21  1  0  0  0  0
  7 22  2  0  0  0  0
  3 23  1  0  0  0  0
 24 11  1  1  0  0  0
 24 25  1  0  0  0  0
 25 26  1  0  0  0  0
 26 27  1  0  0  0  0
 27 28  1  0  0  0  0
 28 29  1  0  0  0  0
 29 24  1  0  0  0  0
 26 30  1  1  0  0  0
 28 31  1  1  0  0  0
 27 32  1  6  0  0  0
 29 33  1  6  0  0  0
 30 34  2  0  0  0  0
 30 35  1  0  0  0  0
 33 36  1  0  0  0  0
 36 37  1  0  0  0  0
 36 38  2  0  0  0  0
M  END
>  <cdx:fragmentId>
5

$$$$
