70027.cdx
  Mrv1902 05222410252D          

 34 37  0  0  0  0            999 V2000
    6.1031   -7.1351    0.0000 C   0  0  0  0  0  0  0  0  0  0  0  0
    6.1031   -7.9601    0.0000 C   0  0  0  0  0  0  0  0  0  0  0  0
    6.8175   -8.3726    0.0000 C   0  0  0  0  0  0  0  0  0  0  0  0
    7.5320   -7.9601    0.0000 C   0  0  0  0  0  0  0  0  0  0  0  0
    7.5320   -7.1351    0.0000 C   0  0  0  0  0  0  0  0  0  0  0  0
    6.8175   -6.7226    0.0000 C   0  0  0  0  0  0  0  0  0  0  0  0
    8.2465   -8.3726    0.0000 C   0  0  0  0  0  0  0  0  0  0  0  0
    8.9609   -7.9601    0.0000 C   0  0  0  0  0  0  0  0  0  0  0  0
    8.9609   -7.1351    0.0000 C   0  0  0  0  0  0  0  0  0  0  0  0
    8.2465   -6.7226    0.0000 O   0  0  0  0  0  0  0  0  0  0  0  0
    9.6754   -8.3726    0.0000 C   0  0  0  0  0  0  0  0  0  0  0  0
   10.3899   -7.9601    0.0000 C   0  0  0  0  0  0  0  0  0  0  0  0
    9.6754   -9.1976    0.0000 C   0  0  0  0  0  0  0  0  0  0  0  0
   10.3899   -9.6101    0.0000 C   0  0  0  0  0  0  0  0  0  0  0  0
   11.1044   -9.1976    0.0000 C   0  0  0  0  0  0  0  0  0  0  0  0
   11.1044   -8.3726    0.0000 C   0  0  0  0  0  0  0  0  0  0  0  0
   10.3899   -7.1351    0.0000 O   0  0  0  0  0  0  0  0  0  0  0  0
   11.8188   -7.9601    0.0000 O   0  0  0  0  0  0  0  0  0  0  0  0
    5.3886   -6.7226    0.0000 O   0  0  0  0  0  0  0  0  0  0  0  0
   11.8188   -9.6101    0.0000 O   0  0  0  0  0  0  0  0  0  0  0  0
   11.8188  -10.4351    0.0000 C   0  0  0  0  0  0  0  0  0  0  0  0
   12.5333   -8.3726    0.0000 C   0  0  0  0  0  0  0  0  0  0  0  0
    4.6741   -7.1351    0.0000 C   0  0  2  0  0  0  0  0  0  0  0  0
    3.9596   -6.7226    0.0000 O   0  0  0  0  0  0  0  0  0  0  0  0
    3.2452   -7.1351    0.0000 C   0  0  1  0  0  0  0  0  0  0  0  0
    3.2452   -7.9601    0.0000 C   0  0  2  0  0  0  0  0  0  0  0  0
    3.9596   -8.3726    0.0000 C   0  0  1  0  0  0  0  0  0  0  0  0
    4.6741   -7.9601    0.0000 C   0  0  1  0  0  0  0  0  0  0  0  0
    2.5307   -6.7226    0.0000 C   0  0  0  0  0  0  0  0  0  0  0  0
    3.9596   -9.1976    0.0000 O   0  0  0  0  0  0  0  0  0  0  0  0
    5.3886   -8.3726    0.0000 O   0  0  0  0  0  0  0  0  0  0  0  0
    2.5307   -8.3726    0.0000 O   0  0  0  0  0  0  0  0  0  0  0  0
    1.8162   -7.1351    0.0000 O   0  0  0  0  0  0  0  0  0  0  0  0
    2.5307   -5.8976    0.0000 O   0  0  0  0  0  0  0  0  0  0  0  0
  1  2  2  0  0  0  0
  2  3  1  0  0  0  0
  3  4  2  0  0  0  0
  4  5  1  0  0  0  0
  5  6  2  0  0  0  0
  6  1  1  0  0  0  0
  4  7  1  0  0  0  0
  7  8  1  0  0  0  0
  8  9  1  0  0  0  0
  9 10  1  0  0  0  0
 10  5  1  0  0  0  0
  8 11  1  0  0  0  0
 11 12  2  0  0  0  0
 11 13  1  0  0  0  0
 13 14  2  0  0  0  0
 14 15  1  0  0  0  0
 15 16  2  0  0  0  0
 16 12  1  0  0  0  0
 12 17  1  0  0  0  0
 16 18  1  0  0  0  0
  1 19  1  0  0  0  0
 15 20  1  0  0  0  0
 20 21  1  0  0  0  0
 18 22  1  0  0  0  0
 23 19  1  1  0  0  0
 23 24  1  0  0  0  0
 24 25  1  0  0  0  0
 25 26  1  0  0  0  0
 26 27  1  0  0  0  0
 27 28  1  0  0  0  0
 28 23  1  0  0  0  0
 25 29  1  1  0  0  0
 27 30  1  1  0  0  0
 28 31  1  6  0  0  0
 26 32  1  6  0  0  0
 29 33  1  0  0  0  0
 29 34  2  0  0  0  0
M  END
>  <cdx:fragmentId>
5

$$$$
