70028.cdx
  Mrv1902 05222410202D          

 25 27  0  0  0  0            999 V2000
    6.0450   -8.8058    0.0000 C   0  0  2  0  0  0  0  0  0  0  0  0
    5.2773   -9.1074    0.0000 C   0  0  2  0  0  0  0  0  0  0  0  0
    5.0248   -8.4027    0.0000 C   0  0  0  0  0  0  0  0  0  0  0  0
    5.9321   -8.0048    0.0000 C   0  0  1  0  0  0  0  0  0  0  0  0
    6.5812   -7.3009    0.0000 N   0  0  0  0  0  0  0  0  0  0  0  0
    7.6522   -8.2348    0.0000 C   0  0  0  0  0  0  0  0  0  0  0  0
    7.0081   -9.3201    0.0000 C   0  0  0  0  0  0  0  0  0  0  0  0
    7.7252   -8.9651    0.0000 C   0  0  1  0  0  0  0  0  0  0  0  0
    7.0080   -6.5948    0.0000 C   0  0  0  0  0  0  0  0  0  0  0  0
    4.2444   -8.1351    0.0000 H   0  0  0  0  0  0  0  0  0  0  0  0
    8.4470   -9.3647    0.0000 O   0  0  0  0  0  0  0  0  0  0  0  0
    9.1539   -8.9395    0.0000 C   0  0  0  0  0  0  0  0  0  0  0  0
    9.8757   -9.3391    0.0000 C   0  0  1  0  0  0  0  0  0  0  0  0
    9.1392   -8.1146    0.0000 O   0  0  0  0  0  0  0  0  0  0  0  0
   10.5827   -8.9139    0.0000 C   0  0  0  0  0  0  0  0  0  0  0  0
    9.8905  -10.1640    0.0000 C   0  0  0  0  0  0  0  0  0  0  0  0
   10.6049  -10.5765    0.0000 O   0  0  0  0  0  0  0  0  0  0  0  0
   11.3044   -9.3135    0.0000 C   0  0  0  0  0  0  0  0  0  0  0  0
   12.0114   -8.8883    0.0000 C   0  0  0  0  0  0  0  0  0  0  0  0
   11.9966   -8.0634    0.0000 C   0  0  0  0  0  0  0  0  0  0  0  0
   11.2748   -7.6638    0.0000 C   0  0  0  0  0  0  0  0  0  0  0  0
   10.5679   -8.0890    0.0000 C   0  0  0  0  0  0  0  0  0  0  0  0
    5.0127   -9.8888    0.0000 O   0  0  0  0  0  0  0  0  0  0  0  0
    6.2585   -9.6027    0.0000 H   0  0  0  0  0  0  0  0  0  0  0  0
    5.7186   -7.2079    0.0000 H   0  0  0  0  0  0  0  0  0  0  0  0
  1  2  1  0  0  0  0
  2  3  1  0  0  0  0
  3  4  1  0  0  0  0
  4  5  1  0  0  0  0
  4  6  1  0  0  0  0
  1  7  1  0  0  0  0
  6  8  1  0  0  0  0
  7  8  1  0  0  0  0
  5  1  1  0  0  0  0
  5  9  1  0  0  0  0
  3 10  1  0  0  0  0
  8 11  1  6  0  0  0
 11 12  1  0  0  0  0
 12 13  1  0  0  0  0
 12 14  2  0  0  0  0
 13 15  1  0  0  0  0
 13 16  1  1  0  0  0
 16 17  1  0  0  0  0
 15 18  2  0  0  0  0
 18 19  1  0  0  0  0
 19 20  2  0  0  0  0
 20 21  1  0  0  0  0
 21 22  2  0  0  0  0
 22 15  1  0  0  0  0
  2 23  1  1  0  0  0
  1 24  1  1  0  0  0
  4 25  1  6  0  0  0
M  END
>  <cdx:groupId>
816

>  <cdx:fragmentId>
817

$$$$
