70020.cdx
  Mrv1902 05222410232D          

 36 39  0  0  0  0            999 V2000
    6.2268   -7.1214    0.0000 C   0  0  0  0  0  0  0  0  0  0  0  0
    6.2268   -7.9464    0.0000 C   0  0  0  0  0  0  0  0  0  0  0  0
    6.9413   -8.3589    0.0000 C   0  0  0  0  0  0  0  0  0  0  0  0
    7.6557   -7.9464    0.0000 C   0  0  0  0  0  0  0  0  0  0  0  0
    7.6557   -7.1214    0.0000 C   0  0  0  0  0  0  0  0  0  0  0  0
    6.9413   -6.7089    0.0000 C   0  0  0  0  0  0  0  0  0  0  0  0
    8.3702   -8.3589    0.0000 C   0  0  0  0  0  0  0  0  0  0  0  0
    9.0847   -7.9464    0.0000 C   0  0  0  0  0  0  0  0  0  0  0  0
    9.0847   -7.1214    0.0000 C   0  0  0  0  0  0  0  0  0  0  0  0
    8.3702   -6.7089    0.0000 O   0  0  0  0  0  0  0  0  0  0  0  0
    9.7992   -8.3589    0.0000 C   0  0  0  0  0  0  0  0  0  0  0  0
   10.5136   -7.9464    0.0000 C   0  0  0  0  0  0  0  0  0  0  0  0
    9.7992   -9.1839    0.0000 C   0  0  0  0  0  0  0  0  0  0  0  0
   10.5136   -9.5964    0.0000 C   0  0  0  0  0  0  0  0  0  0  0  0
   11.2281   -9.1839    0.0000 C   0  0  0  0  0  0  0  0  0  0  0  0
   11.2281   -8.3589    0.0000 C   0  0  0  0  0  0  0  0  0  0  0  0
    5.5123   -6.7089    0.0000 O   0  0  0  0  0  0  0  0  0  0  0  0
   10.5136   -7.1214    0.0000 O   0  0  0  0  0  0  0  0  0  0  0  0
   11.9426   -7.9464    0.0000 O   0  0  0  0  0  0  0  0  0  0  0  0
   11.9426   -9.5964    0.0000 O   0  0  0  0  0  0  0  0  0  0  0  0
   11.9426  -10.4214    0.0000 C   0  0  0  0  0  0  0  0  0  0  0  0
   12.6570   -8.3589    0.0000 C   0  0  0  0  0  0  0  0  0  0  0  0
   10.5136  -10.4214    0.0000 O   0  0  0  0  0  0  0  0  0  0  0  0
    9.7992  -10.8339    0.0000 C   0  0  0  0  0  0  0  0  0  0  0  0
    4.7979   -7.1214    0.0000 C   0  0  2  0  0  0  0  0  0  0  0  0
    4.0834   -6.7089    0.0000 O   0  0  0  0  0  0  0  0  0  0  0  0
    3.3689   -7.1214    0.0000 C   0  0  1  0  0  0  0  0  0  0  0  0
    3.3689   -7.9464    0.0000 C   0  0  2  0  0  0  0  0  0  0  0  0
    4.0834   -8.3589    0.0000 C   0  0  1  0  0  0  0  0  0  0  0  0
    4.7979   -7.9464    0.0000 C   0  0  1  0  0  0  0  0  0  0  0  0
    2.6544   -6.7089    0.0000 C   0  0  0  0  0  0  0  0  0  0  0  0
    4.0834   -9.1839    0.0000 O   0  0  0  0  0  0  0  0  0  0  0  0
    5.5123   -8.3589    0.0000 O   0  0  0  0  0  0  0  0  0  0  0  0
    2.6544   -8.3589    0.0000 O   0  0  0  0  0  0  0  0  0  0  0  0
    2.6544   -5.8839    0.0000 O   0  0  0  0  0  0  0  0  0  0  0  0
    1.9400   -7.1214    0.0000 O   0  0  0  0  0  0  0  0  0  0  0  0
  1  2  2  0  0  0  0
  2  3  1  0  0  0  0
  3  4  2  0  0  0  0
  4  5  1  0  0  0  0
  5  6  2  0  0  0  0
  6  1  1  0  0  0  0
  4  7  1  0  0  0  0
  7  8  1  0  0  0  0
  8  9  1  0  0  0  0
  9 10  1  0  0  0  0
 10  5  1  0  0  0  0
  8 11  1  0  0  0  0
 11 12  2  0  0  0  0
 11 13  1  0  0  0  0
 13 14  2  0  0  0  0
 14 15  1  0  0  0  0
 15 16  2  0  0  0  0
 16 12  1  0  0  0  0
  1 17  1  0  0  0  0
 12 18  1  0  0  0  0
 16 19  1  0  0  0  0
 15 20  1  0  0  0  0
 20 21  1  0  0  0  0
 19 22  1  0  0  0  0
 14 23  1  0  0  0  0
 23 24  1  0  0  0  0
 25 17  1  1  0  0  0
 25 26  1  0  0  0  0
 26 27  1  0  0  0  0
 27 28  1  0  0  0  0
 28 29  1  0  0  0  0
 29 30  1  0  0  0  0
 30 25  1  0  0  0  0
 27 31  1  1  0  0  0
 29 32  1  1  0  0  0
 30 33  1  6  0  0  0
 28 34  1  6  0  0  0
 31 35  1  0  0  0  0
 31 36  2  0  0  0  0
M  END
>  <cdx:fragmentId>
5

$$$$
