70023.cdx
  Mrv1902 05222410242D          

 24 26  0  0  0  0            999 V2000
    4.3568   -7.2314    0.0000 C   0  0  0  0  0  0  0  0  0  0  0  0
    4.3568   -8.0564    0.0000 C   0  0  0  0  0  0  0  0  0  0  0  0
    5.0713   -8.4689    0.0000 C   0  0  0  0  0  0  0  0  0  0  0  0
    5.7857   -8.0564    0.0000 C   0  0  0  0  0  0  0  0  0  0  0  0
    5.7857   -7.2314    0.0000 C   0  0  0  0  0  0  0  0  0  0  0  0
    5.0713   -6.8189    0.0000 C   0  0  0  0  0  0  0  0  0  0  0  0
    6.5002   -8.4689    0.0000 C   0  0  0  0  0  0  0  0  0  0  0  0
    7.2147   -8.0564    0.0000 C   0  0  0  0  0  0  0  0  0  0  0  0
    7.2147   -7.2314    0.0000 C   0  0  0  0  0  0  0  0  0  0  0  0
    6.5002   -6.8189    0.0000 O   0  0  0  0  0  0  0  0  0  0  0  0
    7.9292   -8.4689    0.0000 C   0  0  0  0  0  0  0  0  0  0  0  0
    8.6436   -8.0564    0.0000 C   0  0  0  0  0  0  0  0  0  0  0  0
    7.9292   -9.2939    0.0000 C   0  0  0  0  0  0  0  0  0  0  0  0
    8.6436   -9.7064    0.0000 C   0  0  0  0  0  0  0  0  0  0  0  0
    9.3581   -9.2939    0.0000 C   0  0  0  0  0  0  0  0  0  0  0  0
    9.3581   -8.4689    0.0000 C   0  0  0  0  0  0  0  0  0  0  0  0
    8.6436   -7.2314    0.0000 O   0  0  0  0  0  0  0  0  0  0  0  0
   10.0726   -8.0564    0.0000 O   0  0  0  0  0  0  0  0  0  0  0  0
    3.6423   -6.8189    0.0000 O   0  0  0  0  0  0  0  0  0  0  0  0
   10.0726   -9.7064    0.0000 O   0  0  0  0  0  0  0  0  0  0  0  0
   10.0726  -10.5314    0.0000 C   0  0  0  0  0  0  0  0  0  0  0  0
   10.7870   -8.4689    0.0000 C   0  0  0  0  0  0  0  0  0  0  0  0
    7.2147   -9.7064    0.0000 O   0  0  0  0  0  0  0  0  0  0  0  0
    7.2147  -10.5314    0.0000 C   0  0  0  0  0  0  0  0  0  0  0  0
  1  2  2  0  0  0  0
  2  3  1  0  0  0  0
  3  4  2  0  0  0  0
  4  5  1  0  0  0  0
  5  6  2  0  0  0  0
  6  1  1  0  0  0  0
  4  7  1  0  0  0  0
  7  8  1  0  0  0  0
  8  9  1  0  0  0  0
  9 10  1  0  0  0  0
 10  5  1  0  0  0  0
  8 11  1  0  0  0  0
 11 12  2  0  0  0  0
 11 13  1  0  0  0  0
 13 14  2  0  0  0  0
 14 15  1  0  0  0  0
 15 16  2  0  0  0  0
 16 12  1  0  0  0  0
 12 17  1  0  0  0  0
 16 18  1  0  0  0  0
  1 19  1  0  0  0  0
 15 20  1  0  0  0  0
 20 21  1  0  0  0  0
 18 22  1  0  0  0  0
 13 23  1  0  0  0  0
 23 24  1  0  0  0  0
M  END
>  <cdx:fragmentId>
5

$$$$
