7002.cdx
  Mrv1902 05222410272D          

 11 12  0  0  0  0            999 V2000
    6.5885   -2.9208    0.0000 C   0  0  0  0  0  0  0  0  0  0  0  0
    7.3029   -3.3333    0.0000 C   0  0  0  0  0  0  0  0  0  0  0  0
    7.3029   -4.1583    0.0000 C   0  0  0  0  0  0  0  0  0  0  0  0
    6.5885   -4.5708    0.0000 C   0  0  0  0  0  0  0  0  0  0  0  0
    5.8740   -4.1583    0.0000 C   0  0  0  0  0  0  0  0  0  0  0  0
    5.1595   -4.5708    0.0000 C   0  0  0  0  0  0  0  0  0  0  0  0
    4.4451   -4.1583    0.0000 C   0  0  0  0  0  0  0  0  0  0  0  0
    4.4451   -3.3333    0.0000 C   0  0  0  0  0  0  0  0  0  0  0  0
    5.1595   -2.9208    0.0000 C   0  0  0  0  0  0  0  0  0  0  0  0
    5.8740   -3.3333    0.0000 C   0  0  0  0  0  0  0  0  0  0  0  0
    6.5885   -2.0958    0.0000 C   0  0  0  0  0  0  0  0  0  0  0  0
  1  2  1  0  0  0  0
  2  3  2  0  0  0  0
  3  4  1  0  0  0  0
  4  5  2  0  0  0  0
  5  6  1  0  0  0  0
  6  7  2  0  0  0  0
  7  8  1  0  0  0  0
  8  9  2  0  0  0  0
  9 10  1  0  0  0  0
  1 10  2  0  0  0  0
  5 10  1  0  0  0  0
  1 11  1  0  0  0  0
M  END
>  <cdx:groupId>
36

>  <cdx:fragmentId>
5

$$$$
