70030.cdx
  Mrv1902 05222410252D          

 53 59  0  0  0  0            999 V2000
    5.3606   -8.3726    0.0000 C   0  0  0  0  0  0  0  0  0  0  0  0
    5.3606   -9.1976    0.0000 C   0  0  0  0  0  0  0  0  0  0  0  0
    6.0750   -9.6101    0.0000 C   0  0  0  0  0  0  0  0  0  0  0  0
    6.7895   -9.1976    0.0000 C   0  0  0  0  0  0  0  0  0  0  0  0
    6.7895   -8.3726    0.0000 C   0  0  0  0  0  0  0  0  0  0  0  0
    6.0750   -7.9601    0.0000 C   0  0  0  0  0  0  0  0  0  0  0  0
    6.0750   -7.1351    0.0000 C   0  0  0  0  0  0  0  0  0  0  0  0
    5.3606   -6.7226    0.0000 C   0  0  0  0  0  0  0  0  0  0  0  0
    4.6461   -7.1351    0.0000 O   0  0  0  0  0  0  0  0  0  0  0  0
    4.6461   -7.9601    0.0000 O   0  0  0  0  0  0  0  0  0  0  0  0
    6.7895   -6.7226    0.0000 C   0  0  0  0  0  0  0  0  0  0  0  0
    6.7895   -5.8976    0.0000 C   0  0  0  0  0  0  0  0  0  0  0  0
    6.0750   -5.4851    0.0000 C   0  0  0  0  0  0  0  0  0  0  0  0
    5.3606   -5.8976    0.0000 C   0  0  0  0  0  0  0  0  0  0  0  0
    7.5040   -7.1351    0.0000 O   0  0  0  0  0  0  0  0  0  0  0  0
    8.2184   -6.7226    0.0000 C   0  0  0  0  0  0  0  0  0  0  0  0
    8.2184   -5.8976    0.0000 C   0  0  0  0  0  0  0  0  0  0  0  0
    7.5040   -5.4851    0.0000 C   0  0  0  0  0  0  0  0  0  0  0  0
    7.5040   -4.6601    0.0000 O   0  0  0  0  0  0  0  0  0  0  0  0
    6.0750   -4.6601    0.0000 O   0  0  0  0  0  0  0  0  0  0  0  0
    8.9329   -7.9601    0.0000 C   0  0  0  0  0  0  0  0  0  0  0  0
    8.9329   -7.1351    0.0000 C   0  0  0  0  0  0  0  0  0  0  0  0
    9.6474   -8.3726    0.0000 C   0  0  0  0  0  0  0  0  0  0  0  0
   10.3619   -7.9601    0.0000 C   0  0  0  0  0  0  0  0  0  0  0  0
   10.3619   -7.1351    0.0000 C   0  0  0  0  0  0  0  0  0  0  0  0
    9.6474   -6.7226    0.0000 C   0  0  0  0  0  0  0  0  0  0  0  0
    7.5040  -10.4351    0.0000 O   0  0  0  0  0  0  0  0  0  0  0  0
    7.5040   -9.6101    0.0000 C   0  0  0  0  0  0  0  0  0  0  0  0
    8.2184  -10.8476    0.0000 C   0  0  0  0  0  0  0  0  0  0  0  0
    8.9329  -10.4351    0.0000 C   0  0  0  0  0  0  0  0  0  0  0  0
    8.9329   -9.6101    0.0000 C   0  0  0  0  0  0  0  0  0  0  0  0
    8.2184   -9.1976    0.0000 C   0  0  0  0  0  0  0  0  0  0  0  0
    8.2184  -11.6726    0.0000 C   0  0  0  0  0  0  0  0  0  0  0  0
    8.9329  -12.0851    0.0000 C   0  0  0  0  0  0  0  0  0  0  0  0
    9.6474  -11.6726    0.0000 C   0  0  0  0  0  0  0  0  0  0  0  0
    9.6474  -10.8476    0.0000 C   0  0  0  0  0  0  0  0  0  0  0  0
   10.3619  -10.4351    0.0000 O   0  0  0  0  0  0  0  0  0  0  0  0
    9.6474   -9.1976    0.0000 O   0  0  0  0  0  0  0  0  0  0  0  0
    8.9329  -12.9101    0.0000 O   0  0  0  0  0  0  0  0  0  0  0  0
   11.0763   -8.3726    0.0000 O   0  0  0  0  0  0  0  0  0  0  0  0
    3.9316   -8.3726    0.0000 C   0  0  0  0  0  0  0  0  0  0  0  0
    3.9316   -6.7226    0.0000 C   0  0  2  0  0  0  0  0  0  0  0  0
    3.9316   -5.8976    0.0000 O   0  0  0  0  0  0  0  0  0  0  0  0
    3.2171   -5.4851    0.0000 C   0  0  1  0  0  0  0  0  0  0  0  0
    2.5027   -5.8976    0.0000 C   0  0  2  0  0  0  0  0  0  0  0  0
    2.5027   -6.7226    0.0000 C   0  0  1  0  0  0  0  0  0  0  0  0
    3.2171   -7.1351    0.0000 C   0  0  1  0  0  0  0  0  0  0  0  0
    3.2171   -4.6601    0.0000 C   0  0  0  0  0  0  0  0  0  0  0  0
    1.7882   -7.1351    0.0000 O   0  0  0  0  0  0  0  0  0  0  0  0
    3.2171   -7.9601    0.0000 O   0  0  0  0  0  0  0  0  0  0  0  0
    1.7882   -5.4851    0.0000 O   0  0  0  0  0  0  0  0  0  0  0  0
    2.5027   -4.2476    0.0000 O   0  0  0  0  0  0  0  0  0  0  0  0
   11.7908   -7.9601    0.0000 C   0  0  0  0  0  0  0  0  0  0  0  0
  1  2  1  0  0  0  0
  2  3  2  0  0  0  0
  3  4  1  0  0  0  0
  4  5  2  0  0  0  0
  5  6  1  0  0  0  0
  6  1  2  0  0  0  0
  6  7  1  0  0  0  0
  7  8  2  0  0  0  0
  8  9  1  0  0  0  0
 10  1  1  0  0  0  0
  7 11  1  0  0  0  0
 11 12  2  0  0  0  0
 12 13  1  0  0  0  0
 13 14  2  0  0  0  0
 14  8  1  0  0  0  0
 11 15  1  0  0  0  0
 15 16  1  0  0  0  0
 16 17  2  0  0  0  0
 17 18  1  0  0  0  0
 18 12  1  0  0  0  0
 18 19  2  0  0  0  0
 20 13  1  0  0  0  0
 21 22  1  0  0  0  0
 22 16  1  0  0  0  0
 21 23  2  0  0  0  0
 23 24  1  0  0  0  0
 24 25  2  0  0  0  0
 25 26  1  0  0  0  0
 26 22  2  0  0  0  0
 27 28  1  0  0  0  0
 28  4  1  0  0  0  0
 27 29  1  0  0  0  0
 29 30  1  0  0  0  0
 30 31  1  0  0  0  0
 31 32  1  0  0  0  0
 32 28  2  0  0  0  0
 29 33  2  0  0  0  0
 33 34  1  0  0  0  0
 34 35  2  0  0  0  0
 35 36  1  0  0  0  0
 36 30  2  0  0  0  0
 36 37  1  0  0  0  0
 38 31  2  0  0  0  0
 34 39  1  0  0  0  0
 24 40  1  0  0  0  0
 10 41  1  0  0  0  0
 42  9  1  1  0  0  0
 42 43  1  0  0  0  0
 43 44  1  0  0  0  0
 44 45  1  0  0  0  0
 45 46  1  0  0  0  0
 46 47  1  0  0  0  0
 47 42  1  0  0  0  0
 44 48  1  1  0  0  0
 46 49  1  1  0  0  0
 47 50  1  6  0  0  0
 45 51  1  6  0  0  0
 48 52  1  0  0  0  0
 40 53  1  0  0  0  0
M  END
>  <cdx:fragmentId>
5

$$$$
