70031.cdx
  Mrv1902 05222410252D          

 16 17  0  0  0  0            999 V2000
    5.0728   -5.2065    0.0000 C   0  0  0  0  0  0  0  0  0  0  0  0
    5.0716   -6.0315    0.0000 C   0  0  0  0  0  0  0  0  0  0  0  0
    5.7854   -6.4451    0.0000 C   0  0  0  0  0  0  0  0  0  0  0  0
    6.5005   -6.0337    0.0000 C   0  0  1  0  0  0  0  0  0  0  0  0
    6.5018   -5.2087    0.0000 C   0  0  2  0  0  0  0  0  0  0  0  0
    5.7879   -4.7951    0.0000 C   0  0  0  0  0  0  0  0  0  0  0  0
    7.2144   -6.4472    0.0000 C   0  0  0  0  0  0  0  0  0  0  0  0
    7.9295   -6.0358    0.0000 C   0  0  1  0  0  0  0  0  0  0  0  0
    7.9307   -5.2108    0.0000 C   0  0  0  0  0  0  0  0  0  0  0  0
    7.2168   -4.7972    0.0000 C   0  0  0  0  0  0  0  0  0  0  0  0
    5.7842   -7.2701    0.0000 C   0  0  0  0  0  0  0  0  0  0  0  0
    6.4993   -6.8587    0.0000 O   0  0  0  0  0  0  0  0  0  0  0  0
    6.5030   -4.3837    0.0000 C   0  0  0  0  0  0  0  0  0  0  0  0
    8.6433   -6.4494    0.0000 C   0  0  0  0  0  0  0  0  0  0  0  0
    9.3584   -6.0379    0.0000 C   0  0  0  0  0  0  0  0  0  0  0  0
    8.6421   -7.2744    0.0000 C   0  0  0  0  0  0  0  0  0  0  0  0
  1  2  1  0  0  0  0
  2  3  2  0  0  0  0
  3  4  1  0  0  0  0
  4  5  1  0  0  0  0
  5  6  1  0  0  0  0
  6  1  1  0  0  0  0
  4  7  1  0  0  0  0
  7  8  1  0  0  0  0
  8  9  1  0  0  0  0
  9 10  1  0  0  0  0
 10  5  1  0  0  0  0
  3 11  1  6  0  0  0
  4 12  1  6  0  0  0
  5 13  1  1  0  0  0
  8 14  1  1  0  0  0
 14 15  1  0  0  0  0
 14 16  2  0  0  0  0
M  END
>  <cdx:fragmentId>
5

$$$$
