70032.cdx
  Mrv1902 05222410252D          

 17 19  0  0  0  0            999 V2000
    4.5081   -8.1389    0.0000 C   0  0  0  0  0  0  0  0  0  0  0  0
    4.5081   -8.9639    0.0000 C   0  0  0  0  0  0  0  0  0  0  0  0
    5.2225   -9.3764    0.0000 C   0  0  0  0  0  0  0  0  0  0  0  0
    5.9370   -8.9639    0.0000 C   0  0  2  0  0  0  0  0  0  0  0  0
    5.9370   -8.1389    0.0000 C   0  0  2  0  0  0  0  0  0  0  0  0
    5.2225   -7.7264    0.0000 C   0  0  0  0  0  0  0  0  0  0  0  0
    6.6515   -9.3764    0.0000 C   0  0  0  0  0  0  0  0  0  0  0  0
    7.3659   -8.9639    0.0000 C   0  0  0  0  0  0  0  0  0  0  0  0
    7.3659   -8.1389    0.0000 C   0  0  0  0  0  0  0  0  0  0  0  0
    6.6515   -7.7264    0.0000 C   0  0  0  0  0  0  0  0  0  0  0  0
    5.2225  -10.2014    0.0000 C   0  0  0  0  0  0  0  0  0  0  0  0
    5.9370   -9.7889    0.0000 O   0  0  0  0  0  0  0  0  0  0  0  0
    7.3659   -9.7889    0.0000 C   0  0  0  0  0  0  0  0  0  0  0  0
    6.6515  -10.2014    0.0000 C   0  0  0  0  0  0  0  0  0  0  0  0
    6.6515  -11.0264    0.0000 O   0  0  0  0  0  0  0  0  0  0  0  0
    8.0804  -10.2014    0.0000 C   0  0  0  0  0  0  0  0  0  0  0  0
    5.9370   -7.3139    0.0000 C   0  0  0  0  0  0  0  0  0  0  0  0
  1  2  1  0  0  0  0
  2  3  1  0  0  0  0
  3  4  1  0  0  0  0
  4  5  1  0  0  0  0
  5  6  1  0  0  0  0
  6  1  1  0  0  0  0
  4  7  1  0  0  0  0
  7  8  1  0  0  0  0
  8  9  1  0  0  0  0
  9 10  1  0  0  0  0
 10  5  1  0  0  0  0
  3 11  2  0  0  0  0
  4 12  1  1  0  0  0
  8 13  1  0  0  0  0
 12 14  1  0  0  0  0
 14 13  1  0  0  0  0
 14 15  2  0  0  0  0
 13 16  2  0  0  0  0
  5 17  1  1  0  0  0
M  END
>  <cdx:fragmentId>
5

$$$$
