70037.cdx
  Mrv1902 05222410242D          

 16 17  0  0  0  0            999 V2000
    4.3431   -8.0564    0.0000 C   0  0  0  0  0  0  0  0  0  0  0  0
    4.3431   -8.8814    0.0000 C   0  0  0  0  0  0  0  0  0  0  0  0
    5.0575   -9.2939    0.0000 C   0  0  0  0  0  0  0  0  0  0  0  0
    5.7720   -8.8814    0.0000 C   0  0  0  0  0  0  0  0  0  0  0  0
    5.7720   -8.0564    0.0000 C   0  0  2  0  0  0  0  0  0  0  0  0
    5.0575   -7.6439    0.0000 C   0  0  0  0  0  0  0  0  0  0  0  0
    6.4865   -9.2939    0.0000 C   0  0  0  0  0  0  0  0  0  0  0  0
    7.2009   -8.8814    0.0000 C   0  0  1  0  0  0  0  0  0  0  0  0
    7.2009   -8.0564    0.0000 C   0  0  0  0  0  0  0  0  0  0  0  0
    6.4865   -7.6439    0.0000 C   0  0  0  0  0  0  0  0  0  0  0  0
    5.7720   -7.2314    0.0000 C   0  0  0  0  0  0  0  0  0  0  0  0
    7.9154   -9.2939    0.0000 C   0  0  0  0  0  0  0  0  0  0  0  0
    8.6299   -8.8814    0.0000 C   0  0  0  0  0  0  0  0  0  0  0  0
    7.9154  -10.1189    0.0000 C   0  0  0  0  0  0  0  0  0  0  0  0
    5.0575  -10.1189    0.0000 C   0  0  0  0  0  0  0  0  0  0  0  0
    6.4865   -6.8189    0.0000 O   0  0  0  0  0  0  0  0  0  0  0  0
  1  2  1  0  0  0  0
  2  3  1  0  0  0  0
  3  4  2  0  0  0  0
  4  5  1  0  0  0  0
  5  6  1  0  0  0  0
  6  1  1  0  0  0  0
  4  7  1  0  0  0  0
  7  8  1  0  0  0  0
  8  9  1  0  0  0  0
  9 10  1  0  0  0  0
 10  5  1  0  0  0  0
  5 11  1  1  0  0  0
  8 12  1  1  0  0  0
 12 13  2  0  0  0  0
 12 14  1  0  0  0  0
  3 15  1  6  0  0  0
 10 16  2  0  0  0  0
M  END
>  <cdx:fragmentId>
5

$$$$
