700480.cdx
  Mrv1902 05222410212D          

 24 25  0  0  0  0            999 V2000
    5.0581   -7.7948    0.0000 C   0  0  0  0  0  0  0  0  0  0  0  0
    4.2331   -7.7948    0.0000 C   0  0  0  0  0  0  0  0  0  0  0  0
    3.8206   -7.0803    0.0000 C   0  0  0  0  0  0  0  0  0  0  0  0
    2.9956   -7.0803    0.0000 C   0  0  0  0  0  0  0  0  0  0  0  0
    5.4706   -7.0803    0.0000 O   0  0  0  0  0  0  0  0  0  0  0  0
    5.4706   -8.5093    0.0000 O   0  0  0  0  0  0  0  0  0  0  0  0
    3.8206   -8.5093    0.0000 C   0  0  0  0  0  0  0  0  0  0  0  0
    7.4579   -9.4361    0.0000 C   0  0  2  0  0  0  0  0  0  0  0  0
    6.6536   -9.2526    0.0000 C   0  0  0  0  0  0  0  0  0  0  0  0
    6.2956   -8.5093    0.0000 C   0  0  0  0  0  0  0  0  0  0  0  0
    6.6536   -7.7660    0.0000 C   0  0  0  0  0  0  0  0  0  0  0  0
    7.4579   -7.5824    0.0000 C   0  0  1  0  0  0  0  0  0  0  0  0
    8.1029   -8.0968    0.0000 C   0  0  0  0  0  0  0  0  0  0  0  0
    8.1029   -8.9218    0.0000 C   0  0  0  0  0  0  0  0  0  0  0  0
    6.9232   -8.5083    0.0000 N   0  0  0  0  0  0  0  0  0  0  0  0
    8.8174   -9.3343    0.0000 O   0  0  0  0  0  0  0  0  0  0  0  0
    9.5318   -8.9218    0.0000 C   0  0  0  0  0  0  0  0  0  0  0  0
   10.2463   -9.3343    0.0000 C   0  0  0  0  0  0  0  0  0  0  0  0
   10.9608   -8.9218    0.0000 C   0  0  0  0  0  0  0  0  0  0  0  0
    9.5318   -8.0968    0.0000 O   0  0  0  0  0  0  0  0  0  0  0  0
    6.1480   -8.2262    0.0000 C   0  0  0  0  0  0  0  0  0  0  0  0
    8.8174   -7.6843    0.0000 O   0  0  0  0  0  0  0  0  0  0  0  0
    7.6414   -6.7781    0.0000 H   0  0  0  0  0  0  0  0  0  0  0  0
    7.6414  -10.2405    0.0000 H   0  0  0  0  0  0  0  0  0  0  0  0
  1  2  1  0  0  0  0
  2  3  2  0  0  0  0
  3  4  1  0  0  0  0
  1  5  2  0  0  0  0
  1  6  1  0  0  0  0
  2  7  1  0  0  0  0
  8  9  1  0  0  0  0
  9 10  1  0  0  0  0
 10 11  1  0  0  0  0
 11 12  1  0  0  0  0
 12 13  1  0  0  0  0
 13 14  1  0  0  0  0
  8 14  1  0  0  0  0
  8 15  1  0  0  0  0
 15 12  1  0  0  0  0
 17 18  1  0  0  0  0
 18 19  1  0  0  0  0
 17 20  2  0  0  0  0
 16 17  1  0  0  0  0
 14 16  1  0  0  0  0
 15 21  1  0  0  0  0
 13 22  1  0  0  0  0
  6 10  1  0  0  0  0
 12 23  1  6  0  0  0
  8 24  1  6  0  0  0
M  END
>  <cdx:fragmentId>
215602

$$$$
