70047.cdx
  Mrv1902 05222410282D          

 35 39  0  0  0  0            999 V2000
    3.9718   -9.4451    0.0000 C   0  0  0  0  0  0  0  0  0  0  0  0
    3.9718  -10.2701    0.0000 C   0  0  1  0  0  0  0  0  0  0  0  0
    4.6863  -10.6826    0.0000 C   0  0  0  0  0  0  0  0  0  0  0  0
    5.4007  -10.2701    0.0000 C   0  0  1  0  0  0  0  0  0  0  0  0
    5.4007   -9.4451    0.0000 C   0  0  2  0  0  0  0  0  0  0  0  0
    4.6863   -9.0326    0.0000 C   0  0  0  0  0  0  0  0  0  0  0  0
    6.1152  -10.6826    0.0000 C   0  0  0  0  0  0  0  0  0  0  0  0
    6.8297  -10.2701    0.0000 C   0  0  0  0  0  0  0  0  0  0  0  0
    6.8297   -9.4451    0.0000 C   0  0  2  0  0  0  0  0  0  0  0  0
    6.1152   -9.0326    0.0000 C   0  0  2  0  0  0  0  0  0  0  0  0
    7.5442   -9.0326    0.0000 C   0  0  1  0  0  0  0  0  0  0  0  0
    7.5442   -8.2076    0.0000 C   0  0  0  0  0  0  0  0  0  0  0  0
    6.8297   -7.7951    0.0000 C   0  0  0  0  0  0  0  0  0  0  0  0
    6.1152   -8.2076    0.0000 C   0  0  0  0  0  0  0  0  0  0  0  0
    8.2586   -9.4451    0.0000 C   0  0  0  0  0  0  0  0  0  0  0  0
    8.9731   -9.0326    0.0000 C   0  0  0  0  0  0  0  0  0  0  0  0
    8.9731   -8.2076    0.0000 C   0  0  2  0  0  0  0  0  0  0  0  0
    8.2586   -7.7951    0.0000 C   0  0  1  0  0  0  0  0  0  0  0  0
    9.6876   -7.7951    0.0000 C   0  0  0  0  0  0  0  0  0  0  0  0
    9.6876   -6.9701    0.0000 C   0  0  0  0  0  0  0  0  0  0  0  0
    8.9731   -6.5576    0.0000 C   0  0  2  0  0  0  0  0  0  0  0  0
    8.2586   -6.9701    0.0000 C   0  0  2  0  0  0  0  0  0  0  0  0
    4.6863  -11.5076    0.0000 C   0  0  0  0  0  0  0  0  0  0  0  0
    9.6876   -8.6201    0.0000 C   0  0  0  0  0  0  0  0  0  0  0  0
   10.4020   -8.2076    0.0000 O   0  0  0  0  0  0  0  0  0  0  0  0
    9.6876   -9.4451    0.0000 O   0  0  0  0  0  0  0  0  0  0  0  0
    3.2573  -10.6826    0.0000 O   0  0  0  0  0  0  0  0  0  0  0  0
    5.4007   -8.6201    0.0000 C   0  0  0  0  0  0  0  0  0  0  0  0
    6.8297   -8.6201    0.0000 C   0  0  0  0  0  0  0  0  0  0  0  0
    7.5442   -7.3826    0.0000 H   0  0  0  0  0  0  0  0  0  0  0  0
    7.5442   -6.5576    0.0000 C   0  0  0  0  0  0  0  0  0  0  0  0
    5.4007  -11.0951    0.0000 H   0  0  0  0  0  0  0  0  0  0  0  0
    6.1152   -9.8576    0.0000 H   0  0  0  0  0  0  0  0  0  0  0  0
    7.5442   -9.8576    0.0000 C   0  0  0  0  0  0  0  0  0  0  0  0
    8.9731   -5.7326    0.0000 C   0  0  0  0  0  0  0  0  0  0  0  0
  1  2  1  0  0  0  0
  2  3  1  0  0  0  0
  3  4  1  0  0  0  0
  4  5  1  0  0  0  0
  5  6  1  0  0  0  0
  6  1  1  0  0  0  0
  4  7  1  0  0  0  0
  7  8  1  0  0  0  0
  8  9  1  0  0  0  0
  9 10  1  0  0  0  0
 10  5  1  0  0  0  0
  9 11  1  0  0  0  0
 11 12  1  0  0  0  0
 12 13  2  0  0  0  0
 13 14  1  0  0  0  0
 14 10  1  0  0  0  0
 11 15  1  0  0  0  0
 15 16  1  0  0  0  0
 16 17  1  0  0  0  0
 17 18  1  0  0  0  0
 18 12  1  0  0  0  0
 17 19  1  0  0  0  0
 19 20  1  0  0  0  0
 20 21  1  0  0  0  0
 21 22  1  0  0  0  0
 22 18  1  0  0  0  0
  3 23  2  0  0  0  0
 17 24  1  1  0  0  0
 24 25  1  0  0  0  0
 24 26  2  0  0  0  0
  2 27  1  1  0  0  0
  5 28  1  1  0  0  0
  9 29  1  1  0  0  0
 18 30  1  1  0  0  0
 22 31  1  1  0  0  0
  4 32  1  6  0  0  0
 10 33  1  6  0  0  0
 11 34  1  6  0  0  0
 21 35  1  6  0  0  0
M  END
>  <cdx:fragmentId>
5

$$$$
