70049.cdx
  Mrv1902 05222410192D          

 23 25  0  0  0  0            999 V2000
    4.0722   -5.8839    0.0000 O   0  0  0  0  0  0  0  0  0  0  0  0
    2.6432   -6.7089    0.0000 C   0  0  0  0  0  0  0  0  0  0  0  0
    1.9288   -7.1214    0.0000 C   0  0  0  0  0  0  0  0  0  0  0  0
    1.9288   -7.9464    0.0000 C   0  0  0  0  0  0  0  0  0  0  0  0
    2.6432   -8.3589    0.0000 C   0  0  0  0  0  0  0  0  0  0  0  0
    3.3577   -7.9464    0.0000 C   0  0  0  0  0  0  0  0  0  0  0  0
    3.3577   -7.1214    0.0000 N   0  0  0  0  0  0  0  0  0  0  0  0
    4.0722   -6.7089    0.0000 C   0  0  0  0  0  0  0  0  0  0  0  0
    4.7866   -7.1214    0.0000 C   0  0  0  0  0  0  0  0  0  0  0  0
    5.5011   -6.7089    0.0000 C   0  0  0  0  0  0  0  0  0  0  0  0
    6.2156   -7.1214    0.0000 C   0  0  0  0  0  0  0  0  0  0  0  0
    6.9301   -6.7089    0.0000 C   0  0  0  0  0  0  0  0  0  0  0  0
    7.6445   -7.1214    0.0000 C   0  0  0  0  0  0  0  0  0  0  0  0
    8.3590   -6.7089    0.0000 C   0  0  0  0  0  0  0  0  0  0  0  0
   11.3013   -8.1876    0.0000 O   0  0  0  0  0  0  0  0  0  0  0  0
   11.7862   -7.5201    0.0000 C   0  0  0  0  0  0  0  0  0  0  0  0
   11.3013   -6.8527    0.0000 O   0  0  0  0  0  0  0  0  0  0  0  0
    9.8022   -6.6951    0.0000 C   0  0  0  0  0  0  0  0  0  0  0  0
    9.0877   -7.1076    0.0000 C   0  0  0  0  0  0  0  0  0  0  0  0
    9.0877   -7.9326    0.0000 C   0  0  0  0  0  0  0  0  0  0  0  0
    9.8022   -8.3451    0.0000 C   0  0  0  0  0  0  0  0  0  0  0  0
   10.5167   -7.9326    0.0000 C   0  0  0  0  0  0  0  0  0  0  0  0
   10.5167   -7.1076    0.0000 C   0  0  0  0  0  0  0  0  0  0  0  0
  8  1  2  0  0  0  0
  2  7  1  0  0  0  0
  3  2  1  0  0  0  0
  4  3  1  0  0  0  0
  5  4  1  0  0  0  0
  6  5  1  0  0  0  0
  7  6  1  0  0  0  0
 14 19  1  0  0  0  0
  8  7  1  0  0  0  0
  9  8  1  0  0  0  0
 10  9  2  0  0  0  0
 11 10  1  0  0  0  0
 12 11  1  0  0  0  0
 13 12  1  0  0  0  0
 14 13  2  0  0  0  0
 15 22  1  0  0  0  0
 16 15  1  0  0  0  0
 17 16  1  0  0  0  0
 23 17  1  0  0  0  0
 18 23  1  0  0  0  0
 19 18  2  0  0  0  0
 20 19  1  0  0  0  0
 21 20  2  0  0  0  0
 22 21  1  0  0  0  0
 23 22  2  0  0  0  0
M  END
>  <cdx:fragmentId>
5

$$$$
