70046.cdx
  Mrv1902 05222410282D          

 22 24  0  0  0  0            999 V2000
    6.8168   -7.6473    0.0000 H   0  0  0  0  0  0  0  0  0  0  0  0
    8.3320  -10.1177    0.0000 O   0  0  0  0  0  0  0  0  0  0  0  0
    9.2853   -7.4327    0.0000 C   0  0  0  0  0  0  0  0  0  0  0  0
    6.8168  -10.1223    0.0000 C   0  0  0  0  0  0  0  0  0  0  0  0
    6.1023   -7.2348    0.0000 C   0  0  0  0  0  0  0  0  0  0  0  0
   10.3403   -8.8848    0.0000 O   0  0  0  0  0  0  0  0  0  0  0  0
    6.1023   -8.0598    0.0000 C   0  0  0  0  0  0  0  0  0  0  0  0
    5.3878   -8.4723    0.0000 C   0  0  1  0  0  0  0  0  0  0  0  0
    5.3878   -9.2973    0.0000 C   0  0  0  0  0  0  0  0  0  0  0  0
    6.1023   -9.7098    0.0000 C   0  0  0  0  0  0  0  0  0  0  0  0
    8.2457   -9.2973    0.0000 C   0  0  2  0  0  0  0  0  0  0  0  0
    7.5312   -9.7098    0.0000 C   0  0  0  0  0  0  0  0  0  0  0  0
    6.8168   -9.2973    0.0000 C   0  0  1  0  0  0  0  0  0  0  0  0
    6.8168   -8.4723    0.0000 C   0  0  1  0  0  0  0  0  0  0  0  0
    7.5312   -8.0598    0.0000 C   0  0  0  0  0  0  0  0  0  0  0  0
    8.2457   -8.4723    0.0000 C   0  0  0  0  0  0  0  0  0  0  0  0
    9.0303   -8.2173    0.0000 C   0  0  0  0  0  0  0  0  0  0  0  0
    9.5153   -8.8848    0.0000 C   0  0  0  0  0  0  0  0  0  0  0  0
    9.0303   -9.5522    0.0000 O   0  0  0  0  0  0  0  0  0  0  0  0
    4.6734   -8.0598    0.0000 C   0  0  0  0  0  0  0  0  0  0  0  0
    3.9589   -8.4723    0.0000 C   0  0  0  0  0  0  0  0  0  0  0  0
    4.6734   -7.2348    0.0000 O   0  0  0  0  0  0  0  0  0  0  0  0
 14  1  1  1  0  0  0
 11  2  1  6  0  0  0
 17  3  1  0  0  0  0
 13  4  1  6  0  0  0
  7  5  2  0  0  0  0
 18  6  2  0  0  0  0
 10 13  1  0  0  0  0
  7 14  1  0  0  0  0
  8  7  1  0  0  0  0
  9  8  1  0  0  0  0
 10  9  1  0  0  0  0
 19 11  1  0  0  0  0
 16 11  1  0  0  0  0
 12 11  1  0  0  0  0
 13 12  1  0  0  0  0
 14 13  1  0  0  0  0
 15 14  1  0  0  0  0
 16 15  1  0  0  0  0
 17 16  2  0  0  0  0
 18 17  1  0  0  0  0
 19 18  1  0  0  0  0
  8 20  1  1  0  0  0
 20 21  1  0  0  0  0
 20 22  2  0  0  0  0
M  END
>  <cdx:fragmentId>
5

$$$$
