70041.cdx
  Mrv1902 05222410272D          

 33 34  0  0  0  0            999 V2000
    4.8243   -7.8501    0.0000 C   0  0  0  0  0  0  0  0  0  0  0  0
    4.8243   -8.6751    0.0000 C   0  0  1  0  0  0  0  0  0  0  0  0
    5.5388   -9.0876    0.0000 C   0  0  0  0  0  0  0  0  0  0  0  0
    6.2532   -8.6751    0.0000 C   0  0  0  0  0  0  0  0  0  0  0  0
    6.2532   -7.8501    0.0000 C   0  0  0  0  0  0  0  0  0  0  0  0
    5.5388   -7.4376    0.0000 C   0  0  0  0  0  0  0  0  0  0  0  0
    6.9677   -9.0876    0.0000 C   0  0  2  0  0  0  0  0  0  0  0  0
    7.6822   -8.6751    0.0000 C   0  0  1  0  0  0  0  0  0  0  0  0
    7.6822   -7.8501    0.0000 C   0  0  1  0  0  0  0  0  0  0  0  0
    6.9677   -7.4376    0.0000 C   0  0  0  0  0  0  0  0  0  0  0  0
    5.5388   -9.9126    0.0000 C   0  0  0  0  0  0  0  0  0  0  0  0
    7.1392   -9.8946    0.0000 O   0  0  0  0  0  0  0  0  0  0  0  0
    7.9597   -9.9809    0.0000 C   0  0  0  0  0  0  0  0  0  0  0  0
    8.2953   -9.2272    0.0000 C   0  0  0  0  0  0  0  0  0  0  0  0
    8.3722  -10.6953    0.0000 O   0  0  0  0  0  0  0  0  0  0  0  0
    9.1023   -9.0557    0.0000 C   0  0  0  0  0  0  0  0  0  0  0  0
    8.0947   -7.1357    0.0000 O   0  0  0  0  0  0  0  0  0  0  0  0
    8.4791   -8.0637    0.0000 H   0  0  0  0  0  0  0  0  0  0  0  0
    8.8083   -6.7217    0.0000 C   0  0  0  0  0  0  0  0  0  0  0  0
    8.8066   -5.8967    0.0000 C   0  0  0  0  0  0  0  0  0  0  0  0
    9.5236   -7.1327    0.0000 O   0  0  0  0  0  0  0  0  0  0  0  0
    8.3926   -5.1831    0.0000 C   0  0  0  0  0  0  0  0  0  0  0  0
    7.5676   -5.1848    0.0000 H   0  0  0  0  0  0  0  0  0  0  0  0
    8.8036   -4.4677    0.0000 C   0  0  0  0  0  0  0  0  0  0  0  0
    9.6316   -5.8950    0.0000 C   0  0  0  0  0  0  0  0  0  0  0  0
    3.9993   -8.6751    0.0000 O   0  0  0  0  0  0  0  0  0  0  0  0
    4.4118   -9.3896    0.0000 H   0  0  0  0  0  0  0  0  0  0  0  0
    3.4159   -8.0918    0.0000 C   0  0  0  0  0  0  0  0  0  0  0  0
    2.5909   -8.0918    0.0000 C   0  0  0  0  0  0  0  0  0  0  0  0
    3.7317   -7.3296    0.0000 O   0  0  0  0  0  0  0  0  0  0  0  0
    6.2532   -7.0251    0.0000 C   0  0  0  0  0  0  0  0  0  0  0  0
    5.5388   -6.6126    0.0000 O   0  0  0  0  0  0  0  0  0  0  0  0
    8.3911   -3.7533    0.0000 O   0  0  0  0  0  0  0  0  0  0  0  0
  1  2  1  0  0  0  0
  2  3  1  0  0  0  0
  3  4  2  0  0  0  0
  5  6  2  0  0  0  0
  6  1  1  0  0  0  0
  4  7  1  0  0  0  0
  7  8  1  0  0  0  0
  8  9  1  0  0  0  0
  9 10  1  0  0  0  0
 10  5  1  0  0  0  0
  3 11  1  0  0  0  0
  7 12  1  6  0  0  0
 12 13  1  0  0  0  0
 13 14  1  0  0  0  0
  8 14  1  1  0  0  0
 13 15  2  0  0  0  0
 14 16  2  0  0  0  0
  9 17  1  1  0  0  0
  9 18  1  6  0  0  0
 17 19  1  0  0  0  0
 19 20  1  0  0  0  0
 19 21  2  0  0  0  0
 20 22  2  0  0  0  0
 22 23  1  0  0  0  0
 22 24  1  0  0  0  0
 20 25  1  0  0  0  0
  2 26  1  1  0  0  0
  2 27  1  6  0  0  0
 26 28  1  0  0  0  0
 28 29  1  0  0  0  0
 28 30  2  0  0  0  0
  5 31  1  0  0  0  0
 31 32  1  0  0  0  0
 24 33  1  0  0  0  0
M  END
>  <cdx:fragmentId>
5

$$$$
