70042.cdx
  Mrv1902 05222410262D          

 34 35  0  0  0  0            999 V2000
    4.4256   -7.3276    0.0000 C   0  0  0  0  0  0  0  0  0  0  0  0
    4.4256   -8.1526    0.0000 C   0  0  1  0  0  0  0  0  0  0  0  0
    4.9338   -8.6201    0.0000 C   0  0  0  0  0  0  0  0  0  0  0  0
    5.8545   -7.3276    0.0000 C   0  0  0  0  0  0  0  0  0  0  0  0
    5.1400   -6.9151    0.0000 C   0  0  0  0  0  0  0  0  0  0  0  0
    7.2834   -8.1526    0.0000 C   0  0  2  0  0  0  0  0  0  0  0  0
    7.2834   -7.3276    0.0000 C   0  0  1  0  0  0  0  0  0  0  0  0
    6.5690   -6.9151    0.0000 C   0  0  0  0  0  0  0  0  0  0  0  0
    6.4865   -8.2149    0.0000 C   0  0  2  0  0  0  0  0  0  0  0  0
    5.6900   -8.6201    0.0000 C   0  0  0  0  0  0  0  0  0  0  0  0
    6.2995   -8.9921    0.0000 O   0  0  0  0  0  0  0  0  0  0  0  0
    6.9808   -9.4101    0.0000 C   0  0  0  0  0  0  0  0  0  0  0  0
    7.5889   -8.8913    0.0000 C   0  0  0  0  0  0  0  0  0  0  0  0
    8.3910   -9.0843    0.0000 C   0  0  0  0  0  0  0  0  0  0  0  0
    7.8668   -6.7443    0.0000 O   0  0  0  0  0  0  0  0  0  0  0  0
    8.5892   -6.3459    0.0000 C   0  0  0  0  0  0  0  0  0  0  0  0
    8.6054   -5.5210    0.0000 C   0  0  0  0  0  0  0  0  0  0  0  0
    8.2070   -4.7986    0.0000 C   0  0  0  0  0  0  0  0  0  0  0  0
    8.6334   -4.0924    0.0000 C   0  0  0  0  0  0  0  0  0  0  0  0
    7.3822   -4.7824    0.0000 H   0  0  0  0  0  0  0  0  0  0  0  0
    9.4303   -5.5372    0.0000 C   0  0  0  0  0  0  0  0  0  0  0  0
    9.2955   -6.7723    0.0000 O   0  0  0  0  0  0  0  0  0  0  0  0
    7.0451  -10.2326    0.0000 O   0  0  0  0  0  0  0  0  0  0  0  0
    6.1025   -9.3346    0.0000 H   0  0  0  0  0  0  0  0  0  0  0  0
    4.6340   -9.3888    0.0000 C   0  0  0  0  0  0  0  0  0  0  0  0
    3.7111   -7.7401    0.0000 O   0  0  0  0  0  0  0  0  0  0  0  0
    7.9979   -7.7401    0.0000 H   0  0  0  0  0  0  0  0  0  0  0  0
    3.8422   -8.7360    0.0000 H   0  0  0  0  0  0  0  0  0  0  0  0
    3.2986   -7.0257    0.0000 C   0  0  0  0  0  0  0  0  0  0  0  0
    2.4736   -7.0257    0.0000 C   0  0  0  0  0  0  0  0  0  0  0  0
    3.7111   -6.3112    0.0000 O   0  0  0  0  0  0  0  0  0  0  0  0
    5.8545   -6.5026    0.0000 C   0  0  0  0  0  0  0  0  0  0  0  0
    5.2711   -5.9193    0.0000 O   0  0  0  0  0  0  0  0  0  0  0  0
    8.2209   -3.3779    0.0000 O   0  0  0  0  0  0  0  0  0  0  0  0
  1  2  1  0  0  0  0
  2  3  1  0  0  0  0
  4  5  2  0  0  0  0
  5  1  1  0  0  0  0
  6  7  1  0  0  0  0
  7  8  1  0  0  0  0
  8  4  1  0  0  0  0
  6  9  1  0  0  0  0
  3 10  2  0  0  0  0
 10  9  1  0  0  0  0
  9 11  1  6  0  0  0
 11 12  1  0  0  0  0
 12 13  1  0  0  0  0
  6 13  1  1  0  0  0
 13 14  2  0  0  0  0
  7 15  1  1  0  0  0
 15 16  1  0  0  0  0
 16 17  1  0  0  0  0
 17 18  2  0  0  0  0
 18 19  1  0  0  0  0
 18 20  1  0  0  0  0
 17 21  1  0  0  0  0
 16 22  2  0  0  0  0
 12 23  2  0  0  0  0
 10 24  1  0  0  0  0
  3 25  1  0  0  0  0
  2 26  1  1  0  0  0
  7 27  1  6  0  0  0
  2 28  1  6  0  0  0
 26 29  1  0  0  0  0
 29 30  1  0  0  0  0
 29 31  2  0  0  0  0
  4 32  1  0  0  0  0
 32 33  1  0  0  0  0
 19 34  2  0  0  0  0
M  END
>  <cdx:fragmentId>
5

$$$$
