70059.cdx
  Mrv1902 05222410192D          

 20 21  0  0  0  0            999 V2000
    7.7256   -6.7914    0.0000 C   0  0  0  0  0  0  0  0  0  0  0  0
    7.7256   -7.6164    0.0000 C   0  0  0  0  0  0  0  0  0  0  0  0
    8.4400   -8.0289    0.0000 C   0  0  0  0  0  0  0  0  0  0  0  0
    9.1545   -7.6164    0.0000 C   0  0  0  0  0  0  0  0  0  0  0  0
    9.1545   -6.7914    0.0000 C   0  0  0  0  0  0  0  0  0  0  0  0
    8.4400   -6.3789    0.0000 C   0  0  0  0  0  0  0  0  0  0  0  0
    7.0111   -8.0289    0.0000 C   0  0  0  0  0  0  0  0  0  0  0  0
    9.8690   -6.3789    0.0000 O   0  0  0  0  0  0  0  0  0  0  0  0
    7.0111   -8.8539    0.0000 O   0  0  0  0  0  0  0  0  0  0  0  0
    6.2966   -9.2664    0.0000 C   0  0  2  0  0  0  0  0  0  0  0  0
    5.5821   -8.8539    0.0000 O   0  0  0  0  0  0  0  0  0  0  0  0
    4.8677   -9.2664    0.0000 C   0  0  1  0  0  0  0  0  0  0  0  0
    4.8677  -10.0914    0.0000 C   0  0  2  0  0  0  0  0  0  0  0  0
    5.5821  -10.5039    0.0000 C   0  0  1  0  0  0  0  0  0  0  0  0
    6.2966  -10.0914    0.0000 C   0  0  1  0  0  0  0  0  0  0  0  0
    4.1532   -8.8539    0.0000 C   0  0  0  0  0  0  0  0  0  0  0  0
    5.5821  -11.3289    0.0000 O   0  0  0  0  0  0  0  0  0  0  0  0
    7.0111  -10.5039    0.0000 O   0  0  0  0  0  0  0  0  0  0  0  0
    4.1532  -10.5039    0.0000 O   0  0  0  0  0  0  0  0  0  0  0  0
    3.4387   -9.2664    0.0000 O   0  0  0  0  0  0  0  0  0  0  0  0
  1  2  2  0  0  0  0
  2  3  1  0  0  0  0
  3  4  2  0  0  0  0
  4  5  1  0  0  0  0
  5  6  2  0  0  0  0
  6  1  1  0  0  0  0
  2  7  1  0  0  0  0
  5  8  1  0  0  0  0
  7  9  1  0  0  0  0
 10  9  1  1  0  0  0
 10 11  1  0  0  0  0
 11 12  1  0  0  0  0
 12 13  1  0  0  0  0
 13 14  1  0  0  0  0
 14 15  1  0  0  0  0
 15 10  1  0  0  0  0
 12 16  1  1  0  0  0
 14 17  1  1  0  0  0
 15 18  1  6  0  0  0
 13 19  1  6  0  0  0
 16 20  1  0  0  0  0
M  END
>  <cdx:fragmentId>
5

$$$$
