70057.cdx
  Mrv1902 05222410262D          

 36 41  0  0  0  0            999 V2000
    2.1293   -9.5414    0.0000 C   0  0  0  0  0  0  0  0  0  0  0  0
    2.1293  -10.3664    0.0000 C   0  0  0  0  0  0  0  0  0  0  0  0
    2.8438  -10.7789    0.0000 C   0  0  0  0  0  0  0  0  0  0  0  0
    3.5582  -10.3664    0.0000 C   0  0  0  0  0  0  0  0  0  0  0  0
    3.5582   -9.5414    0.0000 C   0  0  0  0  0  0  0  0  0  0  0  0
    2.8438   -9.1289    0.0000 C   0  0  0  0  0  0  0  0  0  0  0  0
    4.2727  -10.7789    0.0000 C   0  0  0  0  0  0  0  0  0  0  0  0
    4.9872  -10.3664    0.0000 C   0  0  0  0  0  0  0  0  0  0  0  0
    4.9872   -9.5414    0.0000 C   0  0  0  0  0  0  0  0  0  0  0  0
    4.2727   -9.1289    0.0000 C   0  0  0  0  0  0  0  0  0  0  0  0
    4.2727   -8.3039    0.0000 C   0  0  0  0  0  0  0  0  0  0  0  0
    3.5582   -7.8914    0.0000 O   0  0  0  0  0  0  0  0  0  0  0  0
    5.7017   -9.1289    0.0000 C   0  0  0  0  0  0  0  0  0  0  0  0
    5.7017   -8.3039    0.0000 C   0  0  0  0  0  0  0  0  0  0  0  0
    4.9872   -7.8914    0.0000 C   0  0  0  0  0  0  0  0  0  0  0  0
    6.4161   -9.5414    0.0000 O   0  0  0  0  0  0  0  0  0  0  0  0
    7.1306   -9.1289    0.0000 C   0  0  0  0  0  0  0  0  0  0  0  0
    7.1306   -8.3039    0.0000 C   0  0  0  0  0  0  0  0  0  0  0  0
    7.8451   -9.5414    0.0000 C   0  0  0  0  0  0  0  0  0  0  0  0
    8.5595   -9.1289    0.0000 C   0  0  0  0  0  0  0  0  0  0  0  0
    8.5595   -8.3039    0.0000 C   0  0  0  0  0  0  0  0  0  0  0  0
    7.8451   -7.8914    0.0000 C   0  0  0  0  0  0  0  0  0  0  0  0
    9.2740   -9.5414    0.0000 C   0  0  0  0  0  0  0  0  0  0  0  0
    9.9885   -9.1289    0.0000 C   0  0  0  0  0  0  0  0  0  0  0  0
    9.9885   -8.3039    0.0000 C   0  0  0  0  0  0  0  0  0  0  0  0
    9.2740   -7.8914    0.0000 C   0  0  0  0  0  0  0  0  0  0  0  0
   10.7030   -7.8914    0.0000 C   0  0  0  0  0  0  0  0  0  0  0  0
   10.7030   -7.0664    0.0000 C   0  0  0  0  0  0  0  0  0  0  0  0
    9.9885   -6.6539    0.0000 C   0  0  0  0  0  0  0  0  0  0  0  0
    9.2740   -7.0664    0.0000 C   0  0  0  0  0  0  0  0  0  0  0  0
   12.1319   -7.0664    0.0000 C   0  0  0  0  0  0  0  0  0  0  0  0
   11.4174   -6.6539    0.0000 O   0  0  0  0  0  0  0  0  0  0  0  0
    1.4148  -10.7789    0.0000 O   0  0  0  0  0  0  0  0  0  0  0  0
    4.9872   -7.0664    0.0000 O   0  0  0  0  0  0  0  0  0  0  0  0
    5.7017   -6.6539    0.0000 C   0  0  0  0  0  0  0  0  0  0  0  0
    8.5595   -6.6539    0.0000 O   0  0  0  0  0  0  0  0  0  0  0  0
  1  2  1  0  0  0  0
  2  3  2  0  0  0  0
  3  4  1  0  0  0  0
  4  5  2  0  0  0  0
  5  6  1  0  0  0  0
  6  1  2  0  0  0  0
  4  7  1  0  0  0  0
  7  8  1  0  0  0  0
  8  9  1  0  0  0  0
  9 10  2  0  0  0  0
 10  5  1  0  0  0  0
 10 11  1  0  0  0  0
 11 12  1  0  0  0  0
  9 13  1  0  0  0  0
 13 14  2  0  0  0  0
 14 15  1  0  0  0  0
 15 11  2  0  0  0  0
 13 16  1  0  0  0  0
 16 17  1  0  0  0  0
 17 18  1  0  0  0  0
 17 19  2  0  0  0  0
 19 20  1  0  0  0  0
 20 21  2  0  0  0  0
 21 22  1  0  0  0  0
 22 18  2  0  0  0  0
 20 23  1  0  0  0  0
 23 24  1  0  0  0  0
 24 25  1  0  0  0  0
 25 26  2  0  0  0  0
 26 21  1  0  0  0  0
 25 27  1  0  0  0  0
 27 28  2  0  0  0  0
 28 29  1  0  0  0  0
 29 30  2  0  0  0  0
 30 26  1  0  0  0  0
 31 32  1  0  0  0  0
 32 28  1  0  0  0  0
  2 33  1  0  0  0  0
 15 34  1  0  0  0  0
 34 35  1  0  0  0  0
 30 36  1  0  0  0  0
M  END
>  <cdx:fragmentId>
5

$$$$
