70052.cdx
  Mrv1902 05222410282D          

 20 22  0  0  0  0            999 V2000
    5.8968   -7.0526    0.0000 C   0  0  0  0  0  0  0  0  0  0  0  0
    5.8968   -7.8776    0.0000 C   0  0  0  0  0  0  0  0  0  0  0  0
    6.6113   -8.2901    0.0000 C   0  0  0  0  0  0  0  0  0  0  0  0
    7.3257   -7.8776    0.0000 C   0  0  0  0  0  0  0  0  0  0  0  0
    7.3257   -7.0526    0.0000 C   0  0  0  0  0  0  0  0  0  0  0  0
    6.6113   -6.6401    0.0000 C   0  0  0  0  0  0  0  0  0  0  0  0
    8.0402   -8.2901    0.0000 C   0  0  0  0  0  0  0  0  0  0  0  0
    8.7547   -7.8776    0.0000 C   0  0  0  0  0  0  0  0  0  0  0  0
    8.7547   -7.0526    0.0000 C   0  0  0  0  0  0  0  0  0  0  0  0
    8.0402   -6.6401    0.0000 C   0  0  0  0  0  0  0  0  0  0  0  0
    8.0402   -5.8151    0.0000 C   0  0  0  0  0  0  0  0  0  0  0  0
    6.6113   -5.8151    0.0000 O   0  0  0  0  0  0  0  0  0  0  0  0
    9.4692   -6.6401    0.0000 C   0  0  0  0  0  0  0  0  0  0  0  0
    9.4692   -5.8151    0.0000 C   0  0  0  0  0  0  0  0  0  0  0  0
    8.7547   -5.4026    0.0000 C   0  0  0  0  0  0  0  0  0  0  0  0
   10.1836   -5.4026    0.0000 O   0  0  0  0  0  0  0  0  0  0  0  0
    5.1823   -8.2901    0.0000 O   0  0  0  0  0  0  0  0  0  0  0  0
    5.8968   -5.4026    0.0000 C   0  0  0  0  0  0  0  0  0  0  0  0
    5.1823   -6.6401    0.0000 O   0  0  0  0  0  0  0  0  0  0  0  0
    4.4679   -7.0526    0.0000 C   0  0  0  0  0  0  0  0  0  0  0  0
  1  2  1  0  0  0  0
  2  3  2  0  0  0  0
  3  4  1  0  0  0  0
  4  5  2  0  0  0  0
  5  6  1  0  0  0  0
  6  1  2  0  0  0  0
  4  7  1  0  0  0  0
  7  8  1  0  0  0  0
  8  9  1  0  0  0  0
  9 10  2  0  0  0  0
 10  5  1  0  0  0  0
 10 11  1  0  0  0  0
 12  6  1  0  0  0  0
  9 13  1  0  0  0  0
 13 14  2  0  0  0  0
 14 15  1  0  0  0  0
 15 11  2  0  0  0  0
 14 16  1  0  0  0  0
  2 17  1  0  0  0  0
 12 18  1  0  0  0  0
  1 19  1  0  0  0  0
 19 20  1  0  0  0  0
M  END
>  <cdx:fragmentId>
5

$$$$
