70056.cdx
  Mrv1902 05222410262D          

 36 41  0  0  0  0            999 V2000
    2.9818   -8.7989    0.0000 C   0  0  0  0  0  0  0  0  0  0  0  0
    2.9818   -9.6239    0.0000 O   0  0  0  0  0  0  0  0  0  0  0  0
    3.6963  -10.0364    0.0000 O   0  0  0  0  0  0  0  0  0  0  0  0
    4.4107   -9.6239    0.0000 C   0  0  0  0  0  0  0  0  0  0  0  0
    4.4107   -8.7989    0.0000 C   0  0  0  0  0  0  0  0  0  0  0  0
    3.6963   -8.3864    0.0000 C   0  0  0  0  0  0  0  0  0  0  0  0
    5.1252  -10.0364    0.0000 C   0  0  0  0  0  0  0  0  0  0  0  0
    5.8397   -9.6239    0.0000 C   0  0  0  0  0  0  0  0  0  0  0  0
    5.8397   -8.7989    0.0000 C   0  0  0  0  0  0  0  0  0  0  0  0
    5.1252   -8.3864    0.0000 C   0  0  0  0  0  0  0  0  0  0  0  0
    5.1252   -7.5614    0.0000 C   0  0  0  0  0  0  0  0  0  0  0  0
    6.5542   -8.3864    0.0000 C   0  0  0  0  0  0  0  0  0  0  0  0
    6.5542   -7.5614    0.0000 C   0  0  0  0  0  0  0  0  0  0  0  0
    7.2686   -9.6239    0.0000 C   0  0  0  0  0  0  0  0  0  0  0  0
    7.2686   -8.7989    0.0000 C   0  0  0  0  0  0  0  0  0  0  0  0
    7.9831  -10.0364    0.0000 C   0  0  0  0  0  0  0  0  0  0  0  0
    8.6976   -9.6239    0.0000 C   0  0  0  0  0  0  0  0  0  0  0  0
    8.6976   -8.7989    0.0000 C   0  0  0  0  0  0  0  0  0  0  0  0
    7.9831   -8.3864    0.0000 C   0  0  0  0  0  0  0  0  0  0  0  0
    9.4120  -10.0364    0.0000 C   0  0  0  0  0  0  0  0  0  0  0  0
   10.1265   -9.6239    0.0000 C   0  0  0  0  0  0  0  0  0  0  0  0
   10.1265   -8.7989    0.0000 C   0  0  0  0  0  0  0  0  0  0  0  0
    9.4120   -8.3864    0.0000 C   0  0  0  0  0  0  0  0  0  0  0  0
   10.1265   -7.1489    0.0000 C   0  0  0  0  0  0  0  0  0  0  0  0
    9.4120   -7.5614    0.0000 O   0  0  0  0  0  0  0  0  0  0  0  0
    3.6963   -7.5614    0.0000 C   0  0  0  0  0  0  0  0  0  0  0  0
    2.9818   -7.1489    0.0000 C   0  0  0  0  0  0  0  0  0  0  0  0
    2.2673   -7.5614    0.0000 C   0  0  0  0  0  0  0  0  0  0  0  0
    2.2673   -8.3864    0.0000 C   0  0  0  0  0  0  0  0  0  0  0  0
    4.4107   -7.1489    0.0000 C   0  0  0  0  0  0  0  0  0  0  0  0
    7.9831   -7.5614    0.0000 C   0  0  0  0  0  0  0  0  0  0  0  0
    7.2686   -7.1489    0.0000 C   0  0  0  0  0  0  0  0  0  0  0  0
    8.6976   -7.1489    0.0000 O   0  0  0  0  0  0  0  0  0  0  0  0
   10.8410  -10.0364    0.0000 O   0  0  0  0  0  0  0  0  0  0  0  0
    6.5542  -10.0364    0.0000 O   0  0  0  0  0  0  0  0  0  0  0  0
    3.6963  -10.8614    0.0000 C   0  0  0  0  0  0  0  0  0  0  0  0
  1  2  1  0  0  0  0
  3  4  1  0  0  0  0
  4  5  1  0  0  0  0
  5  6  1  0  0  0  0
  6  1  2  0  0  0  0
  4  7  2  0  0  0  0
  7  8  1  0  0  0  0
  8  9  2  0  0  0  0
  9 10  1  0  0  0  0
 10  5  2  0  0  0  0
 10 11  1  0  0  0  0
  9 12  1  0  0  0  0
 12 13  2  0  0  0  0
 14 15  1  0  0  0  0
 15 12  1  0  0  0  0
 14 16  2  0  0  0  0
 16 17  1  0  0  0  0
 17 18  2  0  0  0  0
 18 19  1  0  0  0  0
 19 15  2  0  0  0  0
 17 20  1  0  0  0  0
 20 21  2  0  0  0  0
 21 22  1  0  0  0  0
 22 23  2  0  0  0  0
 23 18  1  0  0  0  0
 24 25  1  0  0  0  0
 25 23  1  0  0  0  0
  6 26  1  0  0  0  0
 26 27  2  0  0  0  0
 27 28  1  0  0  0  0
 28 29  2  0  0  0  0
 29  1  1  0  0  0  0
 11 30  2  0  0  0  0
 30 26  1  0  0  0  0
 19 31  1  0  0  0  0
 31 32  2  0  0  0  0
 32 13  1  0  0  0  0
 31 33  1  0  0  0  0
 21 34  1  0  0  0  0
  8 35  1  0  0  0  0
  3 36  1  0  0  0  0
M  END
>  <cdx:fragmentId>
5

$$$$
