70050.cdx
  Mrv1902 05222410272D          

 18 20  0  0  0  0            999 V2000
    4.1537   -7.9318    0.0000 C   0  0  0  0  0  0  0  0  0  0  0  0
    4.8681   -8.3443    0.0000 O   0  0  0  0  0  0  0  0  0  0  0  0
    5.5643   -7.0964    0.0000 C   0  0  0  0  0  0  0  0  0  0  0  0
    5.5764   -7.9213    0.0000 C   0  0  0  0  0  0  0  0  0  0  0  0
    6.2969   -8.3232    0.0000 C   0  0  0  0  0  0  0  0  0  0  0  0
    6.9687   -5.4255    0.0000 O   0  0  0  0  0  0  0  0  0  0  0  0
    6.2604   -5.8485    0.0000 O   0  0  0  0  0  0  0  0  0  0  0  0
    6.2726   -6.6734    0.0000 C   0  0  0  0  0  0  0  0  0  0  0  0
    6.9931   -7.0753    0.0000 C   0  0  0  0  0  0  0  0  0  0  0  0
    7.0052   -7.9002    0.0000 C   0  0  0  0  0  0  0  0  0  0  0  0
    7.7257   -8.3022    0.0000 C   0  0  0  0  0  0  0  0  0  0  0  0
    8.4340   -7.8792    0.0000 C   0  0  0  0  0  0  0  0  0  0  0  0
    7.6892   -5.8274    0.0000 C   0  0  0  0  0  0  0  0  0  0  0  0
    7.7014   -6.6523    0.0000 C   0  0  0  0  0  0  0  0  0  0  0  0
    8.4219   -7.0543    0.0000 C   0  0  0  0  0  0  0  0  0  0  0  0
    9.1302   -6.6313    0.0000 C   0  0  0  0  0  0  0  0  0  0  0  0
    9.1180   -5.8064    0.0000 C   0  0  0  0  0  0  0  0  0  0  0  0
    8.3975   -5.4044    0.0000 C   0  0  0  0  0  0  0  0  0  0  0  0
  2  1  1  0  0  0  0
  4  2  1  0  0  0  0
  3  8  2  0  0  0  0
  4  3  1  0  0  0  0
  5  4  2  0  0  0  0
 10  5  1  0  0  0  0
  6 13  1  0  0  0  0
  8  7  1  0  0  0  0
  9  8  1  0  0  0  0
  9 14  1  0  0  0  0
 10  9  2  0  0  0  0
 11 10  1  0  0  0  0
 12 11  1  0  0  0  0
 15 12  1  0  0  0  0
 13 18  2  0  0  0  0
 14 13  1  0  0  0  0
 15 14  2  0  0  0  0
 16 15  1  0  0  0  0
 17 16  2  0  0  0  0
 18 17  1  0  0  0  0
M  END
>  <cdx:fragmentId>
5

$$$$
