70051.cdx
  Mrv1902 05222410272D          

 20 22  0  0  0  0            999 V2000
    5.4568   -9.1151    0.0000 C   0  0  0  0  0  0  0  0  0  0  0  0
    5.4568   -9.9401    0.0000 C   0  0  0  0  0  0  0  0  0  0  0  0
    6.1713  -10.3526    0.0000 C   0  0  0  0  0  0  0  0  0  0  0  0
    6.8857   -9.9401    0.0000 C   0  0  2  0  0  0  0  0  0  0  0  0
    6.8857   -9.1151    0.0000 C   0  0  2  0  0  0  0  0  0  0  0  0
    6.1713   -8.7026    0.0000 C   0  0  0  0  0  0  0  0  0  0  0  0
    7.6002  -10.3526    0.0000 C   0  0  0  0  0  0  0  0  0  0  0  0
    8.3147   -9.9401    0.0000 C   0  0  0  0  0  0  0  0  0  0  0  0
    8.3147   -9.1151    0.0000 C   0  0  0  0  0  0  0  0  0  0  0  0
    7.6002   -8.7026    0.0000 C   0  0  0  0  0  0  0  0  0  0  0  0
    7.6002   -7.8776    0.0000 C   0  0  0  0  0  0  0  0  0  0  0  0
    9.0292   -8.7026    0.0000 C   0  0  0  0  0  0  0  0  0  0  0  0
    9.0292   -7.8776    0.0000 C   0  0  0  0  0  0  0  0  0  0  0  0
    8.3147   -7.4651    0.0000 C   0  0  0  0  0  0  0  0  0  0  0  0
    4.7423  -10.3526    0.0000 O   0  0  0  0  0  0  0  0  0  0  0  0
    6.1713   -7.8776    0.0000 O   0  0  0  0  0  0  0  0  0  0  0  0
    5.4568   -7.4651    0.0000 C   0  0  0  0  0  0  0  0  0  0  0  0
    6.8857   -7.4651    0.0000 O   0  0  0  0  0  0  0  0  0  0  0  0
    6.8857   -8.2901    0.0000 O   0  0  0  0  0  0  0  0  0  0  0  0
    6.8857  -10.7651    0.0000 H   0  0  0  0  0  0  0  0  0  0  0  0
  1  2  1  0  0  0  0
  2  3  1  0  0  0  0
  3  4  1  0  0  0  0
  4  5  1  0  0  0  0
  5  6  1  0  0  0  0
  6  1  2  0  0  0  0
  4  7  1  0  0  0  0
  7  8  1  0  0  0  0
  8  9  1  0  0  0  0
  9 10  1  0  0  0  0
 10  5  1  0  0  0  0
 10 11  2  0  0  0  0
  9 12  2  0  0  0  0
 12 13  1  0  0  0  0
 13 14  2  0  0  0  0
 14 11  1  0  0  0  0
  2 15  2  0  0  0  0
  6 16  1  0  0  0  0
 16 17  1  0  0  0  0
 11 18  1  0  0  0  0
  5 19  1  1  0  0  0
  4 20  1  1  0  0  0
M  END
>  <cdx:fragmentId>
5

$$$$
