70065.cdx
  Mrv1902 05222410192D          

 43 47  0  0  0  0            999 V2000
    5.7729   -9.7482    0.0000 O   0  0  0  0  0  0  0  0  0  0  0  0
    4.3429   -7.2738    0.0000 O   0  0  0  0  0  0  0  0  0  0  0  0
    4.3436   -8.9238    0.0000 O   0  0  0  0  0  0  0  0  0  0  0  0
    5.0568   -6.0360    0.0000 O   0  0  0  0  0  0  0  0  0  0  0  0
    5.7715   -6.4482    0.0000 C   0  0  0  0  0  0  0  0  0  0  0  0
    7.2015   -8.9226    0.0000 O   0  0  0  0  0  0  0  0  0  0  0  0
    7.2015   -9.7476    0.0000 C   0  0  0  0  0  0  0  0  0  0  0  0
    6.4870  -10.1601    0.0000 C   0  0  0  0  0  0  0  0  0  0  0  0
    7.9159  -10.1601    0.0000 C   0  0  0  0  0  0  0  0  0  0  0  0
    7.9159  -10.9851    0.0000 C   0  0  0  0  0  0  0  0  0  0  0  0
    7.2015  -11.3976    0.0000 C   0  0  0  0  0  0  0  0  0  0  0  0
    6.4870  -10.9851    0.0000 C   0  0  0  0  0  0  0  0  0  0  0  0
    8.6304   -9.7476    0.0000 C   0  0  0  0  0  0  0  0  0  0  0  0
    9.3449  -10.1601    0.0000 C   0  0  0  0  0  0  0  0  0  0  0  0
    9.3449  -10.9851    0.0000 C   0  0  0  0  0  0  0  0  0  0  0  0
    8.6304  -11.3976    0.0000 C   0  0  0  0  0  0  0  0  0  0  0  0
   10.0594   -9.7476    0.0000 C   0  0  0  0  0  0  0  0  0  0  0  0
   10.7738  -10.1601    0.0000 C   0  0  0  0  0  0  0  0  0  0  0  0
   10.7738  -10.9851    0.0000 C   0  0  0  0  0  0  0  0  0  0  0  0
   10.0594  -11.3976    0.0000 C   0  0  0  0  0  0  0  0  0  0  0  0
    5.7725  -11.3976    0.0000 C   0  0  0  0  0  0  0  0  0  0  0  0
    8.6304   -8.9226    0.0000 O   0  0  0  0  0  0  0  0  0  0  0  0
    8.6304  -12.2226    0.0000 O   0  0  0  0  0  0  0  0  0  0  0  0
   10.0594   -8.9226    0.0000 O   0  0  0  0  0  0  0  0  0  0  0  0
   11.4883  -11.3976    0.0000 O   0  0  0  0  0  0  0  0  0  0  0  0
   12.2028  -10.9851    0.0000 C   0  0  0  0  0  0  0  0  0  0  0  0
    6.4865   -7.6854    0.0000 O   0  0  0  0  0  0  0  0  0  0  0  0
    6.4868   -8.5104    0.0000 C   0  0  2  0  0  0  0  0  0  0  0  0
    5.7725   -8.9232    0.0000 C   0  0  1  0  0  0  0  0  0  0  0  0
    5.0579   -8.5110    0.0000 C   0  0  2  0  0  0  0  0  0  0  0  0
    5.0575   -7.6860    0.0000 C   0  0  1  0  0  0  0  0  0  0  0  0
    5.7718   -7.2732    0.0000 C   0  0  1  0  0  0  0  0  0  0  0  0
    5.0565   -5.2110    0.0000 C   0  0  2  0  0  0  0  0  0  0  0  0
    5.7711   -4.7987    0.0000 O   0  0  0  0  0  0  0  0  0  0  0  0
    5.7711   -3.9737    0.0000 C   0  0  1  0  0  0  0  0  0  0  0  0
    5.0565   -3.5610    0.0000 C   0  0  2  0  0  0  0  0  0  0  0  0
    4.3419   -3.9737    0.0000 C   0  0  1  0  0  0  0  0  0  0  0  0
    4.3419   -4.7987    0.0000 C   0  0  1  0  0  0  0  0  0  0  0  0
    6.4856   -3.5612    0.0000 C   0  0  0  0  0  0  0  0  0  0  0  0
    3.6275   -3.5612    0.0000 O   0  0  0  0  0  0  0  0  0  0  0  0
    5.0565   -2.7360    0.0000 O   0  0  0  0  0  0  0  0  0  0  0  0
    3.6275   -5.2113    0.0000 O   0  0  0  0  0  0  0  0  0  0  0  0
    6.4856   -2.7362    0.0000 O   0  0  0  0  0  0  0  0  0  0  0  0
 29  1  1  6  0  0  0
 31  2  1  6  0  0  0
 30  3  1  1  0  0  0
  5  4  1  0  0  0  0
 32  5  1  1  0  0  0
 28  6  1  1  0  0  0
 27 32  1  0  0  0  0
 28 27  1  0  0  0  0
  6  7  1  0  0  0  0
  7  8  2  0  0  0  0
  7  9  1  0  0  0  0
  9 10  2  0  0  0  0
 10 11  1  0  0  0  0
 11 12  2  0  0  0  0
 12  8  1  0  0  0  0
  9 13  1  0  0  0  0
 13 14  1  0  0  0  0
 14 15  2  0  0  0  0
 15 16  1  0  0  0  0
 16 10  1  0  0  0  0
 14 17  1  0  0  0  0
 17 18  2  0  0  0  0
 18 19  1  0  0  0  0
 19 20  2  0  0  0  0
 20 15  1  0  0  0  0
 29 28  1  0  0  0  0
 30 29  1  0  0  0  0
 31 30  1  0  0  0  0
 32 31  1  0  0  0  0
 12 21  1  0  0  0  0
 13 22  2  0  0  0  0
 16 23  2  0  0  0  0
 17 24  1  0  0  0  0
 19 25  1  0  0  0  0
 25 26  1  0  0  0  0
 33  4  1  1  0  0  0
 33 34  1  0  0  0  0
 34 35  1  0  0  0  0
 35 36  1  0  0  0  0
 36 37  1  0  0  0  0
 37 38  1  0  0  0  0
 38 33  1  0  0  0  0
 35 39  1  1  0  0  0
 37 40  1  1  0  0  0
 36 41  1  6  0  0  0
 38 42  1  6  0  0  0
 39 43  1  0  0  0  0
M  END
>  <cdx:fragmentId>
5

$$$$
