70067.cdx
  Mrv1902 05222410202D          

 39 42  0  0  0  0            999 V2000
    7.7118   -8.0099    0.0000 C   0  0  0  0  0  0  0  0  0  0  0  0
    7.7118   -7.1849    0.0000 C   0  0  0  0  0  0  0  0  0  0  0  0
    8.4263   -6.7724    0.0000 C   0  0  0  0  0  0  0  0  0  0  0  0
    9.1407   -7.1849    0.0000 C   0  0  0  0  0  0  0  0  0  0  0  0
    9.1407   -8.0099    0.0000 C   0  0  0  0  0  0  0  0  0  0  0  0
    8.4263   -8.4224    0.0000 C   0  0  0  0  0  0  0  0  0  0  0  0
    9.8552   -6.7724    0.0000 O   0  0  0  0  0  0  0  0  0  0  0  0
   10.5697   -7.1849    0.0000 C   0  0  0  0  0  0  0  0  0  0  0  0
   10.5697   -8.0099    0.0000 C   0  0  0  0  0  0  0  0  0  0  0  0
    9.8552   -8.4224    0.0000 C   0  0  0  0  0  0  0  0  0  0  0  0
   11.2842   -8.4224    0.0000 C   0  0  0  0  0  0  0  0  0  0  0  0
   11.2842   -9.2474    0.0000 C   0  0  0  0  0  0  0  0  0  0  0  0
    9.8552   -9.2474    0.0000 O   0  0  0  0  0  0  0  0  0  0  0  0
   11.9986   -8.0099    0.0000 C   0  0  0  0  0  0  0  0  0  0  0  0
   12.7131   -8.4224    0.0000 C   0  0  0  0  0  0  0  0  0  0  0  0
   12.7131   -9.2474    0.0000 C   0  0  0  0  0  0  0  0  0  0  0  0
   11.9986   -9.6599    0.0000 C   0  0  0  0  0  0  0  0  0  0  0  0
   13.4276   -8.0099    0.0000 O   0  0  0  0  0  0  0  0  0  0  0  0
   13.4276   -9.6599    0.0000 O   0  0  0  0  0  0  0  0  0  0  0  0
    6.9973   -6.7724    0.0000 O   0  0  0  0  0  0  0  0  0  0  0  0
    8.4263   -9.2474    0.0000 O   0  0  0  0  0  0  0  0  0  0  0  0
   13.4276  -10.4849    0.0000 C   0  0  0  0  0  0  0  0  0  0  0  0
    6.2829   -7.1849    0.0000 C   0  0  2  0  0  0  0  0  0  0  0  0
    5.5684   -6.7724    0.0000 O   0  0  0  0  0  0  0  0  0  0  0  0
    4.8539   -7.1849    0.0000 C   0  0  1  0  0  0  0  0  0  0  0  0
    4.8539   -8.0099    0.0000 C   0  0  2  0  0  0  0  0  0  0  0  0
    5.5684   -8.4224    0.0000 C   0  0  1  0  0  0  0  0  0  0  0  0
    6.2829   -8.0099    0.0000 C   0  0  1  0  0  0  0  0  0  0  0  0
    4.1394   -6.7724    0.0000 C   0  0  0  0  0  0  0  0  0  0  0  0
    5.5684   -9.2474    0.0000 O   0  0  0  0  0  0  0  0  0  0  0  0
    6.9973   -8.4224    0.0000 O   0  0  0  0  0  0  0  0  0  0  0  0
    4.1394   -8.4224    0.0000 O   0  0  0  0  0  0  0  0  0  0  0  0
    3.4250   -7.1849    0.0000 O   0  0  0  0  0  0  0  0  0  0  0  0
    2.7105   -6.7724    0.0000 C   0  0  0  0  0  0  0  0  0  0  0  0
    1.9960   -7.1849    0.0000 C   0  0  0  0  0  0  0  0  0  0  0  0
    1.2816   -6.7724    0.0000 C   0  0  0  0  0  0  0  0  0  0  0  0
    0.5671   -7.1849    0.0000 O   0  0  0  0  0  0  0  0  0  0  0  0
    1.2816   -5.9474    0.0000 O   0  0  0  0  0  0  0  0  0  0  0  0
    2.7105   -5.9474    0.0000 O   0  0  0  0  0  0  0  0  0  0  0  0
  1  2  2  0  0  0  0
  2  3  1  0  0  0  0
  3  4  2  0  0  0  0
  4  5  1  0  0  0  0
  5  6  2  0  0  0  0
  6  1  1  0  0  0  0
  4  7  1  0  0  0  0
  7  8  1  0  0  0  0
  8  9  2  0  0  0  0
  9 10  1  0  0  0  0
 10  5  1  0  0  0  0
  9 11  1  0  0  0  0
 11 12  1  0  0  0  0
 13 10  2  0  0  0  0
 11 14  2  0  0  0  0
 14 15  1  0  0  0  0
 15 16  2  0  0  0  0
 16 17  1  0  0  0  0
 17 12  2  0  0  0  0
 15 18  1  0  0  0  0
 19 16  1  0  0  0  0
  2 20  1  0  0  0  0
  6 21  1  0  0  0  0
 19 22  1  0  0  0  0
 23 20  1  1  0  0  0
 23 24  1  0  0  0  0
 24 25  1  0  0  0  0
 25 26  1  0  0  0  0
 26 27  1  0  0  0  0
 27 28  1  0  0  0  0
 28 23  1  0  0  0  0
 25 29  1  1  0  0  0
 27 30  1  1  0  0  0
 28 31  1  6  0  0  0
 26 32  1  6  0  0  0
 29 33  1  0  0  0  0
 33 34  1  0  0  0  0
 34 35  1  0  0  0  0
 35 36  1  0  0  0  0
 36 37  1  0  0  0  0
 36 38  2  0  0  0  0
 34 39  2  0  0  0  0
M  END
>  <cdx:fragmentId>
5

$$$$
