70069.cdx
  Mrv1902 05222410272D          

 21 21  0  0  0  0            999 V2000
    3.9581  -10.3801    0.0000 C   0  0  0  0  0  0  0  0  0  0  0  0
    3.9581  -11.2051    0.0000 C   0  0  2  0  0  0  0  0  0  0  0  0
    4.6725  -11.6176    0.0000 C   0  0  1  0  0  0  0  0  0  0  0  0
    5.3870  -11.2051    0.0000 C   0  0  2  0  0  0  0  0  0  0  0  0
    5.3870  -10.3801    0.0000 C   0  0  1  0  0  0  0  0  0  0  0  0
    4.6725   -9.9676    0.0000 O   0  0  0  0  0  0  0  0  0  0  0  0
    6.1015   -9.9676    0.0000 O   0  0  0  0  0  0  0  0  0  0  0  0
    6.8159  -10.3801    0.0000 C   0  0  0  0  0  0  0  0  0  0  0  0
    7.5304   -9.9676    0.0000 C   0  0  2  0  0  0  0  0  0  0  0  0
    7.5304   -9.1426    0.0000 C   0  0  2  0  0  0  0  0  0  0  0  0
    8.2449   -8.7301    0.0000 C   0  0  1  0  0  0  0  0  0  0  0  0
    8.2449   -7.9051    0.0000 C   0  0  2  0  0  0  0  0  0  0  0  0
    8.9594   -7.4926    0.0000 C   0  0  0  0  0  0  0  0  0  0  0  0
    8.9594   -6.6676    0.0000 O   0  0  0  0  0  0  0  0  0  0  0  0
    4.6725  -12.4426    0.0000 O   0  0  0  0  0  0  0  0  0  0  0  0
    6.8159   -8.7301    0.0000 O   0  0  0  0  0  0  0  0  0  0  0  0
    8.9594   -9.1426    0.0000 O   0  0  0  0  0  0  0  0  0  0  0  0
    7.5304   -7.4926    0.0000 O   0  0  0  0  0  0  0  0  0  0  0  0
    3.2436  -11.6176    0.0000 O   0  0  0  0  0  0  0  0  0  0  0  0
    6.1015  -11.6176    0.0000 O   0  0  0  0  0  0  0  0  0  0  0  0
    8.2449  -10.3801    0.0000 O   0  0  0  0  0  0  0  0  0  0  0  0
  1  2  1  0  0  0  0
  2  3  1  0  0  0  0
  3  4  1  0  0  0  0
  4  5  1  0  0  0  0
  5  6  1  0  0  0  0
  6  1  1  0  0  0  0
  5  7  1  1  0  0  0
  7  8  1  0  0  0  0
  8  9  1  0  0  0  0
  9 10  1  0  0  0  0
 10 11  1  0  0  0  0
 11 12  1  0  0  0  0
 12 13  1  0  0  0  0
 13 14  2  0  0  0  0
  3 15  1  1  0  0  0
 10 16  1  1  0  0  0
 11 17  1  1  0  0  0
 12 18  1  1  0  0  0
  2 19  1  6  0  0  0
  4 20  1  6  0  0  0
  9 21  1  6  0  0  0
M  END
>  <cdx:fragmentId>
5

$$$$
