70065.cdx
  Mrv1902 05222410202D          

 32 35  0  0  0  0            999 V2000
    5.8402   -4.1789    0.0000 O   0  0  0  0  0  0  0  0  0  0  0  0
    5.8402   -5.0039    0.0000 C   0  0  0  0  0  0  0  0  0  0  0  0
    5.1257   -5.4164    0.0000 C   0  0  0  0  0  0  0  0  0  0  0  0
    6.5547   -5.4164    0.0000 C   0  0  0  0  0  0  0  0  0  0  0  0
    6.5547   -6.2414    0.0000 C   0  0  0  0  0  0  0  0  0  0  0  0
    5.8402   -6.6539    0.0000 C   0  0  0  0  0  0  0  0  0  0  0  0
    5.1257   -6.2414    0.0000 C   0  0  0  0  0  0  0  0  0  0  0  0
    7.2692   -5.0039    0.0000 C   0  0  0  0  0  0  0  0  0  0  0  0
    7.9836   -5.4164    0.0000 C   0  0  0  0  0  0  0  0  0  0  0  0
    7.9836   -6.2414    0.0000 C   0  0  0  0  0  0  0  0  0  0  0  0
    7.2692   -6.6539    0.0000 C   0  0  0  0  0  0  0  0  0  0  0  0
    8.6981   -5.0039    0.0000 C   0  0  0  0  0  0  0  0  0  0  0  0
    9.4126   -5.4164    0.0000 C   0  0  0  0  0  0  0  0  0  0  0  0
    9.4126   -6.2414    0.0000 C   0  0  0  0  0  0  0  0  0  0  0  0
    8.6981   -6.6539    0.0000 C   0  0  0  0  0  0  0  0  0  0  0  0
    4.4113   -6.6539    0.0000 C   0  0  0  0  0  0  0  0  0  0  0  0
    7.2692   -4.1789    0.0000 O   0  0  0  0  0  0  0  0  0  0  0  0
    7.2692   -7.4789    0.0000 O   0  0  0  0  0  0  0  0  0  0  0  0
    8.6981   -4.1789    0.0000 O   0  0  0  0  0  0  0  0  0  0  0  0
   10.1270   -6.6539    0.0000 O   0  0  0  0  0  0  0  0  0  0  0  0
   10.8415   -6.2414    0.0000 C   0  0  0  0  0  0  0  0  0  0  0  0
    9.4126   -3.7664    0.0000 C   0  0  2  0  0  0  0  0  0  0  0  0
   10.1270   -4.1789    0.0000 O   0  0  0  0  0  0  0  0  0  0  0  0
   10.8415   -3.7664    0.0000 C   0  0  1  0  0  0  0  0  0  0  0  0
   10.8415   -2.9414    0.0000 C   0  0  2  0  0  0  0  0  0  0  0  0
   10.1270   -2.5289    0.0000 C   0  0  1  0  0  0  0  0  0  0  0  0
    9.4126   -2.9414    0.0000 C   0  0  1  0  0  0  0  0  0  0  0  0
   11.5560   -4.1789    0.0000 C   0  0  0  0  0  0  0  0  0  0  0  0
   10.1270   -1.7039    0.0000 O   0  0  0  0  0  0  0  0  0  0  0  0
   11.5560   -2.5289    0.0000 O   0  0  0  0  0  0  0  0  0  0  0  0
    8.6981   -2.5289    0.0000 O   0  0  0  0  0  0  0  0  0  0  0  0
   12.2705   -3.7664    0.0000 O   0  0  0  0  0  0  0  0  0  0  0  0
  1  2  1  0  0  0  0
  2  3  2  0  0  0  0
  2  4  1  0  0  0  0
  4  5  2  0  0  0  0
  5  6  1  0  0  0  0
  6  7  2  0  0  0  0
  7  3  1  0  0  0  0
  4  8  1  0  0  0  0
  8  9  1  0  0  0  0
  9 10  2  0  0  0  0
 10 11  1  0  0  0  0
 11  5  1  0  0  0  0
  9 12  1  0  0  0  0
 12 13  2  0  0  0  0
 13 14  1  0  0  0  0
 14 15  2  0  0  0  0
 15 10  1  0  0  0  0
  7 16  1  0  0  0  0
  8 17  2  0  0  0  0
 11 18  2  0  0  0  0
 12 19  1  0  0  0  0
 14 20  1  0  0  0  0
 20 21  1  0  0  0  0
 22 19  1  1  0  0  0
 22 23  1  0  0  0  0
 23 24  1  0  0  0  0
 24 25  1  0  0  0  0
 25 26  1  0  0  0  0
 26 27  1  0  0  0  0
 27 22  1  0  0  0  0
 24 28  1  1  0  0  0
 26 29  1  1  0  0  0
 25 30  1  6  0  0  0
 27 31  1  6  0  0  0
 28 32  1  0  0  0  0
M  END
>  <cdx:fragmentId>
5

$$$$
