70062.cdx
  Mrv1902 05222410182D          

 32 35  0  0  0  0            999 V2000
    5.0304   -7.4932    0.0000 O   0  0  0  0  0  0  0  0  0  0  0  0
    3.6004   -5.0188    0.0000 O   0  0  0  0  0  0  0  0  0  0  0  0
    3.6011   -6.6688    0.0000 O   0  0  0  0  0  0  0  0  0  0  0  0
    4.3143   -3.7810    0.0000 O   0  0  0  0  0  0  0  0  0  0  0  0
    5.0290   -4.1932    0.0000 C   0  0  0  0  0  0  0  0  0  0  0  0
    6.4590   -6.6676    0.0000 O   0  0  0  0  0  0  0  0  0  0  0  0
    6.4590   -7.4926    0.0000 C   0  0  0  0  0  0  0  0  0  0  0  0
    5.7445   -7.9051    0.0000 C   0  0  0  0  0  0  0  0  0  0  0  0
    7.1734   -7.9051    0.0000 C   0  0  0  0  0  0  0  0  0  0  0  0
    7.1734   -8.7301    0.0000 C   0  0  0  0  0  0  0  0  0  0  0  0
    6.4590   -9.1426    0.0000 C   0  0  0  0  0  0  0  0  0  0  0  0
    5.7445   -8.7301    0.0000 C   0  0  0  0  0  0  0  0  0  0  0  0
    7.8879   -7.4926    0.0000 C   0  0  0  0  0  0  0  0  0  0  0  0
    8.6024   -7.9051    0.0000 C   0  0  0  0  0  0  0  0  0  0  0  0
    8.6024   -8.7301    0.0000 C   0  0  0  0  0  0  0  0  0  0  0  0
    7.8879   -9.1426    0.0000 C   0  0  0  0  0  0  0  0  0  0  0  0
    9.3169   -7.4926    0.0000 C   0  0  0  0  0  0  0  0  0  0  0  0
   10.0313   -7.9051    0.0000 C   0  0  0  0  0  0  0  0  0  0  0  0
   10.0313   -8.7301    0.0000 C   0  0  0  0  0  0  0  0  0  0  0  0
    9.3169   -9.1426    0.0000 C   0  0  0  0  0  0  0  0  0  0  0  0
    5.0300   -9.1426    0.0000 C   0  0  0  0  0  0  0  0  0  0  0  0
    7.8879   -6.6676    0.0000 O   0  0  0  0  0  0  0  0  0  0  0  0
    7.8879   -9.9676    0.0000 O   0  0  0  0  0  0  0  0  0  0  0  0
    9.3169   -6.6676    0.0000 O   0  0  0  0  0  0  0  0  0  0  0  0
   10.7458   -9.1426    0.0000 O   0  0  0  0  0  0  0  0  0  0  0  0
   11.4603   -8.7301    0.0000 C   0  0  0  0  0  0  0  0  0  0  0  0
    5.7440   -5.4304    0.0000 O   0  0  0  0  0  0  0  0  0  0  0  0
    5.7443   -6.2554    0.0000 C   0  0  2  0  0  0  0  0  0  0  0  0
    5.0300   -6.6682    0.0000 C   0  0  1  0  0  0  0  0  0  0  0  0
    4.3154   -6.2560    0.0000 C   0  0  2  0  0  0  0  0  0  0  0  0
    4.3150   -5.4310    0.0000 C   0  0  1  0  0  0  0  0  0  0  0  0
    5.0293   -5.0182    0.0000 C   0  0  1  0  0  0  0  0  0  0  0  0
 29  1  1  6  0  0  0
 31  2  1  6  0  0  0
 30  3  1  1  0  0  0
  5  4  1  0  0  0  0
 32  5  1  1  0  0  0
 28  6  1  1  0  0  0
 27 32  1  0  0  0  0
 28 27  1  0  0  0  0
  6  7  1  0  0  0  0
  7  8  2  0  0  0  0
  7  9  1  0  0  0  0
  9 10  2  0  0  0  0
 10 11  1  0  0  0  0
 11 12  2  0  0  0  0
 12  8  1  0  0  0  0
  9 13  1  0  0  0  0
 13 14  1  0  0  0  0
 14 15  2  0  0  0  0
 15 16  1  0  0  0  0
 16 10  1  0  0  0  0
 14 17  1  0  0  0  0
 17 18  2  0  0  0  0
 18 19  1  0  0  0  0
 19 20  2  0  0  0  0
 20 15  1  0  0  0  0
 29 28  1  0  0  0  0
 30 29  1  0  0  0  0
 31 30  1  0  0  0  0
 32 31  1  0  0  0  0
 12 21  1  0  0  0  0
 13 22  2  0  0  0  0
 16 23  2  0  0  0  0
 17 24  1  0  0  0  0
 19 25  1  0  0  0  0
 25 26  1  0  0  0  0
M  END
>  <cdx:fragmentId>
5

$$$$
