70061.cdx
  Mrv1902 05222410192D          

 10 10  0  0  0  0            999 V2000
    7.2192   -4.4038    0.0000 C   0  0  0  0  0  0  0  0  0  0  0  0
    7.2249   -5.2288    0.0000 C   0  0  0  0  0  0  0  0  0  0  0  0
    6.5133   -5.6463    0.0000 O   0  0  0  0  0  0  0  0  0  0  0  0
    6.5363   -8.9462    0.0000 O   0  0  0  0  0  0  0  0  0  0  0  0
    6.5306   -8.1212    0.0000 C   0  0  0  0  0  0  0  0  0  0  0  0
    7.2421   -7.7037    0.0000 C   0  0  0  0  0  0  0  0  0  0  0  0
    7.2364   -6.8788    0.0000 C   0  0  0  0  0  0  0  0  0  0  0  0
    6.5191   -6.4712    0.0000 C   0  0  0  0  0  0  0  0  0  0  0  0
    5.8075   -6.8887    0.0000 C   0  0  0  0  0  0  0  0  0  0  0  0
    5.8132   -7.7137    0.0000 C   0  0  0  0  0  0  0  0  0  0  0  0
  2  1  1  0  0  0  0
  3  2  1  0  0  0  0
  8  3  1  0  0  0  0
  5  4  1  0  0  0  0
  5 10  1  0  0  0  0
  6  5  2  0  0  0  0
  7  6  1  0  0  0  0
  8  7  2  0  0  0  0
  9  8  1  0  0  0  0
 10  9  2  0  0  0  0
M  END
>  <cdx:fragmentId>
5

$$$$
