70077.cdx
  Mrv1902 05222410182D          

 43 46  0  0  0  0            999 V2000
    8.3916   -6.0035    0.0000 C   0  0  0  0  0  0  0  0  0  0  0  0
    8.3916   -6.8285    0.0000 C   0  0  0  0  0  0  0  0  0  0  0  0
    7.6772   -7.2410    0.0000 C   0  0  0  0  0  0  0  0  0  0  0  0
    7.6772   -8.0660    0.0000 O   0  0  0  0  0  0  0  0  0  0  0  0
    6.9627   -6.8285    0.0000 C   0  0  0  0  0  0  0  0  0  0  0  0
    6.2482   -7.2410    0.0000 C   0  0  0  0  0  0  0  0  0  0  0  0
    6.2482   -8.0660    0.0000 O   0  0  0  0  0  0  0  0  0  0  0  0
    5.5338   -6.8285    0.0000 C   0  0  0  0  0  0  0  0  0  0  0  0
    5.5338   -6.0035    0.0000 C   0  0  0  0  0  0  0  0  0  0  0  0
    4.8193   -5.5910    0.0000 O   0  0  0  0  0  0  0  0  0  0  0  0
    6.2482   -5.5910    0.0000 C   0  0  0  0  0  0  0  0  0  0  0  0
    6.9627   -6.0035    0.0000 C   0  0  0  0  0  0  0  0  0  0  0  0
    7.6772   -5.5910    0.0000 O   0  0  0  0  0  0  0  0  0  0  0  0
    9.1061   -5.5910    0.0000 C   0  0  0  0  0  0  0  0  0  0  0  0
    9.1061   -4.7660    0.0000 C   0  0  0  0  0  0  0  0  0  0  0  0
    9.8206   -4.3535    0.0000 C   0  0  0  0  0  0  0  0  0  0  0  0
   10.5350   -4.7660    0.0000 C   0  0  0  0  0  0  0  0  0  0  0  0
   11.2495   -4.3535    0.0000 O   0  0  0  0  0  0  0  0  0  0  0  0
   10.5350   -5.5910    0.0000 C   0  0  0  0  0  0  0  0  0  0  0  0
    9.8206   -6.0035    0.0000 C   0  0  0  0  0  0  0  0  0  0  0  0
    9.1061   -7.2410    0.0000 O   0  0  0  0  0  0  0  0  0  0  0  0
    9.1061   -8.0660    0.0000 C   0  0  1  0  0  0  0  0  0  0  0  0
    9.8206   -8.4785    0.0000 C   0  0  2  0  0  0  0  0  0  0  0  0
   10.5350   -8.0660    0.0000 O   0  0  0  0  0  0  0  0  0  0  0  0
    9.8206   -9.3035    0.0000 C   0  0  1  0  0  0  0  0  0  0  0  0
   10.5350   -9.7160    0.0000 O   0  0  0  0  0  0  0  0  0  0  0  0
    9.1061   -9.7160    0.0000 C   0  0  2  0  0  0  0  0  0  0  0  0
    9.1061  -10.5410    0.0000 O   0  0  0  0  0  0  0  0  0  0  0  0
    8.3916   -9.3035    0.0000 C   0  0  2  0  0  0  0  0  0  0  0  0
    8.3916   -8.4785    0.0000 O   0  0  0  0  0  0  0  0  0  0  0  0
    7.6772  -10.5410    0.0000 O   0  0  0  0  0  0  0  0  0  0  0  0
    4.1671  -13.1362    0.0000 O   0  0  0  0  0  0  0  0  0  0  0  0
    4.9544  -12.8897    0.0000 C   0  0  0  0  0  0  0  0  0  0  0  0
    5.1346  -12.0846    0.0000 C   0  0  0  0  0  0  0  0  0  0  0  0
    5.5616  -13.4483    0.0000 O   0  0  0  0  0  0  0  0  0  0  0  0
    5.9219  -11.8381    0.0000 C   0  0  0  0  0  0  0  0  0  0  0  0
    6.7093  -11.5916    0.0000 C   0  0  0  0  0  0  0  0  0  0  0  0
    5.6754  -11.0508    0.0000 C   0  0  0  0  0  0  0  0  0  0  0  0
    6.1684  -12.6254    0.0000 O   0  0  0  0  0  0  0  0  0  0  0  0
    6.8894  -10.7865    0.0000 C   0  0  0  0  0  0  0  0  0  0  0  0
    6.2823  -10.2279    0.0000 O   0  0  0  0  0  0  0  0  0  0  0  0
    7.6772   -9.7160    0.0000 C   0  0  0  0  0  0  0  0  0  0  0  0
    9.8206   -3.5285    0.0000 O   0  0  0  0  0  0  0  0  0  0  0  0
  1  2  2  0  0  0  0
  2  3  1  0  0  0  0
  3  4  2  0  0  0  0
  3  5  1  0  0  0  0
  5  6  1  0  0  0  0
  6  7  1  0  0  0  0
  6  8  2  0  0  0  0
  8  9  1  0  0  0  0
  9 10  1  0  0  0  0
  9 11  2  0  0  0  0
 11 12  1  0  0  0  0
  5 12  2  0  0  0  0
 12 13  1  0  0  0  0
  1 13  1  0  0  0  0
  1 14  1  0  0  0  0
 14 15  1  0  0  0  0
 15 16  2  0  0  0  0
 16 17  1  0  0  0  0
 17 18  1  0  0  0  0
 17 19  2  0  0  0  0
 19 20  1  0  0  0  0
 14 20  2  0  0  0  0
 22 21  1  1  0  0  0
 22 23  1  0  0  0  0
 23 24  1  6  0  0  0
 23 25  1  0  0  0  0
 25 26  1  1  0  0  0
 25 27  1  0  0  0  0
 27 28  1  6  0  0  0
 27 29  1  0  0  0  0
 29 30  1  0  0  0  0
 29 42  1  1  0  0  0
 22 30  1  0  0  0  0
  2 21  1  0  0  0  0
 32 33  1  0  0  0  0
 33 34  1  0  0  0  0
 33 35  2  0  0  0  0
 34 36  1  0  0  0  0
 36 37  1  0  0  0  0
 36 38  1  0  0  0  0
 36 39  1  0  0  0  0
 37 40  1  0  0  0  0
 40 41  2  0  0  0  0
 42 31  1  0  0  0  0
 40 31  1  0  0  0  0
 16 43  1  0  0  0  0
M  END
>  <cdx:fragmentId>
5

$$$$
