70073.cdx
  Mrv1902 05222410202D          

 44 48  0  0  0  0            999 V2000
    9.8187   -6.1864    0.0000 C   0  0  0  0  0  0  0  0  0  0  0  0
    9.8187   -7.0114    0.0000 C   0  0  0  0  0  0  0  0  0  0  0  0
    9.1043   -7.4239    0.0000 C   0  0  0  0  0  0  0  0  0  0  0  0
    8.3898   -7.0114    0.0000 C   0  0  0  0  0  0  0  0  0  0  0  0
    8.3898   -6.1864    0.0000 C   0  0  0  0  0  0  0  0  0  0  0  0
    9.1043   -5.7739    0.0000 C   0  0  0  0  0  0  0  0  0  0  0  0
    8.3898   -8.6614    0.0000 O   0  0  0  0  0  0  0  0  0  0  0  0
    7.6753   -8.2489    0.0000 C   0  0  0  0  0  0  0  0  0  0  0  0
    7.6753   -7.4239    0.0000 C   0  0  0  0  0  0  0  0  0  0  0  0
    6.9608   -8.6614    0.0000 C   0  0  0  0  0  0  0  0  0  0  0  0
    6.2464   -8.2489    0.0000 C   0  0  0  0  0  0  0  0  0  0  0  0
    6.2464   -7.4239    0.0000 C   0  0  0  0  0  0  0  0  0  0  0  0
    6.9608   -7.0114    0.0000 O   0  0  0  0  0  0  0  0  0  0  0  0
    5.5319   -8.6614    0.0000 C   0  0  0  0  0  0  0  0  0  0  0  0
    4.8174   -8.2489    0.0000 C   0  0  0  0  0  0  0  0  0  0  0  0
    4.8174   -7.4239    0.0000 C   0  0  0  0  0  0  0  0  0  0  0  0
    5.5319   -7.0114    0.0000 C   0  0  0  0  0  0  0  0  0  0  0  0
    8.3898   -9.4864    0.0000 C   0  0  2  0  0  0  0  0  0  0  0  0
    7.6753   -9.8989    0.0000 O   0  0  0  0  0  0  0  0  0  0  0  0
    6.9608   -9.4864    0.0000 O   0  0  0  0  0  0  0  0  0  0  0  0
    5.5319   -9.4864    0.0000 O   0  0  0  0  0  0  0  0  0  0  0  0
    9.1043   -9.8989    0.0000 C   0  0  1  0  0  0  0  0  0  0  0  0
    9.1043  -10.7239    0.0000 C   0  0  2  0  0  0  0  0  0  0  0  0
    8.3898  -11.1364    0.0000 C   0  0  1  0  0  0  0  0  0  0  0  0
    7.6753  -10.7239    0.0000 C   0  0  1  0  0  0  0  0  0  0  0  0
    8.3898  -11.9614    0.0000 O   0  0  0  0  0  0  0  0  0  0  0  0
    6.9608  -11.1364    0.0000 C   0  0  0  0  0  0  0  0  0  0  0  0
   10.5332   -5.7739    0.0000 O   0  0  0  0  0  0  0  0  0  0  0  0
    9.1043   -4.9489    0.0000 O   0  0  0  0  0  0  0  0  0  0  0  0
    4.1030   -7.0114    0.0000 O   0  0  0  0  0  0  0  0  0  0  0  0
    9.8187  -11.1364    0.0000 O   0  0  0  0  0  0  0  0  0  0  0  0
    9.8187   -9.4864    0.0000 O   0  0  0  0  0  0  0  0  0  0  0  0
    6.9608  -11.9614    0.0000 O   0  0  0  0  0  0  0  0  0  0  0  0
    6.2464  -12.3739    0.0000 C   0  0  2  0  0  0  0  0  0  0  0  0
    5.5319  -11.9614    0.0000 O   0  0  0  0  0  0  0  0  0  0  0  0
    4.8174  -12.3739    0.0000 C   0  0  2  0  0  0  0  0  0  0  0  0
    4.8174  -13.1989    0.0000 C   0  0  1  0  0  0  0  0  0  0  0  0
    5.5319  -13.6114    0.0000 C   0  0  2  0  0  0  0  0  0  0  0  0
    6.2464  -13.1989    0.0000 C   0  0  1  0  0  0  0  0  0  0  0  0
    4.1030  -13.6114    0.0000 O   0  0  0  0  0  0  0  0  0  0  0  0
    5.5319  -14.4364    0.0000 O   0  0  0  0  0  0  0  0  0  0  0  0
    6.9608  -13.6114    0.0000 O   0  0  0  0  0  0  0  0  0  0  0  0
    4.1030  -11.9614    0.0000 C   0  0  0  0  0  0  0  0  0  0  0  0
    6.2464  -10.7239    0.0000 O   0  0  0  0  0  0  0  0  0  0  0  0
  1  2  2  0  0  0  0
  2  3  1  0  0  0  0
  3  4  2  0  0  0  0
  4  5  1  0  0  0  0
  5  6  2  0  0  0  0
  6  1  1  0  0  0  0
  7  8  1  0  0  0  0
  8  9  2  0  0  0  0
  9  4  1  0  0  0  0
  8 10  1  0  0  0  0
 10 11  1  0  0  0  0
 11 12  1  0  0  0  0
 12 13  1  0  0  0  0
 13  9  1  0  0  0  0
 11 14  2  0  0  0  0
 14 15  1  0  0  0  0
 15 16  2  0  0  0  0
 16 17  1  0  0  0  0
 17 12  2  0  0  0  0
 18  7  1  1  0  0  0
 18 19  1  0  0  0  0
 20 10  2  0  0  0  0
 21 14  1  0  0  0  0
 18 22  1  0  0  0  0
 22 23  1  0  0  0  0
 23 24  1  0  0  0  0
 24 25  1  0  0  0  0
 25 19  1  0  0  0  0
 24 26  1  6  0  0  0
 25 27  1  1  0  0  0
  1 28  1  0  0  0  0
  6 29  1  0  0  0  0
 16 30  1  0  0  0  0
 23 31  1  1  0  0  0
 22 32  1  6  0  0  0
 27 33  1  0  0  0  0
 34 33  1  1  0  0  0
 34 35  1  0  0  0  0
 35 36  1  0  0  0  0
 36 37  1  0  0  0  0
 37 38  1  0  0  0  0
 38 39  1  0  0  0  0
 39 34  1  0  0  0  0
 37 40  1  1  0  0  0
 38 41  1  6  0  0  0
 39 42  1  6  0  0  0
 36 43  1  6  0  0  0
 27 44  2  0  0  0  0
M  END
>  <cdx:fragmentId>
5

$$$$
