70075.cdx
  Mrv1902 05222410192D          

 20 22  0  0  0  0            999 V2000
    4.0131   -8.4551    0.0000 C   0  0  0  0  0  0  0  0  0  0  0  0
    4.0131   -9.2801    0.0000 C   0  0  0  0  0  0  0  0  0  0  0  0
    4.7275   -9.6926    0.0000 C   0  0  0  0  0  0  0  0  0  0  0  0
    5.4420   -9.2801    0.0000 C   0  0  0  0  0  0  0  0  0  0  0  0
    5.4420   -8.4551    0.0000 C   0  0  0  0  0  0  0  0  0  0  0  0
    4.7275   -8.0426    0.0000 C   0  0  0  0  0  0  0  0  0  0  0  0
    6.1565   -9.6926    0.0000 C   0  0  0  0  0  0  0  0  0  0  0  0
    6.8709   -9.2801    0.0000 C   0  0  0  0  0  0  0  0  0  0  0  0
    6.8709   -8.4551    0.0000 C   0  0  0  0  0  0  0  0  0  0  0  0
    6.1565   -8.0426    0.0000 O   0  0  0  0  0  0  0  0  0  0  0  0
    8.2999   -8.4551    0.0000 C   0  0  0  0  0  0  0  0  0  0  0  0
    7.5854   -8.0426    0.0000 C   0  0  0  0  0  0  0  0  0  0  0  0
    9.0144   -8.0426    0.0000 C   0  0  0  0  0  0  0  0  0  0  0  0
    9.0144   -7.2176    0.0000 C   0  0  0  0  0  0  0  0  0  0  0  0
    8.2999   -6.8051    0.0000 C   0  0  0  0  0  0  0  0  0  0  0  0
    7.5854   -7.2176    0.0000 C   0  0  0  0  0  0  0  0  0  0  0  0
    4.7275  -10.5176    0.0000 O   0  0  0  0  0  0  0  0  0  0  0  0
    3.2986   -8.0426    0.0000 O   0  0  0  0  0  0  0  0  0  0  0  0
    5.4420  -10.9301    0.0000 C   0  0  0  0  0  0  0  0  0  0  0  0
    3.2986   -9.6926    0.0000 C   0  0  0  0  0  0  0  0  0  0  0  0
  1  2  2  0  0  0  0
  2  3  1  0  0  0  0
  3  4  2  0  0  0  0
  4  5  1  0  0  0  0
  5  6  2  0  0  0  0
  6  1  1  0  0  0  0
  4  7  1  0  0  0  0
  7  8  1  0  0  0  0
  8  9  1  0  0  0  0
  9 10  1  0  0  0  0
 10  5  1  0  0  0  0
 11 12  2  0  0  0  0
 12  9  1  0  0  0  0
 11 13  1  0  0  0  0
 13 14  2  0  0  0  0
 14 15  1  0  0  0  0
 15 16  2  0  0  0  0
 16 12  1  0  0  0  0
  3 17  1  0  0  0  0
  1 18  1  0  0  0  0
 17 19  1  0  0  0  0
  2 20  1  0  0  0  0
M  END
>  <cdx:fragmentId>
5

$$$$
