70072.cdx
  Mrv1902 05222410202D          

 14 14  0  0  0  0            999 V2000
    5.2918   -6.0214    0.0000 C   0  0  0  0  0  0  0  0  0  0  0  0
    5.2918   -6.8464    0.0000 C   0  0  0  0  0  0  0  0  0  0  0  0
    6.0063   -7.2589    0.0000 C   0  0  0  0  0  0  0  0  0  0  0  0
    6.7207   -6.8464    0.0000 C   0  0  0  0  0  0  0  0  0  0  0  0
    6.7207   -6.0214    0.0000 C   0  0  0  0  0  0  0  0  0  0  0  0
    6.0063   -5.6089    0.0000 C   0  0  0  0  0  0  0  0  0  0  0  0
    7.4352   -5.6089    0.0000 C   0  0  0  0  0  0  0  0  0  0  0  0
    8.1497   -6.0214    0.0000 C   0  0  0  0  0  0  0  0  0  0  0  0
    8.1497   -6.8464    0.0000 O   0  0  0  0  0  0  0  0  0  0  0  0
    8.8642   -5.6089    0.0000 C   0  0  0  0  0  0  0  0  0  0  0  0
    9.5786   -6.0214    0.0000 O   0  0  0  0  0  0  0  0  0  0  0  0
    4.5773   -5.6089    0.0000 O   0  0  0  0  0  0  0  0  0  0  0  0
    4.5773   -7.2589    0.0000 O   0  0  0  0  0  0  0  0  0  0  0  0
    8.8642   -4.7839    0.0000 O   0  0  0  0  0  0  0  0  0  0  0  0
  1  2  2  0  0  0  0
  2  3  1  0  0  0  0
  3  4  2  0  0  0  0
  4  5  1  0  0  0  0
  5  6  2  0  0  0  0
  6  1  1  0  0  0  0
  5  7  1  0  0  0  0
  7  8  1  0  0  0  0
  8  9  1  0  0  0  0
  8 10  1  0  0  0  0
 10 11  1  0  0  0  0
  1 12  1  0  0  0  0
  2 13  1  0  0  0  0
 10 14  2  0  0  0  0
M  END
>  <cdx:fragmentId>
5

$$$$
