70070.cdx
  Mrv1902 05222410192D          

 51 58  0  0  0  0            999 V2000
    5.2231   -8.6476    0.0000 C   0  0  0  0  0  0  0  0  0  0  0  0
    5.2231   -9.4726    0.0000 C   0  0  1  0  0  0  0  0  0  0  0  0
    5.9375   -9.8851    0.0000 C   0  0  0  0  0  0  0  0  0  0  0  0
    6.6520   -9.4726    0.0000 C   0  0  0  0  0  0  0  0  0  0  0  0
    6.6520   -8.6476    0.0000 C   0  0  2  0  0  0  0  0  0  0  0  0
    5.9375   -8.2351    0.0000 C   0  0  0  0  0  0  0  0  0  0  0  0
    7.3665   -9.8851    0.0000 C   0  0  0  0  0  0  0  0  0  0  0  0
    8.0809   -9.4726    0.0000 C   0  0  0  0  0  0  0  0  0  0  0  0
    8.0809   -8.6476    0.0000 C   0  0  0  0  0  0  0  0  0  0  0  0
    7.3665   -8.2351    0.0000 C   0  0  0  0  0  0  0  0  0  0  0  0
    8.7954   -8.2351    0.0000 C   0  0  0  0  0  0  0  0  0  0  0  0
    8.7954   -7.4101    0.0000 C   0  0  2  0  0  0  0  0  0  0  0  0
    8.0809   -6.9976    0.0000 C   0  0  0  0  0  0  0  0  0  0  0  0
    7.3665   -7.4101    0.0000 C   0  0  0  0  0  0  0  0  0  0  0  0
   10.2244   -8.2351    0.0000 C   0  0  0  0  0  0  0  0  0  0  0  0
   10.2244   -7.4101    0.0000 C   0  0  0  0  0  0  0  0  0  0  0  0
    9.5099   -6.9976    0.0000 C   0  0  0  0  0  0  0  0  0  0  0  0
   10.9388   -6.9976    0.0000 O   0  0  0  0  0  0  0  0  0  0  0  0
   10.9388   -6.1726    0.0000 C   0  0  0  0  0  0  0  0  0  0  0  0
    9.5099   -6.1726    0.0000 C   0  0  1  0  0  0  0  0  0  0  0  0
   11.7357   -6.3862    0.0000 C   0  0  0  0  0  0  0  0  0  0  0  0
   12.3191   -5.8028    0.0000 C   0  0  0  0  0  0  0  0  0  0  0  0
   12.1055   -5.0059    0.0000 C   0  0  2  0  0  0  0  0  0  0  0  0
   11.3087   -4.7924    0.0000 C   0  0  0  0  0  0  0  0  0  0  0  0
   10.7253   -5.3758    0.0000 O   0  0  0  0  0  0  0  0  0  0  0  0
    4.5086   -9.8851    0.0000 O   0  0  0  0  0  0  0  0  0  0  0  0
    6.6520   -7.8226    0.0000 C   0  0  0  0  0  0  0  0  0  0  0  0
    8.7954   -6.5851    0.0000 C   0  0  0  0  0  0  0  0  0  0  0  0
    8.9265   -5.5893    0.0000 C   0  0  0  0  0  0  0  0  0  0  0  0
   12.6889   -4.4226    0.0000 C   0  0  0  0  0  0  0  0  0  0  0  0
    3.7941  -10.2976    0.0000 C   0  0  2  0  0  0  0  0  0  0  0  0
    3.0796   -9.8851    0.0000 O   0  0  0  0  0  0  0  0  0  0  0  0
    2.3652  -10.2976    0.0000 C   0  0  1  0  0  0  0  0  0  0  0  0
    2.3652  -11.1226    0.0000 C   0  0  2  0  0  0  0  0  0  0  0  0
    3.0796  -11.5351    0.0000 C   0  0  1  0  0  0  0  0  0  0  0  0
    3.7941  -11.1226    0.0000 C   0  0  1  0  0  0  0  0  0  0  0  0
    1.6507   -9.8851    0.0000 C   0  0  0  0  0  0  0  0  0  0  0  0
    3.0796  -12.3601    0.0000 O   0  0  0  0  0  0  0  0  0  0  0  0
    1.6507  -11.5351    0.0000 O   0  0  0  0  0  0  0  0  0  0  0  0
    4.5086  -11.5351    0.0000 O   0  0  0  0  0  0  0  0  0  0  0  0
    0.9362  -10.2976    0.0000 O   0  0  0  0  0  0  0  0  0  0  0  0
    4.5086  -12.3601    0.0000 C   0  0  2  0  0  0  0  0  0  0  0  0
    3.7941  -12.7726    0.0000 O   0  0  0  0  0  0  0  0  0  0  0  0
    3.7941  -13.5976    0.0000 C   0  0  2  0  0  0  0  0  0  0  0  0
    4.5086  -14.0101    0.0000 C   0  0  1  0  0  0  0  0  0  0  0  0
    5.2231  -13.5976    0.0000 C   0  0  2  0  0  0  0  0  0  0  0  0
    5.2231  -12.7726    0.0000 C   0  0  1  0  0  0  0  0  0  0  0  0
    4.5086  -14.8351    0.0000 O   0  0  0  0  0  0  0  0  0  0  0  0
    3.0796  -14.0101    0.0000 C   0  0  0  0  0  0  0  0  0  0  0  0
    5.9375  -14.0101    0.0000 O   0  0  0  0  0  0  0  0  0  0  0  0
    5.9375  -12.3601    0.0000 O   0  0  0  0  0  0  0  0  0  0  0  0
  1  2  1  0  0  0  0
  2  3  1  0  0  0  0
  3  4  1  0  0  0  0
  4  5  1  0  0  0  0
  5  6  1  0  0  0  0
  6  1  1  0  0  0  0
  4  7  2  0  0  0  0
  7  8  1  0  0  0  0
  8  9  1  0  0  0  0
  9 10  1  0  0  0  0
 10  5  1  0  0  0  0
  9 11  1  0  0  0  0
 11 12  1  0  0  0  0
 12 13  1  0  0  0  0
 13 14  1  0  0  0  0
 14 10  1  0  0  0  0
 15 16  1  0  0  0  0
 16 17  1  0  0  0  0
 17 12  1  0  0  0  0
 16 18  1  0  0  0  0
 18 19  1  0  0  0  0
 20 17  1  0  0  0  0
 11 15  1  0  0  0  0
 20 19  1  0  0  0  0
 19 21  1  0  0  0  0
 21 22  1  0  0  0  0
 22 23  1  0  0  0  0
 23 24  1  0  0  0  0
 24 25  1  0  0  0  0
 25 19  1  6  0  0  0
  2 26  1  1  0  0  0
  5 27  1  1  0  0  0
 12 28  1  1  0  0  0
 20 29  1  6  0  0  0
 23 30  1  6  0  0  0
 31 26  1  1  0  0  0
 31 32  1  0  0  0  0
 32 33  1  0  0  0  0
 33 34  1  0  0  0  0
 34 35  1  0  0  0  0
 35 36  1  0  0  0  0
 36 31  1  0  0  0  0
 33 37  1  1  0  0  0
 35 38  1  1  0  0  0
 34 39  1  6  0  0  0
 36 40  1  6  0  0  0
 37 41  1  0  0  0  0
 42 40  1  1  0  0  0
 42 43  1  0  0  0  0
 43 44  1  0  0  0  0
 44 45  1  0  0  0  0
 45 46  1  0  0  0  0
 46 47  1  0  0  0  0
 47 42  1  0  0  0  0
 45 48  1  1  0  0  0
 44 49  1  6  0  0  0
 46 50  1  6  0  0  0
 47 51  1  6  0  0  0
M  END
>  <cdx:fragmentId>
5

$$$$
