70071.cdx
  Mrv1902 05222410192D          

 51 58  0  0  0  0            999 V2000
    6.8456   -7.7676    0.0000 C   0  0  0  0  0  0  0  0  0  0  0  0
    6.8456   -8.5926    0.0000 C   0  0  1  0  0  0  0  0  0  0  0  0
    7.5600   -9.0051    0.0000 C   0  0  0  0  0  0  0  0  0  0  0  0
    8.2745   -8.5926    0.0000 C   0  0  0  0  0  0  0  0  0  0  0  0
    8.2745   -7.7676    0.0000 C   0  0  2  0  0  0  0  0  0  0  0  0
    7.5600   -7.3551    0.0000 C   0  0  0  0  0  0  0  0  0  0  0  0
    8.9890   -9.0051    0.0000 C   0  0  0  0  0  0  0  0  0  0  0  0
    9.7034   -8.5926    0.0000 C   0  0  0  0  0  0  0  0  0  0  0  0
    9.7034   -7.7676    0.0000 C   0  0  0  0  0  0  0  0  0  0  0  0
    8.9890   -7.3551    0.0000 C   0  0  0  0  0  0  0  0  0  0  0  0
   10.4179   -7.3551    0.0000 C   0  0  0  0  0  0  0  0  0  0  0  0
   10.4179   -6.5301    0.0000 C   0  0  2  0  0  0  0  0  0  0  0  0
    9.7034   -6.1176    0.0000 C   0  0  0  0  0  0  0  0  0  0  0  0
    8.9890   -6.5301    0.0000 C   0  0  0  0  0  0  0  0  0  0  0  0
   11.8469   -7.3551    0.0000 C   0  0  0  0  0  0  0  0  0  0  0  0
   11.8469   -6.5301    0.0000 C   0  0  0  0  0  0  0  0  0  0  0  0
   11.1324   -6.1176    0.0000 C   0  0  0  0  0  0  0  0  0  0  0  0
   12.5613   -6.1176    0.0000 O   0  0  0  0  0  0  0  0  0  0  0  0
   12.5613   -5.2926    0.0000 C   0  0  0  0  0  0  0  0  0  0  0  0
   11.1324   -5.2926    0.0000 C   0  0  1  0  0  0  0  0  0  0  0  0
   13.3582   -5.5062    0.0000 C   0  0  0  0  0  0  0  0  0  0  0  0
   13.9416   -4.9228    0.0000 C   0  0  0  0  0  0  0  0  0  0  0  0
   13.7280   -4.1259    0.0000 C   0  0  2  0  0  0  0  0  0  0  0  0
   12.9312   -3.9124    0.0000 C   0  0  0  0  0  0  0  0  0  0  0  0
   12.3478   -4.4958    0.0000 O   0  0  0  0  0  0  0  0  0  0  0  0
    6.1311   -9.0051    0.0000 O   0  0  0  0  0  0  0  0  0  0  0  0
    8.2745   -6.9426    0.0000 C   0  0  0  0  0  0  0  0  0  0  0  0
   10.4179   -5.7051    0.0000 C   0  0  0  0  0  0  0  0  0  0  0  0
   10.5490   -4.7093    0.0000 C   0  0  0  0  0  0  0  0  0  0  0  0
   14.3114   -3.5426    0.0000 C   0  0  0  0  0  0  0  0  0  0  0  0
    5.4166   -9.4176    0.0000 C   0  0  2  0  0  0  0  0  0  0  0  0
    4.7021   -9.0051    0.0000 O   0  0  0  0  0  0  0  0  0  0  0  0
    3.9877   -9.4176    0.0000 C   0  0  1  0  0  0  0  0  0  0  0  0
    3.9877  -10.2426    0.0000 C   0  0  2  0  0  0  0  0  0  0  0  0
    4.7021  -10.6551    0.0000 C   0  0  1  0  0  0  0  0  0  0  0  0
    5.4166  -10.2426    0.0000 C   0  0  1  0  0  0  0  0  0  0  0  0
    3.2732   -9.0051    0.0000 C   0  0  0  0  0  0  0  0  0  0  0  0
    4.7021  -11.4801    0.0000 O   0  0  0  0  0  0  0  0  0  0  0  0
    3.2732  -10.6551    0.0000 O   0  0  0  0  0  0  0  0  0  0  0  0
    6.1311  -10.6551    0.0000 O   0  0  0  0  0  0  0  0  0  0  0  0
    2.5587   -9.4176    0.0000 O   0  0  0  0  0  0  0  0  0  0  0  0
    2.8625  -11.3806    0.0000 C   0  0  2  0  0  0  0  0  0  0  0  0
    2.0375  -11.3806    0.0000 O   0  0  0  0  0  0  0  0  0  0  0  0
    1.6250  -12.0951    0.0000 C   0  0  2  0  0  0  0  0  0  0  0  0
    2.0374  -12.8096    0.0000 C   0  0  1  0  0  0  0  0  0  0  0  0
    2.8624  -12.8096    0.0000 C   0  0  2  0  0  0  0  0  0  0  0  0
    3.2750  -12.0951    0.0000 C   0  0  1  0  0  0  0  0  0  0  0  0
    1.6249  -13.5240    0.0000 O   0  0  0  0  0  0  0  0  0  0  0  0
    0.8000  -12.0951    0.0000 C   0  0  0  0  0  0  0  0  0  0  0  0
    3.2749  -13.5241    0.0000 O   0  0  0  0  0  0  0  0  0  0  0  0
    4.1000  -12.0951    0.0000 O   0  0  0  0  0  0  0  0  0  0  0  0
  1  2  1  0  0  0  0
  2  3  1  0  0  0  0
  3  4  1  0  0  0  0
  4  5  1  0  0  0  0
  5  6  1  0  0  0  0
  6  1  1  0  0  0  0
  4  7  2  0  0  0  0
  7  8  1  0  0  0  0
  8  9  1  0  0  0  0
  9 10  1  0  0  0  0
 10  5  1  0  0  0  0
  9 11  1  0  0  0  0
 11 12  1  0  0  0  0
 12 13  1  0  0  0  0
 13 14  1  0  0  0  0
 14 10  1  0  0  0  0
 15 16  1  0  0  0  0
 16 17  1  0  0  0  0
 17 12  1  0  0  0  0
 16 18  1  0  0  0  0
 18 19  1  0  0  0  0
 20 17  1  0  0  0  0
 11 15  1  0  0  0  0
 20 19  1  0  0  0  0
 19 21  1  0  0  0  0
 21 22  1  0  0  0  0
 22 23  1  0  0  0  0
 23 24  1  0  0  0  0
 24 25  1  0  0  0  0
 25 19  1  6  0  0  0
  2 26  1  1  0  0  0
  5 27  1  1  0  0  0
 12 28  1  1  0  0  0
 20 29  1  6  0  0  0
 23 30  1  6  0  0  0
 31 26  1  1  0  0  0
 31 32  1  0  0  0  0
 32 33  1  0  0  0  0
 33 34  1  0  0  0  0
 34 35  1  0  0  0  0
 35 36  1  0  0  0  0
 36 31  1  0  0  0  0
 33 37  1  1  0  0  0
 35 38  1  1  0  0  0
 34 39  1  6  0  0  0
 36 40  1  6  0  0  0
 37 41  1  0  0  0  0
 42 43  1  0  0  0  0
 43 44  1  0  0  0  0
 44 45  1  0  0  0  0
 45 46  1  0  0  0  0
 46 47  1  0  0  0  0
 47 42  1  0  0  0  0
 45 48  1  1  0  0  0
 44 49  1  6  0  0  0
 46 50  1  6  0  0  0
 47 51  1  6  0  0  0
 42 39  1  1  0  0  0
M  END
>  <cdx:fragmentId>
5

$$$$
