700861.cdx
  Mrv1902 05222410222D          

 16 16  0  0  0  0            999 V2000
    6.3926   -5.7803    0.0000 O   0  0  0  0  0  0  0  0  0  0  0  0
    7.1049   -7.0190    0.0000 C   0  0  0  0  0  0  0  0  0  0  0  0
    6.3898   -7.4303    0.0000 C   0  0  0  0  0  0  0  0  0  0  0  0
    6.3884   -8.2553    0.0000 C   0  0  0  0  0  0  0  0  0  0  0  0
    7.1022   -8.6690    0.0000 C   0  0  0  0  0  0  0  0  0  0  0  0
    7.8173   -8.2577    0.0000 C   0  0  0  0  0  0  0  0  0  0  0  0
    7.8187   -7.4327    0.0000 C   0  0  0  0  0  0  0  0  0  0  0  0
    8.5311   -8.6714    0.0000 O   0  0  0  0  0  0  0  0  0  0  0  0
    8.5297   -9.4964    0.0000 C   0  0  0  0  0  0  0  0  0  0  0  0
    7.1008   -9.4940    0.0000 O   0  0  0  0  0  0  0  0  0  0  0  0
    6.3908   -9.9142    0.0000 C   0  0  0  0  0  0  0  0  0  0  0  0
    5.6760   -7.0166    0.0000 O   0  0  0  0  0  0  0  0  0  0  0  0
    4.9660   -7.4368    0.0000 C   0  0  0  0  0  0  0  0  0  0  0  0
    7.8229   -4.9577    0.0000 C   0  0  0  0  0  0  0  0  0  0  0  0
    7.8215   -5.7827    0.0000 C   0  0  0  0  0  0  0  0  0  0  0  0
    7.1063   -6.1940    0.0000 C   0  0  0  0  0  0  0  0  0  0  0  0
 16  1  2  0  0  0  0
 15 14  1  0  0  0  0
 16 15  1  0  0  0  0
  2  3  1  0  0  0  0
  3  4  2  0  0  0  0
  4  5  1  0  0  0  0
  5  6  2  0  0  0  0
  6  7  1  0  0  0  0
  2  7  2  0  0  0  0
  8  9  1  0  0  0  0
  6  8  1  0  0  0  0
 10 11  1  0  0  0  0
  5 10  1  0  0  0  0
 12 13  1  0  0  0  0
  3 12  1  0  0  0  0
 16  2  1  0  0  0  0
M  END
>  <cdx:fragmentId>
14362

$$$$
