70081.cdx
  Mrv1902 05222410262D          

 42 46  0  0  0  0            999 V2000
    3.0781   -5.8014    0.0000 C   0  0  0  0  0  0  0  0  0  0  0  0
    3.0781   -6.6264    0.0000 C   0  0  0  0  0  0  0  0  0  0  0  0
    3.7925   -7.0389    0.0000 C   0  0  0  0  0  0  0  0  0  0  0  0
    4.5070   -6.6264    0.0000 C   0  0  0  0  0  0  0  0  0  0  0  0
    4.5070   -5.8014    0.0000 C   0  0  0  0  0  0  0  0  0  0  0  0
    3.7925   -5.3889    0.0000 C   0  0  0  0  0  0  0  0  0  0  0  0
    5.2215   -7.0389    0.0000 C   0  0  0  0  0  0  0  0  0  0  0  0
    5.9359   -6.6264    0.0000 C   0  0  0  0  0  0  0  0  0  0  0  0
    5.9359   -5.8014    0.0000 C   0  0  0  0  0  0  0  0  0  0  0  0
    5.2215   -5.3889    0.0000 O   0  0  0  0  0  0  0  0  0  0  0  0
    3.7925   -7.8639    0.0000 O   0  0  0  0  0  0  0  0  0  0  0  0
    5.2215   -7.8639    0.0000 O   0  0  0  0  0  0  0  0  0  0  0  0
    6.6504   -7.0389    0.0000 O   0  0  0  0  0  0  0  0  0  0  0  0
    7.3649   -5.8014    0.0000 C   0  0  0  0  0  0  0  0  0  0  0  0
    6.6504   -5.3889    0.0000 C   0  0  0  0  0  0  0  0  0  0  0  0
    8.0794   -5.3889    0.0000 C   0  0  0  0  0  0  0  0  0  0  0  0
    8.0794   -4.5639    0.0000 C   0  0  0  0  0  0  0  0  0  0  0  0
    7.3649   -4.1514    0.0000 C   0  0  0  0  0  0  0  0  0  0  0  0
    6.6504   -4.5639    0.0000 C   0  0  0  0  0  0  0  0  0  0  0  0
    5.9359   -8.2764    0.0000 O   0  0  0  0  0  0  0  0  0  0  0  0
    6.6504   -7.8639    0.0000 C   0  0  2  0  0  0  0  0  0  0  0  0
    5.9359   -9.1014    0.0000 C   0  0  0  0  0  0  0  0  0  0  0  0
    6.6504   -9.5139    0.0000 C   0  0  2  0  0  0  0  0  0  0  0  0
    7.3649   -9.1014    0.0000 C   0  0  1  0  0  0  0  0  0  0  0  0
    7.3649   -8.2764    0.0000 C   0  0  1  0  0  0  0  0  0  0  0  0
    8.0794   -9.5139    0.0000 O   0  0  0  0  0  0  0  0  0  0  0  0
    8.7938   -9.1014    0.0000 O   0  0  0  0  0  0  0  0  0  0  0  0
    8.7938   -8.2764    0.0000 C   0  0  1  0  0  0  0  0  0  0  0  0
    8.0794   -7.8639    0.0000 O   0  0  0  0  0  0  0  0  0  0  0  0
    9.5083   -9.5139    0.0000 C   0  0  1  0  0  0  0  0  0  0  0  0
   10.2228   -9.1014    0.0000 C   0  0  2  0  0  0  0  0  0  0  0  0
   10.2228   -8.2764    0.0000 C   0  0  1  0  0  0  0  0  0  0  0  0
    9.5083   -7.8639    0.0000 C   0  0  1  0  0  0  0  0  0  0  0  0
    2.3636   -5.3889    0.0000 O   0  0  0  0  0  0  0  0  0  0  0  0
    8.7938   -4.1514    0.0000 O   0  0  0  0  0  0  0  0  0  0  0  0
    8.7938   -5.8014    0.0000 O   0  0  0  0  0  0  0  0  0  0  0  0
    6.6504  -10.3389    0.0000 O   0  0  0  0  0  0  0  0  0  0  0  0
   10.9372   -7.8639    0.0000 O   0  0  0  0  0  0  0  0  0  0  0  0
    9.5083  -10.3389    0.0000 C   0  0  0  0  0  0  0  0  0  0  0  0
    9.5083   -7.0389    0.0000 O   0  0  0  0  0  0  0  0  0  0  0  0
   10.9372   -9.5139    0.0000 O   0  0  0  0  0  0  0  0  0  0  0  0
   10.2228  -10.7514    0.0000 O   0  0  0  0  0  0  0  0  0  0  0  0
  1  2  2  0  0  0  0
  2  3  1  0  0  0  0
  3  4  2  0  0  0  0
  4  5  1  0  0  0  0
  5  6  2  0  0  0  0
  6  1  1  0  0  0  0
  4  7  1  0  0  0  0
  7  8  1  0  0  0  0
  8  9  2  0  0  0  0
  9 10  1  0  0  0  0
 10  5  1  0  0  0  0
  3 11  1  0  0  0  0
 12  7  2  0  0  0  0
  8 13  1  0  0  0  0
 14 15  2  0  0  0  0
 15  9  1  0  0  0  0
 14 16  1  0  0  0  0
 16 17  2  0  0  0  0
 17 18  1  0  0  0  0
 18 19  2  0  0  0  0
 19 15  1  0  0  0  0
 20 21  1  0  0  0  0
 21 13  1  1  0  0  0
 20 22  1  0  0  0  0
 22 23  1  0  0  0  0
 23 24  1  0  0  0  0
 24 25  1  0  0  0  0
 25 21  1  0  0  0  0
 24 26  1  1  0  0  0
 27 28  1  0  0  0  0
 28 29  1  1  0  0  0
 25 29  1  6  0  0  0
 27 30  1  0  0  0  0
 30 31  1  0  0  0  0
 31 32  1  0  0  0  0
 32 33  1  0  0  0  0
 33 28  1  0  0  0  0
  1 34  1  0  0  0  0
 17 35  1  0  0  0  0
 16 36  1  0  0  0  0
 23 37  1  6  0  0  0
 32 38  1  1  0  0  0
 30 39  1  1  0  0  0
 33 40  1  6  0  0  0
 31 41  1  6  0  0  0
 39 42  1  0  0  0  0
M  END
>  <cdx:fragmentId>
5

$$$$
