70085.cdx
  Mrv1902 05222410282D          

 57 62  0  0  0  0            999 V2000
    5.1818   -3.8626    0.0000 C   0  0  0  0  0  0  0  0  0  0  0  0
    5.1818   -4.6876    0.0000 C   0  0  0  0  0  0  0  0  0  0  0  0
    5.8963   -5.1001    0.0000 C   0  0  0  0  0  0  0  0  0  0  0  0
    6.6107   -4.6876    0.0000 C   0  0  0  0  0  0  0  0  0  0  0  0
    6.6107   -3.8626    0.0000 C   0  0  0  0  0  0  0  0  0  0  0  0
    5.8963   -3.4501    0.0000 C   0  0  0  0  0  0  0  0  0  0  0  0
    5.8963   -5.9251    0.0000 C   0  0  0  0  0  0  0  0  0  0  0  0
    6.6107   -6.3376    0.0000 C   0  0  0  0  0  0  0  0  0  0  0  0
    7.3252   -5.9251    0.0000 C   0  0  0  0  0  0  0  0  0  0  0  0
    7.3252   -5.1001    0.0000 O   0  0  0  0  0  0  0  0  0  0  0  0
    4.4673   -5.1001    0.0000 O   0  0  0  0  0  0  0  0  0  0  0  0
    5.1818   -6.3376    0.0000 O   0  0  0  0  0  0  0  0  0  0  0  0
    5.1818   -7.1626    0.0000 O   0  0  0  0  0  0  0  0  0  0  0  0
    5.8963   -7.5751    0.0000 C   0  0  1  0  0  0  0  0  0  0  0  0
    6.6107   -7.1626    0.0000 O   0  0  0  0  0  0  0  0  0  0  0  0
    8.0397   -7.1626    0.0000 C   0  0  0  0  0  0  0  0  0  0  0  0
    8.0397   -6.3376    0.0000 C   0  0  0  0  0  0  0  0  0  0  0  0
    8.7542   -7.5751    0.0000 C   0  0  0  0  0  0  0  0  0  0  0  0
    9.4686   -7.1626    0.0000 C   0  0  0  0  0  0  0  0  0  0  0  0
    9.4686   -6.3376    0.0000 C   0  0  0  0  0  0  0  0  0  0  0  0
    8.7542   -5.9251    0.0000 C   0  0  0  0  0  0  0  0  0  0  0  0
    4.4673   -7.5751    0.0000 C   0  0  1  0  0  0  0  0  0  0  0  0
    4.4673   -8.4001    0.0000 C   0  0  2  0  0  0  0  0  0  0  0  0
    5.1818   -8.8126    0.0000 C   0  0  1  0  0  0  0  0  0  0  0  0
    5.8963   -8.4001    0.0000 C   0  0  1  0  0  0  0  0  0  0  0  0
    3.7529   -7.1626    0.0000 C   0  0  0  0  0  0  0  0  0  0  0  0
    3.0384   -7.5751    0.0000 O   0  0  0  0  0  0  0  0  0  0  0  0
    3.7529   -8.8126    0.0000 O   0  0  0  0  0  0  0  0  0  0  0  0
    5.8963   -2.6251    0.0000 O   0  0  0  0  0  0  0  0  0  0  0  0
   10.1831   -7.5751    0.0000 O   0  0  0  0  0  0  0  0  0  0  0  0
   10.1831   -5.9251    0.0000 O   0  0  0  0  0  0  0  0  0  0  0  0
    5.1818   -9.6376    0.0000 O   0  0  0  0  0  0  0  0  0  0  0  0
    6.6107   -8.8126    0.0000 O   0  0  0  0  0  0  0  0  0  0  0  0
    5.9137  -10.0517    0.0000 O   0  0  0  0  0  0  0  0  0  0  0  0
    6.6262   -9.6358    0.0000 C   0  0  2  0  0  0  0  0  0  0  0  0
    5.9176  -10.8767    0.0000 C   0  0  1  0  0  0  0  0  0  0  0  0
    6.6340  -11.2858    0.0000 C   0  0  2  0  0  0  0  0  0  0  0  0
    7.3465  -10.8699    0.0000 C   0  0  1  0  0  0  0  0  0  0  0  0
    7.3426  -10.0449    0.0000 C   0  0  1  0  0  0  0  0  0  0  0  0
    5.2051  -11.2926    0.0000 C   0  0  0  0  0  0  0  0  0  0  0  0
    5.2090  -12.1176    0.0000 O   0  0  0  0  0  0  0  0  0  0  0  0
    6.6379  -12.1108    0.0000 O   0  0  0  0  0  0  0  0  0  0  0  0
    8.0629  -11.2790    0.0000 O   0  0  0  0  0  0  0  0  0  0  0  0
    8.0551   -9.6291    0.0000 O   0  0  0  0  0  0  0  0  0  0  0  0
    3.0717  -15.8282    0.0000 C   0  0  0  0  0  0  0  0  0  0  0  0
    3.7863  -16.2404    0.0000 C   0  0  0  0  0  0  0  0  0  0  0  0
    4.5006  -15.8275    0.0000 C   0  0  0  0  0  0  0  0  0  0  0  0
    4.5003  -15.0025    0.0000 C   0  0  0  0  0  0  0  0  0  0  0  0
    3.7856  -14.5904    0.0000 C   0  0  0  0  0  0  0  0  0  0  0  0
    3.0713  -15.0032    0.0000 C   0  0  0  0  0  0  0  0  0  0  0  0
    3.7867  -17.0654    0.0000 O   0  0  0  0  0  0  0  0  0  0  0  0
    2.3574  -16.2410    0.0000 O   0  0  0  0  0  0  0  0  0  0  0  0
    1.6427  -15.8288    0.0000 C   0  0  0  0  0  0  0  0  0  0  0  0
    3.7852  -13.7654    0.0000 C   0  0  0  0  0  0  0  0  0  0  0  0
    4.4995  -13.3525    0.0000 C   0  0  0  0  0  0  0  0  0  0  0  0
    4.4991  -12.5275    0.0000 C   0  0  0  0  0  0  0  0  0  0  0  0
    3.7845  -12.1154    0.0000 O   0  0  0  0  0  0  0  0  0  0  0  0
  1  2  1  0  0  0  0
  2  3  2  0  0  0  0
  3  4  1  0  0  0  0
  4  5  2  0  0  0  0
  5  6  1  0  0  0  0
  6  1  2  0  0  0  0
  3  7  1  0  0  0  0
  7  8  1  0  0  0  0
  8  9  2  0  0  0  0
  9 10  1  0  0  0  0
 10  4  1  0  0  0  0
  2 11  1  0  0  0  0
 12  7  2  0  0  0  0
 13 14  1  0  0  0  0
 14 15  1  1  0  0  0
 15  8  1  0  0  0  0
 16 17  2  0  0  0  0
 17  9  1  0  0  0  0
 16 18  1  0  0  0  0
 18 19  2  0  0  0  0
 19 20  1  0  0  0  0
 20 21  2  0  0  0  0
 21 17  1  0  0  0  0
 13 22  1  0  0  0  0
 22 23  1  0  0  0  0
 23 24  1  0  0  0  0
 24 25  1  0  0  0  0
 25 14  1  0  0  0  0
 22 26  1  1  0  0  0
 26 27  1  0  0  0  0
 23 28  1  6  0  0  0
  6 29  1  0  0  0  0
 19 30  1  0  0  0  0
 20 31  1  0  0  0  0
 24 32  1  1  0  0  0
 25 33  1  6  0  0  0
 34 35  1  0  0  0  0
 34 36  1  0  0  0  0
 36 37  1  0  0  0  0
 37 38  1  0  0  0  0
 38 39  1  0  0  0  0
 39 35  1  0  0  0  0
 36 40  1  1  0  0  0
 40 41  1  0  0  0  0
 37 42  1  6  0  0  0
 38 43  1  1  0  0  0
 39 44  1  6  0  0  0
 35 33  1  1  0  0  0
 45 46  2  0  0  0  0
 46 47  1  0  0  0  0
 47 48  2  0  0  0  0
 48 49  1  0  0  0  0
 49 50  2  0  0  0  0
 50 45  1  0  0  0  0
 46 51  1  0  0  0  0
 45 52  1  0  0  0  0
 52 53  1  0  0  0  0
 49 54  1  0  0  0  0
 54 55  2  0  0  0  0
 55 56  1  0  0  0  0
 56 57  2  0  0  0  0
 56 41  1  0  0  0  0
M  END
>  <cdx:fragmentId>
5

$$$$
