70082.cdx
  Mrv1902 05222410272D          

 44 48  0  0  0  0            999 V2000
    4.9561   -6.0261    0.0000 C   0  0  0  0  0  0  0  0  0  0  0  0
    5.6683   -6.4426    0.0000 C   0  0  0  0  0  0  0  0  0  0  0  0
    6.3850   -6.0340    0.0000 C   0  0  0  0  0  0  0  0  0  0  0  0
    6.3896   -5.2090    0.0000 C   0  0  0  0  0  0  0  0  0  0  0  0
    5.6774   -4.7926    0.0000 C   0  0  0  0  0  0  0  0  0  0  0  0
    4.9606   -5.2012    0.0000 C   0  0  0  0  0  0  0  0  0  0  0  0
    7.0972   -6.4504    0.0000 C   0  0  0  0  0  0  0  0  0  0  0  0
    7.8139   -6.0418    0.0000 C   0  0  0  0  0  0  0  0  0  0  0  0
    7.8185   -5.2168    0.0000 C   0  0  0  0  0  0  0  0  0  0  0  0
    7.1063   -4.8004    0.0000 O   0  0  0  0  0  0  0  0  0  0  0  0
    5.6638   -7.2675    0.0000 O   0  0  0  0  0  0  0  0  0  0  0  0
    7.0927   -7.2754    0.0000 O   0  0  0  0  0  0  0  0  0  0  0  0
    7.8049   -7.6918    0.0000 O   0  0  0  0  0  0  0  0  0  0  0  0
    8.5216   -7.2832    0.0000 C   0  0  1  0  0  0  0  0  0  0  0  0
    8.5261   -6.4582    0.0000 O   0  0  0  0  0  0  0  0  0  0  0  0
    9.2474   -5.2247    0.0000 C   0  0  0  0  0  0  0  0  0  0  0  0
    8.5352   -4.8083    0.0000 C   0  0  0  0  0  0  0  0  0  0  0  0
    9.9641   -4.8161    0.0000 C   0  0  0  0  0  0  0  0  0  0  0  0
    9.9686   -3.9911    0.0000 C   0  0  0  0  0  0  0  0  0  0  0  0
    9.2564   -3.5747    0.0000 C   0  0  0  0  0  0  0  0  0  0  0  0
    8.5397   -3.9833    0.0000 C   0  0  0  0  0  0  0  0  0  0  0  0
    7.8004   -8.5168    0.0000 C   0  0  1  0  0  0  0  0  0  0  0  0
    8.5126   -8.9332    0.0000 C   0  0  1  0  0  0  0  0  0  0  0  0
    9.2293   -8.5246    0.0000 C   0  0  1  0  0  0  0  0  0  0  0  0
    9.2338   -7.6996    0.0000 C   0  0  1  0  0  0  0  0  0  0  0  0
    7.0836   -8.9254    0.0000 C   0  0  0  0  0  0  0  0  0  0  0  0
    7.0791   -9.7503    0.0000 O   0  0  0  0  0  0  0  0  0  0  0  0
    8.5080   -9.7582    0.0000 O   0  0  0  0  0  0  0  0  0  0  0  0
    6.3624  -10.1589    0.0000 C   0  0  0  0  0  0  0  0  0  0  0  0
    6.3579  -10.9839    0.0000 C   0  0  0  0  0  0  0  0  0  0  0  0
    7.0701  -11.4003    0.0000 C   0  0  0  0  0  0  0  0  0  0  0  0
    5.6411  -11.3925    0.0000 C   0  0  0  0  0  0  0  0  0  0  0  0
    5.6366  -12.2175    0.0000 C   0  0  0  0  0  0  0  0  0  0  0  0
    6.3488  -12.6339    0.0000 C   0  0  0  0  0  0  0  0  0  0  0  0
    7.0655  -12.2253    0.0000 C   0  0  0  0  0  0  0  0  0  0  0  0
    4.9199  -12.6260    0.0000 O   0  0  0  0  0  0  0  0  0  0  0  0
    6.3443  -13.4589    0.0000 O   0  0  0  0  0  0  0  0  0  0  0  0
    7.7777  -12.6417    0.0000 O   0  0  0  0  0  0  0  0  0  0  0  0
    5.6502   -9.7425    0.0000 O   0  0  0  0  0  0  0  0  0  0  0  0
    4.2484   -4.7847    0.0000 O   0  0  0  0  0  0  0  0  0  0  0  0
   10.6854   -3.5825    0.0000 O   0  0  0  0  0  0  0  0  0  0  0  0
    9.2610   -2.7497    0.0000 O   0  0  0  0  0  0  0  0  0  0  0  0
    9.9415   -8.9410    0.0000 O   0  0  0  0  0  0  0  0  0  0  0  0
    9.9505   -7.2911    0.0000 O   0  0  0  0  0  0  0  0  0  0  0  0
  1  2  1  0  0  0  0
  2  3  2  0  0  0  0
  3  4  1  0  0  0  0
  4  5  2  0  0  0  0
  5  6  1  0  0  0  0
  6  1  2  0  0  0  0
  3  7  1  0  0  0  0
  7  8  1  0  0  0  0
  8  9  2  0  0  0  0
  9 10  1  0  0  0  0
 10  4  1  0  0  0  0
  2 11  1  0  0  0  0
 12  7  2  0  0  0  0
 13 14  1  0  0  0  0
 14 15  1  1  0  0  0
 15  8  1  0  0  0  0
 16 17  2  0  0  0  0
 17  9  1  0  0  0  0
 16 18  1  0  0  0  0
 18 19  2  0  0  0  0
 19 20  1  0  0  0  0
 20 21  2  0  0  0  0
 21 17  1  0  0  0  0
 13 22  1  0  0  0  0
 22 23  1  0  0  0  0
 23 24  1  0  0  0  0
 24 25  1  0  0  0  0
 25 14  1  0  0  0  0
 22 26  1  1  0  0  0
 26 27  1  0  0  0  0
 23 28  1  1  0  0  0
 27 29  1  0  0  0  0
 29 30  1  0  0  0  0
 30 31  2  0  0  0  0
 30 32  1  0  0  0  0
 32 33  2  0  0  0  0
 33 34  1  0  0  0  0
 34 35  2  0  0  0  0
 35 31  1  0  0  0  0
 33 36  1  0  0  0  0
 34 37  1  0  0  0  0
 35 38  1  0  0  0  0
 29 39  2  0  0  0  0
  6 40  1  0  0  0  0
 19 41  1  0  0  0  0
 20 42  1  0  0  0  0
 24 43  1  1  0  0  0
 25 44  1  6  0  0  0
M  END
>  <cdx:fragmentId>
5

$$$$
