70086.cdx
  Mrv1902 05222410272D          

 43 47  0  0  0  0            999 V2000
    4.1964   -6.1468    0.0000 C   0  0  0  0  0  0  0  0  0  0  0  0
    4.9071   -6.5658    0.0000 C   0  0  0  0  0  0  0  0  0  0  0  0
    5.6253   -6.1598    0.0000 C   0  0  0  0  0  0  0  0  0  0  0  0
    5.6328   -5.3348    0.0000 C   0  0  0  0  0  0  0  0  0  0  0  0
    4.9222   -4.9158    0.0000 C   0  0  0  0  0  0  0  0  0  0  0  0
    4.2040   -5.3218    0.0000 C   0  0  0  0  0  0  0  0  0  0  0  0
    6.3360   -6.5788    0.0000 C   0  0  0  0  0  0  0  0  0  0  0  0
    7.0542   -6.1728    0.0000 C   0  0  0  0  0  0  0  0  0  0  0  0
    7.0617   -5.3479    0.0000 C   0  0  0  0  0  0  0  0  0  0  0  0
    6.3510   -4.9289    0.0000 O   0  0  0  0  0  0  0  0  0  0  0  0
    4.8996   -7.3907    0.0000 O   0  0  0  0  0  0  0  0  0  0  0  0
    6.3285   -7.4038    0.0000 O   0  0  0  0  0  0  0  0  0  0  0  0
    7.0392   -7.8227    0.0000 O   0  0  0  0  0  0  0  0  0  0  0  0
    7.7574   -7.4168    0.0000 C   0  0  1  0  0  0  0  0  0  0  0  0
    7.7649   -6.5918    0.0000 O   0  0  0  0  0  0  0  0  0  0  0  0
    8.4906   -5.3609    0.0000 C   0  0  0  0  0  0  0  0  0  0  0  0
    7.7799   -4.9419    0.0000 C   0  0  0  0  0  0  0  0  0  0  0  0
    9.2088   -4.9549    0.0000 C   0  0  0  0  0  0  0  0  0  0  0  0
    9.2163   -4.1299    0.0000 C   0  0  0  0  0  0  0  0  0  0  0  0
    8.5056   -3.7109    0.0000 C   0  0  0  0  0  0  0  0  0  0  0  0
    7.7874   -4.1169    0.0000 C   0  0  0  0  0  0  0  0  0  0  0  0
    7.0317   -8.6477    0.0000 C   0  0  1  0  0  0  0  0  0  0  0  0
    7.7423   -9.0667    0.0000 C   0  0  2  0  0  0  0  0  0  0  0  0
    8.4605   -8.6607    0.0000 C   0  0  1  0  0  0  0  0  0  0  0  0
    8.4681   -7.8358    0.0000 C   0  0  1  0  0  0  0  0  0  0  0  0
    6.3135   -9.0537    0.0000 C   0  0  0  0  0  0  0  0  0  0  0  0
    6.3059   -9.8787    0.0000 O   0  0  0  0  0  0  0  0  0  0  0  0
    7.7348   -9.8917    0.0000 O   0  0  0  0  0  0  0  0  0  0  0  0
    3.4933   -4.9028    0.0000 O   0  0  0  0  0  0  0  0  0  0  0  0
    9.9345   -3.7240    0.0000 O   0  0  0  0  0  0  0  0  0  0  0  0
    8.5132   -2.8860    0.0000 O   0  0  0  0  0  0  0  0  0  0  0  0
    9.1712   -9.0797    0.0000 O   0  0  0  0  0  0  0  0  0  0  0  0
    9.1863   -7.4298    0.0000 O   0  0  0  0  0  0  0  0  0  0  0  0
    8.1530  -10.6029    0.0000 C   0  0  2  0  0  0  0  0  0  0  0  0
    7.7461  -11.3206    0.0000 O   0  0  0  0  0  0  0  0  0  0  0  0
    8.1643  -12.0318    0.0000 C   0  0  2  0  0  0  0  0  0  0  0  0
    8.9893  -12.0252    0.0000 C   0  0  1  0  0  0  0  0  0  0  0  0
    9.3961  -11.3075    0.0000 C   0  0  2  0  0  0  0  0  0  0  0  0
    8.9779  -10.5963    0.0000 C   0  0  1  0  0  0  0  0  0  0  0  0
    9.4074  -12.7364    0.0000 O   0  0  0  0  0  0  0  0  0  0  0  0
    9.3848   -9.8786    0.0000 O   0  0  0  0  0  0  0  0  0  0  0  0
   10.2211  -11.3010    0.0000 O   0  0  0  0  0  0  0  0  0  0  0  0
    7.7575  -12.7495    0.0000 C   0  0  0  0  0  0  0  0  0  0  0  0
  1  2  1  0  0  0  0
  2  3  2  0  0  0  0
  3  4  1  0  0  0  0
  4  5  2  0  0  0  0
  5  6  1  0  0  0  0
  6  1  2  0  0  0  0
  3  7  1  0  0  0  0
  7  8  1  0  0  0  0
  8  9  2  0  0  0  0
  9 10  1  0  0  0  0
 10  4  1  0  0  0  0
  2 11  1  0  0  0  0
 12  7  2  0  0  0  0
 13 14  1  0  0  0  0
 14 15  1  1  0  0  0
 15  8  1  0  0  0  0
 16 17  2  0  0  0  0
 17  9  1  0  0  0  0
 16 18  1  0  0  0  0
 18 19  2  0  0  0  0
 19 20  1  0  0  0  0
 20 21  2  0  0  0  0
 21 17  1  0  0  0  0
 13 22  1  0  0  0  0
 22 23  1  0  0  0  0
 23 24  1  0  0  0  0
 24 25  1  0  0  0  0
 25 14  1  0  0  0  0
 22 26  1  1  0  0  0
 26 27  1  0  0  0  0
 23 28  1  6  0  0  0
  6 29  1  0  0  0  0
 19 30  1  0  0  0  0
 20 31  1  0  0  0  0
 24 32  1  1  0  0  0
 25 33  1  6  0  0  0
 34 28  1  1  0  0  0
 34 35  1  0  0  0  0
 35 36  1  0  0  0  0
 36 37  1  0  0  0  0
 37 38  1  0  0  0  0
 38 39  1  0  0  0  0
 39 34  1  0  0  0  0
 37 40  1  1  0  0  0
 39 41  1  6  0  0  0
 38 42  1  6  0  0  0
 36 43  1  6  0  0  0
M  END
>  <cdx:fragmentId>
5

$$$$
