70094.cdx
  Mrv1902 05222410262D          

 42 46  0  0  0  0            999 V2000
    2.8745   -8.8146    0.0000 C   0  0  0  0  0  0  0  0  0  0  0  0
    3.5911   -9.2234    0.0000 C   0  0  0  0  0  0  0  0  0  0  0  0
    4.3034   -8.8071    0.0000 C   0  0  0  0  0  0  0  0  0  0  0  0
    4.2991   -7.9821    0.0000 C   0  0  0  0  0  0  0  0  0  0  0  0
    3.5824   -7.5734    0.0000 C   0  0  0  0  0  0  0  0  0  0  0  0
    2.8701   -7.9897    0.0000 C   0  0  0  0  0  0  0  0  0  0  0  0
    5.0200   -9.2159    0.0000 C   0  0  0  0  0  0  0  0  0  0  0  0
    5.7323   -8.7996    0.0000 C   0  0  0  0  0  0  0  0  0  0  0  0
    5.7280   -7.9746    0.0000 C   0  0  0  0  0  0  0  0  0  0  0  0
    5.0114   -7.5659    0.0000 O   0  0  0  0  0  0  0  0  0  0  0  0
    3.5955  -10.0484    0.0000 O   0  0  0  0  0  0  0  0  0  0  0  0
    5.0244  -10.0408    0.0000 O   0  0  0  0  0  0  0  0  0  0  0  0
    6.4490   -9.2083    0.0000 O   0  0  0  0  0  0  0  0  0  0  0  0
    7.1569   -7.9671    0.0000 C   0  0  0  0  0  0  0  0  0  0  0  0
    6.4403   -7.5584    0.0000 C   0  0  0  0  0  0  0  0  0  0  0  0
    7.8692   -7.5508    0.0000 C   0  0  0  0  0  0  0  0  0  0  0  0
    7.8649   -6.7259    0.0000 C   0  0  0  0  0  0  0  0  0  0  0  0
    7.1482   -6.3171    0.0000 C   0  0  0  0  0  0  0  0  0  0  0  0
    6.4359   -6.7334    0.0000 C   0  0  0  0  0  0  0  0  0  0  0  0
    2.1535   -7.5809    0.0000 O   0  0  0  0  0  0  0  0  0  0  0  0
    8.5772   -6.3096    0.0000 O   0  0  0  0  0  0  0  0  0  0  0  0
    7.1439   -5.4921    0.0000 O   0  0  0  0  0  0  0  0  0  0  0  0
    5.7591  -11.2632    0.0000 C   0  0  2  0  0  0  0  0  0  0  0  0
    6.4753  -11.6727    0.0000 C   0  0  1  0  0  0  0  0  0  0  0  0
    7.1880  -11.2572    0.0000 C   0  0  1  0  0  0  0  0  0  0  0  0
    7.1845  -10.4322    0.0000 C   0  0  2  0  0  0  0  0  0  0  0  0
    6.4683  -10.0227    0.0000 C   0  0  1  0  0  0  0  0  0  0  0  0
    5.7556  -10.4382    0.0000 O   0  0  0  0  0  0  0  0  0  0  0  0
    5.0464  -11.6788    0.0000 C   0  0  0  0  0  0  0  0  0  0  0  0
    7.9042  -11.6666    0.0000 O   0  0  0  0  0  0  0  0  0  0  0  0
    6.4788  -12.4977    0.0000 O   0  0  0  0  0  0  0  0  0  0  0  0
    7.8972  -10.0166    0.0000 O   0  0  0  0  0  0  0  0  0  0  0  0
    5.0499  -12.5038    0.0000 O   0  0  0  0  0  0  0  0  0  0  0  0
    8.6134  -10.4261    0.0000 C   0  0  2  0  0  0  0  0  0  0  0  0
    8.7032  -11.2462    0.0000 O   0  0  0  0  0  0  0  0  0  0  0  0
    9.5109  -11.4143    0.0000 C   0  0  0  0  0  0  0  0  0  0  0  0
    9.9203  -10.6981    0.0000 C   0  0  1  0  0  0  0  0  0  0  0  0
    9.3657  -10.0873    0.0000 C   0  0  1  0  0  0  0  0  0  0  0  0
   10.6365  -11.1075    0.0000 C   0  0  0  0  0  0  0  0  0  0  0  0
    9.5338   -9.2796    0.0000 O   0  0  0  0  0  0  0  0  0  0  0  0
   10.5012  -10.1122    0.0000 O   0  0  0  0  0  0  0  0  0  0  0  0
   11.3510  -10.6950    0.0000 O   0  0  0  0  0  0  0  0  0  0  0  0
  1  2  1  0  0  0  0
  2  3  2  0  0  0  0
  3  4  1  0  0  0  0
  4  5  2  0  0  0  0
  5  6  1  0  0  0  0
  6  1  2  0  0  0  0
  3  7  1  0  0  0  0
  7  8  1  0  0  0  0
  8  9  2  0  0  0  0
  9 10  1  0  0  0  0
 10  4  1  0  0  0  0
  2 11  1  0  0  0  0
 12  7  2  0  0  0  0
 13  8  1  0  0  0  0
 14 15  2  0  0  0  0
 15  9  1  0  0  0  0
 14 16  1  0  0  0  0
 16 17  2  0  0  0  0
 17 18  1  0  0  0  0
 18 19  2  0  0  0  0
 19 15  1  0  0  0  0
  6 20  1  0  0  0  0
 17 21  1  0  0  0  0
 18 22  1  0  0  0  0
 23 24  1  0  0  0  0
 24 25  1  0  0  0  0
 25 26  1  0  0  0  0
 26 27  1  0  0  0  0
 27 28  1  0  0  0  0
 28 23  1  0  0  0  0
 23 29  1  1  0  0  0
 25 30  1  1  0  0  0
 24 31  1  1  0  0  0
 26 32  1  6  0  0  0
 29 33  1  0  0  0  0
 34 32  1  1  0  0  0
 34 35  1  0  0  0  0
 35 36  1  0  0  0  0
 36 37  1  0  0  0  0
 37 38  1  0  0  0  0
 38 34  1  0  0  0  0
 37 39  1  1  0  0  0
 38 40  1  6  0  0  0
 37 41  1  6  0  0  0
 39 42  1  0  0  0  0
 27 13  1  1  0  0  0
M  END
>  <cdx:fragmentId>
500

$$$$
