70096.cdx
  Mrv1902 05222410272D          

 43 47  0  0  0  0            999 V2000
    5.8032   -8.4709    0.0000 C   0  0  0  0  0  0  0  0  0  0  0  0
    6.5199   -8.8796    0.0000 C   0  0  0  0  0  0  0  0  0  0  0  0
    7.2322   -8.4634    0.0000 C   0  0  0  0  0  0  0  0  0  0  0  0
    7.2278   -7.6384    0.0000 C   0  0  0  0  0  0  0  0  0  0  0  0
    6.5112   -7.2297    0.0000 C   0  0  0  0  0  0  0  0  0  0  0  0
    5.7989   -7.6459    0.0000 C   0  0  0  0  0  0  0  0  0  0  0  0
    7.9488   -8.8721    0.0000 C   0  0  0  0  0  0  0  0  0  0  0  0
    8.6611   -8.4559    0.0000 C   0  0  0  0  0  0  0  0  0  0  0  0
    8.6567   -7.6309    0.0000 C   0  0  0  0  0  0  0  0  0  0  0  0
    7.9401   -7.2221    0.0000 O   0  0  0  0  0  0  0  0  0  0  0  0
    6.5242   -9.7046    0.0000 O   0  0  0  0  0  0  0  0  0  0  0  0
    7.9531   -9.6971    0.0000 O   0  0  0  0  0  0  0  0  0  0  0  0
    9.3777   -8.8646    0.0000 O   0  0  0  0  0  0  0  0  0  0  0  0
   10.0857   -7.6233    0.0000 C   0  0  0  0  0  0  0  0  0  0  0  0
    9.3690   -7.2146    0.0000 C   0  0  0  0  0  0  0  0  0  0  0  0
   10.7980   -7.2071    0.0000 C   0  0  0  0  0  0  0  0  0  0  0  0
   10.7936   -6.3821    0.0000 C   0  0  0  0  0  0  0  0  0  0  0  0
   10.0770   -5.9734    0.0000 C   0  0  0  0  0  0  0  0  0  0  0  0
    9.3647   -6.3896    0.0000 C   0  0  0  0  0  0  0  0  0  0  0  0
    5.0823   -7.2372    0.0000 O   0  0  0  0  0  0  0  0  0  0  0  0
   11.5059   -5.9659    0.0000 O   0  0  0  0  0  0  0  0  0  0  0  0
   10.0726   -5.1484    0.0000 O   0  0  0  0  0  0  0  0  0  0  0  0
    8.6878  -10.9195    0.0000 C   0  0  1  0  0  0  0  0  0  0  0  0
    9.4041  -11.3289    0.0000 C   0  0  1  0  0  0  0  0  0  0  0  0
   10.1168  -10.9134    0.0000 C   0  0  2  0  0  0  0  0  0  0  0  0
   10.1133  -10.0884    0.0000 C   0  0  2  0  0  0  0  0  0  0  0  0
    9.3970   -9.6790    0.0000 C   0  0  1  0  0  0  0  0  0  0  0  0
    8.6843  -10.0945    0.0000 O   0  0  0  0  0  0  0  0  0  0  0  0
    7.9751  -11.3350    0.0000 C   0  0  0  0  0  0  0  0  0  0  0  0
   10.8330  -11.3229    0.0000 O   0  0  0  0  0  0  0  0  0  0  0  0
    9.4076  -12.1539    0.0000 O   0  0  0  0  0  0  0  0  0  0  0  0
   10.8260   -9.6729    0.0000 O   0  0  0  0  0  0  0  0  0  0  0  0
    2.9607   -7.6443    0.0000 C   0  0  2  0  0  0  0  0  0  0  0  0
    2.9551   -8.4692    0.0000 C   0  0  2  0  0  0  0  0  0  0  0  0
    3.6668   -8.8866    0.0000 C   0  0  1  0  0  0  0  0  0  0  0  0
    4.3840   -8.4789    0.0000 C   0  0  2  0  0  0  0  0  0  0  0  0
    4.3896   -7.6539    0.0000 C   0  0  1  0  0  0  0  0  0  0  0  0
    3.6780   -7.2366    0.0000 O   0  0  0  0  0  0  0  0  0  0  0  0
    2.2491   -7.2269    0.0000 C   0  0  0  0  0  0  0  0  0  0  0  0
    3.6612   -9.7116    0.0000 O   0  0  0  0  0  0  0  0  0  0  0  0
    2.2379   -8.8769    0.0000 O   0  0  0  0  0  0  0  0  0  0  0  0
    5.0957   -8.8963    0.0000 O   0  0  0  0  0  0  0  0  0  0  0  0
    1.5318   -7.6346    0.0000 O   0  0  0  0  0  0  0  0  0  0  0  0
  1  2  1  0  0  0  0
  2  3  2  0  0  0  0
  3  4  1  0  0  0  0
  4  5  2  0  0  0  0
  5  6  1  0  0  0  0
  6  1  2  0  0  0  0
  3  7  1  0  0  0  0
  7  8  1  0  0  0  0
  8  9  2  0  0  0  0
  9 10  1  0  0  0  0
 10  4  1  0  0  0  0
  2 11  1  0  0  0  0
 12  7  2  0  0  0  0
 13  8  1  0  0  0  0
 14 15  2  0  0  0  0
 15  9  1  0  0  0  0
 14 16  1  0  0  0  0
 16 17  2  0  0  0  0
 17 18  1  0  0  0  0
 18 19  2  0  0  0  0
 19 15  1  0  0  0  0
  6 20  1  0  0  0  0
 17 21  1  0  0  0  0
 18 22  1  0  0  0  0
 23 24  1  0  0  0  0
 24 25  1  0  0  0  0
 25 26  1  0  0  0  0
 26 27  1  0  0  0  0
 27 28  1  0  0  0  0
 28 23  1  0  0  0  0
 23 29  1  6  0  0  0
 25 30  1  6  0  0  0
 24 31  1  1  0  0  0
 26 32  1  6  0  0  0
 27 13  1  1  0  0  0
 33 34  1  0  0  0  0
 34 35  1  0  0  0  0
 35 36  1  0  0  0  0
 36 37  1  0  0  0  0
 37 38  1  0  0  0  0
 38 33  1  0  0  0  0
 33 39  1  1  0  0  0
 35 40  1  1  0  0  0
 34 41  1  6  0  0  0
 36 42  1  6  0  0  0
 39 43  1  0  0  0  0
 37 20  1  1  0  0  0
M  END
>  <cdx:fragmentId>
500

$$$$
