70105.cdx
  Mrv1902 05222410192D          

 35 38  0  0  0  0            999 V2000
    5.3347   -7.8981    0.0000 C   0  0  0  0  0  0  0  0  0  0  0  0
    5.3355   -7.0731    0.0000 C   0  0  0  0  0  0  0  0  0  0  0  0
    4.6214   -6.6600    0.0000 O   0  0  0  0  0  0  0  0  0  0  0  0
    3.9065   -7.0718    0.0000 C   0  0  0  0  0  0  0  0  0  0  0  0
    6.0488   -8.3113    0.0000 C   0  0  0  0  0  0  0  0  0  0  0  0
    6.7636   -7.8995    0.0000 C   0  0  0  0  0  0  0  0  0  0  0  0
    6.7644   -7.0745    0.0000 C   0  0  0  0  0  0  0  0  0  0  0  0
    6.0503   -6.6613    0.0000 C   0  0  0  0  0  0  0  0  0  0  0  0
    7.4777   -8.3126    0.0000 C   0  0  0  0  0  0  0  0  0  0  0  0
    8.1926   -7.9008    0.0000 C   0  0  0  0  0  0  0  0  0  0  0  0
    8.1933   -7.0758    0.0000 C   0  0  0  0  0  0  0  0  0  0  0  0
    7.4792   -6.6626    0.0000 O   0  0  0  0  0  0  0  0  0  0  0  0
    6.0480   -9.1363    0.0000 O   0  0  0  0  0  0  0  0  0  0  0  0
    7.4770   -9.1376    0.0000 O   0  0  0  0  0  0  0  0  0  0  0  0
    8.1911   -9.5508    0.0000 O   0  0  0  0  0  0  0  0  0  0  0  0
    8.9059   -9.1389    0.0000 C   0  0  1  0  0  0  0  0  0  0  0  0
    8.9067   -8.3139    0.0000 O   0  0  0  0  0  0  0  0  0  0  0  0
    8.1903  -10.3758    0.0000 C   0  0  1  0  0  0  0  0  0  0  0  0
    8.9044  -10.7889    0.0000 C   0  0  2  0  0  0  0  0  0  0  0  0
    9.6192  -10.3771    0.0000 C   0  0  1  0  0  0  0  0  0  0  0  0
    9.6200   -9.5521    0.0000 C   0  0  1  0  0  0  0  0  0  0  0  0
    7.4754  -10.7876    0.0000 C   0  0  0  0  0  0  0  0  0  0  0  0
    7.4747  -11.6126    0.0000 O   0  0  0  0  0  0  0  0  0  0  0  0
    8.9036  -11.6139    0.0000 O   0  0  0  0  0  0  0  0  0  0  0  0
    9.6223   -7.0771    0.0000 C   0  0  0  0  0  0  0  0  0  0  0  0
    8.9082   -6.6640    0.0000 C   0  0  0  0  0  0  0  0  0  0  0  0
   10.3371   -6.6653    0.0000 C   0  0  0  0  0  0  0  0  0  0  0  0
   10.3379   -5.8403    0.0000 C   0  0  0  0  0  0  0  0  0  0  0  0
    9.6238   -5.4271    0.0000 C   0  0  0  0  0  0  0  0  0  0  0  0
    8.9090   -5.8390    0.0000 C   0  0  0  0  0  0  0  0  0  0  0  0
   11.0527   -5.4284    0.0000 O   0  0  0  0  0  0  0  0  0  0  0  0
    9.6246   -4.6021    0.0000 O   0  0  0  0  0  0  0  0  0  0  0  0
   10.3390   -4.1896    0.0000 C   0  0  0  0  0  0  0  0  0  0  0  0
   10.3333  -10.7903    0.0000 O   0  0  0  0  0  0  0  0  0  0  0  0
   10.3348   -9.1403    0.0000 O   0  0  0  0  0  0  0  0  0  0  0  0
  1  2  2  0  0  0  0
  2  3  1  0  0  0  0
  3  4  1  0  0  0  0
  1  5  1  0  0  0  0
  5  6  2  0  0  0  0
  6  7  1  0  0  0  0
  7  8  2  0  0  0  0
  8  2  1  0  0  0  0
  6  9  1  0  0  0  0
  9 10  1  0  0  0  0
 10 11  2  0  0  0  0
 11 12  1  0  0  0  0
 12  7  1  0  0  0  0
  5 13  1  0  0  0  0
 14  9  2  0  0  0  0
 15 16  1  0  0  0  0
 16 17  1  1  0  0  0
 17 10  1  0  0  0  0
 15 18  1  0  0  0  0
 18 19  1  0  0  0  0
 19 20  1  0  0  0  0
 20 21  1  0  0  0  0
 21 16  1  0  0  0  0
 18 22  1  1  0  0  0
 22 23  1  0  0  0  0
 19 24  1  6  0  0  0
 25 26  1  0  0  0  0
 26 11  1  0  0  0  0
 25 27  2  0  0  0  0
 27 28  1  0  0  0  0
 28 29  2  0  0  0  0
 29 30  1  0  0  0  0
 30 26  2  0  0  0  0
 28 31  1  0  0  0  0
 29 32  1  0  0  0  0
 32 33  1  0  0  0  0
 20 34  1  1  0  0  0
 21 35  1  6  0  0  0
M  END
>  <cdx:fragmentId>
5

$$$$
