70101.cdx
  Mrv1902 05222410192D          

 44 48  0  0  0  0            999 V2000
    2.3932   -6.8621    0.0000 C   0  0  0  0  0  0  0  0  0  0  0  0
    3.1099   -7.2709    0.0000 C   0  0  0  0  0  0  0  0  0  0  0  0
    3.8222   -6.8546    0.0000 C   0  0  0  0  0  0  0  0  0  0  0  0
    3.8178   -6.0296    0.0000 C   0  0  0  0  0  0  0  0  0  0  0  0
    3.1012   -5.6209    0.0000 C   0  0  0  0  0  0  0  0  0  0  0  0
    2.3889   -6.0372    0.0000 C   0  0  0  0  0  0  0  0  0  0  0  0
    4.5388   -7.2634    0.0000 C   0  0  0  0  0  0  0  0  0  0  0  0
    5.2511   -6.8471    0.0000 C   0  0  0  0  0  0  0  0  0  0  0  0
    5.2467   -6.0221    0.0000 C   0  0  0  0  0  0  0  0  0  0  0  0
    4.5301   -5.6134    0.0000 O   0  0  0  0  0  0  0  0  0  0  0  0
    3.1142   -8.0959    0.0000 O   0  0  0  0  0  0  0  0  0  0  0  0
    4.5431   -8.0883    0.0000 O   0  0  0  0  0  0  0  0  0  0  0  0
    5.9677   -7.2558    0.0000 O   0  0  0  0  0  0  0  0  0  0  0  0
    6.6757   -6.0146    0.0000 C   0  0  0  0  0  0  0  0  0  0  0  0
    5.9590   -5.6059    0.0000 C   0  0  0  0  0  0  0  0  0  0  0  0
    7.3880   -5.5983    0.0000 C   0  0  0  0  0  0  0  0  0  0  0  0
    7.3836   -4.7734    0.0000 C   0  0  0  0  0  0  0  0  0  0  0  0
    6.6670   -4.3646    0.0000 C   0  0  0  0  0  0  0  0  0  0  0  0
    5.9547   -4.7809    0.0000 C   0  0  0  0  0  0  0  0  0  0  0  0
    1.6723   -5.6284    0.0000 O   0  0  0  0  0  0  0  0  0  0  0  0
    8.0959   -4.3571    0.0000 O   0  0  0  0  0  0  0  0  0  0  0  0
    6.6626   -3.5396    0.0000 O   0  0  0  0  0  0  0  0  0  0  0  0
    5.2778   -9.3107    0.0000 C   0  0  2  0  0  0  0  0  0  0  0  0
    5.9941   -9.7202    0.0000 C   0  0  2  0  0  0  0  0  0  0  0  0
    6.7068   -9.3047    0.0000 C   0  0  1  0  0  0  0  0  0  0  0  0
    6.7033   -8.4797    0.0000 C   0  0  2  0  0  0  0  0  0  0  0  0
    5.9870   -8.0702    0.0000 C   0  0  1  0  0  0  0  0  0  0  0  0
    5.2743   -8.4857    0.0000 O   0  0  0  0  0  0  0  0  0  0  0  0
    4.5651   -9.7263    0.0000 C   0  0  0  0  0  0  0  0  0  0  0  0
    7.4230   -9.7141    0.0000 O   0  0  0  0  0  0  0  0  0  0  0  0
    5.9976  -10.5452    0.0000 O   0  0  0  0  0  0  0  0  0  0  0  0
    7.4160   -8.0641    0.0000 O   0  0  0  0  0  0  0  0  0  0  0  0
    4.5651  -10.5513    0.0000 O   0  0  0  0  0  0  0  0  0  0  0  0
    8.8548   -9.6990    0.0000 C   0  0  2  0  0  0  0  0  0  0  0  0
    9.5698   -9.2873    0.0000 C   0  0  2  0  0  0  0  0  0  0  0  0
    9.5707   -8.4623    0.0000 C   0  0  1  0  0  0  0  0  0  0  0  0
    8.8567   -8.0490    0.0000 C   0  0  2  0  0  0  0  0  0  0  0  0
    8.1417   -8.4607    0.0000 C   0  0  1  0  0  0  0  0  0  0  0  0
    8.1408   -9.2857    0.0000 O   0  0  0  0  0  0  0  0  0  0  0  0
    8.8539  -10.5240    0.0000 C   0  0  0  0  0  0  0  0  0  0  0  0
   10.2856   -8.0506    0.0000 O   0  0  0  0  0  0  0  0  0  0  0  0
   10.2838   -9.7006    0.0000 O   0  0  0  0  0  0  0  0  0  0  0  0
    8.8576   -7.2240    0.0000 O   0  0  0  0  0  0  0  0  0  0  0  0
    9.5662  -10.9403    0.0000 O   0  0  0  0  0  0  0  0  0  0  0  0
  1  2  1  0  0  0  0
  2  3  2  0  0  0  0
  3  4  1  0  0  0  0
  4  5  2  0  0  0  0
  5  6  1  0  0  0  0
  6  1  2  0  0  0  0
  3  7  1  0  0  0  0
  7  8  1  0  0  0  0
  8  9  2  0  0  0  0
  9 10  1  0  0  0  0
 10  4  1  0  0  0  0
  2 11  1  0  0  0  0
 12  7  2  0  0  0  0
 13  8  1  0  0  0  0
 14 15  2  0  0  0  0
 15  9  1  0  0  0  0
 14 16  1  0  0  0  0
 16 17  2  0  0  0  0
 17 18  1  0  0  0  0
 18 19  2  0  0  0  0
 19 15  1  0  0  0  0
  6 20  1  0  0  0  0
 17 21  1  0  0  0  0
 18 22  1  0  0  0  0
 23 24  1  0  0  0  0
 24 25  1  0  0  0  0
 25 26  1  0  0  0  0
 26 27  1  0  0  0  0
 27 28  1  0  0  0  0
 28 23  1  0  0  0  0
 23 29  1  1  0  0  0
 25 30  1  1  0  0  0
 24 31  1  6  0  0  0
 26 32  1  6  0  0  0
 27 13  1  1  0  0  0
 29 33  1  0  0  0  0
 34 35  1  0  0  0  0
 35 36  1  0  0  0  0
 36 37  1  0  0  0  0
 37 38  1  0  0  0  0
 38 39  1  0  0  0  0
 39 34  1  0  0  0  0
 34 40  1  1  0  0  0
 36 41  1  1  0  0  0
 35 42  1  6  0  0  0
 37 43  1  6  0  0  0
 40 44  1  0  0  0  0
 38 32  1  1  0  0  0
M  END
>  <cdx:fragmentId>
500

$$$$
