70107.cdx
  Mrv1902 05222410202D          

 37 40  0  0  0  0            999 V2000
    4.7581   -8.5175    0.0000 C   0  0  0  0  0  0  0  0  0  0  0  0
    4.7457   -7.6926    0.0000 C   0  0  0  0  0  0  0  0  0  0  0  0
    4.0251   -7.2909    0.0000 O   0  0  0  0  0  0  0  0  0  0  0  0
    3.3169   -7.7141    0.0000 C   0  0  0  0  0  0  0  0  0  0  0  0
    5.4787   -8.9192    0.0000 C   0  0  0  0  0  0  0  0  0  0  0  0
    6.1869   -8.4960    0.0000 C   0  0  0  0  0  0  0  0  0  0  0  0
    6.1745   -7.6711    0.0000 C   0  0  0  0  0  0  0  0  0  0  0  0
    5.4539   -7.2694    0.0000 C   0  0  0  0  0  0  0  0  0  0  0  0
    6.9075   -8.8977    0.0000 C   0  0  0  0  0  0  0  0  0  0  0  0
    7.6156   -8.4745    0.0000 C   0  0  0  0  0  0  0  0  0  0  0  0
    7.6032   -7.6496    0.0000 C   0  0  0  0  0  0  0  0  0  0  0  0
    6.8826   -7.2479    0.0000 O   0  0  0  0  0  0  0  0  0  0  0  0
    5.4911   -9.7441    0.0000 O   0  0  0  0  0  0  0  0  0  0  0  0
    6.9199   -9.7226    0.0000 O   0  0  0  0  0  0  0  0  0  0  0  0
    7.6405  -10.1243    0.0000 O   0  0  0  0  0  0  0  0  0  0  0  0
    8.3487   -9.7011    0.0000 C   0  0  1  0  0  0  0  0  0  0  0  0
    8.3362   -8.8762    0.0000 O   0  0  0  0  0  0  0  0  0  0  0  0
    7.6529  -10.9492    0.0000 C   0  0  1  0  0  0  0  0  0  0  0  0
    8.3735  -11.3509    0.0000 C   0  0  2  0  0  0  0  0  0  0  0  0
    9.0817  -10.9277    0.0000 C   0  0  1  0  0  0  0  0  0  0  0  0
    9.0692  -10.1028    0.0000 C   0  0  1  0  0  0  0  0  0  0  0  0
    6.9447  -11.3724    0.0000 C   0  0  0  0  0  0  0  0  0  0  0  0
    6.9571  -12.1973    0.0000 O   0  0  0  0  0  0  0  0  0  0  0  0
    8.3859  -12.1758    0.0000 O   0  0  0  0  0  0  0  0  0  0  0  0
    9.0320   -7.6281    0.0000 C   0  0  0  0  0  0  0  0  0  0  0  0
    8.3114   -7.2264    0.0000 C   0  0  0  0  0  0  0  0  0  0  0  0
    9.7402   -7.2049    0.0000 C   0  0  0  0  0  0  0  0  0  0  0  0
    9.7278   -6.3800    0.0000 C   0  0  0  0  0  0  0  0  0  0  0  0
    9.0072   -5.9783    0.0000 C   0  0  0  0  0  0  0  0  0  0  0  0
    8.2990   -6.4015    0.0000 C   0  0  0  0  0  0  0  0  0  0  0  0
   10.4360   -5.9568    0.0000 O   0  0  0  0  0  0  0  0  0  0  0  0
    8.9948   -5.1534    0.0000 O   0  0  0  0  0  0  0  0  0  0  0  0
    9.7093   -4.7409    0.0000 C   0  0  0  0  0  0  0  0  0  0  0  0
    9.8023  -11.3294    0.0000 O   0  0  0  0  0  0  0  0  0  0  0  0
    9.7774   -9.6796    0.0000 O   0  0  0  0  0  0  0  0  0  0  0  0
    6.2241  -10.9707    0.0000 O   0  0  0  0  0  0  0  0  0  0  0  0
    6.2489  -12.6205    0.0000 C   0  0  0  0  0  0  0  0  0  0  0  0
  1  2  2  0  0  0  0
  2  3  1  0  0  0  0
  3  4  1  0  0  0  0
  1  5  1  0  0  0  0
  5  6  2  0  0  0  0
  6  7  1  0  0  0  0
  7  8  2  0  0  0  0
  8  2  1  0  0  0  0
  6  9  1  0  0  0  0
  9 10  1  0  0  0  0
 10 11  2  0  0  0  0
 11 12  1  0  0  0  0
 12  7  1  0  0  0  0
  5 13  1  0  0  0  0
 14  9  2  0  0  0  0
 15 16  1  0  0  0  0
 16 17  1  1  0  0  0
 17 10  1  0  0  0  0
 15 18  1  0  0  0  0
 18 19  1  0  0  0  0
 19 20  1  0  0  0  0
 20 21  1  0  0  0  0
 21 16  1  0  0  0  0
 18 22  1  1  0  0  0
 22 23  1  0  0  0  0
 19 24  1  6  0  0  0
 25 26  1  0  0  0  0
 26 11  1  0  0  0  0
 25 27  2  0  0  0  0
 27 28  1  0  0  0  0
 28 29  2  0  0  0  0
 29 30  1  0  0  0  0
 30 26  2  0  0  0  0
 28 31  1  0  0  0  0
 29 32  1  0  0  0  0
 32 33  1  0  0  0  0
 20 34  1  1  0  0  0
 21 35  1  6  0  0  0
 22 36  2  0  0  0  0
 23 37  1  0  0  0  0
M  END
>  <cdx:fragmentId>
5

$$$$
