70106.cdx
  Mrv1902 05222410202D          

 36 39  0  0  0  0            999 V2000
    5.2790   -8.5755    0.0000 C   0  0  0  0  0  0  0  0  0  0  0  0
    5.2830   -7.7505    0.0000 C   0  0  0  0  0  0  0  0  0  0  0  0
    4.5706   -7.3345    0.0000 O   0  0  0  0  0  0  0  0  0  0  0  0
    3.8541   -7.7435    0.0000 C   0  0  0  0  0  0  0  0  0  0  0  0
    5.9914   -8.9915    0.0000 C   0  0  0  0  0  0  0  0  0  0  0  0
    6.7079   -8.5825    0.0000 C   0  0  0  0  0  0  0  0  0  0  0  0
    6.7120   -7.7575    0.0000 C   0  0  0  0  0  0  0  0  0  0  0  0
    5.9995   -7.3415    0.0000 C   0  0  0  0  0  0  0  0  0  0  0  0
    7.4204   -8.9985    0.0000 C   0  0  0  0  0  0  0  0  0  0  0  0
    8.1368   -8.5896    0.0000 C   0  0  0  0  0  0  0  0  0  0  0  0
    8.1409   -7.7646    0.0000 C   0  0  0  0  0  0  0  0  0  0  0  0
    7.4285   -7.3486    0.0000 O   0  0  0  0  0  0  0  0  0  0  0  0
    5.9874   -9.8165    0.0000 O   0  0  0  0  0  0  0  0  0  0  0  0
    7.4163   -9.8235    0.0000 O   0  0  0  0  0  0  0  0  0  0  0  0
    8.1287  -10.2395    0.0000 O   0  0  0  0  0  0  0  0  0  0  0  0
    8.8452   -9.8305    0.0000 C   0  0  1  0  0  0  0  0  0  0  0  0
    8.8493   -9.0056    0.0000 O   0  0  0  0  0  0  0  0  0  0  0  0
    8.1247  -11.0645    0.0000 C   0  0  1  0  0  0  0  0  0  0  0  0
    8.8371  -11.4805    0.0000 C   0  0  2  0  0  0  0  0  0  0  0  0
    9.5536  -11.0715    0.0000 C   0  0  1  0  0  0  0  0  0  0  0  0
    9.5577  -10.2466    0.0000 C   0  0  1  0  0  0  0  0  0  0  0  0
    7.4082  -11.4735    0.0000 C   0  0  0  0  0  0  0  0  0  0  0  0
    7.4041  -12.2985    0.0000 O   0  0  0  0  0  0  0  0  0  0  0  0
    8.8331  -12.3055    0.0000 O   0  0  0  0  0  0  0  0  0  0  0  0
    9.5698   -7.7716    0.0000 C   0  0  0  0  0  0  0  0  0  0  0  0
    8.8574   -7.3556    0.0000 C   0  0  0  0  0  0  0  0  0  0  0  0
   10.2863   -7.3626    0.0000 C   0  0  0  0  0  0  0  0  0  0  0  0
   10.2904   -6.5376    0.0000 C   0  0  0  0  0  0  0  0  0  0  0  0
    9.5779   -6.1216    0.0000 C   0  0  0  0  0  0  0  0  0  0  0  0
    8.8614   -6.5306    0.0000 C   0  0  0  0  0  0  0  0  0  0  0  0
   11.0068   -6.1286    0.0000 O   0  0  0  0  0  0  0  0  0  0  0  0
    9.5820   -5.2966    0.0000 O   0  0  0  0  0  0  0  0  0  0  0  0
   10.2964   -4.8841    0.0000 C   0  0  0  0  0  0  0  0  0  0  0  0
   10.2660  -11.4875    0.0000 O   0  0  0  0  0  0  0  0  0  0  0  0
   10.2742   -9.8376    0.0000 O   0  0  0  0  0  0  0  0  0  0  0  0
    6.6958  -11.0575    0.0000 O   0  0  0  0  0  0  0  0  0  0  0  0
  1  2  2  0  0  0  0
  2  3  1  0  0  0  0
  3  4  1  0  0  0  0
  1  5  1  0  0  0  0
  5  6  2  0  0  0  0
  6  7  1  0  0  0  0
  7  8  2  0  0  0  0
  8  2  1  0  0  0  0
  6  9  1  0  0  0  0
  9 10  1  0  0  0  0
 10 11  2  0  0  0  0
 11 12  1  0  0  0  0
 12  7  1  0  0  0  0
  5 13  1  0  0  0  0
 14  9  2  0  0  0  0
 15 16  1  0  0  0  0
 16 17  1  1  0  0  0
 17 10  1  0  0  0  0
 15 18  1  0  0  0  0
 18 19  1  0  0  0  0
 19 20  1  0  0  0  0
 20 21  1  0  0  0  0
 21 16  1  0  0  0  0
 18 22  1  1  0  0  0
 22 23  1  0  0  0  0
 19 24  1  6  0  0  0
 25 26  1  0  0  0  0
 26 11  1  0  0  0  0
 25 27  2  0  0  0  0
 27 28  1  0  0  0  0
 28 29  2  0  0  0  0
 29 30  1  0  0  0  0
 30 26  2  0  0  0  0
 28 31  1  0  0  0  0
 29 32  1  0  0  0  0
 32 33  1  0  0  0  0
 20 34  1  1  0  0  0
 21 35  1  6  0  0  0
 22 36  2  0  0  0  0
M  END
>  <cdx:fragmentId>
5

$$$$
