70102.cdx
  Mrv1902 05222410182D          

 49 53  0  0  0  0            999 V2000
    3.9195   -8.1821    0.0000 C   0  0  0  0  0  0  0  0  0  0  0  0
    4.6361   -8.5909    0.0000 C   0  0  0  0  0  0  0  0  0  0  0  0
    5.3484   -8.1746    0.0000 C   0  0  0  0  0  0  0  0  0  0  0  0
    5.3441   -7.3496    0.0000 C   0  0  0  0  0  0  0  0  0  0  0  0
    4.6274   -6.9409    0.0000 C   0  0  0  0  0  0  0  0  0  0  0  0
    3.9151   -7.3572    0.0000 C   0  0  0  0  0  0  0  0  0  0  0  0
    6.0650   -8.5834    0.0000 C   0  0  0  0  0  0  0  0  0  0  0  0
    6.7773   -8.1671    0.0000 C   0  0  0  0  0  0  0  0  0  0  0  0
    6.7730   -7.3421    0.0000 C   0  0  0  0  0  0  0  0  0  0  0  0
    6.0564   -6.9334    0.0000 O   0  0  0  0  0  0  0  0  0  0  0  0
    4.6405   -9.4159    0.0000 O   0  0  0  0  0  0  0  0  0  0  0  0
    6.0694   -9.4083    0.0000 O   0  0  0  0  0  0  0  0  0  0  0  0
    7.4940   -8.5758    0.0000 O   0  0  0  0  0  0  0  0  0  0  0  0
    8.2019   -7.3346    0.0000 C   0  0  0  0  0  0  0  0  0  0  0  0
    7.4853   -6.9259    0.0000 C   0  0  0  0  0  0  0  0  0  0  0  0
    8.9142   -6.9183    0.0000 C   0  0  0  0  0  0  0  0  0  0  0  0
    8.9099   -6.0934    0.0000 C   0  0  0  0  0  0  0  0  0  0  0  0
    8.1932   -5.6846    0.0000 C   0  0  0  0  0  0  0  0  0  0  0  0
    7.4809   -6.1009    0.0000 C   0  0  0  0  0  0  0  0  0  0  0  0
    3.1985   -6.9484    0.0000 O   0  0  0  0  0  0  0  0  0  0  0  0
    9.6222   -5.6771    0.0000 O   0  0  0  0  0  0  0  0  0  0  0  0
    8.1889   -4.8596    0.0000 O   0  0  0  0  0  0  0  0  0  0  0  0
    6.8041  -10.6307    0.0000 C   0  0  2  0  0  0  0  0  0  0  0  0
    7.5203  -11.0402    0.0000 C   0  0  2  0  0  0  0  0  0  0  0  0
    8.2330  -10.6247    0.0000 C   0  0  1  0  0  0  0  0  0  0  0  0
    8.2295   -9.7997    0.0000 C   0  0  2  0  0  0  0  0  0  0  0  0
    7.5133   -9.3902    0.0000 C   0  0  1  0  0  0  0  0  0  0  0  0
    6.8006   -9.8057    0.0000 O   0  0  0  0  0  0  0  0  0  0  0  0
    8.9492  -11.0341    0.0000 O   0  0  0  0  0  0  0  0  0  0  0  0
    7.5238  -11.8652    0.0000 O   0  0  0  0  0  0  0  0  0  0  0  0
    8.9422   -9.3841    0.0000 O   0  0  0  0  0  0  0  0  0  0  0  0
    3.2406  -11.8956    0.0000 O   0  0  0  0  0  0  0  0  0  0  0  0
    2.5156  -10.6642    0.0000 O   0  0  0  0  0  0  0  0  0  0  0  0
    3.2336  -11.0706    0.0000 C   0  0  0  0  0  0  0  0  0  0  0  0
    4.6695  -11.8834    0.0000 O   0  0  0  0  0  0  0  0  0  0  0  0
    3.9445  -10.6520    0.0000 C   0  0  0  0  0  0  0  0  0  0  0  0
    4.6625  -11.0584    0.0000 C   0  0  0  0  0  0  0  0  0  0  0  0
    5.3734  -10.6399    0.0000 O   0  0  0  0  0  0  0  0  0  0  0  0
    6.0914  -11.0463    0.0000 C   0  0  0  0  0  0  0  0  0  0  0  0
    9.6577   -9.7949    0.0000 C   0  0  2  0  0  0  0  0  0  0  0  0
    9.6597  -10.6199    0.0000 O   0  0  0  0  0  0  0  0  0  0  0  0
   10.3752  -11.0306    0.0000 C   0  0  2  0  0  0  0  0  0  0  0  0
   11.0887  -10.6163    0.0000 C   0  0  1  0  0  0  0  0  0  0  0  0
   11.0866   -9.7913    0.0000 C   0  0  2  0  0  0  0  0  0  0  0  0
   10.3712   -9.3806    0.0000 C   0  0  1  0  0  0  0  0  0  0  0  0
   11.8042  -11.0271    0.0000 O   0  0  0  0  0  0  0  0  0  0  0  0
   10.3691   -8.5556    0.0000 O   0  0  0  0  0  0  0  0  0  0  0  0
   11.8001   -9.3771    0.0000 O   0  0  0  0  0  0  0  0  0  0  0  0
   10.3773  -11.8556    0.0000 C   0  0  0  0  0  0  0  0  0  0  0  0
  1  2  1  0  0  0  0
  2  3  2  0  0  0  0
  3  4  1  0  0  0  0
  4  5  2  0  0  0  0
  5  6  1  0  0  0  0
  6  1  2  0  0  0  0
  3  7  1  0  0  0  0
  7  8  1  0  0  0  0
  8  9  2  0  0  0  0
  9 10  1  0  0  0  0
 10  4  1  0  0  0  0
  2 11  1  0  0  0  0
 12  7  2  0  0  0  0
 13  8  1  0  0  0  0
 14 15  2  0  0  0  0
 15  9  1  0  0  0  0
 14 16  1  0  0  0  0
 16 17  2  0  0  0  0
 17 18  1  0  0  0  0
 18 19  2  0  0  0  0
 19 15  1  0  0  0  0
  6 20  1  0  0  0  0
 17 21  1  0  0  0  0
 18 22  1  0  0  0  0
 23 24  1  0  0  0  0
 24 25  1  0  0  0  0
 25 26  1  0  0  0  0
 26 27  1  0  0  0  0
 27 28  1  0  0  0  0
 28 23  1  0  0  0  0
 34 32  2  0  0  0  0
 23 39  1  1  0  0  0
 25 29  1  1  0  0  0
 24 30  1  6  0  0  0
 26 31  1  6  0  0  0
 27 13  1  1  0  0  0
 34 33  1  0  0  0  0
 36 34  1  0  0  0  0
 37 35  2  0  0  0  0
 37 36  1  0  0  0  0
 38 37  1  0  0  0  0
 39 38  1  0  0  0  0
 40 31  1  1  0  0  0
 40 41  1  0  0  0  0
 41 42  1  0  0  0  0
 42 43  1  0  0  0  0
 43 44  1  0  0  0  0
 44 45  1  0  0  0  0
 45 40  1  0  0  0  0
 43 46  1  1  0  0  0
 45 47  1  6  0  0  0
 44 48  1  6  0  0  0
 42 49  1  6  0  0  0
M  END
>  <cdx:fragmentId>
500

$$$$
