70103.cdx
  Mrv1902 05222410182D          

 44 48  0  0  0  0            999 V2000
    3.9195   -8.1821    0.0000 C   0  0  0  0  0  0  0  0  0  0  0  0
    4.6361   -8.5909    0.0000 C   0  0  0  0  0  0  0  0  0  0  0  0
    5.3484   -8.1746    0.0000 C   0  0  0  0  0  0  0  0  0  0  0  0
    5.3441   -7.3496    0.0000 C   0  0  0  0  0  0  0  0  0  0  0  0
    4.6274   -6.9409    0.0000 C   0  0  0  0  0  0  0  0  0  0  0  0
    3.9151   -7.3572    0.0000 C   0  0  0  0  0  0  0  0  0  0  0  0
    6.0650   -8.5834    0.0000 C   0  0  0  0  0  0  0  0  0  0  0  0
    6.7773   -8.1671    0.0000 C   0  0  0  0  0  0  0  0  0  0  0  0
    6.7730   -7.3421    0.0000 C   0  0  0  0  0  0  0  0  0  0  0  0
    6.0564   -6.9334    0.0000 O   0  0  0  0  0  0  0  0  0  0  0  0
    4.6405   -9.4159    0.0000 O   0  0  0  0  0  0  0  0  0  0  0  0
    6.0694   -9.4083    0.0000 O   0  0  0  0  0  0  0  0  0  0  0  0
    7.4940   -8.5758    0.0000 O   0  0  0  0  0  0  0  0  0  0  0  0
    8.2019   -7.3346    0.0000 C   0  0  0  0  0  0  0  0  0  0  0  0
    7.4853   -6.9259    0.0000 C   0  0  0  0  0  0  0  0  0  0  0  0
    8.9142   -6.9183    0.0000 C   0  0  0  0  0  0  0  0  0  0  0  0
    8.9099   -6.0934    0.0000 C   0  0  0  0  0  0  0  0  0  0  0  0
    8.1932   -5.6846    0.0000 C   0  0  0  0  0  0  0  0  0  0  0  0
    7.4809   -6.1009    0.0000 C   0  0  0  0  0  0  0  0  0  0  0  0
    3.1985   -6.9484    0.0000 O   0  0  0  0  0  0  0  0  0  0  0  0
    9.6222   -5.6771    0.0000 O   0  0  0  0  0  0  0  0  0  0  0  0
    8.1889   -4.8596    0.0000 O   0  0  0  0  0  0  0  0  0  0  0  0
    6.8041  -10.6307    0.0000 C   0  0  2  0  0  0  0  0  0  0  0  0
    7.5203  -11.0402    0.0000 C   0  0  2  0  0  0  0  0  0  0  0  0
    8.2330  -10.6247    0.0000 C   0  0  1  0  0  0  0  0  0  0  0  0
    8.2295   -9.7997    0.0000 C   0  0  2  0  0  0  0  0  0  0  0  0
    7.5133   -9.3902    0.0000 C   0  0  1  0  0  0  0  0  0  0  0  0
    6.8006   -9.8057    0.0000 O   0  0  0  0  0  0  0  0  0  0  0  0
    6.0914  -11.0463    0.0000 C   0  0  0  0  0  0  0  0  0  0  0  0
    8.9492  -11.0341    0.0000 O   0  0  0  0  0  0  0  0  0  0  0  0
    7.5238  -11.8652    0.0000 O   0  0  0  0  0  0  0  0  0  0  0  0
    8.9422   -9.3841    0.0000 O   0  0  0  0  0  0  0  0  0  0  0  0
    6.0914  -11.8713    0.0000 O   0  0  0  0  0  0  0  0  0  0  0  0
    9.7672   -9.3841    0.0000 C   0  0  2  0  0  0  0  0  0  0  0  0
   10.1797  -10.0986    0.0000 O   0  0  0  0  0  0  0  0  0  0  0  0
   11.0047  -10.0986    0.0000 C   0  0  2  0  0  0  0  0  0  0  0  0
   11.4172   -9.3841    0.0000 C   0  0  1  0  0  0  0  0  0  0  0  0
   11.0047   -8.6697    0.0000 C   0  0  2  0  0  0  0  0  0  0  0  0
   10.1797   -8.6697    0.0000 C   0  0  1  0  0  0  0  0  0  0  0  0
   12.2422   -9.3841    0.0000 O   0  0  0  0  0  0  0  0  0  0  0  0
    9.7672   -7.9552    0.0000 O   0  0  0  0  0  0  0  0  0  0  0  0
   11.4172   -7.9552    0.0000 O   0  0  0  0  0  0  0  0  0  0  0  0
   11.4172  -10.8131    0.0000 O   0  0  0  0  0  0  0  0  0  0  0  0
    5.3760  -10.6353    0.0000 O   0  0  0  0  0  0  0  0  0  0  0  0
  1  2  1  0  0  0  0
  2  3  2  0  0  0  0
  3  4  1  0  0  0  0
  4  5  2  0  0  0  0
  5  6  1  0  0  0  0
  6  1  2  0  0  0  0
  3  7  1  0  0  0  0
  7  8  1  0  0  0  0
  8  9  2  0  0  0  0
  9 10  1  0  0  0  0
 10  4  1  0  0  0  0
  2 11  1  0  0  0  0
 12  7  2  0  0  0  0
 13  8  1  0  0  0  0
 14 15  2  0  0  0  0
 15  9  1  0  0  0  0
 14 16  1  0  0  0  0
 16 17  2  0  0  0  0
 17 18  1  0  0  0  0
 18 19  2  0  0  0  0
 19 15  1  0  0  0  0
  6 20  1  0  0  0  0
 17 21  1  0  0  0  0
 18 22  1  0  0  0  0
 23 24  1  0  0  0  0
 24 25  1  0  0  0  0
 25 26  1  0  0  0  0
 26 27  1  0  0  0  0
 27 28  1  0  0  0  0
 28 23  1  0  0  0  0
 23 29  1  1  0  0  0
 25 30  1  1  0  0  0
 24 31  1  6  0  0  0
 26 32  1  6  0  0  0
 27 13  1  1  0  0  0
 29 33  1  0  0  0  0
 34 32  1  1  0  0  0
 34 35  1  0  0  0  0
 35 36  1  0  0  0  0
 36 37  1  0  0  0  0
 37 38  1  0  0  0  0
 38 39  1  0  0  0  0
 39 34  1  0  0  0  0
 37 40  1  1  0  0  0
 39 41  1  6  0  0  0
 38 42  1  6  0  0  0
 36 43  1  6  0  0  0
 29 44  2  0  0  0  0
M  END
>  <cdx:fragmentId>
500

$$$$
