701062.cdx
  Mrv1902 05222410202D          

 71 78  0  0  0  0            999 V2000
    6.8737   -5.3801    0.0000 H   0  0  0  0  0  0  0  0  0  0  0  0
    5.8871  -11.2583    0.0000 O   0  0  0  0  0  0  0  0  0  0  0  0
    7.2906  -12.1258    0.0000 O   0  0  0  0  0  0  0  0  0  0  0  0
    8.7437  -11.3441    0.0000 O   0  0  0  0  0  0  0  0  0  0  0  0
    9.1748  -11.2263    0.0000 O   0  0  0  0  0  0  0  0  0  0  0  0
   10.7806  -10.8513    0.0000 O   0  0  0  0  0  0  0  0  0  0  0  0
   11.2586   -9.2731    0.0000 O   0  0  0  0  0  0  0  0  0  0  0  0
    2.1556   -6.2257    0.0000 O   0  0  0  0  0  0  0  0  0  0  0  0
    1.8972   -7.8553    0.0000 O   0  0  0  0  0  0  0  0  0  0  0  0
    2.9085   -8.8005    0.0000 O   0  0  0  0  0  0  0  0  0  0  0  0
    3.2345   -9.2494    0.0000 O   0  0  0  0  0  0  0  0  0  0  0  0
    3.8207  -10.5034    0.0000 O   0  0  0  0  0  0  0  0  0  0  0  0
    5.4503  -10.7617    0.0000 O   0  0  0  0  0  0  0  0  0  0  0  0
    6.4445   -8.7632    0.0000 O   0  0  0  0  0  0  0  0  0  0  0  0
    7.9141   -8.6707    0.0000 O   0  0  0  0  0  0  0  0  0  0  0  0
    4.6597   -5.6875    0.0000 O   0  0  0  0  0  0  0  0  0  0  0  0
    6.8135   -8.3977    0.0000 O   0  0  0  0  0  0  0  0  0  0  0  0
    6.1751   -7.2804    0.0000 O   0  0  0  0  0  0  0  0  0  0  0  0
    6.0460   -8.0953    0.0000 C   0  0  0  0  0  0  0  0  0  0  0  0
    5.3785   -8.5801    0.0000 C   0  0  0  0  0  0  0  0  0  0  0  0
    5.6740   -9.3503    0.0000 C   0  0  0  0  0  0  0  0  0  0  0  0
    5.1548   -9.9914    0.0000 C   0  0  0  0  0  0  0  0  0  0  0  0
    4.3399   -9.8623    0.0000 C   0  0  0  0  0  0  0  0  0  0  0  0
    4.0444   -9.0920    0.0000 C   0  0  0  0  0  0  0  0  0  0  0  0
    4.5636   -8.4510    0.0000 C   0  0  0  0  0  0  0  0  0  0  0  0
    4.0788   -7.7835    0.0000 C   0  0  0  0  0  0  0  0  0  0  0  0
    3.3086   -8.0790    0.0000 C   0  0  0  0  0  0  0  0  0  0  0  0
    2.6675   -7.5598    0.0000 C   0  0  0  0  0  0  0  0  0  0  0  0
    2.7966   -6.7449    0.0000 C   0  0  0  0  0  0  0  0  0  0  0  0
    3.5669   -6.4494    0.0000 C   0  0  0  0  0  0  0  0  0  0  0  0
    4.2080   -6.9686    0.0000 C   0  0  0  0  0  0  0  0  0  0  0  0
    4.8755   -6.4838    0.0000 C   0  0  0  0  0  0  0  0  0  0  0  0
    5.6903   -6.6129    0.0000 O   0  0  0  0  0  0  0  0  0  0  0  0
    6.1753   -5.9456    0.0000 C   0  0  0  0  0  0  0  0  0  0  0  0
    6.9599   -6.2006    0.0000 C   0  0  1  0  0  0  0  0  0  0  0  0
    7.6744   -5.7882    0.0000 O   0  0  0  0  0  0  0  0  0  0  0  0
    8.3888   -6.2008    0.0000 C   0  0  2  0  0  0  0  0  0  0  0  0
    8.3887   -7.0258    0.0000 C   0  0  2  0  0  0  0  0  0  0  0  0
    9.0017   -7.5779    0.0000 O   0  0  0  0  0  0  0  0  0  0  0  0
    8.6661   -8.3315    0.0000 C   0  0  0  0  0  0  0  0  0  0  0  0
    9.1102   -9.0268    0.0000 C   0  0  0  0  0  0  0  0  0  0  0  0
    9.9196   -8.8675    0.0000 C   0  0  0  0  0  0  0  0  0  0  0  0
   10.4623   -9.4888    0.0000 C   0  0  0  0  0  0  0  0  0  0  0  0
   10.1956  -10.2695    0.0000 C   0  0  0  0  0  0  0  0  0  0  0  0
    9.3861  -10.4288    0.0000 C   0  0  0  0  0  0  0  0  0  0  0  0
    8.8434   -9.8075    0.0000 C   0  0  0  0  0  0  0  0  0  0  0  0
    8.0667  -10.0857    0.0000 C   0  0  0  0  0  0  0  0  0  0  0  0
    8.0420  -10.9103    0.0000 C   0  0  0  0  0  0  0  0  0  0  0  0
    7.3154  -11.3012    0.0000 C   0  0  0  0  0  0  0  0  0  0  0  0
    6.6137  -10.8674    0.0000 C   0  0  0  0  0  0  0  0  0  0  0  0
    6.6384  -10.0428    0.0000 C   0  0  0  0  0  0  0  0  0  0  0  0
    7.3650   -9.6519    0.0000 C   0  0  0  0  0  0  0  0  0  0  0  0
    7.2666   -8.8328    0.0000 C   0  0  0  0  0  0  0  0  0  0  0  0
    7.8456   -8.2452    0.0000 O   0  0  0  0  0  0  0  0  0  0  0  0
    7.6742   -7.4382    0.0000 C   0  0  1  0  0  0  0  0  0  0  0  0
    6.9598   -7.0256    0.0000 C   0  0  2  0  0  0  0  0  0  0  0  0
   12.6768   -6.1910    0.0000 O   0  0  0  0  0  0  0  0  0  0  0  0
   12.6723   -4.5411    0.0000 O   0  0  0  0  0  0  0  0  0  0  0  0
   11.2411   -3.7200    0.0000 O   0  0  0  0  0  0  0  0  0  0  0  0
    9.1033   -5.7883    0.0000 O   0  0  0  0  0  0  0  0  0  0  0  0
    9.8212   -7.0239    0.0000 O   0  0  0  0  0  0  0  0  0  0  0  0
   10.5300   -4.9594    0.0000 C   0  0  0  0  0  0  0  0  0  0  0  0
   11.2433   -4.5450    0.0000 C   0  0  0  0  0  0  0  0  0  0  0  0
   11.9589   -4.9555    0.0000 C   0  0  0  0  0  0  0  0  0  0  0  0
   11.9612   -5.7805    0.0000 C   0  0  0  0  0  0  0  0  0  0  0  0
   11.2479   -6.1950    0.0000 C   0  0  0  0  0  0  0  0  0  0  0  0
   10.5323   -5.7844    0.0000 C   0  0  0  0  0  0  0  0  0  0  0  0
    9.8189   -6.1989    0.0000 C   0  0  0  0  0  0  0  0  0  0  0  0
    6.9598   -7.8506    0.0000 H   0  0  0  0  0  0  0  0  0  0  0  0
    9.1856   -6.8122    0.0000 H   0  0  0  0  0  0  0  0  0  0  0  0
    7.6742   -6.6132    0.0000 H   0  0  0  0  0  0  0  0  0  0  0  0
 35  1  1  6  0  0  0
 37 60  1  1  0  0  0
 50  2  1  0  0  0  0
 49  3  1  0  0  0  0
 48  4  1  0  0  0  0
 45  5  1  0  0  0  0
 44  6  1  0  0  0  0
 43  7  1  0  0  0  0
 29  8  1  0  0  0  0
 28  9  1  0  0  0  0
 27 10  1  0  0  0  0
 24 11  1  0  0  0  0
 23 12  1  0  0  0  0
 22 13  1  0  0  0  0
 53 14  2  0  0  0  0
 40 15  2  0  0  0  0
 32 16  2  0  0  0  0
 19 17  2  0  0  0  0
 52 47  1  0  0  0  0
 46 41  1  0  0  0  0
 55 38  1  0  0  0  0
 31 26  1  0  0  0  0
 25 20  1  0  0  0  0
 56 35  1  0  0  0  0
 56 18  1  0  0  0  0
 19 18  1  0  0  0  0
 20 19  1  0  0  0  0
 21 20  2  0  0  0  0
 22 21  1  0  0  0  0
 23 22  2  0  0  0  0
 24 23  1  0  0  0  0
 25 24  2  0  0  0  0
 26 25  1  0  0  0  0
 27 26  2  0  0  0  0
 28 27  1  0  0  0  0
 29 28  2  0  0  0  0
 30 29  1  0  0  0  0
 31 30  2  0  0  0  0
 32 31  1  0  0  0  0
 33 32  1  0  0  0  0
 34 33  1  0  0  0  0
 35 34  1  0  0  0  0
 36 35  1  0  0  0  0
 37 36  1  0  0  0  0
 38 37  1  0  0  0  0
 39 38  1  0  0  0  0
 40 39  1  0  0  0  0
 41 40  1  0  0  0  0
 42 41  2  0  0  0  0
 43 42  1  0  0  0  0
 44 43  2  0  0  0  0
 45 44  1  0  0  0  0
 46 45  2  0  0  0  0
 47 46  1  0  0  0  0
 48 47  2  0  0  0  0
 49 48  1  0  0  0  0
 50 49  2  0  0  0  0
 51 50  1  0  0  0  0
 52 51  2  0  0  0  0
 53 52  1  0  0  0  0
 54 53  1  0  0  0  0
 55 54  1  0  0  0  0
 56 55  1  0  0  0  0
 65 57  1  0  0  0  0
 64 58  1  0  0  0  0
 63 59  1  0  0  0  0
 68 60  1  0  0  0  0
 68 61  2  0  0  0  0
 67 62  2  0  0  0  0
 63 62  1  0  0  0  0
 64 63  2  0  0  0  0
 65 64  1  0  0  0  0
 66 65  2  0  0  0  0
 67 66  1  0  0  0  0
 68 67  1  0  0  0  0
 56 69  1  1  0  0  0
 38 70  1  1  0  0  0
 55 71  1  6  0  0  0
M  END
>  <cdx:fragmentId>
3382

$$$$
