70111.cdx
  Mrv1902 05222410192D          

 35 38  0  0  0  0            999 V2000
    3.5181   -8.6339    0.0000 C   0  0  0  0  0  0  0  0  0  0  0  0
    3.5181   -9.4589    0.0000 C   0  0  0  0  0  0  0  0  0  0  0  0
    4.2325   -9.8714    0.0000 C   0  0  0  0  0  0  0  0  0  0  0  0
    4.9470   -9.4589    0.0000 C   0  0  0  0  0  0  0  0  0  0  0  0
    4.9470   -8.6339    0.0000 C   0  0  0  0  0  0  0  0  0  0  0  0
    4.2325   -8.2214    0.0000 C   0  0  0  0  0  0  0  0  0  0  0  0
    5.6615   -9.8714    0.0000 C   0  0  0  0  0  0  0  0  0  0  0  0
    6.3759   -9.4589    0.0000 C   0  0  0  0  0  0  0  0  0  0  0  0
    6.3759   -8.6339    0.0000 C   0  0  0  0  0  0  0  0  0  0  0  0
    5.6615   -8.2214    0.0000 C   0  0  0  0  0  0  0  0  0  0  0  0
    7.0904   -9.8714    0.0000 C   0  0  0  0  0  0  0  0  0  0  0  0
    7.8049   -9.4589    0.0000 C   0  0  0  0  0  0  0  0  0  0  0  0
    7.8049   -8.6339    0.0000 C   0  0  0  0  0  0  0  0  0  0  0  0
    7.0904   -8.2214    0.0000 C   0  0  0  0  0  0  0  0  0  0  0  0
    5.6615   -7.3964    0.0000 O   0  0  0  0  0  0  0  0  0  0  0  0
    4.2325   -7.3964    0.0000 O   0  0  0  0  0  0  0  0  0  0  0  0
    7.0904   -7.3964    0.0000 O   0  0  0  0  0  0  0  0  0  0  0  0
    5.6615  -10.6964    0.0000 O   0  0  0  0  0  0  0  0  0  0  0  0
    8.5194   -9.8714    0.0000 C   0  0  0  0  0  0  0  0  0  0  0  0
    9.2338   -9.4589    0.0000 O   0  0  0  0  0  0  0  0  0  0  0  0
    8.5194  -10.6964    0.0000 O   0  0  0  0  0  0  0  0  0  0  0  0
    7.8042   -6.9827    0.0000 C   0  0  2  0  0  0  0  0  0  0  0  0
    8.5193   -7.3940    0.0000 O   0  0  0  0  0  0  0  0  0  0  0  0
    9.2331   -6.9803    0.0000 C   0  0  1  0  0  0  0  0  0  0  0  0
    9.2318   -6.1553    0.0000 C   0  0  2  0  0  0  0  0  0  0  0  0
    8.5166   -5.7440    0.0000 C   0  0  1  0  0  0  0  0  0  0  0  0
    7.8028   -6.1577    0.0000 C   0  0  1  0  0  0  0  0  0  0  0  0
    9.9483   -7.3917    0.0000 C   0  0  0  0  0  0  0  0  0  0  0  0
    8.5152   -4.9190    0.0000 O   0  0  0  0  0  0  0  0  0  0  0  0
    7.0877   -5.7464    0.0000 O   0  0  0  0  0  0  0  0  0  0  0  0
    9.9456   -5.7417    0.0000 O   0  0  0  0  0  0  0  0  0  0  0  0
   10.6621   -6.9780    0.0000 O   0  0  0  0  0  0  0  0  0  0  0  0
   11.3772   -7.3893    0.0000 C   0  0  0  0  0  0  0  0  0  0  0  0
   12.0910   -6.9756    0.0000 C   0  0  0  0  0  0  0  0  0  0  0  0
   11.3786   -8.2143    0.0000 O   0  0  0  0  0  0  0  0  0  0  0  0
  1  2  1  0  0  0  0
  2  3  2  0  0  0  0
  3  4  1  0  0  0  0
  4  5  2  0  0  0  0
  5  6  1  0  0  0  0
  6  1  2  0  0  0  0
  4  7  1  0  0  0  0
  7  8  1  0  0  0  0
  8  9  2  0  0  0  0
  9 10  1  0  0  0  0
 10  5  1  0  0  0  0
  8 11  1  0  0  0  0
 11 12  2  0  0  0  0
 12 13  1  0  0  0  0
 13 14  2  0  0  0  0
 14  9  1  0  0  0  0
 10 15  2  0  0  0  0
 16  6  1  0  0  0  0
 14 17  1  0  0  0  0
  7 18  2  0  0  0  0
 12 19  1  0  0  0  0
 19 20  1  0  0  0  0
 19 21  2  0  0  0  0
 22 17  1  1  0  0  0
 22 23  1  0  0  0  0
 23 24  1  0  0  0  0
 24 25  1  0  0  0  0
 25 26  1  0  0  0  0
 26 27  1  0  0  0  0
 27 22  1  0  0  0  0
 24 28  1  1  0  0  0
 26 29  1  1  0  0  0
 27 30  1  6  0  0  0
 25 31  1  6  0  0  0
 28 32  1  0  0  0  0
 32 33  1  0  0  0  0
 33 34  1  0  0  0  0
 33 35  2  0  0  0  0
M  END
>  <cdx:fragmentId>
5

$$$$
