70110.cdx
  Mrv1902 05222410202D          

 32 35  0  0  0  0            999 V2000
    5.5943   -9.2400    0.0000 C   0  0  0  0  0  0  0  0  0  0  0  0
    5.5943  -10.0650    0.0000 C   0  0  0  0  0  0  0  0  0  0  0  0
    6.3088  -10.4775    0.0000 C   0  0  0  0  0  0  0  0  0  0  0  0
    7.0232  -10.0650    0.0000 C   0  0  0  0  0  0  0  0  0  0  0  0
    7.0232   -9.2400    0.0000 C   0  0  0  0  0  0  0  0  0  0  0  0
    6.3088   -8.8275    0.0000 C   0  0  0  0  0  0  0  0  0  0  0  0
    7.7377  -10.4775    0.0000 C   0  0  0  0  0  0  0  0  0  0  0  0
    8.4522  -10.0650    0.0000 C   0  0  0  0  0  0  0  0  0  0  0  0
    8.4522   -9.2400    0.0000 C   0  0  0  0  0  0  0  0  0  0  0  0
    7.7377   -8.8275    0.0000 C   0  0  0  0  0  0  0  0  0  0  0  0
    9.1667  -10.4775    0.0000 C   0  0  0  0  0  0  0  0  0  0  0  0
    9.8811  -10.0650    0.0000 C   0  0  0  0  0  0  0  0  0  0  0  0
    9.8811   -9.2400    0.0000 C   0  0  0  0  0  0  0  0  0  0  0  0
    9.1667   -8.8275    0.0000 C   0  0  0  0  0  0  0  0  0  0  0  0
    7.7377   -8.0025    0.0000 O   0  0  0  0  0  0  0  0  0  0  0  0
    9.1667   -8.0025    0.0000 O   0  0  0  0  0  0  0  0  0  0  0  0
    7.7377  -11.3025    0.0000 O   0  0  0  0  0  0  0  0  0  0  0  0
   10.5956  -10.4775    0.0000 C   0  0  0  0  0  0  0  0  0  0  0  0
   11.3101  -10.0650    0.0000 O   0  0  0  0  0  0  0  0  0  0  0  0
   10.5956  -11.3025    0.0000 O   0  0  0  0  0  0  0  0  0  0  0  0
    4.1729   -5.1091    0.0000 O   0  0  0  0  0  0  0  0  0  0  0  0
    4.8778   -8.8239    0.0000 O   0  0  0  0  0  0  0  0  0  0  0  0
    3.4550   -6.3454    0.0000 O   0  0  0  0  0  0  0  0  0  0  0  0
    3.4509   -7.9954    0.0000 O   0  0  0  0  0  0  0  0  0  0  0  0
    4.8860   -5.5239    0.0000 C   0  0  0  0  0  0  0  0  0  0  0  0
    4.8798   -7.9989    0.0000 C   0  0  2  0  0  0  0  0  0  0  0  0
    4.1664   -7.5847    0.0000 C   0  0  2  0  0  0  0  0  0  0  0  0
    4.1684   -6.7597    0.0000 C   0  0  1  0  0  0  0  0  0  0  0  0
    4.8839   -6.3489    0.0000 C   0  0  2  0  0  0  0  0  0  0  0  0
    5.5974   -6.7632    0.0000 O   0  0  0  0  0  0  0  0  0  0  0  0
    5.5953   -7.5882    0.0000 C   0  0  1  0  0  0  0  0  0  0  0  0
    6.3088   -8.0025    0.0000 O   0  0  0  0  0  0  0  0  0  0  0  0
  1  2  1  0  0  0  0
  2  3  2  0  0  0  0
  3  4  1  0  0  0  0
  4  5  2  0  0  0  0
  5  6  1  0  0  0  0
  6  1  2  0  0  0  0
  4  7  1  0  0  0  0
  7  8  1  0  0  0  0
  8  9  2  0  0  0  0
  9 10  1  0  0  0  0
 10  5  1  0  0  0  0
  8 11  1  0  0  0  0
 11 12  2  0  0  0  0
 12 13  1  0  0  0  0
 13 14  2  0  0  0  0
 14  9  1  0  0  0  0
 25 21  1  0  0  0  0
 10 15  2  0  0  0  0
 32  6  1  0  0  0  0
 14 16  1  0  0  0  0
  7 17  2  0  0  0  0
 12 18  1  0  0  0  0
 18 19  1  0  0  0  0
 18 20  2  0  0  0  0
 26 22  1  6  0  0  0
 28 23  1  6  0  0  0
 27 24  1  1  0  0  0
 29 25  1  1  0  0  0
 26 31  1  0  0  0  0
 27 26  1  0  0  0  0
 28 27  1  0  0  0  0
 29 28  1  0  0  0  0
 30 29  1  0  0  0  0
 31 30  1  0  0  0  0
 31 32  1  1  0  0  0
M  END
>  <cdx:fragmentId>
5

$$$$
