70114.cdx
  Mrv1902 05222410182D          

 33 36  0  0  0  0            999 V2000
    6.6347   -8.6614    0.0000 C   0  0  2  0  0  0  0  0  0  0  0  0
    6.6347   -9.4864    0.0000 C   0  0  2  0  0  0  0  0  0  0  0  0
    7.2797  -10.0008    0.0000 C   0  0  1  0  0  0  0  0  0  0  0  0
    8.0840   -9.8172    0.0000 C   0  0  0  0  0  0  0  0  0  0  0  0
    8.4420   -9.0739    0.0000 C   0  0  2  0  0  0  0  0  0  0  0  0
    8.0840   -8.3306    0.0000 C   0  0  2  0  0  0  0  0  0  0  0  0
    7.2797   -8.1470    0.0000 C   0  0  2  0  0  0  0  0  0  0  0  0
    5.8501   -8.4065    0.0000 C   0  0  2  0  0  0  0  0  0  0  0  0
    5.3652   -9.0739    0.0000 C   0  0  1  0  0  0  0  0  0  0  0  0
    5.8501   -9.7413    0.0000 C   0  0  2  0  0  0  0  0  0  0  0  0
    9.2647   -9.1356    0.0000 C   0  0  1  0  0  0  0  0  0  0  0  0
    9.7294   -8.4539    0.0000 C   0  0  1  0  0  0  0  0  0  0  0  0
    9.3715   -7.7106    0.0000 C   0  0  0  0  0  0  0  0  0  0  0  0
    8.5488   -7.6490    0.0000 C   0  0  0  0  0  0  0  0  0  0  0  0
    4.5402   -9.0739    0.0000 O   0  0  0  0  0  0  0  0  0  0  0  0
    5.1356  -10.1538    0.0000 C   0  0  0  0  0  0  0  0  0  0  0  0
    6.6347  -10.3114    0.0000 O   0  0  0  0  0  0  0  0  0  0  0  0
    7.0961  -10.8051    0.0000 O   0  0  0  0  0  0  0  0  0  0  0  0
    8.8545   -9.7884    0.0000 C   0  0  0  0  0  0  0  0  0  0  0  0
   10.1419   -9.1684    0.0000 C   0  0  2  0  0  0  0  0  0  0  0  0
   10.9388   -9.3819    0.0000 C   0  0  0  0  0  0  0  0  0  0  0  0
    8.0840   -7.5056    0.0000 H   0  0  0  0  0  0  0  0  0  0  0  0
    7.4932   -7.3501    0.0000 C   0  0  0  0  0  0  0  0  0  0  0  0
    5.8501  -10.5663    0.0000 C   0  0  0  0  0  0  0  0  0  0  0  0
    5.6366   -7.6096    0.0000 O   0  0  0  0  0  0  0  0  0  0  0  0
    6.6347   -7.8364    0.0000 H   0  0  0  0  0  0  0  0  0  0  0  0
    6.8672   -7.4325    0.0000 O   0  0  0  0  0  0  0  0  0  0  0  0
   10.5544   -8.4539    0.0000 H   0  0  0  0  0  0  0  0  0  0  0  0
   10.5544   -9.8828    0.0000 O   0  0  0  0  0  0  0  0  0  0  0  0
    9.6772   -9.8500    0.0000 O   0  0  0  0  0  0  0  0  0  0  0  0
    7.6795  -11.3885    0.0000 C   0  0  0  0  0  0  0  0  0  0  0  0
    7.4660  -12.1853    0.0000 C   0  0  0  0  0  0  0  0  0  0  0  0
    8.4764  -11.1749    0.0000 O   0  0  0  0  0  0  0  0  0  0  0  0
  1  2  1  0  0  0  0
  2  3  1  0  0  0  0
  3  4  1  0  0  0  0
  4  5  1  0  0  0  0
  5  6  1  0  0  0  0
  6  7  1  0  0  0  0
  7  1  1  0  0  0  0
  1  8  1  0  0  0  0
  8  9  1  0  0  0  0
  9 10  1  0  0  0  0
 10  2  1  0  0  0  0
  5 11  1  0  0  0  0
 11 12  1  0  0  0  0
 12 13  1  0  0  0  0
 13 14  1  0  0  0  0
 14  6  1  0  0  0  0
  9 15  1  1  0  0  0
 10 16  1  1  0  0  0
  2 17  1  1  0  0  0
  3 18  1  1  0  0  0
  5 19  1  1  0  0  0
 12 20  1  1  0  0  0
 20 21  1  1  0  0  0
  6 22  1  1  0  0  0
  7 23  1  1  0  0  0
 10 24  1  6  0  0  0
  8 25  1  6  0  0  0
  1 26  1  6  0  0  0
  7 27  1  6  0  0  0
 12 28  1  6  0  0  0
 20 29  1  6  0  0  0
 11 30  1  1  0  0  0
 19 20  1  0  0  0  0
 18 31  1  0  0  0  0
 31 32  1  0  0  0  0
 31 33  2  0  0  0  0
M  END
>  <cdx:fragmentId>
5

$$$$
