91701100.cdx
  Mrv1902 05222410192D          

 14 14  0  0  0  0            999 V2000
    9.4093  -15.7121    0.0000 O   0  0  0  0  0  0  0  0  0  0  0  0
    9.9613  -15.0990    0.0000 C   0  0  0  0  0  0  0  0  0  0  0  0
    9.5488  -14.3845    0.0000 C   0  0  0  0  0  0  0  0  0  0  0  0
    8.7419  -14.5560    0.0000 C   0  0  2  0  0  0  0  0  0  0  0  0
    8.6556  -15.3765    0.0000 C   0  0  1  0  0  0  0  0  0  0  0  0
   10.7818  -15.1852    0.0000 O   0  0  0  0  0  0  0  0  0  0  0  0
    8.1288  -14.0040    0.0000 C   0  0  0  0  0  0  0  0  0  0  0  0
    7.9411  -15.7890    0.0000 C   0  0  0  0  0  0  0  0  0  0  0  0
    7.2267  -15.3765    0.0000 C   0  0  0  0  0  0  0  0  0  0  0  0
    6.5122  -15.7890    0.0000 C   0  0  0  0  0  0  0  0  0  0  0  0
    5.7977  -15.3765    0.0000 C   0  0  0  0  0  0  0  0  0  0  0  0
    5.0833  -15.7890    0.0000 C   0  0  0  0  0  0  0  0  0  0  0  0
    4.3688  -15.3765    0.0000 C   0  0  0  0  0  0  0  0  0  0  0  0
    3.6543  -15.7890    0.0000 C   0  0  0  0  0  0  0  0  0  0  0  0
  1  2  1  0  0  0  0
  2  3  1  0  0  0  0
  3  4  1  0  0  0  0
  4  5  1  0  0  0  0
  1  5  1  0  0  0  0
  2  6  2  0  0  0  0
  4  7  1  6  0  0  0
  8  9  1  0  0  0  0
  9 10  1  0  0  0  0
 10 11  1  0  0  0  0
 11 12  1  0  0  0  0
 12 13  1  0  0  0  0
 13 14  1  0  0  0  0
  5  8  1  6  0  0  0
M  END
>  <cdx:groupId>
215699

>  <cdx:fragmentId>
215660

$$$$
