70127.cdx
  Mrv1902 05222410282D          

 29 32  0  0  0  0            999 V2000
    8.9487   -8.9509    0.0000 C   0  0  0  0  0  0  0  0  0  0  0  0
    9.7136  -10.9952    0.0000 C   0  0  0  0  0  0  0  0  0  0  0  0
    5.2152   -9.9320    0.0000 N   0  0  0  0  0  0  0  0  0  0  0  0
    5.2289   -9.1071    0.0000 C   0  0  0  0  0  0  0  0  0  0  0  0
    6.0176   -8.8653    0.0000 C   0  0  2  0  0  0  0  0  0  0  0  0
    6.4914   -9.5407    0.0000 C   0  0  0  0  0  0  0  0  0  0  0  0
    7.3103   -9.6405    0.0000 C   0  0  0  0  0  0  0  0  0  0  0  0
    7.6333  -10.3997    0.0000 C   0  0  0  0  0  0  0  0  0  0  0  0
    7.1374  -11.0590    0.0000 C   0  0  0  0  0  0  0  0  0  0  0  0
    6.3184  -10.9591    0.0000 C   0  0  0  0  0  0  0  0  0  0  0  0
    5.9955  -10.2000    0.0000 C   0  0  0  0  0  0  0  0  0  0  0  0
    5.5165   -8.2099    0.0000 C   0  0  0  0  0  0  0  0  0  0  0  0
    5.9848   -7.5308    0.0000 C   0  0  0  0  0  0  0  0  0  0  0  0
    6.7755   -7.7664    0.0000 N   0  0  0  0  0  0  0  0  0  0  0  0
    7.4796   -7.3365    0.0000 C   0  0  0  0  0  0  0  0  0  0  0  0
    8.2040   -7.7313    0.0000 C   0  0  2  0  0  0  0  0  0  0  0  0
    8.2243   -8.5560    0.0000 C   0  0  2  0  0  0  0  0  0  0  0  0
    7.5201   -8.9860    0.0000 C   0  0  0  0  0  0  0  0  0  0  0  0
    6.7958   -8.5911    0.0000 C   0  0  1  0  0  0  0  0  0  0  0  0
    4.5696   -8.6112    0.0000 O   0  0  0  0  0  0  0  0  0  0  0  0
    8.9081   -7.3014    0.0000 C   0  0  0  0  0  0  0  0  0  0  0  0
    8.8879   -6.4766    0.0000 C   0  0  0  0  0  0  0  0  0  0  0  0
    6.8141   -9.4159    0.0000 H   0  0  0  0  0  0  0  0  0  0  0  0
   10.3772   -8.9158    0.0000 O   0  0  0  0  0  0  0  0  0  0  0  0
    9.6325   -7.6962    0.0000 O   0  0  0  0  0  0  0  0  0  0  0  0
    9.6933  -10.1704    0.0000 O   0  0  0  0  0  0  0  0  0  0  0  0
    8.9689   -9.7756    0.0000 C   0  0  0  0  0  0  0  0  0  0  0  0
    9.6528   -8.5209    0.0000 C   0  0  0  0  0  0  0  0  0  0  0  0
    8.4523  -10.4995    0.0000 O   0  0  0  0  0  0  0  0  0  0  0  0
 27 26  1  0  0  0  0
 28 24  1  0  0  0  0
 28 25  2  0  0  0  0
 26  2  1  0  0  0  0
 28  1  1  0  0  0  0
  1 27  2  0  0  0  0
  3  4  1  0  0  0  0
  4  5  1  0  0  0  0
  5  6  1  0  0  0  0
  6  7  1  0  0  0  0
  7  8  2  0  0  0  0
  8  9  1  0  0  0  0
  9 10  2  0  0  0  0
 10 11  1  0  0  0  0
  3 11  1  0  0  0  0
  6 11  2  0  0  0  0
 12 13  1  0  0  0  0
 13 14  1  0  0  0  0
 14 15  1  0  0  0  0
 15 16  1  0  0  0  0
 16 17  1  0  0  0  0
 17 18  1  0  0  0  0
 18 19  1  0  0  0  0
 14 19  1  0  0  0  0
  5 12  1  1  0  0  0
  5 19  1  0  0  0  0
  4 20  2  0  0  0  0
 21 22  1  0  0  0  0
 16 21  1  1  0  0  0
 17  1  1  1  0  0  0
 19 23  1  6  0  0  0
  8 29  1  0  0  0  0
M  END
>  <cdx:fragmentId>
39996

$$$$
