70125.cdx
  Mrv1902 05222410272D          

 50 56  0  0  0  0            999 V2000
    7.4684   -5.7399    0.0000 C   0  0  1  0  0  0  0  0  0  0  0  0
    6.7493   -5.3356    0.0000 C   0  0  0  0  0  0  0  0  0  0  0  0
    5.9677   -5.5994    0.0000 N   0  0  0  0  0  0  0  0  0  0  0  0
    5.4752   -4.9375    0.0000 C   0  0  0  0  0  0  0  0  0  0  0  0
    4.6538   -4.8605    0.0000 C   0  0  0  0  0  0  0  0  0  0  0  0
    4.3097   -4.1107    0.0000 C   0  0  0  0  0  0  0  0  0  0  0  0
    4.7871   -3.4378    0.0000 C   0  0  0  0  0  0  0  0  0  0  0  0
    5.6085   -3.5147    0.0000 C   0  0  0  0  0  0  0  0  0  0  0  0
    5.9525   -4.2646    0.0000 C   0  0  0  0  0  0  0  0  0  0  0  0
    6.7400   -4.5106    0.0000 C   0  0  0  0  0  0  0  0  0  0  0  0
    7.4498   -4.0900    0.0000 C   0  0  0  0  0  0  0  0  0  0  0  0
    8.1688   -4.4944    0.0000 C   0  0  0  0  0  0  0  0  0  0  0  0
    8.1782   -5.3194    0.0000 N   0  0  0  0  0  0  0  0  0  0  0  0
    8.8973   -5.7238    0.0000 C   0  0  0  0  0  0  0  0  0  0  0  0
    8.9066   -6.5487    0.0000 C   0  0  0  0  0  0  0  0  0  0  0  0
    9.6257   -6.9531    0.0000 C   0  0  0  0  0  0  0  0  0  0  0  0
    9.6350   -7.7781    0.0000 O   0  0  0  0  0  0  0  0  0  0  0  0
    8.9253   -8.1986    0.0000 C   0  0  0  0  0  0  0  0  0  0  0  0
    8.2062   -7.7942    0.0000 C   0  0  1  0  0  0  0  0  0  0  0  0
    8.1969   -6.9693    0.0000 C   0  0  2  0  0  0  0  0  0  0  0  0
    7.4778   -6.5649    0.0000 C   0  0  0  0  0  0  0  0  0  0  0  0
    9.6070   -5.3032    0.0000 O   0  0  0  0  0  0  0  0  0  0  0  0
    8.9346   -9.0236    0.0000 O   0  0  0  0  0  0  0  0  0  0  0  0
    7.6926   -9.7302    0.0000 O   0  0  0  0  0  0  0  0  0  0  0  0
    8.5176   -9.7354    0.0000 C   0  0  2  0  0  0  0  0  0  0  0  0
    8.9256  -10.4525    0.0000 C   0  0  1  0  0  0  0  0  0  0  0  0
    8.5086  -11.1643    0.0000 C   0  0  2  0  0  0  0  0  0  0  0  0
    7.6836  -11.1591    0.0000 C   0  0  1  0  0  0  0  0  0  0  0  0
    7.2756  -10.4420    0.0000 C   0  0  1  0  0  0  0  0  0  0  0  0
    6.4506  -10.4368    0.0000 C   0  0  0  0  0  0  0  0  0  0  0  0
    6.0336  -11.1486    0.0000 O   0  0  0  0  0  0  0  0  0  0  0  0
    7.2666  -11.8709    0.0000 O   0  0  0  0  0  0  0  0  0  0  0  0
    8.9165  -11.8814    0.0000 O   0  0  0  0  0  0  0  0  0  0  0  0
    9.7506  -10.4577    0.0000 O   0  0  0  0  0  0  0  0  0  0  0  0
    7.4964   -8.2148    0.0000 C   0  0  0  0  0  0  0  0  0  0  0  0
    7.5058   -9.0397    0.0000 C   0  0  0  0  0  0  0  0  0  0  0  0
    6.7587   -6.1605    0.0000 H   0  0  0  0  0  0  0  0  0  0  0  0
    7.4871   -7.3898    0.0000 H   0  0  0  0  0  0  0  0  0  0  0  0
    3.4883   -4.0337    0.0000 O   0  0  0  0  0  0  0  0  0  0  0  0
    5.2086  -11.1434    0.0000 C   0  0  2  0  0  0  0  0  0  0  0  0
    4.8007  -10.4263    0.0000 O   0  0  0  0  0  0  0  0  0  0  0  0
    3.9757  -10.4211    0.0000 C   0  0  1  0  0  0  0  0  0  0  0  0
    3.5587  -11.1329    0.0000 C   0  0  2  0  0  0  0  0  0  0  0  0
    3.9666  -11.8500    0.0000 C   0  0  1  0  0  0  0  0  0  0  0  0
    4.7916  -11.8552    0.0000 C   0  0  1  0  0  0  0  0  0  0  0  0
    3.5677   -9.7040    0.0000 C   0  0  0  0  0  0  0  0  0  0  0  0
    3.5496  -12.5619    0.0000 O   0  0  0  0  0  0  0  0  0  0  0  0
    2.7337  -11.1277    0.0000 O   0  0  0  0  0  0  0  0  0  0  0  0
    5.1996  -12.5723    0.0000 O   0  0  0  0  0  0  0  0  0  0  0  0
    2.7427   -9.6988    0.0000 O   0  0  0  0  0  0  0  0  0  0  0  0
  1  2  1  0  0  0  0
  2  3  1  0  0  0  0
  3  4  1  0  0  0  0
  4  5  2  0  0  0  0
  5  6  1  0  0  0  0
  6  7  2  0  0  0  0
  7  8  1  0  0  0  0
  8  9  2  0  0  0  0
  9 10  1  0  0  0  0
 10 11  1  0  0  0  0
 11 12  1  0  0  0  0
 12 13  1  0  0  0  0
 13 14  1  0  0  0  0
 14 15  1  0  0  0  0
 15 16  2  0  0  0  0
 16 17  1  0  0  0  0
 17 18  1  0  0  0  0
 18 19  1  0  0  0  0
 19 20  1  0  0  0  0
 20 21  1  0  0  0  0
  1 21  1  0  0  0  0
  1 13  1  0  0  0  0
 15 20  1  0  0  0  0
  2 10  2  0  0  0  0
  4  9  1  0  0  0  0
 14 22  2  0  0  0  0
 24 25  1  0  0  0  0
 25 26  1  0  0  0  0
 26 27  1  0  0  0  0
 27 28  1  0  0  0  0
 28 29  1  0  0  0  0
 24 29  1  0  0  0  0
 30 31  1  0  0  0  0
 29 30  1  1  0  0  0
 28 32  1  6  0  0  0
 27 33  1  1  0  0  0
 26 34  1  6  0  0  0
 25 23  1  1  0  0  0
 18 23  1  0  0  0  0
 35 36  2  0  0  0  0
 19 35  1  6  0  0  0
  1 37  1  6  0  0  0
 20 38  1  1  0  0  0
  6 39  1  0  0  0  0
 40 31  1  1  0  0  0
 40 41  1  0  0  0  0
 41 42  1  0  0  0  0
 42 43  1  0  0  0  0
 43 44  1  0  0  0  0
 44 45  1  0  0  0  0
 45 40  1  0  0  0  0
 42 46  1  1  0  0  0
 44 47  1  1  0  0  0
 43 48  1  6  0  0  0
 45 49  1  6  0  0  0
 46 50  1  0  0  0  0
M  END
>  <cdx:fragmentId>
168340

$$$$
