701200.cdx
  Mrv1902 05222410222D          

 31 31  0  0  0  0            999 V2000
   12.9138   -8.0281    0.0000 C   0  0  0  0  0  0  0  0  0  0  0  0
   12.2002   -7.6141    0.0000 C   0  0  0  0  0  0  0  0  0  0  0  0
   11.4849   -8.0251    0.0000 C   0  0  0  0  0  0  0  0  0  0  0  0
   10.7713   -7.6111    0.0000 C   0  0  0  0  0  0  0  0  0  0  0  0
   10.0559   -8.0221    0.0000 C   0  0  0  0  0  0  0  0  0  0  0  0
    9.3423   -7.6081    0.0000 C   0  0  0  0  0  0  0  0  0  0  0  0
    8.6270   -8.0191    0.0000 C   0  0  0  0  0  0  0  0  0  0  0  0
    7.9134   -7.6051    0.0000 C   0  0  0  0  0  0  0  0  0  0  0  0
    7.1981   -8.0161    0.0000 C   0  0  0  0  0  0  0  0  0  0  0  0
    6.4845   -7.6021    0.0000 C   0  0  0  0  0  0  0  0  0  0  0  0
    5.7691   -8.0131    0.0000 C   0  0  0  0  0  0  0  0  0  0  0  0
    5.0555   -7.5990    0.0000 C   0  0  0  0  0  0  0  0  0  0  0  0
    4.3402   -8.0100    0.0000 C   0  0  0  0  0  0  0  0  0  0  0  0
    3.6266   -7.5960    0.0000 C   0  0  0  0  0  0  0  0  0  0  0  0
    2.9112   -8.0070    0.0000 C   0  0  0  0  0  0  0  0  0  0  0  0
    2.9095   -8.8320    0.0000 C   0  0  0  0  0  0  0  0  0  0  0  0
    2.1942   -9.2430    0.0000 C   0  0  0  0  0  0  0  0  0  0  0  0
   13.6292   -7.6171    0.0000 O   0  0  0  0  0  0  0  0  0  0  0  0
    2.1924  -10.0680    0.0000 C   0  0  0  0  0  0  0  0  0  0  0  0
    1.4771  -10.4790    0.0000 C   0  0  0  0  0  0  0  0  0  0  0  0
    1.4754  -11.3040    0.0000 C   0  0  0  0  0  0  0  0  0  0  0  0
    2.1890  -11.7180    0.0000 C   0  0  0  0  0  0  0  0  0  0  0  0
    2.9043  -11.3070    0.0000 C   0  0  0  0  0  0  0  0  0  0  0  0
    2.9060  -10.4820    0.0000 C   0  0  0  0  0  0  0  0  0  0  0  0
    3.3200   -9.7684    0.0000 C   0  0  0  0  0  0  0  0  0  0  0  0
    3.7310  -10.4838    0.0000 C   0  0  0  0  0  0  0  0  0  0  0  0
    0.7635  -10.0650    0.0000 C   0  0  0  0  0  0  0  0  0  0  0  0
    2.1977   -7.5930    0.0000 C   0  0  0  0  0  0  0  0  0  0  0  0
    5.7674   -8.8381    0.0000 C   0  0  0  0  0  0  0  0  0  0  0  0
    9.3441   -6.7831    0.0000 C   0  0  0  0  0  0  0  0  0  0  0  0
   12.2020   -6.7891    0.0000 C   0  0  0  0  0  0  0  0  0  0  0  0
  1  2  1  0  0  0  0
  2  3  2  0  0  0  0
  3  4  1  0  0  0  0
  4  5  2  0  0  0  0
  5  6  1  0  0  0  0
  6  7  2  0  0  0  0
  7  8  1  0  0  0  0
  8  9  2  0  0  0  0
  9 10  1  0  0  0  0
 10 11  2  0  0  0  0
 11 12  1  0  0  0  0
 12 13  2  0  0  0  0
 13 14  1  0  0  0  0
 14 15  2  0  0  0  0
 15 16  1  0  0  0  0
 16 17  2  0  0  0  0
  1 18  2  0  0  0  0
 19 20  2  0  0  0  0
 20 21  1  0  0  0  0
 21 22  1  0  0  0  0
 22 23  1  0  0  0  0
 23 24  1  0  0  0  0
 19 24  1  0  0  0  0
 24 25  1  0  0  0  0
 24 26  1  0  0  0  0
 20 27  1  0  0  0  0
 17 19  1  0  0  0  0
 15 28  1  0  0  0  0
 11 29  1  0  0  0  0
  6 30  1  0  0  0  0
  2 31  1  0  0  0  0
M  END
>  <cdx:fragmentId>
5

$$$$
