701294.cdx
  Mrv1902 05222410272D          

 53 55  0  0  0  0            999 V2000
    2.4528  -10.1912    0.0000 K   0  3  0  0  0  0  0  0  0  0  0  0
    4.5811  -13.0898    0.0000 K   0  3  0  0  0  0  0  0  0  0  0  0
    5.3021  -11.8561    0.0000 S   0  0  0  0  0  0  0  0  0  0  0  0
    4.8933  -11.1395    0.0000 O   0  0  0  0  0  0  0  0  0  0  0  0
    5.7108  -12.5727    0.0000 O   0  0  0  0  0  0  0  0  0  0  0  0
    6.0187  -11.4473    0.0000 O   0  0  0  0  0  0  0  0  0  0  0  0
    4.5854  -12.2648    0.0000 O   0  5  0  0  0  0  0  0  0  0  0  0
    6.0316   -8.9724    0.0000 O   0  0  0  0  0  0  0  0  0  0  0  0
    6.7439   -9.3886    0.0000 C   0  0  2  0  0  0  0  0  0  0  0  0
    6.7396  -10.2136    0.0000 C   0  0  1  0  0  0  0  0  0  0  0  0
    6.0230  -10.6223    0.0000 C   0  0  2  0  0  0  0  0  0  0  0  0
    5.3107  -10.2061    0.0000 C   0  0  1  0  0  0  0  0  0  0  0  0
    5.3150   -9.3811    0.0000 C   0  0  1  0  0  0  0  0  0  0  0  0
    4.5941  -10.6149    0.0000 O   0  0  0  0  0  0  0  0  0  0  0  0
    3.8817  -10.1986    0.0000 S   0  0  0  0  0  0  0  0  0  0  0  0
    4.2980   -9.4863    0.0000 O   0  0  0  0  0  0  0  0  0  0  0  0
    3.4655  -10.9109    0.0000 O   0  0  0  0  0  0  0  0  0  0  0  0
    3.1694   -9.7824    0.0000 O   0  5  0  0  0  0  0  0  0  0  0  0
    7.4519  -10.6298    0.0000 O   0  0  0  0  0  0  0  0  0  0  0  0
    8.1685  -10.2210    0.0000 C   0  0  0  0  0  0  0  0  0  0  0  0
    8.8808  -10.6373    0.0000 C   0  0  0  0  0  0  0  0  0  0  0  0
    9.5974  -10.2285    0.0000 C   0  0  0  0  0  0  0  0  0  0  0  0
   10.3097  -10.6447    0.0000 C   0  0  0  0  0  0  0  0  0  0  0  0
    8.1728   -9.3960    0.0000 O   0  0  0  0  0  0  0  0  0  0  0  0
    9.6017   -9.4035    0.0000 C   0  0  0  0  0  0  0  0  0  0  0  0
    4.6027   -8.9649    0.0000 C   0  0  0  0  0  0  0  0  0  0  0  0
    4.6070   -8.1399    0.0000 O   0  0  0  0  0  0  0  0  0  0  0  0
    7.4605   -8.9798    0.0000 O   0  0  0  0  0  0  0  0  0  0  0  0
    6.7611   -6.0886    0.0000 H   0  0  0  0  0  0  0  0  0  0  0  0
    9.1117   -7.3103    0.0000 H   0  0  0  0  0  0  0  0  0  0  0  0
    8.9067   -5.6873    0.0000 C   0  0  1  0  0  0  0  0  0  0  0  0
    8.1944   -5.2711    0.0000 C   0  0  0  0  0  0  0  0  0  0  0  0
    7.4777   -5.6799    0.0000 C   0  0  0  0  0  0  0  0  0  0  0  0
    7.4734   -6.5048    0.0000 C   0  0  2  0  0  0  0  0  0  0  0  0
    6.7568   -6.9136    0.0000 C   0  0  1  0  0  0  0  0  0  0  0  0
    6.7525   -7.7386    0.0000 C   0  0  0  0  0  0  0  0  0  0  0  0
    7.4648   -8.1548    0.0000 C   0  0  2  0  0  0  0  0  0  0  0  0
    8.1814   -7.7461    0.0000 C   0  0  0  0  0  0  0  0  0  0  0  0
    8.1857   -6.9211    0.0000 C   0  0  1  0  0  0  0  0  0  0  0  0
    8.9024   -6.5123    0.0000 C   0  0  2  0  0  0  0  0  0  0  0  0
    9.5447   -7.0300    0.0000 C   0  0  0  0  0  0  0  0  0  0  0  0
   10.3499   -6.8507    0.0000 C   0  0  0  0  0  0  0  0  0  0  0  0
   10.7118   -6.1093    0.0000 C   0  0  1  0  0  0  0  0  0  0  0  0
   10.3577   -5.3641    0.0000 C   0  0  0  0  0  0  0  0  0  0  0  0
    9.5544   -5.1763    0.0000 C   0  0  2  0  0  0  0  0  0  0  0  0
    9.7350   -6.2150    0.0000 C   0  0  0  0  0  0  0  0  0  0  0  0
   10.8754   -4.7218    0.0000 C   0  0  0  0  0  0  0  0  0  0  0  0
    8.7661   -7.5075    0.0000 C   0  0  0  0  0  0  0  0  0  0  0  0
    9.3750   -4.3711    0.0000 O   0  0  0  0  0  0  0  0  0  0  0  0
    6.0445   -6.4974    0.0000 C   0  0  0  0  0  0  0  0  0  0  0  0
    6.0488   -5.6724    0.0000 O   0  0  0  0  0  0  0  0  0  0  0  0
    5.3279   -6.9061    0.0000 O   0  0  0  0  0  0  0  0  0  0  0  0
   11.5368   -6.1093    0.0000 H   0  0  0  0  0  0  0  0  0  0  0  0
 34 29  1  6  0  0  0
 40 30  1  6  0  0  0
  3  4  2  0  0  0  0
  3  5  2  0  0  0  0
  3  6  1  0  0  0  0
  3  7  1  0  0  0  0
  8  9  1  0  0  0  0
  9 10  1  0  0  0  0
 10 11  1  0  0  0  0
 11 12  1  0  0  0  0
 12 13  1  0  0  0  0
  8 13  1  0  0  0  0
 15 16  2  0  0  0  0
 15 17  2  0  0  0  0
 15 18  1  0  0  0  0
 14 15  1  0  0  0  0
 12 14  1  6  0  0  0
 20 21  1  0  0  0  0
 21 22  1  0  0  0  0
 22 23  1  0  0  0  0
 20 24  2  0  0  0  0
 19 20  1  0  0  0  0
 22 25  1  0  0  0  0
 10 19  1  6  0  0  0
 26 27  1  0  0  0  0
 13 26  1  1  0  0  0
 31 32  1  1  0  0  0
 32 33  1  0  0  0  0
 33 34  1  0  0  0  0
 34 35  1  0  0  0  0
 35 36  1  0  0  0  0
 36 37  1  0  0  0  0
 37 38  1  0  0  0  0
 38 39  1  0  0  0  0
 39 40  1  0  0  0  0
 40 41  1  0  0  0  0
 41 42  1  0  0  0  0
 42 43  1  0  0  0  0
 43 44  1  0  0  0  0
 44 45  1  0  0  0  0
 31 45  1  0  0  0  0
 31 46  1  0  0  0  0
 43 46  1  0  0  0  0
 31 40  1  0  0  0  0
 34 39  1  0  0  0  0
 44 47  2  0  0  0  0
 39 48  1  1  0  0  0
 37 28  1  6  0  0  0
  9 28  1  1  0  0  0
 11  6  1  1  0  0  0
 45 49  1  1  0  0  0
 50 51  2  0  0  0  0
 50 52  1  0  0  0  0
 35 50  1  1  0  0  0
 43 53  1  1  0  0  0
M  CHG  4   1   1   2   1   7  -1  18  -1
M  END
>  <cdx:groupId>
6338

>  <cdx:fragmentId>
6242

$$$$
