70126.cdx
  Mrv1902 05222410282D          

 28 31  0  0  0  0            999 V2000
    8.9467   -8.9674    0.0000 C   0  0  0  0  0  0  0  0  0  0  0  0
    8.9570   -9.7924    0.0000 C   0  0  0  0  0  0  0  0  0  0  0  0
    8.2478  -10.2138    0.0000 O   0  0  0  0  0  0  0  0  0  0  0  0
    8.2581  -11.0387    0.0000 C   0  0  0  0  0  0  0  0  0  0  0  0
    5.2017   -9.9036    0.0000 N   0  0  0  0  0  0  0  0  0  0  0  0
    5.2253   -9.0790    0.0000 C   0  0  0  0  0  0  0  0  0  0  0  0
    6.0169   -8.8466    0.0000 C   0  0  2  0  0  0  0  0  0  0  0  0
    6.4825   -9.5277    0.0000 C   0  0  0  0  0  0  0  0  0  0  0  0
    7.3002   -9.6373    0.0000 C   0  0  0  0  0  0  0  0  0  0  0  0
    7.6140  -10.4003    0.0000 C   0  0  0  0  0  0  0  0  0  0  0  0
    7.1102  -11.0536    0.0000 C   0  0  0  0  0  0  0  0  0  0  0  0
    6.2925  -10.9439    0.0000 C   0  0  0  0  0  0  0  0  0  0  0  0
    5.9787  -10.1809    0.0000 C   0  0  0  0  0  0  0  0  0  0  0  0
    5.5236   -8.1853    0.0000 C   0  0  0  0  0  0  0  0  0  0  0  0
    6.0001   -7.5118    0.0000 C   0  0  0  0  0  0  0  0  0  0  0  0
    6.7879   -7.7569    0.0000 N   0  0  0  0  0  0  0  0  0  0  0  0
    7.4971   -7.3355    0.0000 C   0  0  0  0  0  0  0  0  0  0  0  0
    8.2167   -7.7390    0.0000 C   0  0  2  0  0  0  0  0  0  0  0  0
    8.2271   -8.5639    0.0000 C   0  0  2  0  0  0  0  0  0  0  0  0
    7.5178   -8.9853    0.0000 C   0  0  0  0  0  0  0  0  0  0  0  0
    6.7982   -8.5818    0.0000 C   0  0  1  0  0  0  0  0  0  0  0  0
    4.5720   -8.5751    0.0000 O   0  0  0  0  0  0  0  0  0  0  0  0
    8.9260   -7.3175    0.0000 C   0  0  0  0  0  0  0  0  0  0  0  0
    8.9156   -6.4926    0.0000 C   0  0  0  0  0  0  0  0  0  0  0  0
    6.8067   -9.4068    0.0000 H   0  0  0  0  0  0  0  0  0  0  0  0
   10.3755   -8.9495    0.0000 O   0  0  0  0  0  0  0  0  0  0  0  0
    9.6456   -7.7211    0.0000 O   0  0  0  0  0  0  0  0  0  0  0  0
    9.6559   -8.5460    0.0000 C   0  0  0  0  0  0  0  0  0  0  0  0
 28 26  1  0  0  0  0
 28 27  2  0  0  0  0
 28  1  1  0  0  0  0
  1  2  2  0  0  0  0
  3  4  1  0  0  0  0
  2  3  1  0  0  0  0
  5  6  1  0  0  0  0
  6  7  1  0  0  0  0
  7  8  1  0  0  0  0
  8  9  1  0  0  0  0
  9 10  2  0  0  0  0
 10 11  1  0  0  0  0
 11 12  2  0  0  0  0
 12 13  1  0  0  0  0
  5 13  1  0  0  0  0
  8 13  2  0  0  0  0
 14 15  1  0  0  0  0
 15 16  1  0  0  0  0
 16 17  1  0  0  0  0
 17 18  1  0  0  0  0
 18 19  1  0  0  0  0
 19 20  1  0  0  0  0
 20 21  1  0  0  0  0
 16 21  1  0  0  0  0
  7 14  1  1  0  0  0
  7 21  1  0  0  0  0
  6 22  2  0  0  0  0
 23 24  1  0  0  0  0
 18 23  1  1  0  0  0
 19  1  1  1  0  0  0
 21 25  1  6  0  0  0
M  END
>  <cdx:fragmentId>
39996

$$$$
