70135.cdx
  Mrv1902 05222410262D          

 11 11  0  0  0  0            999 V2000
    7.2703   -3.2501    0.0000 C   0  0  0  0  0  0  0  0  0  0  0  0
    7.9839   -2.8362    0.0000 C   0  0  0  0  0  0  0  0  0  0  0  0
    7.2719   -4.0751    0.0000 C   0  0  0  0  0  0  0  0  0  0  0  0
    6.5582   -4.4890    0.0000 C   0  0  0  0  0  0  0  0  0  0  0  0
    6.5599   -5.3140    0.0000 C   0  0  0  0  0  0  0  0  0  0  0  0
    7.2751   -5.7251    0.0000 C   0  0  0  0  0  0  0  0  0  0  0  0
    7.9888   -5.3112    0.0000 C   0  0  0  0  0  0  0  0  0  0  0  0
    7.9872   -4.4862    0.0000 C   0  0  0  0  0  0  0  0  0  0  0  0
    5.8462   -5.7279    0.0000 C   0  0  0  0  0  0  0  0  0  0  0  0
    7.2768   -6.5501    0.0000 O   0  0  0  0  0  0  0  0  0  0  0  0
    6.5550   -2.8390    0.0000 O   0  0  0  0  0  0  0  0  0  0  0  0
  1  2  1  0  0  0  0
  3  4  1  0  0  0  0
  4  5  2  0  0  0  0
  5  6  1  0  0  0  0
  6  7  2  0  0  0  0
  7  8  1  0  0  0  0
  3  8  2  0  0  0  0
  5  9  1  0  0  0  0
  6 10  1  0  0  0  0
  1  3  1  0  0  0  0
  1 11  2  0  0  0  0
M  END
>  <cdx:fragmentId>
9

$$$$
