70133.cdx
  Mrv1902 05222410282D          

 11 11  0  0  0  0            999 V2000
    5.5896   -2.7302    0.0000 C   0  0  0  0  0  0  0  0  0  0  0  0
    6.3040   -3.1427    0.0000 C   0  0  0  0  0  0  0  0  0  0  0  0
    5.5896   -1.9052    0.0000 O   0  0  0  0  0  0  0  0  0  0  0  0
    4.8751   -3.1427    0.0000 C   0  0  0  0  0  0  0  0  0  0  0  0
    4.8751   -3.9677    0.0000 C   0  0  0  0  0  0  0  0  0  0  0  0
    4.1606   -4.3802    0.0000 C   0  0  0  0  0  0  0  0  0  0  0  0
    3.4462   -3.9677    0.0000 C   0  0  0  0  0  0  0  0  0  0  0  0
    3.4462   -3.1427    0.0000 C   0  0  0  0  0  0  0  0  0  0  0  0
    4.1606   -2.7302    0.0000 C   0  0  0  0  0  0  0  0  0  0  0  0
    5.5896   -4.3802    0.0000 C   0  0  0  0  0  0  0  0  0  0  0  0
    2.7317   -4.3802    0.0000 O   0  0  0  0  0  0  0  0  0  0  0  0
  1  2  1  0  0  0  0
  4  5  1  0  0  0  0
  5  6  2  0  0  0  0
  6  7  1  0  0  0  0
  7  8  2  0  0  0  0
  8  9  1  0  0  0  0
  4  9  2  0  0  0  0
  1  3  2  0  0  0  0
  1  4  1  0  0  0  0
  5 10  1  0  0  0  0
  7 11  1  0  0  0  0
M  END
>  <cdx:groupId>
35

>  <cdx:fragmentId>
11

$$$$
