70136.cdx
  Mrv1902 05222410262D          

 35 38  0  0  0  0            999 V2000
    3.8727  -10.5856    0.0000 C   0  0  2  0  0  0  0  0  0  0  0  0
    4.2851  -11.3001    0.0000 C   0  0  2  0  0  0  0  0  0  0  0  0
    5.1101  -11.3001    0.0000 C   0  0  1  0  0  0  0  0  0  0  0  0
    5.5227  -10.5857    0.0000 C   0  0  2  0  0  0  0  0  0  0  0  0
    5.1102   -9.8712    0.0000 C   0  0  1  0  0  0  0  0  0  0  0  0
    4.2852   -9.8712    0.0000 O   0  0  0  0  0  0  0  0  0  0  0  0
    5.5227   -9.1567    0.0000 O   0  0  0  0  0  0  0  0  0  0  0  0
    6.7482   -8.4414    0.0000 C   0  0  1  0  0  0  0  0  0  0  0  0
    7.4627   -8.0289    0.0000 C   0  0  0  0  0  0  0  0  0  0  0  0
    7.4627   -7.2039    0.0000 C   0  0  1  0  0  0  0  0  0  0  0  0
    6.7482   -6.7914    0.0000 C   0  0  0  0  0  0  0  0  0  0  0  0
    6.0338   -7.2039    0.0000 C   0  0  0  0  0  0  0  0  0  0  0  0
    6.0338   -8.0289    0.0000 C   0  0  1  0  0  0  0  0  0  0  0  0
    8.1772   -8.4414    0.0000 C   0  0  0  0  0  0  0  0  0  0  0  0
    8.8917   -8.0289    0.0000 C   0  0  0  0  0  0  0  0  0  0  0  0
    8.8917   -7.2039    0.0000 C   0  0  0  0  0  0  0  0  0  0  0  0
    8.1772   -6.7914    0.0000 C   0  0  1  0  0  0  0  0  0  0  0  0
    9.6061   -6.7914    0.0000 C   0  0  0  0  0  0  0  0  0  0  0  0
    8.8917   -5.5539    0.0000 C   0  0  0  0  0  0  0  0  0  0  0  0
    8.1772   -5.9664    0.0000 C   0  0  0  0  0  0  0  0  0  0  0  0
    3.0477  -10.5856    0.0000 C   0  0  0  0  0  0  0  0  0  0  0  0
    2.6351  -11.3001    0.0000 O   0  0  0  0  0  0  0  0  0  0  0  0
    5.5226  -12.0146    0.0000 O   0  0  0  0  0  0  0  0  0  0  0  0
    3.8726  -12.0146    0.0000 O   0  0  0  0  0  0  0  0  0  0  0  0
    6.3477  -10.5857    0.0000 O   0  0  0  0  0  0  0  0  0  0  0  0
    5.3193   -8.4414    0.0000 O   0  0  0  0  0  0  0  0  0  0  0  0
    7.4627   -6.3789    0.0000 C   0  0  0  0  0  0  0  0  0  0  0  0
    9.4443   -3.4825    0.0000 O   0  0  0  0  0  0  0  0  0  0  0  0
    8.6238   -3.3963    0.0000 C   0  0  0  0  0  0  0  0  0  0  0  0
    8.2882   -4.1499    0.0000 C   0  0  0  0  0  0  0  0  0  0  0  0
   10.3303   -4.7020    0.0000 O   0  0  0  0  0  0  0  0  0  0  0  0
    9.6158   -4.2895    0.0000 C   0  0  0  0  0  0  0  0  0  0  0  0
    8.9013   -4.7020    0.0000 C   0  0  0  0  0  0  0  0  0  0  0  0
    6.3357   -9.1559    0.0000 C   0  0  0  0  0  0  0  0  0  0  0  0
    7.1607   -9.1559    0.0000 C   0  0  0  0  0  0  0  0  0  0  0  0
  1  2  1  0  0  0  0
  2  3  1  0  0  0  0
  3  4  1  0  0  0  0
  4  5  1  0  0  0  0
  5  6  1  0  0  0  0
  6  1  1  0  0  0  0
  5  7  1  1  0  0  0
  8  9  1  0  0  0  0
  9 10  1  0  0  0  0
 10 11  1  0  0  0  0
 11 12  1  0  0  0  0
 12 13  1  0  0  0  0
 13  8  1  0  0  0  0
  9 14  1  0  0  0  0
 14 15  1  0  0  0  0
 15 16  1  0  0  0  0
 16 17  1  0  0  0  0
 17 10  1  0  0  0  0
 16 18  2  0  0  0  0
 19 20  1  0  0  0  0
 17 20  1  6  0  0  0
  1 21  1  1  0  0  0
 21 22  1  0  0  0  0
  3 23  1  1  0  0  0
  2 24  1  6  0  0  0
  4 25  1  6  0  0  0
 13 26  1  6  0  0  0
 10 27  1  6  0  0  0
 28 32  1  0  0  0  0
 29 28  1  0  0  0  0
 30 29  1  0  0  0  0
 33 30  2  0  0  0  0
 32 31  2  0  0  0  0
 33 32  1  0  0  0  0
 19 33  1  0  0  0  0
  8 34  1  6  0  0  0
  8 35  1  1  0  0  0
 34  7  1  0  0  0  0
M  END
>  <cdx:fragmentId>
5

$$$$
