7013.cdx
  Mrv1902 05222410272D          

 17 19  0  0  0  0            999 V2000
    4.3890   -3.4856    0.0000 C   0  0  0  0  0  0  0  0  0  0  0  0
    5.1035   -3.8981    0.0000 C   0  0  0  0  0  0  0  0  0  0  0  0
    5.1035   -4.7231    0.0000 C   0  0  0  0  0  0  0  0  0  0  0  0
    4.3890   -5.1356    0.0000 C   0  0  0  0  0  0  0  0  0  0  0  0
    3.6745   -4.7231    0.0000 C   0  0  0  0  0  0  0  0  0  0  0  0
    2.9601   -5.1356    0.0000 C   0  0  0  0  0  0  0  0  0  0  0  0
    2.2456   -4.7231    0.0000 C   0  0  0  0  0  0  0  0  0  0  0  0
    2.2456   -3.8981    0.0000 C   0  0  0  0  0  0  0  0  0  0  0  0
    2.9601   -3.4856    0.0000 C   0  0  0  0  0  0  0  0  0  0  0  0
    3.6745   -3.8981    0.0000 C   0  0  0  0  0  0  0  0  0  0  0  0
    4.3890   -2.6606    0.0000 N   0  0  0  0  0  0  0  0  0  0  0  0
    5.1035   -2.2481    0.0000 C   0  0  0  0  0  0  0  0  0  0  0  0
    5.1035   -1.4231    0.0000 C   0  0  0  0  0  0  0  0  0  0  0  0
    5.8179   -1.0106    0.0000 C   0  0  0  0  0  0  0  0  0  0  0  0
    6.5324   -1.4231    0.0000 C   0  0  0  0  0  0  0  0  0  0  0  0
    6.5324   -2.2481    0.0000 C   0  0  0  0  0  0  0  0  0  0  0  0
    5.8179   -2.6606    0.0000 C   0  0  0  0  0  0  0  0  0  0  0  0
  1  2  1  0  0  0  0
  2  3  2  0  0  0  0
  3  4  1  0  0  0  0
  4  5  2  0  0  0  0
  5  6  1  0  0  0  0
  6  7  2  0  0  0  0
  7  8  1  0  0  0  0
  8  9  2  0  0  0  0
  9 10  1  0  0  0  0
  1 10  2  0  0  0  0
  5 10  1  0  0  0  0
  1 11  1  0  0  0  0
 12 13  1  0  0  0  0
 13 14  2  0  0  0  0
 14 15  1  0  0  0  0
 15 16  2  0  0  0  0
 16 17  1  0  0  0  0
 12 17  2  0  0  0  0
 11 12  1  0  0  0  0
M  END
>  <cdx:groupId>
55

>  <cdx:fragmentId>
5

$$$$
