70148.cdx
  Mrv1902 05222410202D          

 40 43  0  0  0  0            999 V2000
    3.7579   -5.0326    0.0000 C   0  0  0  0  0  0  0  0  0  0  0  0
    3.3450   -5.7468    0.0000 C   0  0  0  0  0  0  0  0  0  0  0  0
    8.7079   -5.0355    0.0000 O   0  0  0  0  0  0  0  0  0  0  0  0
    8.7062   -7.8934    0.0000 O   0  0  0  0  0  0  0  0  0  0  0  0
    7.0562   -7.8924    0.0000 O   0  0  0  0  0  0  0  0  0  0  0  0
    7.4691   -7.1782    0.0000 C   0  0  0  0  0  0  0  0  0  0  0  0
    8.2941   -7.1787    0.0000 C   0  0  0  0  0  0  0  0  0  0  0  0
    8.7070   -6.4645    0.0000 C   0  0  0  0  0  0  0  0  0  0  0  0
    8.2950   -5.7498    0.0000 C   0  0  0  0  0  0  0  0  0  0  0  0
    7.4700   -5.7493    0.0000 C   0  0  0  0  0  0  0  0  0  0  0  0
    7.0570   -6.4635    0.0000 C   0  0  0  0  0  0  0  0  0  0  0  0
    3.7570   -6.4615    0.0000 C   0  0  0  0  0  0  0  0  0  0  0  0
    4.5820   -6.4620    0.0000 C   0  0  0  0  0  0  0  0  0  0  0  0
    4.9950   -5.7478    0.0000 C   0  0  0  0  0  0  0  0  0  0  0  0
    4.5829   -5.0331    0.0000 C   0  0  0  0  0  0  0  0  0  0  0  0
    5.8200   -5.7483    0.0000 C   0  0  0  0  0  0  0  0  0  0  0  0
    6.2320   -6.4630    0.0000 C   0  0  0  0  0  0  0  0  0  0  0  0
    2.5200   -5.7463    0.0000 O   0  0  0  0  0  0  0  0  0  0  0  0
    6.3462   -8.3126    0.0000 C   0  0  2  0  0  0  0  0  0  0  0  0
    5.6273   -7.9077    0.0000 O   0  0  0  0  0  0  0  0  0  0  0  0
    4.9173   -8.3278    0.0000 C   0  0  1  0  0  0  0  0  0  0  0  0
    4.9261   -9.1528    0.0000 C   0  0  2  0  0  0  0  0  0  0  0  0
    5.6450   -9.5576    0.0000 C   0  0  1  0  0  0  0  0  0  0  0  0
    6.3550   -9.1375    0.0000 C   0  0  1  0  0  0  0  0  0  0  0  0
    4.1985   -7.9230    0.0000 C   0  0  0  0  0  0  0  0  0  0  0  0
    5.6538  -10.3826    0.0000 O   0  0  0  0  0  0  0  0  0  0  0  0
    7.0738   -9.5424    0.0000 O   0  0  0  0  0  0  0  0  0  0  0  0
    4.2161   -9.5729    0.0000 O   0  0  0  0  0  0  0  0  0  0  0  0
    3.4885   -8.3431    0.0000 O   0  0  0  0  0  0  0  0  0  0  0  0
    7.8988   -9.5335    0.0000 C   0  0  0  0  0  0  0  0  0  0  0  0
    8.3189  -10.2436    0.0000 C   0  0  0  0  0  0  0  0  0  0  0  0
    8.3036   -8.8147    0.0000 O   0  0  0  0  0  0  0  0  0  0  0  0
    7.9141  -10.9624    0.0000 C   0  0  0  0  0  0  0  0  0  0  0  0
    8.3342  -11.6724    0.0000 C   0  0  0  0  0  0  0  0  0  0  0  0
    9.1591  -11.6636    0.0000 C   0  0  0  0  0  0  0  0  0  0  0  0
    9.5640  -10.9448    0.0000 C   0  0  0  0  0  0  0  0  0  0  0  0
    9.1438  -10.2347    0.0000 C   0  0  0  0  0  0  0  0  0  0  0  0
    7.9293  -12.3913    0.0000 O   0  0  0  0  0  0  0  0  0  0  0  0
    9.5792  -12.3736    0.0000 O   0  0  0  0  0  0  0  0  0  0  0  0
   10.3889  -10.9359    0.0000 O   0  0  0  0  0  0  0  0  0  0  0  0
  9  3  1  0  0  0  0
  7  4  1  0  0  0  0
  6  5  1  0  0  0  0
  6 11  1  0  0  0  0
  7  6  2  0  0  0  0
  8  7  1  0  0  0  0
  9  8  2  0  0  0  0
 10  9  1  0  0  0  0
 11 10  2  0  0  0  0
 17 11  1  0  0  0  0
  1  2  2  0  0  0  0
  2 12  1  0  0  0  0
 12 13  2  0  0  0  0
 13 14  1  0  0  0  0
 14 15  2  0  0  0  0
 15  1  1  0  0  0  0
 14 16  1  0  0  0  0
 16 17  2  0  0  0  0
  2 18  1  0  0  0  0
 19  5  1  1  0  0  0
 19 20  1  0  0  0  0
 20 21  1  0  0  0  0
 21 22  1  0  0  0  0
 22 23  1  0  0  0  0
 23 24  1  0  0  0  0
 24 19  1  0  0  0  0
 21 25  1  1  0  0  0
 23 26  1  1  0  0  0
 24 27  1  6  0  0  0
 22 28  1  6  0  0  0
 25 29  1  0  0  0  0
 27 30  1  0  0  0  0
 30 31  1  0  0  0  0
 30 32  2  0  0  0  0
 31 33  2  0  0  0  0
 33 34  1  0  0  0  0
 34 35  2  0  0  0  0
 35 36  1  0  0  0  0
 36 37  2  0  0  0  0
 37 31  1  0  0  0  0
 34 38  1  0  0  0  0
 35 39  1  0  0  0  0
 36 40  1  0  0  0  0
M  END
>  <cdx:fragmentId>
5

$$$$
