70144.cdx
  Mrv1902 05222410252D          

 16 18  0  0  0  0            999 V2000
    4.5631   -7.6439    0.0000 C   0  0  0  0  0  0  0  0  0  0  0  0
    4.5631   -8.4689    0.0000 C   0  0  0  0  0  0  0  0  0  0  0  0
    5.2775   -8.8814    0.0000 C   0  0  0  0  0  0  0  0  0  0  0  0
    5.9920   -8.4689    0.0000 C   0  0  0  0  0  0  0  0  0  0  0  0
    5.9920   -7.6439    0.0000 C   0  0  2  0  0  0  0  0  0  0  0  0
    5.2775   -7.2314    0.0000 C   0  0  0  0  0  0  0  0  0  0  0  0
    6.7065   -8.8814    0.0000 C   0  0  2  0  0  0  0  0  0  0  0  0
    7.4209   -8.4689    0.0000 C   0  0  0  0  0  0  0  0  0  0  0  0
    7.4209   -7.6439    0.0000 C   0  0  0  0  0  0  0  0  0  0  0  0
    6.7065   -7.2314    0.0000 C   0  0  1  0  0  0  0  0  0  0  0  0
    3.8486   -8.8814    0.0000 C   0  0  0  0  0  0  0  0  0  0  0  0
    6.7065   -9.7064    0.0000 C   0  0  0  0  0  0  0  0  0  0  0  0
    7.4209  -10.1189    0.0000 C   0  0  0  0  0  0  0  0  0  0  0  0
    5.9920  -10.1189    0.0000 C   0  0  0  0  0  0  0  0  0  0  0  0
    6.7065   -6.4064    0.0000 C   0  0  0  0  0  0  0  0  0  0  0  0
    5.9920   -6.8189    0.0000 O   0  0  0  0  0  0  0  0  0  0  0  0
  1  2  1  0  0  0  0
  2  3  2  0  0  0  0
  3  4  1  0  0  0  0
  4  5  1  0  0  0  0
  5  6  1  0  0  0  0
  6  1  1  0  0  0  0
  4  7  1  0  0  0  0
  7  8  1  0  0  0  0
  8  9  1  0  0  0  0
  9 10  1  0  0  0  0
 10  5  1  0  0  0  0
  2 11  1  0  0  0  0
  7 12  1  6  0  0  0
 12 13  1  0  0  0  0
 12 14  1  0  0  0  0
 10 15  1  6  0  0  0
 10 16  1  1  0  0  0
  5 16  1  1  0  0  0
M  END
>  <cdx:fragmentId>
5

$$$$
