70149.cdx
  Mrv1902 05222410212D          

 15 15  0  0  0  0            999 V2000
    6.6943   -8.2351    0.0000 C   0  0  2  0  0  0  0  0  0  0  0  0
    6.6943   -9.0601    0.0000 C   0  0  2  0  0  0  0  0  0  0  0  0
    7.4088   -9.4726    0.0000 C   0  0  1  0  0  0  0  0  0  0  0  0
    8.1232   -9.0601    0.0000 C   0  0  2  0  0  0  0  0  0  0  0  0
    8.1232   -8.2351    0.0000 C   0  0  0  0  0  0  0  0  0  0  0  0
    7.4088   -7.8226    0.0000 O   0  0  0  0  0  0  0  0  0  0  0  0
    8.8377   -7.8226    0.0000 O   0  0  0  0  0  0  0  0  0  0  0  0
    7.4088  -10.2976    0.0000 O   0  0  0  0  0  0  0  0  0  0  0  0
    5.9798   -7.8226    0.0000 C   0  0  0  0  0  0  0  0  0  0  0  0
    5.9798   -9.4726    0.0000 O   0  0  0  0  0  0  0  0  0  0  0  0
    8.8377   -9.4726    0.0000 O   0  0  0  0  0  0  0  0  0  0  0  0
    5.2654   -8.2351    0.0000 O   0  0  0  0  0  0  0  0  0  0  0  0
    8.8377  -10.2976    0.0000 C   0  0  0  0  0  0  0  0  0  0  0  0
    6.6943  -10.7101    0.0000 C   0  0  0  0  0  0  0  0  0  0  0  0
    4.5509   -7.8226    0.0000 C   0  0  0  0  0  0  0  0  0  0  0  0
  1  2  1  0  0  0  0
  2  3  1  0  0  0  0
  3  4  1  0  0  0  0
  4  5  1  0  0  0  0
  5  6  1  0  0  0  0
  6  1  1  0  0  0  0
  5  7  1  0  0  0  0
  3  8  1  1  0  0  0
  1  9  1  1  0  0  0
  2 10  1  6  0  0  0
  4 11  1  6  0  0  0
  9 12  1  0  0  0  0
 11 13  1  0  0  0  0
  8 14  1  0  0  0  0
 12 15  1  0  0  0  0
M  END
>  <cdx:fragmentId>
5

$$$$
