70147.cdx
  Mrv1902 05222410242D          

 40 43  0  0  0  0            999 V2000
    6.1715   -6.5367    0.0000 C   0  0  0  0  0  0  0  0  0  0  0  0
    5.7794   -7.2626    0.0000 C   0  0  0  0  0  0  0  0  0  0  0  0
   11.1195   -6.3966    0.0000 O   0  0  0  0  0  0  0  0  0  0  0  0
   11.2004   -9.2534    0.0000 O   0  0  0  0  0  0  0  0  0  0  0  0
    9.5510   -9.3001    0.0000 O   0  0  0  0  0  0  0  0  0  0  0  0
    9.9431   -8.5742    0.0000 C   0  0  0  0  0  0  0  0  0  0  0  0
   10.7678   -8.5509    0.0000 C   0  0  0  0  0  0  0  0  0  0  0  0
   11.1599   -7.8250    0.0000 C   0  0  0  0  0  0  0  0  0  0  0  0
   10.7274   -7.1225    0.0000 C   0  0  0  0  0  0  0  0  0  0  0  0
    9.9027   -7.1458    0.0000 C   0  0  0  0  0  0  0  0  0  0  0  0
    9.5106   -7.8717    0.0000 C   0  0  0  0  0  0  0  0  0  0  0  0
    6.2119   -7.9651    0.0000 C   0  0  0  0  0  0  0  0  0  0  0  0
    7.0366   -7.9417    0.0000 C   0  0  0  0  0  0  0  0  0  0  0  0
    7.4287   -7.2159    0.0000 C   0  0  0  0  0  0  0  0  0  0  0  0
    6.9961   -6.5134    0.0000 C   0  0  0  0  0  0  0  0  0  0  0  0
    8.2534   -7.1925    0.0000 C   0  0  0  0  0  0  0  0  0  0  0  0
    8.6859   -7.8950    0.0000 C   0  0  0  0  0  0  0  0  0  0  0  0
    4.9547   -7.2859    0.0000 O   0  0  0  0  0  0  0  0  0  0  0  0
    8.8316   -9.7038    0.0000 C   0  0  2  0  0  0  0  0  0  0  0  0
    8.1222   -9.2827    0.0000 O   0  0  0  0  0  0  0  0  0  0  0  0
    7.4028   -9.6865    0.0000 C   0  0  1  0  0  0  0  0  0  0  0  0
    7.3927  -10.5114    0.0000 C   0  0  2  0  0  0  0  0  0  0  0  0
    8.1021  -10.9326    0.0000 C   0  0  1  0  0  0  0  0  0  0  0  0
    8.8216  -10.5288    0.0000 C   0  0  1  0  0  0  0  0  0  0  0  0
    6.6933   -9.2653    0.0000 C   0  0  0  0  0  0  0  0  0  0  0  0
    8.0921  -11.7575    0.0000 O   0  0  0  0  0  0  0  0  0  0  0  0
    9.5310  -10.9499    0.0000 O   0  0  0  0  0  0  0  0  0  0  0  0
    6.6733  -10.9152    0.0000 O   0  0  0  0  0  0  0  0  0  0  0  0
    5.9739   -9.6691    0.0000 O   0  0  0  0  0  0  0  0  0  0  0  0
    5.1490   -9.6815    0.0000 C   0  0  1  0  0  0  0  0  0  0  0  0
    4.7258   -8.9733    0.0000 O   0  0  0  0  0  0  0  0  0  0  0  0
    3.9009   -8.9856    0.0000 C   0  0  1  0  0  0  0  0  0  0  0  0
    3.4992   -9.7062    0.0000 C   0  0  2  0  0  0  0  0  0  0  0  0
    3.9224  -10.4144    0.0000 C   0  0  1  0  0  0  0  0  0  0  0  0
    4.7473  -10.4020    0.0000 C   0  0  1  0  0  0  0  0  0  0  0  0
    3.4778   -8.2774    0.0000 C   0  0  0  0  0  0  0  0  0  0  0  0
    3.5206  -11.1350    0.0000 O   0  0  0  0  0  0  0  0  0  0  0  0
    5.1704  -11.1102    0.0000 O   0  0  0  0  0  0  0  0  0  0  0  0
    2.6743   -9.7186    0.0000 O   0  0  0  0  0  0  0  0  0  0  0  0
    2.6528   -8.2898    0.0000 O   0  0  0  0  0  0  0  0  0  0  0  0
  9  3  1  0  0  0  0
  7  4  1  0  0  0  0
  6  5  1  0  0  0  0
  6 11  1  0  0  0  0
  7  6  2  0  0  0  0
  8  7  1  0  0  0  0
  9  8  2  0  0  0  0
 10  9  1  0  0  0  0
 11 10  2  0  0  0  0
 17 11  1  0  0  0  0
  1  2  2  0  0  0  0
  2 12  1  0  0  0  0
 12 13  2  0  0  0  0
 13 14  1  0  0  0  0
 14 15  2  0  0  0  0
 15  1  1  0  0  0  0
 14 16  1  0  0  0  0
 16 17  2  0  0  0  0
  2 18  1  0  0  0  0
 19  5  1  1  0  0  0
 19 20  1  0  0  0  0
 20 21  1  0  0  0  0
 21 22  1  0  0  0  0
 22 23  1  0  0  0  0
 23 24  1  0  0  0  0
 24 19  1  0  0  0  0
 21 25  1  1  0  0  0
 23 26  1  1  0  0  0
 24 27  1  6  0  0  0
 22 28  1  6  0  0  0
 25 29  1  0  0  0  0
 30 29  1  6  0  0  0
 30 31  1  0  0  0  0
 31 32  1  0  0  0  0
 32 33  1  0  0  0  0
 33 34  1  0  0  0  0
 34 35  1  0  0  0  0
 35 30  1  0  0  0  0
 32 36  1  1  0  0  0
 34 37  1  1  0  0  0
 35 38  1  6  0  0  0
 33 39  1  6  0  0  0
 36 40  1  0  0  0  0
M  END
>  <cdx:fragmentId>
5

$$$$
