70142.cdx
  Mrv1902 05222410242D          

 26 29  0  0  0  0            999 V2000
    7.5529   -8.0179    0.0000 C   0  0  0  0  0  0  0  0  0  0  0  0
    7.5529   -7.1929    0.0000 C   0  0  0  0  0  0  0  0  0  0  0  0
    6.8384   -6.7804    0.0000 C   0  0  0  0  0  0  0  0  0  0  0  0
    6.1239   -7.1929    0.0000 C   0  0  0  0  0  0  0  0  0  0  0  0
    6.1239   -8.0179    0.0000 C   0  0  0  0  0  0  0  0  0  0  0  0
    5.4095   -8.4304    0.0000 C   0  0  0  0  0  0  0  0  0  0  0  0
    4.6950   -8.0179    0.0000 C   0  0  0  0  0  0  0  0  0  0  0  0
    3.9805   -8.4304    0.0000 C   0  0  0  0  0  0  0  0  0  0  0  0
    3.9805   -9.2554    0.0000 C   0  0  0  0  0  0  0  0  0  0  0  0
    4.6950   -9.6679    0.0000 C   0  0  0  0  0  0  0  0  0  0  0  0
    5.4095   -9.2554    0.0000 C   0  0  0  0  0  0  0  0  0  0  0  0
    6.1239   -9.6679    0.0000 C   0  0  0  0  0  0  0  0  0  0  0  0
    6.8384   -9.2554    0.0000 C   0  0  0  0  0  0  0  0  0  0  0  0
    6.8384   -8.4304    0.0000 C   0  0  0  0  0  0  0  0  0  0  0  0
    8.2674   -6.7804    0.0000 O   0  0  0  0  0  0  0  0  0  0  0  0
    3.2661   -9.6679    0.0000 O   0  0  0  0  0  0  0  0  0  0  0  0
    5.4095   -6.7804    0.0000 O   0  0  0  0  0  0  0  0  0  0  0  0
    4.6950   -7.1929    0.0000 C   0  0  0  0  0  0  0  0  0  0  0  0
    8.2674   -8.4304    0.0000 C   0  0  0  0  0  0  0  0  0  0  0  0
    8.9818   -8.0179    0.0000 C   0  0  0  0  0  0  0  0  0  0  0  0
    8.9818   -7.1929    0.0000 C   0  0  0  0  0  0  0  0  0  0  0  0
    9.6963   -6.7804    0.0000 C   0  0  0  0  0  0  0  0  0  0  0  0
   10.4108   -7.1929    0.0000 C   0  0  0  0  0  0  0  0  0  0  0  0
   10.4108   -8.0179    0.0000 C   0  0  0  0  0  0  0  0  0  0  0  0
    9.6963   -8.4304    0.0000 C   0  0  0  0  0  0  0  0  0  0  0  0
   11.1252   -6.7804    0.0000 O   0  0  0  0  0  0  0  0  0  0  0  0
  1  2  1  0  0  0  0
  2  3  2  0  0  0  0
  3  4  1  0  0  0  0
  4  5  2  0  0  0  0
  5  6  1  0  0  0  0
  6  7  2  0  0  0  0
  7  8  1  0  0  0  0
  8  9  2  0  0  0  0
  9 10  1  0  0  0  0
 10 11  2  0  0  0  0
  6 11  1  0  0  0  0
 11 12  1  0  0  0  0
 12 13  2  0  0  0  0
 13 14  1  0  0  0  0
  1 14  2  0  0  0  0
  5 14  1  0  0  0  0
  2 15  1  0  0  0  0
  9 16  1  0  0  0  0
 17 18  1  0  0  0  0
  4 17  1  0  0  0  0
 19 20  1  0  0  0  0
 20 21  1  0  0  0  0
 21 22  2  0  0  0  0
 22 23  1  0  0  0  0
 23 24  2  0  0  0  0
 24 25  1  0  0  0  0
 20 25  2  0  0  0  0
 23 26  1  0  0  0  0
  1 19  1  0  0  0  0
M  END
>  <cdx:fragmentId>
5

$$$$
