70145.cdx
  Mrv1902 05222410262D          

 18 19  0  0  0  0            999 V2000
    4.4531   -8.3176    0.0000 C   0  0  0  0  0  0  0  0  0  0  0  0
    4.4531   -9.1426    0.0000 C   0  0  0  0  0  0  0  0  0  0  0  0
    5.1675   -9.5551    0.0000 C   0  0  0  0  0  0  0  0  0  0  0  0
    5.8820   -9.1426    0.0000 C   0  0  0  0  0  0  0  0  0  0  0  0
    5.8820   -8.3176    0.0000 C   0  0  2  0  0  0  0  0  0  0  0  0
    5.1675   -7.9051    0.0000 C   0  0  0  0  0  0  0  0  0  0  0  0
    6.5965   -9.5551    0.0000 C   0  0  0  0  0  0  0  0  0  0  0  0
    7.3109   -9.1426    0.0000 C   0  0  1  0  0  0  0  0  0  0  0  0
    7.3109   -8.3176    0.0000 C   0  0  0  0  0  0  0  0  0  0  0  0
    6.5965   -7.9051    0.0000 C   0  0  0  0  0  0  0  0  0  0  0  0
    8.0254   -9.5551    0.0000 C   0  0  0  0  0  0  0  0  0  0  0  0
    8.7399   -9.1426    0.0000 C   0  0  0  0  0  0  0  0  0  0  0  0
    8.7399   -8.3176    0.0000 O   0  0  0  0  0  0  0  0  0  0  0  0
    8.0254  -10.3801    0.0000 C   0  0  0  0  0  0  0  0  0  0  0  0
    9.4544   -9.5551    0.0000 O   0  0  0  0  0  0  0  0  0  0  0  0
    5.8820   -7.4926    0.0000 C   0  0  0  0  0  0  0  0  0  0  0  0
    4.7550  -10.2696    0.0000 O   0  0  0  0  0  0  0  0  0  0  0  0
    5.5800  -10.2696    0.0000 C   0  0  0  0  0  0  0  0  0  0  0  0
  1  2  1  0  0  0  0
  2  3  1  0  0  0  0
  3  4  1  0  0  0  0
  4  5  1  0  0  0  0
  5  6  1  0  0  0  0
  6  1  1  0  0  0  0
  4  7  2  0  0  0  0
  7  8  1  0  0  0  0
  8  9  1  0  0  0  0
  9 10  1  0  0  0  0
 10  5  1  0  0  0  0
  8 11  1  1  0  0  0
 11 12  1  0  0  0  0
 12 13  2  0  0  0  0
 11 14  2  0  0  0  0
 12 15  1  0  0  0  0
  5 16  1  1  0  0  0
  3 17  1  1  0  0  0
  3 18  1  1  0  0  0
M  END
>  <cdx:fragmentId>
5

$$$$
