70158.cdx
  Mrv1902 05222410232D          

 21 22  0  0  0  0            999 V2000
    4.2606   -8.2626    0.0000 C   0  0  0  0  0  0  0  0  0  0  0  0
    4.2606   -9.0876    0.0000 C   0  0  0  0  0  0  0  0  0  0  0  0
    4.9750   -9.5001    0.0000 C   0  0  0  0  0  0  0  0  0  0  0  0
    5.6895   -9.0876    0.0000 C   0  0  0  0  0  0  0  0  0  0  0  0
    5.6895   -8.2626    0.0000 C   0  0  0  0  0  0  0  0  0  0  0  0
    4.9750   -7.8501    0.0000 C   0  0  0  0  0  0  0  0  0  0  0  0
    6.4040   -9.5001    0.0000 C   0  0  0  0  0  0  0  0  0  0  0  0
    7.1184   -9.0876    0.0000 C   0  0  0  0  0  0  0  0  0  0  0  0
    7.1184   -8.2626    0.0000 C   0  0  0  0  0  0  0  0  0  0  0  0
    6.4040   -7.8501    0.0000 C   0  0  0  0  0  0  0  0  0  0  0  0
    3.5461   -7.8501    0.0000 O   0  0  0  0  0  0  0  0  0  0  0  0
    4.9750  -10.3251    0.0000 C   0  0  0  0  0  0  0  0  0  0  0  0
    4.2606  -10.7376    0.0000 H   0  0  0  0  0  0  0  0  0  0  0  0
    6.4040  -10.3251    0.0000 C   0  0  0  0  0  0  0  0  0  0  0  0
    7.8329   -7.8501    0.0000 C   0  0  0  0  0  0  0  0  0  0  0  0
    7.8329   -9.5001    0.0000 H   0  0  0  0  0  0  0  0  0  0  0  0
    2.8316   -8.2626    0.0000 O   0  0  0  0  0  0  0  0  0  0  0  0
    2.1171   -7.8501    0.0000 S   0  0  0  0  0  0  0  0  0  0  0  0
    1.4027   -7.4376    0.0000 O   0  0  0  0  0  0  0  0  0  0  0  0
    2.5296   -7.1357    0.0000 O   0  0  0  0  0  0  0  0  0  0  0  0
    1.7046   -8.5646    0.0000 H   0  0  0  0  0  0  0  0  0  0  0  0
  1  2  2  0  0  0  0
  2  3  1  0  0  0  0
  3  4  2  0  0  0  0
  4  5  1  0  0  0  0
  5  6  2  0  0  0  0
  6  1  1  0  0  0  0
  4  7  1  0  0  0  0
  7  8  1  0  0  0  0
  8  9  2  0  0  0  0
  9 10  1  0  0  0  0
 10  5  1  0  0  0  0
  1 11  1  0  0  0  0
  3 12  1  0  0  0  0
 12 13  1  0  0  0  0
  7 14  2  0  0  0  0
  9 15  1  0  0  0  0
  8 16  1  0  0  0  0
 11 17  1  0  0  0  0
 17 18  1  0  0  0  0
 18 19  2  0  0  0  0
 18 20  2  0  0  0  0
 18 21  1  0  0  0  0
M  END
>  <cdx:fragmentId>
5

$$$$
