70151.cdx
  Mrv1902 05222410262D          

 34 35  0  0  0  0            999 V2000
    7.6388   -8.7700    0.0000 C   0  0  2  0  0  0  0  0  0  0  0  0
    6.9244  -10.0075    0.0000 C   0  0  0  0  0  0  0  0  0  0  0  0
   13.3546   -8.7700    0.0000 O   0  0  0  0  0  0  0  0  0  0  0  0
   13.3546  -10.4200    0.0000 O   0  0  0  0  0  0  0  0  0  0  0  0
   11.2112  -10.0075    0.0000 C   0  0  0  0  0  0  0  0  0  0  0  0
   11.9256  -10.4200    0.0000 C   0  0  0  0  0  0  0  0  0  0  0  0
   12.6401  -10.0075    0.0000 C   0  0  0  0  0  0  0  0  0  0  0  0
   12.6401   -9.1825    0.0000 C   0  0  0  0  0  0  0  0  0  0  0  0
   11.9256   -8.7700    0.0000 C   0  0  0  0  0  0  0  0  0  0  0  0
   11.2112   -9.1825    0.0000 C   0  0  0  0  0  0  0  0  0  0  0  0
   10.4967   -8.7700    0.0000 C   0  0  0  0  0  0  0  0  0  0  0  0
    9.0678   -7.9450    0.0000 O   0  0  0  0  0  0  0  0  0  0  0  0
    9.7822   -9.1825    0.0000 C   0  0  0  0  0  0  0  0  0  0  0  0
    9.0678   -8.7700    0.0000 C   0  0  0  0  0  0  0  0  0  0  0  0
    8.3533   -9.1825    0.0000 O   0  0  0  0  0  0  0  0  0  0  0  0
    7.6388   -7.9450    0.0000 C   0  0  0  0  0  0  0  0  0  0  0  0
    6.9244   -9.1825    0.0000 C   0  0  2  0  0  0  0  0  0  0  0  0
    5.4954  -10.0075    0.0000 O   0  0  0  0  0  0  0  0  0  0  0  0
    6.2099   -8.7700    0.0000 O   0  0  0  0  0  0  0  0  0  0  0  0
    5.4954   -9.1825    0.0000 C   0  0  0  0  0  0  0  0  0  0  0  0
    4.7809   -8.7700    0.0000 C   0  0  0  0  0  0  0  0  0  0  0  0
    4.0665   -9.1825    0.0000 C   0  0  0  0  0  0  0  0  0  0  0  0
    1.2086   -7.5325    0.0000 O   0  0  0  0  0  0  0  0  0  0  0  0
    1.2086   -9.1825    0.0000 O   0  0  0  0  0  0  0  0  0  0  0  0
    2.6375   -9.1825    0.0000 C   0  0  0  0  0  0  0  0  0  0  0  0
    3.3520   -8.7700    0.0000 C   0  0  0  0  0  0  0  0  0  0  0  0
    3.3520   -7.9450    0.0000 C   0  0  0  0  0  0  0  0  0  0  0  0
    2.6375   -7.5325    0.0000 C   0  0  0  0  0  0  0  0  0  0  0  0
    1.9231   -7.9450    0.0000 C   0  0  0  0  0  0  0  0  0  0  0  0
    1.9231   -8.7700    0.0000 C   0  0  0  0  0  0  0  0  0  0  0  0
    8.3533   -7.5325    0.0000 O   0  0  0  0  0  0  0  0  0  0  0  0
    6.9244   -7.5325    0.0000 O   0  0  0  0  0  0  0  0  0  0  0  0
    7.6388  -10.4200    0.0000 O   0  0  0  0  0  0  0  0  0  0  0  0
    6.2099  -10.4200    0.0000 O   0  0  0  0  0  0  0  0  0  0  0  0
  8  3  1  0  0  0  0
 17  2  1  0  0  0  0
  1 15  1  1  0  0  0
  7  4  1  0  0  0  0
  5 10  1  0  0  0  0
  6  5  2  0  0  0  0
  7  6  1  0  0  0  0
  8  7  2  0  0  0  0
  9  8  1  0  0  0  0
 10  9  2  0  0  0  0
 11 10  1  0  0  0  0
 13 11  2  0  0  0  0
 14 12  2  0  0  0  0
 14 13  1  0  0  0  0
 15 14  1  0  0  0  0
 17  1  1  0  0  0  0
  1 16  1  0  0  0  0
 17 19  1  6  0  0  0
 20 18  2  0  0  0  0
 20 19  1  0  0  0  0
 21 20  1  0  0  0  0
 22 21  2  0  0  0  0
 26 22  1  0  0  0  0
 29 23  1  0  0  0  0
 30 24  1  0  0  0  0
 25 30  1  0  0  0  0
 26 25  2  0  0  0  0
 27 26  1  0  0  0  0
 28 27  2  0  0  0  0
 29 28  1  0  0  0  0
 30 29  2  0  0  0  0
 16 31  1  0  0  0  0
 16 32  2  0  0  0  0
  2 33  2  0  0  0  0
  2 34  1  0  0  0  0
M  END
>  <cdx:fragmentId>
5

$$$$
