70152.cdx
  Mrv1902 05222410252D          

 14 15  0  0  0  0            999 V2000
    4.3293   -7.4926    0.0000 C   0  0  0  0  0  0  0  0  0  0  0  0
    4.3293   -8.3176    0.0000 C   0  0  0  0  0  0  0  0  0  0  0  0
    5.0438   -8.7301    0.0000 C   0  0  0  0  0  0  0  0  0  0  0  0
    5.7582   -8.3176    0.0000 C   0  0  0  0  0  0  0  0  0  0  0  0
    5.7582   -7.4926    0.0000 C   0  0  0  0  0  0  0  0  0  0  0  0
    5.0438   -7.0801    0.0000 C   0  0  0  0  0  0  0  0  0  0  0  0
    6.4727   -8.7301    0.0000 C   0  0  0  0  0  0  0  0  0  0  0  0
    7.1872   -8.3176    0.0000 C   0  0  0  0  0  0  0  0  0  0  0  0
    7.1872   -7.4926    0.0000 C   0  0  0  0  0  0  0  0  0  0  0  0
    6.4727   -7.0801    0.0000 C   0  0  0  0  0  0  0  0  0  0  0  0
    6.4727   -6.2551    0.0000 O   0  0  0  0  0  0  0  0  0  0  0  0
    6.4727   -9.5551    0.0000 O   0  0  0  0  0  0  0  0  0  0  0  0
    7.9017   -7.0801    0.0000 O   0  0  0  0  0  0  0  0  0  0  0  0
    7.9017   -8.7301    0.0000 O   0  0  0  0  0  0  0  0  0  0  0  0
  1  2  2  0  0  0  0
  2  3  1  0  0  0  0
  3  4  2  0  0  0  0
  4  5  1  0  0  0  0
  5  6  2  0  0  0  0
  6  1  1  0  0  0  0
  4  7  1  0  0  0  0
  7  8  1  0  0  0  0
  8  9  2  0  0  0  0
  9 10  1  0  0  0  0
 10  5  1  0  0  0  0
 10 11  2  0  0  0  0
  7 12  2  0  0  0  0
  9 13  1  0  0  0  0
  8 14  1  0  0  0  0
M  END
>  <cdx:fragmentId>
5

$$$$
