70153.cdx
  Mrv1902 05222410242D          

 14 14  0  0  0  0            999 V2000
    6.5018   -7.3276    0.0000 C   0  0  2  0  0  0  0  0  0  0  0  0
    6.5018   -8.1526    0.0000 C   0  0  2  0  0  0  0  0  0  0  0  0
    7.2163   -8.5651    0.0000 C   0  0  1  0  0  0  0  0  0  0  0  0
    7.9307   -8.1526    0.0000 C   0  0  2  0  0  0  0  0  0  0  0  0
    7.9307   -7.3276    0.0000 C   0  0  0  0  0  0  0  0  0  0  0  0
    7.2163   -6.9151    0.0000 O   0  0  0  0  0  0  0  0  0  0  0  0
    5.7873   -6.9151    0.0000 C   0  0  0  0  0  0  0  0  0  0  0  0
    8.6452   -6.9151    0.0000 O   0  0  0  0  0  0  0  0  0  0  0  0
    7.2163   -9.3901    0.0000 O   0  0  0  0  0  0  0  0  0  0  0  0
    8.6452   -8.5651    0.0000 O   0  0  0  0  0  0  0  0  0  0  0  0
    5.7873   -8.5651    0.0000 O   0  0  0  0  0  0  0  0  0  0  0  0
    5.0729   -7.3276    0.0000 O   0  0  0  0  0  0  0  0  0  0  0  0
    8.6452   -9.3901    0.0000 C   0  0  0  0  0  0  0  0  0  0  0  0
    6.5018   -9.8026    0.0000 C   0  0  0  0  0  0  0  0  0  0  0  0
  1  2  1  0  0  0  0
  2  3  1  0  0  0  0
  3  4  1  0  0  0  0
  4  5  1  0  0  0  0
  5  6  1  0  0  0  0
  6  1  1  0  0  0  0
  1  7  1  1  0  0  0
  5  8  1  0  0  0  0
  3  9  1  1  0  0  0
  4 10  1  6  0  0  0
  2 11  1  6  0  0  0
  7 12  1  0  0  0  0
 10 13  1  0  0  0  0
  9 14  1  0  0  0  0
M  END
>  <cdx:fragmentId>
5

$$$$
