70166.cdx
  Mrv1902 05222410222D          

 51 55  0  0  0  0            999 V2000
   16.4686   -8.0873    0.0000 C   0  0  0  0  0  0  0  0  0  0  0  0
   15.7541   -8.4998    0.0000 C   0  0  0  0  0  0  0  0  0  0  0  0
   15.7541   -9.3248    0.0000 C   0  0  1  0  0  0  0  0  0  0  0  0
   16.4686   -9.7373    0.0000 C   0  0  0  0  0  0  0  0  0  0  0  0
   17.1831   -9.3248    0.0000 C   0  0  2  0  0  0  0  0  0  0  0  0
   17.8976   -9.7373    0.0000 C   0  0  0  0  0  0  0  0  0  0  0  0
   18.6120   -9.3248    0.0000 C   0  0  0  0  0  0  0  0  0  0  0  0
   18.6120   -8.4998    0.0000 C   0  0  1  0  0  0  0  0  0  0  0  0
   19.3265   -8.0873    0.0000 C   0  0  2  0  0  0  0  0  0  0  0  0
   20.0410   -8.4998    0.0000 C   0  0  0  0  0  0  0  0  0  0  0  0
   20.7554   -8.0873    0.0000 C   0  0  0  0  0  0  0  0  0  0  0  0
   20.7554   -7.2623    0.0000 C   0  0  1  0  0  0  0  0  0  0  0  0
   21.4699   -6.8498    0.0000 C   0  0  0  0  0  0  0  0  0  0  0  0
   21.4699   -6.0248    0.0000 C   0  0  0  0  0  0  0  0  0  0  0  0
   20.7554   -5.6123    0.0000 C   0  0  0  0  0  0  0  0  0  0  0  0
   20.0410   -6.0248    0.0000 C   0  0  0  0  0  0  0  0  0  0  0  0
   20.0410   -6.8498    0.0000 C   0  0  1  0  0  0  0  0  0  0  0  0
   19.3265   -7.2623    0.0000 C   0  0  0  0  0  0  0  0  0  0  0  0
   18.6120   -6.8498    0.0000 C   0  0  0  0  0  0  0  0  0  0  0  0
   17.8976   -7.2623    0.0000 C   0  0  0  0  0  0  0  0  0  0  0  0
   17.8976   -8.0873    0.0000 C   0  0  2  0  0  0  0  0  0  0  0  0
   17.1831   -8.4998    0.0000 C   0  0  1  0  0  0  0  0  0  0  0  0
   15.0397   -9.7373    0.0000 O   0  0  0  0  0  0  0  0  0  0  0  0
   17.1831   -7.6748    0.0000 C   0  0  0  0  0  0  0  0  0  0  0  0
   21.1679   -4.8979    0.0000 C   0  0  0  0  0  0  0  0  0  0  0  0
   21.4699   -7.6748    0.0000 C   0  0  0  0  0  0  0  0  0  0  0  0
   19.3265   -8.9123    0.0000 C   0  0  0  0  0  0  0  0  0  0  0  0
   18.6120   -7.6748    0.0000 C   0  0  0  0  0  0  0  0  0  0  0  0
   16.8811  -10.4518    0.0000 C   0  0  0  0  0  0  0  0  0  0  0  0
   16.0561  -10.4518    0.0000 C   0  0  0  0  0  0  0  0  0  0  0  0
   17.1831  -10.1498    0.0000 H   0  0  0  0  0  0  0  0  0  0  0  0
   20.0410   -7.6748    0.0000 H   0  0  0  0  0  0  0  0  0  0  0  0
   17.8976   -8.9123    0.0000 H   0  0  0  0  0  0  0  0  0  0  0  0
   20.3429   -4.8979    0.0000 C   0  0  0  0  0  0  0  0  0  0  0  0
   14.3252   -9.3248    0.0000 C   0  0  0  0  0  0  0  0  0  0  0  0
   13.6107   -9.7373    0.0000 C   0  0  0  0  0  0  0  0  0  0  0  0
   14.3252   -8.4998    0.0000 O   0  0  0  0  0  0  0  0  0  0  0  0
   12.8963   -9.3248    0.0000 C   0  0  0  0  0  0  0  0  0  0  0  0
   12.1818   -9.7373    0.0000 C   0  0  0  0  0  0  0  0  0  0  0  0
   11.4673   -9.3248    0.0000 C   0  0  0  0  0  0  0  0  0  0  0  0
   10.7529   -9.7373    0.0000 C   0  0  0  0  0  0  0  0  0  0  0  0
   10.0384   -9.3248    0.0000 C   0  0  0  0  0  0  0  0  0  0  0  0
    9.3239   -9.7373    0.0000 C   0  0  0  0  0  0  0  0  0  0  0  0
    8.6094   -9.3248    0.0000 C   0  0  0  0  0  0  0  0  0  0  0  0
    7.8950   -9.7373    0.0000 C   0  0  0  0  0  0  0  0  0  0  0  0
    7.1805   -9.3248    0.0000 C   0  0  0  0  0  0  0  0  0  0  0  0
    6.4660   -9.7373    0.0000 C   0  0  0  0  0  0  0  0  0  0  0  0
    5.7516   -9.3248    0.0000 C   0  0  0  0  0  0  0  0  0  0  0  0
    5.0371   -9.7373    0.0000 C   0  0  0  0  0  0  0  0  0  0  0  0
    4.3226   -9.3248    0.0000 C   0  0  0  0  0  0  0  0  0  0  0  0
    3.6081   -9.7373    0.0000 C   0  0  0  0  0  0  0  0  0  0  0  0
  1  2  1  0  0  0  0
  2  3  1  0  0  0  0
  3  4  1  0  0  0  0
  4  5  1  0  0  0  0
  5  6  1  0  0  0  0
  6  7  1  0  0  0  0
  7  8  1  0  0  0  0
  8  9  1  0  0  0  0
  9 10  1  0  0  0  0
 10 11  1  0  0  0  0
 11 12  1  0  0  0  0
 12 13  1  0  0  0  0
 13 14  1  0  0  0  0
 14 15  1  0  0  0  0
 15 16  1  0  0  0  0
 16 17  1  0  0  0  0
 12 17  1  0  0  0  0
 17 18  1  0  0  0  0
  9 18  1  0  0  0  0
 18 19  2  0  0  0  0
 19 20  1  0  0  0  0
 20 21  1  0  0  0  0
  8 21  1  0  0  0  0
 21 22  1  0  0  0  0
  5 22  1  0  0  0  0
  1 22  1  0  0  0  0
  3 23  1  1  0  0  0
 22 24  1  1  0  0  0
 15 25  1  0  0  0  0
 12 26  1  1  0  0  0
  9 27  1  6  0  0  0
  8 28  1  1  0  0  0
  4 29  1  0  0  0  0
  4 30  1  0  0  0  0
  5 31  1  6  0  0  0
 17 32  1  1  0  0  0
 21 33  1  6  0  0  0
 15 34  1  0  0  0  0
 23 35  1  0  0  0  0
 35 36  1  0  0  0  0
 35 37  2  0  0  0  0
 36 38  1  0  0  0  0
 38 39  1  0  0  0  0
 39 40  1  0  0  0  0
 40 41  1  0  0  0  0
 41 42  1  0  0  0  0
 42 43  1  0  0  0  0
 43 44  1  0  0  0  0
 44 45  1  0  0  0  0
 45 46  1  0  0  0  0
 46 47  1  0  0  0  0
 47 48  1  0  0  0  0
 48 49  1  0  0  0  0
 49 50  1  0  0  0  0
 50 51  1  0  0  0  0
M  END
>  <cdx:fragmentId>
250

$$$$
