70167.cdx
  Mrv1902 05222410222D          

 10 10  0  0  0  0            999 V2000
    5.8281   -8.7851    0.0000 C   0  0  0  0  0  0  0  0  0  0  0  0
    5.8281   -9.6101    0.0000 C   0  0  0  0  0  0  0  0  0  0  0  0
    6.5425  -10.0226    0.0000 C   0  0  0  0  0  0  0  0  0  0  0  0
    7.2570   -9.6101    0.0000 C   0  0  0  0  0  0  0  0  0  0  0  0
    7.2570   -8.7851    0.0000 C   0  0  0  0  0  0  0  0  0  0  0  0
    6.5425   -8.3726    0.0000 C   0  0  0  0  0  0  0  0  0  0  0  0
    6.5425   -7.5476    0.0000 C   0  0  0  0  0  0  0  0  0  0  0  0
    7.2570   -7.1351    0.0000 O   0  0  0  0  0  0  0  0  0  0  0  0
    5.8281   -7.1351    0.0000 O   0  0  0  0  0  0  0  0  0  0  0  0
    6.5425  -10.8476    0.0000 O   0  0  0  0  0  0  0  0  0  0  0  0
  1  2  2  0  0  0  0
  2  3  1  0  0  0  0
  3  4  2  0  0  0  0
  4  5  1  0  0  0  0
  5  6  2  0  0  0  0
  6  1  1  0  0  0  0
  6  7  1  0  0  0  0
  7  8  1  0  0  0  0
  7  9  2  0  0  0  0
  3 10  1  1  0  0  0
M  END
>  <cdx:fragmentId>
5

$$$$
