70160.cdx
  Mrv1902 05222410202D          

 23 25  0  0  0  0            999 V2000
    4.3843   -9.5551    0.0000 O   0  0  0  0  0  0  0  0  0  0  0  0
    7.2422  -10.3801    0.0000 O   0  0  0  0  0  0  0  0  0  0  0  0
   10.1001   -9.5551    0.0000 C   0  0  0  0  0  0  0  0  0  0  0  0
    5.8132   -7.0801    0.0000 O   0  0  0  0  0  0  0  0  0  0  0  0
    8.6711   -7.0801    0.0000 O   0  0  0  0  0  0  0  0  0  0  0  0
    7.2422   -7.0801    0.0000 O   0  0  0  0  0  0  0  0  0  0  0  0
    5.8132   -7.9051    0.0000 C   0  0  0  0  0  0  0  0  0  0  0  0
    5.0988   -8.3176    0.0000 C   0  0  0  0  0  0  0  0  0  0  0  0
    5.0988   -9.1426    0.0000 C   0  0  0  0  0  0  0  0  0  0  0  0
    5.8132   -9.5551    0.0000 C   0  0  0  0  0  0  0  0  0  0  0  0
    7.2422   -7.9051    0.0000 C   0  0  0  0  0  0  0  0  0  0  0  0
    6.5277   -8.3176    0.0000 C   0  0  0  0  0  0  0  0  0  0  0  0
    6.5277   -9.1426    0.0000 C   0  0  0  0  0  0  0  0  0  0  0  0
    7.2422   -9.5551    0.0000 C   0  0  0  0  0  0  0  0  0  0  0  0
    8.6711   -7.9051    0.0000 C   0  0  0  0  0  0  0  0  0  0  0  0
    7.9567   -8.3176    0.0000 C   0  0  0  0  0  0  0  0  0  0  0  0
    7.9567   -9.1426    0.0000 C   0  0  0  0  0  0  0  0  0  0  0  0
    8.6711   -9.5551    0.0000 C   0  0  0  0  0  0  0  0  0  0  0  0
    9.3856   -9.1426    0.0000 C   0  0  0  0  0  0  0  0  0  0  0  0
    9.3856   -8.3176    0.0000 C   0  0  0  0  0  0  0  0  0  0  0  0
   10.1001   -7.9051    0.0000 C   0  0  0  0  0  0  0  0  0  0  0  0
   10.8145   -8.3176    0.0000 C   0  0  0  0  0  0  0  0  0  0  0  0
   10.1001   -7.0801    0.0000 O   0  0  0  0  0  0  0  0  0  0  0  0
  9  1  1  0  0  0  0
 14  2  2  0  0  0  0
 19  3  1  0  0  0  0
  7  4  1  0  0  0  0
  5 15  1  0  0  0  0
 11  6  2  0  0  0  0
  7 12  1  0  0  0  0
  8  7  2  0  0  0  0
  9  8  1  0  0  0  0
 10  9  2  0  0  0  0
 13 10  1  0  0  0  0
 11 16  1  0  0  0  0
 12 11  1  0  0  0  0
 13 12  2  0  0  0  0
 14 13  1  0  0  0  0
 17 14  1  0  0  0  0
 15 20  2  0  0  0  0
 16 15  1  0  0  0  0
 17 16  2  0  0  0  0
 18 17  1  0  0  0  0
 19 18  2  0  0  0  0
 20 19  1  0  0  0  0
 20 21  1  0  0  0  0
 21 22  1  0  0  0  0
 21 23  2  0  0  0  0
M  END
>  <cdx:fragmentId>
5

$$$$
