70170.cdx
  Mrv1902 05222410232D          

 49 53  0  0  0  0            999 V2000
    3.9581   -8.1939    0.0000 C   0  0  0  0  0  0  0  0  0  0  0  0
    3.9581   -9.0189    0.0000 C   0  0  0  0  0  0  0  0  0  0  0  0
    4.6725   -9.4314    0.0000 C   0  0  0  0  0  0  0  0  0  0  0  0
    5.3870   -9.0189    0.0000 C   0  0  0  0  0  0  0  0  0  0  0  0
    5.3870   -8.1939    0.0000 C   0  0  0  0  0  0  0  0  0  0  0  0
    4.6725   -7.7814    0.0000 C   0  0  0  0  0  0  0  0  0  0  0  0
    6.1015   -9.4314    0.0000 C   0  0  0  0  0  0  0  0  0  0  0  0
    6.8159   -9.0189    0.0000 C   0  0  0  0  0  0  0  0  0  0  0  0
    6.8159   -8.1939    0.0000 C   0  0  0  0  0  0  0  0  0  0  0  0
    6.1015   -7.7814    0.0000 O   0  3  0  0  0  0  0  0  0  0  0  0
    7.5304   -9.4314    0.0000 O   0  0  0  0  0  0  0  0  0  0  0  0
    8.2449   -8.1939    0.0000 C   0  0  0  0  0  0  0  0  0  0  0  0
    7.5304   -7.7814    0.0000 C   0  0  0  0  0  0  0  0  0  0  0  0
    8.9594   -7.7814    0.0000 C   0  0  0  0  0  0  0  0  0  0  0  0
    8.9594   -6.9564    0.0000 C   0  0  0  0  0  0  0  0  0  0  0  0
    8.2449   -6.5439    0.0000 C   0  0  0  0  0  0  0  0  0  0  0  0
    7.5304   -6.9564    0.0000 C   0  0  0  0  0  0  0  0  0  0  0  0
    3.2436   -7.7814    0.0000 O   0  0  0  0  0  0  0  0  0  0  0  0
    4.6725  -10.2564    0.0000 O   0  0  0  0  0  0  0  0  0  0  0  0
    9.6738   -6.5439    0.0000 O   0  0  0  0  0  0  0  0  0  0  0  0
    8.2449   -5.7189    0.0000 O   0  0  0  0  0  0  0  0  0  0  0  0
    7.5304  -10.2564    0.0000 C   0  0  2  0  0  0  0  0  0  0  0  0
    6.8159  -10.6689    0.0000 O   0  0  0  0  0  0  0  0  0  0  0  0
    6.8159  -11.4939    0.0000 C   0  0  1  0  0  0  0  0  0  0  0  0
    7.5304  -11.9064    0.0000 C   0  0  2  0  0  0  0  0  0  0  0  0
    8.2449  -11.4939    0.0000 C   0  0  1  0  0  0  0  0  0  0  0  0
    8.2449  -10.6689    0.0000 C   0  0  1  0  0  0  0  0  0  0  0  0
    6.1015  -11.9064    0.0000 C   0  0  0  0  0  0  0  0  0  0  0  0
    8.9594  -11.9064    0.0000 O   0  0  0  0  0  0  0  0  0  0  0  0
    7.5304  -12.7314    0.0000 O   0  0  0  0  0  0  0  0  0  0  0  0
    8.9594  -10.2564    0.0000 O   0  0  0  0  0  0  0  0  0  0  0  0
    6.1015  -12.7314    0.0000 O   0  0  0  0  0  0  0  0  0  0  0  0
    5.3870  -13.1439    0.0000 C   0  0  0  0  0  0  0  0  0  0  0  0
    5.3870  -13.9689    0.0000 C   0  0  0  0  0  0  0  0  0  0  0  0
    4.6725  -14.3814    0.0000 C   0  0  0  0  0  0  0  0  0  0  0  0
    4.6725  -15.2064    0.0000 O   0  0  0  0  0  0  0  0  0  0  0  0
    3.9581  -13.9689    0.0000 O   0  0  0  0  0  0  0  0  0  0  0  0
    4.6725  -12.7314    0.0000 O   0  0  0  0  0  0  0  0  0  0  0  0
    9.6738  -12.3189    0.0000 C   0  0  2  0  0  0  0  0  0  0  0  0
    9.6738  -13.1439    0.0000 O   0  0  0  0  0  0  0  0  0  0  0  0
   10.3883  -13.5564    0.0000 C   0  0  1  0  0  0  0  0  0  0  0  0
   11.1028  -13.1439    0.0000 C   0  0  2  0  0  0  0  0  0  0  0  0
   11.1028  -12.3189    0.0000 C   0  0  1  0  0  0  0  0  0  0  0  0
   10.3883  -11.9064    0.0000 C   0  0  1  0  0  0  0  0  0  0  0  0
   10.3883  -14.3814    0.0000 C   0  0  0  0  0  0  0  0  0  0  0  0
   11.8172  -11.9064    0.0000 O   0  0  0  0  0  0  0  0  0  0  0  0
   10.3883  -11.0814    0.0000 O   0  0  0  0  0  0  0  0  0  0  0  0
   11.8172  -13.5564    0.0000 O   0  0  0  0  0  0  0  0  0  0  0  0
   11.1028  -14.7939    0.0000 O   0  0  0  0  0  0  0  0  0  0  0  0
  1  2  2  0  0  0  0
  2  3  1  0  0  0  0
  3  4  2  0  0  0  0
  4  5  1  0  0  0  0
  5  6  2  0  0  0  0
  6  1  1  0  0  0  0
  4  7  1  0  0  0  0
  7  8  2  0  0  0  0
  8  9  1  0  0  0  0
  9 10  2  0  0  0  0
 10  5  1  0  0  0  0
  8 11  1  0  0  0  0
 12 13  2  0  0  0  0
 13  9  1  0  0  0  0
 12 14  1  0  0  0  0
 14 15  2  0  0  0  0
 15 16  1  0  0  0  0
 16 17  2  0  0  0  0
 17 13  1  0  0  0  0
  1 18  1  0  0  0  0
  3 19  1  0  0  0  0
 15 20  1  0  0  0  0
 16 21  1  0  0  0  0
 22 11  1  1  0  0  0
 22 23  1  0  0  0  0
 23 24  1  0  0  0  0
 24 25  1  0  0  0  0
 25 26  1  0  0  0  0
 26 27  1  0  0  0  0
 27 22  1  0  0  0  0
 24 28  1  1  0  0  0
 26 29  1  1  0  0  0
 25 30  1  6  0  0  0
 27 31  1  6  0  0  0
 28 32  1  0  0  0  0
 32 33  1  0  0  0  0
 33 34  1  0  0  0  0
 34 35  1  0  0  0  0
 35 36  1  0  0  0  0
 35 37  2  0  0  0  0
 33 38  2  0  0  0  0
 39 29  1  1  0  0  0
 39 40  1  0  0  0  0
 40 41  1  0  0  0  0
 41 42  1  0  0  0  0
 42 43  1  0  0  0  0
 43 44  1  0  0  0  0
 44 39  1  0  0  0  0
 41 45  1  1  0  0  0
 43 46  1  1  0  0  0
 44 47  1  6  0  0  0
 42 48  1  6  0  0  0
 45 49  1  0  0  0  0
M  CHG  1  10   1
M  END
>  <cdx:fragmentId>
5

$$$$
