70175.cdx
  Mrv1902 05222410212D          

 61 66  0  0  0  0            999 V2000
    7.6431   -6.8051    0.0000 C   0  0  0  0  0  0  0  0  0  0  0  0
    7.6431   -7.6301    0.0000 C   0  0  0  0  0  0  0  0  0  0  0  0
    8.3575   -8.0426    0.0000 C   0  0  0  0  0  0  0  0  0  0  0  0
    9.0720   -7.6301    0.0000 C   0  0  0  0  0  0  0  0  0  0  0  0
    9.0720   -6.8051    0.0000 C   0  0  0  0  0  0  0  0  0  0  0  0
    8.3575   -6.3926    0.0000 C   0  0  0  0  0  0  0  0  0  0  0  0
    9.7865   -8.0426    0.0000 C   0  0  0  0  0  0  0  0  0  0  0  0
   10.5009   -7.6301    0.0000 C   0  0  0  0  0  0  0  0  0  0  0  0
   10.5009   -6.8051    0.0000 C   0  0  0  0  0  0  0  0  0  0  0  0
    9.7865   -6.3926    0.0000 O   0  3  0  0  0  0  0  0  0  0  0  0
   11.2154   -8.0426    0.0000 O   0  0  0  0  0  0  0  0  0  0  0  0
   11.9299   -6.8051    0.0000 C   0  0  0  0  0  0  0  0  0  0  0  0
   11.2154   -6.3926    0.0000 C   0  0  0  0  0  0  0  0  0  0  0  0
   12.6444   -6.3926    0.0000 C   0  0  0  0  0  0  0  0  0  0  0  0
   12.6444   -5.5676    0.0000 C   0  0  0  0  0  0  0  0  0  0  0  0
   11.9299   -5.1551    0.0000 C   0  0  0  0  0  0  0  0  0  0  0  0
   11.2154   -5.5676    0.0000 C   0  0  0  0  0  0  0  0  0  0  0  0
    6.9286   -6.3926    0.0000 O   0  0  0  0  0  0  0  0  0  0  0  0
    8.3575   -8.8676    0.0000 O   0  0  0  0  0  0  0  0  0  0  0  0
   11.9299   -4.3301    0.0000 O   0  0  0  0  0  0  0  0  0  0  0  0
   13.3588   -5.1551    0.0000 O   0  0  0  0  0  0  0  0  0  0  0  0
   11.2150   -8.8676    0.0000 C   0  0  2  0  0  0  0  0  0  0  0  0
   10.5003   -9.2798    0.0000 O   0  0  0  0  0  0  0  0  0  0  0  0
   10.4998  -10.1048    0.0000 C   0  0  1  0  0  0  0  0  0  0  0  0
   11.2140  -10.5176    0.0000 C   0  0  2  0  0  0  0  0  0  0  0  0
   11.9287  -10.1055    0.0000 C   0  0  1  0  0  0  0  0  0  0  0  0
   11.9292   -9.2805    0.0000 C   0  0  1  0  0  0  0  0  0  0  0  0
    9.7851  -10.5169    0.0000 C   0  0  0  0  0  0  0  0  0  0  0  0
   12.6430  -10.5184    0.0000 O   0  0  0  0  0  0  0  0  0  0  0  0
   12.6439   -8.8684    0.0000 O   0  0  0  0  0  0  0  0  0  0  0  0
   11.2136  -11.3426    0.0000 O   0  0  0  0  0  0  0  0  0  0  0  0
    9.7846  -11.3419    0.0000 O   0  0  0  0  0  0  0  0  0  0  0  0
    7.6288   -9.2631    0.0000 C   0  0  2  0  0  0  0  0  0  0  0  0
    6.9199   -8.8410    0.0000 O   0  0  0  0  0  0  0  0  0  0  0  0
    6.1999   -9.2438    0.0000 C   0  0  1  0  0  0  0  0  0  0  0  0
    6.1888  -10.0687    0.0000 C   0  0  2  0  0  0  0  0  0  0  0  0
    6.8976  -10.4909    0.0000 C   0  0  1  0  0  0  0  0  0  0  0  0
    7.6176  -10.0881    0.0000 C   0  0  1  0  0  0  0  0  0  0  0  0
    5.4911   -8.8217    0.0000 C   0  0  0  0  0  0  0  0  0  0  0  0
    6.8865  -11.3158    0.0000 O   0  0  0  0  0  0  0  0  0  0  0  0
    8.3264  -10.5102    0.0000 O   0  0  0  0  0  0  0  0  0  0  0  0
    5.4688  -10.4715    0.0000 O   0  0  0  0  0  0  0  0  0  0  0  0
    4.7711   -9.2245    0.0000 O   0  0  0  0  0  0  0  0  0  0  0  0
    6.9023  -15.4498    0.0000 O   0  0  0  0  0  0  0  0  0  0  0  0
    8.3263  -16.2833    0.0000 O   0  0  0  0  0  0  0  0  0  0  0  0
    7.6241  -14.2166    0.0000 C   0  0  0  0  0  0  0  0  0  0  0  0
    7.6192  -15.0415    0.0000 C   0  0  0  0  0  0  0  0  0  0  0  0
    8.3312  -15.4583    0.0000 C   0  0  0  0  0  0  0  0  0  0  0  0
    9.0481  -15.0500    0.0000 C   0  0  0  0  0  0  0  0  0  0  0  0
    9.0530  -14.2251    0.0000 C   0  0  0  0  0  0  0  0  0  0  0  0
    8.3410  -13.8083    0.0000 C   0  0  0  0  0  0  0  0  0  0  0  0
    8.3459  -12.9833    0.0000 C   0  0  0  0  0  0  0  0  0  0  0  0
    8.3557  -11.3334    0.0000 O   0  0  0  0  0  0  0  0  0  0  0  0
    9.0628  -12.5751    0.0000 C   0  0  0  0  0  0  0  0  0  0  0  0
    9.0677  -11.7501    0.0000 C   0  0  0  0  0  0  0  0  0  0  0  0
    4.0623   -8.8024    0.0000 C   0  0  0  0  0  0  0  0  0  0  0  0
    3.3423   -9.2052    0.0000 C   0  0  0  0  0  0  0  0  0  0  0  0
    4.0735   -7.9774    0.0000 O   0  0  0  0  0  0  0  0  0  0  0  0
    2.6335   -8.7830    0.0000 C   0  0  0  0  0  0  0  0  0  0  0  0
    1.9135   -9.1858    0.0000 O   0  0  0  0  0  0  0  0  0  0  0  0
    2.6447   -7.9581    0.0000 O   0  0  0  0  0  0  0  0  0  0  0  0
  1  2  2  0  0  0  0
  2  3  1  0  0  0  0
  3  4  2  0  0  0  0
  4  5  1  0  0  0  0
  5  6  2  0  0  0  0
  6  1  1  0  0  0  0
  4  7  1  0  0  0  0
  7  8  2  0  0  0  0
  8  9  1  0  0  0  0
  9 10  2  0  0  0  0
 10  5  1  0  0  0  0
  8 11  1  0  0  0  0
 12 13  2  0  0  0  0
 13  9  1  0  0  0  0
 12 14  1  0  0  0  0
 14 15  2  0  0  0  0
 15 16  1  0  0  0  0
 16 17  2  0  0  0  0
 17 13  1  0  0  0  0
  1 18  1  0  0  0  0
  3 19  1  0  0  0  0
 16 20  1  0  0  0  0
 15 21  1  0  0  0  0
 22 11  1  1  0  0  0
 22 23  1  0  0  0  0
 23 24  1  0  0  0  0
 24 25  1  0  0  0  0
 25 26  1  0  0  0  0
 26 27  1  0  0  0  0
 27 22  1  0  0  0  0
 24 28  1  1  0  0  0
 26 29  1  1  0  0  0
 27 30  1  6  0  0  0
 25 31  1  6  0  0  0
 28 32  1  0  0  0  0
 33 34  1  0  0  0  0
 34 35  1  0  0  0  0
 35 36  1  0  0  0  0
 36 37  1  0  0  0  0
 37 38  1  0  0  0  0
 38 33  1  0  0  0  0
 35 39  1  1  0  0  0
 37 40  1  1  0  0  0
 38 41  1  6  0  0  0
 36 42  1  6  0  0  0
 39 43  1  0  0  0  0
 33 19  1  1  0  0  0
 47 44  1  0  0  0  0
 32 55  1  0  0  0  0
 48 45  1  0  0  0  0
 46 51  1  0  0  0  0
 47 46  2  0  0  0  0
 48 47  1  0  0  0  0
 49 48  2  0  0  0  0
 50 49  1  0  0  0  0
 51 50  2  0  0  0  0
 52 51  1  0  0  0  0
 54 52  2  0  0  0  0
 55 53  2  0  0  0  0
 55 54  1  0  0  0  0
 43 56  1  0  0  0  0
 56 57  1  0  0  0  0
 56 58  2  0  0  0  0
 57 59  1  0  0  0  0
 59 60  1  0  0  0  0
 59 61  2  0  0  0  0
M  CHG  1  10   1
M  END
>  <cdx:fragmentId>
148

$$$$
