70178.cdx
  Mrv1902 05222410252D          

 32 35  0  0  0  0            999 V2000
    2.1156   -9.1014    0.0000 C   0  0  0  0  0  0  0  0  0  0  0  0
    2.1156   -9.9264    0.0000 C   0  0  0  0  0  0  0  0  0  0  0  0
    2.8300  -10.3389    0.0000 C   0  0  0  0  0  0  0  0  0  0  0  0
    3.5445   -9.9264    0.0000 C   0  0  0  0  0  0  0  0  0  0  0  0
    3.5445   -9.1014    0.0000 C   0  0  0  0  0  0  0  0  0  0  0  0
    2.8300   -8.6889    0.0000 C   0  0  0  0  0  0  0  0  0  0  0  0
    4.2590  -10.3389    0.0000 C   0  0  0  0  0  0  0  0  0  0  0  0
    4.9734   -9.9264    0.0000 C   0  0  0  0  0  0  0  0  0  0  0  0
    4.9734   -9.1014    0.0000 C   0  0  0  0  0  0  0  0  0  0  0  0
    4.2590   -8.6889    0.0000 O   0  3  0  0  0  0  0  0  0  0  0  0
    5.6879  -10.3389    0.0000 O   0  0  0  0  0  0  0  0  0  0  0  0
    6.4024   -9.1014    0.0000 C   0  0  0  0  0  0  0  0  0  0  0  0
    5.6879   -8.6889    0.0000 C   0  0  0  0  0  0  0  0  0  0  0  0
    7.1169   -8.6889    0.0000 C   0  0  0  0  0  0  0  0  0  0  0  0
    7.1169   -7.8639    0.0000 C   0  0  0  0  0  0  0  0  0  0  0  0
    6.4024   -7.4514    0.0000 C   0  0  0  0  0  0  0  0  0  0  0  0
    5.6879   -7.8639    0.0000 C   0  0  0  0  0  0  0  0  0  0  0  0
    1.4011   -8.6889    0.0000 O   0  0  0  0  0  0  0  0  0  0  0  0
    2.8300  -11.1639    0.0000 O   0  0  0  0  0  0  0  0  0  0  0  0
    6.4024   -6.6264    0.0000 O   0  0  0  0  0  0  0  0  0  0  0  0
    7.8313   -7.4514    0.0000 O   0  0  0  0  0  0  0  0  0  0  0  0
    8.2426   -6.7378    0.0000 C   0  0  2  0  0  0  0  0  0  0  0  0
    9.0676   -6.7421    0.0000 O   0  0  0  0  0  0  0  0  0  0  0  0
    9.4838   -6.0298    0.0000 C   0  0  1  0  0  0  0  0  0  0  0  0
    9.0750   -5.3132    0.0000 C   0  0  2  0  0  0  0  0  0  0  0  0
    8.2500   -5.3089    0.0000 C   0  0  1  0  0  0  0  0  0  0  0  0
    7.8338   -6.0212    0.0000 C   0  0  1  0  0  0  0  0  0  0  0  0
   10.3088   -6.0341    0.0000 C   0  0  0  0  0  0  0  0  0  0  0  0
    9.4912   -4.6009    0.0000 O   0  0  0  0  0  0  0  0  0  0  0  0
    7.8412   -4.5923    0.0000 O   0  0  0  0  0  0  0  0  0  0  0  0
    7.0088   -6.0169    0.0000 O   0  0  0  0  0  0  0  0  0  0  0  0
   10.7250   -5.3218    0.0000 O   0  0  0  0  0  0  0  0  0  0  0  0
  1  2  2  0  0  0  0
  2  3  1  0  0  0  0
  3  4  2  0  0  0  0
  4  5  1  0  0  0  0
  5  6  2  0  0  0  0
  6  1  1  0  0  0  0
  4  7  1  0  0  0  0
  7  8  2  0  0  0  0
  8  9  1  0  0  0  0
  9 10  2  0  0  0  0
 10  5  1  0  0  0  0
  8 11  1  0  0  0  0
 12 13  2  0  0  0  0
 13  9  1  0  0  0  0
 12 14  1  0  0  0  0
 14 15  2  0  0  0  0
 15 16  1  0  0  0  0
 16 17  2  0  0  0  0
 17 13  1  0  0  0  0
  1 18  1  0  0  0  0
  3 19  1  0  0  0  0
 16 20  1  0  0  0  0
 15 21  1  0  0  0  0
 22 23  1  0  0  0  0
 23 24  1  0  0  0  0
 24 25  1  0  0  0  0
 25 26  1  0  0  0  0
 26 27  1  0  0  0  0
 27 22  1  0  0  0  0
 24 28  1  1  0  0  0
 25 29  1  6  0  0  0
 26 30  1  1  0  0  0
 27 31  1  6  0  0  0
 28 32  1  0  0  0  0
 22 21  1  1  0  0  0
M  CHG  1  10   1
M  END
>  <cdx:fragmentId>
363

$$$$
