7017.cdx
  Mrv1902 05222410262D          

 13 14  0  0  0  0            999 V2000
    3.4336   -2.3029    0.0000 C   0  0  0  0  0  0  0  0  0  0  0  0
    3.4336   -3.1279    0.0000 C   0  0  0  0  0  0  0  0  0  0  0  0
    2.7192   -3.5404    0.0000 C   0  0  0  0  0  0  0  0  0  0  0  0
    2.0047   -3.1279    0.0000 C   0  0  0  0  0  0  0  0  0  0  0  0
    2.0047   -2.3029    0.0000 C   0  0  0  0  0  0  0  0  0  0  0  0
    2.7192   -1.8904    0.0000 C   0  0  0  0  0  0  0  0  0  0  0  0
    4.1481   -1.8904    0.0000 O   0  0  0  0  0  0  0  0  0  0  0  0
    4.1481   -3.5404    0.0000 C   0  0  0  0  0  0  0  0  0  0  0  0
    4.8626   -3.1279    0.0000 C   0  0  0  0  0  0  0  0  0  0  0  0
    5.5771   -3.5404    0.0000 C   0  0  0  0  0  0  0  0  0  0  0  0
    5.5771   -4.3654    0.0000 C   0  0  0  0  0  0  0  0  0  0  0  0
    4.8626   -4.7779    0.0000 C   0  0  0  0  0  0  0  0  0  0  0  0
    4.1481   -4.3654    0.0000 C   0  0  0  0  0  0  0  0  0  0  0  0
  1  2  1  0  0  0  0
  2  3  2  0  0  0  0
  3  4  1  0  0  0  0
  4  5  2  0  0  0  0
  5  6  1  0  0  0  0
  1  6  2  0  0  0  0
  1  7  1  0  0  0  0
  8  9  1  0  0  0  0
  9 10  2  0  0  0  0
 10 11  1  0  0  0  0
 11 12  2  0  0  0  0
 12 13  1  0  0  0  0
  8 13  2  0  0  0  0
  2  8  1  0  0  0  0
M  END
>  <cdx:groupId>
42

>  <cdx:fragmentId>
5

$$$$
