70179.cdx
  Mrv1902 05222410262D          

 60 65  0  0  0  0            999 V2000
    7.1210  -11.3697    0.0000 C   0  0  0  0  0  0  0  0  0  0  0  0
    7.8420  -11.7709    0.0000 C   0  0  0  0  0  0  0  0  0  0  0  0
    8.5498  -11.3471    0.0000 C   0  0  0  0  0  0  0  0  0  0  0  0
    8.5367  -10.5222    0.0000 C   0  0  0  0  0  0  0  0  0  0  0  0
    7.8158  -10.1211    0.0000 C   0  0  0  0  0  0  0  0  0  0  0  0
    7.1080  -10.5448    0.0000 C   0  0  0  0  0  0  0  0  0  0  0  0
    9.2446  -10.0984    0.0000 C   0  0  0  0  0  0  0  0  0  0  0  0
    9.2315   -9.2735    0.0000 C   0  0  0  0  0  0  0  0  0  0  0  0
    8.5106   -8.8724    0.0000 C   0  0  0  0  0  0  0  0  0  0  0  0
    7.8028   -9.2962    0.0000 O   0  3  0  0  0  0  0  0  0  0  0  0
    9.9394   -8.8498    0.0000 O   0  0  0  0  0  0  0  0  0  0  0  0
    9.2054   -7.6238    0.0000 C   0  0  0  0  0  0  0  0  0  0  0  0
    8.4976   -8.0475    0.0000 C   0  0  0  0  0  0  0  0  0  0  0  0
    9.1923   -6.7989    0.0000 C   0  0  0  0  0  0  0  0  0  0  0  0
    8.4714   -6.3977    0.0000 C   0  0  0  0  0  0  0  0  0  0  0  0
    7.7636   -6.8215    0.0000 C   0  0  0  0  0  0  0  0  0  0  0  0
    7.7766   -7.6464    0.0000 C   0  0  0  0  0  0  0  0  0  0  0  0
    6.4132  -11.7935    0.0000 O   0  0  0  0  0  0  0  0  0  0  0  0
    9.2707  -11.7482    0.0000 O   0  0  0  0  0  0  0  0  0  0  0  0
    7.0427   -6.4203    0.0000 O   0  0  0  0  0  0  0  0  0  0  0  0
    8.4584   -5.5728    0.0000 O   0  0  0  0  0  0  0  0  0  0  0  0
    6.4263  -12.6184    0.0000 C   0  0  2  0  0  0  0  0  0  0  0  0
    5.7184  -13.0421    0.0000 O   0  0  0  0  0  0  0  0  0  0  0  0
    5.7315  -13.8670    0.0000 C   0  0  1  0  0  0  0  0  0  0  0  0
    6.4524  -14.2682    0.0000 C   0  0  2  0  0  0  0  0  0  0  0  0
    7.1602  -13.8444    0.0000 C   0  0  1  0  0  0  0  0  0  0  0  0
    7.1472  -13.0195    0.0000 C   0  0  1  0  0  0  0  0  0  0  0  0
    5.0236  -14.2908    0.0000 C   0  0  0  0  0  0  0  0  0  0  0  0
    7.8811  -14.2455    0.0000 O   0  0  0  0  0  0  0  0  0  0  0  0
    7.8550  -12.5958    0.0000 O   0  0  0  0  0  0  0  0  0  0  0  0
    6.4654  -15.0931    0.0000 O   0  0  0  0  0  0  0  0  0  0  0  0
    5.0367  -15.1157    0.0000 O   0  0  0  0  0  0  0  0  0  0  0  0
    7.8999  -15.0776    0.0000 C   0  0  2  0  0  0  0  0  0  0  0  0
    7.1921  -15.5013    0.0000 O   0  0  0  0  0  0  0  0  0  0  0  0
    7.2052  -16.3262    0.0000 C   0  0  1  0  0  0  0  0  0  0  0  0
    7.9261  -16.7274    0.0000 C   0  0  2  0  0  0  0  0  0  0  0  0
    8.6339  -16.3036    0.0000 C   0  0  1  0  0  0  0  0  0  0  0  0
    8.6209  -15.4787    0.0000 C   0  0  1  0  0  0  0  0  0  0  0  0
    6.4973  -16.7500    0.0000 C   0  0  0  0  0  0  0  0  0  0  0  0
    9.3548  -16.7047    0.0000 O   0  0  0  0  0  0  0  0  0  0  0  0
    9.3287  -15.0549    0.0000 O   0  0  0  0  0  0  0  0  0  0  0  0
    7.9391  -17.5523    0.0000 O   0  0  0  0  0  0  0  0  0  0  0  0
    6.5104  -17.5749    0.0000 O   0  0  0  0  0  0  0  0  0  0  0  0
    4.3288  -15.5395    0.0000 C   0  0  0  0  0  0  0  0  0  0  0  0
    4.3419  -16.3644    0.0000 C   0  0  0  0  0  0  0  0  0  0  0  0
    3.6340  -16.7881    0.0000 C   0  0  0  0  0  0  0  0  0  0  0  0
    3.6471  -17.6130    0.0000 O   0  0  0  0  0  0  0  0  0  0  0  0
    2.9131  -16.3870    0.0000 O   0  0  0  0  0  0  0  0  0  0  0  0
    3.6079  -15.1383    0.0000 O   0  0  0  0  0  0  0  0  0  0  0  0
    8.0582   -4.8637    0.0000 C   0  0  2  0  0  0  0  0  0  0  0  0
    8.4812   -4.1554    0.0000 O   0  0  0  0  0  0  0  0  0  0  0  0
    8.0792   -3.4349    0.0000 C   0  0  1  0  0  0  0  0  0  0  0  0
    7.2543   -3.4228    0.0000 C   0  0  2  0  0  0  0  0  0  0  0  0
    6.8313   -4.1312    0.0000 C   0  0  1  0  0  0  0  0  0  0  0  0
    7.2333   -4.8516    0.0000 C   0  0  1  0  0  0  0  0  0  0  0  0
    8.5021   -2.7266    0.0000 C   0  0  0  0  0  0  0  0  0  0  0  0
    6.0064   -4.1191    0.0000 O   0  0  0  0  0  0  0  0  0  0  0  0
    6.8104   -5.5600    0.0000 O   0  0  0  0  0  0  0  0  0  0  0  0
    6.8523   -2.7024    0.0000 O   0  0  0  0  0  0  0  0  0  0  0  0
    8.1002   -2.0062    0.0000 O   0  0  0  0  0  0  0  0  0  0  0  0
  1  2  2  0  0  0  0
  2  3  1  0  0  0  0
  3  4  2  0  0  0  0
  4  5  1  0  0  0  0
  5  6  2  0  0  0  0
  6  1  1  0  0  0  0
  4  7  1  0  0  0  0
  7  8  2  0  0  0  0
  8  9  1  0  0  0  0
  9 10  2  0  0  0  0
 10  5  1  0  0  0  0
  8 11  1  0  0  0  0
 12 13  2  0  0  0  0
 13  9  1  0  0  0  0
 12 14  1  0  0  0  0
 14 15  2  0  0  0  0
 15 16  1  0  0  0  0
 16 17  2  0  0  0  0
 17 13  1  0  0  0  0
  1 18  1  0  0  0  0
  3 19  1  0  0  0  0
 16 20  1  0  0  0  0
 15 21  1  0  0  0  0
 22 18  1  1  0  0  0
 22 23  1  0  0  0  0
 23 24  1  0  0  0  0
 24 25  1  0  0  0  0
 25 26  1  0  0  0  0
 26 27  1  0  0  0  0
 27 22  1  0  0  0  0
 24 28  1  1  0  0  0
 26 29  1  1  0  0  0
 27 30  1  6  0  0  0
 25 31  1  6  0  0  0
 28 32  1  0  0  0  0
 33 34  1  0  0  0  0
 34 35  1  0  0  0  0
 35 36  1  0  0  0  0
 36 37  1  0  0  0  0
 37 38  1  0  0  0  0
 38 33  1  0  0  0  0
 35 39  1  1  0  0  0
 37 40  1  1  0  0  0
 38 41  1  6  0  0  0
 36 42  1  6  0  0  0
 39 43  1  0  0  0  0
 33 29  1  1  0  0  0
 32 44  1  0  0  0  0
 44 45  1  0  0  0  0
 45 46  1  0  0  0  0
 46 47  1  0  0  0  0
 46 48  2  0  0  0  0
 44 49  2  0  0  0  0
 50 51  1  0  0  0  0
 51 52  1  0  0  0  0
 52 53  1  0  0  0  0
 53 54  1  0  0  0  0
 54 55  1  0  0  0  0
 55 50  1  0  0  0  0
 52 56  1  1  0  0  0
 54 57  1  1  0  0  0
 55 58  1  6  0  0  0
 53 59  1  6  0  0  0
 56 60  1  0  0  0  0
 50 21  1  1  0  0  0
M  CHG  1  10   1
M  END
>  <cdx:fragmentId>
363

$$$$
