70177.cdx
  Mrv1902 05222410212D          

 32 35  0  0  0  0            999 V2000
    5.2506   -6.9151    0.0000 C   0  0  0  0  0  0  0  0  0  0  0  0
    5.2506   -7.7401    0.0000 C   0  0  0  0  0  0  0  0  0  0  0  0
    5.9650   -8.1526    0.0000 C   0  0  0  0  0  0  0  0  0  0  0  0
    6.6795   -7.7401    0.0000 C   0  0  0  0  0  0  0  0  0  0  0  0
    6.6795   -6.9151    0.0000 C   0  0  0  0  0  0  0  0  0  0  0  0
    5.9650   -6.5026    0.0000 C   0  0  0  0  0  0  0  0  0  0  0  0
    7.3940   -8.1526    0.0000 C   0  0  0  0  0  0  0  0  0  0  0  0
    8.1084   -7.7401    0.0000 C   0  0  0  0  0  0  0  0  0  0  0  0
    8.1084   -6.9151    0.0000 C   0  0  0  0  0  0  0  0  0  0  0  0
    7.3940   -6.5026    0.0000 O   0  3  0  0  0  0  0  0  0  0  0  0
    8.8229   -8.1526    0.0000 O   0  0  0  0  0  0  0  0  0  0  0  0
    9.5374   -6.9151    0.0000 C   0  0  0  0  0  0  0  0  0  0  0  0
    8.8229   -6.5026    0.0000 C   0  0  0  0  0  0  0  0  0  0  0  0
   10.2519   -6.5026    0.0000 C   0  0  0  0  0  0  0  0  0  0  0  0
   10.2519   -5.6776    0.0000 C   0  0  0  0  0  0  0  0  0  0  0  0
    9.5374   -5.2651    0.0000 C   0  0  0  0  0  0  0  0  0  0  0  0
    8.8229   -5.6776    0.0000 C   0  0  0  0  0  0  0  0  0  0  0  0
    4.5361   -6.5026    0.0000 O   0  0  0  0  0  0  0  0  0  0  0  0
    5.9650   -8.9776    0.0000 O   0  0  0  0  0  0  0  0  0  0  0  0
    9.5374   -4.4401    0.0000 O   0  0  0  0  0  0  0  0  0  0  0  0
   10.9663   -5.2651    0.0000 O   0  0  0  0  0  0  0  0  0  0  0  0
    8.8229   -8.9776    0.0000 C   0  0  2  0  0  0  0  0  0  0  0  0
    8.1084   -9.3901    0.0000 O   0  0  0  0  0  0  0  0  0  0  0  0
    8.1084  -10.2151    0.0000 C   0  0  1  0  0  0  0  0  0  0  0  0
    8.8229  -10.6276    0.0000 C   0  0  1  0  0  0  0  0  0  0  0  0
    9.5374  -10.2151    0.0000 C   0  0  1  0  0  0  0  0  0  0  0  0
    9.5374   -9.3901    0.0000 C   0  0  1  0  0  0  0  0  0  0  0  0
    7.3940  -10.6276    0.0000 C   0  0  0  0  0  0  0  0  0  0  0  0
    8.8229  -11.4526    0.0000 O   0  0  0  0  0  0  0  0  0  0  0  0
   10.2519  -10.6276    0.0000 O   0  0  0  0  0  0  0  0  0  0  0  0
   10.2519   -8.9776    0.0000 O   0  0  0  0  0  0  0  0  0  0  0  0
    7.3940  -11.4526    0.0000 O   0  0  0  0  0  0  0  0  0  0  0  0
  1  2  2  0  0  0  0
  2  3  1  0  0  0  0
  3  4  2  0  0  0  0
  4  5  1  0  0  0  0
  5  6  2  0  0  0  0
  6  1  1  0  0  0  0
  4  7  1  0  0  0  0
  7  8  2  0  0  0  0
  8  9  1  0  0  0  0
  9 10  2  0  0  0  0
 10  5  1  0  0  0  0
  8 11  1  0  0  0  0
 12 13  2  0  0  0  0
 13  9  1  0  0  0  0
 12 14  1  0  0  0  0
 14 15  2  0  0  0  0
 15 16  1  0  0  0  0
 16 17  2  0  0  0  0
 17 13  1  0  0  0  0
  1 18  1  0  0  0  0
  3 19  1  0  0  0  0
 16 20  1  0  0  0  0
 15 21  1  0  0  0  0
 22 11  1  1  0  0  0
 22 23  1  0  0  0  0
 23 24  1  0  0  0  0
 24 25  1  0  0  0  0
 25 26  1  0  0  0  0
 26 27  1  0  0  0  0
 27 22  1  0  0  0  0
 24 28  1  1  0  0  0
 25 29  1  1  0  0  0
 26 30  1  1  0  0  0
 27 31  1  6  0  0  0
 28 32  1  0  0  0  0
M  CHG  1  10   1
M  END
>  <cdx:fragmentId>
363

$$$$
