70174.cdx
  Mrv1902 05222410202D          

 55 60  0  0  0  0            999 V2000
    4.6731   -7.1076    0.0000 C   0  0  0  0  0  0  0  0  0  0  0  0
    4.6731   -7.9326    0.0000 C   0  0  0  0  0  0  0  0  0  0  0  0
    5.3875   -8.3451    0.0000 C   0  0  0  0  0  0  0  0  0  0  0  0
    6.1020   -7.9326    0.0000 C   0  0  0  0  0  0  0  0  0  0  0  0
    6.1020   -7.1076    0.0000 C   0  0  0  0  0  0  0  0  0  0  0  0
    5.3875   -6.6951    0.0000 C   0  0  0  0  0  0  0  0  0  0  0  0
    6.8165   -8.3451    0.0000 C   0  0  0  0  0  0  0  0  0  0  0  0
    7.5309   -7.9326    0.0000 C   0  0  0  0  0  0  0  0  0  0  0  0
    7.5309   -7.1076    0.0000 C   0  0  0  0  0  0  0  0  0  0  0  0
    6.8165   -6.6951    0.0000 O   0  3  0  0  0  0  0  0  0  0  0  0
    8.2454   -8.3451    0.0000 O   0  0  0  0  0  0  0  0  0  0  0  0
    8.9599   -7.1076    0.0000 C   0  0  0  0  0  0  0  0  0  0  0  0
    8.2454   -6.6951    0.0000 C   0  0  0  0  0  0  0  0  0  0  0  0
    9.6744   -6.6951    0.0000 C   0  0  0  0  0  0  0  0  0  0  0  0
    9.6744   -5.8701    0.0000 C   0  0  0  0  0  0  0  0  0  0  0  0
    8.9599   -5.4576    0.0000 C   0  0  0  0  0  0  0  0  0  0  0  0
    8.2454   -5.8701    0.0000 C   0  0  0  0  0  0  0  0  0  0  0  0
    3.9586   -6.6951    0.0000 O   0  0  0  0  0  0  0  0  0  0  0  0
    5.3875   -9.1701    0.0000 O   0  0  0  0  0  0  0  0  0  0  0  0
    8.9599   -4.6326    0.0000 O   0  0  0  0  0  0  0  0  0  0  0  0
   10.3888   -5.4576    0.0000 O   0  0  0  0  0  0  0  0  0  0  0  0
    8.2450   -9.1701    0.0000 C   0  0  2  0  0  0  0  0  0  0  0  0
    7.5303   -9.5823    0.0000 O   0  0  0  0  0  0  0  0  0  0  0  0
    7.5298  -10.4073    0.0000 C   0  0  1  0  0  0  0  0  0  0  0  0
    8.2440  -10.8201    0.0000 C   0  0  2  0  0  0  0  0  0  0  0  0
    8.9587  -10.4080    0.0000 C   0  0  1  0  0  0  0  0  0  0  0  0
    8.9592   -9.5830    0.0000 C   0  0  1  0  0  0  0  0  0  0  0  0
    6.8151  -10.8194    0.0000 C   0  0  0  0  0  0  0  0  0  0  0  0
    9.6730  -10.8209    0.0000 O   0  0  0  0  0  0  0  0  0  0  0  0
    9.6739   -9.1709    0.0000 O   0  0  0  0  0  0  0  0  0  0  0  0
    8.2436  -11.6451    0.0000 O   0  0  0  0  0  0  0  0  0  0  0  0
    6.8146  -11.6444    0.0000 O   0  0  0  0  0  0  0  0  0  0  0  0
    4.6588   -9.5656    0.0000 C   0  0  2  0  0  0  0  0  0  0  0  0
    3.9499   -9.1435    0.0000 O   0  0  0  0  0  0  0  0  0  0  0  0
    3.2299   -9.5463    0.0000 C   0  0  1  0  0  0  0  0  0  0  0  0
    3.2188  -10.3712    0.0000 C   0  0  2  0  0  0  0  0  0  0  0  0
    3.9276  -10.7934    0.0000 C   0  0  1  0  0  0  0  0  0  0  0  0
    4.6476  -10.3906    0.0000 C   0  0  1  0  0  0  0  0  0  0  0  0
    2.5211   -9.1242    0.0000 C   0  0  0  0  0  0  0  0  0  0  0  0
    3.9165  -11.6183    0.0000 O   0  0  0  0  0  0  0  0  0  0  0  0
    5.3564  -10.8127    0.0000 O   0  0  0  0  0  0  0  0  0  0  0  0
    2.4988  -10.7740    0.0000 O   0  0  0  0  0  0  0  0  0  0  0  0
    1.8011   -9.5270    0.0000 O   0  0  0  0  0  0  0  0  0  0  0  0
    3.9323  -15.7523    0.0000 O   0  0  0  0  0  0  0  0  0  0  0  0
    5.3563  -16.5858    0.0000 O   0  0  0  0  0  0  0  0  0  0  0  0
    4.6541  -14.5191    0.0000 C   0  0  0  0  0  0  0  0  0  0  0  0
    4.6492  -15.3440    0.0000 C   0  0  0  0  0  0  0  0  0  0  0  0
    5.3612  -15.7608    0.0000 C   0  0  0  0  0  0  0  0  0  0  0  0
    6.0781  -15.3525    0.0000 C   0  0  0  0  0  0  0  0  0  0  0  0
    6.0830  -14.5276    0.0000 C   0  0  0  0  0  0  0  0  0  0  0  0
    5.3710  -14.1108    0.0000 C   0  0  0  0  0  0  0  0  0  0  0  0
    5.3759  -13.2858    0.0000 C   0  0  0  0  0  0  0  0  0  0  0  0
    5.3857  -11.6359    0.0000 O   0  0  0  0  0  0  0  0  0  0  0  0
    6.0928  -12.8776    0.0000 C   0  0  0  0  0  0  0  0  0  0  0  0
    6.0977  -12.0526    0.0000 C   0  0  0  0  0  0  0  0  0  0  0  0
  1  2  2  0  0  0  0
  2  3  1  0  0  0  0
  3  4  2  0  0  0  0
  4  5  1  0  0  0  0
  5  6  2  0  0  0  0
  6  1  1  0  0  0  0
  4  7  1  0  0  0  0
  7  8  2  0  0  0  0
  8  9  1  0  0  0  0
  9 10  2  0  0  0  0
 10  5  1  0  0  0  0
  8 11  1  0  0  0  0
 12 13  2  0  0  0  0
 13  9  1  0  0  0  0
 12 14  1  0  0  0  0
 14 15  2  0  0  0  0
 15 16  1  0  0  0  0
 16 17  2  0  0  0  0
 17 13  1  0  0  0  0
  1 18  1  0  0  0  0
  3 19  1  0  0  0  0
 16 20  1  0  0  0  0
 15 21  1  0  0  0  0
 22 11  1  1  0  0  0
 22 23  1  0  0  0  0
 23 24  1  0  0  0  0
 24 25  1  0  0  0  0
 25 26  1  0  0  0  0
 26 27  1  0  0  0  0
 27 22  1  0  0  0  0
 24 28  1  1  0  0  0
 26 29  1  1  0  0  0
 27 30  1  6  0  0  0
 25 31  1  6  0  0  0
 28 32  1  0  0  0  0
 33 34  1  0  0  0  0
 34 35  1  0  0  0  0
 35 36  1  0  0  0  0
 36 37  1  0  0  0  0
 37 38  1  0  0  0  0
 38 33  1  0  0  0  0
 35 39  1  1  0  0  0
 37 40  1  1  0  0  0
 38 41  1  6  0  0  0
 36 42  1  6  0  0  0
 39 43  1  0  0  0  0
 33 19  1  1  0  0  0
 47 44  1  0  0  0  0
 32 55  1  0  0  0  0
 48 45  1  0  0  0  0
 46 51  1  0  0  0  0
 47 46  2  0  0  0  0
 48 47  1  0  0  0  0
 49 48  2  0  0  0  0
 50 49  1  0  0  0  0
 51 50  2  0  0  0  0
 52 51  1  0  0  0  0
 54 52  2  0  0  0  0
 55 53  2  0  0  0  0
 55 54  1  0  0  0  0
M  CHG  1  10   1
M  END
>  <cdx:fragmentId>
148

$$$$
