70172.cdx
  Mrv1902 05222410222D          

 43 47  0  0  0  0            999 V2000
    3.0918   -8.2626    0.0000 C   0  0  0  0  0  0  0  0  0  0  0  0
    3.0918   -9.0876    0.0000 C   0  0  0  0  0  0  0  0  0  0  0  0
    3.8063   -9.5001    0.0000 C   0  0  0  0  0  0  0  0  0  0  0  0
    4.5207   -9.0876    0.0000 C   0  0  0  0  0  0  0  0  0  0  0  0
    4.5207   -8.2626    0.0000 C   0  0  0  0  0  0  0  0  0  0  0  0
    3.8063   -7.8501    0.0000 C   0  0  0  0  0  0  0  0  0  0  0  0
    5.2352   -9.5001    0.0000 C   0  0  0  0  0  0  0  0  0  0  0  0
    5.9497   -9.0876    0.0000 C   0  0  0  0  0  0  0  0  0  0  0  0
    5.9497   -8.2626    0.0000 C   0  0  0  0  0  0  0  0  0  0  0  0
    5.2352   -7.8501    0.0000 O   0  3  0  0  0  0  0  0  0  0  0  0
    6.6642   -9.5001    0.0000 O   0  0  0  0  0  0  0  0  0  0  0  0
    7.3786   -8.2626    0.0000 C   0  0  0  0  0  0  0  0  0  0  0  0
    6.6642   -7.8501    0.0000 C   0  0  0  0  0  0  0  0  0  0  0  0
    8.0931   -7.8501    0.0000 C   0  0  0  0  0  0  0  0  0  0  0  0
    8.0931   -7.0251    0.0000 C   0  0  0  0  0  0  0  0  0  0  0  0
    7.3786   -6.6126    0.0000 C   0  0  0  0  0  0  0  0  0  0  0  0
    6.6642   -7.0251    0.0000 C   0  0  0  0  0  0  0  0  0  0  0  0
    2.3773   -7.8501    0.0000 O   0  0  0  0  0  0  0  0  0  0  0  0
    3.8063  -10.3251    0.0000 O   0  0  0  0  0  0  0  0  0  0  0  0
    7.3786   -5.7876    0.0000 O   0  0  0  0  0  0  0  0  0  0  0  0
    8.8076   -6.6126    0.0000 O   0  0  0  0  0  0  0  0  0  0  0  0
    6.6642  -10.3251    0.0000 C   0  0  2  0  0  0  0  0  0  0  0  0
    9.5221   -6.2003    0.0000 C   0  0  2  0  0  0  0  0  0  0  0  0
    5.9497  -10.7376    0.0000 O   0  0  0  0  0  0  0  0  0  0  0  0
    5.9497  -11.5626    0.0000 C   0  0  1  0  0  0  0  0  0  0  0  0
    6.6642  -11.9751    0.0000 C   0  0  2  0  0  0  0  0  0  0  0  0
    7.3786  -11.5626    0.0000 C   0  0  1  0  0  0  0  0  0  0  0  0
    7.3786  -10.7376    0.0000 C   0  0  1  0  0  0  0  0  0  0  0  0
   10.2365   -6.6130    0.0000 O   0  0  0  0  0  0  0  0  0  0  0  0
   10.9511   -6.2007    0.0000 C   0  0  1  0  0  0  0  0  0  0  0  0
   10.9513   -5.3757    0.0000 C   0  0  2  0  0  0  0  0  0  0  0  0
   10.2369   -4.9630    0.0000 C   0  0  1  0  0  0  0  0  0  0  0  0
    9.5224   -5.3753    0.0000 C   0  0  1  0  0  0  0  0  0  0  0  0
    5.2352  -11.9751    0.0000 C   0  0  0  0  0  0  0  0  0  0  0  0
    8.0931  -11.9751    0.0000 O   0  0  0  0  0  0  0  0  0  0  0  0
   11.6655   -6.6134    0.0000 C   0  0  0  0  0  0  0  0  0  0  0  0
   10.2371   -4.1380    0.0000 O   0  0  0  0  0  0  0  0  0  0  0  0
    8.0931  -10.3251    0.0000 O   0  0  0  0  0  0  0  0  0  0  0  0
    6.6642  -12.8001    0.0000 O   0  0  0  0  0  0  0  0  0  0  0  0
    8.8080   -4.9626    0.0000 O   0  0  0  0  0  0  0  0  0  0  0  0
   11.6659   -4.9634    0.0000 O   0  0  0  0  0  0  0  0  0  0  0  0
    5.2352  -12.8001    0.0000 O   0  0  0  0  0  0  0  0  0  0  0  0
   12.3799   -6.2009    0.0000 O   0  0  0  0  0  0  0  0  0  0  0  0
  1  2  2  0  0  0  0
  2  3  1  0  0  0  0
  3  4  2  0  0  0  0
  4  5  1  0  0  0  0
  5  6  2  0  0  0  0
  6  1  1  0  0  0  0
  4  7  1  0  0  0  0
  7  8  2  0  0  0  0
  8  9  1  0  0  0  0
  9 10  2  0  0  0  0
 10  5  1  0  0  0  0
  8 11  1  0  0  0  0
 12 13  2  0  0  0  0
 13  9  1  0  0  0  0
 12 14  1  0  0  0  0
 14 15  2  0  0  0  0
 15 16  1  0  0  0  0
 16 17  2  0  0  0  0
 17 13  1  0  0  0  0
  1 18  1  0  0  0  0
  3 19  1  0  0  0  0
 16 20  1  0  0  0  0
 15 21  1  0  0  0  0
 22 11  1  1  0  0  0
 23 21  1  1  0  0  0
 22 24  1  0  0  0  0
 24 25  1  0  0  0  0
 25 26  1  0  0  0  0
 26 27  1  0  0  0  0
 27 28  1  0  0  0  0
 28 22  1  0  0  0  0
 23 29  1  0  0  0  0
 29 30  1  0  0  0  0
 30 31  1  0  0  0  0
 31 32  1  0  0  0  0
 32 33  1  0  0  0  0
 33 23  1  0  0  0  0
 25 34  1  1  0  0  0
 27 35  1  1  0  0  0
 30 36  1  1  0  0  0
 32 37  1  1  0  0  0
 28 38  1  6  0  0  0
 26 39  1  6  0  0  0
 33 40  1  6  0  0  0
 31 41  1  6  0  0  0
 34 42  1  0  0  0  0
 36 43  1  0  0  0  0
M  CHG  1  10   1
M  END
>  <cdx:fragmentId>
148

$$$$
