70171.cdx
  Mrv1902 05222410222D          

 49 53  0  0  0  0            999 V2000
    3.0918   -8.2626    0.0000 C   0  0  0  0  0  0  0  0  0  0  0  0
    3.0918   -9.0876    0.0000 C   0  0  0  0  0  0  0  0  0  0  0  0
    3.8063   -9.5001    0.0000 C   0  0  0  0  0  0  0  0  0  0  0  0
    4.5207   -9.0876    0.0000 C   0  0  0  0  0  0  0  0  0  0  0  0
    4.5207   -8.2626    0.0000 C   0  0  0  0  0  0  0  0  0  0  0  0
    3.8063   -7.8501    0.0000 C   0  0  0  0  0  0  0  0  0  0  0  0
    5.2352   -9.5001    0.0000 C   0  0  0  0  0  0  0  0  0  0  0  0
    5.9497   -9.0876    0.0000 C   0  0  0  0  0  0  0  0  0  0  0  0
    5.9497   -8.2626    0.0000 C   0  0  0  0  0  0  0  0  0  0  0  0
    5.2352   -7.8501    0.0000 O   0  3  0  0  0  0  0  0  0  0  0  0
    6.6642   -9.5001    0.0000 O   0  0  0  0  0  0  0  0  0  0  0  0
    7.3786   -8.2626    0.0000 C   0  0  0  0  0  0  0  0  0  0  0  0
    6.6642   -7.8501    0.0000 C   0  0  0  0  0  0  0  0  0  0  0  0
    8.0931   -7.8501    0.0000 C   0  0  0  0  0  0  0  0  0  0  0  0
    8.0931   -7.0251    0.0000 C   0  0  0  0  0  0  0  0  0  0  0  0
    7.3786   -6.6126    0.0000 C   0  0  0  0  0  0  0  0  0  0  0  0
    6.6642   -7.0251    0.0000 C   0  0  0  0  0  0  0  0  0  0  0  0
    2.3773   -7.8501    0.0000 O   0  0  0  0  0  0  0  0  0  0  0  0
    3.8063  -10.3251    0.0000 O   0  0  0  0  0  0  0  0  0  0  0  0
    7.3786   -5.7876    0.0000 O   0  0  0  0  0  0  0  0  0  0  0  0
    8.8076   -6.6126    0.0000 O   0  0  0  0  0  0  0  0  0  0  0  0
    6.6642  -10.3251    0.0000 C   0  0  2  0  0  0  0  0  0  0  0  0
    5.9497  -10.7376    0.0000 O   0  0  0  0  0  0  0  0  0  0  0  0
    5.9497  -11.5626    0.0000 C   0  0  0  0  0  0  0  0  0  0  0  0
    6.6642  -11.9751    0.0000 C   0  0  2  0  0  0  0  0  0  0  0  0
    7.3786  -11.5626    0.0000 C   0  0  0  0  0  0  0  0  0  0  0  0
    7.3786  -10.7376    0.0000 C   0  0  0  0  0  0  0  0  0  0  0  0
    6.6642  -12.8001    0.0000 O   0  0  0  0  0  0  0  0  0  0  0  0
    8.0931  -10.3251    0.0000 O   0  0  0  0  0  0  0  0  0  0  0  0
    8.0931  -11.9751    0.0000 O   0  0  0  0  0  0  0  0  0  0  0  0
    5.2352  -11.9751    0.0000 C   0  0  0  0  0  0  0  0  0  0  0  0
    4.5207  -11.5626    0.0000 O   0  0  0  0  0  0  0  0  0  0  0  0
    8.0931  -12.8001    0.0000 C   0  0  2  0  0  0  0  0  0  0  0  0
    7.3786  -13.2126    0.0000 O   0  0  0  0  0  0  0  0  0  0  0  0
    7.3786  -14.0376    0.0000 C   0  0  0  0  0  0  0  0  0  0  0  0
    8.0931  -14.4501    0.0000 C   0  0  2  0  0  0  0  0  0  0  0  0
    8.8076  -14.0376    0.0000 C   0  0  0  0  0  0  0  0  0  0  0  0
    8.8076  -13.2126    0.0000 C   0  0  1  0  0  0  0  0  0  0  0  0
    9.5220  -12.8001    0.0000 O   0  0  0  0  0  0  0  0  0  0  0  0
    8.0931  -15.2751    0.0000 O   0  0  0  0  0  0  0  0  0  0  0  0
    9.5220  -14.4501    0.0000 O   0  0  0  0  0  0  0  0  0  0  0  0
    6.6642  -14.4501    0.0000 C   0  0  0  0  0  0  0  0  0  0  0  0
    6.6642  -15.2751    0.0000 O   0  0  0  0  0  0  0  0  0  0  0  0
    3.8063  -11.9751    0.0000 C   0  0  0  0  0  0  0  0  0  0  0  0
    3.0918  -11.5626    0.0000 C   0  0  0  0  0  0  0  0  0  0  0  0
    2.3773  -11.9751    0.0000 C   0  0  0  0  0  0  0  0  0  0  0  0
    1.6629  -11.5626    0.0000 O   0  0  0  0  0  0  0  0  0  0  0  0
    3.8063  -12.8001    0.0000 O   0  0  0  0  0  0  0  0  0  0  0  0
    2.3773  -12.8001    0.0000 O   0  0  0  0  0  0  0  0  0  0  0  0
  1  2  2  0  0  0  0
  2  3  1  0  0  0  0
  3  4  2  0  0  0  0
  4  5  1  0  0  0  0
  5  6  2  0  0  0  0
  6  1  1  0  0  0  0
  4  7  1  0  0  0  0
  7  8  2  0  0  0  0
  8  9  1  0  0  0  0
  9 10  2  0  0  0  0
 10  5  1  0  0  0  0
  8 11  1  0  0  0  0
 12 13  2  0  0  0  0
 13  9  1  0  0  0  0
 12 14  1  0  0  0  0
 14 15  2  0  0  0  0
 15 16  1  0  0  0  0
 16 17  2  0  0  0  0
 17 13  1  0  0  0  0
  1 18  1  0  0  0  0
  3 19  1  0  0  0  0
 16 20  1  0  0  0  0
 15 21  1  0  0  0  0
 22 11  1  1  0  0  0
 22 23  1  0  0  0  0
 23 24  1  0  0  0  0
 24 25  1  0  0  0  0
 25 26  1  0  0  0  0
 26 27  1  0  0  0  0
 27 22  1  0  0  0  0
 25 28  1  6  0  0  0
 27 29  1  0  0  0  0
 26 30  1  0  0  0  0
 24 31  1  0  0  0  0
 31 32  1  0  0  0  0
 33 30  1  1  0  0  0
 33 34  1  0  0  0  0
 34 35  1  0  0  0  0
 35 36  1  0  0  0  0
 36 37  1  0  0  0  0
 37 38  1  0  0  0  0
 38 33  1  0  0  0  0
 38 39  1  6  0  0  0
 36 40  1  6  0  0  0
 37 41  1  0  0  0  0
 35 42  1  0  0  0  0
 42 43  1  0  0  0  0
 32 44  1  0  0  0  0
 44 45  1  0  0  0  0
 45 46  1  0  0  0  0
 46 47  1  0  0  0  0
 44 48  2  0  0  0  0
 46 49  2  0  0  0  0
M  CHG  1  10   1
M  END
>  <cdx:fragmentId>
5

$$$$
