70186.cdx
  Mrv1902 05222410262D          

 12 12  0  0  0  0            999 V2000
    6.2131   -8.4276    0.0000 C   0  0  0  0  0  0  0  0  0  0  0  0
    6.2131   -9.2526    0.0000 C   0  0  0  0  0  0  0  0  0  0  0  0
    6.9275   -9.6651    0.0000 C   0  0  0  0  0  0  0  0  0  0  0  0
    7.6420   -9.2526    0.0000 C   0  0  0  0  0  0  0  0  0  0  0  0
    7.6420   -8.4276    0.0000 C   0  0  0  0  0  0  0  0  0  0  0  0
    6.9275   -8.0151    0.0000 C   0  0  0  0  0  0  0  0  0  0  0  0
    5.4986   -9.6651    0.0000 C   0  0  0  0  0  0  0  0  0  0  0  0
    6.9275   -7.1901    0.0000 C   0  0  0  0  0  0  0  0  0  0  0  0
    7.6420   -6.7776    0.0000 C   0  0  0  0  0  0  0  0  0  0  0  0
    7.6420   -5.9526    0.0000 C   0  0  0  0  0  0  0  0  0  0  0  0
    8.3565   -5.5401    0.0000 C   0  0  0  0  0  0  0  0  0  0  0  0
    8.3565   -4.7151    0.0000 C   0  0  0  0  0  0  0  0  0  0  0  0
  1  2  1  0  0  0  0
  2  3  1  0  0  0  0
  3  4  1  0  0  0  0
  4  5  1  0  0  0  0
  5  6  1  0  0  0  0
  6  1  1  0  0  0  0
  2  7  1  0  0  0  0
  6  8  1  0  0  0  0
  8  9  1  0  0  0  0
  9 10  1  0  0  0  0
 10 11  1  0  0  0  0
 11 12  1  0  0  0  0
M  END
>  <cdx:fragmentId>
5

$$$$
