70182.cdx
  Mrv1902 05222410232D          

 55 59  0  0  0  0            999 V2000
    6.6806   -4.7839    0.0000 C   0  0  0  0  0  0  0  0  0  0  0  0
    6.6806   -5.6089    0.0000 C   0  0  0  0  0  0  0  0  0  0  0  0
    7.3950   -6.0214    0.0000 C   0  0  0  0  0  0  0  0  0  0  0  0
    8.1095   -5.6089    0.0000 C   0  0  0  0  0  0  0  0  0  0  0  0
    8.1095   -4.7839    0.0000 C   0  0  0  0  0  0  0  0  0  0  0  0
    7.3950   -4.3714    0.0000 C   0  0  0  0  0  0  0  0  0  0  0  0
    8.8240   -6.0214    0.0000 C   0  0  0  0  0  0  0  0  0  0  0  0
    9.5384   -5.6089    0.0000 C   0  0  0  0  0  0  0  0  0  0  0  0
    9.5384   -4.7839    0.0000 C   0  0  0  0  0  0  0  0  0  0  0  0
    8.8240   -4.3714    0.0000 O   0  3  0  0  0  0  0  0  0  0  0  0
   10.2529   -6.0214    0.0000 O   0  0  0  0  0  0  0  0  0  0  0  0
   10.9674   -4.7839    0.0000 C   0  0  0  0  0  0  0  0  0  0  0  0
   10.2529   -4.3714    0.0000 C   0  0  0  0  0  0  0  0  0  0  0  0
   11.6819   -4.3714    0.0000 C   0  0  0  0  0  0  0  0  0  0  0  0
   11.6819   -3.5464    0.0000 C   0  0  0  0  0  0  0  0  0  0  0  0
   10.9674   -3.1339    0.0000 C   0  0  0  0  0  0  0  0  0  0  0  0
   10.2529   -3.5464    0.0000 C   0  0  0  0  0  0  0  0  0  0  0  0
    5.9661   -4.3714    0.0000 O   0  0  0  0  0  0  0  0  0  0  0  0
    7.3950   -6.8464    0.0000 O   0  0  0  0  0  0  0  0  0  0  0  0
   10.9674   -2.3089    0.0000 O   0  0  0  0  0  0  0  0  0  0  0  0
   12.3963   -3.1339    0.0000 O   0  0  0  0  0  0  0  0  0  0  0  0
   10.2725   -6.8502    0.0000 C   0  0  2  0  0  0  0  0  0  0  0  0
    9.5628   -7.2708    0.0000 O   0  0  0  0  0  0  0  0  0  0  0  0
    9.5722   -8.0957    0.0000 C   0  0  1  0  0  0  0  0  0  0  0  0
   10.2913   -8.5001    0.0000 C   0  0  2  0  0  0  0  0  0  0  0  0
   11.0010   -8.0795    0.0000 C   0  0  1  0  0  0  0  0  0  0  0  0
   10.9917   -7.2545    0.0000 C   0  0  1  0  0  0  0  0  0  0  0  0
    8.8625   -8.5163    0.0000 C   0  0  0  0  0  0  0  0  0  0  0  0
   10.3007   -9.3250    0.0000 O   0  0  0  0  0  0  0  0  0  0  0  0
   11.7202   -8.4838    0.0000 O   0  0  0  0  0  0  0  0  0  0  0  0
   11.7014   -6.8339    0.0000 O   0  0  0  0  0  0  0  0  0  0  0  0
    8.8718   -9.3413    0.0000 O   0  0  0  0  0  0  0  0  0  0  0  0
    8.1574   -9.7538    0.0000 C   0  0  0  0  0  0  0  0  0  0  0  0
    8.1574  -10.5788    0.0000 C   0  0  0  0  0  0  0  0  0  0  0  0
    7.4429  -10.9913    0.0000 C   0  0  0  0  0  0  0  0  0  0  0  0
    7.4429  -11.8163    0.0000 O   0  0  0  0  0  0  0  0  0  0  0  0
    6.7284  -10.5788    0.0000 O   0  0  0  0  0  0  0  0  0  0  0  0
    7.4429   -9.3413    0.0000 O   0  0  0  0  0  0  0  0  0  0  0  0
    6.6747   -7.2573    0.0000 C   0  0  2  0  0  0  0  0  0  0  0  0
    5.9605   -6.8445    0.0000 O   0  0  0  0  0  0  0  0  0  0  0  0
    5.2458   -7.2566    0.0000 C   0  0  1  0  0  0  0  0  0  0  0  0
    5.2453   -8.0816    0.0000 C   0  0  2  0  0  0  0  0  0  0  0  0
    5.9596   -8.4945    0.0000 C   0  0  1  0  0  0  0  0  0  0  0  0
    6.6743   -8.0823    0.0000 C   0  0  1  0  0  0  0  0  0  0  0  0
    4.5315   -6.8437    0.0000 C   0  0  0  0  0  0  0  0  0  0  0  0
    4.5307   -8.4937    0.0000 O   0  0  0  0  0  0  0  0  0  0  0  0
    5.9592   -9.3195    0.0000 O   0  0  0  0  0  0  0  0  0  0  0  0
    7.3885   -8.4952    0.0000 O   0  0  0  0  0  0  0  0  0  0  0  0
    3.8168   -7.2559    0.0000 O   0  0  0  0  0  0  0  0  0  0  0  0
    3.1073   -6.8349    0.0000 C   0  0  0  0  0  0  0  0  0  0  0  0
    2.3880   -7.2389    0.0000 C   0  0  0  0  0  0  0  0  0  0  0  0
    1.6785   -6.8179    0.0000 C   0  0  0  0  0  0  0  0  0  0  0  0
    0.9591   -7.2219    0.0000 O   0  0  0  0  0  0  0  0  0  0  0  0
    1.6883   -5.9930    0.0000 O   0  0  0  0  0  0  0  0  0  0  0  0
    3.1171   -6.0100    0.0000 O   0  0  0  0  0  0  0  0  0  0  0  0
  1  2  2  0  0  0  0
  2  3  1  0  0  0  0
  3  4  2  0  0  0  0
  4  5  1  0  0  0  0
  5  6  2  0  0  0  0
  6  1  1  0  0  0  0
  4  7  1  0  0  0  0
  7  8  2  0  0  0  0
  8  9  1  0  0  0  0
  9 10  2  0  0  0  0
 10  5  1  0  0  0  0
  8 11  1  0  0  0  0
 12 13  2  0  0  0  0
 13  9  1  0  0  0  0
 12 14  1  0  0  0  0
 14 15  2  0  0  0  0
 15 16  1  0  0  0  0
 16 17  2  0  0  0  0
 17 13  1  0  0  0  0
  1 18  1  0  0  0  0
  3 19  1  0  0  0  0
 16 20  1  0  0  0  0
 15 21  1  0  0  0  0
 22 23  1  0  0  0  0
 23 24  1  0  0  0  0
 24 25  1  0  0  0  0
 25 26  1  0  0  0  0
 26 27  1  0  0  0  0
 27 22  1  0  0  0  0
 24 28  1  1  0  0  0
 25 29  1  6  0  0  0
 26 30  1  1  0  0  0
 27 31  1  6  0  0  0
 28 32  1  0  0  0  0
 22 11  1  1  0  0  0
 32 33  1  0  0  0  0
 33 34  1  0  0  0  0
 34 35  1  0  0  0  0
 35 36  1  0  0  0  0
 35 37  2  0  0  0  0
 33 38  2  0  0  0  0
 39 40  1  0  0  0  0
 40 41  1  0  0  0  0
 41 42  1  0  0  0  0
 42 43  1  0  0  0  0
 43 44  1  0  0  0  0
 44 39  1  0  0  0  0
 41 45  1  1  0  0  0
 42 46  1  6  0  0  0
 43 47  1  1  0  0  0
 44 48  1  6  0  0  0
 45 49  1  0  0  0  0
 49 50  1  0  0  0  0
 50 51  1  0  0  0  0
 51 52  1  0  0  0  0
 52 53  1  0  0  0  0
 52 54  2  0  0  0  0
 50 55  2  0  0  0  0
 39 19  1  1  0  0  0
M  CHG  1  10   1
M  END
>  <cdx:fragmentId>
363

$$$$
