70188.cdx
  Mrv1902 05222410212D          

  7  7  0  0  0  0            999 V2000
    6.1306   -9.3214    0.0000 C   0  0  0  0  0  0  0  0  0  0  0  0
    6.1306  -10.1464    0.0000 C   0  0  0  0  0  0  0  0  0  0  0  0
    6.8450  -10.5589    0.0000 C   0  0  0  0  0  0  0  0  0  0  0  0
    7.5595  -10.1464    0.0000 C   0  0  0  0  0  0  0  0  0  0  0  0
    7.5595   -9.3214    0.0000 C   0  0  0  0  0  0  0  0  0  0  0  0
    6.8450   -8.9089    0.0000 C   0  0  0  0  0  0  0  0  0  0  0  0
    6.8450   -8.0839    0.0000 O   0  0  0  0  0  0  0  0  0  0  0  0
  1  2  1  0  0  0  0
  2  3  1  0  0  0  0
  3  4  1  0  0  0  0
  4  5  1  0  0  0  0
  5  6  1  0  0  0  0
  6  1  1  0  0  0  0
  6  7  1  0  0  0  0
M  END
>  <cdx:fragmentId>
5

$$$$
