70189.cdx
  Mrv1902 05222410212D          

 18 19  0  0  0  0            999 V2000
    6.1306   -9.3214    0.0000 C   0  0  0  0  0  0  0  0  0  0  0  0
    6.1306  -10.1464    0.0000 C   0  0  0  0  0  0  0  0  0  0  0  0
    6.8450  -10.5589    0.0000 C   0  0  0  0  0  0  0  0  0  0  0  0
    7.5595  -10.1464    0.0000 C   0  0  0  0  0  0  0  0  0  0  0  0
    7.5595   -9.3214    0.0000 C   0  0  0  0  0  0  0  0  0  0  0  0
    6.8450   -8.9089    0.0000 C   0  0  0  0  0  0  0  0  0  0  0  0
    6.8450   -8.0839    0.0000 C   0  0  0  0  0  0  0  0  0  0  0  0
    7.5595   -7.6714    0.0000 C   0  0  0  0  0  0  0  0  0  0  0  0
    7.5595   -6.8464    0.0000 C   0  0  0  0  0  0  0  0  0  0  0  0
    6.8450   -6.4339    0.0000 C   0  0  0  0  0  0  0  0  0  0  0  0
    6.1306   -6.8464    0.0000 C   0  0  0  0  0  0  0  0  0  0  0  0
    6.1306   -7.6714    0.0000 C   0  0  0  0  0  0  0  0  0  0  0  0
    8.2740   -8.9089    0.0000 C   0  0  0  0  0  0  0  0  0  0  0  0
    8.2740  -10.5589    0.0000 O   0  0  0  0  0  0  0  0  0  0  0  0
    6.8450  -11.3839    0.0000 C   0  0  0  0  0  0  0  0  0  0  0  0
    5.4161   -8.9089    0.0000 N   0  3  0  0  0  0  0  0  0  0  0  0
    5.4161   -8.0839    0.0000 O   0  0  0  0  0  0  0  0  0  0  0  0
    4.7016   -9.3214    0.0000 O   0  5  0  0  0  0  0  0  0  0  0  0
  1  2  1  0  0  0  0
  2  3  1  0  0  0  0
  3  4  1  0  0  0  0
  4  5  1  0  0  0  0
  5  6  1  0  0  0  0
  6  1  1  0  0  0  0
  6  7  1  0  0  0  0
  7  8  2  0  0  0  0
  8  9  1  0  0  0  0
  9 10  2  0  0  0  0
 10 11  1  0  0  0  0
 11 12  2  0  0  0  0
 12  7  1  0  0  0  0
  5 13  1  0  0  0  0
  4 14  2  0  0  0  0
  3 15  1  0  0  0  0
  1 16  1  0  0  0  0
 16 17  2  0  0  0  0
 16 18  1  0  0  0  0
M  CHG  2  16   1  18  -1
M  END
>  <cdx:fragmentId>
5

$$$$
