7018.cdx
  Mrv1902 05222410202D          

 15 17  0  0  0  0            999 V2000
    8.8911   -6.0270    0.0000 C   0  0  0  0  0  0  0  0  0  0  0  0
    9.6055   -6.4395    0.0000 C   0  0  0  0  0  0  0  0  0  0  0  0
    9.6055   -7.2645    0.0000 C   0  0  0  0  0  0  0  0  0  0  0  0
    8.8911   -7.6770    0.0000 C   0  0  0  0  0  0  0  0  0  0  0  0
    8.1766   -7.2645    0.0000 C   0  0  0  0  0  0  0  0  0  0  0  0
    7.4621   -7.6770    0.0000 C   0  0  0  0  0  0  0  0  0  0  0  0
    6.7477   -7.2645    0.0000 C   0  0  0  0  0  0  0  0  0  0  0  0
    6.0332   -7.6770    0.0000 C   0  0  0  0  0  0  0  0  0  0  0  0
    5.3187   -7.2645    0.0000 C   0  0  0  0  0  0  0  0  0  0  0  0
    5.3187   -6.4395    0.0000 C   0  0  0  0  0  0  0  0  0  0  0  0
    6.0332   -6.0270    0.0000 C   0  0  0  0  0  0  0  0  0  0  0  0
    6.7477   -6.4395    0.0000 C   0  0  0  0  0  0  0  0  0  0  0  0
    7.4621   -6.0270    0.0000 C   0  0  0  0  0  0  0  0  0  0  0  0
    8.1766   -6.4395    0.0000 C   0  0  0  0  0  0  0  0  0  0  0  0
    7.4621   -5.2020    0.0000 O   0  0  0  0  0  0  0  0  0  0  0  0
  1  2  1  0  0  0  0
  2  3  2  0  0  0  0
  3  4  1  0  0  0  0
  4  5  2  0  0  0  0
  5  6  1  0  0  0  0
  6  7  1  0  0  0  0
  7  8  1  0  0  0  0
  8  9  2  0  0  0  0
  9 10  1  0  0  0  0
 10 11  2  0  0  0  0
 11 12  1  0  0  0  0
  7 12  2  0  0  0  0
 12 13  1  0  0  0  0
 13 14  1  0  0  0  0
  5 14  1  0  0  0  0
  1 14  2  0  0  0  0
 13 15  2  0  0  0  0
M  END
>  <cdx:fragmentId>
5

$$$$
