70185.cdx
  Mrv1902 05222410252D          

 10 10  0  0  0  0            999 V2000
    5.6356   -7.4101    0.0000 C   0  0  0  0  0  0  0  0  0  0  0  0
    5.6356   -8.2351    0.0000 C   0  0  0  0  0  0  0  0  0  0  0  0
    6.3500   -8.6476    0.0000 C   0  0  0  0  0  0  0  0  0  0  0  0
    7.0645   -8.2351    0.0000 C   0  0  0  0  0  0  0  0  0  0  0  0
    7.0645   -7.4101    0.0000 C   0  0  0  0  0  0  0  0  0  0  0  0
    6.3500   -6.9976    0.0000 C   0  0  0  0  0  0  0  0  0  0  0  0
    6.3500   -9.4726    0.0000 C   0  0  0  0  0  0  0  0  0  0  0  0
    6.3500   -6.1726    0.0000 C   0  0  0  0  0  0  0  0  0  0  0  0
    5.6356   -5.7601    0.0000 C   0  0  0  0  0  0  0  0  0  0  0  0
    7.0645   -5.7601    0.0000 C   0  0  0  0  0  0  0  0  0  0  0  0
  1  2  1  0  0  0  0
  2  3  2  0  0  0  0
  3  4  1  0  0  0  0
  4  5  1  0  0  0  0
  5  6  1  0  0  0  0
  6  1  2  0  0  0  0
  3  7  1  0  0  0  0
  6  8  1  0  0  0  0
  8  9  1  0  0  0  0
  8 10  1  0  0  0  0
M  END
>  <cdx:fragmentId>
5

$$$$
