70183.cdx
  Mrv1902 05222410242D          

 35 38  0  0  0  0            999 V2000
    4.7968   -4.7564    0.0000 C   0  0  0  0  0  0  0  0  0  0  0  0
    4.7968   -5.5814    0.0000 C   0  0  0  0  0  0  0  0  0  0  0  0
    5.5113   -5.9939    0.0000 C   0  0  0  0  0  0  0  0  0  0  0  0
    6.2257   -5.5814    0.0000 C   0  0  0  0  0  0  0  0  0  0  0  0
    6.2257   -4.7564    0.0000 C   0  0  0  0  0  0  0  0  0  0  0  0
    5.5113   -4.3439    0.0000 C   0  0  0  0  0  0  0  0  0  0  0  0
    6.9402   -5.9939    0.0000 C   0  0  0  0  0  0  0  0  0  0  0  0
    7.6547   -5.5814    0.0000 C   0  0  0  0  0  0  0  0  0  0  0  0
    7.6547   -4.7564    0.0000 C   0  0  0  0  0  0  0  0  0  0  0  0
    6.9402   -4.3439    0.0000 O   0  3  0  0  0  0  0  0  0  0  0  0
    8.3692   -5.9939    0.0000 O   0  0  0  0  0  0  0  0  0  0  0  0
    9.0836   -4.7564    0.0000 C   0  0  0  0  0  0  0  0  0  0  0  0
    8.3692   -4.3439    0.0000 C   0  0  0  0  0  0  0  0  0  0  0  0
    9.7981   -4.3439    0.0000 C   0  0  0  0  0  0  0  0  0  0  0  0
    9.7981   -3.5189    0.0000 C   0  0  0  0  0  0  0  0  0  0  0  0
    9.0836   -3.1064    0.0000 C   0  0  0  0  0  0  0  0  0  0  0  0
    8.3692   -3.5189    0.0000 C   0  0  0  0  0  0  0  0  0  0  0  0
    4.0823   -4.3439    0.0000 O   0  0  0  0  0  0  0  0  0  0  0  0
    5.5113   -6.8189    0.0000 O   0  0  0  0  0  0  0  0  0  0  0  0
    9.0836   -2.2814    0.0000 O   0  0  0  0  0  0  0  0  0  0  0  0
   10.5126   -3.1064    0.0000 O   0  0  0  0  0  0  0  0  0  0  0  0
    8.3888   -6.8227    0.0000 C   0  0  2  0  0  0  0  0  0  0  0  0
    7.6791   -7.2433    0.0000 O   0  0  0  0  0  0  0  0  0  0  0  0
    7.6884   -8.0682    0.0000 C   0  0  1  0  0  0  0  0  0  0  0  0
    8.4076   -8.4726    0.0000 C   0  0  2  0  0  0  0  0  0  0  0  0
    9.1173   -8.0520    0.0000 C   0  0  1  0  0  0  0  0  0  0  0  0
    9.1079   -7.2270    0.0000 C   0  0  1  0  0  0  0  0  0  0  0  0
    6.9787   -8.4888    0.0000 C   0  0  0  0  0  0  0  0  0  0  0  0
    8.4169   -9.2975    0.0000 O   0  0  0  0  0  0  0  0  0  0  0  0
    9.8364   -8.4563    0.0000 O   0  0  0  0  0  0  0  0  0  0  0  0
    9.8176   -6.8064    0.0000 O   0  0  0  0  0  0  0  0  0  0  0  0
    6.9881   -9.3138    0.0000 O   0  0  0  0  0  0  0  0  0  0  0  0
    6.2736   -9.7263    0.0000 C   0  0  0  0  0  0  0  0  0  0  0  0
    6.2736  -10.5513    0.0000 C   0  0  0  0  0  0  0  0  0  0  0  0
    5.5591   -9.3138    0.0000 O   0  0  0  0  0  0  0  0  0  0  0  0
  1  2  2  0  0  0  0
  2  3  1  0  0  0  0
  3  4  2  0  0  0  0
  4  5  1  0  0  0  0
  5  6  2  0  0  0  0
  6  1  1  0  0  0  0
  4  7  1  0  0  0  0
  7  8  2  0  0  0  0
  8  9  1  0  0  0  0
  9 10  2  0  0  0  0
 10  5  1  0  0  0  0
  8 11  1  0  0  0  0
 12 13  2  0  0  0  0
 13  9  1  0  0  0  0
 12 14  1  0  0  0  0
 14 15  2  0  0  0  0
 15 16  1  0  0  0  0
 16 17  2  0  0  0  0
 17 13  1  0  0  0  0
  1 18  1  0  0  0  0
  3 19  1  0  0  0  0
 16 20  1  0  0  0  0
 15 21  1  0  0  0  0
 22 23  1  0  0  0  0
 23 24  1  0  0  0  0
 24 25  1  0  0  0  0
 25 26  1  0  0  0  0
 26 27  1  0  0  0  0
 27 22  1  0  0  0  0
 24 28  1  1  0  0  0
 25 29  1  6  0  0  0
 26 30  1  1  0  0  0
 27 31  1  6  0  0  0
 28 32  1  0  0  0  0
 22 11  1  1  0  0  0
 32 33  1  0  0  0  0
 33 34  1  0  0  0  0
 33 35  2  0  0  0  0
M  CHG  1  10   1
M  END
>  <cdx:fragmentId>
363

$$$$
