70190.cdx
  Mrv1902 05222410242D          

  9  9  0  0  0  0            999 V2000
    6.7356   -6.1726    0.0000 C   0  0  0  0  0  0  0  0  0  0  0  0
    6.7356   -6.9976    0.0000 C   0  0  0  0  0  0  0  0  0  0  0  0
    7.4500   -7.4101    0.0000 C   0  0  0  0  0  0  0  0  0  0  0  0
    8.1645   -6.9976    0.0000 C   0  0  0  0  0  0  0  0  0  0  0  0
    8.1645   -6.1726    0.0000 C   0  0  0  0  0  0  0  0  0  0  0  0
    7.4500   -5.7601    0.0000 C   0  0  0  0  0  0  0  0  0  0  0  0
    6.0211   -5.7601    0.0000 O   0  0  0  0  0  0  0  0  0  0  0  0
    7.4500   -4.9351    0.0000 C   0  0  0  0  0  0  0  0  0  0  0  0
    8.1645   -4.5226    0.0000 C   0  0  0  0  0  0  0  0  0  0  0  0
  1  2  1  0  0  0  0
  2  3  1  0  0  0  0
  3  4  1  0  0  0  0
  4  5  1  0  0  0  0
  5  6  1  0  0  0  0
  6  1  1  0  0  0  0
  1  7  2  0  0  0  0
  6  8  1  0  0  0  0
  8  9  1  0  0  0  0
M  END
>  <cdx:fragmentId>
5

$$$$
