70191.cdx
  Mrv1902 05222410252D          

 12 13  0  0  0  0            999 V2000
    5.6081   -9.1426    0.0000 C   0  0  0  0  0  0  0  0  0  0  0  0
    5.6081   -9.9676    0.0000 C   0  0  0  0  0  0  0  0  0  0  0  0
    6.3225  -10.3801    0.0000 C   0  0  0  0  0  0  0  0  0  0  0  0
    7.0370   -9.9676    0.0000 C   0  0  0  0  0  0  0  0  0  0  0  0
    7.0370   -9.1426    0.0000 C   0  0  0  0  0  0  0  0  0  0  0  0
    6.3225   -8.7301    0.0000 C   0  0  0  0  0  0  0  0  0  0  0  0
    6.3225   -7.9051    0.0000 C   0  0  0  0  0  0  0  0  0  0  0  0
    7.0370   -7.4926    0.0000 C   0  0  0  0  0  0  0  0  0  0  0  0
    7.0370   -6.6676    0.0000 C   0  0  0  0  0  0  0  0  0  0  0  0
    6.3225   -6.2551    0.0000 C   0  0  0  0  0  0  0  0  0  0  0  0
    5.6081   -6.6676    0.0000 C   0  0  0  0  0  0  0  0  0  0  0  0
    5.6081   -7.4926    0.0000 C   0  0  0  0  0  0  0  0  0  0  0  0
  1  2  1  0  0  0  0
  2  3  1  0  0  0  0
  3  4  1  0  0  0  0
  4  5  1  0  0  0  0
  5  6  1  0  0  0  0
  6  1  1  0  0  0  0
  6  7  1  0  0  0  0
  7  8  2  0  0  0  0
  8  9  1  0  0  0  0
  9 10  2  0  0  0  0
 10 11  1  0  0  0  0
 11 12  2  0  0  0  0
 12  7  1  0  0  0  0
M  END
>  <cdx:fragmentId>
5

$$$$
