70197.cdx
  Mrv1902 05222410242D          

 44 48  0  0  0  0            999 V2000
    5.5943   -7.6576    0.0000 C   0  0  0  0  0  0  0  0  0  0  0  0
    5.5943   -8.4826    0.0000 C   0  0  0  0  0  0  0  0  0  0  0  0
    6.3088   -8.8951    0.0000 C   0  0  0  0  0  0  0  0  0  0  0  0
    7.0232   -8.4826    0.0000 C   0  0  0  0  0  0  0  0  0  0  0  0
    7.0232   -7.6576    0.0000 C   0  0  0  0  0  0  0  0  0  0  0  0
    6.3088   -7.2451    0.0000 C   0  0  0  0  0  0  0  0  0  0  0  0
    7.7377   -8.8951    0.0000 C   0  0  0  0  0  0  0  0  0  0  0  0
    8.4522   -8.4826    0.0000 C   0  0  0  0  0  0  0  0  0  0  0  0
    8.4522   -7.6576    0.0000 C   0  0  0  0  0  0  0  0  0  0  0  0
    7.7377   -7.2451    0.0000 O   0  3  0  0  0  0  0  0  0  0  0  0
    9.1667   -8.8951    0.0000 O   0  0  0  0  0  0  0  0  0  0  0  0
    9.8811   -7.6576    0.0000 C   0  0  0  0  0  0  0  0  0  0  0  0
    9.1667   -7.2451    0.0000 C   0  0  0  0  0  0  0  0  0  0  0  0
   10.5956   -7.2451    0.0000 C   0  0  0  0  0  0  0  0  0  0  0  0
   10.5956   -6.4201    0.0000 C   0  0  0  0  0  0  0  0  0  0  0  0
    9.8811   -6.0076    0.0000 C   0  0  0  0  0  0  0  0  0  0  0  0
    9.1667   -6.4201    0.0000 C   0  0  0  0  0  0  0  0  0  0  0  0
    6.3088   -9.7201    0.0000 O   0  0  0  0  0  0  0  0  0  0  0  0
    4.8798   -7.2451    0.0000 O   0  0  0  0  0  0  0  0  0  0  0  0
    9.8811   -5.1826    0.0000 O   0  0  0  0  0  0  0  0  0  0  0  0
   11.3101   -6.0076    0.0000 O   0  0  0  0  0  0  0  0  0  0  0  0
   11.3101   -7.6576    0.0000 O   0  0  0  0  0  0  0  0  0  0  0  0
    5.5943  -10.1326    0.0000 C   0  0  2  0  0  0  0  0  0  0  0  0
    4.8798   -9.7201    0.0000 O   0  0  0  0  0  0  0  0  0  0  0  0
    4.1654  -10.1326    0.0000 C   0  0  1  0  0  0  0  0  0  0  0  0
    4.1654  -10.9576    0.0000 C   0  0  2  0  0  0  0  0  0  0  0  0
    4.8798  -11.3701    0.0000 C   0  0  1  0  0  0  0  0  0  0  0  0
    5.5943  -10.9576    0.0000 C   0  0  1  0  0  0  0  0  0  0  0  0
    3.4509   -9.7201    0.0000 C   0  0  0  0  0  0  0  0  0  0  0  0
    4.8798  -12.1951    0.0000 O   0  0  0  0  0  0  0  0  0  0  0  0
    6.3088  -11.3701    0.0000 O   0  0  0  0  0  0  0  0  0  0  0  0
    3.4509  -11.3701    0.0000 O   0  0  0  0  0  0  0  0  0  0  0  0
    2.7364  -10.1326    0.0000 O   0  0  0  0  0  0  0  0  0  0  0  0
    9.1821   -9.7205    0.0000 C   0  0  2  0  0  0  0  0  0  0  0  0
    8.4744  -10.1445    0.0000 O   0  0  0  0  0  0  0  0  0  0  0  0
    8.4878  -10.9694    0.0000 C   0  0  1  0  0  0  0  0  0  0  0  0
    9.2089  -11.3702    0.0000 C   0  0  2  0  0  0  0  0  0  0  0  0
    9.9165  -10.9462    0.0000 C   0  0  1  0  0  0  0  0  0  0  0  0
    9.9032  -10.1213    0.0000 C   0  0  1  0  0  0  0  0  0  0  0  0
    7.7801  -11.3934    0.0000 C   0  0  0  0  0  0  0  0  0  0  0  0
   10.6376  -11.3471    0.0000 O   0  0  0  0  0  0  0  0  0  0  0  0
   10.6109   -9.6973    0.0000 O   0  0  0  0  0  0  0  0  0  0  0  0
    9.2222  -12.1951    0.0000 O   0  0  0  0  0  0  0  0  0  0  0  0
    7.7935  -12.2183    0.0000 O   0  0  0  0  0  0  0  0  0  0  0  0
  1  2  2  0  0  0  0
  2  3  1  0  0  0  0
  3  4  2  0  0  0  0
  4  5  1  0  0  0  0
  5  6  2  0  0  0  0
  6  1  1  0  0  0  0
  4  7  1  0  0  0  0
  7  8  2  0  0  0  0
  8  9  1  0  0  0  0
  9 10  2  0  0  0  0
 10  5  1  0  0  0  0
  8 11  1  0  0  0  0
 12 13  2  0  0  0  0
 13  9  1  0  0  0  0
 12 14  1  0  0  0  0
 14 15  2  0  0  0  0
 15 16  1  0  0  0  0
 16 17  2  0  0  0  0
 17 13  1  0  0  0  0
  3 18  1  0  0  0  0
  1 19  1  0  0  0  0
 16 20  1  0  0  0  0
 15 21  1  0  0  0  0
 14 22  1  0  0  0  0
 23 18  1  1  0  0  0
 23 24  1  0  0  0  0
 24 25  1  0  0  0  0
 25 26  1  0  0  0  0
 26 27  1  0  0  0  0
 27 28  1  0  0  0  0
 28 23  1  0  0  0  0
 25 29  1  1  0  0  0
 27 30  1  1  0  0  0
 28 31  1  6  0  0  0
 26 32  1  6  0  0  0
 29 33  1  0  0  0  0
 34 35  1  0  0  0  0
 35 36  1  0  0  0  0
 36 37  1  0  0  0  0
 37 38  1  0  0  0  0
 38 39  1  0  0  0  0
 39 34  1  0  0  0  0
 36 40  1  1  0  0  0
 38 41  1  1  0  0  0
 39 42  1  6  0  0  0
 37 43  1  6  0  0  0
 40 44  1  0  0  0  0
 34 11  1  1  0  0  0
M  CHG  1  10   1
M  END
>  <cdx:fragmentId>
5

$$$$
