70195.cdx
  Mrv1902 05222410242D          

 34 37  0  0  0  0            999 V2000
    3.3393   -6.2689    0.0000 C   0  0  0  0  0  0  0  0  0  0  0  0
    3.3393   -7.0939    0.0000 C   0  0  0  0  0  0  0  0  0  0  0  0
    4.0538   -7.5064    0.0000 C   0  0  0  0  0  0  0  0  0  0  0  0
    4.7682   -7.0939    0.0000 C   0  0  0  0  0  0  0  0  0  0  0  0
    4.7682   -6.2689    0.0000 C   0  0  0  0  0  0  0  0  0  0  0  0
    4.0538   -5.8564    0.0000 C   0  0  0  0  0  0  0  0  0  0  0  0
    5.4827   -7.5064    0.0000 C   0  0  0  0  0  0  0  0  0  0  0  0
    6.1972   -7.0939    0.0000 C   0  0  0  0  0  0  0  0  0  0  0  0
    6.1972   -6.2689    0.0000 C   0  0  0  0  0  0  0  0  0  0  0  0
    5.4827   -5.8564    0.0000 O   0  3  0  0  0  0  0  0  0  0  0  0
    6.9117   -7.5064    0.0000 O   0  0  0  0  0  0  0  0  0  0  0  0
    7.6261   -6.2689    0.0000 C   0  0  0  0  0  0  0  0  0  0  0  0
    6.9117   -5.8564    0.0000 C   0  0  0  0  0  0  0  0  0  0  0  0
    8.3406   -5.8564    0.0000 C   0  0  0  0  0  0  0  0  0  0  0  0
    8.3406   -5.0314    0.0000 C   0  0  0  0  0  0  0  0  0  0  0  0
    7.6261   -4.6189    0.0000 C   0  0  0  0  0  0  0  0  0  0  0  0
    6.9117   -5.0314    0.0000 C   0  0  0  0  0  0  0  0  0  0  0  0
    6.1972   -8.7439    0.0000 O   0  0  0  0  0  0  0  0  0  0  0  0
    6.9117   -8.3314    0.0000 C   0  0  2  0  0  0  0  0  0  0  0  0
    6.1972   -9.5689    0.0000 C   0  0  1  0  0  0  0  0  0  0  0  0
    6.9117   -9.9814    0.0000 C   0  0  2  0  0  0  0  0  0  0  0  0
    7.6261   -9.5689    0.0000 C   0  0  1  0  0  0  0  0  0  0  0  0
    7.6261   -8.7439    0.0000 C   0  0  1  0  0  0  0  0  0  0  0  0
    5.4827   -9.9814    0.0000 C   0  0  0  0  0  0  0  0  0  0  0  0
    5.4827  -10.8064    0.0000 O   0  0  0  0  0  0  0  0  0  0  0  0
    6.9117  -10.8064    0.0000 O   0  0  0  0  0  0  0  0  0  0  0  0
    4.0538   -8.3314    0.0000 O   0  0  0  0  0  0  0  0  0  0  0  0
    2.6248   -5.8564    0.0000 O   0  0  0  0  0  0  0  0  0  0  0  0
    7.6261   -3.7939    0.0000 O   0  0  0  0  0  0  0  0  0  0  0  0
    9.0551   -4.6189    0.0000 O   0  0  0  0  0  0  0  0  0  0  0  0
    9.0551   -6.2689    0.0000 O   0  0  0  0  0  0  0  0  0  0  0  0
    8.3406   -9.9814    0.0000 O   0  0  0  0  0  0  0  0  0  0  0  0
    8.3406   -8.3314    0.0000 O   0  0  0  0  0  0  0  0  0  0  0  0
    4.7682   -9.5689    0.0000 O   0  0  0  0  0  0  0  0  0  0  0  0
  1  2  2  0  0  0  0
  2  3  1  0  0  0  0
  3  4  2  0  0  0  0
  4  5  1  0  0  0  0
  5  6  2  0  0  0  0
  6  1  1  0  0  0  0
  4  7  1  0  0  0  0
  7  8  2  0  0  0  0
  8  9  1  0  0  0  0
  9 10  2  0  0  0  0
 10  5  1  0  0  0  0
  8 11  1  0  0  0  0
 12 13  2  0  0  0  0
 13  9  1  0  0  0  0
 12 14  1  0  0  0  0
 14 15  2  0  0  0  0
 15 16  1  0  0  0  0
 16 17  2  0  0  0  0
 17 13  1  0  0  0  0
 18 19  1  0  0  0  0
 19 11  1  1  0  0  0
 18 20  1  0  0  0  0
 20 21  1  0  0  0  0
 21 22  1  0  0  0  0
 22 23  1  0  0  0  0
 23 19  1  0  0  0  0
 20 24  1  1  0  0  0
 24 25  1  0  0  0  0
 21 26  1  6  0  0  0
  3 27  1  0  0  0  0
  1 28  1  0  0  0  0
 16 29  1  0  0  0  0
 15 30  1  0  0  0  0
 14 31  1  0  0  0  0
 22 32  1  1  0  0  0
 23 33  1  6  0  0  0
 24 34  2  0  0  0  0
M  CHG  1  10   1
M  END
>  <cdx:fragmentId>
5

$$$$
