702.cdx
  Mrv1902 05222410192D          

  3  2  0  0  0  0            999 V2000
    7.2508   -2.5861    0.0000 C   0  0  0  0  0  0  0  0  0  0  0  0
    6.5363   -2.9986    0.0000 C   0  0  0  0  0  0  0  0  0  0  0  0
    7.9652   -2.9986    0.0000 O   0  0  0  0  0  0  0  0  0  0  0  0
  1  2  1  0  0  0  0
  1  3  1  0  0  0  0
M  END
>  <cdx:fragmentId>
5

$$$$
