70204.cdx
  Mrv1902 05222410222D          

 31 34  0  0  0  0            999 V2000
    3.2293   -9.7889    0.0000 C   0  0  0  0  0  0  0  0  0  0  0  0
    3.2293  -10.6139    0.0000 C   0  0  0  0  0  0  0  0  0  0  0  0
    3.9438  -11.0264    0.0000 C   0  0  0  0  0  0  0  0  0  0  0  0
    4.6582  -10.6139    0.0000 C   0  0  0  0  0  0  0  0  0  0  0  0
    4.6582   -9.7889    0.0000 C   0  0  0  0  0  0  0  0  0  0  0  0
    3.9438   -9.3764    0.0000 C   0  0  0  0  0  0  0  0  0  0  0  0
    5.3727   -9.3764    0.0000 C   0  0  0  0  0  0  0  0  0  0  0  0
    5.3727   -8.5514    0.0000 C   0  0  0  0  0  0  0  0  0  0  0  0
    4.6582   -8.1389    0.0000 C   0  0  0  0  0  0  0  0  0  0  0  0
    3.9438   -8.5514    0.0000 C   0  0  0  0  0  0  0  0  0  0  0  0
    6.0872   -9.7889    0.0000 C   0  0  0  0  0  0  0  0  0  0  0  0
    6.8017   -9.3764    0.0000 C   0  0  0  0  0  0  0  0  0  0  0  0
    6.8017   -8.5514    0.0000 C   0  0  0  0  0  0  0  0  0  0  0  0
    6.0872   -8.1389    0.0000 C   0  0  0  0  0  0  0  0  0  0  0  0
    7.5161   -9.7889    0.0000 O   0  0  0  0  0  0  0  0  0  0  0  0
    8.2306  -10.2014    0.0000 C   0  0  0  0  0  0  0  0  0  0  0  0
    8.2306  -11.0264    0.0000 O   0  0  0  0  0  0  0  0  0  0  0  0
    8.9451  -11.4389    0.0000 C   0  0  0  0  0  0  0  0  0  0  0  0
    9.6595  -11.0264    0.0000 C   0  0  0  0  0  0  0  0  0  0  0  0
    9.6595  -10.2014    0.0000 C   0  0  0  0  0  0  0  0  0  0  0  0
    8.9451   -9.7889    0.0000 C   0  0  0  0  0  0  0  0  0  0  0  0
    2.5148  -11.0264    0.0000 O   0  0  0  0  0  0  0  0  0  0  0  0
    3.9438  -11.8514    0.0000 O   0  0  0  0  0  0  0  0  0  0  0  0
    3.2293  -12.2639    0.0000 C   0  0  0  0  0  0  0  0  0  0  0  0
    5.3727  -11.0264    0.0000 O   0  0  0  0  0  0  0  0  0  0  0  0
    5.3727  -11.8514    0.0000 C   0  0  0  0  0  0  0  0  0  0  0  0
    6.0872  -10.6139    0.0000 O   0  0  0  0  0  0  0  0  0  0  0  0
    8.9451  -12.2639    0.0000 O   0  0  0  0  0  0  0  0  0  0  0  0
   10.3740  -11.4389    0.0000 O   0  0  0  0  0  0  0  0  0  0  0  0
   10.3740   -9.7889    0.0000 O   0  0  0  0  0  0  0  0  0  0  0  0
    8.9451   -8.9639    0.0000 O   0  0  0  0  0  0  0  0  0  0  0  0
  1  2  1  0  0  0  0
  2  3  2  0  0  0  0
  3  4  1  0  0  0  0
  4  5  2  0  0  0  0
  5  6  1  0  0  0  0
  6  1  2  0  0  0  0
  5  7  1  0  0  0  0
  7  8  2  0  0  0  0
  8  9  1  0  0  0  0
  9 10  1  0  0  0  0
 10  6  1  0  0  0  0
  7 11  1  0  0  0  0
 11 12  2  0  0  0  0
 12 13  1  0  0  0  0
 13 14  2  0  0  0  0
 14  8  1  0  0  0  0
 12 15  1  0  0  0  0
 15 16  1  0  0  0  0
 16 17  1  0  0  0  0
 17 18  1  0  0  0  0
 18 19  1  0  0  0  0
 19 20  1  0  0  0  0
 20 21  1  0  0  0  0
 21 16  1  0  0  0  0
  2 22  1  0  0  0  0
  3 23  1  0  0  0  0
 23 24  1  0  0  0  0
  4 25  1  0  0  0  0
 25 26  1  0  0  0  0
 11 27  1  0  0  0  0
 18 28  1  0  0  0  0
 19 29  1  0  0  0  0
 20 30  1  0  0  0  0
 21 31  1  0  0  0  0
M  END
>  <cdx:fragmentId>
5

$$$$
