70206.cdx
  Mrv1902 05222410232D          

 20 22  0  0  0  0            999 V2000
    4.1231   -8.5651    0.0000 C   0  0  0  0  0  0  0  0  0  0  0  0
    4.1231   -9.3901    0.0000 C   0  0  0  0  0  0  0  0  0  0  0  0
    4.8375   -9.8026    0.0000 C   0  0  0  0  0  0  0  0  0  0  0  0
    5.5520   -9.3901    0.0000 C   0  0  0  0  0  0  0  0  0  0  0  0
    5.5520   -8.5651    0.0000 C   0  0  0  0  0  0  0  0  0  0  0  0
    4.8375   -8.1526    0.0000 C   0  0  0  0  0  0  0  0  0  0  0  0
    6.2665   -9.8026    0.0000 C   0  0  0  0  0  0  0  0  0  0  0  0
    6.9809   -9.3901    0.0000 C   0  0  0  0  0  0  0  0  0  0  0  0
    6.9809   -8.5651    0.0000 C   0  0  0  0  0  0  0  0  0  0  0  0
    6.2665   -8.1526    0.0000 O   0  3  0  0  0  0  0  0  0  0  0  0
    8.4099   -8.5651    0.0000 C   0  0  0  0  0  0  0  0  0  0  0  0
    7.6954   -8.1526    0.0000 C   0  0  0  0  0  0  0  0  0  0  0  0
    9.1244   -8.1526    0.0000 C   0  0  0  0  0  0  0  0  0  0  0  0
    9.1244   -7.3276    0.0000 C   0  0  0  0  0  0  0  0  0  0  0  0
    8.4099   -6.9151    0.0000 C   0  0  0  0  0  0  0  0  0  0  0  0
    7.6954   -7.3276    0.0000 C   0  0  0  0  0  0  0  0  0  0  0  0
    3.4086   -8.1526    0.0000 O   0  0  0  0  0  0  0  0  0  0  0  0
    9.8388   -6.9151    0.0000 O   0  0  0  0  0  0  0  0  0  0  0  0
    4.8375  -10.6276    0.0000 O   0  0  0  0  0  0  0  0  0  0  0  0
    4.1231  -11.0401    0.0000 C   0  0  0  0  0  0  0  0  0  0  0  0
  1  2  2  0  0  0  0
  2  3  1  0  0  0  0
  3  4  2  0  0  0  0
  4  5  1  0  0  0  0
  5  6  2  0  0  0  0
  6  1  1  0  0  0  0
  4  7  1  0  0  0  0
  7  8  2  0  0  0  0
  8  9  1  0  0  0  0
  9 10  2  0  0  0  0
 10  5  1  0  0  0  0
 11 12  1  0  0  0  0
 12  9  1  0  0  0  0
 11 13  2  0  0  0  0
 13 14  1  0  0  0  0
 14 15  2  0  0  0  0
 15 16  1  0  0  0  0
 16 12  2  0  0  0  0
  1 17  1  0  0  0  0
 14 18  1  0  0  0  0
  3 19  1  0  0  0  0
 19 20  1  0  0  0  0
M  CHG  1  10   1
M  END
>  <cdx:fragmentId>
5

$$$$
