70200.cdx
  Mrv1902 05222410212D          

 39 42  0  0  0  0            999 V2000
    7.6156   -7.9739    0.0000 C   0  0  0  0  0  0  0  0  0  0  0  0
    7.6156   -8.7989    0.0000 C   0  0  0  0  0  0  0  0  0  0  0  0
    8.3300   -9.2114    0.0000 C   0  0  0  0  0  0  0  0  0  0  0  0
    9.0445   -8.7989    0.0000 C   0  0  0  0  0  0  0  0  0  0  0  0
    9.0445   -7.9739    0.0000 C   0  0  0  0  0  0  0  0  0  0  0  0
    8.3300   -7.5614    0.0000 C   0  0  0  0  0  0  0  0  0  0  0  0
    9.7590   -9.2114    0.0000 C   0  0  0  0  0  0  0  0  0  0  0  0
   10.4734   -8.7989    0.0000 C   0  0  0  0  0  0  0  0  0  0  0  0
   10.4734   -7.9739    0.0000 C   0  0  0  0  0  0  0  0  0  0  0  0
    9.7590   -7.5614    0.0000 O   0  0  0  0  0  0  0  0  0  0  0  0
    8.3300  -10.0364    0.0000 O   0  0  0  0  0  0  0  0  0  0  0  0
    9.7590  -10.0364    0.0000 O   0  0  0  0  0  0  0  0  0  0  0  0
   11.1879   -7.5614    0.0000 C   0  0  0  0  0  0  0  0  0  0  0  0
   11.1879   -6.7364    0.0000 C   0  0  0  0  0  0  0  0  0  0  0  0
   11.9024   -7.9739    0.0000 C   0  0  0  0  0  0  0  0  0  0  0  0
   12.6169   -7.5614    0.0000 C   0  0  0  0  0  0  0  0  0  0  0  0
   12.6169   -6.7364    0.0000 C   0  0  0  0  0  0  0  0  0  0  0  0
   11.9024   -6.3239    0.0000 C   0  0  0  0  0  0  0  0  0  0  0  0
   11.9024   -5.4989    0.0000 O   0  0  0  0  0  0  0  0  0  0  0  0
    6.9011   -7.5614    0.0000 O   0  0  0  0  0  0  0  0  0  0  0  0
   13.3313   -5.4989    0.0000 C   0  0  0  0  0  0  0  0  0  0  0  0
   13.3313   -6.3239    0.0000 O   0  0  0  0  0  0  0  0  0  0  0  0
    6.1866   -7.9739    0.0000 C   0  0  2  0  0  0  0  0  0  0  0  0
    5.4721   -7.5614    0.0000 O   0  0  0  0  0  0  0  0  0  0  0  0
    4.7577   -7.9739    0.0000 C   0  0  1  0  0  0  0  0  0  0  0  0
    4.7577   -8.7989    0.0000 C   0  0  2  0  0  0  0  0  0  0  0  0
    5.4721   -9.2114    0.0000 C   0  0  1  0  0  0  0  0  0  0  0  0
    6.1866   -8.7989    0.0000 C   0  0  1  0  0  0  0  0  0  0  0  0
    4.0432   -7.5614    0.0000 C   0  0  0  0  0  0  0  0  0  0  0  0
    5.4721  -10.0364    0.0000 O   0  0  0  0  0  0  0  0  0  0  0  0
    6.9011   -9.2114    0.0000 O   0  0  0  0  0  0  0  0  0  0  0  0
    4.0432   -9.2114    0.0000 O   0  0  0  0  0  0  0  0  0  0  0  0
    3.3287   -7.9739    0.0000 O   0  0  0  0  0  0  0  0  0  0  0  0
    2.6143   -7.5614    0.0000 C   0  0  0  0  0  0  0  0  0  0  0  0
    1.8998   -7.9739    0.0000 C   0  0  0  0  0  0  0  0  0  0  0  0
    1.1853   -7.5614    0.0000 C   0  0  0  0  0  0  0  0  0  0  0  0
    0.4708   -7.9739    0.0000 O   0  0  0  0  0  0  0  0  0  0  0  0
    1.1853   -6.7364    0.0000 O   0  0  0  0  0  0  0  0  0  0  0  0
    2.6143   -6.7364    0.0000 O   0  0  0  0  0  0  0  0  0  0  0  0
  1  2  2  0  0  0  0
  2  3  1  0  0  0  0
  3  4  2  0  0  0  0
  4  5  1  0  0  0  0
  5  6  2  0  0  0  0
  6  1  1  0  0  0  0
  4  7  1  0  0  0  0
  7  8  1  0  0  0  0
  8  9  2  0  0  0  0
  9 10  1  0  0  0  0
 10  5  1  0  0  0  0
  3 11  1  0  0  0  0
 12  7  2  0  0  0  0
  9 13  1  0  0  0  0
 13 14  1  0  0  0  0
 13 15  2  0  0  0  0
 15 16  1  0  0  0  0
 16 17  2  0  0  0  0
 17 18  1  0  0  0  0
 18 14  2  0  0  0  0
 22 21  1  0  0  0  0
 17 22  1  0  0  0  0
 19 18  1  0  0  0  0
  1 20  1  0  0  0  0
 23 20  1  1  0  0  0
 23 24  1  0  0  0  0
 24 25  1  0  0  0  0
 25 26  1  0  0  0  0
 26 27  1  0  0  0  0
 27 28  1  0  0  0  0
 28 23  1  0  0  0  0
 25 29  1  1  0  0  0
 27 30  1  1  0  0  0
 28 31  1  6  0  0  0
 26 32  1  6  0  0  0
 29 33  1  0  0  0  0
 33 34  1  0  0  0  0
 34 35  1  0  0  0  0
 35 36  1  0  0  0  0
 36 37  1  0  0  0  0
 36 38  2  0  0  0  0
 34 39  2  0  0  0  0
M  END
>  <cdx:fragmentId>
5

$$$$
