70207.cdx
  Mrv1902 05222410222D          

 43 47  0  0  0  0            999 V2000
    5.1612  -11.0137    0.0000 C   0  0  0  0  0  0  0  0  0  0  0  0
    5.1612  -11.8387    0.0000 C   0  0  1  0  0  0  0  0  0  0  0  0
    5.8756  -12.2512    0.0000 C   0  0  0  0  0  0  0  0  0  0  0  0
    6.5901  -11.8387    0.0000 C   0  0  1  0  0  0  0  0  0  0  0  0
    6.5901  -11.0137    0.0000 C   0  0  2  0  0  0  0  0  0  0  0  0
    5.8756  -10.6013    0.0000 C   0  0  0  0  0  0  0  0  0  0  0  0
    7.3046  -12.2512    0.0000 C   0  0  0  0  0  0  0  0  0  0  0  0
    8.0191  -11.8387    0.0000 C   0  0  0  0  0  0  0  0  0  0  0  0
    8.0191  -11.0137    0.0000 C   0  0  2  0  0  0  0  0  0  0  0  0
    7.3046  -10.6013    0.0000 C   0  0  2  0  0  0  0  0  0  0  0  0
    8.7335  -10.6013    0.0000 C   0  0  1  0  0  0  0  0  0  0  0  0
    8.7335   -9.7763    0.0000 C   0  0  1  0  0  0  0  0  0  0  0  0
    8.0191   -9.3637    0.0000 C   0  0  1  0  0  0  0  0  0  0  0  0
    7.3046   -9.7763    0.0000 C   0  0  1  0  0  0  0  0  0  0  0  0
    4.4467  -12.2512    0.0000 O   0  0  0  0  0  0  0  0  0  0  0  0
    6.5901  -10.1888    0.0000 C   0  0  0  0  0  0  0  0  0  0  0  0
    8.7335  -11.4262    0.0000 O   0  0  0  0  0  0  0  0  0  0  0  0
    8.7335   -8.9513    0.0000 C   0  0  0  0  0  0  0  0  0  0  0  0
    8.0191   -8.5388    0.0000 O   0  0  0  0  0  0  0  0  0  0  0  0
    7.3046  -11.4262    0.0000 H   0  0  0  0  0  0  0  0  0  0  0  0
    6.5901   -9.3637    0.0000 O   0  0  0  0  0  0  0  0  0  0  0  0
    9.5182  -10.8562    0.0000 C   0  0  0  0  0  0  0  0  0  0  0  0
   10.0031  -10.1888    0.0000 C   0  0  0  0  0  0  0  0  0  0  0  0
    9.5182   -9.5213    0.0000 C   0  0  2  0  0  0  0  0  0  0  0  0
    9.7731   -8.7367    0.0000 C   0  0  0  0  0  0  0  0  0  0  0  0
   10.3028   -9.2664    0.0000 H   0  0  0  0  0  0  0  0  0  0  0  0
    9.2211   -8.1236    0.0000 C   0  0  0  0  0  0  0  0  0  0  0  0
   10.5801   -8.5652    0.0000 O   0  0  0  0  0  0  0  0  0  0  0  0
    5.7659   -9.4002    0.0000 C   0  0  0  0  0  0  0  0  0  0  0  0
    5.3223   -8.7046    0.0000 O   0  0  0  0  0  0  0  0  0  0  0  0
    5.3854  -10.1322    0.0000 C   0  0  0  0  0  0  0  0  0  0  0  0
    8.0088   -7.7138    0.0000 C   0  0  0  0  0  0  0  0  0  0  0  0
    8.7181   -7.2925    0.0000 O   0  0  0  0  0  0  0  0  0  0  0  0
    7.2893   -7.3102    0.0000 C   0  0  0  0  0  0  0  0  0  0  0  0
    7.2790   -6.4853    0.0000 C   0  0  0  0  0  0  0  0  0  0  0  0
    6.5595   -6.0817    0.0000 C   0  0  0  0  0  0  0  0  0  0  0  0
    6.5441   -5.2568    0.0000 C   0  0  0  0  0  0  0  0  0  0  0  0
    5.8220   -4.8578    0.0000 C   0  0  0  0  0  0  0  0  0  0  0  0
    5.1154   -5.2568    0.0000 C   0  0  0  0  0  0  0  0  0  0  0  0
    5.1154   -6.0817    0.0000 C   0  0  0  0  0  0  0  0  0  0  0  0
    5.8220   -6.4808    0.0000 C   0  0  0  0  0  0  0  0  0  0  0  0
    6.5901  -12.6637    0.0000 H   0  0  0  0  0  0  0  0  0  0  0  0
    8.0191  -10.1888    0.0000 H   0  0  0  0  0  0  0  0  0  0  0  0
  1  2  1  0  0  0  0
  2  3  1  0  0  0  0
  3  4  1  0  0  0  0
  4  5  1  0  0  0  0
  5  6  1  0  0  0  0
  6  1  1  0  0  0  0
  4  7  1  0  0  0  0
  7  8  1  0  0  0  0
  8  9  1  0  0  0  0
  9 10  1  0  0  0  0
 10  5  1  0  0  0  0
  9 11  1  0  0  0  0
 11 12  1  0  0  0  0
 12 13  1  0  0  0  0
 13 14  1  0  0  0  0
 14 10  1  0  0  0  0
  2 15  1  1  0  0  0
  5 16  1  1  0  0  0
 11 17  1  1  0  0  0
 12 18  1  1  0  0  0
 13 19  1  1  0  0  0
 10 20  1  6  0  0  0
 14 21  1  6  0  0  0
 11 22  1  0  0  0  0
 22 23  1  0  0  0  0
 23 24  1  0  0  0  0
 24 12  1  0  0  0  0
 24 25  1  0  0  0  0
 24 26  1  6  0  0  0
 25 27  1  0  0  0  0
 25 28  2  0  0  0  0
 21 29  1  0  0  0  0
 29 30  2  0  0  0  0
 29 31  1  0  0  0  0
 19 32  1  0  0  0  0
 32 33  2  0  0  0  0
 32 34  1  0  0  0  0
 34 35  2  0  0  0  0
 35 36  1  0  0  0  0
 36 37  2  0  0  0  0
 37 38  1  0  0  0  0
 38 39  2  0  0  0  0
 39 40  1  0  0  0  0
 40 41  2  0  0  0  0
 41 36  1  0  0  0  0
  4 42  1  6  0  0  0
  9 43  1  1  0  0  0
M  END
>  <cdx:fragmentId>
92

$$$$
