70208.cdx
  Mrv1902 05222410242D          

 32 36  0  0  0  0            999 V2000
    3.0781   -6.6401    0.0000 C   0  0  1  0  0  0  0  0  0  0  0  0
    3.0781   -7.4651    0.0000 C   0  0  0  0  0  0  0  0  0  0  0  0
    3.7925   -7.8776    0.0000 C   0  0  0  0  0  0  0  0  0  0  0  0
    4.5070   -7.4651    0.0000 C   0  0  1  0  0  0  0  0  0  0  0  0
    4.5070   -6.6401    0.0000 C   0  0  2  0  0  0  0  0  0  0  0  0
    3.7925   -6.2276    0.0000 C   0  0  0  0  0  0  0  0  0  0  0  0
    5.2215   -7.8776    0.0000 C   0  0  1  0  0  0  0  0  0  0  0  0
    5.9359   -7.4651    0.0000 C   0  0  1  0  0  0  0  0  0  0  0  0
    5.9359   -6.6401    0.0000 C   0  0  0  0  0  0  0  0  0  0  0  0
    5.2215   -6.2276    0.0000 C   0  0  0  0  0  0  0  0  0  0  0  0
    5.2215   -8.7026    0.0000 C   0  0  0  0  0  0  0  0  0  0  0  0
    5.9359   -9.1151    0.0000 C   0  0  0  0  0  0  0  0  0  0  0  0
    6.6504   -8.7026    0.0000 C   0  0  1  0  0  0  0  0  0  0  0  0
    6.6504   -7.8776    0.0000 C   0  0  1  0  0  0  0  0  0  0  0  0
    7.4350   -8.9576    0.0000 C   0  0  2  0  0  0  0  0  0  0  0  0
    7.9200   -8.2901    0.0000 C   0  0  0  0  0  0  0  0  0  0  0  0
    7.4350   -7.6227    0.0000 C   0  0  0  0  0  0  0  0  0  0  0  0
    3.3800   -5.5132    0.0000 C   0  0  0  0  0  0  0  0  0  0  0  0
    4.2050   -5.5132    0.0000 C   0  0  0  0  0  0  0  0  0  0  0  0
    7.6900   -9.7422    0.0000 C   0  0  1  0  0  0  0  0  0  0  0  0
    8.4869   -9.9557    0.0000 C   0  0  0  0  0  0  0  0  0  0  0  0
    8.7004  -10.7526    0.0000 C   0  0  0  0  0  0  0  0  0  0  0  0
    9.4973  -10.9662    0.0000 C   0  0  0  0  0  0  0  0  0  0  0  0
    9.7108  -11.7630    0.0000 C   0  0  0  0  0  0  0  0  0  0  0  0
    9.9243  -12.5599    0.0000 O   0  0  0  0  0  0  0  0  0  0  0  0
    8.9139  -11.9766    0.0000 C   0  0  0  0  0  0  0  0  0  0  0  0
   10.5077  -11.5495    0.0000 C   0  0  0  0  0  0  0  0  0  0  0  0
    6.6504   -7.0526    0.0000 C   0  0  0  0  0  0  0  0  0  0  0  0
    7.1221  -10.3406    0.0000 C   0  0  0  0  0  0  0  0  0  0  0  0
    2.3636   -6.2276    0.0000 O   0  0  0  0  0  0  0  0  0  0  0  0
    4.5070   -8.2901    0.0000 C   0  0  0  0  0  0  0  0  0  0  0  0
    6.6504   -9.5276    0.0000 C   0  0  0  0  0  0  0  0  0  0  0  0
  1  2  1  0  0  0  0
  2  3  1  0  0  0  0
  3  4  1  0  0  0  0
  4  5  1  0  0  0  0
  5  6  1  6  0  0  0
  6  1  1  0  0  0  0
  4  7  1  0  0  0  0
  7  8  1  0  0  0  0
  8  9  1  1  0  0  0
  9 10  1  0  0  0  0
 10  5  1  0  0  0  0
  7 11  1  0  0  0  0
 11 12  1  0  0  0  0
 12 13  1  0  0  0  0
 13 14  1  0  0  0  0
 14  8  1  0  0  0  0
 13 15  1  0  0  0  0
 15 16  1  6  0  0  0
 16 17  1  0  0  0  0
 17 14  1  0  0  0  0
  6 18  1  0  0  0  0
  6 19  1  0  0  0  0
 15 20  1  0  0  0  0
 20 21  1  0  0  0  0
 21 22  1  0  0  0  0
 22 23  2  0  0  0  0
 23 24  1  0  0  0  0
 24 25  1  0  0  0  0
 24 26  1  0  0  0  0
 24 27  1  0  0  0  0
 14 28  1  1  0  0  0
 20 29  1  1  0  0  0
  1 30  1  6  0  0  0
  4 31  1  6  0  0  0
  7 31  1  6  0  0  0
 13 32  1  6  0  0  0
M  END
>  <cdx:fragmentId>
5

$$$$
