70205.cdx
  Mrv1902 05222410222D          

 40 44  0  0  0  0            999 V2000
    4.3293   -6.7776    0.0000 C   0  0  0  0  0  0  0  0  0  0  0  0
    4.3293   -7.6026    0.0000 C   0  0  0  0  0  0  0  0  0  0  0  0
    5.0438   -8.0151    0.0000 C   0  0  0  0  0  0  0  0  0  0  0  0
    5.7582   -7.6026    0.0000 C   0  0  0  0  0  0  0  0  0  0  0  0
    5.7582   -6.7776    0.0000 C   0  0  0  0  0  0  0  0  0  0  0  0
    5.0438   -6.3651    0.0000 C   0  0  0  0  0  0  0  0  0  0  0  0
    6.4727   -8.0151    0.0000 C   0  0  0  0  0  0  0  0  0  0  0  0
    7.1872   -7.6026    0.0000 C   0  0  0  0  0  0  0  0  0  0  0  0
    7.1872   -6.7776    0.0000 C   0  0  0  0  0  0  0  0  0  0  0  0
    6.4727   -6.3651    0.0000 O   0  0  0  0  0  0  0  0  0  0  0  0
    5.0438   -8.8401    0.0000 O   0  0  0  0  0  0  0  0  0  0  0  0
    6.4727   -8.8401    0.0000 O   0  0  0  0  0  0  0  0  0  0  0  0
    7.9017   -8.0151    0.0000 O   0  0  0  0  0  0  0  0  0  0  0  0
    8.6161   -6.7776    0.0000 C   0  0  0  0  0  0  0  0  0  0  0  0
    7.9017   -6.3651    0.0000 C   0  0  0  0  0  0  0  0  0  0  0  0
    9.3306   -6.3651    0.0000 C   0  0  0  0  0  0  0  0  0  0  0  0
    9.3306   -5.5401    0.0000 C   0  0  0  0  0  0  0  0  0  0  0  0
    8.6161   -5.1276    0.0000 C   0  0  0  0  0  0  0  0  0  0  0  0
    7.9017   -5.5401    0.0000 C   0  0  0  0  0  0  0  0  0  0  0  0
    7.1872   -9.2526    0.0000 O   0  0  0  0  0  0  0  0  0  0  0  0
    7.9017   -8.8401    0.0000 C   0  0  2  0  0  0  0  0  0  0  0  0
    7.1872  -10.0776    0.0000 C   0  0  0  0  0  0  0  0  0  0  0  0
    7.9017  -10.4901    0.0000 C   0  0  1  0  0  0  0  0  0  0  0  0
    8.6161  -10.0776    0.0000 C   0  0  1  0  0  0  0  0  0  0  0  0
    8.6161   -9.2526    0.0000 C   0  0  1  0  0  0  0  0  0  0  0  0
    9.3306  -10.4901    0.0000 O   0  0  0  0  0  0  0  0  0  0  0  0
   10.0451  -10.0776    0.0000 O   0  0  0  0  0  0  0  0  0  0  0  0
   10.0451   -9.2526    0.0000 C   0  0  1  0  0  0  0  0  0  0  0  0
    9.3306   -8.8401    0.0000 O   0  0  0  0  0  0  0  0  0  0  0  0
   10.7595  -10.4901    0.0000 C   0  0  2  0  0  0  0  0  0  0  0  0
   11.4740  -10.0776    0.0000 C   0  0  1  0  0  0  0  0  0  0  0  0
   11.4740   -9.2526    0.0000 C   0  0  2  0  0  0  0  0  0  0  0  0
   10.7595   -8.8401    0.0000 C   0  0  1  0  0  0  0  0  0  0  0  0
    3.6148   -6.3651    0.0000 O   0  0  0  0  0  0  0  0  0  0  0  0
   10.0451   -5.1276    0.0000 O   0  0  0  0  0  0  0  0  0  0  0  0
   12.1885  -10.4901    0.0000 O   0  0  0  0  0  0  0  0  0  0  0  0
    7.9017  -11.3151    0.0000 O   0  0  0  0  0  0  0  0  0  0  0  0
   10.7595   -8.0151    0.0000 O   0  0  0  0  0  0  0  0  0  0  0  0
   12.1885   -8.8401    0.0000 O   0  0  0  0  0  0  0  0  0  0  0  0
   10.7595  -11.3151    0.0000 C   0  0  0  0  0  0  0  0  0  0  0  0
  1  2  1  0  0  0  0
  2  3  2  0  0  0  0
  3  4  1  0  0  0  0
  4  5  2  0  0  0  0
  5  6  1  0  0  0  0
  6  1  2  0  0  0  0
  4  7  1  0  0  0  0
  7  8  1  0  0  0  0
  8  9  2  0  0  0  0
  9 10  1  0  0  0  0
 10  5  1  0  0  0  0
  3 11  1  0  0  0  0
 12  7  2  0  0  0  0
  8 13  1  0  0  0  0
 14 15  2  0  0  0  0
 15  9  1  0  0  0  0
 14 16  1  0  0  0  0
 16 17  2  0  0  0  0
 17 18  1  0  0  0  0
 18 19  2  0  0  0  0
 19 15  1  0  0  0  0
 20 21  1  0  0  0  0
 21 13  1  1  0  0  0
 20 22  1  0  0  0  0
 22 23  1  0  0  0  0
 23 24  1  0  0  0  0
 24 25  1  0  0  0  0
 25 21  1  0  0  0  0
 24 26  1  1  0  0  0
 27 28  1  0  0  0  0
 28 29  1  1  0  0  0
 25 29  1  6  0  0  0
 27 30  1  0  0  0  0
 30 31  1  0  0  0  0
 31 32  1  0  0  0  0
 32 33  1  0  0  0  0
 33 28  1  0  0  0  0
  1 34  1  0  0  0  0
 17 35  1  0  0  0  0
 31 36  1  1  0  0  0
 23 37  1  1  0  0  0
 33 38  1  6  0  0  0
 32 39  1  6  0  0  0
 30 40  1  6  0  0  0
M  END
>  <cdx:fragmentId>
5

$$$$
