8.cdx
  Mrv1902 05222410242D          

 72 79  0  0  0  0            999 V2000
    7.9937  -10.3812    0.0000 C   0  0  0  0  0  0  0  0  0  0  0  0
    7.9937  -11.2062    0.0000 C   0  0  1  0  0  0  0  0  0  0  0  0
    8.7081  -11.6187    0.0000 C   0  0  0  0  0  0  0  0  0  0  0  0
    9.4226  -11.2062    0.0000 C   0  0  1  0  0  0  0  0  0  0  0  0
    9.4226  -10.3812    0.0000 C   0  0  2  0  0  0  0  0  0  0  0  0
    8.7081   -9.9688    0.0000 C   0  0  0  0  0  0  0  0  0  0  0  0
   10.1371  -11.6187    0.0000 C   0  0  0  0  0  0  0  0  0  0  0  0
   10.8516  -11.2062    0.0000 C   0  0  0  0  0  0  0  0  0  0  0  0
   10.8516  -10.3812    0.0000 C   0  0  2  0  0  0  0  0  0  0  0  0
   10.1371   -9.9688    0.0000 C   0  0  2  0  0  0  0  0  0  0  0  0
   11.5660   -9.9688    0.0000 C   0  0  1  0  0  0  0  0  0  0  0  0
   11.5660   -9.1438    0.0000 C   0  0  1  0  0  0  0  0  0  0  0  0
   10.8516   -8.7313    0.0000 C   0  0  1  0  0  0  0  0  0  0  0  0
   10.1371   -9.1438    0.0000 C   0  0  1  0  0  0  0  0  0  0  0  0
    7.2792  -11.6187    0.0000 O   0  0  0  0  0  0  0  0  0  0  0  0
    9.4226   -9.5563    0.0000 C   0  0  0  0  0  0  0  0  0  0  0  0
   10.8516   -9.5563    0.0000 H   0  0  0  0  0  0  0  0  0  0  0  0
   11.5660  -10.7937    0.0000 O   0  0  0  0  0  0  0  0  0  0  0  0
   11.5660   -8.3187    0.0000 C   0  0  0  0  0  0  0  0  0  0  0  0
   10.8516   -7.9063    0.0000 O   0  0  0  0  0  0  0  0  0  0  0  0
    9.4226  -12.0313    0.0000 H   0  0  0  0  0  0  0  0  0  0  0  0
   10.1371  -10.7937    0.0000 H   0  0  0  0  0  0  0  0  0  0  0  0
    9.4226   -8.7313    0.0000 O   0  0  0  0  0  0  0  0  0  0  0  0
    5.8491   -9.9564    0.0000 C   0  0  2  0  0  0  0  0  0  0  0  0
    5.1333  -10.3666    0.0000 C   0  0  2  0  0  0  0  0  0  0  0  0
    5.1306  -11.1915    0.0000 C   0  0  2  0  0  0  0  0  0  0  0  0
    5.8437  -11.6064    0.0000 C   0  0  0  0  0  0  0  0  0  0  0  0
    6.5595  -11.1963    0.0000 C   0  0  1  0  0  0  0  0  0  0  0  0
    6.5622  -10.3713    0.0000 O   0  0  0  0  0  0  0  0  0  0  0  0
    5.8519   -9.1314    0.0000 C   0  0  0  0  0  0  0  0  0  0  0  0
    4.4202   -9.9517    0.0000 O   0  0  0  0  0  0  0  0  0  0  0  0
    4.4148  -11.6017    0.0000 O   0  0  0  0  0  0  0  0  0  0  0  0
    4.4229   -9.1267    0.0000 C   0  0  2  0  0  0  0  0  0  0  0  0
    5.1387   -8.7166    0.0000 O   0  0  0  0  0  0  0  0  0  0  0  0
    5.1415   -7.8916    0.0000 C   0  0  1  0  0  0  0  0  0  0  0  0
    4.4284   -7.4767    0.0000 C   0  0  2  0  0  0  0  0  0  0  0  0
    3.7125   -7.8869    0.0000 C   0  0  1  0  0  0  0  0  0  0  0  0
    3.7098   -8.7119    0.0000 C   0  0  0  0  0  0  0  0  0  0  0  0
    5.8573   -7.4814    0.0000 C   0  0  0  0  0  0  0  0  0  0  0  0
    2.9994   -7.4720    0.0000 O   0  0  0  0  0  0  0  0  0  0  0  0
    4.4311   -6.6517    0.0000 O   0  0  0  0  0  0  0  0  0  0  0  0
    5.1459   -6.2398    0.0000 C   0  0  2  0  0  0  0  0  0  0  0  0
    5.8600   -6.6528    0.0000 O   0  0  0  0  0  0  0  0  0  0  0  0
    6.5748   -6.2409    0.0000 C   0  0  1  0  0  0  0  0  0  0  0  0
    6.5755   -5.4159    0.0000 C   0  0  2  0  0  0  0  0  0  0  0  0
    5.8613   -5.0028    0.0000 C   0  0  2  0  0  0  0  0  0  0  0  0
    5.1465   -5.4148    0.0000 C   0  0  1  0  0  0  0  0  0  0  0  0
    7.2890   -6.6540    0.0000 C   0  0  0  0  0  0  0  0  0  0  0  0
    7.2903   -5.0040    0.0000 O   0  0  0  0  0  0  0  0  0  0  0  0
    5.8620   -4.1778    0.0000 O   0  0  0  0  0  0  0  0  0  0  0  0
    4.4321   -5.0023    0.0000 O   0  0  0  0  0  0  0  0  0  0  0  0
    4.4120  -12.4267    0.0000 C   0  0  0  0  0  0  0  0  0  0  0  0
    2.2836   -7.8821    0.0000 C   0  0  0  0  0  0  0  0  0  0  0  0
    6.5768   -3.7659    0.0000 C   0  0  0  0  0  0  0  0  0  0  0  0
   12.3507  -10.2237    0.0000 C   0  0  0  0  0  0  0  0  0  0  0  0
   12.8356   -9.5563    0.0000 C   0  0  0  0  0  0  0  0  0  0  0  0
   12.3507   -8.8888    0.0000 C   0  0  2  0  0  0  0  0  0  0  0  0
   12.6056   -8.1042    0.0000 C   0  0  1  0  0  0  0  0  0  0  0  0
   13.1353   -8.6339    0.0000 H   0  0  0  0  0  0  0  0  0  0  0  0
   12.0536   -7.4911    0.0000 C   0  0  0  0  0  0  0  0  0  0  0  0
   13.4126   -7.9327    0.0000 O   0  0  0  0  0  0  0  0  0  0  0  0
    8.5984   -8.7677    0.0000 C   0  0  0  0  0  0  0  0  0  0  0  0
    8.1548   -8.0721    0.0000 O   0  0  0  0  0  0  0  0  0  0  0  0
    8.2179   -9.4997    0.0000 C   0  0  0  0  0  0  0  0  0  0  0  0
   10.8413   -7.0813    0.0000 C   0  0  0  0  0  0  0  0  0  0  0  0
   11.5506   -6.6600    0.0000 O   0  0  0  0  0  0  0  0  0  0  0  0
   10.1218   -6.6777    0.0000 C   0  0  0  0  0  0  0  0  0  0  0  0
   10.1115   -5.8528    0.0000 C   0  0  0  0  0  0  0  0  0  0  0  0
    9.3920   -5.4492    0.0000 C   0  0  0  0  0  0  0  0  0  0  0  0
    8.6827   -5.8705    0.0000 C   0  0  0  0  0  0  0  0  0  0  0  0
    8.6929   -6.6955    0.0000 C   0  0  0  0  0  0  0  0  0  0  0  0
    9.4125   -7.0991    0.0000 C   0  0  0  0  0  0  0  0  0  0  0  0
  1  2  1  0  0  0  0
  2  3  1  0  0  0  0
  3  4  1  0  0  0  0
  4  5  1  0  0  0  0
  5  6  1  0  0  0  0
  6  1  1  0  0  0  0
  4  7  1  0  0  0  0
  7  8  1  0  0  0  0
  8  9  1  0  0  0  0
  9 10  1  0  0  0  0
 10  5  1  0  0  0  0
  9 11  1  0  0  0  0
 11 12  1  0  0  0  0
 12 13  1  0  0  0  0
 13 14  1  0  0  0  0
 14 10  1  0  0  0  0
  2 15  1  1  0  0  0
  5 16  1  1  0  0  0
  9 17  1  1  0  0  0
 11 18  1  1  0  0  0
 12 19  1  1  0  0  0
 13 20  1  1  0  0  0
  4 21  1  6  0  0  0
 10 22  1  6  0  0  0
 14 23  1  6  0  0  0
 24 25  1  0  0  0  0
 25 26  1  0  0  0  0
 26 27  1  0  0  0  0
 27 28  1  0  0  0  0
 28 29  1  0  0  0  0
 29 24  1  0  0  0  0
 24 30  1  1  0  0  0
 25 31  1  6  0  0  0
 26 32  1  6  0  0  0
 33 31  1  1  0  0  0
 33 34  1  0  0  0  0
 34 35  1  0  0  0  0
 35 36  1  0  0  0  0
 36 37  1  0  0  0  0
 37 38  1  0  0  0  0
 38 33  1  0  0  0  0
 35 39  1  1  0  0  0
 37 40  1  1  0  0  0
 36 41  1  6  0  0  0
 42 41  1  1  0  0  0
 42 43  1  0  0  0  0
 43 44  1  0  0  0  0
 44 45  1  0  0  0  0
 45 46  1  0  0  0  0
 46 47  1  0  0  0  0
 47 42  1  0  0  0  0
 44 48  1  1  0  0  0
 45 49  1  6  0  0  0
 46 50  1  6  0  0  0
 47 51  1  6  0  0  0
 32 52  1  0  0  0  0
 40 53  1  0  0  0  0
 50 54  1  0  0  0  0
 28 15  1  1  0  0  0
 11 55  1  0  0  0  0
 55 56  1  0  0  0  0
 56 57  1  0  0  0  0
 57 12  1  0  0  0  0
 57 58  1  0  0  0  0
 57 59  1  6  0  0  0
 58 60  1  0  0  0  0
 58 61  1  1  0  0  0
 23 62  1  0  0  0  0
 62 63  2  0  0  0  0
 62 64  1  0  0  0  0
 20 65  1  0  0  0  0
 65 66  2  0  0  0  0
 65 67  1  0  0  0  0
 67 68  2  0  0  0  0
 68 69  1  0  0  0  0
 69 70  2  0  0  0  0
 70 71  1  0  0  0  0
 71 72  2  0  0  0  0
 72 67  1  0  0  0  0
M  END
>  <cdx:fragmentId>
92

$$$$
