70202.cdx
  Mrv1902 05222410202D          

 35 38  0  0  0  0            999 V2000
    6.1718   -8.4139    0.0000 C   0  0  0  0  0  0  0  0  0  0  0  0
    6.1718   -9.2389    0.0000 C   0  0  0  0  0  0  0  0  0  0  0  0
    6.8863   -9.6514    0.0000 C   0  0  0  0  0  0  0  0  0  0  0  0
    7.6007   -9.2389    0.0000 C   0  0  0  0  0  0  0  0  0  0  0  0
    7.6007   -8.4139    0.0000 C   0  0  0  0  0  0  0  0  0  0  0  0
    6.8863   -8.0014    0.0000 C   0  0  0  0  0  0  0  0  0  0  0  0
    8.3152   -9.6514    0.0000 C   0  0  0  0  0  0  0  0  0  0  0  0
    9.0297   -9.2389    0.0000 C   0  0  0  0  0  0  0  0  0  0  0  0
    9.0297   -8.4139    0.0000 C   0  0  0  0  0  0  0  0  0  0  0  0
    8.3152   -8.0014    0.0000 O   0  0  0  0  0  0  0  0  0  0  0  0
    6.8863  -10.4764    0.0000 O   0  0  0  0  0  0  0  0  0  0  0  0
    8.3152  -10.4764    0.0000 O   0  0  0  0  0  0  0  0  0  0  0  0
    9.7442   -8.0014    0.0000 C   0  0  0  0  0  0  0  0  0  0  0  0
    9.7442   -7.1764    0.0000 C   0  0  0  0  0  0  0  0  0  0  0  0
   10.4586   -8.4139    0.0000 C   0  0  0  0  0  0  0  0  0  0  0  0
   11.1731   -8.0014    0.0000 C   0  0  0  0  0  0  0  0  0  0  0  0
   11.1731   -7.1764    0.0000 C   0  0  0  0  0  0  0  0  0  0  0  0
   10.4586   -6.7639    0.0000 C   0  0  0  0  0  0  0  0  0  0  0  0
   11.8876   -6.7639    0.0000 O   0  0  0  0  0  0  0  0  0  0  0  0
   10.4586   -5.9389    0.0000 O   0  0  0  0  0  0  0  0  0  0  0  0
    5.4573   -8.0014    0.0000 O   0  0  0  0  0  0  0  0  0  0  0  0
   12.6020   -7.1764    0.0000 C   0  0  0  0  0  0  0  0  0  0  0  0
    4.7429   -8.4139    0.0000 C   0  0  2  0  0  0  0  0  0  0  0  0
    4.0284   -8.0014    0.0000 O   0  0  0  0  0  0  0  0  0  0  0  0
    3.3139   -8.4139    0.0000 C   0  0  1  0  0  0  0  0  0  0  0  0
    3.3139   -9.2389    0.0000 C   0  0  2  0  0  0  0  0  0  0  0  0
    4.0284   -9.6514    0.0000 C   0  0  1  0  0  0  0  0  0  0  0  0
    4.7429   -9.2389    0.0000 C   0  0  1  0  0  0  0  0  0  0  0  0
    2.5994   -8.0014    0.0000 C   0  0  0  0  0  0  0  0  0  0  0  0
    4.0284  -10.4764    0.0000 O   0  0  0  0  0  0  0  0  0  0  0  0
    5.4573   -9.6514    0.0000 O   0  0  0  0  0  0  0  0  0  0  0  0
    2.5994   -9.6514    0.0000 O   0  0  0  0  0  0  0  0  0  0  0  0
    1.8850   -8.4139    0.0000 O   0  0  0  0  0  0  0  0  0  0  0  0
    2.5994   -7.1764    0.0000 O   0  0  0  0  0  0  0  0  0  0  0  0
    1.1705   -8.0014    0.0000 C   0  0  0  0  0  0  0  0  0  0  0  0
  1  2  2  0  0  0  0
  2  3  1  0  0  0  0
  3  4  2  0  0  0  0
  4  5  1  0  0  0  0
  5  6  2  0  0  0  0
  6  1  1  0  0  0  0
  4  7  1  0  0  0  0
  7  8  1  0  0  0  0
  8  9  2  0  0  0  0
  9 10  1  0  0  0  0
 10  5  1  0  0  0  0
  3 11  1  0  0  0  0
 12  7  2  0  0  0  0
  9 13  1  0  0  0  0
 13 14  1  0  0  0  0
 13 15  2  0  0  0  0
 15 16  1  0  0  0  0
 16 17  2  0  0  0  0
 17 18  1  0  0  0  0
 18 14  2  0  0  0  0
 17 19  1  0  0  0  0
 20 18  1  0  0  0  0
  1 21  1  0  0  0  0
 19 22  1  0  0  0  0
 23 21  1  1  0  0  0
 23 24  1  0  0  0  0
 24 25  1  0  0  0  0
 25 26  1  0  0  0  0
 26 27  1  0  0  0  0
 27 28  1  0  0  0  0
 28 23  1  0  0  0  0
 25 29  1  1  0  0  0
 27 30  1  1  0  0  0
 28 31  1  6  0  0  0
 26 32  1  6  0  0  0
 29 33  1  0  0  0  0
 29 34  2  0  0  0  0
 33 35  1  0  0  0  0
M  END
>  <cdx:fragmentId>
5

$$$$
