70213.cdx
  Mrv1902 05222410222D          

 47 51  0  0  0  0            999 V2000
    6.9006   -7.3826    0.0000 C   0  0  0  0  0  0  0  0  0  0  0  0
    6.9006   -8.2076    0.0000 C   0  0  0  0  0  0  0  0  0  0  0  0
    7.6150   -8.6201    0.0000 C   0  0  0  0  0  0  0  0  0  0  0  0
    8.3295   -8.2076    0.0000 C   0  0  0  0  0  0  0  0  0  0  0  0
    8.3295   -7.3826    0.0000 C   0  0  0  0  0  0  0  0  0  0  0  0
    7.6150   -6.9701    0.0000 C   0  0  0  0  0  0  0  0  0  0  0  0
    9.0440   -8.6201    0.0000 C   0  0  0  0  0  0  0  0  0  0  0  0
    9.7584   -8.2076    0.0000 C   0  0  0  0  0  0  0  0  0  0  0  0
    9.7584   -7.3826    0.0000 C   0  0  0  0  0  0  0  0  0  0  0  0
    9.0440   -6.9701    0.0000 O   0  0  0  0  0  0  0  0  0  0  0  0
    7.6150   -9.4451    0.0000 O   0  0  0  0  0  0  0  0  0  0  0  0
    9.0440   -9.4451    0.0000 O   0  0  0  0  0  0  0  0  0  0  0  0
   10.4729   -8.6201    0.0000 O   0  0  0  0  0  0  0  0  0  0  0  0
   11.1874   -7.3826    0.0000 C   0  0  0  0  0  0  0  0  0  0  0  0
   10.4729   -6.9701    0.0000 C   0  0  0  0  0  0  0  0  0  0  0  0
   11.9019   -6.9701    0.0000 C   0  0  0  0  0  0  0  0  0  0  0  0
   11.9019   -6.1451    0.0000 C   0  0  0  0  0  0  0  0  0  0  0  0
   11.1874   -5.7326    0.0000 C   0  0  0  0  0  0  0  0  0  0  0  0
   10.4729   -6.1451    0.0000 C   0  0  0  0  0  0  0  0  0  0  0  0
    7.6150   -6.1451    0.0000 C   0  0  0  0  0  0  0  0  0  0  0  0
    6.1861   -6.9701    0.0000 O   0  0  0  0  0  0  0  0  0  0  0  0
   12.6163   -5.7326    0.0000 O   0  0  0  0  0  0  0  0  0  0  0  0
    5.4716   -7.3826    0.0000 C   0  0  2  0  0  0  0  0  0  0  0  0
    4.7571   -6.9701    0.0000 O   0  0  0  0  0  0  0  0  0  0  0  0
    4.0427   -7.3826    0.0000 C   0  0  1  0  0  0  0  0  0  0  0  0
    4.0427   -8.2076    0.0000 C   0  0  2  0  0  0  0  0  0  0  0  0
    4.7571   -8.6201    0.0000 C   0  0  1  0  0  0  0  0  0  0  0  0
    5.4716   -8.2076    0.0000 C   0  0  1  0  0  0  0  0  0  0  0  0
    3.3282   -6.9701    0.0000 C   0  0  0  0  0  0  0  0  0  0  0  0
    4.7571   -9.4451    0.0000 O   0  0  0  0  0  0  0  0  0  0  0  0
    6.1861   -8.6201    0.0000 O   0  0  0  0  0  0  0  0  0  0  0  0
    3.3282   -8.6201    0.0000 O   0  0  0  0  0  0  0  0  0  0  0  0
    2.6137   -7.3826    0.0000 O   0  0  0  0  0  0  0  0  0  0  0  0
   10.4729   -9.4451    0.0000 C   0  0  2  0  0  0  0  0  0  0  0  0
    9.7584   -9.8576    0.0000 O   0  0  0  0  0  0  0  0  0  0  0  0
    9.7584  -10.6826    0.0000 C   0  0  2  0  0  0  0  0  0  0  0  0
   10.4729  -11.0951    0.0000 C   0  0  1  0  0  0  0  0  0  0  0  0
   11.1874  -10.6826    0.0000 C   0  0  2  0  0  0  0  0  0  0  0  0
   11.1874   -9.8576    0.0000 C   0  0  1  0  0  0  0  0  0  0  0  0
   10.4729  -11.9201    0.0000 O   0  0  0  0  0  0  0  0  0  0  0  0
    9.0440  -11.0951    0.0000 C   0  0  0  0  0  0  0  0  0  0  0  0
   11.9019  -11.0951    0.0000 O   0  0  0  0  0  0  0  0  0  0  0  0
   11.9019   -9.4451    0.0000 O   0  0  0  0  0  0  0  0  0  0  0  0
    6.9006   -5.7326    0.0000 C   0  0  0  0  0  0  0  0  0  0  0  0
    6.9006   -4.9076    0.0000 C   0  0  0  0  0  0  0  0  0  0  0  0
    6.1861   -4.4951    0.0000 C   0  0  0  0  0  0  0  0  0  0  0  0
    7.6150   -4.4951    0.0000 C   0  0  0  0  0  0  0  0  0  0  0  0
  1  2  2  0  0  0  0
  2  3  1  0  0  0  0
  3  4  2  0  0  0  0
  4  5  1  0  0  0  0
  5  6  2  0  0  0  0
  6  1  1  0  0  0  0
  4  7  1  0  0  0  0
  7  8  1  0  0  0  0
  8  9  2  0  0  0  0
  9 10  1  0  0  0  0
 10  5  1  0  0  0  0
  3 11  1  0  0  0  0
 12  7  2  0  0  0  0
  8 13  1  0  0  0  0
 14 15  2  0  0  0  0
 15  9  1  0  0  0  0
 14 16  1  0  0  0  0
 16 17  2  0  0  0  0
 17 18  1  0  0  0  0
 18 19  2  0  0  0  0
 19 15  1  0  0  0  0
  6 20  1  0  0  0  0
 21  1  1  0  0  0  0
 17 22  1  0  0  0  0
 23 21  1  1  0  0  0
 23 24  1  0  0  0  0
 24 25  1  0  0  0  0
 25 26  1  0  0  0  0
 26 27  1  0  0  0  0
 27 28  1  0  0  0  0
 28 23  1  0  0  0  0
 25 29  1  1  0  0  0
 27 30  1  1  0  0  0
 28 31  1  6  0  0  0
 26 32  1  6  0  0  0
 29 33  1  0  0  0  0
 34 13  1  1  0  0  0
 34 35  1  0  0  0  0
 35 36  1  0  0  0  0
 36 37  1  0  0  0  0
 37 38  1  0  0  0  0
 38 39  1  0  0  0  0
 39 34  1  0  0  0  0
 37 40  1  1  0  0  0
 36 41  1  6  0  0  0
 38 42  1  6  0  0  0
 39 43  1  6  0  0  0
 20 44  1  0  0  0  0
 44 45  2  0  0  0  0
 45 46  1  0  0  0  0
 45 47  1  0  0  0  0
M  END
>  <cdx:fragmentId>
5

$$$$
