70216.cdx
  Mrv1902 05222410202D          

 22 23  0  0  0  0            999 V2000
    5.1956   -6.6676    0.0000 C   0  0  0  0  0  0  0  0  0  0  0  0
    5.1956   -7.4926    0.0000 C   0  0  0  0  0  0  0  0  0  0  0  0
    5.9100   -7.9051    0.0000 C   0  0  0  0  0  0  0  0  0  0  0  0
    6.6245   -7.4926    0.0000 C   0  0  0  0  0  0  0  0  0  0  0  0
    6.6245   -6.6676    0.0000 C   0  0  0  0  0  0  0  0  0  0  0  0
    5.9100   -6.2551    0.0000 C   0  0  0  0  0  0  0  0  0  0  0  0
    7.3329   -7.9080    0.0000 O   0  0  0  0  0  0  0  0  0  0  0  0
    7.3337   -8.7330    0.0000 C   0  0  2  0  0  0  0  0  0  0  0  0
    6.6197   -9.1462    0.0000 O   0  0  0  0  0  0  0  0  0  0  0  0
    6.6205   -9.9712    0.0000 C   0  0  1  0  0  0  0  0  0  0  0  0
    7.3354  -10.3830    0.0000 C   0  0  2  0  0  0  0  0  0  0  0  0
    8.0494   -9.9697    0.0000 C   0  0  1  0  0  0  0  0  0  0  0  0
    8.0486   -9.1447    0.0000 C   0  0  1  0  0  0  0  0  0  0  0  0
    5.9064  -10.3844    0.0000 C   0  0  0  0  0  0  0  0  0  0  0  0
    8.7643  -10.3815    0.0000 O   0  0  0  0  0  0  0  0  0  0  0  0
    7.3362  -11.2080    0.0000 O   0  0  0  0  0  0  0  0  0  0  0  0
    8.7627   -8.7315    0.0000 O   0  0  0  0  0  0  0  0  0  0  0  0
    5.9073  -11.2094    0.0000 O   0  0  0  0  0  0  0  0  0  0  0  0
    4.4811   -7.9051    0.0000 O   0  0  0  0  0  0  0  0  0  0  0  0
    7.3390   -6.2551    0.0000 C   0  0  0  0  0  0  0  0  0  0  0  0
    8.0534   -6.6676    0.0000 C   0  0  0  0  0  0  0  0  0  0  0  0
    7.3390   -5.4301    0.0000 O   0  0  0  0  0  0  0  0  0  0  0  0
  1  2  2  0  0  0  0
  2  3  1  0  0  0  0
  3  4  2  0  0  0  0
  4  5  1  0  0  0  0
  5  6  2  0  0  0  0
  6  1  1  0  0  0  0
  8  7  1  1  0  0  0
  8  9  1  0  0  0  0
  9 10  1  0  0  0  0
 10 11  1  0  0  0  0
 11 12  1  0  0  0  0
 12 13  1  0  0  0  0
 13  8  1  0  0  0  0
 10 14  1  1  0  0  0
 12 15  1  1  0  0  0
 11 16  1  6  0  0  0
 13 17  1  6  0  0  0
 14 18  1  0  0  0  0
  2 19  1  0  0  0  0
  5 20  1  0  0  0  0
 20 21  1  0  0  0  0
 20 22  2  0  0  0  0
  4  7  1  0  0  0  0
M  END
>  <cdx:fragmentId>
5

$$$$
