70218.cdx
  Mrv1902 05222410252D          

 36 39  0  0  0  0            999 V2000
    5.0443  -12.7314    0.0000 C   0  0  2  0  0  0  0  0  0  0  0  0
    5.0443  -13.5564    0.0000 C   0  0  2  0  0  0  0  0  0  0  0  0
    5.7588  -13.9689    0.0000 C   0  0  1  0  0  0  0  0  0  0  0  0
    6.4732  -13.5564    0.0000 C   0  0  2  0  0  0  0  0  0  0  0  0
    6.4732  -12.7314    0.0000 C   0  0  1  0  0  0  0  0  0  0  0  0
    5.7588  -12.3189    0.0000 O   0  0  0  0  0  0  0  0  0  0  0  0
    7.1877  -12.3189    0.0000 O   0  0  0  0  0  0  0  0  0  0  0  0
    7.1877  -11.4939    0.0000 C   0  0  2  0  0  0  0  0  0  0  0  0
    6.4732  -11.0814    0.0000 C   0  0  0  0  0  0  0  0  0  0  0  0
    7.9022  -11.0814    0.0000 C   0  0  0  0  0  0  0  0  0  0  0  0
    7.9022  -10.2564    0.0000 C   0  0  2  0  0  0  0  0  0  0  0  0
    7.1877   -9.8439    0.0000 C   0  0  1  0  0  0  0  0  0  0  0  0
    6.4732  -10.2564    0.0000 C   0  0  0  0  0  0  0  0  0  0  0  0
    8.6167   -9.8439    0.0000 C   0  0  0  0  0  0  0  0  0  0  0  0
    8.6167   -9.0189    0.0000 C   0  0  0  0  0  0  0  0  0  0  0  0
    7.9022   -8.6064    0.0000 C   0  0  0  0  0  0  0  0  0  0  0  0
    7.1877   -9.0189    0.0000 C   0  0  1  0  0  0  0  0  0  0  0  0
    7.9022   -7.7814    0.0000 C   0  0  0  0  0  0  0  0  0  0  0  0
    7.1877   -7.3689    0.0000 C   0  0  2  0  0  0  0  0  0  0  0  0
    6.4732   -7.7814    0.0000 C   0  0  0  0  0  0  0  0  0  0  0  0
    6.4732   -8.6064    0.0000 C   0  0  0  0  0  0  0  0  0  0  0  0
    8.3147  -11.7959    0.0000 C   0  0  0  0  0  0  0  0  0  0  0  0
    8.6991  -10.8679    0.0000 C   0  0  0  0  0  0  0  0  0  0  0  0
    6.7752   -6.6544    0.0000 C   0  0  2  0  0  0  0  0  0  0  0  0
    5.9502   -6.6544    0.0000 C   0  0  0  0  0  0  0  0  0  0  0  0
    5.5377   -5.9400    0.0000 O   0  0  0  0  0  0  0  0  0  0  0  0
    7.6002   -6.6544    0.0000 C   0  0  0  0  0  0  0  0  0  0  0  0
    7.9022   -9.4314    0.0000 H   0  0  0  0  0  0  0  0  0  0  0  0
    8.6167  -10.6689    0.0000 H   0  0  0  0  0  0  0  0  0  0  0  0
    4.3298  -12.3189    0.0000 C   0  0  0  0  0  0  0  0  0  0  0  0
    5.7588  -14.7939    0.0000 O   0  0  0  0  0  0  0  0  0  0  0  0
    4.3298  -13.9689    0.0000 O   0  0  0  0  0  0  0  0  0  0  0  0
    7.1877  -13.9689    0.0000 O   0  0  0  0  0  0  0  0  0  0  0  0
    3.6154  -12.7314    0.0000 O   0  0  0  0  0  0  0  0  0  0  0  0
    7.1877   -5.9400    0.0000 O   0  0  0  0  0  0  0  0  0  0  0  0
    6.4732   -9.4314    0.0000 C   0  0  0  0  0  0  0  0  0  0  0  0
  1  2  1  0  0  0  0
  2  3  1  0  0  0  0
  3  4  1  0  0  0  0
  4  5  1  0  0  0  0
  5  6  1  0  0  0  0
  6  1  1  0  0  0  0
  5  7  1  1  0  0  0
  8  7  1  6  0  0  0
  8  9  1  0  0  0  0
  8 10  1  0  0  0  0
 10 11  1  0  0  0  0
 11 12  1  0  0  0  0
 12 13  1  0  0  0  0
 13  9  1  0  0  0  0
 11 14  1  0  0  0  0
 14 15  1  0  0  0  0
 15 16  1  0  0  0  0
 16 17  1  0  0  0  0
 17 12  1  0  0  0  0
 16 18  2  0  0  0  0
 18 19  1  0  0  0  0
 19 20  1  0  0  0  0
 20 21  1  0  0  0  0
 21 17  1  0  0  0  0
 10 22  1  0  0  0  0
 10 23  1  0  0  0  0
 19 24  1  0  0  0  0
 24 25  1  0  0  0  0
 25 26  1  0  0  0  0
 19 27  1  1  0  0  0
 17 28  1  1  0  0  0
 11 29  1  1  0  0  0
  1 30  1  1  0  0  0
  3 31  1  1  0  0  0
  2 32  1  6  0  0  0
  4 33  1  6  0  0  0
 30 34  1  0  0  0  0
 24 35  1  6  0  0  0
 12 36  1  6  0  0  0
M  END
>  <cdx:fragmentId>
5

$$$$
