70215.cdx
  Mrv1902 05222410212D          

  7  7  0  0  0  0            999 V2000
    5.8418   -8.4139    0.0000 C   0  0  0  0  0  0  0  0  0  0  0  0
    5.8418   -9.2389    0.0000 C   0  0  0  0  0  0  0  0  0  0  0  0
    6.5563   -9.6514    0.0000 C   0  0  0  0  0  0  0  0  0  0  0  0
    7.2707   -9.2389    0.0000 C   0  0  0  0  0  0  0  0  0  0  0  0
    7.2707   -8.4139    0.0000 C   0  0  0  0  0  0  0  0  0  0  0  0
    6.5563   -8.0014    0.0000 C   0  0  0  0  0  0  0  0  0  0  0  0
    6.5563   -7.1764    0.0000 O   0  0  0  0  0  0  0  0  0  0  0  0
  1  2  2  0  0  0  0
  2  3  1  0  0  0  0
  3  4  2  0  0  0  0
  4  5  1  0  0  0  0
  5  6  1  0  0  0  0
  6  1  1  0  0  0  0
  6  7  2  0  0  0  0
M  END
>  <cdx:fragmentId>
5

$$$$
