70214.cdx
  Mrv1902 05222410212D          

 38 46  0  0  0  0            999 V2000
    4.4668   -6.0901    0.0000 C   0  0  0  0  0  0  0  0  0  0  0  0
    4.4668   -6.9151    0.0000 C   0  0  0  0  0  0  0  0  0  0  0  0
    5.1813   -7.3276    0.0000 C   0  0  0  0  0  0  0  0  0  0  0  0
    5.8957   -6.9151    0.0000 C   0  0  0  0  0  0  0  0  0  0  0  0
    5.8957   -6.0901    0.0000 C   0  0  0  0  0  0  0  0  0  0  0  0
    5.1813   -5.6776    0.0000 C   0  0  0  0  0  0  0  0  0  0  0  0
    6.6102   -7.3276    0.0000 C   0  0  0  0  0  0  0  0  0  0  0  0
    7.3247   -6.9151    0.0000 C   0  0  0  0  0  0  0  0  0  0  0  0
    7.3247   -6.0901    0.0000 C   0  0  0  0  0  0  0  0  0  0  0  0
    6.6102   -5.6776    0.0000 C   0  0  0  0  0  0  0  0  0  0  0  0
    8.0392   -7.3276    0.0000 C   0  0  0  0  0  0  0  0  0  0  0  0
    8.7536   -6.9151    0.0000 C   0  0  0  0  0  0  0  0  0  0  0  0
    8.7536   -6.0901    0.0000 C   0  0  0  0  0  0  0  0  0  0  0  0
    8.0392   -5.6776    0.0000 C   0  0  0  0  0  0  0  0  0  0  0  0
    5.1813   -8.1526    0.0000 C   0  0  0  0  0  0  0  0  0  0  0  0
    5.8957   -8.5651    0.0000 C   0  0  0  0  0  0  0  0  0  0  0  0
    6.6102   -8.1526    0.0000 C   0  0  0  0  0  0  0  0  0  0  0  0
    7.3247   -8.5651    0.0000 C   0  0  0  0  0  0  0  0  0  0  0  0
    8.0392   -8.1526    0.0000 C   0  0  0  0  0  0  0  0  0  0  0  0
    8.7536   -8.5651    0.0000 C   0  0  0  0  0  0  0  0  0  0  0  0
    9.4681   -8.1526    0.0000 C   0  0  0  0  0  0  0  0  0  0  0  0
    9.4681   -7.3276    0.0000 C   0  0  0  0  0  0  0  0  0  0  0  0
    4.4668   -8.5651    0.0000 C   0  0  0  0  0  0  0  0  0  0  0  0
    4.4668   -9.3901    0.0000 C   0  0  0  0  0  0  0  0  0  0  0  0
    5.1813   -9.8026    0.0000 C   0  0  0  0  0  0  0  0  0  0  0  0
    5.8957   -9.3901    0.0000 C   0  0  0  0  0  0  0  0  0  0  0  0
    6.6102   -9.8026    0.0000 C   0  0  0  0  0  0  0  0  0  0  0  0
    7.3247   -9.3901    0.0000 C   0  0  0  0  0  0  0  0  0  0  0  0
    8.0392   -9.8026    0.0000 C   0  0  0  0  0  0  0  0  0  0  0  0
    8.7536   -9.3901    0.0000 C   0  0  0  0  0  0  0  0  0  0  0  0
    6.6102   -4.8526    0.0000 O   0  0  0  0  0  0  0  0  0  0  0  0
    5.1813   -4.8526    0.0000 O   0  0  0  0  0  0  0  0  0  0  0  0
    8.0392   -4.8526    0.0000 O   0  0  0  0  0  0  0  0  0  0  0  0
    5.1813  -10.6276    0.0000 O   0  0  0  0  0  0  0  0  0  0  0  0
    6.6102  -10.6276    0.0000 O   0  0  0  0  0  0  0  0  0  0  0  0
    8.0392  -10.6276    0.0000 O   0  0  0  0  0  0  0  0  0  0  0  0
    3.7523   -7.3276    0.0000 O   0  0  0  0  0  0  0  0  0  0  0  0
    3.7523   -8.1526    0.0000 O   0  0  0  0  0  0  0  0  0  0  0  0
  1  2  1  0  0  0  0
  2  3  2  0  0  0  0
  3  4  1  0  0  0  0
  4  5  2  0  0  0  0
  5  6  1  0  0  0  0
  6  1  2  0  0  0  0
  4  7  1  0  0  0  0
  7  8  1  0  0  0  0
  8  9  2  0  0  0  0
  9 10  1  0  0  0  0
 10  5  1  0  0  0  0
  8 11  1  0  0  0  0
 11 12  2  0  0  0  0
 12 13  1  0  0  0  0
 13 14  2  0  0  0  0
 14  9  1  0  0  0  0
  3 15  1  0  0  0  0
 15 16  1  0  0  0  0
 16 17  1  0  0  0  0
 17  7  2  0  0  0  0
 17 18  1  0  0  0  0
 18 19  1  0  0  0  0
 19 11  1  0  0  0  0
 19 20  2  0  0  0  0
 20 21  1  0  0  0  0
 21 22  2  0  0  0  0
 22 12  1  0  0  0  0
 15 23  2  0  0  0  0
 23 24  1  0  0  0  0
 24 25  2  0  0  0  0
 25 26  1  0  0  0  0
 26 16  2  0  0  0  0
 26 27  1  0  0  0  0
 27 28  1  0  0  0  0
 28 18  2  0  0  0  0
 28 29  1  0  0  0  0
 29 30  2  0  0  0  0
 30 20  1  0  0  0  0
 10 31  2  0  0  0  0
 32  6  1  0  0  0  0
 14 33  1  0  0  0  0
 25 34  1  0  0  0  0
 35 27  2  0  0  0  0
 36 29  1  0  0  0  0
  2 37  1  0  0  0  0
 23 38  1  0  0  0  0
M  END
>  <cdx:fragmentId>
5

$$$$
