70211.cdx
  Mrv1902 05222410222D          

 38 41  0  0  0  0            999 V2000
    5.2506   -8.0564    0.0000 C   0  0  1  0  0  0  0  0  0  0  0  0
    5.2506   -8.8814    0.0000 C   0  0  1  0  0  0  0  0  0  0  0  0
    5.9650   -9.2939    0.0000 C   0  0  2  0  0  0  0  0  0  0  0  0
    6.6795   -8.8814    0.0000 C   0  0  0  0  0  0  0  0  0  0  0  0
    6.6795   -8.0564    0.0000 C   0  0  0  0  0  0  0  0  0  0  0  0
    5.9650   -7.6439    0.0000 C   0  0  0  0  0  0  0  0  0  0  0  0
    7.3940   -9.2939    0.0000 C   0  0  0  0  0  0  0  0  0  0  0  0
    8.1084   -8.8814    0.0000 C   0  0  0  0  0  0  0  0  0  0  0  0
    8.1084   -8.0564    0.0000 C   0  0  0  0  0  0  0  0  0  0  0  0
    7.3940   -7.6439    0.0000 C   0  0  0  0  0  0  0  0  0  0  0  0
    4.5361   -9.2939    0.0000 C   0  0  0  0  0  0  0  0  0  0  0  0
    5.2506  -10.5314    0.0000 C   0  0  0  0  0  0  0  0  0  0  0  0
    5.9650  -10.1189    0.0000 C   0  0  0  0  0  0  0  0  0  0  0  0
    5.2506  -11.3564    0.0000 C   0  0  0  0  0  0  0  0  0  0  0  0
    5.9650  -11.7689    0.0000 C   0  0  0  0  0  0  0  0  0  0  0  0
    6.6795  -11.3564    0.0000 C   0  0  0  0  0  0  0  0  0  0  0  0
    6.6795  -10.5314    0.0000 C   0  0  0  0  0  0  0  0  0  0  0  0
    4.5361   -7.6439    0.0000 C   0  0  0  0  0  0  0  0  0  0  0  0
    3.8216   -8.8814    0.0000 O   0  0  0  0  0  0  0  0  0  0  0  0
    5.9650  -12.5939    0.0000 O   0  0  0  0  0  0  0  0  0  0  0  0
    4.5361  -11.7689    0.0000 O   0  0  0  0  0  0  0  0  0  0  0  0
    4.5361  -12.5939    0.0000 C   0  0  0  0  0  0  0  0  0  0  0  0
    8.8229   -9.2939    0.0000 O   0  0  0  0  0  0  0  0  0  0  0  0
    8.8229   -7.6439    0.0000 O   0  0  0  0  0  0  0  0  0  0  0  0
    8.8229   -6.8189    0.0000 C   0  0  0  0  0  0  0  0  0  0  0  0
    4.5361   -6.8189    0.0000 O   0  0  0  0  0  0  0  0  0  0  0  0
    4.4537   -8.2699    0.0000 O   0  0  0  0  0  0  0  0  0  0  0  0
    8.8229  -10.1189    0.0000 C   0  0  2  0  0  0  0  0  0  0  0  0
    8.1084  -10.5314    0.0000 O   0  0  0  0  0  0  0  0  0  0  0  0
    8.1084  -11.3564    0.0000 C   0  0  1  0  0  0  0  0  0  0  0  0
    8.8229  -11.7689    0.0000 C   0  0  2  0  0  0  0  0  0  0  0  0
    9.5374  -11.3564    0.0000 C   0  0  1  0  0  0  0  0  0  0  0  0
    9.5374  -10.5314    0.0000 C   0  0  1  0  0  0  0  0  0  0  0  0
    7.3940  -11.7689    0.0000 C   0  0  0  0  0  0  0  0  0  0  0  0
   10.2519  -11.7689    0.0000 O   0  0  0  0  0  0  0  0  0  0  0  0
    8.8229  -12.5939    0.0000 O   0  0  0  0  0  0  0  0  0  0  0  0
   10.2519  -10.1189    0.0000 O   0  0  0  0  0  0  0  0  0  0  0  0
    7.3940  -12.5939    0.0000 O   0  0  0  0  0  0  0  0  0  0  0  0
  1  2  1  0  0  0  0
  2  3  1  0  0  0  0
  3  4  1  0  0  0  0
  4  5  1  0  0  0  0
  5  6  1  0  0  0  0
  6  1  1  0  0  0  0
  4  7  2  0  0  0  0
  7  8  1  0  0  0  0
  8  9  2  0  0  0  0
  9 10  1  0  0  0  0
 10  5  2  0  0  0  0
  2 11  1  1  0  0  0
 12 13  2  0  0  0  0
  3 13  1  6  0  0  0
 12 14  1  0  0  0  0
 14 15  2  0  0  0  0
 15 16  1  0  0  0  0
 16 17  2  0  0  0  0
 17 13  1  0  0  0  0
  1 18  1  0  0  0  0
 19 11  1  0  0  0  0
 15 20  1  0  0  0  0
 14 21  1  0  0  0  0
 21 22  1  0  0  0  0
  8 23  1  0  0  0  0
  9 24  1  0  0  0  0
 24 25  1  0  0  0  0
 18 26  1  0  0  0  0
  1 27  1  1  0  0  0
 28 23  1  1  0  0  0
 28 29  1  0  0  0  0
 29 30  1  0  0  0  0
 30 31  1  0  0  0  0
 31 32  1  0  0  0  0
 32 33  1  0  0  0  0
 33 28  1  0  0  0  0
 30 34  1  1  0  0  0
 32 35  1  1  0  0  0
 31 36  1  6  0  0  0
 33 37  1  6  0  0  0
 34 38  1  0  0  0  0
M  END
>  <cdx:fragmentId>
5

$$$$
