70225.cdx
  Mrv1902 05222410242D          

 44 48  0  0  0  0            999 V2000
    5.9931   -7.6576    0.0000 C   0  0  0  0  0  0  0  0  0  0  0  0
    5.9931   -8.4826    0.0000 C   0  0  0  0  0  0  0  0  0  0  0  0
    6.7075   -8.8951    0.0000 C   0  0  0  0  0  0  0  0  0  0  0  0
    7.4220   -8.4826    0.0000 C   0  0  0  0  0  0  0  0  0  0  0  0
    7.4220   -7.6576    0.0000 C   0  0  0  0  0  0  0  0  0  0  0  0
    6.7075   -7.2451    0.0000 C   0  0  0  0  0  0  0  0  0  0  0  0
    8.1365   -8.8951    0.0000 C   0  0  0  0  0  0  0  0  0  0  0  0
    8.8509   -8.4826    0.0000 C   0  0  0  0  0  0  0  0  0  0  0  0
    8.8509   -7.6576    0.0000 C   0  0  0  0  0  0  0  0  0  0  0  0
    8.1365   -7.2451    0.0000 O   0  0  0  0  0  0  0  0  0  0  0  0
   11.7088   -7.6576    0.0000 O   0  0  0  0  0  0  0  0  0  0  0  0
   12.4233   -6.4201    0.0000 C   0  0  0  0  0  0  0  0  0  0  0  0
   11.7088   -6.0076    0.0000 O   0  0  0  0  0  0  0  0  0  0  0  0
   10.2799   -7.6576    0.0000 C   0  0  0  0  0  0  0  0  0  0  0  0
    6.7075   -9.7201    0.0000 O   0  0  0  0  0  0  0  0  0  0  0  0
    8.1365   -9.7201    0.0000 O   0  0  0  0  0  0  0  0  0  0  0  0
   10.9944   -7.2451    0.0000 C   0  0  0  0  0  0  0  0  0  0  0  0
   10.9944   -6.4201    0.0000 C   0  0  0  0  0  0  0  0  0  0  0  0
   10.2799   -6.0076    0.0000 C   0  0  0  0  0  0  0  0  0  0  0  0
    9.5654   -7.2451    0.0000 C   0  0  0  0  0  0  0  0  0  0  0  0
    9.5654   -6.4201    0.0000 C   0  0  0  0  0  0  0  0  0  0  0  0
    5.2786   -7.2451    0.0000 O   0  0  0  0  0  0  0  0  0  0  0  0
    5.2786   -8.8951    0.0000 C   0  0  2  0  0  0  0  0  0  0  0  0
    4.5641   -8.4826    0.0000 O   0  0  0  0  0  0  0  0  0  0  0  0
    3.8496   -8.8951    0.0000 C   0  0  0  0  0  0  0  0  0  0  0  0
    3.8496   -9.7201    0.0000 C   0  0  2  0  0  0  0  0  0  0  0  0
    4.5641  -10.1326    0.0000 C   0  0  1  0  0  0  0  0  0  0  0  0
    5.2786   -9.7201    0.0000 C   0  0  1  0  0  0  0  0  0  0  0  0
    4.5641  -10.9576    0.0000 O   0  0  0  0  0  0  0  0  0  0  0  0
    5.9931  -10.1326    0.0000 O   0  0  0  0  0  0  0  0  0  0  0  0
    3.1352  -10.1326    0.0000 O   0  0  0  0  0  0  0  0  0  0  0  0
    5.9931  -10.9576    0.0000 C   0  0  2  0  0  0  0  0  0  0  0  0
    5.2786  -11.3701    0.0000 O   0  0  0  0  0  0  0  0  0  0  0  0
    5.2786  -12.1951    0.0000 C   0  0  1  0  0  0  0  0  0  0  0  0
    5.9931  -12.6076    0.0000 C   0  0  2  0  0  0  0  0  0  0  0  0
    6.7075  -12.1951    0.0000 C   0  0  1  0  0  0  0  0  0  0  0  0
    6.7075  -11.3701    0.0000 C   0  0  1  0  0  0  0  0  0  0  0  0
    4.5641  -12.6076    0.0000 C   0  0  0  0  0  0  0  0  0  0  0  0
    7.4220  -12.6076    0.0000 O   0  0  0  0  0  0  0  0  0  0  0  0
    5.9931  -13.4326    0.0000 O   0  0  0  0  0  0  0  0  0  0  0  0
    7.4220  -10.9576    0.0000 O   0  0  0  0  0  0  0  0  0  0  0  0
    3.8496  -12.1951    0.0000 O   0  0  0  0  0  0  0  0  0  0  0  0
    4.5641  -13.4326    0.0000 O   0  0  0  0  0  0  0  0  0  0  0  0
    5.2786   -8.0701    0.0000 H   0  0  0  0  0  0  0  0  0  0  0  0
  1  2  2  0  0  0  0
  2  3  1  0  0  0  0
  3  4  2  0  0  0  0
  4  5  1  0  0  0  0
  5  6  2  0  0  0  0
  6  1  1  0  0  0  0
  4  7  1  0  0  0  0
  7  8  1  0  0  0  0
  8  9  2  0  0  0  0
  9 10  1  0  0  0  0
 10  5  1  0  0  0  0
 11 17  1  0  0  0  0
 13 12  1  0  0  0  0
 18 13  1  0  0  0  0
 20  9  1  0  0  0  0
 14 20  1  0  0  0  0
 17 14  2  0  0  0  0
 18 17  1  0  0  0  0
 19 18  2  0  0  0  0
 21 19  1  0  0  0  0
  3 15  1  0  0  0  0
 16  7  2  0  0  0  0
 21 20  2  0  0  0  0
  1 22  1  0  0  0  0
  2 23  1  0  0  0  0
 23 24  1  0  0  0  0
 24 25  1  0  0  0  0
 25 26  1  0  0  0  0
 26 27  1  0  0  0  0
 27 28  1  0  0  0  0
 28 23  1  0  0  0  0
 27 29  1  1  0  0  0
 28 30  1  6  0  0  0
 26 31  1  6  0  0  0
 32 30  1  1  0  0  0
 32 33  1  0  0  0  0
 33 34  1  0  0  0  0
 34 35  1  0  0  0  0
 35 36  1  0  0  0  0
 36 37  1  0  0  0  0
 37 32  1  0  0  0  0
 34 38  1  1  0  0  0
 36 39  1  1  0  0  0
 35 40  1  6  0  0  0
 37 41  1  6  0  0  0
 38 42  2  0  0  0  0
 38 43  1  0  0  0  0
 23 44  1  6  0  0  0
M  END
>  <cdx:fragmentId>
5

$$$$
