70221.cdx
  Mrv1902 05222410242D          

 42 47  0  0  0  0            999 V2000
   10.8690   -5.5019    0.0000 O   0  0  0  0  0  0  0  0  0  0  0  0
   10.3840   -6.1693    0.0000 C   0  0  0  0  0  0  0  0  0  0  0  0
   10.8690   -6.8368    0.0000 C   0  0  0  0  0  0  0  0  0  0  0  0
   11.6536   -6.5818    0.0000 C   0  0  0  0  0  0  0  0  0  0  0  0
   11.6536   -5.7568    0.0000 C   0  0  0  0  0  0  0  0  0  0  0  0
   12.3210   -5.2719    0.0000 O   0  0  0  0  0  0  0  0  0  0  0  0
    6.9715   -8.7013    0.0000 C   0  0  0  0  0  0  0  0  0  0  0  0
    6.2570   -9.1138    0.0000 C   0  0  0  0  0  0  0  0  0  0  0  0
    6.2570   -9.9388    0.0000 C   0  0  1  0  0  0  0  0  0  0  0  0
    6.9715  -10.3513    0.0000 C   0  0  0  0  0  0  0  0  0  0  0  0
    7.6860   -9.9388    0.0000 C   0  0  1  0  0  0  0  0  0  0  0  0
    8.4004  -10.3513    0.0000 C   0  0  0  0  0  0  0  0  0  0  0  0
    9.1149   -9.9388    0.0000 C   0  0  0  0  0  0  0  0  0  0  0  0
    9.1149   -9.1138    0.0000 C   0  0  1  0  0  0  0  0  0  0  0  0
    9.8294   -8.7013    0.0000 C   0  0  1  0  0  0  0  0  0  0  0  0
   10.6140   -8.9563    0.0000 C   0  0  0  0  0  0  0  0  0  0  0  0
   11.0989   -8.2888    0.0000 C   0  0  0  0  0  0  0  0  0  0  0  0
   10.6140   -7.6214    0.0000 C   0  0  1  0  0  0  0  0  0  0  0  0
    9.8294   -7.8763    0.0000 C   0  0  1  0  0  0  0  0  0  0  0  0
    9.1149   -7.4638    0.0000 C   0  0  1  0  0  0  0  0  0  0  0  0
    8.4004   -7.8763    0.0000 C   0  0  0  0  0  0  0  0  0  0  0  0
    8.4004   -8.7013    0.0000 C   0  0  2  0  0  0  0  0  0  0  0  0
    7.6860   -9.1138    0.0000 C   0  0  1  0  0  0  0  0  0  0  0  0
    9.9156   -7.0558    0.0000 C   0  0  0  0  0  0  0  0  0  0  0  0
    7.6860   -8.2888    0.0000 C   0  0  0  0  0  0  0  0  0  0  0  0
    9.8294   -9.5263    0.0000 O   0  0  0  0  0  0  0  0  0  0  0  0
    9.1149   -6.6388    0.0000 O   0  0  0  0  0  0  0  0  0  0  0  0
    5.5426  -10.3513    0.0000 O   0  0  0  0  0  0  0  0  0  0  0  0
    4.8281   -9.1138    0.0000 O   0  0  0  0  0  0  0  0  0  0  0  0
    4.8281   -9.9388    0.0000 C   0  0  2  0  0  0  0  0  0  0  0  0
    4.1136  -10.3513    0.0000 C   0  0  1  0  0  0  0  0  0  0  0  0
    3.3992   -9.9388    0.0000 C   0  0  2  0  0  0  0  0  0  0  0  0
    3.3992   -9.1138    0.0000 C   0  0  2  0  0  0  0  0  0  0  0  0
    4.1136   -8.7013    0.0000 C   0  0  1  0  0  0  0  0  0  0  0  0
    4.1136   -7.8763    0.0000 C   0  0  0  0  0  0  0  0  0  0  0  0
    2.6847  -10.3513    0.0000 O   0  0  0  0  0  0  0  0  0  0  0  0
    1.9702   -9.9388    0.0000 C   0  0  0  0  0  0  0  0  0  0  0  0
    2.6847   -8.7013    0.0000 O   0  0  0  0  0  0  0  0  0  0  0  0
    4.1136  -11.1763    0.0000 O   0  0  0  0  0  0  0  0  0  0  0  0
    7.6860  -10.7638    0.0000 H   0  0  0  0  0  0  0  0  0  0  0  0
    9.1149   -8.2888    0.0000 H   0  0  0  0  0  0  0  0  0  0  0  0
    8.4004   -9.5263    0.0000 H   0  0  0  0  0  0  0  0  0  0  0  0
  1  2  1  0  0  0  0
  2  3  1  0  0  0  0
  3  4  2  0  0  0  0
  4  5  1  0  0  0  0
  1  5  1  0  0  0  0
  5  6  2  0  0  0  0
  7  8  1  0  0  0  0
  8  9  1  0  0  0  0
  9 10  1  0  0  0  0
 10 11  1  0  0  0  0
 11 12  1  0  0  0  0
 12 13  1  0  0  0  0
 13 14  1  0  0  0  0
 14 15  1  0  0  0  0
 15 16  1  0  0  0  0
 16 17  1  0  0  0  0
 17 18  1  0  0  0  0
 18 19  1  0  0  0  0
 15 19  1  0  0  0  0
 19 20  1  0  0  0  0
 20 21  1  0  0  0  0
 21 22  1  0  0  0  0
 14 22  1  0  0  0  0
 22 23  1  0  0  0  0
 11 23  1  0  0  0  0
  7 23  1  0  0  0  0
 19 24  1  1  0  0  0
 23 25  1  1  0  0  0
 15 26  1  1  0  0  0
 20 27  1  1  0  0  0
 29 30  1  0  0  0  0
 30 31  1  0  0  0  0
 31 32  1  0  0  0  0
 32 33  1  0  0  0  0
 33 34  1  0  0  0  0
 29 34  1  0  0  0  0
 34 35  1  1  0  0  0
 36 37  1  0  0  0  0
 32 36  1  1  0  0  0
 33 38  1  1  0  0  0
 31 39  1  6  0  0  0
 30 28  1  1  0  0  0
  9 28  1  1  0  0  0
 18  3  1  1  0  0  0
 11 40  1  1  0  0  0
 14 41  1  1  0  0  0
 22 42  1  6  0  0  0
M  END
>  <cdx:fragmentId>
17

$$$$
