70220.cdx
  Mrv1902 05222410242D          

 43 48  0  0  0  0            999 V2000
   11.1103   -5.7233    0.0000 O   0  0  0  0  0  0  0  0  0  0  0  0
   10.6254   -6.3907    0.0000 C   0  0  0  0  0  0  0  0  0  0  0  0
   11.1103   -7.0581    0.0000 C   0  0  0  0  0  0  0  0  0  0  0  0
   11.8949   -6.8032    0.0000 C   0  0  0  0  0  0  0  0  0  0  0  0
   11.8949   -5.9782    0.0000 C   0  0  0  0  0  0  0  0  0  0  0  0
   12.5624   -5.4933    0.0000 O   0  0  0  0  0  0  0  0  0  0  0  0
    7.2129   -8.9227    0.0000 C   0  0  0  0  0  0  0  0  0  0  0  0
    6.4984   -9.3352    0.0000 C   0  0  0  0  0  0  0  0  0  0  0  0
    6.4984  -10.1602    0.0000 C   0  0  1  0  0  0  0  0  0  0  0  0
    7.2129  -10.5727    0.0000 C   0  0  0  0  0  0  0  0  0  0  0  0
    7.9273  -10.1602    0.0000 C   0  0  1  0  0  0  0  0  0  0  0  0
    8.6418  -10.5727    0.0000 C   0  0  0  0  0  0  0  0  0  0  0  0
    9.3563  -10.1602    0.0000 C   0  0  0  0  0  0  0  0  0  0  0  0
    9.3563   -9.3352    0.0000 C   0  0  1  0  0  0  0  0  0  0  0  0
   10.0707   -8.9227    0.0000 C   0  0  1  0  0  0  0  0  0  0  0  0
   10.8554   -9.1776    0.0000 C   0  0  0  0  0  0  0  0  0  0  0  0
   11.3403   -8.5102    0.0000 C   0  0  1  0  0  0  0  0  0  0  0  0
   10.8554   -7.8428    0.0000 C   0  0  1  0  0  0  0  0  0  0  0  0
   10.0707   -8.0977    0.0000 C   0  0  1  0  0  0  0  0  0  0  0  0
    9.3563   -7.6852    0.0000 C   0  0  1  0  0  0  0  0  0  0  0  0
    8.6418   -8.0977    0.0000 C   0  0  0  0  0  0  0  0  0  0  0  0
    8.6418   -8.9227    0.0000 C   0  0  2  0  0  0  0  0  0  0  0  0
    7.9273   -9.3352    0.0000 C   0  0  1  0  0  0  0  0  0  0  0  0
   10.1570   -7.2772    0.0000 C   0  0  0  0  0  0  0  0  0  0  0  0
    7.9273   -8.5102    0.0000 C   0  0  0  0  0  0  0  0  0  0  0  0
   12.1653   -8.5102    0.0000 O   0  0  0  0  0  0  0  0  0  0  0  0
   10.0707   -9.7477    0.0000 O   0  0  0  0  0  0  0  0  0  0  0  0
    9.3563   -6.8602    0.0000 O   0  0  0  0  0  0  0  0  0  0  0  0
    5.7839  -10.5727    0.0000 O   0  0  0  0  0  0  0  0  0  0  0  0
    7.9273  -10.9852    0.0000 H   0  0  0  0  0  0  0  0  0  0  0  0
    9.3563   -8.5102    0.0000 H   0  0  0  0  0  0  0  0  0  0  0  0
    8.6418   -9.7477    0.0000 H   0  0  0  0  0  0  0  0  0  0  0  0
    5.0694  -10.1602    0.0000 C   0  0  2  0  0  0  0  0  0  0  0  0
    5.0694   -9.3352    0.0000 O   0  0  0  0  0  0  0  0  0  0  0  0
    4.3550   -8.9227    0.0000 C   0  0  1  0  0  0  0  0  0  0  0  0
    3.6405   -9.3352    0.0000 C   0  0  1  0  0  0  0  0  0  0  0  0
    3.6405  -10.1602    0.0000 C   0  0  1  0  0  0  0  0  0  0  0  0
    4.3550  -10.5727    0.0000 C   0  0  1  0  0  0  0  0  0  0  0  0
    4.3550   -8.0977    0.0000 C   0  0  0  0  0  0  0  0  0  0  0  0
    2.9260  -10.5727    0.0000 O   0  0  0  0  0  0  0  0  0  0  0  0
    2.9260   -8.9227    0.0000 O   0  0  0  0  0  0  0  0  0  0  0  0
    2.2116  -10.1602    0.0000 C   0  0  0  0  0  0  0  0  0  0  0  0
    4.3550  -11.3977    0.0000 O   0  0  0  0  0  0  0  0  0  0  0  0
  1  2  1  0  0  0  0
  2  3  1  0  0  0  0
  3  4  2  0  0  0  0
  4  5  1  0  0  0  0
  1  5  1  0  0  0  0
  5  6  2  0  0  0  0
  7  8  1  0  0  0  0
  8  9  1  0  0  0  0
  9 10  1  0  0  0  0
 10 11  1  0  0  0  0
 11 12  1  0  0  0  0
 12 13  1  0  0  0  0
 13 14  1  0  0  0  0
 14 15  1  0  0  0  0
 15 16  1  0  0  0  0
 16 17  1  0  0  0  0
 17 18  1  0  0  0  0
 18 19  1  0  0  0  0
 15 19  1  0  0  0  0
 19 20  1  0  0  0  0
 20 21  1  0  0  0  0
 21 22  1  0  0  0  0
 14 22  1  0  0  0  0
 22 23  1  0  0  0  0
 11 23  1  0  0  0  0
  7 23  1  0  0  0  0
 19 24  1  1  0  0  0
 23 25  1  1  0  0  0
 17 26  1  1  0  0  0
 15 27  1  1  0  0  0
 20 28  1  1  0  0  0
  9 29  1  1  0  0  0
 18  3  1  1  0  0  0
 11 30  1  1  0  0  0
 14 31  1  1  0  0  0
 22 32  1  6  0  0  0
 33 29  1  1  0  0  0
 33 34  1  0  0  0  0
 34 35  1  0  0  0  0
 35 36  1  0  0  0  0
 36 37  1  0  0  0  0
 37 38  1  0  0  0  0
 38 33  1  0  0  0  0
 35 39  1  1  0  0  0
 37 40  1  1  0  0  0
 36 41  1  1  0  0  0
 40 42  1  0  0  0  0
 38 43  1  6  0  0  0
M  END
>  <cdx:fragmentId>
17

$$$$
