70224.cdx
  Mrv1902 05222410252D          

 46 50  0  0  0  0            999 V2000
    7.2075   -7.8141    0.0000 H   0  0  0  0  0  0  0  0  0  0  0  0
    7.2075   -6.9891    0.0000 O   0  0  0  0  0  0  0  0  0  0  0  0
    6.4930   -7.4016    0.0000 C   0  0  2  0  0  0  0  0  0  0  0  0
    5.7785   -6.9891    0.0000 C   0  0  1  0  0  0  0  0  0  0  0  0
    5.7785   -6.1641    0.0000 C   0  0  2  0  0  0  0  0  0  0  0  0
    6.4930   -5.7516    0.0000 C   0  0  1  0  0  0  0  0  0  0  0  0
    7.2075   -6.1641    0.0000 C   0  0  1  0  0  0  0  0  0  0  0  0
    7.9220   -5.7516    0.0000 C   0  0  0  0  0  0  0  0  0  0  0  0
    8.6364   -6.1641    0.0000 O   0  0  0  0  0  0  0  0  0  0  0  0
    6.4930   -4.9266    0.0000 O   0  0  0  0  0  0  0  0  0  0  0  0
    6.4930  -10.7016    0.0000 O   0  0  0  0  0  0  0  0  0  0  0  0
    5.0641   -8.2266    0.0000 O   0  0  0  0  0  0  0  0  0  0  0  0
   11.4943   -8.6391    0.0000 O   0  0  0  0  0  0  0  0  0  0  0  0
   12.2088   -7.4016    0.0000 C   0  0  0  0  0  0  0  0  0  0  0  0
   11.4943   -6.9891    0.0000 O   0  0  0  0  0  0  0  0  0  0  0  0
    9.3509   -7.4016    0.0000 C   0  0  0  0  0  0  0  0  0  0  0  0
   10.0654   -6.9891    0.0000 C   0  0  0  0  0  0  0  0  0  0  0  0
   10.7798   -7.4016    0.0000 C   0  0  0  0  0  0  0  0  0  0  0  0
   10.7798   -8.2266    0.0000 C   0  0  0  0  0  0  0  0  0  0  0  0
   10.0654   -8.6391    0.0000 C   0  0  0  0  0  0  0  0  0  0  0  0
    9.3509   -8.2266    0.0000 C   0  0  0  0  0  0  0  0  0  0  0  0
    5.7785  -11.1141    0.0000 O   0  0  0  0  0  0  0  0  0  0  0  0
    4.3496  -11.9391    0.0000 O   0  0  0  0  0  0  0  0  0  0  0  0
    2.9207  -11.1141    0.0000 O   0  0  0  0  0  0  0  0  0  0  0  0
    2.2062   -9.8766    0.0000 O   0  0  0  0  0  0  0  0  0  0  0  0
    2.9207   -9.4641    0.0000 C   0  0  0  0  0  0  0  0  0  0  0  0
    3.6351   -9.8766    0.0000 C   0  0  2  0  0  0  0  0  0  0  0  0
    3.6351  -10.7016    0.0000 C   0  0  2  0  0  0  0  0  0  0  0  0
    4.3496  -11.1141    0.0000 C   0  0  1  0  0  0  0  0  0  0  0  0
    5.0641  -10.7016    0.0000 C   0  0  2  0  0  0  0  0  0  0  0  0
    5.0641   -9.8766    0.0000 C   0  0  1  0  0  0  0  0  0  0  0  0
    4.3496   -9.4641    0.0000 O   0  0  0  0  0  0  0  0  0  0  0  0
    5.0641   -5.7516    0.0000 O   0  0  0  0  0  0  0  0  0  0  0  0
    5.0641   -7.4016    0.0000 O   0  0  0  0  0  0  0  0  0  0  0  0
    7.9220  -10.7016    0.0000 O   0  0  0  0  0  0  0  0  0  0  0  0
    7.9220   -8.2266    0.0000 O   0  0  0  0  0  0  0  0  0  0  0  0
    7.2075   -8.6391    0.0000 C   0  0  0  0  0  0  0  0  0  0  0  0
    6.4930   -8.2266    0.0000 C   0  0  0  0  0  0  0  0  0  0  0  0
    5.7785   -8.6391    0.0000 C   0  0  0  0  0  0  0  0  0  0  0  0
    5.7785   -9.4641    0.0000 C   0  0  0  0  0  0  0  0  0  0  0  0
    6.4930   -9.8766    0.0000 C   0  0  0  0  0  0  0  0  0  0  0  0
    7.2075   -9.4641    0.0000 C   0  0  0  0  0  0  0  0  0  0  0  0
    7.9220   -9.8766    0.0000 C   0  0  0  0  0  0  0  0  0  0  0  0
    8.6364   -9.4641    0.0000 C   0  0  0  0  0  0  0  0  0  0  0  0
    8.6364   -8.6391    0.0000 C   0  0  0  0  0  0  0  0  0  0  0  0
    5.0641   -9.0516    0.0000 H   0  0  0  0  0  0  0  0  0  0  0  0
 41 11  1  0  0  0  0
 39 12  1  0  0  0  0
 45 21  1  0  0  0  0
 19 13  1  0  0  0  0
 18 15  1  0  0  0  0
 15 14  1  0  0  0  0
 21 16  2  0  0  0  0
 17 16  1  0  0  0  0
 18 17  2  0  0  0  0
 19 18  1  0  0  0  0
 20 19  2  0  0  0  0
 21 20  1  0  0  0  0
 31 40  1  0  0  0  0
 30 22  1  6  0  0  0
 29 23  1  1  0  0  0
 28 24  1  6  0  0  0
 27 26  1  1  0  0  0
 26 25  1  0  0  0  0
 32 27  1  0  0  0  0
 28 27  1  0  0  0  0
 29 28  1  0  0  0  0
 30 29  1  0  0  0  0
 31 30  1  0  0  0  0
 32 31  1  0  0  0  0
  3 38  1  0  0  0  0
  3  1  1  6  0  0  0
 43 35  2  0  0  0  0
 45 36  1  0  0  0  0
 37 36  1  0  0  0  0
 42 37  2  0  0  0  0
 38 37  1  0  0  0  0
 39 38  2  0  0  0  0
 40 39  1  0  0  0  0
 41 40  2  0  0  0  0
 42 41  1  0  0  0  0
 43 42  1  0  0  0  0
 44 43  1  0  0  0  0
 45 44  2  0  0  0  0
  2  3  1  0  0  0  0
  3  4  1  0  0  0  0
  4  5  1  0  0  0  0
  5  6  1  0  0  0  0
  6  7  1  0  0  0  0
  2  7  1  0  0  0  0
  8  9  1  0  0  0  0
  7  8  1  1  0  0  0
  6 10  1  6  0  0  0
 31 46  1  6  0  0  0
  5 33  1  1  0  0  0
  4 34  1  6  0  0  0
M  END
>  <cdx:fragmentId>
5

$$$$
