70226.cdx
  Mrv1902 05222410252D          

 43 47  0  0  0  0            999 V2000
   12.1550   -9.4702    0.0000 C   0  0  0  0  0  0  0  0  0  0  0  0
   12.1635  -10.2952    0.0000 C   0  0  0  0  0  0  0  0  0  0  0  0
   12.8821  -10.7003    0.0000 C   0  0  0  0  0  0  0  0  0  0  0  0
   13.5923  -10.2805    0.0000 C   0  0  0  0  0  0  0  0  0  0  0  0
   13.5838   -9.4555    0.0000 C   0  0  0  0  0  0  0  0  0  0  0  0
   12.8652   -9.0504    0.0000 C   0  0  0  0  0  0  0  0  0  0  0  0
   14.3110  -10.6856    0.0000 C   0  0  0  0  0  0  0  0  0  0  0  0
   15.0212  -10.2658    0.0000 C   0  0  0  0  0  0  0  0  0  0  0  0
   15.0127   -9.4408    0.0000 C   0  0  0  0  0  0  0  0  0  0  0  0
   14.2940   -9.0357    0.0000 O   0  0  0  0  0  0  0  0  0  0  0  0
   16.4416   -9.4261    0.0000 C   0  0  0  0  0  0  0  0  0  0  0  0
   15.7229   -9.0210    0.0000 C   0  0  0  0  0  0  0  0  0  0  0  0
   17.1518   -9.0063    0.0000 C   0  0  0  0  0  0  0  0  0  0  0  0
   17.1433   -8.1813    0.0000 C   0  0  0  0  0  0  0  0  0  0  0  0
   16.4246   -7.7762    0.0000 C   0  0  0  0  0  0  0  0  0  0  0  0
   15.7144   -8.1960    0.0000 C   0  0  0  0  0  0  0  0  0  0  0  0
   12.8906  -11.5252    0.0000 O   0  0  0  0  0  0  0  0  0  0  0  0
   14.3195  -11.5105    0.0000 O   0  0  0  0  0  0  0  0  0  0  0  0
   17.8535   -7.7615    0.0000 O   0  0  0  0  0  0  0  0  0  0  0  0
   17.8450   -6.9365    0.0000 C   0  0  0  0  0  0  0  0  0  0  0  0
   16.4161   -6.9512    0.0000 O   0  0  0  0  0  0  0  0  0  0  0  0
   11.4363   -9.0651    0.0000 O   0  0  0  0  0  0  0  0  0  0  0  0
   10.7261   -9.4849    0.0000 C   0  0  2  0  0  0  0  0  0  0  0  0
   10.0074   -9.0798    0.0000 O   0  0  0  0  0  0  0  0  0  0  0  0
    9.2972   -9.4996    0.0000 C   0  0  1  0  0  0  0  0  0  0  0  0
    9.3057  -10.3246    0.0000 C   0  0  2  0  0  0  0  0  0  0  0  0
   10.0244  -10.7297    0.0000 C   0  0  1  0  0  0  0  0  0  0  0  0
   10.7346  -10.3099    0.0000 C   0  0  1  0  0  0  0  0  0  0  0  0
    8.5786   -9.0945    0.0000 C   0  0  0  0  0  0  0  0  0  0  0  0
   10.0329  -11.5546    0.0000 O   0  0  0  0  0  0  0  0  0  0  0  0
   11.4533  -10.7150    0.0000 O   0  0  0  0  0  0  0  0  0  0  0  0
    8.5955  -10.7444    0.0000 O   0  0  0  0  0  0  0  0  0  0  0  0
    7.8684   -9.5143    0.0000 O   0  0  0  0  0  0  0  0  0  0  0  0
    7.1497   -9.1092    0.0000 C   0  0  0  0  0  0  0  0  0  0  0  0
    6.4395   -9.5290    0.0000 C   0  0  0  0  0  0  0  0  0  0  0  0
    7.1412   -8.2842    0.0000 O   0  0  0  0  0  0  0  0  0  0  0  0
    5.7208   -9.1239    0.0000 C   0  0  0  0  0  0  0  0  0  0  0  0
    5.7123   -8.2989    0.0000 C   0  0  0  0  0  0  0  0  0  0  0  0
    4.9937   -7.8938    0.0000 C   0  0  0  0  0  0  0  0  0  0  0  0
    4.2835   -8.3136    0.0000 C   0  0  0  0  0  0  0  0  0  0  0  0
    4.2920   -9.1386    0.0000 C   0  0  0  0  0  0  0  0  0  0  0  0
    5.0106   -9.5437    0.0000 C   0  0  0  0  0  0  0  0  0  0  0  0
    3.5648   -7.9085    0.0000 O   0  0  0  0  0  0  0  0  0  0  0  0
  1  2  2  0  0  0  0
  2  3  1  0  0  0  0
  3  4  2  0  0  0  0
  4  5  1  0  0  0  0
  5  6  2  0  0  0  0
  6  1  1  0  0  0  0
  4  7  1  0  0  0  0
  7  8  1  0  0  0  0
  8  9  2  0  0  0  0
  9 10  1  0  0  0  0
 10  5  1  0  0  0  0
 11 12  2  0  0  0  0
 12  9  1  0  0  0  0
 11 13  1  0  0  0  0
 13 14  2  0  0  0  0
 14 15  1  0  0  0  0
 15 16  2  0  0  0  0
 16 12  1  0  0  0  0
  3 17  1  0  0  0  0
 18  7  2  0  0  0  0
 14 19  1  0  0  0  0
 19 20  1  0  0  0  0
 21 15  1  0  0  0  0
  1 22  1  0  0  0  0
 23 22  1  1  0  0  0
 23 24  1  0  0  0  0
 24 25  1  0  0  0  0
 25 26  1  0  0  0  0
 26 27  1  0  0  0  0
 27 28  1  0  0  0  0
 28 23  1  0  0  0  0
 25 29  1  1  0  0  0
 27 30  1  1  0  0  0
 28 31  1  6  0  0  0
 26 32  1  6  0  0  0
 29 33  1  0  0  0  0
 33 34  1  0  0  0  0
 34 35  1  0  0  0  0
 34 36  2  0  0  0  0
 35 37  1  0  0  0  0
 37 38  2  0  0  0  0
 38 39  1  0  0  0  0
 39 40  2  0  0  0  0
 40 41  1  0  0  0  0
 41 42  2  0  0  0  0
 42 37  1  0  0  0  0
 40 43  1  0  0  0  0
M  END
>  <cdx:fragmentId>
5

$$$$
