702228.cdx
  Mrv1902 05222410262D          

 72 80  0  0  0  0            999 V2000
    2.9596  -10.8463    0.0000 C   0  0  0  0  0  0  0  0  0  0  0  0
    2.2451  -11.2588    0.0000 C   0  0  0  0  0  0  0  0  0  0  0  0
    3.6741  -11.2588    0.0000 O   0  0  0  0  0  0  0  0  0  0  0  0
    2.9596  -10.0213    0.0000 O   0  0  0  0  0  0  0  0  0  0  0  0
    5.1030   -8.7838    0.0000 O   0  0  0  0  0  0  0  0  0  0  0  0
    4.3886   -8.3713    0.0000 C   0  0  1  0  0  0  0  0  0  0  0  0
    3.6741   -8.7838    0.0000 C   0  0  2  0  0  0  0  0  0  0  0  0
    3.6741   -9.6088    0.0000 C   0  0  2  0  0  0  0  0  0  0  0  0
    4.3886  -10.0213    0.0000 C   0  0  0  0  0  0  0  0  0  0  0  0
    5.1030   -9.6088    0.0000 C   0  0  2  0  0  0  0  0  0  0  0  0
    2.9596   -8.3713    0.0000 O   0  0  0  0  0  0  0  0  0  0  0  0
    3.6741   -7.1338    0.0000 O   0  0  0  0  0  0  0  0  0  0  0  0
    2.9596   -7.5463    0.0000 C   0  0  2  0  0  0  0  0  0  0  0  0
    2.2451   -7.1338    0.0000 C   0  0  1  0  0  0  0  0  0  0  0  0
    2.2451   -6.3088    0.0000 C   0  0  2  0  0  0  0  0  0  0  0  0
    2.9596   -5.8963    0.0000 C   0  0  1  0  0  0  0  0  0  0  0  0
    3.6741   -6.3088    0.0000 C   0  0  1  0  0  0  0  0  0  0  0  0
    4.3886   -5.8963    0.0000 C   0  0  0  0  0  0  0  0  0  0  0  0
    4.3886   -5.0713    0.0000 O   0  0  0  0  0  0  0  0  0  0  0  0
    2.9596   -5.0713    0.0000 O   0  0  0  0  0  0  0  0  0  0  0  0
    1.5307   -5.8963    0.0000 O   0  0  0  0  0  0  0  0  0  0  0  0
    1.5307   -7.5463    0.0000 O   0  0  0  0  0  0  0  0  0  0  0  0
    4.3886   -7.5463    0.0000 C   0  0  0  0  0  0  0  0  0  0  0  0
    5.8175  -10.0213    0.0000 O   0  0  0  0  0  0  0  0  0  0  0  0
    7.9609   -9.6088    0.0000 O   0  0  0  0  0  0  0  0  0  0  0  0
    7.2464  -10.0213    0.0000 C   0  0  1  0  0  0  0  0  0  0  0  0
    6.5320   -9.6088    0.0000 C   0  0  2  0  0  0  0  0  0  0  0  0
    6.5320   -8.7838    0.0000 C   0  0  2  0  0  0  0  0  0  0  0  0
    7.2464   -8.3713    0.0000 C   0  0  0  0  0  0  0  0  0  0  0  0
    7.9609   -8.7838    0.0000 C   0  0  2  0  0  0  0  0  0  0  0  0
    7.2464  -10.8463    0.0000 C   0  0  0  0  0  0  0  0  0  0  0  0
    5.8175   -8.3713    0.0000 O   0  0  0  0  0  0  0  0  0  0  0  0
    8.6754   -8.3713    0.0000 O   0  0  0  0  0  0  0  0  0  0  0  0
   10.1043  -10.0213    0.0000 O   0  0  0  0  0  0  0  0  0  0  0  0
    9.3899   -9.6088    0.0000 C   0  0  1  0  0  0  0  0  0  0  0  0
    9.3899   -8.7838    0.0000 C   0  0  2  0  0  0  0  0  0  0  0  0
   10.1043   -8.3713    0.0000 C   0  0  2  0  0  0  0  0  0  0  0  0
   10.8188   -8.7838    0.0000 C   0  0  0  0  0  0  0  0  0  0  0  0
   10.8188   -9.6088    0.0000 C   0  0  2  0  0  0  0  0  0  0  0  0
    8.6754  -10.0213    0.0000 C   0  0  0  0  0  0  0  0  0  0  0  0
   10.1043   -7.5463    0.0000 O   0  0  0  0  0  0  0  0  0  0  0  0
   11.5333  -10.0213    0.0000 O   0  0  0  0  0  0  0  0  0  0  0  0
   12.9622   -8.3713    0.0000 C   0  0  0  0  0  0  0  0  0  0  0  0
   12.2477   -8.7838    0.0000 C   0  0  0  0  0  0  0  0  0  0  0  0
   12.2477   -9.6088    0.0000 C   0  0  1  0  0  0  0  0  0  0  0  0
   12.9622  -10.0213    0.0000 C   0  0  0  0  0  0  0  0  0  0  0  0
   13.6767   -9.6088    0.0000 C   0  0  1  0  0  0  0  0  0  0  0  0
   14.3912  -10.0213    0.0000 C   0  0  0  0  0  0  0  0  0  0  0  0
   15.1056   -9.6088    0.0000 C   0  0  0  0  0  0  0  0  0  0  0  0
   15.1056   -8.7838    0.0000 C   0  0  1  0  0  0  0  0  0  0  0  0
   15.8201   -8.3713    0.0000 C   0  0  1  0  0  0  0  0  0  0  0  0
   16.6047   -8.6263    0.0000 C   0  0  0  0  0  0  0  0  0  0  0  0
   17.0896   -7.9588    0.0000 C   0  0  0  0  0  0  0  0  0  0  0  0
   16.6047   -7.2914    0.0000 C   0  0  1  0  0  0  0  0  0  0  0  0
   15.8201   -7.5463    0.0000 C   0  0  1  0  0  0  0  0  0  0  0  0
   15.1056   -7.1338    0.0000 C   0  0  1  0  0  0  0  0  0  0  0  0
   14.3912   -7.5463    0.0000 C   0  0  0  0  0  0  0  0  0  0  0  0
   14.3912   -8.3713    0.0000 C   0  0  2  0  0  0  0  0  0  0  0  0
   13.6767   -8.7838    0.0000 C   0  0  1  0  0  0  0  0  0  0  0  0
   16.8597   -5.1719    0.0000 O   0  0  0  0  0  0  0  0  0  0  0  0
   16.3747   -5.8393    0.0000 C   0  0  0  0  0  0  0  0  0  0  0  0
   16.8597   -6.5068    0.0000 C   0  0  0  0  0  0  0  0  0  0  0  0
   17.6443   -6.2518    0.0000 C   0  0  0  0  0  0  0  0  0  0  0  0
   17.6443   -5.4268    0.0000 C   0  0  0  0  0  0  0  0  0  0  0  0
   18.3117   -4.9419    0.0000 O   0  0  0  0  0  0  0  0  0  0  0  0
   15.9063   -6.7258    0.0000 C   0  0  0  0  0  0  0  0  0  0  0  0
   13.6767   -7.9588    0.0000 C   0  0  0  0  0  0  0  0  0  0  0  0
   15.8201   -9.1963    0.0000 O   0  0  0  0  0  0  0  0  0  0  0  0
   15.1056   -6.3088    0.0000 O   0  0  0  0  0  0  0  0  0  0  0  0
   13.6767  -10.4338    0.0000 H   0  0  0  0  0  0  0  0  0  0  0  0
   15.1056   -7.9588    0.0000 H   0  0  0  0  0  0  0  0  0  0  0  0
   14.3912   -9.1963    0.0000 H   0  0  0  0  0  0  0  0  0  0  0  0
  1  2  1  0  0  0  0
  1  3  2  0  0  0  0
  1  4  1  0  0  0  0
  5  6  1  0  0  0  0
  6  7  1  0  0  0  0
  7  8  1  0  0  0  0
  8  9  1  0  0  0  0
  9 10  1  0  0  0  0
  5 10  1  0  0  0  0
 12 13  1  0  0  0  0
 13 14  1  0  0  0  0
 14 15  1  0  0  0  0
 15 16  1  0  0  0  0
 16 17  1  0  0  0  0
 12 17  1  0  0  0  0
 18 19  1  0  0  0  0
 17 18  1  1  0  0  0
 16 20  1  6  0  0  0
 15 21  1  1  0  0  0
 14 22  1  6  0  0  0
 13 11  1  1  0  0  0
  7 11  1  6  0  0  0
  6 23  1  1  0  0  0
 25 26  1  0  0  0  0
 26 27  1  0  0  0  0
 27 28  1  0  0  0  0
 28 29  1  0  0  0  0
 29 30  1  0  0  0  0
 25 30  1  0  0  0  0
 26 31  1  6  0  0  0
 28 32  1  1  0  0  0
 34 35  1  0  0  0  0
 35 36  1  0  0  0  0
 36 37  1  0  0  0  0
 37 38  1  0  0  0  0
 38 39  1  0  0  0  0
 34 39  1  0  0  0  0
 35 40  1  6  0  0  0
 37 41  1  1  0  0  0
 43 44  1  0  0  0  0
 44 45  1  0  0  0  0
 45 46  1  0  0  0  0
 46 47  1  0  0  0  0
 47 48  1  0  0  0  0
 48 49  1  0  0  0  0
 49 50  1  0  0  0  0
 50 51  1  0  0  0  0
 51 52  1  0  0  0  0
 52 53  1  0  0  0  0
 53 54  1  0  0  0  0
 54 55  1  0  0  0  0
 51 55  1  0  0  0  0
 55 56  1  0  0  0  0
 56 57  1  0  0  0  0
 57 58  1  0  0  0  0
 50 58  1  0  0  0  0
 58 59  1  0  0  0  0
 47 59  1  0  0  0  0
 43 59  1  0  0  0  0
 60 61  1  0  0  0  0
 61 62  1  0  0  0  0
 62 63  2  0  0  0  0
 63 64  1  0  0  0  0
 60 64  1  0  0  0  0
 64 65  2  0  0  0  0
 54 62  1  1  0  0  0
 55 66  1  1  0  0  0
 59 67  1  1  0  0  0
 51 68  1  1  0  0  0
 56 69  1  1  0  0  0
 45 42  1  1  0  0  0
 39 42  1  6  0  0  0
 36 33  1  1  0  0  0
 30 33  1  6  0  0  0
 27 24  1  1  0  0  0
 10 24  1  1  0  0  0
  8  4  1  6  0  0  0
 47 70  1  1  0  0  0
 50 71  1  1  0  0  0
 58 72  1  6  0  0  0
M  END
>  <cdx:fragmentId>
89

$$$$
