70223.cdx
  Mrv1902 05222410232D          

 41 46  0  0  0  0            999 V2000
    3.9168  -10.4489    0.0000 C   0  0  0  0  0  0  0  0  0  0  0  0
    3.9168  -11.2739    0.0000 C   0  0  1  0  0  0  0  0  0  0  0  0
    4.6313  -11.6864    0.0000 C   0  0  0  0  0  0  0  0  0  0  0  0
    5.3457  -11.2739    0.0000 C   0  0  1  0  0  0  0  0  0  0  0  0
    5.3457  -10.4489    0.0000 C   0  0  2  0  0  0  0  0  0  0  0  0
    4.6313  -10.0364    0.0000 C   0  0  0  0  0  0  0  0  0  0  0  0
    6.0602  -11.6864    0.0000 C   0  0  2  0  0  0  0  0  0  0  0  0
    6.7747  -11.2739    0.0000 C   0  0  2  0  0  0  0  0  0  0  0  0
    6.7747  -10.4489    0.0000 C   0  0  2  0  0  0  0  0  0  0  0  0
    6.0602  -10.0364    0.0000 C   0  0  0  0  0  0  0  0  0  0  0  0
    7.4892  -10.0364    0.0000 C   0  0  0  0  0  0  0  0  0  0  0  0
    7.4892   -9.2114    0.0000 C   0  0  2  0  0  0  0  0  0  0  0  0
    6.7747   -8.7989    0.0000 C   0  0  0  0  0  0  0  0  0  0  0  0
    6.0602   -9.2114    0.0000 C   0  0  0  0  0  0  0  0  0  0  0  0
    8.2738  -10.2913    0.0000 C   0  0  0  0  0  0  0  0  0  0  0  0
    8.7587   -9.6239    0.0000 C   0  0  0  0  0  0  0  0  0  0  0  0
    8.2738   -8.9565    0.0000 C   0  0  2  0  0  0  0  0  0  0  0  0
    4.6313   -9.2114    0.0000 O   0  0  0  0  0  0  0  0  0  0  0  0
    8.5287   -8.1718    0.0000 C   0  0  2  0  0  0  0  0  0  0  0  0
    7.9767   -7.5587    0.0000 C   0  0  0  0  0  0  0  0  0  0  0  0
    9.3357   -8.0003    0.0000 C   0  0  2  0  0  0  0  0  0  0  0  0
    9.8877   -8.6134    0.0000 O   0  0  0  0  0  0  0  0  0  0  0  0
   10.6947   -8.4419    0.0000 C   0  0  0  0  0  0  0  0  0  0  0  0
   10.9496   -7.6573    0.0000 C   0  0  1  0  0  0  0  0  0  0  0  0
   10.3976   -7.0442    0.0000 C   0  0  1  0  0  0  0  0  0  0  0  0
    9.5906   -7.2157    0.0000 C   0  0  0  0  0  0  0  0  0  0  0  0
   11.2467   -9.0550    0.0000 O   0  0  0  0  0  0  0  0  0  0  0  0
    5.3457   -9.6239    0.0000 C   0  0  0  0  0  0  0  0  0  0  0  0
    6.7747   -9.6239    0.0000 H   0  0  0  0  0  0  0  0  0  0  0  0
    7.4892   -8.3864    0.0000 C   0  0  0  0  0  0  0  0  0  0  0  0
   10.9810   -6.4608    0.0000 C   0  0  0  0  0  0  0  0  0  0  0  0
   11.7566   -7.4857    0.0000 C   0  0  0  0  0  0  0  0  0  0  0  0
    5.3457  -12.0989    0.0000 O   0  0  0  0  0  0  0  0  0  0  0  0
    6.7747  -12.0989    0.0000 O   0  0  0  0  0  0  0  0  0  0  0  0
    9.1222   -8.7972    0.0000 H   0  0  0  0  0  0  0  0  0  0  0  0
   10.1841   -6.2473    0.0000 O   0  0  0  0  0  0  0  0  0  0  0  0
    3.2023  -11.6864    0.0000 S   0  0  0  0  0  0  0  0  0  0  0  0
    2.4879  -11.2739    0.0000 C   0  0  0  0  0  0  0  0  0  0  0  0
    1.7734  -11.6864    0.0000 C   0  0  0  0  0  0  0  0  0  0  0  0
    2.4879  -10.4489    0.0000 O   0  0  0  0  0  0  0  0  0  0  0  0
    7.8613   -8.2420    0.0000 H   0  0  0  0  0  0  0  0  0  0  0  0
  1  2  1  0  0  0  0
  2  3  1  0  0  0  0
  3  4  1  0  0  0  0
  4  5  1  0  0  0  0
  5  6  1  0  0  0  0
  6  1  1  0  0  0  0
  4  7  1  0  0  0  0
  7  8  1  0  0  0  0
  8  9  1  0  0  0  0
  9 10  1  0  0  0  0
 10  5  1  0  0  0  0
  9 11  1  0  0  0  0
 11 12  1  0  0  0  0
 12 13  1  0  0  0  0
 13 14  1  0  0  0  0
 14 10  1  0  0  0  0
 11 15  1  0  0  0  0
 15 16  1  0  0  0  0
 16 17  1  0  0  0  0
 17 12  1  0  0  0  0
  6 18  2  0  0  0  0
 17 19  1  0  0  0  0
 19 20  1  6  0  0  0
 19 21  1  0  0  0  0
 21 22  1  0  0  0  0
 22 23  1  0  0  0  0
 23 24  1  0  0  0  0
 24 25  1  0  0  0  0
 25 26  1  0  0  0  0
 26 21  1  0  0  0  0
 23 27  2  0  0  0  0
  5 28  1  1  0  0  0
  9 29  1  1  0  0  0
 12 30  1  1  0  0  0
 25 31  1  1  0  0  0
 24 32  1  1  0  0  0
  4 33  1  6  0  0  0
  7 34  1  6  0  0  0
  8 34  1  6  0  0  0
 21 35  1  6  0  0  0
 25 36  1  6  0  0  0
  2 37  1  1  0  0  0
 37 38  1  0  0  0  0
 38 39  1  0  0  0  0
 38 40  2  0  0  0  0
 17 41  1  6  0  0  0
M  END
>  <cdx:fragmentId>
5

$$$$
