70228.cdx
  Mrv1902 05222410212D          

 36 39  0  0  0  0            999 V2000
    7.4368   -8.8951    0.0000 C   0  0  0  0  0  0  0  0  0  0  0  0
    7.4368   -9.7201    0.0000 C   0  0  0  0  0  0  0  0  0  0  0  0
    8.1513  -10.1326    0.0000 C   0  0  0  0  0  0  0  0  0  0  0  0
    8.8657   -9.7201    0.0000 C   0  0  0  0  0  0  0  0  0  0  0  0
    8.8657   -8.8951    0.0000 C   0  0  0  0  0  0  0  0  0  0  0  0
    8.1513   -8.4826    0.0000 C   0  0  0  0  0  0  0  0  0  0  0  0
    9.5802  -10.1326    0.0000 C   0  0  0  0  0  0  0  0  0  0  0  0
   10.2947   -9.7201    0.0000 C   0  0  0  0  0  0  0  0  0  0  0  0
   10.2947   -8.8951    0.0000 C   0  0  0  0  0  0  0  0  0  0  0  0
    9.5802   -8.4826    0.0000 O   0  0  0  0  0  0  0  0  0  0  0  0
   11.7236   -8.8951    0.0000 C   0  0  0  0  0  0  0  0  0  0  0  0
   11.0092   -8.4826    0.0000 C   0  0  0  0  0  0  0  0  0  0  0  0
   12.4381   -8.4826    0.0000 C   0  0  0  0  0  0  0  0  0  0  0  0
   12.4381   -7.6576    0.0000 C   0  0  0  0  0  0  0  0  0  0  0  0
   11.7236   -7.2451    0.0000 C   0  0  0  0  0  0  0  0  0  0  0  0
   11.0092   -7.6576    0.0000 C   0  0  0  0  0  0  0  0  0  0  0  0
    8.1513  -10.9576    0.0000 O   0  0  0  0  0  0  0  0  0  0  0  0
    9.5802  -10.9576    0.0000 O   0  0  0  0  0  0  0  0  0  0  0  0
   13.1526   -7.2451    0.0000 O   0  0  0  0  0  0  0  0  0  0  0  0
   13.1526   -6.4201    0.0000 C   0  0  0  0  0  0  0  0  0  0  0  0
   11.7236   -6.4201    0.0000 O   0  0  0  0  0  0  0  0  0  0  0  0
    6.7223   -8.4826    0.0000 O   0  0  0  0  0  0  0  0  0  0  0  0
    6.0079   -8.8951    0.0000 C   0  0  2  0  0  0  0  0  0  0  0  0
    5.2934   -8.4826    0.0000 O   0  0  0  0  0  0  0  0  0  0  0  0
    4.5789   -8.8951    0.0000 C   0  0  1  0  0  0  0  0  0  0  0  0
    4.5789   -9.7201    0.0000 C   0  0  2  0  0  0  0  0  0  0  0  0
    5.2934  -10.1326    0.0000 C   0  0  1  0  0  0  0  0  0  0  0  0
    6.0079   -9.7201    0.0000 C   0  0  1  0  0  0  0  0  0  0  0  0
    3.8644   -8.4826    0.0000 C   0  0  0  0  0  0  0  0  0  0  0  0
    5.2934  -10.9576    0.0000 O   0  0  0  0  0  0  0  0  0  0  0  0
    6.7223  -10.1326    0.0000 O   0  0  0  0  0  0  0  0  0  0  0  0
    3.8644  -10.1326    0.0000 O   0  0  0  0  0  0  0  0  0  0  0  0
    3.1500   -8.8951    0.0000 O   0  0  0  0  0  0  0  0  0  0  0  0
    2.4355   -8.4826    0.0000 C   0  0  0  0  0  0  0  0  0  0  0  0
    1.7210   -8.8951    0.0000 C   0  0  0  0  0  0  0  0  0  0  0  0
    2.4355   -7.6576    0.0000 O   0  0  0  0  0  0  0  0  0  0  0  0
  1  2  2  0  0  0  0
  2  3  1  0  0  0  0
  3  4  2  0  0  0  0
  4  5  1  0  0  0  0
  5  6  2  0  0  0  0
  6  1  1  0  0  0  0
  4  7  1  0  0  0  0
  7  8  1  0  0  0  0
  8  9  2  0  0  0  0
  9 10  1  0  0  0  0
 10  5  1  0  0  0  0
 11 12  2  0  0  0  0
 12  9  1  0  0  0  0
 11 13  1  0  0  0  0
 13 14  2  0  0  0  0
 14 15  1  0  0  0  0
 15 16  2  0  0  0  0
 16 12  1  0  0  0  0
  3 17  1  0  0  0  0
 18  7  2  0  0  0  0
 14 19  1  0  0  0  0
 19 20  1  0  0  0  0
 21 15  1  0  0  0  0
  1 22  1  0  0  0  0
 23 22  1  1  0  0  0
 23 24  1  0  0  0  0
 24 25  1  0  0  0  0
 25 26  1  0  0  0  0
 26 27  1  0  0  0  0
 27 28  1  0  0  0  0
 28 23  1  0  0  0  0
 25 29  1  1  0  0  0
 27 30  1  1  0  0  0
 28 31  1  6  0  0  0
 26 32  1  6  0  0  0
 29 33  1  0  0  0  0
 33 34  1  0  0  0  0
 34 35  1  0  0  0  0
 34 36  2  0  0  0  0
M  END
>  <cdx:fragmentId>
5

$$$$
