70227.cdx
  Mrv1902 05222410252D          

 53 58  0  0  0  0            999 V2000
    6.4743   -9.0601    0.0000 C   0  0  0  0  0  0  0  0  0  0  0  0
    6.4743   -9.8851    0.0000 C   0  0  0  0  0  0  0  0  0  0  0  0
    7.1888  -10.2976    0.0000 C   0  0  0  0  0  0  0  0  0  0  0  0
    7.9032   -9.8851    0.0000 C   0  0  0  0  0  0  0  0  0  0  0  0
    7.9032   -9.0601    0.0000 C   0  0  0  0  0  0  0  0  0  0  0  0
    7.1888   -8.6476    0.0000 C   0  0  0  0  0  0  0  0  0  0  0  0
    8.6177  -10.2976    0.0000 C   0  0  0  0  0  0  0  0  0  0  0  0
    9.3322   -9.8851    0.0000 C   0  0  0  0  0  0  0  0  0  0  0  0
    9.3322   -9.0601    0.0000 C   0  0  0  0  0  0  0  0  0  0  0  0
    8.6177   -8.6476    0.0000 O   0  0  0  0  0  0  0  0  0  0  0  0
   10.7611   -9.0601    0.0000 C   0  0  0  0  0  0  0  0  0  0  0  0
   10.0467   -8.6476    0.0000 C   0  0  0  0  0  0  0  0  0  0  0  0
   11.4756   -8.6476    0.0000 C   0  0  0  0  0  0  0  0  0  0  0  0
   11.4756   -7.8226    0.0000 C   0  0  0  0  0  0  0  0  0  0  0  0
   10.7611   -7.4101    0.0000 C   0  0  0  0  0  0  0  0  0  0  0  0
   10.0467   -7.8226    0.0000 C   0  0  0  0  0  0  0  0  0  0  0  0
    7.1888  -11.1226    0.0000 O   0  0  0  0  0  0  0  0  0  0  0  0
    8.6177  -11.1226    0.0000 O   0  0  0  0  0  0  0  0  0  0  0  0
   12.1901   -7.4101    0.0000 O   0  0  0  0  0  0  0  0  0  0  0  0
   12.9045   -7.8226    0.0000 C   0  0  0  0  0  0  0  0  0  0  0  0
   10.7611   -6.5851    0.0000 O   0  0  0  0  0  0  0  0  0  0  0  0
    5.7598   -8.6476    0.0000 O   0  0  0  0  0  0  0  0  0  0  0  0
    5.7531   -7.8227    0.0000 C   0  0  2  0  0  0  0  0  0  0  0  0
    6.4642   -7.4044    0.0000 O   0  0  0  0  0  0  0  0  0  0  0  0
    6.4575   -6.5794    0.0000 C   0  0  1  0  0  0  0  0  0  0  0  0
    5.7397   -6.1727    0.0000 C   0  0  2  0  0  0  0  0  0  0  0  0
    5.0286   -6.5910    0.0000 C   0  0  1  0  0  0  0  0  0  0  0  0
    5.0353   -7.4160    0.0000 C   0  0  1  0  0  0  0  0  0  0  0  0
    7.1686   -6.1611    0.0000 C   0  0  0  0  0  0  0  0  0  0  0  0
    4.3108   -6.1844    0.0000 O   0  0  0  0  0  0  0  0  0  0  0  0
    4.3242   -7.8343    0.0000 O   0  0  0  0  0  0  0  0  0  0  0  0
    5.7329   -5.3478    0.0000 O   0  0  0  0  0  0  0  0  0  0  0  0
    7.1618   -5.3361    0.0000 O   0  0  0  0  0  0  0  0  0  0  0  0
    3.6064   -7.4277    0.0000 C   0  0  2  0  0  0  0  0  0  0  0  0
    7.8729   -4.9178    0.0000 C   0  0  2  0  0  0  0  0  0  0  0  0
    3.5997   -6.6027    0.0000 O   0  0  0  0  0  0  0  0  0  0  0  0
    2.8819   -6.1960    0.0000 C   0  0  2  0  0  0  0  0  0  0  0  0
    2.1708   -6.6143    0.0000 C   0  0  1  0  0  0  0  0  0  0  0  0
    2.1775   -7.4393    0.0000 C   0  0  2  0  0  0  0  0  0  0  0  0
    2.8953   -7.8460    0.0000 C   0  0  1  0  0  0  0  0  0  0  0  0
    8.5907   -5.3245    0.0000 O   0  0  0  0  0  0  0  0  0  0  0  0
    9.3018   -4.9062    0.0000 C   0  0  2  0  0  0  0  0  0  0  0  0
    9.2951   -4.0812    0.0000 C   0  0  1  0  0  0  0  0  0  0  0  0
    8.5773   -3.6745    0.0000 C   0  0  2  0  0  0  0  0  0  0  0  0
    7.8662   -4.0928    0.0000 C   0  0  1  0  0  0  0  0  0  0  0  0
    1.4530   -6.2077    0.0000 O   0  0  0  0  0  0  0  0  0  0  0  0
   10.0062   -3.6629    0.0000 O   0  0  0  0  0  0  0  0  0  0  0  0
    2.8953   -8.6710    0.0000 O   0  0  0  0  0  0  0  0  0  0  0  0
    1.4664   -7.8576    0.0000 O   0  0  0  0  0  0  0  0  0  0  0  0
    2.8752   -5.3710    0.0000 C   0  0  0  0  0  0  0  0  0  0  0  0
    7.1484   -3.6862    0.0000 O   0  0  0  0  0  0  0  0  0  0  0  0
    8.5706   -2.8496    0.0000 O   0  0  0  0  0  0  0  0  0  0  0  0
   10.0196   -5.3128    0.0000 C   0  0  0  0  0  0  0  0  0  0  0  0
  1  2  2  0  0  0  0
  2  3  1  0  0  0  0
  3  4  2  0  0  0  0
  4  5  1  0  0  0  0
  5  6  2  0  0  0  0
  6  1  1  0  0  0  0
  4  7  1  0  0  0  0
  7  8  1  0  0  0  0
  8  9  2  0  0  0  0
  9 10  1  0  0  0  0
 10  5  1  0  0  0  0
 11 12  2  0  0  0  0
 12  9  1  0  0  0  0
 11 13  1  0  0  0  0
 13 14  2  0  0  0  0
 14 15  1  0  0  0  0
 15 16  2  0  0  0  0
 16 12  1  0  0  0  0
  3 17  1  0  0  0  0
 18  7  2  0  0  0  0
 14 19  1  0  0  0  0
 19 20  1  0  0  0  0
 21 15  1  0  0  0  0
  1 22  1  0  0  0  0
 23 22  1  1  0  0  0
 23 24  1  0  0  0  0
 24 25  1  0  0  0  0
 25 26  1  0  0  0  0
 26 27  1  0  0  0  0
 27 28  1  0  0  0  0
 28 23  1  0  0  0  0
 25 29  1  1  0  0  0
 27 30  1  1  0  0  0
 28 31  1  6  0  0  0
 26 32  1  6  0  0  0
 29 33  1  0  0  0  0
 34 31  1  1  0  0  0
 35 33  1  1  0  0  0
 34 36  1  0  0  0  0
 36 37  1  0  0  0  0
 37 38  1  0  0  0  0
 38 39  1  0  0  0  0
 39 40  1  0  0  0  0
 40 34  1  0  0  0  0
 35 41  1  0  0  0  0
 41 42  1  0  0  0  0
 42 43  1  0  0  0  0
 43 44  1  0  0  0  0
 44 45  1  0  0  0  0
 45 35  1  0  0  0  0
 38 46  1  1  0  0  0
 43 47  1  1  0  0  0
 40 48  1  6  0  0  0
 39 49  1  6  0  0  0
 37 50  1  6  0  0  0
 45 51  1  6  0  0  0
 44 52  1  6  0  0  0
 42 53  1  6  0  0  0
M  END
>  <cdx:fragmentId>
5

$$$$
