70236.cdx
  Mrv1902 05222410232D          

 15 16  0  0  0  0            999 V2000
    7.9041   -8.4865    0.0000 C   0  0  0  0  0  0  0  0  0  0  0  0
    7.3968   -9.1371    0.0000 N   0  0  0  0  0  0  0  0  0  0  0  0
    7.8588   -9.8206    0.0000 C   0  0  0  0  0  0  0  0  0  0  0  0
    8.6516   -9.5924    0.0000 N   0  0  0  0  0  0  0  0  0  0  0  0
    8.6796   -8.7679    0.0000 C   0  0  1  0  0  0  0  0  0  0  0  0
    9.4271   -9.8738    0.0000 C   0  0  0  0  0  0  0  0  0  0  0  0
    9.9344   -9.2232    0.0000 C   0  0  0  0  0  0  0  0  0  0  0  0
    9.4724   -8.5397    0.0000 C   0  0  0  0  0  0  0  0  0  0  0  0
    7.6759   -7.6937    0.0000 O   0  0  0  0  0  0  0  0  0  0  0  0
    7.5774  -10.5961    0.0000 S   0  0  0  0  0  0  0  0  0  0  0  0
    6.5723   -9.1091    0.0000 C   0  0  0  0  0  0  0  0  0  0  0  0
    6.1598   -8.3947    0.0000 C   0  0  0  0  0  0  0  0  0  0  0  0
    5.3348   -8.3947    0.0000 C   0  0  0  0  0  0  0  0  0  0  0  0
    4.9223   -7.6802    0.0000 C   0  0  0  0  0  0  0  0  0  0  0  0
    8.6796   -7.9429    0.0000 O   0  0  0  0  0  0  0  0  0  0  0  0
  1  2  1  0  0  0  0
  2  3  1  0  0  0  0
  3  4  1  0  0  0  0
  4  5  1  0  0  0  0
  5  1  1  0  0  0  0
  4  6  1  0  0  0  0
  6  7  1  0  0  0  0
  7  8  1  0  0  0  0
  8  5  1  0  0  0  0
  1  9  2  0  0  0  0
  3 10  2  0  0  0  0
  2 11  1  0  0  0  0
 11 12  1  0  0  0  0
 12 13  1  0  0  0  0
 13 14  2  0  0  0  0
  5 15  1  1  0  0  0
M  END
>  <cdx:fragmentId>
5

$$$$
