70232.cdx
  Mrv1902 05222410252D          

 17 17  0  0  0  0            999 V2000
    6.5431   -8.9776    0.0000 C   0  0  2  0  0  0  0  0  0  0  0  0
    6.5431   -9.8026    0.0000 C   0  0  1  0  0  0  0  0  0  0  0  0
    7.2575  -10.2151    0.0000 O   0  0  0  0  0  0  0  0  0  0  0  0
    7.9720   -9.8026    0.0000 C   0  0  0  0  0  0  0  0  0  0  0  0
    7.9720   -8.9776    0.0000 C   0  0  0  0  0  0  0  0  0  0  0  0
    7.2575   -8.5651    0.0000 C   0  0  1  0  0  0  0  0  0  0  0  0
    5.8286   -8.5651    0.0000 C   0  0  0  0  0  0  0  0  0  0  0  0
    5.1141   -8.9776    0.0000 O   0  0  0  0  0  0  0  0  0  0  0  0
    8.6865   -8.5651    0.0000 C   0  0  0  0  0  0  0  0  0  0  0  0
    9.4009   -8.9776    0.0000 O   0  0  0  0  0  0  0  0  0  0  0  0
    8.6865   -7.7401    0.0000 O   0  0  0  0  0  0  0  0  0  0  0  0
   10.1154   -8.5651    0.0000 C   0  0  0  0  0  0  0  0  0  0  0  0
    7.2575   -7.7401    0.0000 C   0  0  0  0  0  0  0  0  0  0  0  0
    6.5431   -7.3276    0.0000 C   0  0  0  0  0  0  0  0  0  0  0  0
    6.5431   -6.5026    0.0000 O   0  0  0  0  0  0  0  0  0  0  0  0
    5.8286   -7.7401    0.0000 O   0  0  0  0  0  0  0  0  0  0  0  0
    5.8286  -10.2151    0.0000 C   0  0  0  0  0  0  0  0  0  0  0  0
  1  2  1  0  0  0  0
  2  3  1  0  0  0  0
  3  4  1  0  0  0  0
  4  5  2  0  0  0  0
  5  6  1  0  0  0  0
  6  1  1  0  0  0  0
  1  7  1  1  0  0  0
  7  8  2  0  0  0  0
  5  9  1  0  0  0  0
  9 10  1  0  0  0  0
  9 11  2  0  0  0  0
 10 12  1  0  0  0  0
  6 13  1  6  0  0  0
 13 14  1  0  0  0  0
 14 15  1  0  0  0  0
 14 16  2  0  0  0  0
  2 17  1  1  0  0  0
M  END
>  <cdx:fragmentId>
5

$$$$
