70231.cdx
  Mrv1902 05222410252D          

 22 21  0  0  0  0            999 V2000
    3.2774  -14.5186    0.0000 C   0  0  0  0  0  0  0  0  0  0  0  0
    3.4384  -13.7095    0.0000 C   0  0  0  0  0  0  0  0  0  0  0  0
    4.2197  -13.4444    0.0000 C   0  0  0  0  0  0  0  0  0  0  0  0
    4.3808  -12.6353    0.0000 C   0  0  0  0  0  0  0  0  0  0  0  0
    5.1620  -12.3702    0.0000 C   0  0  0  0  0  0  0  0  0  0  0  0
    5.3231  -11.5611    0.0000 C   0  0  0  0  0  0  0  0  0  0  0  0
    6.1043  -11.2960    0.0000 C   0  0  0  0  0  0  0  0  0  0  0  0
    6.2654  -10.4869    0.0000 C   0  0  0  0  0  0  0  0  0  0  0  0
    7.0466  -10.2218    0.0000 C   0  0  0  0  0  0  0  0  0  0  0  0
    7.2077   -9.4127    0.0000 C   0  0  0  0  0  0  0  0  0  0  0  0
    7.9890   -9.1476    0.0000 C   0  0  0  0  0  0  0  0  0  0  0  0
    8.1500   -8.3385    0.0000 C   0  0  0  0  0  0  0  0  0  0  0  0
    8.9313   -8.0734    0.0000 C   0  0  0  0  0  0  0  0  0  0  0  0
    9.0923   -7.2643    0.0000 C   0  0  0  0  0  0  0  0  0  0  0  0
    9.8736   -6.9992    0.0000 C   0  0  0  0  0  0  0  0  0  0  0  0
   10.0346   -6.1901    0.0000 C   0  0  0  0  0  0  0  0  0  0  0  0
   10.8159   -5.9250    0.0000 C   0  0  0  0  0  0  0  0  0  0  0  0
   10.9770   -5.1159    0.0000 C   0  0  0  0  0  0  0  0  0  0  0  0
   11.7582   -4.8508    0.0000 C   0  0  0  0  0  0  0  0  0  0  0  0
   11.9193   -4.0417    0.0000 C   0  0  0  0  0  0  0  0  0  0  0  0
    2.4805  -14.7322    0.0000 O   0  0  0  0  0  0  0  0  0  0  0  0
    2.8182  -13.1655    0.0000 O   0  0  0  0  0  0  0  0  0  0  0  0
  1  2  1  0  0  0  0
  2  3  1  0  0  0  0
  3  4  1  0  0  0  0
  4  5  1  0  0  0  0
  5  6  1  0  0  0  0
  6  7  1  0  0  0  0
  7  8  1  0  0  0  0
  8  9  1  0  0  0  0
  9 10  1  0  0  0  0
 10 11  1  0  0  0  0
 11 12  1  0  0  0  0
 12 13  1  0  0  0  0
 13 14  1  0  0  0  0
 14 15  1  0  0  0  0
 15 16  1  0  0  0  0
 16 17  1  0  0  0  0
 17 18  1  0  0  0  0
 18 19  1  0  0  0  0
 19 20  1  0  0  0  0
  1 21  1  0  0  0  0
  2 22  2  0  0  0  0
M  END
>  <cdx:fragmentId>
3

$$$$
