70230.cdx
  Mrv1902 05222410252D          

 13 12  0  0  0  0            999 V2000
    3.0638   -8.4826    0.0000 C   0  0  0  0  0  0  0  0  0  0  0  0
    3.7782   -8.0701    0.0000 C   0  0  0  0  0  0  0  0  0  0  0  0
    4.4927   -8.4826    0.0000 C   0  0  0  0  0  0  0  0  0  0  0  0
    5.2072   -8.0701    0.0000 C   0  0  0  0  0  0  0  0  0  0  0  0
    5.9217   -8.4826    0.0000 C   0  0  0  0  0  0  0  0  0  0  0  0
    6.6361   -8.0701    0.0000 C   0  0  0  0  0  0  0  0  0  0  0  0
    7.3506   -8.4826    0.0000 C   0  0  0  0  0  0  0  0  0  0  0  0
    8.0651   -8.0701    0.0000 C   0  0  0  0  0  0  0  0  0  0  0  0
    8.7795   -8.4826    0.0000 C   0  0  0  0  0  0  0  0  0  0  0  0
    9.4940   -8.0701    0.0000 C   0  0  0  0  0  0  0  0  0  0  0  0
   10.2085   -8.4826    0.0000 C   0  0  0  0  0  0  0  0  0  0  0  0
   10.9230   -8.0701    0.0000 C   0  0  0  0  0  0  0  0  0  0  0  0
    2.3493   -8.0701    0.0000 F   0  0  0  0  0  0  0  0  0  0  0  0
  1  2  1  0  0  0  0
  2  3  1  0  0  0  0
  3  4  1  0  0  0  0
  4  5  1  0  0  0  0
  5  6  1  0  0  0  0
  6  7  1  0  0  0  0
  7  8  1  0  0  0  0
  8  9  1  0  0  0  0
  9 10  1  0  0  0  0
 10 11  1  0  0  0  0
 11 12  1  0  0  0  0
  1 13  1  0  0  0  0
M  END
>  <cdx:fragmentId>
3

$$$$
