70234.cdx
  Mrv1902 05222410242D          

 23 26  0  0  0  0            999 V2000
    3.7243   -8.2626    0.0000 C   0  0  0  0  0  0  0  0  0  0  0  0
    3.7243   -9.0876    0.0000 C   0  0  0  0  0  0  0  0  0  0  0  0
    4.4388   -9.5001    0.0000 C   0  0  0  0  0  0  0  0  0  0  0  0
    5.1532   -9.0876    0.0000 C   0  0  0  0  0  0  0  0  0  0  0  0
    5.1532   -8.2626    0.0000 C   0  0  0  0  0  0  0  0  0  0  0  0
    4.4388   -7.8501    0.0000 C   0  0  0  0  0  0  0  0  0  0  0  0
    5.9379   -9.3426    0.0000 N   0  0  0  0  0  0  0  0  0  0  0  0
    6.4228   -8.6751    0.0000 C   0  0  0  0  0  0  0  0  0  0  0  0
    5.9379   -8.0077    0.0000 C   0  0  1  0  0  0  0  0  0  0  0  0
    6.2734  -10.0963    0.0000 C   0  0  0  0  0  0  0  0  0  0  0  0
    7.0939  -10.1825    0.0000 C   0  0  0  0  0  0  0  0  0  0  0  0
    7.5788   -9.5151    0.0000 C   0  0  0  0  0  0  0  0  0  0  0  0
    7.2433   -8.7614    0.0000 N   0  0  0  0  0  0  0  0  0  0  0  0
    7.4295  -10.9362    0.0000 C   0  0  0  0  0  0  0  0  0  0  0  0
    8.2499  -11.0224    0.0000 C   0  0  0  0  0  0  0  0  0  0  0  0
    8.7349  -10.3550    0.0000 C   0  0  0  0  0  0  0  0  0  0  0  0
    8.3993   -9.6013    0.0000 C   0  0  0  0  0  0  0  0  0  0  0  0
    5.7885  -10.7637    0.0000 O   0  0  0  0  0  0  0  0  0  0  0  0
    5.7243   -7.2108    0.0000 O   0  0  0  0  0  0  0  0  0  0  0  0
    6.5212   -7.4243    0.0000 C   0  0  0  0  0  0  0  0  0  0  0  0
    6.3077   -6.6275    0.0000 C   0  0  0  0  0  0  0  0  0  0  0  0
    6.8911   -6.0441    0.0000 O   0  0  0  0  0  0  0  0  0  0  0  0
    5.5108   -6.4139    0.0000 C   0  0  0  0  0  0  0  0  0  0  0  0
  1  2  2  0  0  0  0
  2  3  1  0  0  0  0
  3  4  2  0  0  0  0
  4  5  1  0  0  0  0
  5  6  2  0  0  0  0
  6  1  1  0  0  0  0
  4  7  1  0  0  0  0
  7  8  1  0  0  0  0
  8  9  1  0  0  0  0
  9  5  1  0  0  0  0
  7 10  1  0  0  0  0
 10 11  1  0  0  0  0
 11 12  2  0  0  0  0
 12 13  1  0  0  0  0
 13  8  2  0  0  0  0
 11 14  1  0  0  0  0
 14 15  2  0  0  0  0
 15 16  1  0  0  0  0
 16 17  2  0  0  0  0
 17 12  1  0  0  0  0
 10 18  2  0  0  0  0
  9 19  1  6  0  0  0
  9 20  1  0  0  0  0
 20 21  1  0  0  0  0
 21 22  2  0  0  0  0
 21 23  1  0  0  0  0
M  END
>  <cdx:fragmentId>
5

$$$$
