70238.cdx
  Mrv1902 05222410222D          

 24 26  0  0  0  0            999 V2000
    4.5218   -9.0189    0.0000 C   0  0  0  0  0  0  0  0  0  0  0  0
    4.5218   -9.8439    0.0000 C   0  0  0  0  0  0  0  0  0  0  0  0
    5.2363  -10.2564    0.0000 C   0  0  0  0  0  0  0  0  0  0  0  0
    5.9507   -9.8439    0.0000 C   0  0  0  0  0  0  0  0  0  0  0  0
    5.9507   -9.0189    0.0000 C   0  0  0  0  0  0  0  0  0  0  0  0
    5.2363   -8.6064    0.0000 C   0  0  0  0  0  0  0  0  0  0  0  0
    6.6652  -10.2564    0.0000 N   0  0  0  0  0  0  0  0  0  0  0  0
    7.3797   -9.8439    0.0000 C   0  0  0  0  0  0  0  0  0  0  0  0
    7.3797   -9.0189    0.0000 C   0  0  0  0  0  0  0  0  0  0  0  0
    6.6652   -8.6064    0.0000 C   0  0  2  0  0  0  0  0  0  0  0  0
    8.0942  -10.2564    0.0000 O   0  0  0  0  0  0  0  0  0  0  0  0
    7.0777   -7.8919    0.0000 C   0  0  0  0  0  0  0  0  0  0  0  0
    7.9027   -7.8919    0.0000 N   0  0  0  0  0  0  0  0  0  0  0  0
    6.6652   -7.1775    0.0000 O   0  0  0  0  0  0  0  0  0  0  0  0
    8.3152   -7.1775    0.0000 C   0  0  0  0  0  0  0  0  0  0  0  0
    9.1402   -7.1775    0.0000 C   0  0  0  0  0  0  0  0  0  0  0  0
    9.5527   -6.4630    0.0000 C   0  0  0  0  0  0  0  0  0  0  0  0
    9.1402   -5.7485    0.0000 C   0  0  0  0  0  0  0  0  0  0  0  0
    8.3152   -5.7485    0.0000 C   0  0  0  0  0  0  0  0  0  0  0  0
    7.9027   -6.4630    0.0000 C   0  0  0  0  0  0  0  0  0  0  0  0
    9.5527   -7.8919    0.0000 C   0  0  0  0  0  0  0  0  0  0  0  0
    6.2527   -7.8919    0.0000 O   0  0  0  0  0  0  0  0  0  0  0  0
    9.1402   -8.6064    0.0000 O   0  0  0  0  0  0  0  0  0  0  0  0
   10.3777   -7.8919    0.0000 O   0  0  0  0  0  0  0  0  0  0  0  0
  1  2  2  0  0  0  0
  2  3  1  0  0  0  0
  3  4  2  0  0  0  0
  4  5  1  0  0  0  0
  5  6  2  0  0  0  0
  6  1  1  0  0  0  0
  4  7  1  0  0  0  0
  7  8  1  0  0  0  0
  8  9  1  0  0  0  0
  9 10  1  0  0  0  0
 10  5  1  0  0  0  0
  8 11  2  0  0  0  0
 10 12  1  0  0  0  0
 12 13  1  0  0  0  0
 12 14  2  0  0  0  0
 13 15  1  0  0  0  0
 15 16  2  0  0  0  0
 16 17  1  0  0  0  0
 17 18  2  0  0  0  0
 18 19  1  0  0  0  0
 19 20  2  0  0  0  0
 20 15  1  0  0  0  0
 16 21  1  0  0  0  0
 10 22  1  6  0  0  0
 21 23  1  0  0  0  0
 21 24  2  0  0  0  0
M  END
>  <cdx:fragmentId>
5

$$$$
