70240.cdx
  Mrv1902 05222410262D          

 37 39  0  0  0  0            999 V2000
    2.9448   -7.9739    0.0000 O   0  0  0  0  0  0  0  0  0  0  0  0
    4.3737   -6.3239    0.0000 C   0  0  2  0  0  0  0  0  0  0  0  0
    3.9612   -5.6094    0.0000 O   0  0  0  0  0  0  0  0  0  0  0  0
    4.7862   -5.6094    0.0000 C   0  0  0  0  0  0  0  0  0  0  0  0
    4.3737   -4.8950    0.0000 O   0  0  0  0  0  0  0  0  0  0  0  0
    5.6112   -5.6094    0.0000 O   0  0  0  0  0  0  0  0  0  0  0  0
   10.8040   -9.2114    0.0000 O   0  0  0  0  0  0  0  0  0  0  0  0
   10.8040   -7.5614    0.0000 O   0  0  0  0  0  0  0  0  0  0  0  0
    8.6606   -8.7989    0.0000 C   0  0  0  0  0  0  0  0  0  0  0  0
    9.3750   -9.2114    0.0000 C   0  0  0  0  0  0  0  0  0  0  0  0
   10.0895   -8.7989    0.0000 C   0  0  0  0  0  0  0  0  0  0  0  0
   10.0895   -7.9739    0.0000 C   0  0  0  0  0  0  0  0  0  0  0  0
    9.3750   -7.5614    0.0000 C   0  0  0  0  0  0  0  0  0  0  0  0
    8.6606   -7.9739    0.0000 C   0  0  0  0  0  0  0  0  0  0  0  0
    7.9461   -7.5614    0.0000 C   0  0  0  0  0  0  0  0  0  0  0  0
    6.5171   -6.7364    0.0000 O   0  0  0  0  0  0  0  0  0  0  0  0
    7.2316   -7.9739    0.0000 C   0  0  0  0  0  0  0  0  0  0  0  0
    6.5171   -7.5614    0.0000 C   0  0  0  0  0  0  0  0  0  0  0  0
    7.2316  -12.9239    0.0000 O   0  0  0  0  0  0  0  0  0  0  0  0
    5.8027  -13.7489    0.0000 O   0  0  0  0  0  0  0  0  0  0  0  0
    5.0882  -11.6864    0.0000 C   0  0  0  0  0  0  0  0  0  0  0  0
    5.0882  -12.5114    0.0000 C   0  0  0  0  0  0  0  0  0  0  0  0
    5.8027  -12.9239    0.0000 C   0  0  0  0  0  0  0  0  0  0  0  0
    6.5171  -12.5114    0.0000 C   0  0  0  0  0  0  0  0  0  0  0  0
    6.5171  -11.6864    0.0000 C   0  0  0  0  0  0  0  0  0  0  0  0
    5.8027  -11.2739    0.0000 C   0  0  0  0  0  0  0  0  0  0  0  0
    5.8027  -10.4489    0.0000 C   0  0  0  0  0  0  0  0  0  0  0  0
    5.8027   -8.7989    0.0000 O   0  0  0  0  0  0  0  0  0  0  0  0
    5.0882  -10.0364    0.0000 C   0  0  0  0  0  0  0  0  0  0  0  0
    5.0882   -9.2114    0.0000 C   0  0  0  0  0  0  0  0  0  0  0  0
    4.3737   -8.7989    0.0000 O   0  0  0  0  0  0  0  0  0  0  0  0
    5.8027   -7.9739    0.0000 O   0  0  0  0  0  0  0  0  0  0  0  0
    3.6593   -6.7364    0.0000 C   0  0  0  0  0  0  0  0  0  0  0  0
    3.6593   -7.5614    0.0000 C   0  0  2  0  0  0  0  0  0  0  0  0
    4.3737   -7.9739    0.0000 C   0  0  1  0  0  0  0  0  0  0  0  0
    5.0882   -7.5614    0.0000 C   0  0  1  0  0  0  0  0  0  0  0  0
    5.0882   -6.7364    0.0000 C   0  0  0  0  0  0  0  0  0  0  0  0
 34  1  1  6  0  0  0
  2  3  1  1  0  0  0
  2  4  1  0  0  0  0
  4  5  2  0  0  0  0
 11  7  1  0  0  0  0
 12  8  1  0  0  0  0
  9 14  1  0  0  0  0
 10  9  2  0  0  0  0
 11 10  1  0  0  0  0
 12 11  2  0  0  0  0
 13 12  1  0  0  0  0
 14 13  2  0  0  0  0
 15 14  1  0  0  0  0
 17 15  2  0  0  0  0
 18 16  2  0  0  0  0
 18 17  1  0  0  0  0
 32 18  1  0  0  0  0
 24 19  1  0  0  0  0
 23 20  1  0  0  0  0
 21 26  1  0  0  0  0
 22 21  2  0  0  0  0
 23 22  1  0  0  0  0
 24 23  2  0  0  0  0
 25 24  1  0  0  0  0
 26 25  2  0  0  0  0
 27 26  1  0  0  0  0
 29 27  2  0  0  0  0
 30 28  2  0  0  0  0
 30 29  1  0  0  0  0
 31 30  1  0  0  0  0
 35 31  1  1  0  0  0
 36 32  1  1  0  0  0
  2 37  1  0  0  0  0
 33  2  1  0  0  0  0
 34 33  1  0  0  0  0
 35 34  1  0  0  0  0
 36 35  1  0  0  0  0
 37 36  1  0  0  0  0
  4  6  1  0  0  0  0
M  END
>  <cdx:fragmentId>
139

$$$$
