70245.cdx
  Mrv1902 05222410282D          

 39 41  0  0  0  0            999 V2000
    8.1381   -7.6989    0.0000 C   0  0  0  0  0  0  0  0  0  0  0  0
    8.1381   -8.5239    0.0000 C   0  0  2  0  0  0  0  0  0  0  0  0
    8.8525   -8.9364    0.0000 C   0  0  2  0  0  0  0  0  0  0  0  0
    9.5670   -8.5239    0.0000 C   0  0  1  0  0  0  0  0  0  0  0  0
    9.5670   -7.6989    0.0000 C   0  0  0  0  0  0  0  0  0  0  0  0
    8.8525   -7.2864    0.0000 C   0  0  1  0  0  0  0  0  0  0  0  0
    7.4236   -8.9364    0.0000 O   0  0  0  0  0  0  0  0  0  0  0  0
    8.8525   -9.7614    0.0000 O   0  0  0  0  0  0  0  0  0  0  0  0
    8.1381  -10.1739    0.0000 C   0  0  0  0  0  0  0  0  0  0  0  0
    8.1381  -10.9989    0.0000 C   0  0  0  0  0  0  0  0  0  0  0  0
    7.4236   -9.7614    0.0000 O   0  0  0  0  0  0  0  0  0  0  0  0
    7.4236  -11.4114    0.0000 C   0  0  0  0  0  0  0  0  0  0  0  0
    7.4236  -12.2364    0.0000 C   0  0  0  0  0  0  0  0  0  0  0  0
    6.7091  -12.6489    0.0000 C   0  0  0  0  0  0  0  0  0  0  0  0
    6.7091  -13.4739    0.0000 C   0  0  0  0  0  0  0  0  0  0  0  0
    7.4236  -13.8864    0.0000 C   0  0  0  0  0  0  0  0  0  0  0  0
    8.1381  -13.4739    0.0000 C   0  0  0  0  0  0  0  0  0  0  0  0
    8.1381  -12.6489    0.0000 C   0  0  0  0  0  0  0  0  0  0  0  0
    7.4236  -14.7114    0.0000 O   0  0  0  0  0  0  0  0  0  0  0  0
    5.9946  -13.8864    0.0000 O   0  0  0  0  0  0  0  0  0  0  0  0
    6.7091   -8.5239    0.0000 C   0  0  0  0  0  0  0  0  0  0  0  0
    5.9946   -8.9364    0.0000 C   0  0  0  0  0  0  0  0  0  0  0  0
    6.7091   -7.6989    0.0000 O   0  0  0  0  0  0  0  0  0  0  0  0
    5.2802   -8.5239    0.0000 C   0  0  0  0  0  0  0  0  0  0  0  0
    4.5657   -8.9364    0.0000 C   0  0  0  0  0  0  0  0  0  0  0  0
    3.8512   -8.5239    0.0000 C   0  0  0  0  0  0  0  0  0  0  0  0
    3.1368   -8.9364    0.0000 C   0  0  0  0  0  0  0  0  0  0  0  0
    3.1368   -9.7614    0.0000 C   0  0  0  0  0  0  0  0  0  0  0  0
    3.8512  -10.1739    0.0000 C   0  0  0  0  0  0  0  0  0  0  0  0
    4.5657   -9.7614    0.0000 C   0  0  0  0  0  0  0  0  0  0  0  0
    2.4223   -8.5239    0.0000 O   0  0  0  0  0  0  0  0  0  0  0  0
    2.4223  -10.1739    0.0000 O   0  0  0  0  0  0  0  0  0  0  0  0
    8.4400   -6.5719    0.0000 O   0  0  0  0  0  0  0  0  0  0  0  0
    9.2650   -6.5719    0.0000 C   0  0  0  0  0  0  0  0  0  0  0  0
    8.8525   -5.8575    0.0000 O   0  0  0  0  0  0  0  0  0  0  0  0
   10.0900   -6.5719    0.0000 O   0  0  0  0  0  0  0  0  0  0  0  0
   10.2815   -8.9364    0.0000 O   0  0  0  0  0  0  0  0  0  0  0  0
    1.7078   -8.9364    0.0000 C   0  0  0  0  0  0  0  0  0  0  0  0
    5.2802  -13.4739    0.0000 C   0  0  0  0  0  0  0  0  0  0  0  0
  1  2  1  0  0  0  0
  2  3  1  0  0  0  0
  3  4  1  0  0  0  0
  4  5  1  0  0  0  0
  5  6  1  0  0  0  0
  6  1  1  0  0  0  0
  2  7  1  6  0  0  0
  3  8  1  6  0  0  0
  8  9  1  0  0  0  0
  9 10  1  0  0  0  0
  9 11  2  0  0  0  0
 10 12  2  0  0  0  0
 12 13  1  0  0  0  0
 13 14  2  0  0  0  0
 14 15  1  0  0  0  0
 15 16  2  0  0  0  0
 16 17  1  0  0  0  0
 17 18  2  0  0  0  0
 18 13  1  0  0  0  0
 16 19  1  0  0  0  0
 15 20  1  0  0  0  0
  7 21  1  0  0  0  0
 21 22  1  0  0  0  0
 21 23  2  0  0  0  0
 22 24  2  0  0  0  0
 24 25  1  0  0  0  0
 25 26  2  0  0  0  0
 26 27  1  0  0  0  0
 27 28  2  0  0  0  0
 28 29  1  0  0  0  0
 29 30  2  0  0  0  0
 30 25  1  0  0  0  0
 27 31  1  0  0  0  0
 28 32  1  0  0  0  0
  6 33  1  6  0  0  0
  6 34  1  0  0  0  0
 34 35  2  0  0  0  0
 34 36  1  0  0  0  0
  4 37  1  1  0  0  0
 31 38  1  0  0  0  0
 20 39  1  0  0  0  0
M  END
>  <cdx:fragmentId>
5

$$$$
