70241.cdx
  Mrv1902 05222410262D          

 21 23  0  0  0  0            999 V2000
    3.6006   -8.6064    0.0000 C   0  0  0  0  0  0  0  0  0  0  0  0
    4.3150   -9.0189    0.0000 O   0  0  0  0  0  0  0  0  0  0  0  0
    5.0295   -8.6064    0.0000 C   0  0  0  0  0  0  0  0  0  0  0  0
    5.0295   -7.7814    0.0000 C   0  0  0  0  0  0  0  0  0  0  0  0
    4.3150   -7.3689    0.0000 O   0  0  0  0  0  0  0  0  0  0  0  0
    5.7440   -9.0189    0.0000 C   0  0  0  0  0  0  0  0  0  0  0  0
    6.4584   -8.6064    0.0000 C   0  0  0  0  0  0  0  0  0  0  0  0
    6.4584   -7.7814    0.0000 C   0  0  0  0  0  0  0  0  0  0  0  0
    5.7440   -7.3689    0.0000 C   0  0  0  0  0  0  0  0  0  0  0  0
    7.1729   -9.0189    0.0000 C   0  0  0  0  0  0  0  0  0  0  0  0
    7.8874   -8.6064    0.0000 N   0  3  0  0  0  0  0  0  0  0  0  0
    7.8874   -7.7814    0.0000 C   0  0  0  0  0  0  0  0  0  0  0  0
    7.1729   -7.3689    0.0000 C   0  0  0  0  0  0  0  0  0  0  0  0
    7.1729   -9.8439    0.0000 C   0  0  0  0  0  0  0  0  0  0  0  0
    7.8874  -10.2564    0.0000 C   0  0  0  0  0  0  0  0  0  0  0  0
    8.6019   -9.8439    0.0000 C   0  0  0  0  0  0  0  0  0  0  0  0
    7.8874  -11.0814    0.0000 C   0  0  0  0  0  0  0  0  0  0  0  0
    8.6019  -11.4939    0.0000 C   0  0  0  0  0  0  0  0  0  0  0  0
    9.3163  -11.0814    0.0000 C   0  0  0  0  0  0  0  0  0  0  0  0
    9.3163  -10.2564    0.0000 C   0  0  0  0  0  0  0  0  0  0  0  0
   10.0308  -11.4939    0.0000 O   0  0  0  0  0  0  0  0  0  0  0  0
  1  2  1  0  0  0  0
  2  3  1  0  0  0  0
  3  4  2  0  0  0  0
  4  5  1  0  0  0  0
  3  6  1  0  0  0  0
  6  7  2  0  0  0  0
  7  8  1  0  0  0  0
  8  9  2  0  0  0  0
  9  4  1  0  0  0  0
  7 10  1  0  0  0  0
 10 11  1  0  0  0  0
 11 12  1  0  0  0  0
 12 13  1  0  0  0  0
 13  8  1  0  0  0  0
 10 14  1  0  0  0  0
 14 15  1  0  0  0  0
 15 16  2  0  0  0  0
 15 17  1  0  0  0  0
 17 18  2  0  0  0  0
 18 19  1  0  0  0  0
 19 20  2  0  0  0  0
 20 16  1  0  0  0  0
 19 21  1  0  0  0  0
M  CHG  1  11   1
M  END
>  <cdx:fragmentId>
5

$$$$
