70249.cdx
  Mrv1902 05222410182D          

 12 12  0  0  0  0            999 V2000
    4.5906   -7.7264    0.0000 C   0  0  0  0  0  0  0  0  0  0  0  0
    4.5906   -8.5514    0.0000 C   0  0  0  0  0  0  0  0  0  0  0  0
    5.3050   -8.9639    0.0000 C   0  0  0  0  0  0  0  0  0  0  0  0
    6.0195   -8.5514    0.0000 C   0  0  0  0  0  0  0  0  0  0  0  0
    6.0195   -7.7264    0.0000 C   0  0  0  0  0  0  0  0  0  0  0  0
    5.3050   -7.3139    0.0000 C   0  0  0  0  0  0  0  0  0  0  0  0
    5.3050   -9.7889    0.0000 O   0  0  0  0  0  0  0  0  0  0  0  0
    6.7340   -7.3139    0.0000 C   0  0  0  0  0  0  0  0  0  0  0  0
    7.4484   -7.7264    0.0000 O   0  0  0  0  0  0  0  0  0  0  0  0
    6.7340   -6.4889    0.0000 O   0  0  0  0  0  0  0  0  0  0  0  0
    6.7340   -8.9639    0.0000 O   0  0  0  0  0  0  0  0  0  0  0  0
    7.4484   -8.5514    0.0000 C   0  0  0  0  0  0  0  0  0  0  0  0
  1  2  2  0  0  0  0
  2  3  1  0  0  0  0
  3  4  2  0  0  0  0
  4  5  1  0  0  0  0
  5  6  2  0  0  0  0
  6  1  1  0  0  0  0
  3  7  1  0  0  0  0
  5  8  1  0  0  0  0
  8  9  1  0  0  0  0
  8 10  2  0  0  0  0
  4 11  1  0  0  0  0
 11 12  1  0  0  0  0
M  END
>  <cdx:fragmentId>
5

$$$$
