70242.cdx
  Mrv1902 05222410272D          

 11 11  0  0  0  0            999 V2000
    6.0756   -7.4514    0.0000 C   0  0  0  0  0  0  0  0  0  0  0  0
    6.0756   -8.2764    0.0000 C   0  0  0  0  0  0  0  0  0  0  0  0
    6.7900   -8.6889    0.0000 C   0  0  0  0  0  0  0  0  0  0  0  0
    7.5045   -8.2764    0.0000 C   0  0  0  0  0  0  0  0  0  0  0  0
    7.5045   -7.4514    0.0000 C   0  0  0  0  0  0  0  0  0  0  0  0
    6.7900   -7.0389    0.0000 C   0  0  0  0  0  0  0  0  0  0  0  0
    6.7900   -9.5139    0.0000 C   0  0  0  0  0  0  0  0  0  0  0  0
    5.3611   -7.0389    0.0000 C   0  0  0  0  0  0  0  0  0  0  0  0
    6.7900   -6.2139    0.0000 C   0  0  0  0  0  0  0  0  0  0  0  0
    8.2190   -7.0389    0.0000 C   0  0  0  0  0  0  0  0  0  0  0  0
    8.9334   -7.4514    0.0000 O   0  0  0  0  0  0  0  0  0  0  0  0
  1  2  1  0  0  0  0
  2  3  2  0  0  0  0
  3  4  1  0  0  0  0
  4  5  1  0  0  0  0
  5  6  1  0  0  0  0
  6  1  1  0  0  0  0
  3  7  1  0  0  0  0
  1  8  1  0  0  0  0
  6  9  1  0  0  0  0
  5 10  1  0  0  0  0
 10 11  2  0  0  0  0
M  END
>  <cdx:fragmentId>
5

$$$$
