70246.cdx
  Mrv1902 05222410272D          

 27 31  0  0  0  0            999 V2000
    3.8618  -10.0914    0.0000 C   0  0  0  0  0  0  0  0  0  0  0  0
    3.8618  -10.9164    0.0000 C   0  0  0  0  0  0  0  0  0  0  0  0
    4.5763  -11.3289    0.0000 C   0  0  0  0  0  0  0  0  0  0  0  0
    5.2907  -10.9164    0.0000 C   0  0  0  0  0  0  0  0  0  0  0  0
    5.2907  -10.0914    0.0000 C   0  0  0  0  0  0  0  0  0  0  0  0
    4.5763   -9.6789    0.0000 C   0  0  0  0  0  0  0  0  0  0  0  0
    6.0052  -11.3289    0.0000 C   0  0  0  0  0  0  0  0  0  0  0  0
    6.7197  -10.9164    0.0000 C   0  0  0  0  0  0  0  0  0  0  0  0
    6.7197  -10.0914    0.0000 C   0  0  0  0  0  0  0  0  0  0  0  0
    6.0052   -9.6789    0.0000 C   0  0  0  0  0  0  0  0  0  0  0  0
    4.5763   -8.8539    0.0000 O   0  0  0  0  0  0  0  0  0  0  0  0
    3.8618   -8.4414    0.0000 C   0  0  0  0  0  0  0  0  0  0  0  0
    3.1473   -9.6789    0.0000 O   0  0  0  0  0  0  0  0  0  0  0  0
    6.0052   -8.8539    0.0000 C   0  0  0  0  0  0  0  0  0  0  0  0
    5.2907   -8.4414    0.0000 C   0  0  0  0  0  0  0  0  0  0  0  0
    6.7197   -8.4414    0.0000 C   0  0  0  0  0  0  0  0  0  0  0  0
    6.7197   -7.6164    0.0000 C   0  0  0  0  0  0  0  0  0  0  0  0
    6.0052   -7.2039    0.0000 C   0  0  0  0  0  0  0  0  0  0  0  0
    5.2907   -7.6164    0.0000 C   0  0  0  0  0  0  0  0  0  0  0  0
    7.3328   -7.0644    0.0000 O   0  0  0  0  0  0  0  0  0  0  0  0
    6.9972   -6.3107    0.0000 C   0  0  0  0  0  0  0  0  0  0  0  0
    6.1767   -6.3969    0.0000 O   0  0  0  0  0  0  0  0  0  0  0  0
    2.4329  -10.0914    0.0000 C   0  0  0  0  0  0  0  0  0  0  0  0
    7.5043  -11.1713    0.0000 C   0  0  0  0  0  0  0  0  0  0  0  0
    7.9892  -10.5039    0.0000 O   0  0  0  0  0  0  0  0  0  0  0  0
    7.5043   -9.8365    0.0000 C   0  0  0  0  0  0  0  0  0  0  0  0
    7.7592   -9.0518    0.0000 O   0  0  0  0  0  0  0  0  0  0  0  0
  1  2  1  0  0  0  0
  2  3  2  0  0  0  0
  3  4  1  0  0  0  0
  4  5  1  0  0  0  0
  5  6  1  0  0  0  0
  6  1  2  0  0  0  0
  4  7  2  0  0  0  0
  7  8  1  0  0  0  0
  8  9  2  0  0  0  0
  9 10  1  0  0  0  0
 10  5  2  0  0  0  0
  6 11  1  0  0  0  0
 11 12  1  0  0  0  0
 13  1  1  0  0  0  0
 10 14  1  0  0  0  0
 14 15  1  0  0  0  0
 14 16  2  0  0  0  0
 16 17  1  0  0  0  0
 17 18  2  0  0  0  0
 18 19  1  0  0  0  0
 19 15  2  0  0  0  0
 17 20  1  0  0  0  0
 20 21  1  0  0  0  0
 21 22  1  0  0  0  0
 22 18  1  0  0  0  0
 13 23  1  0  0  0  0
  8 24  1  0  0  0  0
 24 25  1  0  0  0  0
 25 26  1  0  0  0  0
 26  9  1  0  0  0  0
 26 27  2  0  0  0  0
M  END
>  <cdx:fragmentId>
5

$$$$
