7025.cdx
  Mrv1902 05222410202D          

 22 24  0  0  0  0            999 V2000
    4.5202   -6.3319    0.0000 C   0  0  0  0  0  0  0  0  0  0  0  0
    4.5202   -7.1569    0.0000 C   0  0  0  0  0  0  0  0  0  0  0  0
    5.2346   -7.5694    0.0000 C   0  0  0  0  0  0  0  0  0  0  0  0
    5.9491   -7.1569    0.0000 C   0  0  0  0  0  0  0  0  0  0  0  0
    5.9491   -6.3319    0.0000 C   0  0  0  0  0  0  0  0  0  0  0  0
    5.2346   -5.9194    0.0000 C   0  0  0  0  0  0  0  0  0  0  0  0
    6.6636   -7.5694    0.0000 C   0  0  0  0  0  0  0  0  0  0  0  0
    7.3780   -7.1569    0.0000 C   0  0  0  0  0  0  0  0  0  0  0  0
    7.3780   -6.3319    0.0000 C   0  0  0  0  0  0  0  0  0  0  0  0
    6.6636   -5.9194    0.0000 O   0  0  0  0  0  0  0  0  0  0  0  0
    8.0925   -5.9194    0.0000 C   0  0  0  0  0  0  0  0  0  0  0  0
    8.0925   -5.0944    0.0000 C   0  0  0  0  0  0  0  0  0  0  0  0
    8.8070   -6.3319    0.0000 C   0  0  0  0  0  0  0  0  0  0  0  0
    9.5215   -5.9194    0.0000 C   0  0  0  0  0  0  0  0  0  0  0  0
    9.5215   -5.0944    0.0000 C   0  0  0  0  0  0  0  0  0  0  0  0
    8.8070   -4.6819    0.0000 C   0  0  0  0  0  0  0  0  0  0  0  0
   10.2359   -4.6819    0.0000 O   0  0  0  0  0  0  0  0  0  0  0  0
    6.6636   -8.3944    0.0000 O   0  0  0  0  0  0  0  0  0  0  0  0
    3.8057   -5.9194    0.0000 O   0  0  0  0  0  0  0  0  0  0  0  0
    5.2346   -8.3944    0.0000 O   0  0  0  0  0  0  0  0  0  0  0  0
    5.2346   -5.0944    0.0000 O   0  0  0  0  0  0  0  0  0  0  0  0
    4.5202   -4.6819    0.0000 C   0  0  0  0  0  0  0  0  0  0  0  0
  1  2  2  0  0  0  0
  2  3  1  0  0  0  0
  3  4  2  0  0  0  0
  4  5  1  0  0  0  0
  5  6  2  0  0  0  0
  6  1  1  0  0  0  0
  4  7  1  0  0  0  0
  7  8  1  0  0  0  0
  8  9  1  0  0  0  0
  9 10  1  0  0  0  0
 10  5  1  0  0  0  0
  9 11  1  0  0  0  0
 11 12  1  0  0  0  0
 11 13  2  0  0  0  0
 13 14  1  0  0  0  0
 14 15  2  0  0  0  0
 15 16  1  0  0  0  0
 16 12  2  0  0  0  0
 15 17  1  0  0  0  0
  7 18  2  0  0  0  0
  1 19  1  0  0  0  0
  3 20  1  0  0  0  0
  6 21  1  0  0  0  0
 21 22  1  0  0  0  0
M  END
>  <cdx:fragmentId>
5

$$$$
