70259.cdx
  Mrv1902 05222410202D          

 71 81  0  0  0  0            999 V2000
    3.9772   -7.4310    0.0000 H   0  0  0  0  0  0  0  0  0  0  0  0
    8.2016  -12.4122    0.0000 O   0  0  0  0  0  0  0  0  0  0  0  0
   11.0381  -12.0636    0.0000 O   0  0  0  0  0  0  0  0  0  0  0  0
   10.1780  -10.9225    0.0000 C   0  0  0  0  0  0  0  0  0  0  0  0
   10.2787  -11.7413    0.0000 C   0  0  0  0  0  0  0  0  0  0  0  0
    9.6198  -12.2379    0.0000 C   0  0  0  0  0  0  0  0  0  0  0  0
    8.8604  -11.9156    0.0000 C   0  0  0  0  0  0  0  0  0  0  0  0
    8.7598  -11.0968    0.0000 C   0  0  0  0  0  0  0  0  0  0  0  0
    9.4186  -10.6002    0.0000 C   0  0  0  0  0  0  0  0  0  0  0  0
   10.7136   -7.6109    0.0000 O   0  0  0  0  0  0  0  0  0  0  0  0
    8.0828   -6.4946    0.0000 O   0  0  0  0  0  0  0  0  0  0  0  0
   13.1607   -9.8480    0.0000 O   0  0  0  0  0  0  0  0  0  0  0  0
   11.2723   -8.7533    0.0000 C   0  0  0  0  0  0  0  0  0  0  0  0
   12.0821   -8.9106    0.0000 C   0  0  0  0  0  0  0  0  0  0  0  0
   12.3508   -9.6906    0.0000 C   0  0  0  0  0  0  0  0  0  0  0  0
   11.8096  -10.3133    0.0000 C   0  0  0  0  0  0  0  0  0  0  0  0
   10.9998  -10.1560    0.0000 C   0  0  0  0  0  0  0  0  0  0  0  0
   10.7311   -9.3760    0.0000 C   0  0  0  0  0  0  0  0  0  0  0  0
    3.1754   -5.5059    0.0000 O   0  0  0  0  0  0  0  0  0  0  0  0
    5.8537   -5.3798    0.0000 O   0  0  0  0  0  0  0  0  0  0  0  0
    6.6012  -10.0043    0.0000 O   0  0  0  0  0  0  0  0  0  0  0  0
    8.2373   -4.1884    0.0000 O   0  0  0  0  0  0  0  0  0  0  0  0
    6.4054   -5.3753    0.0000 C   0  0  0  0  0  0  0  0  0  0  0  0
    6.9128   -4.7248    0.0000 C   0  0  0  0  0  0  0  0  0  0  0  0
    7.7299   -4.8389    0.0000 C   0  0  0  0  0  0  0  0  0  0  0  0
    8.0395   -5.6036    0.0000 C   0  0  0  0  0  0  0  0  0  0  0  0
    7.5321   -6.2541    0.0000 C   0  0  0  0  0  0  0  0  0  0  0  0
    6.7150   -6.1399    0.0000 C   0  0  0  0  0  0  0  0  0  0  0  0
    0.9328   -7.0550    0.0000 O   0  0  0  0  0  0  0  0  0  0  0  0
    2.5765   -8.4912    0.0000 C   0  0  0  0  0  0  0  0  0  0  0  0
    1.8118   -8.1816    0.0000 C   0  0  0  0  0  0  0  0  0  0  0  0
    1.6976   -7.3646    0.0000 C   0  0  0  0  0  0  0  0  0  0  0  0
    2.3480   -6.8571    0.0000 C   0  0  0  0  0  0  0  0  0  0  0  0
    3.1127   -7.1667    0.0000 C   0  0  0  0  0  0  0  0  0  0  0  0
    3.2270   -7.9838    0.0000 C   0  0  0  0  0  0  0  0  0  0  0  0
    5.2980   -8.4057    0.0000 C   0  0  0  0  0  0  0  0  0  0  0  0
    3.9917   -8.2933    0.0000 C   0  0  1  0  0  0  0  0  0  0  0  0
    4.1839   -9.0956    0.0000 O   0  0  0  0  0  0  0  0  0  0  0  0
    5.0049   -9.1769    0.0000 C   0  0  0  0  0  0  0  0  0  0  0  0
    5.5262   -9.8163    0.0000 C   0  0  0  0  0  0  0  0  0  0  0  0
    6.3406   -9.6846    0.0000 C   0  0  0  0  0  0  0  0  0  0  0  0
    6.6337   -8.9134    0.0000 C   0  0  0  0  0  0  0  0  0  0  0  0
    6.1124   -8.2740    0.0000 C   0  0  0  0  0  0  0  0  0  0  0  0
    6.5172   -7.5551    0.0000 C   0  0  2  0  0  0  0  0  0  0  0  0
    6.2076   -6.7904    0.0000 C   0  0  2  0  0  0  0  0  0  0  0  0
    5.4167   -6.5558    0.0000 C   0  0  0  0  0  0  0  0  0  0  0  0
    5.3462   -5.7338    0.0000 C   0  0  0  0  0  0  0  0  0  0  0  0
    4.5991   -5.3838    0.0000 C   0  0  0  0  0  0  0  0  0  0  0  0
    3.9225   -5.8559    0.0000 C   0  0  0  0  0  0  0  0  0  0  0  0
    3.9930   -6.6779    0.0000 C   0  0  0  0  0  0  0  0  0  0  0  0
    4.7401   -7.0278    0.0000 C   0  0  0  0  0  0  0  0  0  0  0  0
    4.6873   -7.8511    0.0000 C   0  0  1  0  0  0  0  0  0  0  0  0
    8.7537   -8.5716    0.0000 C   0  0  0  0  0  0  0  0  0  0  0  0
    8.2571   -7.9128    0.0000 C   0  0  0  0  0  0  0  0  0  0  0  0
    8.5794   -7.1534    0.0000 C   0  0  0  0  0  0  0  0  0  0  0  0
    9.3982   -7.0527    0.0000 C   0  0  0  0  0  0  0  0  0  0  0  0
    9.8948   -7.7116    0.0000 C   0  0  0  0  0  0  0  0  0  0  0  0
    9.5725   -8.4710    0.0000 C   0  0  0  0  0  0  0  0  0  0  0  0
    9.9212   -9.2187    0.0000 C   0  0  1  0  0  0  0  0  0  0  0  0
    9.3179   -9.7814    0.0000 C   0  0  2  0  0  0  0  0  0  0  0  0
    8.5963   -9.3815    0.0000 C   0  0  2  0  0  0  0  0  0  0  0  0
    7.3371  -13.1224    0.0000 O   0  0  0  0  0  0  0  0  0  0  0  0
    8.2284  -11.1299    0.0000 C   0  0  0  0  0  0  0  0  0  0  0  0
    8.1566  -11.9517    0.0000 C   0  0  0  0  0  0  0  0  0  0  0  0
    7.4089  -12.3005    0.0000 C   0  0  0  0  0  0  0  0  0  0  0  0
    6.7331  -11.8274    0.0000 C   0  0  0  0  0  0  0  0  0  0  0  0
    6.8049  -11.0055    0.0000 C   0  0  0  0  0  0  0  0  0  0  0  0
    7.5526  -10.6567    0.0000 C   0  0  0  0  0  0  0  0  0  0  0  0
    6.9485   -9.3618    0.0000 O   0  0  0  0  0  0  0  0  0  0  0  0
    7.6244   -9.8349    0.0000 C   0  0  0  0  0  0  0  0  0  0  0  0
    6.9746   -6.8685    0.0000 H   0  0  0  0  0  0  0  0  0  0  0  0
 52  1  1  6  0  0  0
 61 70  1  6  0  0  0
 60  9  1  1  0  0  0
  7  2  1  0  0  0  0
  5  3  1  0  0  0  0
  9  4  2  0  0  0  0
  5  4  1  0  0  0  0
  6  5  2  0  0  0  0
  7  6  1  0  0  0  0
  8  7  2  0  0  0  0
  9  8  1  0  0  0  0
 57 10  1  0  0  0  0
 55 11  1  0  0  0  0
 59 18  1  6  0  0  0
 15 12  1  0  0  0  0
 18 13  2  0  0  0  0
 14 13  1  0  0  0  0
 15 14  2  0  0  0  0
 16 15  1  0  0  0  0
 17 16  2  0  0  0  0
 18 17  1  0  0  0  0
 44 54  1  0  0  0  0
 49 19  1  0  0  0  0
 47 20  1  0  0  0  0
 41 21  1  0  0  0  0
 45 28  1  6  0  0  0
 25 22  1  0  0  0  0
 28 23  2  0  0  0  0
 24 23  1  0  0  0  0
 25 24  2  0  0  0  0
 26 25  1  0  0  0  0
 27 26  2  0  0  0  0
 28 27  1  0  0  0  0
 37 35  1  6  0  0  0
 32 29  1  0  0  0  0
 35 30  2  0  0  0  0
 31 30  1  0  0  0  0
 32 31  2  0  0  0  0
 33 32  1  0  0  0  0
 34 33  2  0  0  0  0
 35 34  1  0  0  0  0
 39 36  1  0  0  0  0
 51 46  2  0  0  0  0
 36 43  2  0  0  0  0
 52 36  1  0  0  0  0
 52 37  1  0  0  0  0
 38 37  1  0  0  0  0
 39 38  1  0  0  0  0
 40 39  2  0  0  0  0
 41 40  1  0  0  0  0
 42 41  2  0  0  0  0
 43 42  1  0  0  0  0
 44 43  1  0  0  0  0
 45 44  1  0  0  0  0
 46 45  1  0  0  0  0
 47 46  1  0  0  0  0
 48 47  2  0  0  0  0
 49 48  1  0  0  0  0
 50 49  2  0  0  0  0
 51 50  1  0  0  0  0
 52 51  1  0  0  0  0
 58 53  2  0  0  0  0
 61 53  1  0  0  0  0
 54 53  1  0  0  0  0
 55 54  2  0  0  0  0
 56 55  1  0  0  0  0
 57 56  2  0  0  0  0
 58 57  1  0  0  0  0
 59 58  1  0  0  0  0
 60 59  1  0  0  0  0
 61 60  1  0  0  0  0
 70 68  1  0  0  0  0
 65 62  1  0  0  0  0
 68 63  2  0  0  0  0
 64 63  1  0  0  0  0
 65 64  2  0  0  0  0
 66 65  1  0  0  0  0
 67 66  2  0  0  0  0
 68 67  1  0  0  0  0
 70 69  2  0  0  0  0
 44 71  1  1  0  0  0
M  END
>  <cdx:fragmentId>
41

$$$$
