70254.cdx
  Mrv1902 05222410262D          

 43 47  0  0  0  0            999 V2000
    5.9106  -13.2126    0.0000 C   0  0  0  0  0  0  0  0  0  0  0  0
    5.9106  -12.3876    0.0000 C   0  0  0  0  0  0  0  0  0  0  0  0
    6.6250  -11.9751    0.0000 C   0  0  0  0  0  0  0  0  0  0  0  0
    7.3395  -12.3876    0.0000 C   0  0  0  0  0  0  0  0  0  0  0  0
    7.3395  -13.2126    0.0000 C   0  0  0  0  0  0  0  0  0  0  0  0
    6.6250  -13.6251    0.0000 C   0  0  0  0  0  0  0  0  0  0  0  0
    8.0540  -11.9751    0.0000 O   0  0  0  0  0  0  0  0  0  0  0  0
    8.7684  -12.3876    0.0000 C   0  0  0  0  0  0  0  0  0  0  0  0
    8.7684  -13.2126    0.0000 C   0  0  0  0  0  0  0  0  0  0  0  0
    8.0540  -13.6251    0.0000 C   0  0  0  0  0  0  0  0  0  0  0  0
    8.0540  -14.4501    0.0000 O   0  0  0  0  0  0  0  0  0  0  0  0
    6.6250  -14.4501    0.0000 O   0  0  0  0  0  0  0  0  0  0  0  0
    9.4829  -13.6251    0.0000 C   0  0  0  0  0  0  0  0  0  0  0  0
    9.4829  -14.4501    0.0000 C   0  0  0  0  0  0  0  0  0  0  0  0
   10.1974  -13.2126    0.0000 C   0  0  0  0  0  0  0  0  0  0  0  0
   10.9119  -13.6251    0.0000 C   0  0  0  0  0  0  0  0  0  0  0  0
   10.9119  -14.4501    0.0000 C   0  0  0  0  0  0  0  0  0  0  0  0
   10.1974  -14.8626    0.0000 C   0  0  0  0  0  0  0  0  0  0  0  0
   12.3408  -14.4501    0.0000 C   0  0  0  0  0  0  0  0  0  0  0  0
   11.6263  -14.8626    0.0000 O   0  0  0  0  0  0  0  0  0  0  0  0
    5.1961  -11.9751    0.0000 O   0  0  0  0  0  0  0  0  0  0  0  0
    8.0126   -7.8878    0.0000 H   0  0  0  0  0  0  0  0  0  0  0  0
    7.3239  -11.5783    0.0000 H   0  0  0  0  0  0  0  0  0  0  0  0
    6.6094  -11.1658    0.0000 C   0  0  2  0  0  0  0  0  0  0  0  0
    7.3221  -10.7503    0.0000 O   0  0  0  0  0  0  0  0  0  0  0  0
    7.3187   -9.9253    0.0000 C   0  0  1  0  0  0  0  0  0  0  0  0
    6.6025   -9.5158    0.0000 C   0  0  2  0  0  0  0  0  0  0  0  0
    5.8897   -9.9313    0.0000 C   0  0  1  0  0  0  0  0  0  0  0  0
    5.8932  -10.7563    0.0000 C   0  0  1  0  0  0  0  0  0  0  0  0
    8.0314   -9.5098    0.0000 C   0  0  0  0  0  0  0  0  0  0  0  0
    5.1736   -9.5218    0.0000 O   0  0  0  0  0  0  0  0  0  0  0  0
    5.1805  -11.1718    0.0000 O   0  0  0  0  0  0  0  0  0  0  0  0
    6.5990   -8.6908    0.0000 O   0  0  0  0  0  0  0  0  0  0  0  0
    8.0280   -8.6849    0.0000 O   0  0  0  0  0  0  0  0  0  0  0  0
    8.7424   -8.2724    0.0000 C   0  0  2  0  0  0  0  0  0  0  0  0
    9.4961   -8.6079    0.0000 O   0  0  0  0  0  0  0  0  0  0  0  0
   10.0481   -7.9948    0.0000 C   0  0  0  0  0  0  0  0  0  0  0  0
    9.6356   -7.2803    0.0000 C   0  0  2  0  0  0  0  0  0  0  0  0
    8.8287   -7.4519    0.0000 C   0  0  1  0  0  0  0  0  0  0  0  0
    8.2156   -6.8998    0.0000 O   0  0  0  0  0  0  0  0  0  0  0  0
   10.3501   -6.8678    0.0000 O   0  0  0  0  0  0  0  0  0  0  0  0
    9.6356   -6.4553    0.0000 C   0  0  0  0  0  0  0  0  0  0  0  0
   10.3501   -6.0428    0.0000 O   0  0  0  0  0  0  0  0  0  0  0  0
  1  2  2  0  0  0  0
  2  3  1  0  0  0  0
  3  4  2  0  0  0  0
  4  5  1  0  0  0  0
  5  6  2  0  0  0  0
  6  1  1  0  0  0  0
  4  7  1  0  0  0  0
  7  8  1  0  0  0  0
  8  9  2  0  0  0  0
  9 10  1  0  0  0  0
 10  5  1  0  0  0  0
 10 11  2  0  0  0  0
 12  6  1  0  0  0  0
  9 13  1  0  0  0  0
 13 14  2  0  0  0  0
 13 15  1  0  0  0  0
 15 16  2  0  0  0  0
 16 17  1  0  0  0  0
 17 18  2  0  0  0  0
 18 14  1  0  0  0  0
 19 20  1  0  0  0  0
 20 17  1  0  0  0  0
  2 21  1  0  0  0  0
 35 22  1  6  0  0  0
 24 23  1  6  0  0  0
 24 25  1  0  0  0  0
 25 26  1  0  0  0  0
 26 27  1  0  0  0  0
 27 28  1  0  0  0  0
 28 29  1  0  0  0  0
 29 24  1  0  0  0  0
 26 30  1  1  0  0  0
 28 31  1  1  0  0  0
 29 32  1  6  0  0  0
 24  3  1  0  0  0  0
 27 33  1  6  0  0  0
 30 34  1  0  0  0  0
 35 34  1  1  0  0  0
 35 36  1  0  0  0  0
 36 37  1  0  0  0  0
 37 38  1  0  0  0  0
 38 39  1  0  0  0  0
 39 35  1  0  0  0  0
 39 40  1  6  0  0  0
 38 41  1  6  0  0  0
 38 42  1  0  0  0  0
 42 43  1  0  0  0  0
M  END
>  <cdx:fragmentId>
5

$$$$
