70250.cdx
  Mrv1902 05222410282D          

 44 48  0  0  0  0            999 V2000
    3.2018   -9.8439    0.0000 O   0  0  0  0  0  0  0  0  0  0  0  0
    3.9163  -11.0814    0.0000 O   0  0  0  0  0  0  0  0  0  0  0  0
    4.6307  -10.6689    0.0000 C   0  0  2  0  0  0  0  0  0  0  0  0
    4.6307   -9.8439    0.0000 C   0  0  1  0  0  0  0  0  0  0  0  0
    3.9163   -9.4314    0.0000 C   0  0  0  0  0  0  0  0  0  0  0  0
    5.3452  -11.0814    0.0000 C   0  0  1  0  0  0  0  0  0  0  0  0
    6.0597  -10.6689    0.0000 C   0  0  2  0  0  0  0  0  0  0  0  0
    6.0597   -9.8439    0.0000 C   0  0  1  0  0  0  0  0  0  0  0  0
    5.3452   -9.4314    0.0000 O   0  0  0  0  0  0  0  0  0  0  0  0
    6.7742   -9.4314    0.0000 C   0  0  0  0  0  0  0  0  0  0  0  0
    6.7742   -8.6064    0.0000 C   0  0  0  0  0  0  0  0  0  0  0  0
    6.0597   -8.1939    0.0000 O   0  0  0  0  0  0  0  0  0  0  0  0
    6.7742  -11.0814    0.0000 O   0  0  0  0  0  0  0  0  0  0  0  0
    7.4886  -10.6689    0.0000 O   0  0  0  0  0  0  0  0  0  0  0  0
    7.4886   -9.8439    0.0000 C   0  0  0  0  0  0  0  0  0  0  0  0
    8.2031   -9.4314    0.0000 C   0  0  0  0  0  0  0  0  0  0  0  0
    8.2031   -8.6064    0.0000 C   0  0  0  0  0  0  0  0  0  0  0  0
    7.4886   -8.1939    0.0000 C   0  0  0  0  0  0  0  0  0  0  0  0
    8.9176   -9.8439    0.0000 C   0  0  0  0  0  0  0  0  0  0  0  0
    9.6320   -9.4314    0.0000 C   0  0  0  0  0  0  0  0  0  0  0  0
    9.6320   -8.6064    0.0000 C   0  0  0  0  0  0  0  0  0  0  0  0
    8.9176   -8.1939    0.0000 O   0  0  0  0  0  0  0  0  0  0  0  0
   11.0610   -6.1314    0.0000 O   0  0  0  0  0  0  0  0  0  0  0  0
   12.4899   -6.9564    0.0000 O   0  0  0  0  0  0  0  0  0  0  0  0
   11.7755   -8.1939    0.0000 C   0  0  0  0  0  0  0  0  0  0  0  0
   11.7755   -7.3689    0.0000 C   0  0  0  0  0  0  0  0  0  0  0  0
   11.0610   -6.9564    0.0000 C   0  0  0  0  0  0  0  0  0  0  0  0
    8.9176  -10.6689    0.0000 O   0  0  0  0  0  0  0  0  0  0  0  0
   10.3465   -7.3689    0.0000 C   0  0  0  0  0  0  0  0  0  0  0  0
   11.0610   -8.6064    0.0000 C   0  0  0  0  0  0  0  0  0  0  0  0
   10.3465   -8.1939    0.0000 C   0  0  0  0  0  0  0  0  0  0  0  0
    5.3452  -11.9064    0.0000 O   0  0  0  0  0  0  0  0  0  0  0  0
    4.6307  -12.3189    0.0000 C   0  0  2  0  0  0  0  0  0  0  0  0
    3.9163  -11.9064    0.0000 O   0  0  0  0  0  0  0  0  0  0  0  0
    3.2018  -12.3189    0.0000 C   0  0  1  0  0  0  0  0  0  0  0  0
    3.2018  -13.1439    0.0000 C   0  0  2  0  0  0  0  0  0  0  0  0
    3.9163  -13.5564    0.0000 C   0  0  1  0  0  0  0  0  0  0  0  0
    4.6307  -13.1439    0.0000 C   0  0  1  0  0  0  0  0  0  0  0  0
    2.4873  -11.9064    0.0000 C   0  0  0  0  0  0  0  0  0  0  0  0
    3.9163  -14.3814    0.0000 O   0  0  0  0  0  0  0  0  0  0  0  0
    5.3452  -13.5564    0.0000 O   0  0  0  0  0  0  0  0  0  0  0  0
    2.4873  -13.5564    0.0000 O   0  0  0  0  0  0  0  0  0  0  0  0
    1.7729  -12.3189    0.0000 O   0  0  0  0  0  0  0  0  0  0  0  0
    6.0597   -9.0189    0.0000 H   0  0  0  0  0  0  0  0  0  0  0  0
  3  2  1  6  0  0  0
  3  4  1  0  0  0  0
  4  5  1  1  0  0  0
  5  1  1  0  0  0  0
  3  6  1  0  0  0  0
  6  7  1  0  0  0  0
  7  8  1  0  0  0  0
  8  9  1  0  0  0  0
  9  4  1  0  0  0  0
  8 10  1  0  0  0  0
 10 11  1  0  0  0  0
 11 12  1  0  0  0  0
  7 13  1  6  0  0  0
 14 15  1  0  0  0  0
 15 10  2  0  0  0  0
 15 16  1  0  0  0  0
 16 17  2  0  0  0  0
 17 18  1  0  0  0  0
 18 11  2  0  0  0  0
 16 19  1  0  0  0  0
 19 20  1  0  0  0  0
 20 21  2  0  0  0  0
 21 22  1  0  0  0  0
 22 17  1  0  0  0  0
 27 23  1  0  0  0  0
 21 31  1  0  0  0  0
 26 24  1  0  0  0  0
 25 30  2  0  0  0  0
 26 25  1  0  0  0  0
 27 26  2  0  0  0  0
 29 27  1  0  0  0  0
 31 29  2  0  0  0  0
 19 28  2  0  0  0  0
 31 30  1  0  0  0  0
  6 32  1  1  0  0  0
 33 32  1  1  0  0  0
 33 34  1  0  0  0  0
 34 35  1  0  0  0  0
 35 36  1  0  0  0  0
 36 37  1  0  0  0  0
 37 38  1  0  0  0  0
 38 33  1  0  0  0  0
 35 39  1  1  0  0  0
 37 40  1  1  0  0  0
 38 41  1  6  0  0  0
 36 42  1  6  0  0  0
 39 43  1  0  0  0  0
  8 44  1  6  0  0  0
M  END
>  <cdx:fragmentId>
5

$$$$
