70258.cdx
  Mrv1902 05222410202D          

  7  7  0  0  0  0            999 V2000
    6.7741   -4.1280    0.0000 C   0  0  0  0  0  0  0  0  0  0  0  0
    7.4415   -3.6431    0.0000 C   0  0  0  0  0  0  0  0  0  0  0  0
    8.1089   -4.1280    0.0000 C   0  0  0  0  0  0  0  0  0  0  0  0
    7.8540   -4.9126    0.0000 C   0  0  0  0  0  0  0  0  0  0  0  0
    7.0290   -4.9126    0.0000 C   0  0  0  0  0  0  0  0  0  0  0  0
    5.9894   -3.8731    0.0000 O   0  0  0  0  0  0  0  0  0  0  0  0
    8.8936   -3.8731    0.0000 O   0  0  0  0  0  0  0  0  0  0  0  0
  1  2  1  0  0  0  0
  2  3  1  0  0  0  0
  3  4  1  0  0  0  0
  4  5  2  0  0  0  0
  1  5  1  0  0  0  0
  1  6  2  0  0  0  0
  3  7  2  0  0  0  0
M  END
>  <cdx:fragmentId>
5

$$$$
