70256.cdx
  Mrv1902 05222410272D          

 14 13  0  0  0  0            999 V2000
    4.9200   -7.0801    0.0000 C   0  0  0  0  0  0  0  0  0  0  0  0
    5.6345   -7.4926    0.0000 O   0  0  0  0  0  0  0  0  0  0  0  0
    6.3490   -7.0801    0.0000 C   0  0  0  0  0  0  0  0  0  0  0  0
    7.0634   -7.4926    0.0000 C   0  0  0  0  0  0  0  0  0  0  0  0
    7.7779   -7.0801    0.0000 C   0  0  0  0  0  0  0  0  0  0  0  0
    8.4924   -7.4926    0.0000 C   0  0  0  0  0  0  0  0  0  0  0  0
    6.3490   -6.2551    0.0000 O   0  0  0  0  0  0  0  0  0  0  0  0
    9.2069   -7.0801    0.0000 O   0  0  0  0  0  0  0  0  0  0  0  0
    7.7779   -7.9051    0.0000 C   0  0  0  0  0  0  0  0  0  0  0  0
    7.0634   -8.3176    0.0000 C   0  0  0  0  0  0  0  0  0  0  0  0
    7.7779   -6.2551    0.0000 O   0  0  0  0  0  0  0  0  0  0  0  0
    6.3490   -7.9051    0.0000 C   0  0  0  0  0  0  0  0  0  0  0  0
    7.0634   -9.1426    0.0000 C   0  0  0  0  0  0  0  0  0  0  0  0
    8.4924   -8.3176    0.0000 O   0  0  0  0  0  0  0  0  0  0  0  0
  1  2  1  0  0  0  0
  2  3  1  0  0  0  0
  3  4  1  0  0  0  0
  4  5  1  0  0  0  0
  5  6  1  0  0  0  0
  3  7  2  0  0  0  0
  6  8  2  0  0  0  0
  5  9  1  6  0  0  0
  9 10  1  0  0  0  0
  5 11  1  1  0  0  0
 10 12  1  0  0  0  0
 10 13  1  0  0  0  0
  6 14  1  0  0  0  0
M  END
>  <cdx:fragmentId>
3

$$$$
