70255.cdx
  Mrv1902 05222410262D          

 53 56  0  0  0  0            999 V2000
    5.3606   -5.6226    0.0000 C   0  0  0  0  0  0  0  0  0  0  0  0
    5.3606   -6.4476    0.0000 C   0  0  0  0  0  0  0  0  0  0  0  0
    6.0750   -6.8601    0.0000 C   0  0  0  0  0  0  0  0  0  0  0  0
    6.7895   -6.4476    0.0000 C   0  0  0  0  0  0  0  0  0  0  0  0
    6.7895   -5.6226    0.0000 C   0  0  0  0  0  0  0  0  0  0  0  0
    6.0750   -5.2101    0.0000 C   0  0  0  0  0  0  0  0  0  0  0  0
    4.6461   -6.8601    0.0000 O   0  0  0  0  0  0  0  0  0  0  0  0
    3.9313   -6.4482    0.0000 C   0  0  2  0  0  0  0  0  0  0  0  0
    3.9307   -5.6232    0.0000 O   0  0  0  0  0  0  0  0  0  0  0  0
    3.2160   -5.2112    0.0000 C   0  0  1  0  0  0  0  0  0  0  0  0
    2.5018   -5.6242    0.0000 C   0  0  2  0  0  0  0  0  0  0  0  0
    2.5024   -6.4492    0.0000 C   0  0  1  0  0  0  0  0  0  0  0  0
    3.2171   -6.8612    0.0000 C   0  0  1  0  0  0  0  0  0  0  0  0
    1.7882   -6.8622    0.0000 O   0  0  0  0  0  0  0  0  0  0  0  0
    3.2154   -4.3862    0.0000 C   0  0  0  0  0  0  0  0  0  0  0  0
    2.5006   -3.9742    0.0000 O   0  0  0  0  0  0  0  0  0  0  0  0
    1.7870   -5.2122    0.0000 O   0  0  0  0  0  0  0  0  0  0  0  0
    3.2177   -7.6862    0.0000 O   0  0  0  0  0  0  0  0  0  0  0  0
    7.5040   -5.2101    0.0000 C   0  0  0  0  0  0  0  0  0  0  0  0
    8.2184   -5.6226    0.0000 O   0  0  0  0  0  0  0  0  0  0  0  0
    8.9329   -5.2101    0.0000 C   0  0  0  0  0  0  0  0  0  0  0  0
    9.6474   -5.6226    0.0000 C   0  0  1  0  0  0  0  0  0  0  0  0
    8.9329   -4.3851    0.0000 O   0  0  0  0  0  0  0  0  0  0  0  0
   10.3619   -5.2101    0.0000 C   0  0  0  0  0  0  0  0  0  0  0  0
   11.0763   -5.6226    0.0000 C   0  0  0  0  0  0  0  0  0  0  0  0
   11.7908   -5.2101    0.0000 O   0  0  0  0  0  0  0  0  0  0  0  0
   11.0763   -6.4476    0.0000 O   0  0  0  0  0  0  0  0  0  0  0  0
    9.1053   -6.7285    0.0000 O   0  0  0  0  0  0  0  0  0  0  0  0
   10.2307   -6.2060    0.0000 C   0  0  0  0  0  0  0  0  0  0  0  0
   10.2307   -7.0310    0.0000 C   0  0  0  0  0  0  0  0  0  0  0  0
   10.9452   -7.4435    0.0000 C   0  0  0  0  0  0  0  0  0  0  0  0
    9.5163   -7.4435    0.0000 C   0  0  0  0  0  0  0  0  0  0  0  0
    8.5219   -7.3119    0.0000 C   0  0  2  0  0  0  0  0  0  0  0  0
    7.7250   -7.0984    0.0000 O   0  0  0  0  0  0  0  0  0  0  0  0
    7.1417   -7.6817    0.0000 C   0  0  1  0  0  0  0  0  0  0  0  0
    7.3552   -8.4786    0.0000 C   0  0  2  0  0  0  0  0  0  0  0  0
    8.1521   -8.6921    0.0000 C   0  0  1  0  0  0  0  0  0  0  0  0
    8.7354   -8.1088    0.0000 C   0  0  1  0  0  0  0  0  0  0  0  0
    6.3448   -7.4682    0.0000 C   0  0  0  0  0  0  0  0  0  0  0  0
    8.3656   -9.4890    0.0000 O   0  0  0  0  0  0  0  0  0  0  0  0
    9.5323   -8.3223    0.0000 O   0  0  0  0  0  0  0  0  0  0  0  0
    6.7718   -9.0620    0.0000 O   0  0  0  0  0  0  0  0  0  0  0  0
    5.7614   -8.0516    0.0000 O   0  0  0  0  0  0  0  0  0  0  0  0
    6.9853   -9.8589    0.0000 C   0  0  0  0  0  0  0  0  0  0  0  0
    6.4020  -10.4422    0.0000 C   0  0  0  0  0  0  0  0  0  0  0  0
    7.7822  -10.0724    0.0000 O   0  0  0  0  0  0  0  0  0  0  0  0
    6.6155  -11.2391    0.0000 C   0  0  0  0  0  0  0  0  0  0  0  0
    6.0321  -11.8225    0.0000 C   0  0  0  0  0  0  0  0  0  0  0  0
    5.2353  -11.6089    0.0000 C   0  0  0  0  0  0  0  0  0  0  0  0
    4.6519  -12.1923    0.0000 C   0  0  0  0  0  0  0  0  0  0  0  0
    4.8654  -12.9892    0.0000 C   0  0  0  0  0  0  0  0  0  0  0  0
    5.6623  -13.2027    0.0000 C   0  0  0  0  0  0  0  0  0  0  0  0
    6.2457  -12.6194    0.0000 C   0  0  0  0  0  0  0  0  0  0  0  0
  1  2  2  0  0  0  0
  2  3  1  0  0  0  0
  3  4  2  0  0  0  0
  4  5  1  0  0  0  0
  5  6  2  0  0  0  0
  6  1  1  0  0  0  0
  2  7  1  0  0  0  0
  8  7  1  1  0  0  0
  8  9  1  0  0  0  0
  9 10  1  0  0  0  0
 10 11  1  0  0  0  0
 11 12  1  0  0  0  0
 12 13  1  0  0  0  0
 13  8  1  0  0  0  0
 12 14  1  1  0  0  0
 10 15  1  1  0  0  0
 15 16  1  0  0  0  0
 11 17  1  6  0  0  0
 13 18  1  6  0  0  0
  5 19  1  0  0  0  0
 19 20  1  0  0  0  0
 20 21  1  0  0  0  0
 21 22  1  0  0  0  0
 21 23  2  0  0  0  0
 22 24  1  0  0  0  0
 24 25  1  0  0  0  0
 25 26  1  0  0  0  0
 25 27  2  0  0  0  0
 22 28  1  1  0  0  0
 22 29  1  6  0  0  0
 29 30  1  0  0  0  0
 30 31  1  0  0  0  0
 30 32  1  0  0  0  0
 33 28  1  1  0  0  0
 33 34  1  0  0  0  0
 34 35  1  0  0  0  0
 35 36  1  0  0  0  0
 36 37  1  0  0  0  0
 37 38  1  0  0  0  0
 38 33  1  0  0  0  0
 35 39  1  1  0  0  0
 37 40  1  1  0  0  0
 38 41  1  6  0  0  0
 36 42  1  6  0  0  0
 39 43  1  0  0  0  0
 42 44  1  0  0  0  0
 44 45  1  0  0  0  0
 44 46  2  0  0  0  0
 45 47  2  0  0  0  0
 47 48  1  0  0  0  0
 48 49  2  0  0  0  0
 49 50  1  0  0  0  0
 50 51  2  0  0  0  0
 51 52  1  0  0  0  0
 52 53  2  0  0  0  0
 53 48  1  0  0  0  0
M  END
>  <cdx:fragmentId>
5

$$$$
