70265.cdx
  Mrv1902 05222410202D          

 23 27  0  0  0  0            999 V2000
    9.0396   -8.5239    0.0000 C   0  0  0  0  0  0  0  0  0  0  0  0
    9.0396   -6.8739    0.0000 O   0  0  0  0  0  0  0  0  0  0  0  0
    7.6107   -6.0489    0.0000 O   0  0  0  0  0  0  0  0  0  0  0  0
    4.6826   -7.0315    0.0000 O   0  0  0  0  0  0  0  0  0  0  0  0
    4.1977   -7.6989    0.0000 C   0  0  0  0  0  0  0  0  0  0  0  0
    4.6826   -8.3663    0.0000 O   0  0  0  0  0  0  0  0  0  0  0  0
    5.4672   -9.7614    0.0000 C   0  0  0  0  0  0  0  0  0  0  0  0
    5.4672  -10.5864    0.0000 C   0  0  0  0  0  0  0  0  0  0  0  0
    6.1817  -10.9989    0.0000 C   0  0  0  0  0  0  0  0  0  0  0  0
    6.8962  -10.5864    0.0000 C   0  0  0  0  0  0  0  0  0  0  0  0
    6.1817   -9.3489    0.0000 C   0  0  0  0  0  0  0  0  0  0  0  0
    6.8962   -9.7614    0.0000 C   0  0  0  0  0  0  0  0  0  0  0  0
    7.6107   -9.3489    0.0000 C   0  0  0  0  0  0  0  0  0  0  0  0
    6.1817   -6.8739    0.0000 C   0  0  0  0  0  0  0  0  0  0  0  0
    5.4672   -7.2864    0.0000 C   0  0  0  0  0  0  0  0  0  0  0  0
    5.4672   -8.1114    0.0000 C   0  0  0  0  0  0  0  0  0  0  0  0
    6.1817   -8.5239    0.0000 C   0  0  0  0  0  0  0  0  0  0  0  0
    7.6107   -6.8739    0.0000 C   0  0  0  0  0  0  0  0  0  0  0  0
    6.8962   -7.2864    0.0000 C   0  0  0  0  0  0  0  0  0  0  0  0
    6.8962   -8.1114    0.0000 C   0  0  0  0  0  0  0  0  0  0  0  0
    7.6107   -8.5239    0.0000 C   0  0  0  0  0  0  0  0  0  0  0  0
    8.3251   -8.1114    0.0000 N   0  0  0  0  0  0  0  0  0  0  0  0
    8.3251   -7.2864    0.0000 C   0  0  0  0  0  0  0  0  0  0  0  0
 22  1  1  0  0  0  0
 23  2  2  0  0  0  0
 18  3  2  0  0  0  0
  4 15  1  0  0  0  0
  5  4  1  0  0  0  0
  6  5  1  0  0  0  0
 16  6  1  0  0  0  0
  7 11  2  0  0  0  0
  8  7  1  0  0  0  0
  9  8  2  0  0  0  0
 10  9  1  0  0  0  0
 12 10  2  0  0  0  0
 11 17  1  0  0  0  0
 12 11  1  0  0  0  0
 13 12  1  0  0  0  0
 21 13  2  0  0  0  0
 14 19  2  0  0  0  0
 15 14  1  0  0  0  0
 16 15  2  0  0  0  0
 17 16  1  0  0  0  0
 20 17  2  0  0  0  0
 18 23  1  0  0  0  0
 19 18  1  0  0  0  0
 20 19  1  0  0  0  0
 21 20  1  0  0  0  0
 22 21  1  0  0  0  0
 23 22  1  0  0  0  0
M  END
>  <cdx:fragmentId>
5

$$$$
