70262.cdx
  Mrv1902 05222410182D          

 43 48  0  0  0  0            999 V2000
    3.7381   -6.3789    0.0000 C   0  0  0  0  0  0  0  0  0  0  0  0
    3.7381   -7.2039    0.0000 C   0  0  0  0  0  0  0  0  0  0  0  0
    4.4525   -7.6164    0.0000 C   0  0  0  0  0  0  0  0  0  0  0  0
    5.1670   -7.2039    0.0000 C   0  0  0  0  0  0  0  0  0  0  0  0
    5.1670   -6.3789    0.0000 C   0  0  0  0  0  0  0  0  0  0  0  0
    4.4525   -5.9664    0.0000 C   0  0  0  0  0  0  0  0  0  0  0  0
    5.8815   -7.6164    0.0000 C   0  0  2  0  0  0  0  0  0  0  0  0
    6.5959   -7.2039    0.0000 C   0  0  1  0  0  0  0  0  0  0  0  0
    6.5959   -6.3789    0.0000 C   0  0  2  0  0  0  0  0  0  0  0  0
    5.8815   -5.9664    0.0000 O   0  0  0  0  0  0  0  0  0  0  0  0
    7.3104   -7.6164    0.0000 O   0  0  0  0  0  0  0  0  0  0  0  0
    8.0249   -6.3789    0.0000 C   0  0  0  0  0  0  0  0  0  0  0  0
    7.3104   -5.9664    0.0000 C   0  0  0  0  0  0  0  0  0  0  0  0
    8.7394   -5.9664    0.0000 C   0  0  0  0  0  0  0  0  0  0  0  0
    8.7394   -5.1414    0.0000 C   0  0  0  0  0  0  0  0  0  0  0  0
    8.0249   -4.7289    0.0000 C   0  0  0  0  0  0  0  0  0  0  0  0
    7.3104   -5.1414    0.0000 C   0  0  0  0  0  0  0  0  0  0  0  0
    4.4525   -8.4414    0.0000 O   0  0  0  0  0  0  0  0  0  0  0  0
    3.0236   -5.9664    0.0000 O   0  0  0  0  0  0  0  0  0  0  0  0
    8.0249   -3.9039    0.0000 O   0  0  0  0  0  0  0  0  0  0  0  0
    9.4538   -4.7289    0.0000 O   0  0  0  0  0  0  0  0  0  0  0  0
    5.8824  -10.4507    0.0000 C   0  0  0  0  0  0  0  0  0  0  0  0
    5.1668  -10.0403    0.0000 C   0  0  0  0  0  0  0  0  0  0  0  0
    6.5957  -10.0362    0.0000 C   0  0  0  0  0  0  0  0  0  0  0  0
    6.5933   -9.2112    0.0000 C   0  0  0  0  0  0  0  0  0  0  0  0
    5.8777   -8.8007    0.0000 C   0  0  0  0  0  0  0  0  0  0  0  0
    5.1644   -9.2153    0.0000 C   0  0  0  0  0  0  0  0  0  0  0  0
    7.3113  -10.4467    0.0000 C   0  0  0  0  0  0  0  0  0  0  0  0
    8.0246  -10.0321    0.0000 C   0  0  1  0  0  0  0  0  0  0  0  0
    8.0223   -9.2071    0.0000 C   0  0  2  0  0  0  0  0  0  0  0  0
    7.3066   -8.7967    0.0000 O   0  0  0  0  0  0  0  0  0  0  0  0
    8.7403  -10.4426    0.0000 O   0  0  0  0  0  0  0  0  0  0  0  0
    9.4512   -9.2031    0.0000 C   0  0  0  0  0  0  0  0  0  0  0  0
    8.7356   -8.7926    0.0000 C   0  0  0  0  0  0  0  0  0  0  0  0
   10.1645   -8.7885    0.0000 C   0  0  0  0  0  0  0  0  0  0  0  0
   10.1622   -7.9635    0.0000 C   0  0  0  0  0  0  0  0  0  0  0  0
    9.4465   -7.5531    0.0000 C   0  0  0  0  0  0  0  0  0  0  0  0
    8.7332   -7.9676    0.0000 C   0  0  0  0  0  0  0  0  0  0  0  0
    5.8847  -11.2757    0.0000 O   0  0  0  0  0  0  0  0  0  0  0  0
    4.4488   -8.8048    0.0000 O   0  0  0  0  0  0  0  0  0  0  0  0
   10.8802   -9.1990    0.0000 O   0  0  0  0  0  0  0  0  0  0  0  0
   10.8755   -7.5490    0.0000 O   0  0  0  0  0  0  0  0  0  0  0  0
    9.4442   -6.7281    0.0000 O   0  0  0  0  0  0  0  0  0  0  0  0
  1  2  2  0  0  0  0
  2  3  1  0  0  0  0
  3  4  2  0  0  0  0
  4  5  1  0  0  0  0
  5  6  2  0  0  0  0
  6  1  1  0  0  0  0
  4  7  1  0  0  0  0
  7  8  1  0  0  0  0
  8  9  1  0  0  0  0
  9 10  1  0  0  0  0
 10  5  1  0  0  0  0
  8 11  1  1  0  0  0
 12 13  2  0  0  0  0
  9 13  1  6  0  0  0
 12 14  1  0  0  0  0
 14 15  2  0  0  0  0
 15 16  1  0  0  0  0
 16 17  2  0  0  0  0
 17 13  1  0  0  0  0
  3 18  1  0  0  0  0
  1 19  1  0  0  0  0
 16 20  1  0  0  0  0
 15 21  1  0  0  0  0
 22 23  1  0  0  0  0
 22 24  2  0  0  0  0
 24 25  1  0  0  0  0
 25 26  2  0  0  0  0
 26 27  1  0  0  0  0
 27 23  2  0  0  0  0
 24 28  1  0  0  0  0
 28 29  1  0  0  0  0
 29 30  1  0  0  0  0
 30 31  1  0  0  0  0
 31 25  1  0  0  0  0
 29 32  1  1  0  0  0
 33 34  2  0  0  0  0
 30 34  1  6  0  0  0
 33 35  1  0  0  0  0
 35 36  2  0  0  0  0
 36 37  1  0  0  0  0
 37 38  2  0  0  0  0
 38 34  1  0  0  0  0
 22 39  1  0  0  0  0
 27 40  1  0  0  0  0
 35 41  1  0  0  0  0
 36 42  1  0  0  0  0
 37 43  1  0  0  0  0
  7 26  1  6  0  0  0
M  END
>  <cdx:fragmentId>
141

$$$$
