70267.cdx
  Mrv1902 05222410192D          

 47 54  0  0  0  0            999 V2000
    6.2540  -11.3585    0.0000 O   0  0  0  0  0  0  0  0  0  0  0  0
    7.0787  -11.3585    0.0000 C   0  0  0  0  0  0  0  0  0  0  0  0
    7.8543  -11.0787    0.0000 C   0  0  0  0  0  0  0  0  0  0  0  0
    8.4882  -10.5501    0.0000 C   0  0  0  0  0  0  0  0  0  0  0  0
    8.8988   -9.8345    0.0000 C   0  0  0  0  0  0  0  0  0  0  0  0
    9.0459   -9.0225    0.0000 C   0  0  0  0  0  0  0  0  0  0  0  0
    8.8988   -8.2106    0.0000 C   0  0  1  0  0  0  0  0  0  0  0  0
    8.5121   -7.3198    0.0000 C   0  0  0  0  0  0  0  0  0  0  0  0
    7.8543   -6.9663    0.0000 C   0  0  0  0  0  0  0  0  0  0  0  0
    7.0805   -6.6793    0.0000 O   0  0  0  0  0  0  0  0  0  0  0  0
    6.2559   -6.6793    0.0000 C   0  0  0  0  0  0  0  0  0  0  0  0
    5.4784   -6.9554    0.0000 C   0  0  0  0  0  0  0  0  0  0  0  0
    4.8427   -7.4822    0.0000 C   0  0  0  0  0  0  0  0  0  0  0  0
    4.4285   -8.1961    0.0000 C   0  0  1  0  0  0  0  0  0  0  0  0
    4.2454   -9.0135    0.0000 C   0  0  0  0  0  0  0  0  0  0  0  0
    4.4649   -9.8236    0.0000 C   0  0  0  0  0  0  0  0  0  0  0  0
    4.8736  -10.5392    0.0000 C   0  0  0  0  0  0  0  0  0  0  0  0
    5.5020  -11.0733    0.0000 C   0  0  0  0  0  0  0  0  0  0  0  0
    3.6035   -8.1961    0.0000 N   0  0  0  0  0  0  0  0  0  0  0  0
    3.1910   -7.4816    0.0000 C   0  0  0  0  0  0  0  0  0  0  0  0
    4.4302   -6.7677    0.0000 C   0  0  0  0  0  0  0  0  0  0  0  0
    3.6035   -6.7671    0.0000 C   0  0  0  0  0  0  0  0  0  0  0  0
    4.8427   -6.0533    0.0000 C   0  0  0  0  0  0  0  0  0  0  0  0
    5.6677   -6.0533    0.0000 C   0  0  0  0  0  0  0  0  0  0  0  0
    5.9953   -5.2961    0.0000 O   0  0  0  0  0  0  0  0  0  0  0  0
    5.5828   -4.5816    0.0000 C   0  0  0  0  0  0  0  0  0  0  0  0
    3.1910   -8.9105    0.0000 C   0  0  0  0  0  0  0  0  0  0  0  0
    5.1793   -9.4111    0.0000 C   0  0  0  0  0  0  0  0  0  0  0  0
    5.9762   -9.6246    0.0000 C   0  0  0  0  0  0  0  0  0  0  0  0
    6.1898  -10.4215    0.0000 C   0  0  0  0  0  0  0  0  0  0  0  0
    6.9837  -10.6457    0.0000 O   0  0  0  0  0  0  0  0  0  0  0  0
    7.6982  -10.2332    0.0000 C   0  0  0  0  0  0  0  0  0  0  0  0
    7.5383  -10.6513    0.0000 C   0  0  0  0  0  0  0  0  0  0  0  0
    8.2803  -10.0876    0.0000 C   0  0  0  0  0  0  0  0  0  0  0  0
    9.0680   -6.9152    0.0000 C   0  0  0  0  0  0  0  0  0  0  0  0
    9.5588   -8.3068    0.0000 N   0  0  0  0  0  0  0  0  0  0  0  0
    9.7734   -7.0323    0.0000 C   0  0  0  0  0  0  0  0  0  0  0  0
   10.0237   -7.7880    0.0000 C   0  0  0  0  0  0  0  0  0  0  0  0
    7.8543   -6.1413    0.0000 C   0  0  0  0  0  0  0  0  0  0  0  0
    8.4863   -5.8526    0.0000 C   0  0  0  0  0  0  0  0  0  0  0  0
    9.0495   -6.1688    0.0000 C   0  0  0  0  0  0  0  0  0  0  0  0
    9.7581   -9.1074    0.0000 C   0  0  0  0  0  0  0  0  0  0  0  0
    8.4070   -5.1623    0.0000 O   0  0  0  0  0  0  0  0  0  0  0  0
    7.7260   -5.0245    0.0000 C   0  0  0  0  0  0  0  0  0  0  0  0
    7.3844   -5.6295    0.0000 O   0  0  0  0  0  0  0  0  0  0  0  0
    5.2535   -8.1961    0.0000 H   0  0  0  0  0  0  0  0  0  0  0  0
    8.1019   -8.4241    0.0000 H   0  0  0  0  0  0  0  0  0  0  0  0
  1  2  1  0  0  0  0
  2  3  1  0  0  0  0
  3  4  2  0  0  0  0
  4  5  1  0  0  0  0
  5  6  1  0  0  0  0
  6  7  1  0  0  0  0
  7  8  1  0  0  0  0
  8  9  2  0  0  0  0
  9 10  1  0  0  0  0
 10 11  1  0  0  0  0
 11 12  1  0  0  0  0
 12 13  2  0  0  0  0
 13 14  1  0  0  0  0
 14 15  1  0  0  0  0
 15 16  1  0  0  0  0
 16 17  2  0  0  0  0
 17 18  1  0  0  0  0
  1 18  1  0  0  0  0
 14 19  1  0  0  0  0
 19 20  1  0  0  0  0
 13 21  1  0  0  0  0
 20 22  1  0  0  0  0
 21 22  1  0  0  0  0
 21 23  2  0  0  0  0
 23 24  1  0  0  0  0
 24 11  2  0  0  0  0
 24 25  1  0  0  0  0
 25 26  1  0  0  0  0
 19 27  1  0  0  0  0
 16 28  1  0  0  0  0
 28 29  2  0  0  0  0
 29 30  1  0  0  0  0
 30 18  2  0  0  0  0
 30 31  1  0  0  0  0
 31 32  1  0  0  0  0
  2 33  2  0  0  0  0
 33 34  1  0  0  0  0
 34  5  2  0  0  0  0
  8 35  1  0  0  0  0
  7 36  1  0  0  0  0
 35 37  1  0  0  0  0
 37 38  1  0  0  0  0
 36 38  1  0  0  0  0
  9 39  1  0  0  0  0
 39 40  2  0  0  0  0
 40 41  1  0  0  0  0
 41 35  2  0  0  0  0
 36 42  1  0  0  0  0
 40 43  1  0  0  0  0
 43 44  1  0  0  0  0
 44 45  1  0  0  0  0
 45 39  1  0  0  0  0
 14 46  1  6  0  0  0
  7 47  1  6  0  0  0
M  END
>  <cdx:groupId>
783

>  <cdx:fragmentId>
784

$$$$
