70263.cdx
  Mrv1902 05222410192D          

 21 23  0  0  0  0            999 V2000
    6.1177   -8.4836    0.0000 C   0  0  0  0  0  0  0  0  0  0  0  0
    6.7718   -7.9808    0.0000 C   0  0  1  0  0  0  0  0  0  0  0  0
    6.7864   -7.1559    0.0000 C   0  0  2  0  0  0  0  0  0  0  0  0
    6.1507   -6.6301    0.0000 C   0  0  0  0  0  0  0  0  0  0  0  0
    5.3432   -6.7994    0.0000 C   0  0  2  0  0  0  0  0  0  0  0  0
    4.9721   -7.5362    0.0000 C   0  0  0  0  0  0  0  0  0  0  0  0
    5.3168   -8.2857    0.0000 C   0  0  2  0  0  0  0  0  0  0  0  0
    4.1541   -7.4293    0.0000 C   0  0  0  0  0  0  0  0  0  0  0  0
    5.8027   -9.2461    0.0000 C   0  0  0  0  0  0  0  0  0  0  0  0
    6.7727   -8.9852    0.0000 C   0  0  0  0  0  0  0  0  0  0  0  0
    7.5517   -8.2496    0.0000 C   0  0  0  0  0  0  0  0  0  0  0  0
    8.0485   -7.5909    0.0000 C   0  0  0  0  0  0  0  0  0  0  0  0
    7.5755   -6.9150    0.0000 C   0  0  1  0  0  0  0  0  0  0  0  0
    5.9191   -7.4233    0.0000 C   0  0  0  0  0  0  0  0  0  0  0  0
    4.6627   -8.7886    0.0000 H   0  0  0  0  0  0  0  0  0  0  0  0
    6.8802   -8.7986    0.0000 H   0  0  0  0  0  0  0  0  0  0  0  0
    7.8905   -6.1525    0.0000 C   0  0  0  0  0  0  0  0  0  0  0  0
    4.8404   -6.1453    0.0000 O   0  0  0  0  0  0  0  0  0  0  0  0
    5.1554   -5.3828    0.0000 C   0  0  0  0  0  0  0  0  0  0  0  0
    4.6526   -4.7288    0.0000 O   0  0  0  0  0  0  0  0  0  0  0  0
    5.9733   -5.2744    0.0000 C   0  0  0  0  0  0  0  0  0  0  0  0
  1  2  1  0  0  0  0
  2  3  1  0  0  0  0
  3  4  1  0  0  0  0
  4  5  1  0  0  0  0
  5  6  1  0  0  0  0
  6  7  1  0  0  0  0
  7  1  1  0  0  0  0
  6  8  2  0  0  0  0
  1  9  1  0  0  0  0
  1 10  1  0  0  0  0
  2 11  1  0  0  0  0
 11 12  1  0  0  0  0
 12 13  1  0  0  0  0
 13  3  1  0  0  0  0
  7 14  1  0  0  0  0
  3 14  1  1  0  0  0
  7 15  1  1  0  0  0
  2 16  1  6  0  0  0
 13 17  1  6  0  0  0
  5 18  1  6  0  0  0
 18 19  1  0  0  0  0
 19 20  2  0  0  0  0
 19 21  1  0  0  0  0
M  END
>  <cdx:fragmentId>
5

$$$$
