70260.cdx
  Mrv1902 05222410182D          

 34 36  0  0  0  0            999 V2000
    5.3056  -10.6551    0.0000 C   0  0  0  0  0  0  0  0  0  0  0  0
    5.3056  -11.4801    0.0000 C   0  0  0  0  0  0  0  0  0  0  0  0
    6.0200  -11.8926    0.0000 C   0  0  0  0  0  0  0  0  0  0  0  0
    6.7345  -11.4801    0.0000 C   0  0  0  0  0  0  0  0  0  0  0  0
    6.7345  -10.6551    0.0000 C   0  0  0  0  0  0  0  0  0  0  0  0
    6.0200  -10.2426    0.0000 C   0  0  0  0  0  0  0  0  0  0  0  0
    8.1634  -11.4801    0.0000 C   0  0  0  0  0  0  0  0  0  0  0  0
    8.1634  -10.6551    0.0000 C   0  0  0  0  0  0  0  0  0  0  0  0
    7.4490  -10.2426    0.0000 C   0  0  0  0  0  0  0  0  0  0  0  0
    8.8779  -11.8926    0.0000 C   0  0  0  0  0  0  0  0  0  0  0  0
    9.5924  -11.4801    0.0000 C   0  0  0  0  0  0  0  0  0  0  0  0
    9.5924  -10.6551    0.0000 C   0  0  0  0  0  0  0  0  0  0  0  0
    8.8779  -10.2426    0.0000 C   0  0  0  0  0  0  0  0  0  0  0  0
    6.0200   -9.4176    0.0000 O   0  0  0  0  0  0  0  0  0  0  0  0
    5.3056   -9.0051    0.0000 C   0  0  1  0  0  0  0  0  0  0  0  0
    4.5911   -9.4176    0.0000 C   0  0  1  0  0  0  0  0  0  0  0  0
    5.3056   -8.1801    0.0000 O   0  0  0  0  0  0  0  0  0  0  0  0
    4.5911   -7.7676    0.0000 C   0  0  1  0  0  0  0  0  0  0  0  0
    3.8766   -8.1801    0.0000 C   0  0  2  0  0  0  0  0  0  0  0  0
    3.8766   -9.0051    0.0000 C   0  0  2  0  0  0  0  0  0  0  0  0
    4.5911   -6.9426    0.0000 C   0  0  0  0  0  0  0  0  0  0  0  0
    3.8766   -6.5301    0.0000 O   0  0  0  0  0  0  0  0  0  0  0  0
    7.1470  -12.1946    0.0000 O   0  0  0  0  0  0  0  0  0  0  0  0
    7.7509  -12.1946    0.0000 C   0  0  0  0  0  0  0  0  0  0  0  0
    8.1634  -12.9091    0.0000 O   0  0  0  0  0  0  0  0  0  0  0  0
    7.3384  -12.9091    0.0000 O   0  0  0  0  0  0  0  0  0  0  0  0
    7.4490   -9.4176    0.0000 O   0  0  0  0  0  0  0  0  0  0  0  0
    8.8779   -9.4176    0.0000 O   0  0  0  0  0  0  0  0  0  0  0  0
   10.3069  -11.8926    0.0000 C   0  0  0  0  0  0  0  0  0  0  0  0
   11.0213  -11.4801    0.0000 O   0  0  0  0  0  0  0  0  0  0  0  0
   10.3069  -12.7176    0.0000 O   0  0  0  0  0  0  0  0  0  0  0  0
    3.1621   -9.4176    0.0000 O   0  0  0  0  0  0  0  0  0  0  0  0
    4.5911  -10.2426    0.0000 O   0  0  0  0  0  0  0  0  0  0  0  0
    3.1621   -7.7676    0.0000 O   0  0  0  0  0  0  0  0  0  0  0  0
  1  2  2  0  0  0  0
  2  3  1  0  0  0  0
  3  4  2  0  0  0  0
  4  5  1  0  0  0  0
  5  6  2  0  0  0  0
  6  1  1  0  0  0  0
  7  8  2  0  0  0  0
  8  9  1  0  0  0  0
  9  5  1  0  0  0  0
  7 10  1  0  0  0  0
 10 11  2  0  0  0  0
 11 12  1  0  0  0  0
 12 13  2  0  0  0  0
 13  8  1  0  0  0  0
  6 14  1  0  0  0  0
 15 14  1  1  0  0  0
 15 16  1  0  0  0  0
 15 17  1  0  0  0  0
 17 18  1  0  0  0  0
 18 19  1  0  0  0  0
 19 20  1  0  0  0  0
 20 16  1  0  0  0  0
 18 21  1  1  0  0  0
 21 22  1  0  0  0  0
  4 23  1  0  0  0  0
  7 24  1  0  0  0  0
 24 25  1  0  0  0  0
 24 26  2  0  0  0  0
  9 27  2  0  0  0  0
 13 28  1  0  0  0  0
 11 29  1  0  0  0  0
 29 30  2  0  0  0  0
 29 31  1  0  0  0  0
 20 32  1  1  0  0  0
 16 33  1  6  0  0  0
 19 34  1  6  0  0  0
M  END
>  <cdx:fragmentId>
5

$$$$
