7027.cdx
  Mrv1902 05222410192D          

 12 12  0  0  0  0            999 V2000
    4.2628   -3.6583    0.0000 O   0  0  0  0  0  0  0  0  0  0  0  0
    3.5483   -3.2458    0.0000 C   0  0  0  0  0  0  0  0  0  0  0  0
    3.5483   -2.4208    0.0000 C   0  0  1  0  0  0  0  0  0  0  0  0
    4.2628   -2.0083    0.0000 C   0  0  2  0  0  0  0  0  0  0  0  0
    4.9772   -2.4208    0.0000 C   0  0  1  0  0  0  0  0  0  0  0  0
    4.9772   -3.2458    0.0000 C   0  0  1  0  0  0  0  0  0  0  0  0
    2.8338   -3.6583    0.0000 O   0  0  0  0  0  0  0  0  0  0  0  0
    5.6917   -3.6583    0.0000 C   0  0  0  0  0  0  0  0  0  0  0  0
    6.4062   -3.2458    0.0000 O   0  0  0  0  0  0  0  0  0  0  0  0
    5.6917   -2.0083    0.0000 O   0  0  0  0  0  0  0  0  0  0  0  0
    4.2628   -1.1833    0.0000 O   0  0  0  0  0  0  0  0  0  0  0  0
    2.8338   -2.0083    0.0000 O   0  0  0  0  0  0  0  0  0  0  0  0
  1  2  1  0  0  0  0
  2  3  1  0  0  0  0
  3  4  1  0  0  0  0
  4  5  1  0  0  0  0
  5  6  1  0  0  0  0
  1  6  1  0  0  0  0
  2  7  2  0  0  0  0
  8  9  1  0  0  0  0
  6  8  1  1  0  0  0
  5 10  1  6  0  0  0
  4 11  1  1  0  0  0
  3 12  1  6  0  0  0
M  END
>  <cdx:groupId>
38

>  <cdx:fragmentId>
5

$$$$
