70276.cdx
  Mrv1902 05222410182D          

 41 45  0  0  0  0            999 V2000
    6.1856  -11.2326    0.0000 C   0  0  0  0  0  0  0  0  0  0  0  0
    6.1856  -12.0576    0.0000 C   0  0  0  0  0  0  0  0  0  0  0  0
    6.9000  -12.4701    0.0000 C   0  0  0  0  0  0  0  0  0  0  0  0
    7.6145  -12.0576    0.0000 C   0  0  0  0  0  0  0  0  0  0  0  0
    7.6145  -11.2326    0.0000 C   0  0  0  0  0  0  0  0  0  0  0  0
    6.9000  -10.8201    0.0000 C   0  0  0  0  0  0  0  0  0  0  0  0
    8.3290  -12.4701    0.0000 C   0  0  0  0  0  0  0  0  0  0  0  0
    9.0434  -12.0576    0.0000 C   0  0  0  0  0  0  0  0  0  0  0  0
    9.0434  -11.2326    0.0000 C   0  0  0  0  0  0  0  0  0  0  0  0
    8.3290  -10.8201    0.0000 C   0  0  0  0  0  0  0  0  0  0  0  0
    9.7579  -12.4701    0.0000 C   0  0  0  0  0  0  0  0  0  0  0  0
   10.4724  -12.0576    0.0000 C   0  0  0  0  0  0  0  0  0  0  0  0
   10.4724  -11.2326    0.0000 C   0  0  0  0  0  0  0  0  0  0  0  0
    9.7579  -10.8201    0.0000 C   0  0  0  0  0  0  0  0  0  0  0  0
    6.9000   -9.9951    0.0000 O   0  0  0  0  0  0  0  0  0  0  0  0
    8.3290   -9.9951    0.0000 O   0  0  0  0  0  0  0  0  0  0  0  0
    9.7579   -9.9951    0.0000 O   0  0  0  0  0  0  0  0  0  0  0  0
    8.3290  -13.2951    0.0000 O   0  0  0  0  0  0  0  0  0  0  0  0
   11.1869  -12.4701    0.0000 C   0  0  0  0  0  0  0  0  0  0  0  0
    6.1856   -9.5826    0.0000 C   0  0  2  0  0  0  0  0  0  0  0  0
    6.1856   -8.7576    0.0000 O   0  0  0  0  0  0  0  0  0  0  0  0
    5.4711   -8.3451    0.0000 C   0  0  1  0  0  0  0  0  0  0  0  0
    4.7566   -8.7576    0.0000 C   0  0  2  0  0  0  0  0  0  0  0  0
    4.7566   -9.5826    0.0000 C   0  0  1  0  0  0  0  0  0  0  0  0
    5.4711   -9.9951    0.0000 C   0  0  1  0  0  0  0  0  0  0  0  0
    5.4711   -7.5201    0.0000 C   0  0  0  0  0  0  0  0  0  0  0  0
    4.0421   -9.9951    0.0000 O   0  0  0  0  0  0  0  0  0  0  0  0
    5.4711  -10.8201    0.0000 O   0  0  0  0  0  0  0  0  0  0  0  0
    4.0421   -8.3451    0.0000 O   0  0  0  0  0  0  0  0  0  0  0  0
    4.7566   -7.1076    0.0000 O   0  0  0  0  0  0  0  0  0  0  0  0
    4.7566   -6.2826    0.0000 C   0  0  2  0  0  0  0  0  0  0  0  0
    5.4711   -5.8701    0.0000 O   0  0  0  0  0  0  0  0  0  0  0  0
    5.4711   -5.0451    0.0000 C   0  0  1  0  0  0  0  0  0  0  0  0
    4.7566   -4.6326    0.0000 C   0  0  2  0  0  0  0  0  0  0  0  0
    4.0421   -5.0451    0.0000 C   0  0  1  0  0  0  0  0  0  0  0  0
    4.0421   -5.8701    0.0000 C   0  0  1  0  0  0  0  0  0  0  0  0
    6.1856   -4.6326    0.0000 C   0  0  0  0  0  0  0  0  0  0  0  0
    3.3277   -4.6326    0.0000 O   0  0  0  0  0  0  0  0  0  0  0  0
    3.3277   -6.2826    0.0000 O   0  0  0  0  0  0  0  0  0  0  0  0
    4.7566   -3.8076    0.0000 O   0  0  0  0  0  0  0  0  0  0  0  0
    6.1856   -3.8076    0.0000 O   0  0  0  0  0  0  0  0  0  0  0  0
  1  2  2  0  0  0  0
  2  3  1  0  0  0  0
  3  4  2  0  0  0  0
  4  5  1  0  0  0  0
  5  6  2  0  0  0  0
  6  1  1  0  0  0  0
  4  7  1  0  0  0  0
  7  8  1  0  0  0  0
  8  9  2  0  0  0  0
  9 10  1  0  0  0  0
 10  5  1  0  0  0  0
  8 11  1  0  0  0  0
 11 12  2  0  0  0  0
 12 13  1  0  0  0  0
 13 14  2  0  0  0  0
 14  9  1  0  0  0  0
  6 15  1  0  0  0  0
 10 16  2  0  0  0  0
 14 17  1  0  0  0  0
  7 18  2  0  0  0  0
 12 19  1  0  0  0  0
 20 15  1  1  0  0  0
 20 21  1  0  0  0  0
 21 22  1  0  0  0  0
 22 23  1  0  0  0  0
 23 24  1  0  0  0  0
 24 25  1  0  0  0  0
 25 20  1  0  0  0  0
 22 26  1  1  0  0  0
 24 27  1  1  0  0  0
 25 28  1  6  0  0  0
 23 29  1  6  0  0  0
 26 30  1  0  0  0  0
 31 30  1  1  0  0  0
 31 32  1  0  0  0  0
 32 33  1  0  0  0  0
 33 34  1  0  0  0  0
 34 35  1  0  0  0  0
 35 36  1  0  0  0  0
 36 31  1  0  0  0  0
 33 37  1  1  0  0  0
 35 38  1  1  0  0  0
 36 39  1  6  0  0  0
 34 40  1  6  0  0  0
 37 41  1  0  0  0  0
M  END
>  <cdx:fragmentId>
5

$$$$
