70273.cdx
  Mrv1902 05222410192D          

 31 34  0  0  0  0            999 V2000
    7.4316  -10.9743    0.0000 C   0  0  0  0  0  0  0  0  0  0  0  0
    8.1458  -10.5613    0.0000 C   0  0  0  0  0  0  0  0  0  0  0  0
    8.1452   -9.7363    0.0000 C   0  0  0  0  0  0  0  0  0  0  0  0
    7.4304   -9.3243    0.0000 C   0  0  0  0  0  0  0  0  0  0  0  0
    6.7163   -9.7373    0.0000 C   0  0  0  0  0  0  0  0  0  0  0  0
    6.7169  -10.5623    0.0000 C   0  0  0  0  0  0  0  0  0  0  0  0
    7.4298   -8.4993    0.0000 O   0  0  0  0  0  0  0  0  0  0  0  0
    6.7151   -8.0873    0.0000 C   0  0  0  0  0  0  0  0  0  0  0  0
    6.0009   -8.5004    0.0000 C   0  0  0  0  0  0  0  0  0  0  0  0
    6.0015   -9.3254    0.0000 C   0  0  0  0  0  0  0  0  0  0  0  0
    5.2873   -9.7384    0.0000 O   0  0  0  0  0  0  0  0  0  0  0  0
    6.0027  -10.9754    0.0000 O   0  0  0  0  0  0  0  0  0  0  0  0
    7.4286   -6.8493    0.0000 C   0  0  0  0  0  0  0  0  0  0  0  0
    6.7145   -7.2623    0.0000 C   0  0  0  0  0  0  0  0  0  0  0  0
    7.4281   -6.0243    0.0000 C   0  0  0  0  0  0  0  0  0  0  0  0
    6.7133   -5.6123    0.0000 C   0  0  0  0  0  0  0  0  0  0  0  0
    5.9991   -6.0254    0.0000 C   0  0  0  0  0  0  0  0  0  0  0  0
    5.9997   -6.8504    0.0000 C   0  0  0  0  0  0  0  0  0  0  0  0
    8.1422   -5.6113    0.0000 O   0  0  0  0  0  0  0  0  0  0  0  0
    6.7127   -4.7873    0.0000 O   0  0  0  0  0  0  0  0  0  0  0  0
    8.8606  -10.9733    0.0000 O   0  0  0  0  0  0  0  0  0  0  0  0
    8.8570   -6.0233    0.0000 C   0  0  0  0  0  0  0  0  0  0  0  0
    8.8606  -11.7983    0.0000 C   0  0  2  0  0  0  0  0  0  0  0  0
    8.1461  -12.2108    0.0000 O   0  0  0  0  0  0  0  0  0  0  0  0
    8.1461  -13.0358    0.0000 C   0  0  0  0  0  0  0  0  0  0  0  0
    8.8606  -13.4483    0.0000 C   0  0  2  0  0  0  0  0  0  0  0  0
    9.5750  -13.0358    0.0000 C   0  0  1  0  0  0  0  0  0  0  0  0
    9.5750  -12.2108    0.0000 C   0  0  1  0  0  0  0  0  0  0  0  0
   10.2895  -13.4483    0.0000 O   0  0  0  0  0  0  0  0  0  0  0  0
    8.8606  -14.2733    0.0000 O   0  0  0  0  0  0  0  0  0  0  0  0
   10.2895  -11.7983    0.0000 O   0  0  0  0  0  0  0  0  0  0  0  0
  1  2  2  0  0  0  0
  2  3  1  0  0  0  0
  3  4  2  0  0  0  0
  4  5  1  0  0  0  0
  5  6  2  0  0  0  0
  6  1  1  0  0  0  0
  4  7  1  0  0  0  0
  7  8  1  0  0  0  0
  8  9  2  0  0  0  0
  9 10  1  0  0  0  0
 10  5  1  0  0  0  0
 10 11  2  0  0  0  0
 12  6  1  0  0  0  0
 13 14  2  0  0  0  0
 14  8  1  0  0  0  0
 13 15  1  0  0  0  0
 15 16  2  0  0  0  0
 16 17  1  0  0  0  0
 17 18  2  0  0  0  0
 18 14  1  0  0  0  0
 15 19  1  0  0  0  0
 20 16  1  0  0  0  0
  2 21  1  0  0  0  0
 19 22  1  0  0  0  0
 23 21  1  1  0  0  0
 23 24  1  0  0  0  0
 24 25  1  0  0  0  0
 25 26  1  0  0  0  0
 26 27  1  0  0  0  0
 27 28  1  0  0  0  0
 28 23  1  0  0  0  0
 27 29  1  1  0  0  0
 26 30  1  6  0  0  0
 28 31  1  6  0  0  0
M  END
>  <cdx:fragmentId>
5

$$$$
