70272.cdx
  Mrv1902 05222410192D          

 43 47  0  0  0  0            999 V2000
    7.3290   -7.8279    0.0000 O   0  0  0  0  0  0  0  0  0  0  0  0
    6.6125   -8.2369    0.0000 C   0  0  2  0  0  0  0  0  0  0  0  0
    5.9001   -7.8210    0.0000 O   0  0  0  0  0  0  0  0  0  0  0  0
    5.1836   -8.2300    0.0000 C   0  0  1  0  0  0  0  0  0  0  0  0
    5.1796   -9.0550    0.0000 C   0  0  2  0  0  0  0  0  0  0  0  0
    5.8921   -9.4709    0.0000 C   0  0  1  0  0  0  0  0  0  0  0  0
    6.6086   -9.0619    0.0000 C   0  0  1  0  0  0  0  0  0  0  0  0
    4.4711   -7.8140    0.0000 C   0  0  0  0  0  0  0  0  0  0  0  0
    5.8881  -10.2959    0.0000 O   0  0  0  0  0  0  0  0  0  0  0  0
    4.4632   -9.4640    0.0000 O   0  0  0  0  0  0  0  0  0  0  0  0
    7.3210   -9.4778    0.0000 O   0  0  0  0  0  0  0  0  0  0  0  0
    3.7547   -8.2231    0.0000 O   0  0  0  0  0  0  0  0  0  0  0  0
    3.0422   -7.8071    0.0000 C   0  0  2  0  0  0  0  0  0  0  0  0
    3.0462   -6.9821    0.0000 O   0  0  0  0  0  0  0  0  0  0  0  0
    2.3337   -6.5662    0.0000 C   0  0  2  0  0  0  0  0  0  0  0  0
    1.6173   -6.9752    0.0000 C   0  0  1  0  0  0  0  0  0  0  0  0
    1.6133   -7.8002    0.0000 C   0  0  2  0  0  0  0  0  0  0  0  0
    2.3258   -8.2162    0.0000 C   0  0  1  0  0  0  0  0  0  0  0  0
    0.9048   -6.5593    0.0000 O   0  0  0  0  0  0  0  0  0  0  0  0
    2.3377   -5.7412    0.0000 C   0  0  0  0  0  0  0  0  0  0  0  0
    0.8968   -8.2093    0.0000 O   0  0  0  0  0  0  0  0  0  0  0  0
    2.3218   -9.0412    0.0000 O   0  0  0  0  0  0  0  0  0  0  0  0
   13.0456   -5.3548    0.0000 C   0  0  0  0  0  0  0  0  0  0  0  0
   13.7597   -6.5929    0.0000 O   0  0  0  0  0  0  0  0  0  0  0  0
   12.3311   -5.7673    0.0000 O   0  0  0  0  0  0  0  0  0  0  0  0
   12.3301   -8.2423    0.0000 C   0  0  0  0  0  0  0  0  0  0  0  0
   13.0448   -7.8301    0.0000 C   0  0  0  0  0  0  0  0  0  0  0  0
   13.0451   -7.0051    0.0000 C   0  0  0  0  0  0  0  0  0  0  0  0
   12.3308   -6.5923    0.0000 C   0  0  0  0  0  0  0  0  0  0  0  0
   11.6158   -7.8295    0.0000 C   0  0  0  0  0  0  0  0  0  0  0  0
   11.6161   -7.0045    0.0000 C   0  0  0  0  0  0  0  0  0  0  0  0
    8.7570  -10.3034    0.0000 O   0  0  0  0  0  0  0  0  0  0  0  0
   10.1859  -10.3040    0.0000 O   0  0  0  0  0  0  0  0  0  0  0  0
   10.1862   -9.4790    0.0000 C   0  0  0  0  0  0  0  0  0  0  0  0
   10.9009   -9.0668    0.0000 C   0  0  0  0  0  0  0  0  0  0  0  0
   10.9012   -8.2418    0.0000 C   0  0  0  0  0  0  0  0  0  0  0  0
   10.1869   -7.8290    0.0000 O   0  0  0  0  0  0  0  0  0  0  0  0
    8.7573   -9.4784    0.0000 C   0  0  0  0  0  0  0  0  0  0  0  0
    9.4719   -9.0662    0.0000 C   0  0  0  0  0  0  0  0  0  0  0  0
    9.4722   -8.2412    0.0000 C   0  0  0  0  0  0  0  0  0  0  0  0
    8.7579   -7.8284    0.0000 C   0  0  0  0  0  0  0  0  0  0  0  0
    8.0433   -8.2406    0.0000 C   0  0  0  0  0  0  0  0  0  0  0  0
    8.0430   -9.0656    0.0000 C   0  0  0  0  0  0  0  0  0  0  0  0
  2  1  1  1  0  0  0
  2  3  1  0  0  0  0
  3  4  1  0  0  0  0
  4  5  1  0  0  0  0
  5  6  1  0  0  0  0
  6  7  1  0  0  0  0
  7  2  1  0  0  0  0
  4  8  1  1  0  0  0
  6  9  1  1  0  0  0
  5 10  1  6  0  0  0
  7 11  1  6  0  0  0
  8 12  1  0  0  0  0
 13 12  1  1  0  0  0
 13 14  1  0  0  0  0
 14 15  1  0  0  0  0
 15 16  1  0  0  0  0
 16 17  1  0  0  0  0
 17 18  1  0  0  0  0
 18 13  1  0  0  0  0
 16 19  1  1  0  0  0
 15 20  1  6  0  0  0
 17 21  1  6  0  0  0
 25 23  1  0  0  0  0
 42  1  1  0  0  0  0
 18 22  1  6  0  0  0
 24 28  1  0  0  0  0
 29 25  1  0  0  0  0
 26 30  1  0  0  0  0
 27 26  2  0  0  0  0
 28 27  1  0  0  0  0
 29 28  2  0  0  0  0
 31 29  1  0  0  0  0
 30 36  1  0  0  0  0
 31 30  2  0  0  0  0
 32 38  1  0  0  0  0
 34 33  2  0  0  0  0
 34 39  1  0  0  0  0
 35 34  1  0  0  0  0
 36 35  2  0  0  0  0
 37 36  1  0  0  0  0
 40 37  1  0  0  0  0
 38 43  1  0  0  0  0
 39 38  2  0  0  0  0
 40 39  1  0  0  0  0
 41 40  2  0  0  0  0
 42 41  1  0  0  0  0
 43 42  2  0  0  0  0
M  END
>  <cdx:fragmentId>
5

$$$$
