70270.cdx
  Mrv1902 05222410202D          

  7  7  0  0  0  0            999 V2000
    6.2543   -9.9126    0.0000 C   0  0  0  0  0  0  0  0  0  0  0  0
    6.2543  -10.7376    0.0000 C   0  0  0  0  0  0  0  0  0  0  0  0
    6.9688  -11.1501    0.0000 C   0  0  0  0  0  0  0  0  0  0  0  0
    7.6832  -10.7376    0.0000 C   0  0  0  0  0  0  0  0  0  0  0  0
    7.6832   -9.9126    0.0000 C   0  0  0  0  0  0  0  0  0  0  0  0
    6.9688   -9.5001    0.0000 C   0  0  0  0  0  0  0  0  0  0  0  0
    6.9688   -8.6751    0.0000 Cl  0  0  0  0  0  0  0  0  0  0  0  0
  1  2  2  0  0  0  0
  2  3  1  0  0  0  0
  3  4  2  0  0  0  0
  4  5  1  0  0  0  0
  5  6  2  0  0  0  0
  6  1  1  0  0  0  0
  6  7  1  0  0  0  0
M  END
>  <cdx:fragmentId>
5

$$$$
