70282.cdx
  Mrv1902 05222410262D          

  8  8  0  0  0  0            999 V2000
    6.0618   -9.4039    0.0000 C   0  0  0  0  0  0  0  0  0  0  0  0
    6.0618  -10.2289    0.0000 C   0  0  2  0  0  0  0  0  0  0  0  0
    6.7763  -10.6414    0.0000 C   0  0  0  0  0  0  0  0  0  0  0  0
    7.4907  -10.2289    0.0000 C   0  0  0  0  0  0  0  0  0  0  0  0
    7.4907   -9.4039    0.0000 C   0  0  0  0  0  0  0  0  0  0  0  0
    6.7763   -8.9914    0.0000 C   0  0  1  0  0  0  0  0  0  0  0  0
    5.3473  -10.6414    0.0000 C   0  0  0  0  0  0  0  0  0  0  0  0
    6.7763   -8.1664    0.0000 C   0  0  0  0  0  0  0  0  0  0  0  0
  1  2  1  0  0  0  0
  2  3  1  0  0  0  0
  3  4  1  0  0  0  0
  4  5  1  0  0  0  0
  5  6  1  0  0  0  0
  6  1  1  0  0  0  0
  2  7  1  6  0  0  0
  6  8  1  6  0  0  0
M  END
>  <cdx:fragmentId>
5

$$$$
