7028.cdx
  Mrv1902 05222410262D          

 12 12  0  0  0  0            999 V2000
    6.6115   -7.9579    0.0000 C   0  0  1  0  0  0  0  0  0  0  0  0
    7.3258   -7.5451    0.0000 C   0  0  1  0  0  0  0  0  0  0  0  0
    5.8968   -7.5457    0.0000 O   0  0  0  0  0  0  0  0  0  0  0  0
    6.6119   -8.7829    0.0000 C   0  0  0  0  0  0  0  0  0  0  0  0
    7.3265   -9.1951    0.0000 C   0  0  0  0  0  0  0  0  0  0  0  0
    7.3269  -10.0201    0.0000 C   0  0  0  0  0  0  0  0  0  0  0  0
    6.6126  -10.4329    0.0000 C   0  0  0  0  0  0  0  0  0  0  0  0
    5.8980  -10.0207    0.0000 C   0  0  0  0  0  0  0  0  0  0  0  0
    5.8976   -9.1957    0.0000 C   0  0  0  0  0  0  0  0  0  0  0  0
    7.3254   -6.7201    0.0000 N   0  0  0  0  0  0  0  0  0  0  0  0
    8.0397   -6.3072    0.0000 C   0  0  0  0  0  0  0  0  0  0  0  0
    8.0404   -7.9572    0.0000 C   0  0  0  0  0  0  0  0  0  0  0  0
  1  2  1  0  0  0  0
  1  3  1  6  0  0  0
  4  5  1  0  0  0  0
  5  6  2  0  0  0  0
  6  7  1  0  0  0  0
  7  8  2  0  0  0  0
  8  9  1  0  0  0  0
  4  9  2  0  0  0  0
  1  4  1  0  0  0  0
 10 11  1  0  0  0  0
  2 10  1  1  0  0  0
  2 12  1  0  0  0  0
M  END
>  <cdx:fragmentId>
13

$$$$
