70287.cdx
  Mrv1902 05222410282D          

 24 25  0  0  0  0            999 V2000
    8.4536   -5.9505    0.0000 C   0  0  0  0  0  0  0  0  0  0  0  0
    9.1651   -6.3682    0.0000 C   0  0  0  0  0  0  0  0  0  0  0  0
    9.1590   -7.1932    0.0000 C   0  0  2  0  0  0  0  0  0  0  0  0
    8.4415   -7.6004    0.0000 C   0  0  0  0  0  0  0  0  0  0  0  0
    7.7301   -7.1827    0.0000 C   0  0  1  0  0  0  0  0  0  0  0  0
    7.7361   -6.3577    0.0000 C   0  0  0  0  0  0  0  0  0  0  0  0
    7.0126   -7.5899    0.0000 O   0  0  0  0  0  0  0  0  0  0  0  0
    9.8704   -7.6110    0.0000 O   0  0  0  0  0  0  0  0  0  0  0  0
    7.8703   -5.3671    0.0000 O   0  0  0  0  0  0  0  0  0  0  0  0
    8.4354   -8.4254    0.0000 O   0  0  0  0  0  0  0  0  0  0  0  0
    8.8688   -5.2375    0.0000 C   0  0  0  0  0  0  0  0  0  0  0  0
    8.4589   -4.5215    0.0000 O   0  0  0  0  0  0  0  0  0  0  0  0
    9.6938   -5.2406    0.0000 O   0  0  0  0  0  0  0  0  0  0  0  0
    7.7179   -8.8326    0.0000 C   0  0  0  0  0  0  0  0  0  0  0  0
    7.0065   -8.4148    0.0000 O   0  0  0  0  0  0  0  0  0  0  0  0
    7.7118   -9.6576    0.0000 C   0  0  0  0  0  0  0  0  0  0  0  0
    4.1580   -8.3780    0.0000 O   0  0  0  0  0  0  0  0  0  0  0  0
    6.2919   -8.8221    0.0000 C   0  0  0  0  0  0  0  0  0  0  0  0
    5.5837   -8.3991    0.0000 C   0  0  0  0  0  0  0  0  0  0  0  0
    4.8663   -8.8010    0.0000 C   0  0  0  0  0  0  0  0  0  0  0  0
    4.8526   -9.6232    0.0000 C   0  0  0  0  0  0  0  0  0  0  0  0
    5.5609  -10.0462    0.0000 C   0  0  0  0  0  0  0  0  0  0  0  0
    6.2829   -9.6470    0.0000 C   0  0  0  0  0  0  0  0  0  0  0  0
    6.9943  -10.0648    0.0000 C   0  0  0  0  0  0  0  0  0  0  0  0
  1  2  1  0  0  0  0
  2  3  1  0  0  0  0
  3  4  1  0  0  0  0
  4  5  1  0  0  0  0
  5  6  1  0  0  0  0
  1  6  1  0  0  0  0
  4 10  1  0  0  0  0
  5  7  1  6  0  0  0
  3  8  1  1  0  0  0
  1  9  1  0  0  0  0
  1 11  1  0  0  0  0
 11 12  2  0  0  0  0
 11 13  1  0  0  0  0
 10 14  1  0  0  0  0
 14 15  2  0  0  0  0
 14 16  1  0  0  0  0
 20 17  1  0  0  0  0
 16 24  2  0  0  0  0
 18 23  1  0  0  0  0
 19 18  2  0  0  0  0
 20 19  1  0  0  0  0
 21 20  2  0  0  0  0
 22 21  1  0  0  0  0
 23 22  2  0  0  0  0
 24 23  1  0  0  0  0
M  END
>  <cdx:groupId>
257359

>  <cdx:fragmentId>
257318

$$$$
