70280.cdx
  Mrv1902 05222410262D          

 47 54  0  0  0  0            999 V2000
    2.5128  -10.1638    0.0000 C   0  0  1  0  0  0  0  0  0  0  0  0
    2.5206   -9.3388    0.0000 C   0  0  1  0  0  0  0  0  0  0  0  0
    3.2390   -8.9331    0.0000 C   0  0  0  0  0  0  0  0  0  0  0  0
    3.9495   -9.3523    0.0000 O   0  0  0  0  0  0  0  0  0  0  0  0
    3.9417  -10.1773    0.0000 C   0  0  2  0  0  0  0  0  0  0  0  0
    3.2234  -10.5830    0.0000 C   0  0  2  0  0  0  0  0  0  0  0  0
    5.3784   -9.3658    0.0000 C   0  0  0  0  0  0  0  0  0  0  0  0
    5.3706  -10.1908    0.0000 C   0  0  2  0  0  0  0  0  0  0  0  0
    4.6522  -10.5965    0.0000 O   0  0  0  0  0  0  0  0  0  0  0  0
    6.0967   -8.9601    0.0000 C   0  0  0  0  0  0  0  0  0  0  0  0
    6.8073   -9.3793    0.0000 C   0  0  1  0  0  0  0  0  0  0  0  0
    6.7995  -10.2043    0.0000 C   0  0  2  0  0  0  0  0  0  0  0  0
    6.0811  -10.6100    0.0000 C   0  0  0  0  0  0  0  0  0  0  0  0
    7.5256   -8.9736    0.0000 C   0  0  1  0  0  0  0  0  0  0  0  0
    8.2361   -9.3929    0.0000 C   0  0  1  0  0  0  0  0  0  0  0  0
    8.2283  -10.2178    0.0000 C   0  0  0  0  0  0  0  0  0  0  0  0
    7.5100  -10.6235    0.0000 C   0  0  0  0  0  0  0  0  0  0  0  0
    7.5334   -8.1487    0.0000 C   0  0  0  0  0  0  0  0  0  0  0  0
    8.2517   -7.7429    0.0000 C   0  0  0  0  0  0  0  0  0  0  0  0
    8.9623   -8.1622    0.0000 C   0  0  1  0  0  0  0  0  0  0  0  0
    8.9545   -8.9871    0.0000 C   0  0  1  0  0  0  0  0  0  0  0  0
    9.7493   -7.9146    0.0000 C   0  0  2  0  0  0  0  0  0  0  0  0
   10.2279   -8.5866    0.0000 C   0  0  1  0  0  0  0  0  0  0  0  0
    9.7367   -9.2495    0.0000 C   0  0  2  0  0  0  0  0  0  0  0  0
    5.6619  -11.3206    0.0000 C   0  0  0  0  0  0  0  0  0  0  0  0
    6.4869  -11.3284    0.0000 C   0  0  0  0  0  0  0  0  0  0  0  0
    6.7917  -11.0293    0.0000 H   0  0  0  0  0  0  0  0  0  0  0  0
    9.3435   -7.1963    0.0000 H   0  0  0  0  0  0  0  0  0  0  0  0
    6.8151   -8.5544    0.0000 C   0  0  0  0  0  0  0  0  0  0  0  0
    8.9701   -7.3372    0.0000 C   0  0  0  0  0  0  0  0  0  0  0  0
    1.8101   -8.9196    0.0000 O   0  0  0  0  0  0  0  0  0  0  0  0
    3.2156  -11.4080    0.0000 O   0  0  0  0  0  0  0  0  0  0  0  0
    8.9545   -9.8121    0.0000 C   0  0  0  0  0  0  0  0  0  0  0  0
    9.9842  -10.0365    0.0000 O   0  0  0  0  0  0  0  0  0  0  0  0
   11.0516   -8.6314    0.0000 O   0  0  0  0  0  0  0  0  0  0  0  0
   11.6003   -8.0153    0.0000 C   0  0  2  0  0  0  0  0  0  0  0  0
   11.4607   -7.2022    0.0000 C   0  0  1  0  0  0  0  0  0  0  0  0
   10.7379   -6.8044    0.0000 C   0  0  0  0  0  0  0  0  0  0  0  0
    9.9763   -7.1215    0.0000 C   0  0  1  0  0  0  0  0  0  0  0  0
    9.3601   -6.5728    0.0000 C   0  0  0  0  0  0  0  0  0  0  0  0
   12.3935   -8.2423    0.0000 C   0  0  0  0  0  0  0  0  0  0  0  0
    1.7945  -10.5695    0.0000 O   0  0  0  0  0  0  0  0  0  0  0  0
    8.2361   -8.5679    0.0000 H   0  0  0  0  0  0  0  0  0  0  0  0
   10.6402   -7.6866    0.0000 O   0  0  0  0  0  0  0  0  0  0  0  0
   12.1327   -6.7236    0.0000 H   0  0  0  0  0  0  0  0  0  0  0  0
   12.5935   -9.0427    0.0000 C   0  0  0  0  0  0  0  0  0  0  0  0
   12.9866   -7.6689    0.0000 C   0  0  0  0  0  0  0  0  0  0  0  0
  1  2  1  0  0  0  0
  2  3  1  0  0  0  0
  3  4  1  0  0  0  0
  4  5  1  0  0  0  0
  5  6  1  0  0  0  0
  6  1  1  0  0  0  0
  7  8  1  0  0  0  0
  8  9  1  1  0  0  0
  5  9  1  1  0  0  0
  7 10  1  0  0  0  0
 10 11  1  0  0  0  0
 11 12  1  0  0  0  0
 12 13  1  0  0  0  0
 13  8  1  0  0  0  0
 11 14  1  0  0  0  0
 14 15  1  0  0  0  0
 15 16  1  0  0  0  0
 16 17  1  0  0  0  0
 17 12  1  0  0  0  0
 14 18  1  0  0  0  0
 18 19  1  0  0  0  0
 19 20  1  0  0  0  0
 20 21  1  0  0  0  0
 21 15  1  0  0  0  0
 20 22  1  0  0  0  0
 22 23  1  0  0  0  0
 23 24  1  0  0  0  0
 24 21  1  0  0  0  0
 13 25  1  0  0  0  0
 13 26  1  0  0  0  0
 12 27  1  6  0  0  0
 22 28  1  6  0  0  0
 11 29  1  1  0  0  0
 14 29  1  1  0  0  0
 20 30  1  1  0  0  0
  2 31  1  6  0  0  0
  6 32  1  6  0  0  0
 21 33  1  6  0  0  0
 24 34  1  6  0  0  0
 23 35  1  0  0  0  0
 35 36  1  0  0  0  0
 36 37  1  0  0  0  0
 37 38  1  0  0  0  0
 38 39  1  0  0  0  0
 39 22  1  0  0  0  0
 39 40  1  6  0  0  0
 36 41  1  6  0  0  0
  1 42  1  1  0  0  0
 15 43  1  1  0  0  0
 23 44  1  1  0  0  0
 37 45  1  1  0  0  0
 44 37  1  0  0  0  0
 41 46  2  0  0  0  0
 41 47  1  0  0  0  0
M  END
>  <cdx:fragmentId>
5

$$$$
