70286.cdx
  Mrv1902 05222410282D          

 11 12  0  0  0  0            999 V2000
    6.3231   -6.9701    0.0000 C   0  0  0  0  0  0  0  0  0  0  0  0
    6.3231   -7.7951    0.0000 C   0  0  0  0  0  0  0  0  0  0  0  0
    7.0375   -8.2076    0.0000 C   0  0  0  0  0  0  0  0  0  0  0  0
    7.7520   -7.7951    0.0000 C   0  0  0  0  0  0  0  0  0  0  0  0
    7.7520   -6.9701    0.0000 C   0  0  0  0  0  0  0  0  0  0  0  0
    7.0375   -6.5576    0.0000 C   0  0  0  0  0  0  0  0  0  0  0  0
    5.6086   -7.3826    0.0000 C   0  0  0  0  0  0  0  0  0  0  0  0
    8.4665   -6.5576    0.0000 O   0  0  0  0  0  0  0  0  0  0  0  0
    8.4665   -8.2076    0.0000 C   0  0  0  0  0  0  0  0  0  0  0  0
    4.8941   -6.9701    0.0000 C   0  0  0  0  0  0  0  0  0  0  0  0
    4.8941   -7.7951    0.0000 C   0  0  0  0  0  0  0  0  0  0  0  0
  1  2  1  0  0  0  0
  2  3  1  0  0  0  0
  3  4  1  0  0  0  0
  4  5  1  0  0  0  0
  5  6  1  0  0  0  0
  6  1  1  0  0  0  0
  1  7  1  0  0  0  0
  7  2  1  0  0  0  0
  5  8  2  0  0  0  0
  4  9  1  0  0  0  0
  7 10  1  0  0  0  0
  7 11  1  0  0  0  0
M  END
>  <cdx:fragmentId>
5

$$$$
