70285.cdx
  Mrv1902 05222410272D          

 10  9  0  0  0  0            999 V2000
    5.4095   -8.1013    0.0000 C   0  0  0  0  0  0  0  0  0  0  0  0
    4.6950   -8.5138    0.0000 C   0  0  0  0  0  0  0  0  0  0  0  0
    5.4095   -7.2763    0.0000 O   0  0  0  0  0  0  0  0  0  0  0  0
    6.1239   -8.5138    0.0000 O   0  0  0  0  0  0  0  0  0  0  0  0
    6.8384   -8.1013    0.0000 C   0  0  0  0  0  0  0  0  0  0  0  0
    7.5529   -8.5138    0.0000 C   0  0  0  0  0  0  0  0  0  0  0  0
    8.2674   -8.1013    0.0000 C   0  0  0  0  0  0  0  0  0  0  0  0
    8.9818   -8.5138    0.0000 C   0  0  0  0  0  0  0  0  0  0  0  0
    8.9818   -9.3388    0.0000 C   0  0  0  0  0  0  0  0  0  0  0  0
    9.6963   -9.7513    0.0000 C   0  0  0  0  0  0  0  0  0  0  0  0
  1  2  1  0  0  0  0
  1  3  2  0  0  0  0
  1  4  1  0  0  0  0
  5  6  1  0  0  0  0
  6  7  1  0  0  0  0
  7  8  2  0  0  0  0
  8  9  1  0  0  0  0
  9 10  1  0  0  0  0
  4  5  1  0  0  0  0
M  END
>  <cdx:fragmentId>
13

$$$$
