70292.cdx
  Mrv1902 05222410282D          

 25 26  0  0  0  0            999 V2000
    8.5781   -9.1151    0.0000 C   0  0  2  0  0  0  0  0  0  0  0  0
    8.5781   -9.9401    0.0000 C   0  0  2  0  0  0  0  0  0  0  0  0
    9.2925  -10.3526    0.0000 C   0  0  1  0  0  0  0  0  0  0  0  0
   10.0070   -9.9401    0.0000 C   0  0  2  0  0  0  0  0  0  0  0  0
   10.0070   -9.1151    0.0000 C   0  0  1  0  0  0  0  0  0  0  0  0
    9.2925   -8.7026    0.0000 O   0  0  0  0  0  0  0  0  0  0  0  0
   10.7215   -8.7026    0.0000 O   0  0  0  0  0  0  0  0  0  0  0  0
    9.2925  -11.1776    0.0000 O   0  0  0  0  0  0  0  0  0  0  0  0
    7.8636  -10.3526    0.0000 O   0  0  0  0  0  0  0  0  0  0  0  0
   10.7215  -10.3526    0.0000 O   0  0  0  0  0  0  0  0  0  0  0  0
    2.8530  -11.5981    0.0000 C   0  0  0  0  0  0  0  0  0  0  0  0
    3.5676  -11.1859    0.0000 O   0  0  0  0  0  0  0  0  0  0  0  0
    2.1390  -10.3603    0.0000 O   0  0  0  0  0  0  0  0  0  0  0  0
    3.5687   -8.7109    0.0000 C   0  0  0  0  0  0  0  0  0  0  0  0
    2.8541   -9.1231    0.0000 C   0  0  0  0  0  0  0  0  0  0  0  0
    2.8537   -9.9481    0.0000 C   0  0  0  0  0  0  0  0  0  0  0  0
    3.5680  -10.3609    0.0000 C   0  0  0  0  0  0  0  0  0  0  0  0
    4.2826   -9.9487    0.0000 C   0  0  0  0  0  0  0  0  0  0  0  0
    4.2830   -9.1237    0.0000 C   0  0  0  0  0  0  0  0  0  0  0  0
    4.9976   -8.7116    0.0000 C   0  0  0  0  0  0  0  0  0  0  0  0
    5.7119   -9.1244    0.0000 C   0  0  0  0  0  0  0  0  0  0  0  0
    6.4270   -7.8872    0.0000 O   0  0  0  0  0  0  0  0  0  0  0  0
    6.4266   -8.7122    0.0000 C   0  0  0  0  0  0  0  0  0  0  0  0
    7.1491   -9.1151    0.0000 O   0  0  0  0  0  0  0  0  0  0  0  0
    7.8636   -8.7026    0.0000 C   0  0  0  0  0  0  0  0  0  0  0  0
  1  2  1  0  0  0  0
  2  3  1  0  0  0  0
  3  4  1  0  0  0  0
  4  5  1  0  0  0  0
  5  6  1  0  0  0  0
  6  1  1  0  0  0  0
 23 24  1  0  0  0  0
  1 25  1  1  0  0  0
  5  7  1  1  0  0  0
  3  8  1  1  0  0  0
  2  9  1  6  0  0  0
  4 10  1  6  0  0  0
 12 11  1  0  0  0  0
 17 12  1  0  0  0  0
 16 13  1  0  0  0  0
 14 19  1  0  0  0  0
 15 14  2  0  0  0  0
 16 15  1  0  0  0  0
 17 16  2  0  0  0  0
 18 17  1  0  0  0  0
 19 18  2  0  0  0  0
 20 19  1  0  0  0  0
 21 20  2  0  0  0  0
 23 21  1  0  0  0  0
 23 22  2  0  0  0  0
 25 24  1  0  0  0  0
M  END
>  <cdx:fragmentId>
66

$$$$
