70293.cdx
  Mrv1902 05222410282D          

 39 43  0  0  0  0            999 V2000
    5.8405   -8.1859    0.0000 C   0  0  0  0  0  0  0  0  0  0  0  0
    5.8406   -9.0109    0.0000 C   0  0  0  0  0  0  0  0  0  0  0  0
    6.5552   -9.4233    0.0000 C   0  0  0  0  0  0  0  0  0  0  0  0
    7.2696   -9.0107    0.0000 C   0  0  0  0  0  0  0  0  0  0  0  0
    7.2695   -8.1857    0.0000 C   0  0  0  0  0  0  0  0  0  0  0  0
    6.5550   -7.7733    0.0000 C   0  0  0  0  0  0  0  0  0  0  0  0
    7.9839   -7.7731    0.0000 C   0  0  2  0  0  0  0  0  0  0  0  0
    8.7376   -8.1086    0.0000 O   0  0  0  0  0  0  0  0  0  0  0  0
    9.2896   -7.4954    0.0000 C   0  0  0  0  0  0  0  0  0  0  0  0
    8.8770   -6.7810    0.0000 C   0  0  1  0  0  0  0  0  0  0  0  0
    8.0700   -6.9526    0.0000 C   0  0  2  0  0  0  0  0  0  0  0  0
    8.9631   -5.9605    0.0000 C   0  0  2  0  0  0  0  0  0  0  0  0
    8.2094   -5.6250    0.0000 O   0  0  0  0  0  0  0  0  0  0  0  0
    7.6575   -6.2382    0.0000 C   0  0  0  0  0  0  0  0  0  0  0  0
    9.6776   -5.5479    0.0000 C   0  0  0  0  0  0  0  0  0  0  0  0
   10.3921   -5.9603    0.0000 C   0  0  0  0  0  0  0  0  0  0  0  0
   11.1065   -5.5477    0.0000 C   0  0  0  0  0  0  0  0  0  0  0  0
   11.1064   -4.7227    0.0000 C   0  0  0  0  0  0  0  0  0  0  0  0
   10.3919   -4.3103    0.0000 C   0  0  0  0  0  0  0  0  0  0  0  0
    9.6775   -4.7229    0.0000 C   0  0  0  0  0  0  0  0  0  0  0  0
    5.1262   -9.4234    0.0000 O   0  0  0  0  0  0  0  0  0  0  0  0
    6.5553  -10.2483    0.0000 O   0  0  0  0  0  0  0  0  0  0  0  0
    7.2494  -10.6941    0.0000 C   0  0  0  0  0  0  0  0  0  0  0  0
   11.8208   -4.3102    0.0000 O   0  0  0  0  0  0  0  0  0  0  0  0
   11.8210   -5.9602    0.0000 O   0  0  0  0  0  0  0  0  0  0  0  0
   11.7821   -6.7842    0.0000 C   0  0  0  0  0  0  0  0  0  0  0  0
    7.2631   -7.1242    0.0000 H   0  0  0  0  0  0  0  0  0  0  0  0
    9.6839   -6.6094    0.0000 O   0  0  0  0  0  0  0  0  0  0  0  0
    4.4138   -9.0074    0.0000 C   0  0  2  0  0  0  0  0  0  0  0  0
    4.4178   -8.1824    0.0000 O   0  0  0  0  0  0  0  0  0  0  0  0
    3.7054   -7.7664    0.0000 C   0  0  1  0  0  0  0  0  0  0  0  0
    2.9889   -8.1754    0.0000 C   0  0  2  0  0  0  0  0  0  0  0  0
    2.9849   -9.0004    0.0000 C   0  0  1  0  0  0  0  0  0  0  0  0
    3.6973   -9.4164    0.0000 C   0  0  1  0  0  0  0  0  0  0  0  0
    3.7094   -6.9415    0.0000 C   0  0  0  0  0  0  0  0  0  0  0  0
    2.2684   -9.4094    0.0000 O   0  0  0  0  0  0  0  0  0  0  0  0
    3.6932  -10.2414    0.0000 O   0  0  0  0  0  0  0  0  0  0  0  0
    2.2765   -7.7594    0.0000 O   0  0  0  0  0  0  0  0  0  0  0  0
    2.9970   -6.5254    0.0000 O   0  0  0  0  0  0  0  0  0  0  0  0
  1  2  2  0  0  0  0
  2  3  1  0  0  0  0
  3  4  2  0  0  0  0
  4  5  1  0  0  0  0
  5  6  2  0  0  0  0
  6  1  1  0  0  0  0
  7  5  1  1  0  0  0
  7  8  1  0  0  0  0
  8  9  1  0  0  0  0
  9 10  1  0  0  0  0
 10 11  1  0  0  0  0
 11  7  1  0  0  0  0
 10 12  1  0  0  0  0
 12 13  1  0  0  0  0
 13 14  1  0  0  0  0
 14 11  1  0  0  0  0
 12 15  1  6  0  0  0
 15 16  2  0  0  0  0
 16 17  1  0  0  0  0
 17 18  2  0  0  0  0
 18 19  1  0  0  0  0
 19 20  2  0  0  0  0
 20 15  1  0  0  0  0
  2 21  1  0  0  0  0
  3 22  1  0  0  0  0
 22 23  1  0  0  0  0
 18 24  1  0  0  0  0
 17 25  1  0  0  0  0
 25 26  1  0  0  0  0
 11 27  1  6  0  0  0
 10 28  1  6  0  0  0
 29 21  1  1  0  0  0
 29 30  1  0  0  0  0
 30 31  1  0  0  0  0
 31 32  1  0  0  0  0
 32 33  1  0  0  0  0
 33 34  1  0  0  0  0
 34 29  1  0  0  0  0
 31 35  1  1  0  0  0
 33 36  1  1  0  0  0
 34 37  1  6  0  0  0
 32 38  1  6  0  0  0
 35 39  1  0  0  0  0
M  END
>  <cdx:fragmentId>
5

$$$$
