70290.cdx
  Mrv1902 05222410272D          

 57 61  0  0  0  0            999 V2000
    5.6041   -8.8132    0.0000 C   0  0  0  0  0  0  0  0  0  0  0  0
    4.8896   -9.2257    0.0000 C   0  0  0  0  0  0  0  0  0  0  0  0
    4.1751   -8.8132    0.0000 C   0  0  0  0  0  0  0  0  0  0  0  0
    5.6041   -7.9882    0.0000 O   0  0  0  0  0  0  0  0  0  0  0  0
    6.3185   -9.2257    0.0000 O   0  0  0  0  0  0  0  0  0  0  0  0
    3.4606   -9.2257    0.0000 C   0  0  0  0  0  0  0  0  0  0  0  0
    2.7462   -8.8132    0.0000 C   0  0  0  0  0  0  0  0  0  0  0  0
    2.0317   -9.2257    0.0000 C   0  0  0  0  0  0  0  0  0  0  0  0
    2.0317  -10.0507    0.0000 C   0  0  0  0  0  0  0  0  0  0  0  0
    2.7462  -10.4632    0.0000 C   0  0  0  0  0  0  0  0  0  0  0  0
    3.4606  -10.0507    0.0000 C   0  0  0  0  0  0  0  0  0  0  0  0
    1.3172  -10.4632    0.0000 O   0  0  0  0  0  0  0  0  0  0  0  0
    1.3172   -8.8132    0.0000 O   0  0  0  0  0  0  0  0  0  0  0  0
    7.7475   -7.5757    0.0000 O   0  0  0  0  0  0  0  0  0  0  0  0
    7.0330   -7.9882    0.0000 C   0  0  1  0  0  0  0  0  0  0  0  0
    7.0330   -8.8132    0.0000 C   0  0  2  0  0  0  0  0  0  0  0  0
    7.7475   -9.2257    0.0000 C   0  0  1  0  0  0  0  0  0  0  0  0
    8.4619   -8.8132    0.0000 C   0  0  2  0  0  0  0  0  0  0  0  0
    8.4619   -7.9882    0.0000 C   0  0  2  0  0  0  0  0  0  0  0  0
    9.1764   -7.5757    0.0000 O   0  0  0  0  0  0  0  0  0  0  0  0
    9.8909   -7.9882    0.0000 C   0  0  0  0  0  0  0  0  0  0  0  0
   10.6054   -7.5757    0.0000 C   0  0  0  0  0  0  0  0  0  0  0  0
   11.3198   -7.9882    0.0000 C   0  0  0  0  0  0  0  0  0  0  0  0
   12.0343   -7.5757    0.0000 C   0  0  0  0  0  0  0  0  0  0  0  0
   12.7488   -7.9882    0.0000 C   0  0  0  0  0  0  0  0  0  0  0  0
   12.7488   -8.8132    0.0000 C   0  0  0  0  0  0  0  0  0  0  0  0
   12.0343   -9.2257    0.0000 C   0  0  0  0  0  0  0  0  0  0  0  0
   11.3198   -8.8132    0.0000 C   0  0  0  0  0  0  0  0  0  0  0  0
   13.4632   -7.5757    0.0000 O   0  0  0  0  0  0  0  0  0  0  0  0
   14.1777   -7.9882    0.0000 C   0  0  0  0  0  0  0  0  0  0  0  0
   13.4632   -9.2257    0.0000 O   0  0  0  0  0  0  0  0  0  0  0  0
    9.1764   -9.2257    0.0000 O   0  0  0  0  0  0  0  0  0  0  0  0
    7.7475  -10.0507    0.0000 O   0  0  0  0  0  0  0  0  0  0  0  0
    6.3185   -7.5757    0.0000 C   0  0  0  0  0  0  0  0  0  0  0  0
    6.3185   -6.7507    0.0000 O   0  0  0  0  0  0  0  0  0  0  0  0
    5.6041   -5.5132    0.0000 O   0  0  0  0  0  0  0  0  0  0  0  0
    5.6041   -6.3382    0.0000 C   0  0  2  0  0  0  0  0  0  0  0  0
    4.8896   -6.7507    0.0000 C   0  0  1  0  0  0  0  0  0  0  0  0
    4.1751   -6.3382    0.0000 C   0  0  2  0  0  0  0  0  0  0  0  0
    4.1751   -5.5132    0.0000 C   0  0  1  0  0  0  0  0  0  0  0  0
    4.8896   -5.1007    0.0000 C   0  0  1  0  0  0  0  0  0  0  0  0
    3.4606   -6.7507    0.0000 O   0  0  0  0  0  0  0  0  0  0  0  0
    4.8896   -4.2757    0.0000 C   0  0  0  0  0  0  0  0  0  0  0  0
    4.1751   -3.8632    0.0000 O   0  0  0  0  0  0  0  0  0  0  0  0
    3.4606   -5.1007    0.0000 O   0  0  0  0  0  0  0  0  0  0  0  0
    4.8896   -7.5757    0.0000 O   0  0  0  0  0  0  0  0  0  0  0  0
    7.0366  -10.4693    0.0000 C   0  0  2  0  0  0  0  0  0  0  0  0
    6.3186  -10.0630    0.0000 O   0  0  0  0  0  0  0  0  0  0  0  0
    5.6077  -10.4816    0.0000 C   0  0  2  0  0  0  0  0  0  0  0  0
    5.6148  -11.3066    0.0000 C   0  0  1  0  0  0  0  0  0  0  0  0
    6.3328  -11.7129    0.0000 C   0  0  2  0  0  0  0  0  0  0  0  0
    7.0437  -11.2943    0.0000 C   0  0  1  0  0  0  0  0  0  0  0  0
    4.9039  -11.7252    0.0000 O   0  0  0  0  0  0  0  0  0  0  0  0
    6.3399  -12.5379    0.0000 O   0  0  0  0  0  0  0  0  0  0  0  0
    4.8897  -10.0753    0.0000 C   0  0  0  0  0  0  0  0  0  0  0  0
    7.7617  -11.7006    0.0000 O   0  0  0  0  0  0  0  0  0  0  0  0
    0.6028   -9.2257    0.0000 C   0  0  0  0  0  0  0  0  0  0  0  0
  1  2  1  0  0  0  0
  2  3  2  0  0  0  0
  1  4  2  0  0  0  0
  1  5  1  0  0  0  0
  6  7  1  0  0  0  0
  7  8  2  0  0  0  0
  8  9  1  0  0  0  0
  9 10  2  0  0  0  0
 10 11  1  0  0  0  0
  6 11  2  0  0  0  0
  9 12  1  0  0  0  0
  8 13  1  0  0  0  0
  3  6  1  0  0  0  0
 14 15  1  0  0  0  0
 15 16  1  0  0  0  0
 16 17  1  0  0  0  0
 17 18  1  0  0  0  0
 18 19  1  0  0  0  0
 14 19  1  0  0  0  0
 21 22  1  0  0  0  0
 20 21  1  0  0  0  0
 23 24  1  0  0  0  0
 24 25  2  0  0  0  0
 25 26  1  0  0  0  0
 26 27  2  0  0  0  0
 27 28  1  0  0  0  0
 23 28  2  0  0  0  0
 29 30  1  0  0  0  0
 25 29  1  0  0  0  0
 26 31  1  0  0  0  0
 22 23  1  0  0  0  0
 19 20  1  1  0  0  0
 18 32  1  6  0  0  0
 17 33  1  1  0  0  0
 36 37  1  0  0  0  0
 37 38  1  0  0  0  0
 38 39  1  0  0  0  0
 39 40  1  0  0  0  0
 40 41  1  0  0  0  0
 36 41  1  0  0  0  0
 39 42  1  1  0  0  0
 43 44  1  0  0  0  0
 41 43  1  1  0  0  0
 40 45  1  6  0  0  0
 38 46  1  6  0  0  0
 37 35  1  1  0  0  0
 34 35  1  0  0  0  0
 15 34  1  1  0  0  0
 16  5  1  6  0  0  0
 47 33  1  1  0  0  0
 47 48  1  0  0  0  0
 48 49  1  0  0  0  0
 49 50  1  0  0  0  0
 50 51  1  0  0  0  0
 51 52  1  0  0  0  0
 52 47  1  0  0  0  0
 50 53  1  1  0  0  0
 51 54  1  6  0  0  0
 49 55  1  6  0  0  0
 52 56  1  6  0  0  0
 13 57  1  0  0  0  0
M  END
>  <cdx:fragmentId>
197913

$$$$
