70294.cdx
  Mrv1902 05222410262D          

 32 34  0  0  0  0            999 V2000
    7.5060   -8.2225    0.0000 C   0  0  0  0  0  0  0  0  0  0  0  0
    6.7863   -8.6257    0.0000 C   0  0  0  0  0  0  0  0  0  0  0  0
    6.7756   -9.4507    0.0000 C   0  0  0  0  0  0  0  0  0  0  0  0
    7.4847   -9.8723    0.0000 C   0  0  0  0  0  0  0  0  0  0  0  0
    8.2044   -9.4691    0.0000 C   0  0  0  0  0  0  0  0  0  0  0  0
    8.2151   -8.6442    0.0000 C   0  0  0  0  0  0  0  0  0  0  0  0
    9.6439   -8.6626    0.0000 O   0  0  0  0  0  0  0  0  0  0  0  0
    8.9455   -7.4160    0.0000 O   0  0  0  0  0  0  0  0  0  0  0  0
    8.9348   -8.2409    0.0000 C   0  0  0  0  0  0  0  0  0  0  0  0
    6.0559   -9.8539    0.0000 O   0  0  0  0  0  0  0  0  0  0  0  0
    7.4741  -10.6973    0.0000 O   0  0  0  0  0  0  0  0  0  0  0  0
    6.0772   -8.2040    0.0000 O   0  0  0  0  0  0  0  0  0  0  0  0
    5.3398   -9.4441    0.0000 C   0  0  2  0  0  0  0  0  0  0  0  0
    5.3367   -8.6191    0.0000 O   0  0  0  0  0  0  0  0  0  0  0  0
    4.6207   -8.2094    0.0000 C   0  0  0  0  0  0  0  0  0  0  0  0
    3.9078   -8.6246    0.0000 C   0  0  2  0  0  0  0  0  0  0  0  0
    3.9109   -9.4496    0.0000 C   0  0  1  0  0  0  0  0  0  0  0  0
    4.6270   -9.8594    0.0000 C   0  0  1  0  0  0  0  0  0  0  0  0
    3.1980   -9.8648    0.0000 O   0  0  0  0  0  0  0  0  0  0  0  0
    4.6301  -10.6843    0.0000 O   0  0  0  0  0  0  0  0  0  0  0  0
    3.1917   -8.2148    0.0000 O   0  0  0  0  0  0  0  0  0  0  0  0
    8.1831  -11.1190    0.0000 C   0  0  2  0  0  0  0  0  0  0  0  0
    8.1672  -11.9438    0.0000 O   0  0  0  0  0  0  0  0  0  0  0  0
    8.8736  -12.3700    0.0000 C   0  0  1  0  0  0  0  0  0  0  0  0
    9.5959  -11.9714    0.0000 C   0  0  2  0  0  0  0  0  0  0  0  0
    9.5959  -11.1465    0.0000 C   0  0  1  0  0  0  0  0  0  0  0  0
    8.8736  -10.7203    0.0000 C   0  0  1  0  0  0  0  0  0  0  0  0
    8.8577  -13.1949    0.0000 C   0  0  0  0  0  0  0  0  0  0  0  0
   10.3123  -10.7374    0.0000 O   0  0  0  0  0  0  0  0  0  0  0  0
   10.3064  -12.3907    0.0000 O   0  0  0  0  0  0  0  0  0  0  0  0
    8.8775   -9.8953    0.0000 O   0  0  0  0  0  0  0  0  0  0  0  0
    9.5641  -13.6211    0.0000 O   0  0  0  0  0  0  0  0  0  0  0  0
  1  2  2  0  0  0  0
  2  3  1  0  0  0  0
  3  4  2  0  0  0  0
  4  5  1  0  0  0  0
  5  6  2  0  0  0  0
  6  1  1  0  0  0  0
  9  7  1  0  0  0  0
  6  9  1  0  0  0  0
  9  8  2  0  0  0  0
  2 12  1  0  0  0  0
  3 10  1  0  0  0  0
  4 11  1  0  0  0  0
 13 10  1  1  0  0  0
 13 14  1  0  0  0  0
 14 15  1  0  0  0  0
 15 16  1  0  0  0  0
 16 17  1  0  0  0  0
 17 18  1  0  0  0  0
 18 13  1  0  0  0  0
 17 19  1  1  0  0  0
 18 20  1  6  0  0  0
 16 21  1  6  0  0  0
 22 11  1  1  0  0  0
 22 23  1  0  0  0  0
 23 24  1  0  0  0  0
 24 25  1  0  0  0  0
 25 26  1  0  0  0  0
 26 27  1  0  0  0  0
 27 22  1  0  0  0  0
 24 28  1  1  0  0  0
 26 29  1  1  0  0  0
 25 30  1  6  0  0  0
 27 31  1  6  0  0  0
 28 32  1  0  0  0  0
M  END
>  <cdx:fragmentId>
5

$$$$
