70296.cdx
  Mrv1902 05222410262D          

 15 16  0  0  0  0            999 V2000
    5.9197   -7.5339    0.0000 C   0  0  0  0  0  0  0  0  0  0  0  0
    5.9197   -8.3589    0.0000 C   0  0  0  0  0  0  0  0  0  0  0  0
    6.5647   -8.8733    0.0000 C   0  0  0  0  0  0  0  0  0  0  0  0
    7.3690   -8.6897    0.0000 C   0  0  0  0  0  0  0  0  0  0  0  0
    7.7270   -7.9464    0.0000 C   0  0  0  0  0  0  0  0  0  0  0  0
    7.3690   -7.2031    0.0000 C   0  0  0  0  0  0  0  0  0  0  0  0
    6.5647   -7.0195    0.0000 C   0  0  0  0  0  0  0  0  0  0  0  0
    5.1351   -7.2790    0.0000 C   0  0  0  0  0  0  0  0  0  0  0  0
    4.6502   -7.9464    0.0000 C   0  0  0  0  0  0  0  0  0  0  0  0
    5.1351   -8.6138    0.0000 C   0  0  0  0  0  0  0  0  0  0  0  0
    4.8801   -9.3985    0.0000 C   0  0  0  0  0  0  0  0  0  0  0  0
    6.3811   -6.2152    0.0000 C   0  0  0  0  0  0  0  0  0  0  0  0
    8.5520   -7.9464    0.0000 C   0  0  0  0  0  0  0  0  0  0  0  0
    8.9645   -7.2319    0.0000 C   0  0  0  0  0  0  0  0  0  0  0  0
    8.9645   -8.6609    0.0000 C   0  0  0  0  0  0  0  0  0  0  0  0
  1  2  1  0  0  0  0
  2  3  1  0  0  0  0
  3  4  1  0  0  0  0
  4  5  2  0  0  0  0
  5  6  1  0  0  0  0
  6  7  1  0  0  0  0
  7  1  1  0  0  0  0
  1  8  2  0  0  0  0
  8  9  1  0  0  0  0
  9 10  1  0  0  0  0
 10  2  1  0  0  0  0
 10 11  1  0  0  0  0
  7 12  1  0  0  0  0
  5 13  1  0  0  0  0
 13 14  1  0  0  0  0
 13 15  1  0  0  0  0
M  END
>  <cdx:fragmentId>
5

$$$$
