70298.cdx
  Mrv1902 05222410192D          

 10  9  0  0  0  0            999 V2000
    2.7888   -8.1526    0.0000 C   0  0  0  0  0  0  0  0  0  0  0  0
    3.5032   -7.7401    0.0000 C   0  0  0  0  0  0  0  0  0  0  0  0
    4.2177   -8.1526    0.0000 C   0  0  0  0  0  0  0  0  0  0  0  0
    4.9322   -7.7401    0.0000 C   0  0  0  0  0  0  0  0  0  0  0  0
    5.6467   -8.1526    0.0000 C   0  0  0  0  0  0  0  0  0  0  0  0
    6.3611   -7.7401    0.0000 C   0  0  0  0  0  0  0  0  0  0  0  0
    7.0756   -8.1526    0.0000 C   0  0  0  0  0  0  0  0  0  0  0  0
    3.5032   -6.9151    0.0000 C   0  0  0  0  0  0  0  0  0  0  0  0
    5.9486   -7.0257    0.0000 C   0  0  0  0  0  0  0  0  0  0  0  0
    6.7736   -7.0257    0.0000 C   0  0  0  0  0  0  0  0  0  0  0  0
  1  2  1  0  0  0  0
  2  3  1  0  0  0  0
  3  4  1  0  0  0  0
  4  5  1  0  0  0  0
  5  6  1  0  0  0  0
  6  7  1  0  0  0  0
  2  8  1  0  0  0  0
  6  9  1  0  0  0  0
  6 10  1  0  0  0  0
M  END
>  <cdx:fragmentId>
3

$$$$
