70297.cdx
  Mrv1902 05222410262D          

 16 17  0  0  0  0            999 V2000
    4.9847   -7.4926    0.0000 C   0  0  0  0  0  0  0  0  0  0  0  0
    4.9847   -8.3176    0.0000 C   0  0  0  0  0  0  0  0  0  0  0  0
    5.6297   -8.8320    0.0000 C   0  0  0  0  0  0  0  0  0  0  0  0
    6.4340   -8.6484    0.0000 C   0  0  2  0  0  0  0  0  0  0  0  0
    6.7920   -7.9051    0.0000 C   0  0  1  0  0  0  0  0  0  0  0  0
    6.4340   -7.1619    0.0000 C   0  0  0  0  0  0  0  0  0  0  0  0
    5.6297   -6.9783    0.0000 C   0  0  0  0  0  0  0  0  0  0  0  0
    5.4461   -6.1740    0.0000 C   0  0  0  0  0  0  0  0  0  0  0  0
    6.0509   -5.6128    0.0000 C   0  0  0  0  0  0  0  0  0  0  0  0
    4.6578   -5.9308    0.0000 C   0  0  0  0  0  0  0  0  0  0  0  0
    5.4461   -9.6363    0.0000 C   0  0  0  0  0  0  0  0  0  0  0  0
    7.0303   -9.2186    0.0000 C   0  0  0  0  0  0  0  0  0  0  0  0
    7.7568   -8.8276    0.0000 C   0  0  0  0  0  0  0  0  0  0  0  0
    7.6095   -8.0159    0.0000 C   0  0  2  0  0  0  0  0  0  0  0  0
    8.1797   -7.4196    0.0000 O   0  0  0  0  0  0  0  0  0  0  0  0
    8.4064   -8.2294    0.0000 C   0  0  0  0  0  0  0  0  0  0  0  0
  1  2  1  0  0  0  0
  2  3  2  0  0  0  0
  4  3  1  6  0  0  0
  4  5  1  0  0  0  0
  5  6  1  1  0  0  0
  6  7  2  0  0  0  0
  7  1  1  0  0  0  0
  7  8  1  0  0  0  0
  8  9  1  0  0  0  0
  8 10  1  0  0  0  0
  3 11  1  0  0  0  0
  4 12  1  0  0  0  0
 12 13  1  0  0  0  0
 13 14  1  0  0  0  0
 14  5  1  0  0  0  0
 14 15  1  1  0  0  0
 14 16  1  6  0  0  0
M  END
>  <cdx:fragmentId>
5

$$$$
