70302.cdx
  Mrv1902 05222410182D          

 21 20  0  0  0  0            999 V2000
    5.2167  -14.0838    0.0000 C   0  0  0  0  0  0  0  0  0  0  0  0
    5.2178  -13.2588    0.0000 C   0  0  0  0  0  0  0  0  0  0  0  0
    5.9328  -12.8473    0.0000 C   0  0  0  0  0  0  0  0  0  0  0  0
    5.9339  -12.0223    0.0000 C   0  0  0  0  0  0  0  0  0  0  0  0
    6.6489  -11.6107    0.0000 C   0  0  0  0  0  0  0  0  0  0  0  0
    6.6500  -10.7857    0.0000 C   0  0  0  0  0  0  0  0  0  0  0  0
    7.3650  -10.3742    0.0000 C   0  0  0  0  0  0  0  0  0  0  0  0
    7.3661   -9.5492    0.0000 C   0  0  0  0  0  0  0  0  0  0  0  0
    7.7796   -8.8353    0.0000 C   0  0  0  0  0  0  0  0  0  0  0  0
    8.4946   -8.4237    0.0000 C   0  0  0  0  0  0  0  0  0  0  0  0
    8.4957   -7.5987    0.0000 C   0  0  0  0  0  0  0  0  0  0  0  0
    8.4968   -6.7737    0.0000 C   0  0  0  0  0  0  0  0  0  0  0  0
    8.4979   -5.9487    0.0000 C   0  0  0  0  0  0  0  0  0  0  0  0
    7.7839   -5.5353    0.0000 C   0  0  0  0  0  0  0  0  0  0  0  0
    7.7850   -4.7103    0.0000 C   0  0  0  0  0  0  0  0  0  0  0  0
    7.0711   -4.2968    0.0000 C   0  0  0  0  0  0  0  0  0  0  0  0
    7.0722   -3.4718    0.0000 C   0  0  0  0  0  0  0  0  0  0  0  0
    7.7872   -3.0603    0.0000 O   0  0  0  0  0  0  0  0  0  0  0  0
    7.7883   -2.2353    0.0000 C   0  0  0  0  0  0  0  0  0  0  0  0
    8.5033   -1.8237    0.0000 C   0  0  0  0  0  0  0  0  0  0  0  0
    7.0744   -1.8218    0.0000 O   0  0  0  0  0  0  0  0  0  0  0  0
  1  2  1  0  0  0  0
  2  3  1  0  0  0  0
  3  4  1  0  0  0  0
  4  5  1  0  0  0  0
  5  6  1  0  0  0  0
  6  7  1  0  0  0  0
  7  8  1  0  0  0  0
  8  9  2  0  0  0  0
  9 10  1  0  0  0  0
 10 11  1  0  0  0  0
 11 12  3  0  0  0  0
 12 13  1  0  0  0  0
 13 14  2  0  0  0  0
 14 15  1  0  0  0  0
 15 16  2  0  0  0  0
 16 17  1  0  0  0  0
 17 18  1  0  0  0  0
 18 19  1  0  0  0  0
 19 20  1  0  0  0  0
 19 21  2  0  0  0  0
M  END
>  <cdx:fragmentId>
3

$$$$
