7030.cdx
  Mrv1902 05222410202D          

 37 40  0  0  0  0            999 V2000
    6.1289   -8.0850    0.0000 C   0  0  0  0  0  0  0  0  0  0  0  0
    6.1289   -8.9100    0.0000 C   0  0  0  0  0  0  0  0  0  0  0  0
    6.8434   -9.3225    0.0000 C   0  0  0  0  0  0  0  0  0  0  0  0
    7.5578   -8.9100    0.0000 C   0  0  0  0  0  0  0  0  0  0  0  0
    7.5578   -8.0850    0.0000 C   0  0  0  0  0  0  0  0  0  0  0  0
    6.8434   -7.6725    0.0000 C   0  0  0  0  0  0  0  0  0  0  0  0
    8.2723   -9.3225    0.0000 C   0  0  0  0  0  0  0  0  0  0  0  0
    8.9868   -8.9100    0.0000 C   0  0  0  0  0  0  0  0  0  0  0  0
    8.9868   -8.0850    0.0000 C   0  0  0  0  0  0  0  0  0  0  0  0
    8.2723   -7.6725    0.0000 O   0  0  0  0  0  0  0  0  0  0  0  0
    9.7013   -7.6725    0.0000 C   0  0  0  0  0  0  0  0  0  0  0  0
    9.7013   -6.8475    0.0000 C   0  0  0  0  0  0  0  0  0  0  0  0
   10.4157   -8.0850    0.0000 C   0  0  0  0  0  0  0  0  0  0  0  0
   11.1302   -7.6725    0.0000 C   0  0  0  0  0  0  0  0  0  0  0  0
   11.1302   -6.8475    0.0000 C   0  0  0  0  0  0  0  0  0  0  0  0
   10.4157   -6.4350    0.0000 C   0  0  0  0  0  0  0  0  0  0  0  0
    5.4144   -7.6725    0.0000 O   0  0  0  0  0  0  0  0  0  0  0  0
    6.8434  -10.1475    0.0000 O   0  0  0  0  0  0  0  0  0  0  0  0
    9.7013   -9.3225    0.0000 O   0  0  0  0  0  0  0  0  0  0  0  0
   10.4157   -9.7350    0.0000 C   0  0  0  0  0  0  0  0  0  0  0  0
    8.2723  -10.1475    0.0000 O   0  0  0  0  0  0  0  0  0  0  0  0
   10.4157   -5.6100    0.0000 O   0  0  0  0  0  0  0  0  0  0  0  0
   11.8447   -6.4350    0.0000 O   0  0  0  0  0  0  0  0  0  0  0  0
    6.8434   -6.8475    0.0000 C   0  0  0  0  0  0  0  0  0  0  0  0
    4.7000   -8.0850    0.0000 C   0  0  2  0  0  0  0  0  0  0  0  0
    3.9855   -7.6725    0.0000 O   0  0  0  0  0  0  0  0  0  0  0  0
    3.2710   -8.0850    0.0000 C   0  0  1  0  0  0  0  0  0  0  0  0
    3.2710   -8.9100    0.0000 C   0  0  2  0  0  0  0  0  0  0  0  0
    3.9855   -9.3225    0.0000 C   0  0  1  0  0  0  0  0  0  0  0  0
    4.7000   -8.9100    0.0000 C   0  0  1  0  0  0  0  0  0  0  0  0
    2.5565   -7.6725    0.0000 C   0  0  0  0  0  0  0  0  0  0  0  0
    3.9855  -10.1475    0.0000 O   0  0  0  0  0  0  0  0  0  0  0  0
    1.8421   -8.0850    0.0000 O   0  0  0  0  0  0  0  0  0  0  0  0
    5.4144   -9.3225    0.0000 O   0  0  0  0  0  0  0  0  0  0  0  0
    2.5565   -9.3225    0.0000 O   0  0  0  0  0  0  0  0  0  0  0  0
   10.4157   -4.7850    0.0000 C   0  0  0  0  0  0  0  0  0  0  0  0
   12.5591   -6.0225    0.0000 C   0  0  0  0  0  0  0  0  0  0  0  0
  1  2  2  0  0  0  0
  2  3  1  0  0  0  0
  3  4  2  0  0  0  0
  4  5  1  0  0  0  0
  5  6  2  0  0  0  0
  6  1  1  0  0  0  0
  4  7  1  0  0  0  0
  7  8  1  0  0  0  0
  8  9  2  0  0  0  0
  9 10  1  0  0  0  0
 10  5  1  0  0  0  0
  9 11  1  0  0  0  0
 11 12  1  0  0  0  0
 11 13  2  0  0  0  0
 13 14  1  0  0  0  0
 14 15  2  0  0  0  0
 15 16  1  0  0  0  0
 16 12  2  0  0  0  0
  1 17  1  0  0  0  0
  3 18  1  0  0  0  0
  8 19  1  0  0  0  0
  7 21  2  0  0  0  0
 16 22  1  0  0  0  0
 15 23  1  0  0  0  0
  6 24  1  0  0  0  0
 25 17  1  1  0  0  0
 25 26  1  0  0  0  0
 26 27  1  0  0  0  0
 27 28  1  0  0  0  0
 28 29  1  0  0  0  0
 29 30  1  0  0  0  0
 30 25  1  0  0  0  0
 27 31  1  1  0  0  0
 29 32  1  1  0  0  0
 31 33  1  0  0  0  0
 30 34  1  6  0  0  0
 28 35  1  6  0  0  0
 19 20  1  0  0  0  0
 22 36  1  0  0  0  0
 23 37  1  0  0  0  0
M  STY  3   1 SUP   2 SUP   3 SUP
M  SAL   1  2  19  20
M  SBL   1  1  21
M  SMT   1 OCH3
M  SAP   1  1  19   8  1
M  SAL   2  2  22  36
M  SBL   2  1  23
M  SMT   2 OCH3
M  SAP   2  1  22  16  1
M  SAL   3  2  23  37
M  SBL   3  1  24
M  SMT   3 OCH3
M  SAP   3  1  23  15  1
M  END
>  <cdx:fragmentId>
5

$$$$
