70304.cdx
  Mrv1902 05222410202D          

 16 17  0  0  0  0            999 V2000
    4.3568   -9.9264    0.0000 C   0  0  0  0  0  0  0  0  0  0  0  0
    4.3568  -10.7514    0.0000 C   0  0  0  0  0  0  0  0  0  0  0  0
    5.0713  -11.1639    0.0000 C   0  0  0  0  0  0  0  0  0  0  0  0
    5.7857  -10.7514    0.0000 C   0  0  0  0  0  0  0  0  0  0  0  0
    5.7857   -9.9264    0.0000 C   0  0  0  0  0  0  0  0  0  0  0  0
    5.0713   -9.5139    0.0000 C   0  0  0  0  0  0  0  0  0  0  0  0
    6.5704  -11.0063    0.0000 C   0  0  0  0  0  0  0  0  0  0  0  0
    7.0553  -10.3389    0.0000 O   0  0  0  0  0  0  0  0  0  0  0  0
    6.5704   -9.6715    0.0000 C   0  0  0  0  0  0  0  0  0  0  0  0
    6.8253  -11.7910    0.0000 O   0  0  0  0  0  0  0  0  0  0  0  0
    6.8253   -8.8868    0.0000 C   0  0  0  0  0  0  0  0  0  0  0  0
    3.6423  -11.1639    0.0000 O   0  0  0  0  0  0  0  0  0  0  0  0
    3.6423   -9.5139    0.0000 O   0  0  0  0  0  0  0  0  0  0  0  0
    6.2574   -8.2884    0.0000 C   0  0  0  0  0  0  0  0  0  0  0  0
    6.4917   -7.4974    0.0000 C   0  0  0  0  0  0  0  0  0  0  0  0
    5.9238   -6.8989    0.0000 C   0  0  0  0  0  0  0  0  0  0  0  0
  1  2  1  0  0  0  0
  2  3  2  0  0  0  0
  3  4  1  0  0  0  0
  4  5  2  0  0  0  0
  5  6  1  0  0  0  0
  6  1  1  0  0  0  0
  4  7  1  0  0  0  0
  7  8  1  0  0  0  0
  8  9  1  0  0  0  0
  9  5  1  0  0  0  0
  7 10  2  0  0  0  0
  9 11  2  0  0  0  0
  2 12  1  0  0  0  0
  1 13  1  0  0  0  0
 11 14  1  0  0  0  0
 14 15  1  0  0  0  0
 15 16  1  0  0  0  0
M  END
>  <cdx:fragmentId>
5

$$$$
