70309.cdx
  Mrv1902 05222410262D          

 42 43  0  0  0  0            999 V2000
    2.1954  -15.9853    0.0000 O   0  0  0  0  0  0  0  0  0  0  0  0
    1.0102  -13.2326    0.0000 C   0  0  0  0  0  0  0  0  0  0  0  0
   12.4015   -5.1774    0.0000 C   0  0  0  0  0  0  0  0  0  0  0  0
   11.5421   -5.1747    0.0000 C   0  0  0  0  0  0  0  0  0  0  0  0
    0.6129  -13.9556    0.0000 C   0  0  0  0  0  0  0  0  0  0  0  0
    3.5719  -13.4807    0.0000 C   0  0  0  0  0  0  0  0  0  0  0  0
    1.4377  -13.9383    0.0000 C   0  0  0  0  0  0  0  0  0  0  0  0
    1.4551  -14.7631    0.0000 C   0  0  0  0  0  0  0  0  0  0  0  0
    2.1781  -15.1604    0.0000 C   0  0  1  0  0  0  0  0  0  0  0  0
    2.8837  -14.7330    0.0000 C   0  0  0  0  0  0  0  0  0  0  0  0
    2.8663  -13.9082    0.0000 C   0  0  0  0  0  0  0  0  0  0  0  0
    2.0912  -11.0364    0.0000 C   0  0  0  0  0  0  0  0  0  0  0  0
    3.4676   -8.5318    0.0000 C   0  0  0  0  0  0  0  0  0  0  0  0
    2.1433  -13.5108    0.0000 C   0  0  0  0  0  0  0  0  0  0  0  0
    2.1259  -12.6860    0.0000 C   0  0  0  0  0  0  0  0  0  0  0  0
    2.8315  -12.2585    0.0000 C   0  0  0  0  0  0  0  0  0  0  0  0
    2.8142  -11.4337    0.0000 C   0  0  0  0  0  0  0  0  0  0  0  0
    3.5198  -11.0063    0.0000 C   0  0  0  0  0  0  0  0  0  0  0  0
    3.5024  -10.1814    0.0000 C   0  0  0  0  0  0  0  0  0  0  0  0
    4.2080   -9.7540    0.0000 C   0  0  0  0  0  0  0  0  0  0  0  0
    4.1906   -8.9292    0.0000 C   0  0  0  0  0  0  0  0  0  0  0  0
    4.8963   -8.5017    0.0000 C   0  0  0  0  0  0  0  0  0  0  0  0
    4.8789   -7.6769    0.0000 C   0  0  0  0  0  0  0  0  0  0  0  0
    5.5845   -7.2494    0.0000 C   0  0  0  0  0  0  0  0  0  0  0  0
    6.2211   -5.1325    0.0000 C   0  0  0  0  0  0  0  0  0  0  0  0
    9.0787   -5.0905    0.0000 C   0  0  0  0  0  0  0  0  0  0  0  0
    5.5249   -6.3804    0.0000 C   0  0  0  0  0  0  0  0  0  0  0  0
    6.2332   -5.9574    0.0000 C   0  0  0  0  0  0  0  0  0  0  0  0
    6.9537   -6.3594    0.0000 C   0  0  0  0  0  0  0  0  0  0  0  0
    7.6620   -5.9364    0.0000 C   0  0  0  0  0  0  0  0  0  0  0  0
    8.3825   -6.3383    0.0000 C   0  0  0  0  0  0  0  0  0  0  0  0
    9.0908   -5.9154    0.0000 C   0  0  0  0  0  0  0  0  0  0  0  0
    9.8113   -6.3173    0.0000 C   0  0  0  0  0  0  0  0  0  0  0  0
   10.5196   -5.8944    0.0000 C   0  0  0  0  0  0  0  0  0  0  0  0
   10.5757   -7.5600    0.0000 C   0  0  0  0  0  0  0  0  0  0  0  0
   13.4330   -7.4998    0.0000 O   0  0  0  0  0  0  0  0  0  0  0  0
   11.2640   -6.3078    0.0000 C   0  0  0  0  0  0  0  0  0  0  0  0
   11.2814   -7.1326    0.0000 C   0  0  0  0  0  0  0  0  0  0  0  0
   12.0044   -7.5299    0.0000 C   0  0  0  0  0  0  0  0  0  0  0  0
   12.7100   -7.1025    0.0000 C   0  0  2  0  0  0  0  0  0  0  0  0
   12.6926   -6.2777    0.0000 C   0  0  0  0  0  0  0  0  0  0  0  0
   11.9696   -5.8803    0.0000 C   0  0  0  0  0  0  0  0  0  0  0  0
  9  1  1  1  0  0  0
  7  2  1  0  0  0  0
 42  3  1  0  0  0  0
 42  4  1  0  0  0  0
  7  5  1  0  0  0  0
 11  6  1  0  0  0  0
  7 14  1  0  0  0  0
  8  7  1  0  0  0  0
  9  8  1  0  0  0  0
 10  9  1  0  0  0  0
 11 10  1  0  0  0  0
 14 11  2  0  0  0  0
 17 12  1  0  0  0  0
 21 13  1  0  0  0  0
 24 27  1  0  0  0  0
 15 14  1  0  0  0  0
 16 15  2  0  0  0  0
 17 16  1  0  0  0  0
 18 17  2  0  0  0  0
 19 18  1  0  0  0  0
 20 19  2  0  0  0  0
 21 20  1  0  0  0  0
 22 21  2  0  0  0  0
 23 22  1  0  0  0  0
 24 23  2  0  0  0  0
 28 25  1  0  0  0  0
 32 26  1  0  0  0  0
 34 37  1  0  0  0  0
 28 27  2  0  0  0  0
 29 28  1  0  0  0  0
 30 29  2  0  0  0  0
 31 30  1  0  0  0  0
 32 31  2  0  0  0  0
 33 32  1  0  0  0  0
 34 33  2  0  0  0  0
 38 35  1  0  0  0  0
 40 36  1  6  0  0  0
 37 42  1  0  0  0  0
 38 37  2  0  0  0  0
 39 38  1  0  0  0  0
 40 39  1  0  0  0  0
 41 40  1  0  0  0  0
 42 41  1  0  0  0  0
M  END
>  <cdx:fragmentId>
5

$$$$
