70307.cdx
  Mrv1902 05222410192D          

 36 37  0  0  0  0            999 V2000
    4.3725  -10.1200    0.0000 O   0  0  0  0  0  0  0  0  0  0  0  0
    5.0870   -9.7075    0.0000 C   0  0  0  0  0  0  0  0  0  0  0  0
    5.8014  -10.1200    0.0000 C   0  0  0  0  0  0  0  0  0  0  0  0
    6.5159   -9.7075    0.0000 C   0  0  2  0  0  0  0  0  0  0  0  0
    5.8014  -10.9450    0.0000 O   0  0  0  0  0  0  0  0  0  0  0  0
    7.2304  -10.1200    0.0000 C   0  0  1  0  0  0  0  0  0  0  0  0
    6.5159   -8.8825    0.0000 O   0  0  0  0  0  0  0  0  0  0  0  0
    7.9449   -9.7075    0.0000 C   0  0  1  0  0  0  0  0  0  0  0  0
    7.2304  -10.9450    0.0000 O   0  0  0  0  0  0  0  0  0  0  0  0
    8.6593  -10.1200    0.0000 C   0  0  1  0  0  0  0  0  0  0  0  0
    7.9449   -8.8825    0.0000 O   0  0  0  0  0  0  0  0  0  0  0  0
    9.3738   -9.7075    0.0000 C   0  0  0  0  0  0  0  0  0  0  0  0
    8.6593  -10.9450    0.0000 O   0  0  0  0  0  0  0  0  0  0  0  0
   10.0883  -10.1200    0.0000 O   0  0  0  0  0  0  0  0  0  0  0  0
    3.6580   -9.7075    0.0000 C   0  0  0  0  0  0  0  0  0  0  0  0
    2.9436  -10.1200    0.0000 C   0  0  0  0  0  0  0  0  0  0  0  0
    3.6580   -8.8825    0.0000 O   0  0  0  0  0  0  0  0  0  0  0  0
    2.2291   -9.7075    0.0000 C   0  0  0  0  0  0  0  0  0  0  0  0
    1.5146  -10.1200    0.0000 C   0  0  0  0  0  0  0  0  0  0  0  0
    1.5146  -10.9450    0.0000 C   0  0  0  0  0  0  0  0  0  0  0  0
    2.2291  -11.3575    0.0000 C   0  0  0  0  0  0  0  0  0  0  0  0
    2.9436  -10.9450    0.0000 C   0  0  0  0  0  0  0  0  0  0  0  0
    0.8001   -9.7075    0.0000 O   0  0  0  0  0  0  0  0  0  0  0  0
    0.8001  -11.3575    0.0000 O   0  0  0  0  0  0  0  0  0  0  0  0
    2.2291  -12.1825    0.0000 O   0  0  0  0  0  0  0  0  0  0  0  0
   10.8027   -9.7075    0.0000 C   0  0  0  0  0  0  0  0  0  0  0  0
   11.5172  -10.1200    0.0000 C   0  0  0  0  0  0  0  0  0  0  0  0
   10.8027   -8.8825    0.0000 O   0  0  0  0  0  0  0  0  0  0  0  0
   11.5172  -10.9450    0.0000 C   0  0  0  0  0  0  0  0  0  0  0  0
   12.2317  -11.3575    0.0000 C   0  0  0  0  0  0  0  0  0  0  0  0
   12.9462  -10.9450    0.0000 C   0  0  0  0  0  0  0  0  0  0  0  0
   12.9462  -10.1200    0.0000 C   0  0  0  0  0  0  0  0  0  0  0  0
   12.2317   -9.7075    0.0000 C   0  0  0  0  0  0  0  0  0  0  0  0
   13.6606   -9.7075    0.0000 O   0  0  0  0  0  0  0  0  0  0  0  0
   13.6606  -11.3575    0.0000 O   0  0  0  0  0  0  0  0  0  0  0  0
   12.2317  -12.1825    0.0000 O   0  0  0  0  0  0  0  0  0  0  0  0
  1  2  1  0  0  0  0
  2  3  1  0  0  0  0
  3  4  1  0  0  0  0
  3  5  2  0  0  0  0
  4  6  1  0  0  0  0
  4  7  1  1  0  0  0
  6  8  1  0  0  0  0
  6  9  1  1  0  0  0
  8 10  1  0  0  0  0
  8 11  1  6  0  0  0
 10 12  1  0  0  0  0
 10 13  1  1  0  0  0
 12 14  1  0  0  0  0
  1 15  1  0  0  0  0
 15 16  1  0  0  0  0
 15 17  2  0  0  0  0
 16 18  2  0  0  0  0
 18 19  1  0  0  0  0
 19 20  2  0  0  0  0
 20 21  1  0  0  0  0
 21 22  2  0  0  0  0
 22 16  1  0  0  0  0
 19 23  1  0  0  0  0
 20 24  1  0  0  0  0
 21 25  1  0  0  0  0
 14 26  1  0  0  0  0
 26 27  1  0  0  0  0
 26 28  2  0  0  0  0
 27 29  2  0  0  0  0
 29 30  1  0  0  0  0
 30 31  2  0  0  0  0
 31 32  1  0  0  0  0
 32 33  2  0  0  0  0
 33 27  1  0  0  0  0
 32 34  1  0  0  0  0
 31 35  1  0  0  0  0
 30 36  1  0  0  0  0
M  END
>  <cdx:fragmentId>
134

$$$$
