70303.cdx
  Mrv1902 05222410192D          

 26 25  0  0  0  0            999 V2000
    5.5976  -15.6665    0.0000 C   0  0  0  0  0  0  0  0  0  0  0  0
    6.3106  -15.2515    0.0000 C   0  0  0  0  0  0  0  0  0  0  0  0
    6.3076  -14.4265    0.0000 C   0  0  0  0  0  0  0  0  0  0  0  0
    7.0206  -14.0114    0.0000 C   0  0  0  0  0  0  0  0  0  0  0  0
    7.0176  -13.1864    0.0000 C   0  0  0  0  0  0  0  0  0  0  0  0
    7.7306  -12.7714    0.0000 C   0  0  0  0  0  0  0  0  0  0  0  0
    7.7277  -11.9464    0.0000 C   0  0  0  0  0  0  0  0  0  0  0  0
    8.4407  -11.5313    0.0000 C   0  0  0  0  0  0  0  0  0  0  0  0
    8.4377  -10.7063    0.0000 C   0  0  0  0  0  0  0  0  0  0  0  0
    8.8476   -9.9904    0.0000 C   0  0  0  0  0  0  0  0  0  0  0  0
    9.5606   -9.5753    0.0000 C   0  0  0  0  0  0  0  0  0  0  0  0
    9.5577   -8.7503    0.0000 C   0  0  0  0  0  0  0  0  0  0  0  0
    9.5547   -7.9253    0.0000 C   0  0  0  0  0  0  0  0  0  0  0  0
    9.5518   -7.1003    0.0000 C   0  0  0  0  0  0  0  0  0  0  0  0
    8.8358   -6.6904    0.0000 C   0  0  0  0  0  0  0  0  0  0  0  0
    8.8329   -5.8654    0.0000 C   0  0  0  0  0  0  0  0  0  0  0  0
    8.1169   -5.4555    0.0000 C   0  0  0  0  0  0  0  0  0  0  0  0
    8.1140   -4.6305    0.0000 C   0  0  0  0  0  0  0  0  0  0  0  0
    8.8270   -4.2154    0.0000 O   0  0  0  0  0  0  0  0  0  0  0  0
    8.8240   -3.3904    0.0000 C   0  0  0  0  0  0  0  0  0  0  0  0
    9.5370   -2.9754    0.0000 C   0  0  0  0  0  0  0  0  0  0  0  0
    8.1081   -2.9805    0.0000 O   0  0  0  0  0  0  0  0  0  0  0  0
    5.5976  -16.4915    0.0000 O   0  0  0  0  0  0  0  0  0  0  0  0
    4.8831  -16.9040    0.0000 C   0  0  0  0  0  0  0  0  0  0  0  0
    4.8831  -17.7290    0.0000 C   0  0  0  0  0  0  0  0  0  0  0  0
    4.1686  -16.4915    0.0000 O   0  0  0  0  0  0  0  0  0  0  0  0
  1  2  1  0  0  0  0
  2  3  1  0  0  0  0
  3  4  1  0  0  0  0
  4  5  1  0  0  0  0
  5  6  1  0  0  0  0
  6  7  1  0  0  0  0
  7  8  1  0  0  0  0
  8  9  1  0  0  0  0
  9 10  2  0  0  0  0
 10 11  1  0  0  0  0
 11 12  1  0  0  0  0
 12 13  3  0  0  0  0
 13 14  1  0  0  0  0
 14 15  2  0  0  0  0
 15 16  1  0  0  0  0
 16 17  2  0  0  0  0
 17 18  1  0  0  0  0
 18 19  1  0  0  0  0
 19 20  1  0  0  0  0
 20 21  1  0  0  0  0
 20 22  2  0  0  0  0
  1 23  1  0  0  0  0
 23 24  1  0  0  0  0
 24 25  1  0  0  0  0
 24 26  2  0  0  0  0
M  END
>  <cdx:fragmentId>
3

$$$$
