70306.cdx
  Mrv1902 05222410192D          

 36 38  0  0  0  0            999 V2000
    4.0675   -9.3901    0.0000 C   0  0  0  0  0  0  0  0  0  0  0  0
    6.2109   -5.6776    0.0000 O   0  0  0  0  0  0  0  0  0  0  0  0
    7.6399   -6.5026    0.0000 O   0  0  0  0  0  0  0  0  0  0  0  0
    7.6399   -8.1526    0.0000 O   0  0  0  0  0  0  0  0  0  0  0  0
    6.2109   -8.1526    0.0000 C   0  0  0  0  0  0  0  0  0  0  0  0
    6.9254   -7.7401    0.0000 C   0  0  0  0  0  0  0  0  0  0  0  0
    6.9254   -6.9151    0.0000 C   0  0  0  0  0  0  0  0  0  0  0  0
    6.2109   -6.5026    0.0000 C   0  0  0  0  0  0  0  0  0  0  0  0
    5.4965   -6.9151    0.0000 C   0  0  0  0  0  0  0  0  0  0  0  0
    4.0675   -7.7401    0.0000 O   0  0  0  0  0  0  0  0  0  0  0  0
    5.4965   -7.7401    0.0000 C   0  0  0  0  0  0  0  0  0  0  0  0
    4.7820   -8.1526    0.0000 C   0  0  0  0  0  0  0  0  0  0  0  0
    4.7820   -8.9776    0.0000 O   0  0  0  0  0  0  0  0  0  0  0  0
    4.0675  -10.2151    0.0000 C   0  0  2  0  0  0  0  0  0  0  0  0
    3.3531  -10.6276    0.0000 C   0  0  2  0  0  0  0  0  0  0  0  0
    3.3531  -11.4526    0.0000 C   0  0  1  0  0  0  0  0  0  0  0  0
    4.0675  -11.8651    0.0000 C   0  0  2  0  0  0  0  0  0  0  0  0
    4.7820  -11.4526    0.0000 C   0  0  1  0  0  0  0  0  0  0  0  0
    4.7820  -10.6276    0.0000 O   0  0  0  0  0  0  0  0  0  0  0  0
    4.0675  -12.6901    0.0000 O   0  0  0  0  0  0  0  0  0  0  0  0
    2.6386  -10.2151    0.0000 O   0  0  0  0  0  0  0  0  0  0  0  0
    2.6386  -11.8651    0.0000 O   0  0  0  0  0  0  0  0  0  0  0  0
    5.5789  -11.2391    0.0000 O   0  0  0  0  0  0  0  0  0  0  0  0
    5.1945  -12.1671    0.0000 C   0  0  0  0  0  0  0  0  0  0  0  0
    6.0195  -12.1671    0.0000 O   0  0  0  0  0  0  0  0  0  0  0  0
    6.4320  -12.8816    0.0000 C   0  0  0  0  0  0  0  0  0  0  0  0
    7.2570  -12.8816    0.0000 C   0  0  0  0  0  0  0  0  0  0  0  0
    6.0195  -13.5961    0.0000 O   0  0  0  0  0  0  0  0  0  0  0  0
    7.6695  -13.5961    0.0000 C   0  0  0  0  0  0  0  0  0  0  0  0
    8.4945  -13.5961    0.0000 C   0  0  0  0  0  0  0  0  0  0  0  0
    8.9070  -12.8816    0.0000 C   0  0  0  0  0  0  0  0  0  0  0  0
    8.4945  -12.1671    0.0000 C   0  0  0  0  0  0  0  0  0  0  0  0
    7.6695  -12.1671    0.0000 C   0  0  0  0  0  0  0  0  0  0  0  0
    8.9070  -11.4526    0.0000 O   0  0  0  0  0  0  0  0  0  0  0  0
    9.7320  -12.8816    0.0000 O   0  0  0  0  0  0  0  0  0  0  0  0
    8.9070  -14.3105    0.0000 O   0  0  0  0  0  0  0  0  0  0  0  0
  8  2  1  0  0  0  0
  1 13  1  0  0  0  0
  7  3  1  0  0  0  0
  6  4  1  0  0  0  0
  5 11  1  0  0  0  0
  6  5  2  0  0  0  0
  7  6  1  0  0  0  0
  8  7  2  0  0  0  0
  9  8  1  0  0  0  0
 11  9  2  0  0  0  0
 12 10  2  0  0  0  0
 12 11  1  0  0  0  0
 13 12  1  0  0  0  0
 14  1  1  1  0  0  0
 14 15  1  0  0  0  0
 15 16  1  0  0  0  0
 16 17  1  0  0  0  0
 17 18  1  0  0  0  0
 18 19  1  0  0  0  0
 19 14  1  0  0  0  0
 17 20  1  6  0  0  0
 15 21  1  6  0  0  0
 16 22  1  1  0  0  0
 18 23  1  1  0  0  0
 18 24  1  0  0  0  0
 24 25  1  0  0  0  0
 25 26  1  0  0  0  0
 26 27  1  0  0  0  0
 26 28  2  0  0  0  0
 27 29  2  0  0  0  0
 29 30  1  0  0  0  0
 30 31  2  0  0  0  0
 31 32  1  0  0  0  0
 32 33  2  0  0  0  0
 33 27  1  0  0  0  0
 32 34  1  0  0  0  0
 31 35  1  0  0  0  0
 30 36  1  0  0  0  0
M  END
>  <cdx:fragmentId>
3

$$$$
