70310.cdx
  Mrv1902 05222410202D          

 42 43  0  0  0  0            999 V2000
    1.6449  -16.6950    0.0000 O   0  0  0  0  0  0  0  0  0  0  0  0
    0.5167  -13.9186    0.0000 C   0  0  0  0  0  0  0  0  0  0  0  0
   12.7982   -7.3324    0.0000 C   0  0  0  0  0  0  0  0  0  0  0  0
   11.9730   -7.3431    0.0000 C   0  0  0  0  0  0  0  0  0  0  0  0
    0.1045  -14.6332    0.0000 C   0  0  0  0  0  0  0  0  0  0  0  0
    3.0727  -14.2193    0.0000 C   0  0  0  0  0  0  0  0  0  0  0  0
    0.9295  -14.6328    0.0000 C   0  0  0  0  0  0  0  0  0  0  0  0
    0.9299  -15.4578    0.0000 C   0  0  0  0  0  0  0  0  0  0  0  0
    1.6446  -15.8700    0.0000 C   0  0  1  0  0  0  0  0  0  0  0  0
    2.3588  -15.4572    0.0000 C   0  0  0  0  0  0  0  0  0  0  0  0
    2.3585  -14.6322    0.0000 C   0  0  0  0  0  0  0  0  0  0  0  0
    1.6427  -11.7450    0.0000 C   0  0  0  0  0  0  0  0  0  0  0  0
    3.0705   -9.2693    0.0000 C   0  0  0  0  0  0  0  0  0  0  0  0
    1.6438  -14.2200    0.0000 C   0  0  0  0  0  0  0  0  0  0  0  0
    1.6434  -13.3950    0.0000 C   0  0  0  0  0  0  0  0  0  0  0  0
    2.3577  -12.9822    0.0000 C   0  0  0  0  0  0  0  0  0  0  0  0
    2.3573  -12.1572    0.0000 C   0  0  0  0  0  0  0  0  0  0  0  0
    3.0716  -11.7443    0.0000 C   0  0  0  0  0  0  0  0  0  0  0  0
    3.0712  -10.9193    0.0000 C   0  0  0  0  0  0  0  0  0  0  0  0
    3.7855  -10.5065    0.0000 C   0  0  0  0  0  0  0  0  0  0  0  0
    3.7851   -9.6815    0.0000 C   0  0  0  0  0  0  0  0  0  0  0  0
    4.4994   -9.2687    0.0000 C   0  0  0  0  0  0  0  0  0  0  0  0
    4.4990   -8.4437    0.0000 C   0  0  0  0  0  0  0  0  0  0  0  0
    9.5102   -7.2395    0.0000 C   0  0  0  0  0  0  0  0  0  0  0  0
    8.0870   -8.0742    0.0000 C   0  0  0  0  0  0  0  0  0  0  0  0
    8.8042   -8.4818    0.0000 C   0  0  0  0  0  0  0  0  0  0  0  0
    9.5159   -8.0645    0.0000 C   0  0  0  0  0  0  0  0  0  0  0  0
   10.2331   -8.4721    0.0000 C   0  0  0  0  0  0  0  0  0  0  0  0
   10.9448   -8.0547    0.0000 C   0  0  0  0  0  0  0  0  0  0  0  0
   10.9878   -9.7208    0.0000 C   0  0  0  0  0  0  0  0  0  0  0  0
   13.8454   -9.6831    0.0000 O   0  0  0  0  0  0  0  0  0  0  0  0
    7.3753   -8.4916    0.0000 C   0  0  0  0  0  0  0  0  0  0  0  0
    6.6580   -8.0840    0.0000 C   0  0  0  0  0  0  0  0  0  0  0  0
    5.9464   -8.5013    0.0000 C   0  0  0  0  0  0  0  0  0  0  0  0
   11.6859   -8.4740    0.0000 C   0  0  0  0  0  0  0  0  0  0  0  0
   11.6967   -9.2989    0.0000 C   0  0  0  0  0  0  0  0  0  0  0  0
    6.6524   -7.2590    0.0000 C   0  0  0  0  0  0  0  0  0  0  0  0
    5.2133   -8.0309    0.0000 C   0  0  0  0  0  0  0  0  0  0  0  0
   12.4166   -9.7020    0.0000 C   0  0  0  0  0  0  0  0  0  0  0  0
   13.1256   -9.2801    0.0000 C   0  0  2  0  0  0  0  0  0  0  0  0
   13.1147   -8.4552    0.0000 C   0  0  0  0  0  0  0  0  0  0  0  0
   12.3948   -8.0521    0.0000 C   0  0  0  0  0  0  0  0  0  0  0  0
  9  1  1  1  0  0  0
  7  2  1  0  0  0  0
 42  3  1  0  0  0  0
 42  4  1  0  0  0  0
  7  5  1  0  0  0  0
 11  6  1  0  0  0  0
  7 14  1  0  0  0  0
  8  7  1  0  0  0  0
  9  8  1  0  0  0  0
 10  9  1  0  0  0  0
 11 10  1  0  0  0  0
 14 11  2  0  0  0  0
 17 12  1  0  0  0  0
 21 13  1  0  0  0  0
 27 24  1  0  0  0  0
 15 14  1  0  0  0  0
 16 15  2  0  0  0  0
 17 16  1  0  0  0  0
 18 17  2  0  0  0  0
 19 18  1  0  0  0  0
 20 19  2  0  0  0  0
 21 20  1  0  0  0  0
 22 21  2  0  0  0  0
 23 22  1  0  0  0  0
 38 23  2  0  0  0  0
 29 35  1  0  0  0  0
 26 25  1  0  0  0  0
 27 26  2  0  0  0  0
 28 27  1  0  0  0  0
 29 28  2  0  0  0  0
 36 30  1  0  0  0  0
 40 31  1  6  0  0  0
 35 42  1  0  0  0  0
 36 35  2  0  0  0  0
 39 36  1  0  0  0  0
 40 39  1  0  0  0  0
 41 40  1  0  0  0  0
 25 32  2  0  0  0  0
 32 33  1  0  0  0  0
 33 34  2  0  0  0  0
 42 41  1  0  0  0  0
 33 37  1  0  0  0  0
 38 34  1  0  0  0  0
M  END
>  <cdx:fragmentId>
5

$$$$
