7031.cdx
  Mrv1902 05222410202D          

 20 21  0  0  0  0            999 V2000
    4.9046   -1.9396    0.0000 C   0  0  0  0  0  0  0  0  0  0  0  0
    4.9046   -1.1146    0.0000 O   0  0  0  0  0  0  0  0  0  0  0  0
    4.1902   -2.3521    0.0000 C   0  0  0  0  0  0  0  0  0  0  0  0
    4.1902   -3.1771    0.0000 C   0  0  0  0  0  0  0  0  0  0  0  0
    3.4757   -3.5896    0.0000 C   0  0  0  0  0  0  0  0  0  0  0  0
    2.7612   -3.1771    0.0000 C   0  0  0  0  0  0  0  0  0  0  0  0
    2.7612   -2.3521    0.0000 C   0  0  0  0  0  0  0  0  0  0  0  0
    3.4757   -1.9396    0.0000 C   0  0  0  0  0  0  0  0  0  0  0  0
    2.0467   -3.5896    0.0000 N   0  0  0  0  0  0  0  0  0  0  0  0
    2.0467   -4.4146    0.0000 C   0  0  0  0  0  0  0  0  0  0  0  0
    1.3323   -3.1771    0.0000 C   0  0  0  0  0  0  0  0  0  0  0  0
    5.6191   -2.3521    0.0000 C   0  0  0  0  0  0  0  0  0  0  0  0
    6.3336   -1.9396    0.0000 C   0  0  0  0  0  0  0  0  0  0  0  0
    7.0480   -2.3521    0.0000 C   0  0  0  0  0  0  0  0  0  0  0  0
    7.0480   -3.1771    0.0000 C   0  0  0  0  0  0  0  0  0  0  0  0
    6.3336   -3.5896    0.0000 C   0  0  0  0  0  0  0  0  0  0  0  0
    5.6191   -3.1771    0.0000 C   0  0  0  0  0  0  0  0  0  0  0  0
    7.7625   -3.5896    0.0000 N   0  0  0  0  0  0  0  0  0  0  0  0
    7.7625   -4.4146    0.0000 C   0  0  0  0  0  0  0  0  0  0  0  0
    8.4770   -3.1771    0.0000 C   0  0  0  0  0  0  0  0  0  0  0  0
  1  2  2  0  0  0  0
  3  4  1  0  0  0  0
  4  5  2  0  0  0  0
  5  6  1  0  0  0  0
  6  7  2  0  0  0  0
  7  8  1  0  0  0  0
  3  8  2  0  0  0  0
  9 10  1  0  0  0  0
  9 11  1  0  0  0  0
  6  9  1  0  0  0  0
  1  3  1  0  0  0  0
 12 13  1  0  0  0  0
 13 14  2  0  0  0  0
 14 15  1  0  0  0  0
 15 16  2  0  0  0  0
 16 17  1  0  0  0  0
 12 17  2  0  0  0  0
 18 19  1  0  0  0  0
 18 20  1  0  0  0  0
 15 18  1  0  0  0  0
  1 12  1  0  0  0  0
M  END
>  <cdx:groupId>
63

>  <cdx:fragmentId>
9

$$$$
