70316.cdx
  Mrv1902 05222410182D          

 47 48  0  0  0  0            999 V2000
    6.5981  -11.3976    0.0000 C   0  0  2  0  0  0  0  0  0  0  0  0
    6.5981  -12.2226    0.0000 C   0  0  2  0  0  0  0  0  0  0  0  0
    7.3125  -12.6351    0.0000 C   0  0  1  0  0  0  0  0  0  0  0  0
    8.0270  -12.2226    0.0000 C   0  0  2  0  0  0  0  0  0  0  0  0
    8.0270  -11.3976    0.0000 C   0  0  2  0  0  0  0  0  0  0  0  0
    7.3125  -10.9851    0.0000 O   0  0  0  0  0  0  0  0  0  0  0  0
    5.8836  -10.9851    0.0000 C   0  0  0  0  0  0  0  0  0  0  0  0
    8.7415  -10.9851    0.0000 O   0  0  0  0  0  0  0  0  0  0  0  0
    8.7415  -10.1601    0.0000 C   0  0  2  0  0  0  0  0  0  0  0  0
    7.9165  -10.1601    0.0000 O   0  0  0  0  0  0  0  0  0  0  0  0
    8.9964   -9.3755    0.0000 C   0  0  2  0  0  0  0  0  0  0  0  0
    8.3290   -8.8906    0.0000 C   0  0  1  0  0  0  0  0  0  0  0  0
    7.6615   -9.3755    0.0000 C   0  0  1  0  0  0  0  0  0  0  0  0
    9.5384  -10.3737    0.0000 C   0  0  0  0  0  0  0  0  0  0  0  0
   10.1217   -9.7903    0.0000 O   0  0  0  0  0  0  0  0  0  0  0  0
    6.8769   -9.1206    0.0000 C   0  0  0  0  0  0  0  0  0  0  0  0
    6.6634   -8.3237    0.0000 O   0  0  0  0  0  0  0  0  0  0  0  0
    7.3125  -13.4601    0.0000 O   0  0  0  0  0  0  0  0  0  0  0  0
    8.3290   -8.0656    0.0000 O   0  0  0  0  0  0  0  0  0  0  0  0
    5.8836  -12.6351    0.0000 O   0  0  0  0  0  0  0  0  0  0  0  0
    8.7415  -12.6351    0.0000 O   0  0  0  0  0  0  0  0  0  0  0  0
    9.7810   -9.1206    0.0000 O   0  0  0  0  0  0  0  0  0  0  0  0
    5.8836  -10.1601    0.0000 O   0  0  0  0  0  0  0  0  0  0  0  0
    5.1691  -12.2226    0.0000 C   0  0  0  0  0  0  0  0  0  0  0  0
    4.4546  -12.6351    0.0000 C   0  0  0  0  0  0  0  0  0  0  0  0
    3.7402  -12.2226    0.0000 C   0  0  0  0  0  0  0  0  0  0  0  0
    3.0257  -12.6351    0.0000 C   0  0  0  0  0  0  0  0  0  0  0  0
    3.7402  -11.3976    0.0000 C   0  0  0  0  0  0  0  0  0  0  0  0
    5.1691  -11.3976    0.0000 O   0  0  0  0  0  0  0  0  0  0  0  0
    9.4559  -12.2226    0.0000 C   0  0  0  0  0  0  0  0  0  0  0  0
   10.1704  -12.6351    0.0000 C   0  0  0  0  0  0  0  0  0  0  0  0
    9.4559  -11.3976    0.0000 O   0  0  0  0  0  0  0  0  0  0  0  0
   10.8849  -12.2226    0.0000 C   0  0  0  0  0  0  0  0  0  0  0  0
   11.5994  -12.6351    0.0000 C   0  0  0  0  0  0  0  0  0  0  0  0
   10.8849  -11.3976    0.0000 C   0  0  0  0  0  0  0  0  0  0  0  0
    9.9946   -8.3237    0.0000 C   0  0  0  0  0  0  0  0  0  0  0  0
   10.7914   -8.1102    0.0000 C   0  0  0  0  0  0  0  0  0  0  0  0
   11.0050   -7.3133    0.0000 C   0  0  0  0  0  0  0  0  0  0  0  0
   11.8019   -7.0998    0.0000 C   0  0  0  0  0  0  0  0  0  0  0  0
   10.4216   -6.7299    0.0000 C   0  0  0  0  0  0  0  0  0  0  0  0
    9.4112   -7.7403    0.0000 O   0  0  0  0  0  0  0  0  0  0  0  0
    7.7456   -7.4822    0.0000 C   0  0  0  0  0  0  0  0  0  0  0  0
    7.7456   -6.6572    0.0000 C   0  0  0  0  0  0  0  0  0  0  0  0
    7.1622   -6.0739    0.0000 C   0  0  0  0  0  0  0  0  0  0  0  0
    7.3758   -5.2770    0.0000 C   0  0  0  0  0  0  0  0  0  0  0  0
    6.3654   -6.2874    0.0000 C   0  0  0  0  0  0  0  0  0  0  0  0
    6.9834   -7.7980    0.0000 O   0  0  0  0  0  0  0  0  0  0  0  0
  1  2  1  0  0  0  0
  2  3  1  0  0  0  0
  3  4  1  0  0  0  0
  4  5  1  0  0  0  0
  5  6  1  0  0  0  0
  6  1  1  0  0  0  0
  1  7  1  1  0  0  0
  5  8  1  6  0  0  0
  9  8  1  6  0  0  0
  9 10  1  0  0  0  0
  9 11  1  0  0  0  0
 11 12  1  0  0  0  0
 12 13  1  0  0  0  0
 13 10  1  0  0  0  0
  9 14  1  0  0  0  0
 14 15  1  0  0  0  0
 13 16  1  6  0  0  0
 16 17  1  0  0  0  0
  3 18  1  1  0  0  0
 12 19  1  1  0  0  0
  2 20  1  6  0  0  0
  4 21  1  6  0  0  0
 11 22  1  6  0  0  0
  7 23  1  0  0  0  0
 20 24  1  0  0  0  0
 24 25  1  0  0  0  0
 25 26  1  0  0  0  0
 26 27  1  0  0  0  0
 26 28  1  0  0  0  0
 24 29  2  0  0  0  0
 21 30  1  0  0  0  0
 30 31  1  0  0  0  0
 30 32  2  0  0  0  0
 31 33  1  0  0  0  0
 33 34  1  0  0  0  0
 33 35  1  0  0  0  0
 22 36  1  0  0  0  0
 36 37  1  0  0  0  0
 37 38  1  0  0  0  0
 38 39  1  0  0  0  0
 38 40  1  0  0  0  0
 36 41  2  0  0  0  0
 19 42  1  0  0  0  0
 42 43  1  0  0  0  0
 43 44  1  0  0  0  0
 44 45  1  0  0  0  0
 44 46  1  0  0  0  0
 42 47  2  0  0  0  0
M  END
>  <cdx:fragmentId>
5

$$$$
