70312.cdx
  Mrv1902 05222410192D          

 28 31  0  0  0  0            999 V2000
    7.8063   -8.1113    0.0000 H   0  0  0  0  0  0  0  0  0  0  0  0
    7.0760   -6.0210    0.0000 C   0  0  0  0  0  0  0  0  0  0  0  0
    7.0760   -5.2151    0.0000 C   0  0  0  0  0  0  0  0  0  0  0  0
    7.1012   -6.8521    0.0000 H   0  0  0  0  0  0  0  0  0  0  0  0
    7.8063   -6.4492    0.0000 C   0  0  2  0  0  0  0  0  0  0  0  0
    8.5115   -6.0210    0.0000 N   0  0  0  0  0  0  0  0  0  0  0  0
    8.5115   -5.2151    0.0000 C   0  0  0  0  0  0  0  0  0  0  0  0
    7.8063   -4.7869    0.0000 C   0  0  0  0  0  0  0  0  0  0  0  0
    7.8063   -7.2802    0.0000 C   0  0  0  0  0  0  0  0  0  0  0  0
    8.5115   -7.6832    0.0000 C   0  0  1  0  0  0  0  0  0  0  0  0
    9.2419   -7.2802    0.0000 C   0  0  2  0  0  0  0  0  0  0  0  0
    9.2419   -6.4492    0.0000 C   0  0  0  0  0  0  0  0  0  0  0  0
    8.5115   -8.5143    0.0000 C   0  0  0  0  0  0  0  0  0  0  0  0
    9.2419   -8.9173    0.0000 C   0  0  0  0  0  0  0  0  0  0  0  0
    9.9471   -8.5143    0.0000 O   0  0  0  0  0  0  0  0  0  0  0  0
    9.9471   -7.6832    0.0000 C   0  0  0  0  0  0  0  0  0  0  0  0
    7.8063   -8.9173    0.0000 C   0  0  0  0  0  0  0  0  0  0  0  0
   10.6523   -7.2802    0.0000 C   0  0  0  0  0  0  0  0  0  0  0  0
    7.0760   -8.5143    0.0000 O   0  0  0  0  0  0  0  0  0  0  0  0
    7.8063   -9.6729    0.0000 O   0  0  0  0  0  0  0  0  0  0  0  0
    7.1516  -10.0507    0.0000 C   0  0  0  0  0  0  0  0  0  0  0  0
    6.3096   -4.9661    0.0000 C   0  0  0  0  0  0  0  0  0  0  0  0
    5.8359   -5.6181    0.0000 C   0  0  0  0  0  0  0  0  0  0  0  0
    6.3096   -6.2701    0.0000 N   0  0  0  0  0  0  0  0  0  0  0  0
    5.9818   -4.2299    0.0000 C   0  0  0  0  0  0  0  0  0  0  0  0
    5.1803   -4.1456    0.0000 C   0  0  0  0  0  0  0  0  0  0  0  0
    4.7066   -4.7976    0.0000 C   0  0  0  0  0  0  0  0  0  0  0  0
    5.0344   -5.5338    0.0000 C   0  0  0  0  0  0  0  0  0  0  0  0
 10  1  1  6  0  0  0
  2  3  2  0  0  0  0
  5  4  1  1  0  0  0
 13 17  1  0  0  0  0
  2  5  1  0  0  0  0
  5  6  1  0  0  0  0
  6  7  1  0  0  0  0
  7  8  1  0  0  0  0
  3  8  1  0  0  0  0
  5  9  1  0  0  0  0
  9 10  1  0  0  0  0
 10 11  1  0  0  0  0
 11 12  1  0  0  0  0
  6 12  1  0  0  0  0
 10 13  1  0  0  0  0
 13 14  1  0  0  0  0
 14 15  1  0  0  0  0
 11 16  1  6  0  0  0
 16 18  2  0  0  0  0
 17 19  2  0  0  0  0
 17 20  1  0  0  0  0
 20 21  1  0  0  0  0
  3 22  1  0  0  0  0
 22 23  2  0  0  0  0
 23 24  1  0  0  0  0
 24  2  1  0  0  0  0
 22 25  1  0  0  0  0
 25 26  2  0  0  0  0
 26 27  1  0  0  0  0
 27 28  2  0  0  0  0
 28 23  1  0  0  0  0
M  END
>  <cdx:fragmentId>
3

$$$$
