70317.cdx
  Mrv1902 05222410192D          

  9  9  0  0  0  0            999 V2000
    6.7218   -5.9801    0.0000 C   0  0  0  0  0  0  0  0  0  0  0  0
    6.7218   -6.8051    0.0000 C   0  0  0  0  0  0  0  0  0  0  0  0
    7.4363   -7.2176    0.0000 C   0  0  0  0  0  0  0  0  0  0  0  0
    8.1507   -6.8051    0.0000 C   0  0  0  0  0  0  0  0  0  0  0  0
    8.1507   -5.9801    0.0000 C   0  0  0  0  0  0  0  0  0  0  0  0
    7.4363   -5.5676    0.0000 C   0  0  0  0  0  0  0  0  0  0  0  0
    7.4363   -4.7426    0.0000 O   0  0  0  0  0  0  0  0  0  0  0  0
    8.8652   -5.5676    0.0000 C   0  0  0  0  0  0  0  0  0  0  0  0
    6.0073   -7.2176    0.0000 C   0  0  0  0  0  0  0  0  0  0  0  0
  1  2  1  0  0  0  0
  2  3  1  0  0  0  0
  3  4  1  0  0  0  0
  4  5  1  0  0  0  0
  5  6  1  0  0  0  0
  6  1  1  0  0  0  0
  6  7  1  0  0  0  0
  5  8  1  0  0  0  0
  2  9  1  0  0  0  0
M  END
>  <cdx:fragmentId>
5

$$$$
