70323.cdx
  Mrv1902 05222410262D          

 20 20  0  0  0  0            999 V2000
    6.3255   -6.2700    0.0000 C   0  0  2  0  0  0  0  0  0  0  0  0
    6.3255   -7.0950    0.0000 C   0  0  2  0  0  0  0  0  0  0  0  0
    7.0400   -7.5075    0.0000 C   0  0  1  0  0  0  0  0  0  0  0  0
    7.7545   -7.0950    0.0000 C   0  0  2  0  0  0  0  0  0  0  0  0
    7.7545   -6.2700    0.0000 C   0  0  1  0  0  0  0  0  0  0  0  0
    7.0400   -5.8575    0.0000 O   0  0  0  0  0  0  0  0  0  0  0  0
    8.4689   -7.5075    0.0000 O   0  0  0  0  0  0  0  0  0  0  0  0
    7.0400   -8.3325    0.0000 O   0  0  0  0  0  0  0  0  0  0  0  0
    5.6111   -7.5075    0.0000 O   0  0  0  0  0  0  0  0  0  0  0  0
    5.6111   -5.8575    0.0000 C   0  0  0  0  0  0  0  0  0  0  0  0
    8.4689   -5.8575    0.0000 O   0  0  0  0  0  0  0  0  0  0  0  0
    4.8966   -6.2700    0.0000 O   0  0  0  0  0  0  0  0  0  0  0  0
    8.4689   -5.0325    0.0000 C   0  0  0  0  0  0  0  0  0  0  0  0
    9.1834   -4.6200    0.0000 C   0  0  0  0  0  0  0  0  0  0  0  0
    9.1834   -3.7950    0.0000 O   0  0  0  0  0  0  0  0  0  0  0  0
    9.8979   -3.3825    0.0000 C   0  0  0  0  0  0  0  0  0  0  0  0
   10.6124   -3.7950    0.0000 O   0  0  0  0  0  0  0  0  0  0  0  0
    9.8979   -2.5575    0.0000 C   0  0  0  0  0  0  0  0  0  0  0  0
    9.1834   -2.1450    0.0000 C   0  0  0  0  0  0  0  0  0  0  0  0
   10.6124   -2.1450    0.0000 C   0  0  0  0  0  0  0  0  0  0  0  0
  1  2  1  0  0  0  0
  2  3  1  0  0  0  0
  3  4  1  0  0  0  0
  4  5  1  0  0  0  0
  5  6  1  0  0  0  0
  6  1  1  0  0  0  0
  4  7  1  6  0  0  0
  3  8  1  1  0  0  0
  2  9  1  6  0  0  0
  1 10  1  1  0  0  0
  5 11  1  1  0  0  0
 10 12  1  0  0  0  0
 11 13  1  0  0  0  0
 13 14  1  0  0  0  0
 14 15  1  0  0  0  0
 15 16  1  0  0  0  0
 16 17  2  0  0  0  0
 16 18  1  0  0  0  0
 18 19  2  0  0  0  0
 18 20  1  0  0  0  0
M  END
>  <cdx:fragmentId>
72

$$$$
