70326.cdx
  Mrv1902 05222410272D          

 32 36  0  0  0  0            999 V2000
    3.0368  -10.5726    0.0000 C   0  0  0  0  0  0  0  0  0  0  0  0
    3.0368  -11.3976    0.0000 C   0  0  0  0  0  0  0  0  0  0  0  0
    3.7513  -11.8101    0.0000 C   0  0  0  0  0  0  0  0  0  0  0  0
    4.4657  -11.3976    0.0000 C   0  0  2  0  0  0  0  0  0  0  0  0
    4.4657  -10.5726    0.0000 C   0  0  2  0  0  0  0  0  0  0  0  0
    3.7513  -10.1601    0.0000 C   0  0  0  0  0  0  0  0  0  0  0  0
    5.2504  -11.6526    0.0000 C   0  0  0  0  0  0  0  0  0  0  0  0
    5.7353  -10.9851    0.0000 O   0  0  0  0  0  0  0  0  0  0  0  0
    5.2504  -10.3177    0.0000 C   0  0  1  0  0  0  0  0  0  0  0  0
    5.0368   -9.5208    0.0000 C   0  0  0  0  0  0  0  0  0  0  0  0
    5.9648   -9.9052    0.0000 C   0  0  2  0  0  0  0  0  0  0  0  0
    5.6202   -8.9375    0.0000 C   0  0  0  0  0  0  0  0  0  0  0  0
    5.4067   -8.1406    0.0000 C   0  0  0  0  0  0  0  0  0  0  0  0
    5.9900   -7.5572    0.0000 C   0  0  0  0  0  0  0  0  0  0  0  0
    4.2400   -9.3073    0.0000 O   0  0  0  0  0  0  0  0  0  0  0  0
    5.5053  -12.4372    0.0000 O   0  0  0  0  0  0  0  0  0  0  0  0
    6.6793  -10.3177    0.0000 C   0  0  2  0  0  0  0  0  0  0  0  0
    7.3938   -9.9052    0.0000 C   0  0  0  0  0  0  0  0  0  0  0  0
    7.3938   -9.0802    0.0000 C   0  0  0  0  0  0  0  0  0  0  0  0
    6.6793   -8.6677    0.0000 C   0  0  0  0  0  0  0  0  0  0  0  0
    5.9648   -9.0802    0.0000 C   0  0  0  0  0  0  0  0  0  0  0  0
    8.1784  -10.1601    0.0000 C   0  0  0  0  0  0  0  0  0  0  0  0
    8.6633   -9.4927    0.0000 O   0  0  0  0  0  0  0  0  0  0  0  0
    8.1784   -8.8253    0.0000 C   0  0  0  0  0  0  0  0  0  0  0  0
    8.4333  -10.9448    0.0000 O   0  0  0  0  0  0  0  0  0  0  0  0
    8.4333   -8.0407    0.0000 C   0  0  0  0  0  0  0  0  0  0  0  0
    9.2302   -7.8271    0.0000 C   0  0  0  0  0  0  0  0  0  0  0  0
    9.4438   -7.0302    0.0000 C   0  0  0  0  0  0  0  0  0  0  0  0
   10.2406   -6.8167    0.0000 C   0  0  0  0  0  0  0  0  0  0  0  0
    5.2504   -9.4927    0.0000 H   0  0  0  0  0  0  0  0  0  0  0  0
    7.3938  -10.7302    0.0000 H   0  0  0  0  0  0  0  0  0  0  0  0
    3.6689  -10.7862    0.0000 H   0  0  0  0  0  0  0  0  0  0  0  0
  1  2  1  0  0  0  0
  2  3  2  0  0  0  0
  3  4  1  0  0  0  0
  4  5  1  0  0  0  0
  5  6  1  0  0  0  0
  6  1  1  0  0  0  0
  4  7  1  6  0  0  0
  7  8  1  0  0  0  0
  9  8  1  6  0  0  0
  9  5  1  0  0  0  0
  9 10  1  0  0  0  0
  9 11  1  0  0  0  0
 10 12  1  0  0  0  0
 12 13  1  0  0  0  0
 13 14  1  0  0  0  0
 10 15  2  0  0  0  0
  7 16  2  0  0  0  0
 11 17  1  0  0  0  0
 17 18  1  0  0  0  0
 18 19  2  0  0  0  0
 19 20  1  0  0  0  0
 20 21  1  0  0  0  0
 21 11  1  0  0  0  0
 18 22  1  0  0  0  0
 22 23  1  0  0  0  0
 23 24  1  0  0  0  0
 24 19  1  0  0  0  0
 22 25  2  0  0  0  0
 24 26  2  0  0  0  0
 26 27  1  0  0  0  0
 27 28  1  0  0  0  0
 28 29  1  0  0  0  0
  4 17  1  0  0  0  0
 11 30  1  6  0  0  0
 17 31  1  1  0  0  0
  5 32  1  1  0  0  0
M  END
>  <cdx:fragmentId>
5

$$$$
