70322.cdx
  Mrv1902 05222410272D          

 24 25  0  0  0  0            999 V2000
    8.5551   -4.7763    0.0000 C   0  0  2  0  0  0  0  0  0  0  0  0
    8.2040   -4.0297    0.0000 C   0  0  0  0  0  0  0  0  0  0  0  0
    9.3772   -4.8455    0.0000 O   0  0  0  0  0  0  0  0  0  0  0  0
    8.6749   -3.3524    0.0000 O   0  0  0  0  0  0  0  0  0  0  0  0
    6.2415   -6.5316    0.0000 O   0  0  0  0  0  0  0  0  0  0  0  0
    9.1450   -6.4714    0.0000 O   0  0  0  0  0  0  0  0  0  0  0  0
    7.7151   -7.5563    0.0000 O   0  0  0  0  0  0  0  0  0  0  0  0
    8.3553   -6.2328    0.0000 C   0  0  0  0  0  0  0  0  0  0  0  0
    8.0841   -5.4536    0.0000 C   0  0  2  0  0  0  0  0  0  0  0  0
    7.2593   -5.4707    0.0000 O   0  0  0  0  0  0  0  0  0  0  0  0
    7.0207   -6.2605    0.0000 C   0  0  0  0  0  0  0  0  0  0  0  0
    7.6980   -6.7315    0.0000 C   0  0  0  0  0  0  0  0  0  0  0  0
    6.9973   -7.9629    0.0000 C   0  0  2  0  0  0  0  0  0  0  0  0
    6.2862   -7.5445    0.0000 O   0  0  0  0  0  0  0  0  0  0  0  0
    5.5684   -7.9510    0.0000 C   0  0  1  0  0  0  0  0  0  0  0  0
    5.5616   -8.7760    0.0000 C   0  0  2  0  0  0  0  0  0  0  0  0
    6.2726   -9.1944    0.0000 C   0  0  1  0  0  0  0  0  0  0  0  0
    6.9904   -8.7878    0.0000 C   0  0  1  0  0  0  0  0  0  0  0  0
    6.2658  -10.0194    0.0000 O   0  0  0  0  0  0  0  0  0  0  0  0
    4.8573   -7.5326    0.0000 C   0  0  0  0  0  0  0  0  0  0  0  0
    4.8437   -9.1826    0.0000 O   0  0  0  0  0  0  0  0  0  0  0  0
    7.7015   -9.2062    0.0000 O   0  0  0  0  0  0  0  0  0  0  0  0
    4.1355   -7.9322    0.0000 O   0  0  0  0  0  0  0  0  0  0  0  0
    7.6716   -4.7392    0.0000 H   0  0  0  0  0  0  0  0  0  0  0  0
  1  2  1  0  0  0  0
  1  3  1  6  0  0  0
  9  1  1  0  0  0  0
  2  4  1  0  0  0  0
 11  5  2  0  0  0  0
  8  6  1  0  0  0  0
 12  7  1  0  0  0  0
  8 12  2  0  0  0  0
  9  8  1  0  0  0  0
 10  9  1  0  0  0  0
 11 10  1  0  0  0  0
 12 11  1  0  0  0  0
 13  7  1  1  0  0  0
 13 14  1  0  0  0  0
 14 15  1  0  0  0  0
 15 16  1  0  0  0  0
 16 17  1  0  0  0  0
 17 18  1  0  0  0  0
 18 13  1  0  0  0  0
 17 19  1  1  0  0  0
 15 20  1  1  0  0  0
 16 21  1  6  0  0  0
 18 22  1  6  0  0  0
 20 23  1  0  0  0  0
  9 24  1  1  0  0  0
M  END
>  <cdx:fragmentId>
5

$$$$
