70320.cdx
  Mrv1902 05222410262D          

 13 14  0  0  0  0            999 V2000
    6.3255   -6.2700    0.0000 C   0  0  2  0  0  0  0  0  0  0  0  0
    6.3255   -7.0950    0.0000 C   0  0  2  0  0  0  0  0  0  0  0  0
    7.0400   -7.5075    0.0000 C   0  0  2  0  0  0  0  0  0  0  0  0
    7.7545   -7.0950    0.0000 C   0  0  1  0  0  0  0  0  0  0  0  0
    7.7545   -6.2700    0.0000 C   0  0  1  0  0  0  0  0  0  0  0  0
    7.0400   -5.8575    0.0000 O   0  0  0  0  0  0  0  0  0  0  0  0
    6.3250   -5.3900    0.0000 C   0  0  0  0  0  0  0  0  0  0  0  0
    7.7275   -5.3900    0.0000 O   0  0  0  0  0  0  0  0  0  0  0  0
    8.4689   -6.6825    0.0000 C   0  0  0  0  0  0  0  0  0  0  0  0
    9.1834   -6.2700    0.0000 O   0  0  0  0  0  0  0  0  0  0  0  0
    8.4689   -7.5075    0.0000 O   0  0  0  0  0  0  0  0  0  0  0  0
    7.0400   -8.3325    0.0000 O   0  0  0  0  0  0  0  0  0  0  0  0
    5.6111   -7.5075    0.0000 O   0  0  0  0  0  0  0  0  0  0  0  0
  1  2  1  0  0  0  0
  2  3  1  0  0  0  0
  3  4  1  0  0  0  0
  4  5  1  0  0  0  0
  5  6  1  0  0  0  0
  6  1  1  0  0  0  0
  1  7  1  1  0  0  0
  5  8  1  1  0  0  0
  5  9  1  0  0  0  0
  9 10  1  0  0  0  0
  4 11  1  1  0  0  0
  3 12  1  6  0  0  0
  2 13  1  6  0  0  0
  8  7  1  0  0  0  0
M  END
>  <cdx:fragmentId>
72

$$$$
