70325.cdx
  Mrv1902 05222410282D          

 11 13  0  0  0  0            999 V2000
    4.9893   -8.0151    0.0000 C   0  0  0  0  0  0  0  0  0  0  0  0
    4.9893   -8.8401    0.0000 C   0  0  0  0  0  0  0  0  0  0  0  0
    5.7038   -9.2526    0.0000 C   0  0  0  0  0  0  0  0  0  0  0  0
    6.4182   -8.8401    0.0000 C   0  0  0  0  0  0  0  0  0  0  0  0
    6.4182   -8.0151    0.0000 C   0  0  0  0  0  0  0  0  0  0  0  0
    5.7038   -7.6026    0.0000 C   0  0  0  0  0  0  0  0  0  0  0  0
    7.1327   -9.2526    0.0000 C   0  0  0  0  0  0  0  0  0  0  0  0
    7.8472   -8.8401    0.0000 C   0  0  0  0  0  0  0  0  0  0  0  0
    7.8472   -8.0151    0.0000 C   0  0  0  0  0  0  0  0  0  0  0  0
    7.1327   -7.6026    0.0000 C   0  0  0  0  0  0  0  0  0  0  0  0
    7.8472   -9.6651    0.0000 C   0  0  0  0  0  0  0  0  0  0  0  0
  1  2  2  0  0  0  0
  2  3  1  0  0  0  0
  3  4  2  0  0  0  0
  4  5  1  0  0  0  0
  5  6  2  0  0  0  0
  6  1  1  0  0  0  0
  4  7  1  0  0  0  0
  7  8  2  0  0  0  0
  8  9  1  0  0  0  0
  9 10  2  0  0  0  0
 10  5  1  0  0  0  0
  7 11  1  0  0  0  0
 11  8  1  0  0  0  0
M  END
>  <cdx:fragmentId>
5

$$$$
