70336.cdx
  Mrv1902 05222410272D          

 18 17  0  0  0  0            999 V2000
   10.6598   -4.5567    0.0000 C   0  0  0  0  0  0  0  0  0  0  0  0
    9.9398   -4.9595    0.0000 C   0  0  0  0  0  0  0  0  0  0  0  0
    9.9287   -5.7845    0.0000 C   0  0  0  0  0  0  0  0  0  0  0  0
    9.2088   -6.1873    0.0000 C   0  0  0  0  0  0  0  0  0  0  0  0
    9.1977   -7.0122    0.0000 C   0  0  0  0  0  0  0  0  0  0  0  0
    8.4777   -7.4151    0.0000 C   0  0  0  0  0  0  0  0  0  0  0  0
    8.4666   -8.2400    0.0000 C   0  0  0  0  0  0  0  0  0  0  0  0
    7.7466   -8.6428    0.0000 C   0  0  0  0  0  0  0  0  0  0  0  0
    7.7355   -9.4677    0.0000 C   0  0  0  0  0  0  0  0  0  0  0  0
    7.0155   -9.8706    0.0000 C   0  0  0  0  0  0  0  0  0  0  0  0
    7.0044  -10.6955    0.0000 C   0  0  0  0  0  0  0  0  0  0  0  0
    6.2844  -11.0983    0.0000 C   0  0  0  0  0  0  0  0  0  0  0  0
    6.2733  -11.9233    0.0000 C   0  0  0  0  0  0  0  0  0  0  0  0
    5.5534  -12.3261    0.0000 C   0  0  0  0  0  0  0  0  0  0  0  0
    4.8389  -11.9136    0.0000 C   0  0  0  0  0  0  0  0  0  0  0  0
    4.1244  -12.3261    0.0000 C   0  0  0  0  0  0  0  0  0  0  0  0
    3.4099  -11.9136    0.0000 O   0  0  0  0  0  0  0  0  0  0  0  0
    4.1244  -13.1511    0.0000 O   0  0  0  0  0  0  0  0  0  0  0  0
  1  2  1  0  0  0  0
  2  3  1  0  0  0  0
  3  4  1  0  0  0  0
  4  5  1  0  0  0  0
  5  6  1  0  0  0  0
  6  7  1  0  0  0  0
  7  8  1  0  0  0  0
  8  9  1  0  0  0  0
  9 10  1  0  0  0  0
 10 11  1  0  0  0  0
 11 12  1  0  0  0  0
 12 13  1  0  0  0  0
 13 14  2  0  0  0  0
 14 15  1  0  0  0  0
 15 16  1  0  0  0  0
 16 17  1  0  0  0  0
 16 18  2  0  0  0  0
M  END
>  <cdx:fragmentId>
3

$$$$
