70332.cdx
  Mrv1902 05222410272D          

 21 22  0  0  0  0            999 V2000
    4.1231  -12.2914    0.0000 C   0  0  0  0  0  0  0  0  0  0  0  0
    4.1231  -13.1164    0.0000 C   0  0  0  0  0  0  0  0  0  0  0  0
    4.8375  -13.5289    0.0000 C   0  0  0  0  0  0  0  0  0  0  0  0
    5.5520  -13.1164    0.0000 C   0  0  0  0  0  0  0  0  0  0  0  0
    5.5520  -12.2914    0.0000 C   0  0  0  0  0  0  0  0  0  0  0  0
    4.8375  -11.8789    0.0000 C   0  0  0  0  0  0  0  0  0  0  0  0
    3.4086  -11.8789    0.0000 C   0  0  0  0  0  0  0  0  0  0  0  0
    6.2665  -11.8789    0.0000 C   0  0  0  0  0  0  0  0  0  0  0  0
    4.8375  -14.3539    0.0000 C   0  0  0  0  0  0  0  0  0  0  0  0
    4.8375  -11.0539    0.0000 N   0  0  0  0  0  0  0  0  0  0  0  0
    5.5520  -10.6414    0.0000 N   0  0  0  0  0  0  0  0  0  0  0  0
    5.5520   -9.8164    0.0000 C   0  0  0  0  0  0  0  0  0  0  0  0
    6.2194   -9.3315    0.0000 C   0  0  0  0  0  0  0  0  0  0  0  0
    5.9645   -8.5469    0.0000 N   0  0  0  0  0  0  0  0  0  0  0  0
    5.1395   -8.5469    0.0000 O   0  0  0  0  0  0  0  0  0  0  0  0
    4.8846   -9.3315    0.0000 N   0  3  0  0  0  0  0  0  0  0  0  0
    4.0999   -9.5864    0.0000 O   0  5  0  0  0  0  0  0  0  0  0  0
    7.0041   -9.5864    0.0000 N   0  0  0  0  0  0  0  0  0  0  0  0
    7.7185   -9.1739    0.0000 C   0  0  0  0  0  0  0  0  0  0  0  0
    7.7185   -8.3489    0.0000 O   0  0  0  0  0  0  0  0  0  0  0  0
    8.4330   -9.5864    0.0000 C   0  0  0  0  0  0  0  0  0  0  0  0
  1  2  1  0  0  0  0
  2  3  2  0  0  0  0
  3  4  1  0  0  0  0
  4  5  2  0  0  0  0
  5  6  1  0  0  0  0
  6  1  2  0  0  0  0
  1  7  1  0  0  0  0
  5  8  1  0  0  0  0
  3  9  1  0  0  0  0
  6 10  1  0  0  0  0
 10 11  2  0  0  0  0
 11 12  1  0  0  0  0
 12 13  1  0  0  0  0
 13 14  2  0  0  0  0
 14 15  1  0  0  0  0
 15 16  1  0  0  0  0
 16 12  2  0  0  0  0
 16 17  1  0  0  0  0
 13 18  1  0  0  0  0
 18 19  1  0  0  0  0
 19 20  2  0  0  0  0
 19 21  1  0  0  0  0
M  CHG  2  16   1  17  -1
M  END
>  <cdx:fragmentId>
5

$$$$
