70339.cdx
  Mrv1902 05222410202D          

 41 42  0  0  0  0            999 V2000
    3.2901  -15.7016    0.0000 C   0  0  0  0  0  0  0  0  0  0  0  0
    3.2761  -14.8767    0.0000 C   0  0  0  0  0  0  0  0  0  0  0  0
    3.9835  -14.4522    0.0000 C   0  0  0  0  0  0  0  0  0  0  0  0
    3.9695  -13.6273    0.0000 C   0  0  0  0  0  0  0  0  0  0  0  0
    4.6768  -13.2027    0.0000 C   0  0  0  0  0  0  0  0  0  0  0  0
    4.6628  -12.3778    0.0000 C   0  0  0  0  0  0  0  0  0  0  0  0
    5.3702  -11.9532    0.0000 C   0  0  0  0  0  0  0  0  0  0  0  0
    5.3561  -11.1284    0.0000 C   0  0  0  0  0  0  0  0  0  0  0  0
    6.0635  -10.7038    0.0000 C   0  0  0  0  0  0  0  0  0  0  0  0
    6.0495   -9.8789    0.0000 C   0  0  0  0  0  0  0  0  0  0  0  0
    6.7569   -9.4543    0.0000 C   0  0  0  0  0  0  0  0  0  0  0  0
    6.7428   -8.6294    0.0000 C   0  0  0  0  0  0  0  0  0  0  0  0
    7.4502   -8.2049    0.0000 C   0  0  0  0  0  0  0  0  0  0  0  0
    7.4362   -7.3800    0.0000 C   0  0  0  0  0  0  0  0  0  0  0  0
    8.1435   -6.9554    0.0000 C   0  0  0  0  0  0  0  0  0  0  0  0
    8.1295   -6.1305    0.0000 C   0  0  0  0  0  0  0  0  0  0  0  0
    8.8369   -5.7059    0.0000 C   0  0  0  0  0  0  0  0  0  0  0  0
    8.8229   -4.8811    0.0000 C   0  0  0  0  0  0  0  0  0  0  0  0
    9.5302   -4.4565    0.0000 C   0  0  0  0  0  0  0  0  0  0  0  0
    9.5162   -3.6316    0.0000 C   0  0  0  0  0  0  0  0  0  0  0  0
    2.5834  -16.1272    0.0000 C   0  0  0  0  0  0  0  0  0  0  0  0
    2.5985  -16.9520    0.0000 C   0  0  0  0  0  0  0  0  0  0  0  0
    3.3154  -17.3544    0.0000 C   0  0  1  0  0  0  0  0  0  0  0  0
    4.0239  -16.9317    0.0000 C   0  0  0  0  0  0  0  0  0  0  0  0
    4.0105  -16.1098    0.0000 C   0  0  0  0  0  0  0  0  0  0  0  0
    8.7954   -3.2303    0.0000 C   0  0  0  0  0  0  0  0  0  0  0  0
    8.7825   -2.4054    0.0000 C   0  0  0  0  0  0  0  0  0  0  0  0
    9.4853   -1.9790    0.0000 C   0  0  0  0  0  0  0  0  0  0  0  0
   10.2078   -2.3773    0.0000 C   0  0  0  0  0  0  0  0  0  0  0  0
   10.2223   -3.1992    0.0000 C   0  0  0  0  0  0  0  0  0  0  0  0
    4.7199  -15.6886    0.0000 C   0  0  0  0  0  0  0  0  0  0  0  0
    1.7584  -16.1389    0.0000 C   0  0  0  0  0  0  0  0  0  0  0  0
    2.3585  -15.3334    0.0000 C   0  0  0  0  0  0  0  0  0  0  0  0
    3.2481  -13.2270    0.0000 C   0  0  0  0  0  0  0  0  0  0  0  0
    8.0874   -3.6539    0.0000 C   0  0  0  0  0  0  0  0  0  0  0  0
   10.6488   -3.9054    0.0000 C   0  0  0  0  0  0  0  0  0  0  0  0
   11.0471   -3.1829    0.0000 C   0  0  0  0  0  0  0  0  0  0  0  0
    9.5583   -6.1062    0.0000 C   0  0  0  0  0  0  0  0  0  0  0  0
    8.1716   -8.6052    0.0000 C   0  0  0  0  0  0  0  0  0  0  0  0
    4.6348  -10.7281    0.0000 C   0  0  0  0  0  0  0  0  0  0  0  0
    3.3263  -18.1793    0.0000 O   0  0  0  0  0  0  0  0  0  0  0  0
  1  2  1  0  0  0  0
  2  3  2  0  0  0  0
  3  4  1  0  0  0  0
  4  5  2  0  0  0  0
  5  6  1  0  0  0  0
  6  7  2  0  0  0  0
  7  8  1  0  0  0  0
  8  9  2  0  0  0  0
  9 10  1  0  0  0  0
 10 11  2  0  0  0  0
 11 12  1  0  0  0  0
 12 13  2  0  0  0  0
 13 14  1  0  0  0  0
 14 15  2  0  0  0  0
 15 16  1  0  0  0  0
 16 17  2  0  0  0  0
 17 18  1  0  0  0  0
 18 19  2  0  0  0  0
 19 20  1  0  0  0  0
  1 21  1  0  0  0  0
 21 22  1  0  0  0  0
 22 23  1  0  0  0  0
 23 24  1  0  0  0  0
 24 25  1  0  0  0  0
 25  1  2  0  0  0  0
 20 26  2  0  0  0  0
 26 27  1  0  0  0  0
 27 28  1  0  0  0  0
 28 29  1  0  0  0  0
 29 30  1  0  0  0  0
 30 20  1  0  0  0  0
 25 31  1  0  0  0  0
 21 32  1  0  0  0  0
 21 33  1  0  0  0  0
  4 34  1  0  0  0  0
 26 35  1  0  0  0  0
 30 36  1  0  0  0  0
 30 37  1  0  0  0  0
 17 38  1  0  0  0  0
 13 39  1  0  0  0  0
  8 40  1  0  0  0  0
 23 41  1  1  0  0  0
M  END
>  <cdx:fragmentId>
3

$$$$
