70335.cdx
  Mrv1902 05222410262D          

  7  6  0  0  0  0            999 V2000
    6.5838   -8.2626    0.0000 C   0  0  0  0  0  0  0  0  0  0  0  0
    7.2982   -7.8501    0.0000 C   0  0  0  0  0  0  0  0  0  0  0  0
    8.0127   -8.2626    0.0000 C   0  0  0  0  0  0  0  0  0  0  0  0
    8.7272   -7.8501    0.0000 O   0  0  0  0  0  0  0  0  0  0  0  0
    9.4417   -8.2626    0.0000 C   0  0  0  0  0  0  0  0  0  0  0  0
   10.1561   -7.8501    0.0000 C   0  0  0  0  0  0  0  0  0  0  0  0
    8.0127   -9.0876    0.0000 O   0  0  0  0  0  0  0  0  0  0  0  0
  1  2  1  0  0  0  0
  2  3  1  0  0  0  0
  3  4  1  0  0  0  0
  4  5  1  0  0  0  0
  5  6  1  0  0  0  0
  3  7  2  0  0  0  0
M  END
>  <cdx:fragmentId>
3

$$$$
