70337.cdx
  Mrv1902 05222410262D          

 13 13  0  0  0  0            999 V2000
    4.0286   -3.6022    0.0000 C   0  0  0  0  0  0  0  0  0  0  0  0
    4.7431   -4.0147    0.0000 C   0  0  0  0  0  0  0  0  0  0  0  0
    5.4575   -3.6022    0.0000 C   0  0  0  0  0  0  0  0  0  0  0  0
    6.1720   -4.0147    0.0000 C   0  0  0  0  0  0  0  0  0  0  0  0
    6.8865   -3.6022    0.0000 C   0  0  0  0  0  0  0  0  0  0  0  0
    7.6009   -4.0147    0.0000 C   0  0  0  0  0  0  0  0  0  0  0  0
    4.0286   -2.7772    0.0000 O   0  0  0  0  0  0  0  0  0  0  0  0
    3.3141   -4.0147    0.0000 C   0  0  0  0  0  0  0  0  0  0  0  0
    3.3141   -4.8397    0.0000 C   0  0  0  0  0  0  0  0  0  0  0  0
    2.5996   -5.2522    0.0000 C   0  0  0  0  0  0  0  0  0  0  0  0
    1.8852   -4.8397    0.0000 C   0  0  0  0  0  0  0  0  0  0  0  0
    1.8852   -4.0147    0.0000 C   0  0  0  0  0  0  0  0  0  0  0  0
    2.5996   -3.6022    0.0000 C   0  0  0  0  0  0  0  0  0  0  0  0
  1  2  1  0  0  0  0
  2  3  1  0  0  0  0
  3  4  1  0  0  0  0
  4  5  1  0  0  0  0
  5  6  1  0  0  0  0
  1  7  2  0  0  0  0
  8  9  1  0  0  0  0
  9 10  2  0  0  0  0
 10 11  1  0  0  0  0
 11 12  2  0  0  0  0
 12 13  1  0  0  0  0
  8 13  2  0  0  0  0
  1  8  1  0  0  0  0
M  END
>  <cdx:groupId>
41

>  <cdx:fragmentId>
5

$$$$
