70344.cdx
  Mrv1902 05222410252D          

 29 32  0  0  0  0            999 V2000
    6.0206   -7.4514    0.0000 C   0  0  1  0  0  0  0  0  0  0  0  0
    6.0206   -8.2764    0.0000 C   0  0  1  0  0  0  0  0  0  0  0  0
    6.7350   -8.6889    0.0000 O   0  0  0  0  0  0  0  0  0  0  0  0
    7.4495   -8.2764    0.0000 C   0  0  0  0  0  0  0  0  0  0  0  0
    7.4495   -7.4514    0.0000 C   0  0  0  0  0  0  0  0  0  0  0  0
    6.7350   -7.0389    0.0000 C   0  0  0  0  0  0  0  0  0  0  0  0
    8.1640   -8.6889    0.0000 C   0  0  0  0  0  0  0  0  0  0  0  0
    8.8784   -8.2764    0.0000 C   0  0  0  0  0  0  0  0  0  0  0  0
    8.8784   -7.4514    0.0000 C   0  0  0  0  0  0  0  0  0  0  0  0
    8.1640   -7.0389    0.0000 C   0  0  0  0  0  0  0  0  0  0  0  0
    9.5929   -8.6889    0.0000 O   0  0  0  0  0  0  0  0  0  0  0  0
   10.3074   -8.2764    0.0000 C   0  0  0  0  0  0  0  0  0  0  0  0
   10.3074   -7.4514    0.0000 C   0  0  0  0  0  0  0  0  0  0  0  0
    9.5929   -7.0389    0.0000 C   0  0  0  0  0  0  0  0  0  0  0  0
    5.1956   -8.2764    0.0000 C   0  0  0  0  0  0  0  0  0  0  0  0
    5.6081   -8.9909    0.0000 C   0  0  0  0  0  0  0  0  0  0  0  0
   11.0219   -8.6889    0.0000 O   0  0  0  0  0  0  0  0  0  0  0  0
    5.3061   -7.0389    0.0000 O   0  0  0  0  0  0  0  0  0  0  0  0
    4.5916   -7.4514    0.0000 C   0  0  2  0  0  0  0  0  0  0  0  0
    3.8771   -7.0389    0.0000 O   0  0  0  0  0  0  0  0  0  0  0  0
    3.1627   -7.4514    0.0000 C   0  0  1  0  0  0  0  0  0  0  0  0
    3.1627   -8.2764    0.0000 C   0  0  2  0  0  0  0  0  0  0  0  0
    3.8771   -8.6889    0.0000 C   0  0  1  0  0  0  0  0  0  0  0  0
    4.5916   -8.2764    0.0000 C   0  0  1  0  0  0  0  0  0  0  0  0
    2.4482   -7.0389    0.0000 C   0  0  0  0  0  0  0  0  0  0  0  0
    3.8771   -9.5139    0.0000 O   0  0  0  0  0  0  0  0  0  0  0  0
    5.3061   -8.6889    0.0000 O   0  0  0  0  0  0  0  0  0  0  0  0
    2.4482   -8.6889    0.0000 O   0  0  0  0  0  0  0  0  0  0  0  0
    1.7337   -7.4514    0.0000 O   0  0  0  0  0  0  0  0  0  0  0  0
  1  2  1  0  0  0  0
  2  3  1  0  0  0  0
  3  4  1  0  0  0  0
  4  5  1  0  0  0  0
  5  6  1  0  0  0  0
  6  1  1  0  0  0  0
  4  7  2  0  0  0  0
  7  8  1  0  0  0  0
  8  9  2  0  0  0  0
  9 10  1  0  0  0  0
 10  5  2  0  0  0  0
  8 11  1  0  0  0  0
 11 12  1  0  0  0  0
 12 13  1  0  0  0  0
 13 14  2  0  0  0  0
 14  9  1  0  0  0  0
  2 15  1  1  0  0  0
  2 16  1  6  0  0  0
 12 17  2  0  0  0  0
  1 18  1  6  0  0  0
 19 18  1  1  0  0  0
 19 20  1  0  0  0  0
 20 21  1  0  0  0  0
 21 22  1  0  0  0  0
 22 23  1  0  0  0  0
 23 24  1  0  0  0  0
 24 19  1  0  0  0  0
 21 25  1  1  0  0  0
 23 26  1  1  0  0  0
 24 27  1  6  0  0  0
 22 28  1  6  0  0  0
 25 29  1  0  0  0  0
M  END
>  <cdx:fragmentId>
5

$$$$
