70345.cdx
  Mrv1902 05222410242D          

 71 78  0  0  0  0            999 V2000
    3.0642   -6.4952    0.0000 O   0  0  0  0  0  0  0  0  0  0  0  0
    2.3508   -7.7333    0.0000 C   0  0  0  0  0  0  0  0  0  0  0  0
    3.0649   -7.3202    0.0000 C   0  0  0  0  0  0  0  0  0  0  0  0
   13.1020  -11.3579    0.0000 O   0  0  0  0  0  0  0  0  0  0  0  0
    8.8077  -10.5729    0.0000 C   0  0  0  0  0  0  0  0  0  0  0  0
    2.3739  -10.2203    0.0000 O   0  0  0  0  0  0  0  0  0  0  0  0
    0.9527  -11.0586    0.0000 O   0  0  0  0  0  0  0  0  0  0  0  0
    2.4047  -13.5202    0.0000 C   0  0  0  0  0  0  0  0  0  0  0  0
    7.3635   -8.9363    0.0000 O   0  0  0  0  0  0  0  0  0  0  0  0
    5.9115   -6.4747    0.0000 O   0  0  0  0  0  0  0  0  0  0  0  0
    0.9681  -12.7085    0.0000 O   0  0  0  0  0  0  0  0  0  0  0  0
    5.2624  -13.4936    0.0000 O   0  0  0  0  0  0  0  0  0  0  0  0
    7.3481   -7.2864    0.0000 O   0  0  0  0  0  0  0  0  0  0  0  0
   13.8050  -10.1138    0.0000 O   0  0  0  0  0  0  0  0  0  0  0  0
   13.0944  -10.5330    0.0000 C   0  0  0  0  0  0  0  0  0  0  0  0
    3.7797   -7.7321    0.0000 O   0  0  0  0  0  0  0  0  0  0  0  0
    4.4903   -7.3130    0.0000 C   0  0  0  0  0  0  0  0  0  0  0  0
   13.0867   -9.7080    0.0000 C   0  0  0  0  0  0  0  0  0  0  0  0
   13.0790   -8.8830    0.0000 C   0  0  0  0  0  0  0  0  0  0  0  0
   12.3607   -8.4772    0.0000 C   0  0  1  0  0  0  0  0  0  0  0  0
   11.6501   -8.8963    0.0000 C   0  0  0  0  0  0  0  0  0  0  0  0
   11.6732  -11.3712    0.0000 C   0  0  0  0  0  0  0  0  0  0  0  0
   12.3838  -10.9521    0.0000 C   0  0  1  0  0  0  0  0  0  0  0  0
   12.3761  -10.1271    0.0000 C   0  0  1  0  0  0  0  0  0  0  0  0
   11.6578   -9.7213    0.0000 C   0  0  2  0  0  0  0  0  0  0  0  0
   10.9549  -10.9654    0.0000 C   0  0  2  0  0  0  0  0  0  0  0  0
   10.9472  -10.1405    0.0000 C   0  0  0  0  0  0  0  0  0  0  0  0
   10.2289   -9.7346    0.0000 C   0  0  0  0  0  0  0  0  0  0  0  0
    9.5183  -10.1538    0.0000 C   0  0  0  0  0  0  0  0  0  0  0  0
    9.5414  -12.6287    0.0000 C   0  0  0  0  0  0  0  0  0  0  0  0
   10.2520  -12.2095    0.0000 C   0  0  0  0  0  0  0  0  0  0  0  0
   10.2443  -11.3846    0.0000 C   0  0  2  0  0  0  0  0  0  0  0  0
    9.5260  -10.9787    0.0000 C   0  0  1  0  0  0  0  0  0  0  0  0
    8.1125  -12.6420    0.0000 C   0  0  2  0  0  0  0  0  0  0  0  0
    8.8231  -12.2228    0.0000 C   0  0  1  0  0  0  0  0  0  0  0  0
    8.8154  -11.3979    0.0000 C   0  0  1  0  0  0  0  0  0  0  0  0
    8.0971  -10.9920    0.0000 C   0  0  0  0  0  0  0  0  0  0  0  0
    6.6836  -12.6553    0.0000 O   0  0  0  0  0  0  0  0  0  0  0  0
    7.3942  -12.2361    0.0000 C   0  0  1  0  0  0  0  0  0  0  0  0
    7.3865  -11.4112    0.0000 C   0  0  0  0  0  0  0  0  0  0  0  0
    2.3816  -11.0453    0.0000 C   0  0  2  0  0  0  0  0  0  0  0  0
    1.6710  -11.4644    0.0000 C   0  0  1  0  0  0  0  0  0  0  0  0
    1.6787  -12.2894    0.0000 C   0  0  2  0  0  0  0  0  0  0  0  0
    2.3970  -12.6952    0.0000 C   0  0  1  0  0  0  0  0  0  0  0  0
    3.0999  -11.4511    0.0000 C   0  0  1  0  0  0  0  0  0  0  0  0
    3.1076  -12.2761    0.0000 O   0  0  0  0  0  0  0  0  0  0  0  0
    3.8259  -12.6819    0.0000 O   0  0  0  0  0  0  0  0  0  0  0  0
    4.5365  -12.2628    0.0000 C   0  0  2  0  0  0  0  0  0  0  0  0
    5.2547  -12.6686    0.0000 C   0  0  2  0  0  0  0  0  0  0  0  0
    5.9653  -12.2495    0.0000 C   0  0  1  0  0  0  0  0  0  0  0  0
    5.9576  -11.4245    0.0000 O   0  0  0  0  0  0  0  0  0  0  0  0
    3.8105  -11.0320    0.0000 O   0  0  0  0  0  0  0  0  0  0  0  0
    4.5288  -11.4378    0.0000 C   0  0  2  0  0  0  0  0  0  0  0  0
    5.2394  -11.0187    0.0000 C   0  0  1  0  0  0  0  0  0  0  0  0
    5.2317  -10.1937    0.0000 C   0  0  0  0  0  0  0  0  0  0  0  0
    5.9423   -9.7746    0.0000 O   0  0  0  0  0  0  0  0  0  0  0  0
    5.2163   -8.5438    0.0000 O   0  0  0  0  0  0  0  0  0  0  0  0
    5.9346   -8.9496    0.0000 C   0  0  2  0  0  0  0  0  0  0  0  0
    6.6452   -8.5305    0.0000 C   0  0  1  0  0  0  0  0  0  0  0  0
    6.6375   -7.7055    0.0000 C   0  0  2  0  0  0  0  0  0  0  0  0
    5.9192   -7.2997    0.0000 C   0  0  1  0  0  0  0  0  0  0  0  0
    5.2086   -7.7188    0.0000 C   0  0  1  0  0  0  0  0  0  0  0  0
    7.7000  -13.3564    0.0000 C   0  0  0  0  0  0  0  0  0  0  0  0
    8.5250  -13.3564    0.0000 C   0  0  0  0  0  0  0  0  0  0  0  0
   10.2443  -10.5596    0.0000 C   0  0  0  0  0  0  0  0  0  0  0  0
   10.9549  -11.7904    0.0000 C   0  0  0  0  0  0  0  0  0  0  0  0
   11.9482   -7.7627    0.0000 C   0  0  0  0  0  0  0  0  0  0  0  0
   12.7732   -7.7627    0.0000 C   0  0  0  0  0  0  0  0  0  0  0  0
   11.6578  -10.5463    0.0000 H   0  0  0  0  0  0  0  0  0  0  0  0
    8.8231  -13.0478    0.0000 H   0  0  0  0  0  0  0  0  0  0  0  0
    9.5260  -11.8037    0.0000 H   0  0  0  0  0  0  0  0  0  0  0  0
  3  1  2  0  0  0  0
  3  2  1  0  0  0  0
 16  3  1  0  0  0  0
 23  4  1  1  0  0  0
 36  5  1  1  0  0  0
 41  6  1  1  0  0  0
 42  7  1  1  0  0  0
 44  8  1  1  0  0  0
 59  9  1  1  0  0  0
 61 10  1  1  0  0  0
 43 11  1  6  0  0  0
 49 12  1  6  0  0  0
 60 13  1  6  0  0  0
 15 14  1  0  0  0  0
 24 15  1  1  0  0  0
 17 16  1  0  0  0  0
 62 17  1  6  0  0  0
 18 24  1  0  0  0  0
 19 18  1  0  0  0  0
 20 19  1  0  0  0  0
 21 20  1  0  0  0  0
 25 21  1  0  0  0  0
 22 26  1  0  0  0  0
 23 22  1  0  0  0  0
 24 23  1  0  0  0  0
 25 24  1  0  0  0  0
 27 25  1  0  0  0  0
 26 32  1  0  0  0  0
 27 26  1  0  0  0  0
 28 27  2  0  0  0  0
 29 28  1  0  0  0  0
 33 29  1  0  0  0  0
 30 35  1  0  0  0  0
 31 30  1  0  0  0  0
 32 31  1  0  0  0  0
 33 32  1  0  0  0  0
 36 33  1  0  0  0  0
 34 39  1  0  0  0  0
 35 34  1  0  0  0  0
 36 35  1  0  0  0  0
 37 36  1  0  0  0  0
 40 37  1  0  0  0  0
 50 38  1  1  0  0  0
 39 38  1  1  0  0  0
 40 39  1  0  0  0  0
 41 45  1  0  0  0  0
 42 41  1  0  0  0  0
 43 42  1  0  0  0  0
 44 43  1  0  0  0  0
 46 44  1  0  0  0  0
 45 52  1  6  0  0  0
 46 45  1  0  0  0  0
 48 47  1  1  0  0  0
 48 53  1  0  0  0  0
 49 48  1  0  0  0  0
 50 49  1  0  0  0  0
 51 50  1  0  0  0  0
 54 51  1  0  0  0  0
 53 52  1  6  0  0  0
 54 53  1  0  0  0  0
 54 55  1  1  0  0  0
 56 55  1  0  0  0  0
 58 56  1  6  0  0  0
 57 62  1  0  0  0  0
 58 57  1  0  0  0  0
 59 58  1  0  0  0  0
 60 59  1  0  0  0  0
 61 60  1  0  0  0  0
 62 61  1  0  0  0  0
 34 63  1  1  0  0  0
 34 64  1  6  0  0  0
 32 65  1  1  0  0  0
 26 66  1  6  0  0  0
 20 67  1  1  0  0  0
 20 68  1  6  0  0  0
 25 69  1  1  0  0  0
 35 70  1  6  0  0  0
 33 71  1  6  0  0  0
M  END
>  <cdx:fragmentId>
5

$$$$
