70346.cdx
  Mrv1902 05222410252D          

 60 67  0  0  0  0            999 V2000
    5.3130   -8.0282    0.0000 C   0  0  0  0  0  0  0  0  0  0  0  0
    5.3092   -8.8532    0.0000 C   0  0  2  0  0  0  0  0  0  0  0  0
    4.5928   -9.2624    0.0000 C   0  0  2  0  0  0  0  0  0  0  0  0
    3.8802   -8.8466    0.0000 O   0  0  0  0  0  0  0  0  0  0  0  0
    6.0217   -9.2690    0.0000 O   0  0  0  0  0  0  0  0  0  0  0  0
    6.0179  -10.0940    0.0000 C   0  0  2  0  0  0  0  0  0  0  0  0
    5.3016  -10.5032    0.0000 C   0  0  1  0  0  0  0  0  0  0  0  0
    4.5890  -10.0874    0.0000 C   0  0  1  0  0  0  0  0  0  0  0  0
    3.8726  -10.4966    0.0000 O   0  0  0  0  0  0  0  0  0  0  0  0
    7.4506   -9.2756    0.0000 C   0  0  0  0  0  0  0  0  0  0  0  0
    7.4468  -10.1006    0.0000 C   0  0  2  0  0  0  0  0  0  0  0  0
    6.7305  -10.5098    0.0000 O   0  0  0  0  0  0  0  0  0  0  0  0
    8.1670   -8.8664    0.0000 C   0  0  0  0  0  0  0  0  0  0  0  0
    8.8796   -9.2822    0.0000 C   0  0  1  0  0  0  0  0  0  0  0  0
    8.8758  -10.1072    0.0000 C   0  0  2  0  0  0  0  0  0  0  0  0
    8.1594  -10.5164    0.0000 C   0  0  1  0  0  0  0  0  0  0  0  0
    9.5959   -8.8730    0.0000 C   0  0  2  0  0  0  0  0  0  0  0  0
   10.3085   -9.2888    0.0000 C   0  0  1  0  0  0  0  0  0  0  0  0
   10.3047  -10.1138    0.0000 C   0  0  0  0  0  0  0  0  0  0  0  0
    9.5883  -10.5230    0.0000 C   0  0  0  0  0  0  0  0  0  0  0  0
    9.5997   -8.0480    0.0000 C   0  0  0  0  0  0  0  0  0  0  0  0
   10.3161   -7.6388    0.0000 C   0  0  0  0  0  0  0  0  0  0  0  0
   11.0287   -8.0546    0.0000 C   0  0  0  0  0  0  0  0  0  0  0  0
   11.0249   -8.8796    0.0000 C   0  0  1  0  0  0  0  0  0  0  0  0
   11.7450   -7.6454    0.0000 C   0  0  1  0  0  0  0  0  0  0  0  0
   12.4576   -8.0612    0.0000 C   0  0  0  0  0  0  0  0  0  0  0  0
   12.4538   -8.8862    0.0000 C   0  0  2  0  0  0  0  0  0  0  0  0
   11.7374   -9.2954    0.0000 C   0  0  0  0  0  0  0  0  0  0  0  0
   11.7488   -6.8204    0.0000 C   0  0  0  0  0  0  0  0  0  0  0  0
   12.4652   -6.4112    0.0000 C   0  0  2  0  0  0  0  0  0  0  0  0
   13.1778   -6.8270    0.0000 C   0  0  0  0  0  0  0  0  0  0  0  0
   13.1740   -7.6520    0.0000 C   0  0  0  0  0  0  0  0  0  0  0  0
    5.2977  -11.3282    0.0000 O   0  0  0  0  0  0  0  0  0  0  0  0
    8.8834   -8.4572    0.0000 C   0  0  0  0  0  0  0  0  0  0  0  0
   13.1664   -9.3020    0.0000 O   0  0  0  0  0  0  0  0  0  0  0  0
    3.1564  -10.0872    0.0000 C   0  0  2  0  0  0  0  0  0  0  0  0
    3.1529   -9.2622    0.0000 O   0  0  0  0  0  0  0  0  0  0  0  0
    2.4367   -8.8527    0.0000 C   0  0  1  0  0  0  0  0  0  0  0  0
    1.7240   -9.2682    0.0000 C   0  0  2  0  0  0  0  0  0  0  0  0
    1.7275  -10.0932    0.0000 C   0  0  1  0  0  0  0  0  0  0  0  0
    2.4437  -10.5027    0.0000 C   0  0  1  0  0  0  0  0  0  0  0  0
    2.4332   -8.0277    0.0000 C   0  0  0  0  0  0  0  0  0  0  0  0
    1.0148  -10.5088    0.0000 O   0  0  0  0  0  0  0  0  0  0  0  0
    1.0078   -8.8588    0.0000 O   0  0  0  0  0  0  0  0  0  0  0  0
    2.4472  -11.3277    0.0000 O   0  0  0  0  0  0  0  0  0  0  0  0
    3.1459   -7.6122    0.0000 O   0  0  0  0  0  0  0  0  0  0  0  0
    3.1424   -6.7872    0.0000 C   0  0  0  0  0  0  0  0  0  0  0  0
    3.8551   -6.3717    0.0000 C   0  0  0  0  0  0  0  0  0  0  0  0
    2.4262   -6.3777    0.0000 O   0  0  0  0  0  0  0  0  0  0  0  0
   12.0527   -5.6967    0.0000 C   0  0  0  0  0  0  0  0  0  0  0  0
   12.8777   -5.6967    0.0000 C   0  0  0  0  0  0  0  0  0  0  0  0
   11.0287   -7.2296    0.0000 O   0  0  0  0  0  0  0  0  0  0  0  0
   12.4576   -7.2362    0.0000 C   0  0  0  0  0  0  0  0  0  0  0  0
   10.3085   -8.4638    0.0000 C   0  0  0  0  0  0  0  0  0  0  0  0
   11.0249   -9.7046    0.0000 C   0  0  0  0  0  0  0  0  0  0  0  0
    7.7469  -11.2309    0.0000 C   0  0  0  0  0  0  0  0  0  0  0  0
    8.5719  -11.2309    0.0000 C   0  0  0  0  0  0  0  0  0  0  0  0
    8.8758  -10.9322    0.0000 H   0  0  0  0  0  0  0  0  0  0  0  0
    9.5959   -9.6980    0.0000 H   0  0  0  0  0  0  0  0  0  0  0  0
   11.7450   -8.4704    0.0000 H   0  0  0  0  0  0  0  0  0  0  0  0
  2  1  1  1  0  0  0
  2  3  1  0  0  0  0
  3  4  1  1  0  0  0
  2  5  1  0  0  0  0
  5  6  1  0  0  0  0
  6  7  1  0  0  0  0
  7  8  1  0  0  0  0
  8  3  1  0  0  0  0
  8  9  1  1  0  0  0
 10 11  1  0  0  0  0
 11 12  1  1  0  0  0
  6 12  1  1  0  0  0
 10 13  1  0  0  0  0
 13 14  1  0  0  0  0
 14 15  1  0  0  0  0
 15 16  1  0  0  0  0
 16 11  1  0  0  0  0
 14 17  1  0  0  0  0
 17 18  1  0  0  0  0
 18 19  1  0  0  0  0
 19 20  1  0  0  0  0
 20 15  1  0  0  0  0
 17 21  1  0  0  0  0
 21 22  2  0  0  0  0
 22 23  1  0  0  0  0
 23 24  1  0  0  0  0
 24 18  1  0  0  0  0
 23 25  1  0  0  0  0
 25 26  1  0  0  0  0
 26 27  1  0  0  0  0
 27 28  1  0  0  0  0
 28 24  1  0  0  0  0
 25 29  1  0  0  0  0
 29 30  1  0  0  0  0
 30 31  1  0  0  0  0
 31 32  1  0  0  0  0
 32 26  1  0  0  0  0
  7 33  1  6  0  0  0
 14 34  1  1  0  0  0
 27 35  1  1  0  0  0
 36  9  1  1  0  0  0
 36 37  1  0  0  0  0
 37 38  1  0  0  0  0
 38 39  1  0  0  0  0
 39 40  1  0  0  0  0
 40 41  1  0  0  0  0
 41 36  1  0  0  0  0
 38 42  1  1  0  0  0
 40 43  1  1  0  0  0
 39 44  1  6  0  0  0
 41 45  1  6  0  0  0
 42 46  1  0  0  0  0
 46 47  1  0  0  0  0
 47 48  1  0  0  0  0
 47 49  2  0  0  0  0
 30 50  1  1  0  0  0
 30 51  1  6  0  0  0
 23 52  1  0  0  0  0
 26 53  1  0  0  0  0
 53 52  1  0  0  0  0
 18 54  1  1  0  0  0
 24 55  1  6  0  0  0
 16 56  1  1  0  0  0
 16 57  1  6  0  0  0
 15 58  1  6  0  0  0
 17 59  1  6  0  0  0
 25 60  1  1  0  0  0
M  END
>  <cdx:fragmentId>
5

$$$$
