70341.cdx
  Mrv1902 05222410242D          

 16 17  0  0  0  0            999 V2000
    4.2606   -8.3589    0.0000 C   0  0  0  0  0  0  0  0  0  0  0  0
    4.2606   -9.1839    0.0000 C   0  0  0  0  0  0  0  0  0  0  0  0
    4.9750   -9.5964    0.0000 C   0  0  0  0  0  0  0  0  0  0  0  0
    5.6895   -9.1839    0.0000 C   0  0  0  0  0  0  0  0  0  0  0  0
    5.6895   -8.3589    0.0000 C   0  0  0  0  0  0  0  0  0  0  0  0
    4.9750   -7.9464    0.0000 C   0  0  0  0  0  0  0  0  0  0  0  0
    6.4040   -9.5964    0.0000 C   0  0  0  0  0  0  0  0  0  0  0  0
    7.1184   -9.1839    0.0000 C   0  0  0  0  0  0  0  0  0  0  0  0
    7.1184   -8.3589    0.0000 C   0  0  0  0  0  0  0  0  0  0  0  0
    6.4040   -7.9464    0.0000 C   0  0  0  0  0  0  0  0  0  0  0  0
    3.5461   -7.9464    0.0000 C   0  0  0  0  0  0  0  0  0  0  0  0
    3.5461   -7.1214    0.0000 C   0  0  0  0  0  0  0  0  0  0  0  0
    2.8316   -8.3589    0.0000 C   0  0  0  0  0  0  0  0  0  0  0  0
    5.6895  -10.0089    0.0000 C   0  0  0  0  0  0  0  0  0  0  0  0
    6.4040   -7.1214    0.0000 C   0  0  0  0  0  0  0  0  0  0  0  0
    7.8329   -9.5964    0.0000 O   0  0  0  0  0  0  0  0  0  0  0  0
  1  2  1  0  0  0  0
  2  3  1  0  0  0  0
  3  4  1  0  0  0  0
  4  5  1  0  0  0  0
  5  6  1  0  0  0  0
  6  1  1  0  0  0  0
  4  7  1  0  0  0  0
  7  8  1  0  0  0  0
  8  9  1  0  0  0  0
  9 10  1  0  0  0  0
 10  5  2  0  0  0  0
  1 11  1  0  0  0  0
 11 12  2  0  0  0  0
 11 13  1  0  0  0  0
  4 14  1  0  0  0  0
 10 15  1  0  0  0  0
  8 16  2  0  0  0  0
M  END
>  <cdx:fragmentId>
5

$$$$
