70349.cdx
  Mrv1902 05222410212D          

 31 32  0  0  0  0            999 V2000
    5.4595  -10.2817    0.0000 C   0  0  0  0  0  0  0  0  0  0  0  0
    5.5921  -10.7586    0.0000 C   0  0  0  0  0  0  0  0  0  0  0  0
    6.0866  -10.7799    0.0000 C   0  0  0  0  0  0  0  0  0  0  0  0
    6.2597  -10.3162    0.0000 C   0  0  0  0  0  0  0  0  0  0  0  0
    5.8721  -10.0082    0.0000 O   0  0  0  0  0  0  0  0  0  0  0  0
    6.7366  -10.1836    0.0000 C   0  0  0  0  0  0  0  0  0  0  0  0
    7.2095  -10.3299    0.0000 C   0  0  0  0  0  0  0  0  0  0  0  0
    6.4002   -9.8205    0.0000 C   0  0  0  0  0  0  0  0  0  0  0  0
    7.0998   -9.8472    0.0000 C   0  0  0  0  0  0  0  0  0  0  0  0
    7.3691  -10.7985    0.0000 C   0  0  0  0  0  0  0  0  0  0  0  0
    7.8640  -10.7915    0.0000 C   0  0  0  0  0  0  0  0  0  0  0  0
    8.0103  -10.3186    0.0000 C   0  0  0  0  0  0  0  0  0  0  0  0
    7.6058  -10.0333    0.0000 O   0  0  0  0  0  0  0  0  0  0  0  0
    8.4789  -10.1590    0.0000 C   0  0  0  0  0  0  0  0  0  0  0  0
    8.8978  -10.4227    0.0000 C   0  0  0  0  0  0  0  0  0  0  0  0
    9.3805  -10.3130    0.0000 C   0  0  0  0  0  0  0  0  0  0  0  0
    9.8632  -10.2033    0.0000 C   0  0  0  0  0  0  0  0  0  0  0  0
   10.3459  -10.0935    0.0000 C   0  0  0  0  0  0  0  0  0  0  0  0
   10.8285   -9.9838    0.0000 C   0  0  0  0  0  0  0  0  0  0  0  0
   11.3112   -9.8740    0.0000 C   0  0  0  0  0  0  0  0  0  0  0  0
   11.7301  -10.1378    0.0000 C   0  0  0  0  0  0  0  0  0  0  0  0
   12.2128  -10.0280    0.0000 C   0  0  0  0  0  0  0  0  0  0  0  0
    1.2335  -10.0220    0.0000 C   0  0  0  0  0  0  0  0  0  0  0  0
    1.6999  -10.1879    0.0000 C   0  0  0  0  0  0  0  0  0  0  0  0
    2.1223   -9.9299    0.0000 C   0  0  0  0  0  0  0  0  0  0  0  0
    2.6035  -10.0462    0.0000 C   0  0  0  0  0  0  0  0  0  0  0  0
    3.0846  -10.1625    0.0000 C   0  0  0  0  0  0  0  0  0  0  0  0
    3.5658  -10.2788    0.0000 C   0  0  0  0  0  0  0  0  0  0  0  0
    4.0469  -10.3950    0.0000 C   0  0  0  0  0  0  0  0  0  0  0  0
    4.5281  -10.5113    0.0000 C   0  0  0  0  0  0  0  0  0  0  0  0
    4.9505  -10.2533    0.0000 C   0  0  0  0  0  0  0  0  0  0  0  0
  1  2  2  0  0  0  0
  2  3  1  0  0  0  0
  3  4  2  0  0  0  0
  4  5  1  0  0  0  0
  5  1  1  0  0  0  0
  4  6  1  0  0  0  0
  6  7  1  0  0  0  0
  6  8  1  0  0  0  0
  6  9  1  0  0  0  0
  7 10  2  0  0  0  0
 10 11  1  0  0  0  0
 11 12  2  0  0  0  0
 12 13  1  0  0  0  0
 13  7  1  0  0  0  0
 12 14  1  0  0  0  0
 14 15  2  0  0  0  0
 15 16  1  0  0  0  0
 16 17  3  0  0  0  0
 17 18  1  0  0  0  0
 18 19  3  0  0  0  0
 19 20  1  0  0  0  0
 20 21  2  0  0  0  0
 21 22  1  0  0  0  0
 23 24  1  0  0  0  0
 24 25  2  0  0  0  0
 25 26  1  0  0  0  0
 26 27  3  0  0  0  0
 27 28  1  0  0  0  0
 28 29  3  0  0  0  0
 29 30  1  0  0  0  0
 30 31  2  0  0  0  0
 31  1  1  0  0  0  0
M  END
>  <cdx:fragmentId>
5

$$$$
