70358.cdx
  Mrv1902 05222410222D          

 13 13  0  0  0  0            999 V2000
    6.3093   -6.8876    0.0000 C   0  0  0  0  0  0  0  0  0  0  0  0
    6.3093   -7.7126    0.0000 C   0  0  0  0  0  0  0  0  0  0  0  0
    7.0238   -8.1251    0.0000 C   0  0  0  0  0  0  0  0  0  0  0  0
    7.7382   -7.7126    0.0000 C   0  0  0  0  0  0  0  0  0  0  0  0
    7.7382   -6.8876    0.0000 C   0  0  0  0  0  0  0  0  0  0  0  0
    7.0238   -6.4751    0.0000 C   0  0  0  0  0  0  0  0  0  0  0  0
    5.5948   -6.4751    0.0000 O   0  0  0  0  0  0  0  0  0  0  0  0
    4.8804   -6.8876    0.0000 C   0  0  0  0  0  0  0  0  0  0  0  0
    7.0238   -8.9501    0.0000 O   0  0  0  0  0  0  0  0  0  0  0  0
    8.4527   -8.1251    0.0000 O   0  0  0  0  0  0  0  0  0  0  0  0
    8.4527   -6.4751    0.0000 N   0  0  0  0  0  0  0  0  0  0  0  0
    9.1672   -6.8876    0.0000 C   0  0  0  0  0  0  0  0  0  0  0  0
    9.8817   -6.4751    0.0000 C   0  0  0  0  0  0  0  0  0  0  0  0
  1  2  2  0  0  0  0
  2  3  1  0  0  0  0
  3  4  1  0  0  0  0
  4  5  1  0  0  0  0
  5  6  2  0  0  0  0
  6  1  1  0  0  0  0
  1  7  1  0  0  0  0
  7  8  1  0  0  0  0
  3  9  2  0  0  0  0
  4 10  2  0  0  0  0
  5 11  1  0  0  0  0
 11 12  1  0  0  0  0
 12 13  1  0  0  0  0
M  END
>  <cdx:fragmentId>
5

$$$$
