70356.cdx
  Mrv1902 05222410242D          

 14 15  0  0  0  0            999 V2000
    3.6281   -7.2314    0.0000 C   0  0  0  0  0  0  0  0  0  0  0  0
    3.6281   -8.0564    0.0000 C   0  0  0  0  0  0  0  0  0  0  0  0
    4.3425   -8.4689    0.0000 C   0  0  0  0  0  0  0  0  0  0  0  0
    5.0570   -8.0564    0.0000 C   0  0  0  0  0  0  0  0  0  0  0  0
    5.0570   -7.2314    0.0000 C   0  0  0  0  0  0  0  0  0  0  0  0
    4.3425   -6.8189    0.0000 C   0  0  0  0  0  0  0  0  0  0  0  0
    5.8416   -8.3113    0.0000 C   0  0  0  0  0  0  0  0  0  0  0  0
    6.3265   -7.6439    0.0000 O   0  0  0  0  0  0  0  0  0  0  0  0
    5.8416   -6.9765    0.0000 C   0  0  0  0  0  0  0  0  0  0  0  0
    6.0966   -9.0960    0.0000 O   0  0  0  0  0  0  0  0  0  0  0  0
    6.0966   -6.1918    0.0000 C   0  0  0  0  0  0  0  0  0  0  0  0
    6.8934   -5.9783    0.0000 C   0  0  0  0  0  0  0  0  0  0  0  0
    7.1070   -5.1814    0.0000 C   0  0  0  0  0  0  0  0  0  0  0  0
    7.9039   -4.9679    0.0000 C   0  0  0  0  0  0  0  0  0  0  0  0
  1  2  1  0  0  0  0
  2  3  2  0  0  0  0
  3  4  1  0  0  0  0
  4  5  2  0  0  0  0
  5  6  1  0  0  0  0
  6  1  1  0  0  0  0
  4  7  1  0  0  0  0
  7  8  1  0  0  0  0
  8  9  1  0  0  0  0
  9  5  1  0  0  0  0
  7 10  1  0  0  0  0
  9 11  2  0  0  0  0
 11 12  1  0  0  0  0
 12 13  1  0  0  0  0
 13 14  1  0  0  0  0
M  END
>  <cdx:fragmentId>
5

$$$$
