70357.cdx
  Mrv1902 05222410232D          

 15 15  0  0  0  0            999 V2000
    4.7143   -7.2176    0.0000 C   0  0  0  0  0  0  0  0  0  0  0  0
    4.7143   -8.0426    0.0000 C   0  0  0  0  0  0  0  0  0  0  0  0
    5.4288   -8.4551    0.0000 C   0  0  0  0  0  0  0  0  0  0  0  0
    6.1432   -8.0426    0.0000 C   0  0  0  0  0  0  0  0  0  0  0  0
    6.1432   -7.2176    0.0000 C   0  0  0  0  0  0  0  0  0  0  0  0
    5.4288   -6.8051    0.0000 C   0  0  0  0  0  0  0  0  0  0  0  0
    3.9998   -6.8051    0.0000 O   0  0  0  0  0  0  0  0  0  0  0  0
    3.2854   -7.2176    0.0000 C   0  0  0  0  0  0  0  0  0  0  0  0
    5.4288   -9.2801    0.0000 O   0  0  0  0  0  0  0  0  0  0  0  0
    6.8577   -8.4551    0.0000 O   0  0  0  0  0  0  0  0  0  0  0  0
    6.8577   -6.8051    0.0000 N   0  0  0  0  0  0  0  0  0  0  0  0
    7.5722   -7.2176    0.0000 C   0  0  0  0  0  0  0  0  0  0  0  0
    6.8577   -5.9801    0.0000 C   0  0  0  0  0  0  0  0  0  0  0  0
    6.1432   -5.5676    0.0000 C   0  0  0  0  0  0  0  0  0  0  0  0
    8.2867   -6.8051    0.0000 C   0  0  0  0  0  0  0  0  0  0  0  0
  1  2  2  0  0  0  0
  2  3  1  0  0  0  0
  3  4  1  0  0  0  0
  4  5  1  0  0  0  0
  5  6  2  0  0  0  0
  6  1  1  0  0  0  0
  1  7  1  0  0  0  0
  7  8  1  0  0  0  0
  3  9  2  0  0  0  0
  4 10  2  0  0  0  0
  5 11  1  0  0  0  0
 11 12  1  0  0  0  0
 11 13  1  0  0  0  0
 13 14  1  0  0  0  0
 12 15  1  0  0  0  0
M  END
>  <cdx:fragmentId>
5

$$$$
