70352.cdx
  Mrv1902 05222410252D          

 28 32  0  0  0  0            999 V2000
    8.9452   -8.9779    0.0000 C   0  0  0  0  0  0  0  0  0  0  0  0
    8.9493   -9.8029    0.0000 C   0  0  0  0  0  0  0  0  0  0  0  0
    8.2369  -10.2189    0.0000 O   0  0  0  0  0  0  0  0  0  0  0  0
    8.2409  -11.0439    0.0000 C   0  0  0  0  0  0  0  0  0  0  0  0
    5.1932   -9.8856    0.0000 N   0  0  0  0  0  0  0  0  0  0  0  0
    5.2231   -9.0611    0.0000 C   0  0  0  0  0  0  0  0  0  0  0  0
    6.0165   -8.8348    0.0000 C   0  0  2  0  0  0  0  0  0  0  0  0
    6.4769   -9.5194    0.0000 C   0  0  0  0  0  0  0  0  0  0  0  0
    7.2937   -9.6353    0.0000 C   0  0  0  0  0  0  0  0  0  0  0  0
    7.6017  -10.4006    0.0000 C   0  0  0  0  0  0  0  0  0  0  0  0
    7.0929  -11.0500    0.0000 C   0  0  0  0  0  0  0  0  0  0  0  0
    6.2761  -10.9341    0.0000 C   0  0  0  0  0  0  0  0  0  0  0  0
    5.9681  -10.1688    0.0000 C   0  0  0  0  0  0  0  0  0  0  0  0
    5.5282   -8.1698    0.0000 C   0  0  0  0  0  0  0  0  0  0  0  0
    6.0099   -7.4999    0.0000 C   0  0  0  0  0  0  0  0  0  0  0  0
    6.7957   -7.7510    0.0000 N   0  0  0  0  0  0  0  0  0  0  0  0
    7.5082   -7.3350    0.0000 C   0  0  0  0  0  0  0  0  0  0  0  0
    8.2247   -7.7439    0.0000 C   0  0  2  0  0  0  0  0  0  0  0  0
    8.2287   -8.5689    0.0000 C   0  0  2  0  0  0  0  0  0  0  0  0
    7.5163   -8.9850    0.0000 C   0  0  0  0  0  0  0  0  0  0  0  0
    6.7998   -8.5760    0.0000 C   0  0  2  0  0  0  0  0  0  0  0  0
    4.5737   -8.5523    0.0000 O   0  0  0  0  0  0  0  0  0  0  0  0
    8.9371   -7.3279    0.0000 C   0  0  0  0  0  0  0  0  0  0  0  0
    8.9330   -6.5029    0.0000 C   0  0  0  0  0  0  0  0  0  0  0  0
   10.3742   -8.9709    0.0000 O   0  0  0  0  0  0  0  0  0  0  0  0
    9.6536   -7.7369    0.0000 O   0  0  0  0  0  0  0  0  0  0  0  0
    9.6577   -8.5619    0.0000 C   0  0  0  0  0  0  0  0  0  0  0  0
    7.3700   -7.9475    0.0000 O   0  0  0  0  0  0  0  0  0  0  0  0
 27 25  1  0  0  0  0
 27 26  2  0  0  0  0
 27  1  1  0  0  0  0
  1  2  2  0  0  0  0
  3  4  1  0  0  0  0
  2  3  1  0  0  0  0
  5  6  1  0  0  0  0
  6  7  1  0  0  0  0
  7  8  1  0  0  0  0
  8  9  1  0  0  0  0
  9 10  2  0  0  0  0
 10 11  1  0  0  0  0
 11 12  2  0  0  0  0
 12 13  1  0  0  0  0
  5 13  1  0  0  0  0
  8 13  2  0  0  0  0
 14 15  1  0  0  0  0
 15 16  1  0  0  0  0
 16 17  1  0  0  0  0
 17 18  1  0  0  0  0
 18 19  1  0  0  0  0
 19 20  1  0  0  0  0
 20 21  1  0  0  0  0
 16 21  1  0  0  0  0
  7 14  1  1  0  0  0
  7 21  1  0  0  0  0
  6 22  2  0  0  0  0
 23 24  1  0  0  0  0
 18 23  1  6  0  0  0
 19  1  1  1  0  0  0
 21 28  1  1  0  0  0
 18 28  1  1  0  0  0
M  END
>  <cdx:fragmentId>
39996

$$$$
