70351.cdx
  Mrv1902 05222410242D          

 60 66  0  0  0  0            999 V2000
    7.3131   -9.2801    0.0000 C   0  0  0  0  0  0  0  0  0  0  0  0
    7.3131  -10.1051    0.0000 C   0  0  1  0  0  0  0  0  0  0  0  0
    8.0275  -10.5176    0.0000 C   0  0  1  0  0  0  0  0  0  0  0  0
    8.7420  -10.1051    0.0000 C   0  0  1  0  0  0  0  0  0  0  0  0
    8.7420   -9.2801    0.0000 C   0  0  2  0  0  0  0  0  0  0  0  0
    8.0275   -8.8676    0.0000 C   0  0  0  0  0  0  0  0  0  0  0  0
    9.4565  -10.5176    0.0000 C   0  0  0  0  0  0  0  0  0  0  0  0
   10.1709  -10.1051    0.0000 C   0  0  0  0  0  0  0  0  0  0  0  0
   10.1709   -9.2801    0.0000 C   0  0  2  0  0  0  0  0  0  0  0  0
    9.4565   -8.8676    0.0000 C   0  0  2  0  0  0  0  0  0  0  0  0
   10.8854   -8.8676    0.0000 C   0  0  1  0  0  0  0  0  0  0  0  0
   10.8854   -8.0426    0.0000 C   0  0  0  0  0  0  0  0  0  0  0  0
   10.1709   -7.6301    0.0000 C   0  0  0  0  0  0  0  0  0  0  0  0
    9.4565   -8.0426    0.0000 C   0  0  0  0  0  0  0  0  0  0  0  0
   11.5999   -9.2801    0.0000 C   0  0  0  0  0  0  0  0  0  0  0  0
   12.3144   -8.8676    0.0000 C   0  0  2  0  0  0  0  0  0  0  0  0
   12.3144   -8.0426    0.0000 C   0  0  2  0  0  0  0  0  0  0  0  0
   11.5999   -7.6301    0.0000 C   0  0  0  0  0  0  0  0  0  0  0  0
   13.0288   -7.6301    0.0000 C   0  0  0  0  0  0  0  0  0  0  0  0
   13.0288   -6.8051    0.0000 C   0  0  0  0  0  0  0  0  0  0  0  0
   12.3144   -6.3926    0.0000 C   0  0  1  0  0  0  0  0  0  0  0  0
   11.5999   -6.8051    0.0000 C   0  0  0  0  0  0  0  0  0  0  0  0
    6.5986  -10.5176    0.0000 O   0  0  0  0  0  0  0  0  0  0  0  0
    5.8859  -10.1021    0.0000 C   0  0  2  0  0  0  0  0  0  0  0  0
    5.8895   -9.2771    0.0000 O   0  0  0  0  0  0  0  0  0  0  0  0
    5.1768   -8.8615    0.0000 C   0  0  1  0  0  0  0  0  0  0  0  0
    4.4605   -9.2709    0.0000 C   0  0  1  0  0  0  0  0  0  0  0  0
    4.4570  -10.0959    0.0000 C   0  0  1  0  0  0  0  0  0  0  0  0
    5.1697  -10.5115    0.0000 C   0  0  1  0  0  0  0  0  0  0  0  0
    5.1804   -8.0365    0.0000 C   0  0  0  0  0  0  0  0  0  0  0  0
    3.7479   -8.8553    0.0000 O   0  0  0  0  0  0  0  0  0  0  0  0
    5.1661  -11.3365    0.0000 O   0  0  0  0  0  0  0  0  0  0  0  0
    7.6150  -11.2321    0.0000 C   0  0  0  0  0  0  0  0  0  0  0  0
    8.7420   -8.4551    0.0000 C   0  0  0  0  0  0  0  0  0  0  0  0
   10.1709   -8.4551    0.0000 C   0  0  0  0  0  0  0  0  0  0  0  0
   13.0288   -8.4551    0.0000 C   0  0  0  0  0  0  0  0  0  0  0  0
   11.9019   -5.6782    0.0000 C   0  0  0  0  0  0  0  0  0  0  0  0
   12.7269   -5.6782    0.0000 C   0  0  0  0  0  0  0  0  0  0  0  0
   13.0288   -9.2801    0.0000 O   0  0  0  0  0  0  0  0  0  0  0  0
   10.8854   -9.6926    0.0000 C   0  0  0  0  0  0  0  0  0  0  0  0
    8.4400  -11.2321    0.0000 C   0  0  0  0  0  0  0  0  0  0  0  0
    8.0275  -11.9466    0.0000 O   0  0  0  0  0  0  0  0  0  0  0  0
   13.7433   -8.0426    0.0000 O   0  0  0  0  0  0  0  0  0  0  0  0
    3.7063  -10.5170    0.0000 O   0  0  0  0  0  0  0  0  0  0  0  0
    2.9936  -10.1015    0.0000 C   0  0  2  0  0  0  0  0  0  0  0  0
    2.9972   -9.2765    0.0000 O   0  0  0  0  0  0  0  0  0  0  0  0
    2.2845   -8.8609    0.0000 C   0  0  1  0  0  0  0  0  0  0  0  0
    1.5683   -9.2703    0.0000 C   0  0  2  0  0  0  0  0  0  0  0  0
    1.5647  -10.0953    0.0000 C   0  0  1  0  0  0  0  0  0  0  0  0
    2.2774  -10.5109    0.0000 C   0  0  1  0  0  0  0  0  0  0  0  0
    2.2881   -8.0359    0.0000 C   0  0  0  0  0  0  0  0  0  0  0  0
    0.8484  -10.5047    0.0000 O   0  0  0  0  0  0  0  0  0  0  0  0
    0.8556   -8.8547    0.0000 O   0  0  0  0  0  0  0  0  0  0  0  0
    2.2738  -11.3358    0.0000 O   0  0  0  0  0  0  0  0  0  0  0  0
    1.5754   -7.6203    0.0000 O   0  0  0  0  0  0  0  0  0  0  0  0
    1.5790   -6.7953    0.0000 C   0  0  0  0  0  0  0  0  0  0  0  0
    0.8663   -6.3797    0.0000 C   0  0  0  0  0  0  0  0  0  0  0  0
    2.2952   -6.3859    0.0000 O   0  0  0  0  0  0  0  0  0  0  0  0
    8.7420  -10.9301    0.0000 H   0  0  0  0  0  0  0  0  0  0  0  0
    9.4565   -9.6926    0.0000 H   0  0  0  0  0  0  0  0  0  0  0  0
  1  2  1  0  0  0  0
  2  3  1  0  0  0  0
  3  4  1  0  0  0  0
  4  5  1  0  0  0  0
  5  6  1  0  0  0  0
  6  1  1  0  0  0  0
  4  7  1  0  0  0  0
  7  8  1  0  0  0  0
  8  9  1  0  0  0  0
  9 10  1  0  0  0  0
 10  5  1  0  0  0  0
  9 11  1  0  0  0  0
 11 12  1  0  0  0  0
 12 13  1  0  0  0  0
 13 14  2  0  0  0  0
 14 10  1  0  0  0  0
 11 15  1  0  0  0  0
 15 16  1  0  0  0  0
 16 17  1  0  0  0  0
 17 18  1  0  0  0  0
 18 12  2  0  0  0  0
 17 19  1  0  0  0  0
 19 20  1  0  0  0  0
 20 21  1  0  0  0  0
 21 22  1  0  0  0  0
 22 18  1  0  0  0  0
  2 23  1  1  0  0  0
 24 23  1  1  0  0  0
 24 25  1  0  0  0  0
 25 26  1  0  0  0  0
 26 27  1  0  0  0  0
 27 28  1  0  0  0  0
 28 29  1  0  0  0  0
 29 24  1  0  0  0  0
 26 30  1  1  0  0  0
 27 31  1  1  0  0  0
 29 32  1  6  0  0  0
  3 33  1  1  0  0  0
  5 34  1  1  0  0  0
  9 35  1  1  0  0  0
 17 36  1  1  0  0  0
 21 37  1  1  0  0  0
 21 38  1  6  0  0  0
 16 39  1  6  0  0  0
 11 40  1  6  0  0  0
  3 41  1  6  0  0  0
 41 42  1  0  0  0  0
 36 43  1  0  0  0  0
 45 44  1  1  0  0  0
 45 46  1  0  0  0  0
 46 47  1  0  0  0  0
 47 48  1  0  0  0  0
 48 49  1  0  0  0  0
 49 50  1  0  0  0  0
 50 45  1  0  0  0  0
 47 51  1  1  0  0  0
 49 52  1  1  0  0  0
 48 53  1  6  0  0  0
 50 54  1  6  0  0  0
 51 55  1  0  0  0  0
 28 44  1  1  0  0  0
 55 56  1  0  0  0  0
 56 57  1  0  0  0  0
 56 58  2  0  0  0  0
  4 59  1  6  0  0  0
 10 60  1  6  0  0  0
M  END
>  <cdx:fragmentId>
5

$$$$
