70362.cdx
  Mrv1902 05222410202D          

 26 27  0  0  0  0            999 V2000
    4.9756   -8.7164    0.0000 C   0  0  2  0  0  0  0  0  0  0  0  0
    4.9756   -9.5414    0.0000 C   0  0  2  0  0  0  0  0  0  0  0  0
    5.6900   -9.9539    0.0000 C   0  0  1  0  0  0  0  0  0  0  0  0
    6.4045   -9.5414    0.0000 C   0  0  2  0  0  0  0  0  0  0  0  0
    6.4045   -8.7164    0.0000 C   0  0  1  0  0  0  0  0  0  0  0  0
    5.6900   -8.3039    0.0000 O   0  0  0  0  0  0  0  0  0  0  0  0
    7.8334   -8.7164    0.0000 C   0  0  0  0  0  0  0  0  0  0  0  0
    7.1190   -8.3039    0.0000 O   0  0  0  0  0  0  0  0  0  0  0  0
    9.2624   -9.5414    0.0000 O   0  0  0  0  0  0  0  0  0  0  0  0
    9.2624   -8.7164    0.0000 C   0  0  2  0  0  0  0  0  0  0  0  0
    8.5479   -8.3039    0.0000 C   0  0  2  0  0  0  0  0  0  0  0  0
    9.9769   -8.3039    0.0000 C   0  0  0  0  0  0  0  0  0  0  0  0
    9.9769   -7.4789    0.0000 C   0  0  0  0  0  0  0  0  0  0  0  0
    8.5479   -7.4789    0.0000 O   0  0  0  0  0  0  0  0  0  0  0  0
   10.6913   -8.7164    0.0000 C   0  0  0  0  0  0  0  0  0  0  0  0
   11.4058   -8.3039    0.0000 C   0  0  0  0  0  0  0  0  0  0  0  0
   11.4058   -7.4789    0.0000 C   0  0  0  0  0  0  0  0  0  0  0  0
   10.6913   -7.0664    0.0000 C   0  0  0  0  0  0  0  0  0  0  0  0
    4.2611   -8.3039    0.0000 C   0  0  0  0  0  0  0  0  0  0  0  0
    3.5466   -8.7164    0.0000 O   0  0  0  0  0  0  0  0  0  0  0  0
   12.1203   -7.0664    0.0000 O   0  0  0  0  0  0  0  0  0  0  0  0
   10.6913   -6.2414    0.0000 O   0  0  0  0  0  0  0  0  0  0  0  0
    9.9769   -5.8289    0.0000 C   0  0  0  0  0  0  0  0  0  0  0  0
    5.6900  -10.7789    0.0000 O   0  0  0  0  0  0  0  0  0  0  0  0
    4.2611   -9.9539    0.0000 O   0  0  0  0  0  0  0  0  0  0  0  0
    7.1190   -9.9539    0.0000 O   0  0  0  0  0  0  0  0  0  0  0  0
  1  2  1  0  0  0  0
  2  3  1  0  0  0  0
  3  4  1  0  0  0  0
  4  5  1  0  0  0  0
  5  6  1  0  0  0  0
  6  1  1  0  0  0  0
  7  8  1  0  0  0  0
  5  8  1  1  0  0  0
 10  9  1  6  0  0  0
 10 11  1  0  0  0  0
 11  7  1  0  0  0  0
 10 12  1  0  0  0  0
 12 13  2  0  0  0  0
 11 14  1  1  0  0  0
 12 15  1  0  0  0  0
 15 16  2  0  0  0  0
 16 17  1  0  0  0  0
 17 18  2  0  0  0  0
 18 13  1  0  0  0  0
  1 19  1  1  0  0  0
 19 20  1  0  0  0  0
 17 21  1  0  0  0  0
 18 22  1  0  0  0  0
 22 23  1  0  0  0  0
  3 24  1  1  0  0  0
  2 25  1  6  0  0  0
  4 26  1  6  0  0  0
M  END
>  <cdx:fragmentId>
5

$$$$
