70367.cdx
  Mrv1902 05222410222D          

 31 33  0  0  0  0            999 V2000
    6.4630   -6.3250    0.0000 C   0  0  2  0  0  0  0  0  0  0  0  0
    6.4630   -7.1500    0.0000 C   0  0  1  0  0  0  0  0  0  0  0  0
    7.1775   -7.5625    0.0000 C   0  0  1  0  0  0  0  0  0  0  0  0
    7.8920   -7.1500    0.0000 C   0  0  2  0  0  0  0  0  0  0  0  0
    7.8920   -6.3250    0.0000 C   0  0  2  0  0  0  0  0  0  0  0  0
    7.1775   -5.9125    0.0000 O   0  0  0  0  0  0  0  0  0  0  0  0
    8.6064   -5.9125    0.0000 O   0  0  0  0  0  0  0  0  0  0  0  0
    8.6064   -7.5625    0.0000 O   0  0  0  0  0  0  0  0  0  0  0  0
    7.1775   -8.3875    0.0000 O   0  0  0  0  0  0  0  0  0  0  0  0
    5.7486   -7.5625    0.0000 O   0  0  0  0  0  0  0  0  0  0  0  0
    5.7486   -5.9125    0.0000 C   0  0  0  0  0  0  0  0  0  0  0  0
    5.0341   -6.3250    0.0000 O   0  0  0  0  0  0  0  0  0  0  0  0
    4.3196   -5.9125    0.0000 C   0  0  1  0  0  0  0  0  0  0  0  0
    4.3196   -5.0875    0.0000 O   0  0  0  0  0  0  0  0  0  0  0  0
    3.6051   -4.6750    0.0000 C   0  0  1  0  0  0  0  0  0  0  0  0
    2.8907   -5.0875    0.0000 C   0  0  1  0  0  0  0  0  0  0  0  0
    2.8907   -5.9125    0.0000 C   0  0  1  0  0  0  0  0  0  0  0  0
    3.6051   -6.3250    0.0000 C   0  0  1  0  0  0  0  0  0  0  0  0
    3.6051   -7.1500    0.0000 O   0  0  0  0  0  0  0  0  0  0  0  0
    2.1762   -6.3250    0.0000 O   0  0  0  0  0  0  0  0  0  0  0  0
    2.1762   -4.6750    0.0000 O   0  0  0  0  0  0  0  0  0  0  0  0
    3.6051   -3.8500    0.0000 C   0  0  0  0  0  0  0  0  0  0  0  0
    2.8907   -3.4375    0.0000 O   0  0  0  0  0  0  0  0  0  0  0  0
    9.3209   -6.3250    0.0000 C   0  0  0  0  0  0  0  0  0  0  0  0
   10.0354   -5.9125    0.0000 C   0  0  0  0  0  0  0  0  0  0  0  0
   10.7891   -6.2481    0.0000 O   0  0  0  0  0  0  0  0  0  0  0  0
   11.3411   -5.6350    0.0000 C   0  0  0  0  0  0  0  0  0  0  0  0
   10.9286   -4.9205    0.0000 C   0  0  0  0  0  0  0  0  0  0  0  0
   10.1216   -5.0920    0.0000 C   0  0  0  0  0  0  0  0  0  0  0  0
   12.1616   -5.7212    0.0000 C   0  0  0  0  0  0  0  0  0  0  0  0
   12.4971   -6.4749    0.0000 O   0  0  0  0  0  0  0  0  0  0  0  0
  1  2  1  0  0  0  0
  2  3  1  0  0  0  0
  3  4  1  0  0  0  0
  4  5  1  0  0  0  0
  5  6  1  0  0  0  0
  6  1  1  0  0  0  0
  5  7  1  6  0  0  0
  4  8  1  6  0  0  0
  3  9  1  1  0  0  0
  2 10  1  1  0  0  0
  1 11  1  1  0  0  0
 11 12  1  0  0  0  0
 13 12  1  6  0  0  0
 13 14  1  0  0  0  0
 14 15  1  0  0  0  0
 15 16  1  0  0  0  0
 16 17  1  0  0  0  0
 17 18  1  0  0  0  0
 18 13  1  0  0  0  0
 18 19  1  6  0  0  0
 17 20  1  1  0  0  0
 16 21  1  1  0  0  0
 15 22  1  1  0  0  0
 22 23  1  0  0  0  0
  7 24  1  0  0  0  0
 24 25  1  0  0  0  0
 25 26  1  0  0  0  0
 26 27  1  0  0  0  0
 27 28  2  0  0  0  0
 28 29  1  0  0  0  0
 29 25  2  0  0  0  0
 27 30  1  0  0  0  0
 30 31  2  0  0  0  0
M  END
>  <cdx:fragmentId>
138

$$$$
