70361.cdx
  Mrv1902 05222410212D          

 20 19  0  0  0  0            999 V2000
    1.4550   -8.5651    0.0000 C   0  0  0  0  0  0  0  0  0  0  0  0
    2.1695   -8.1526    0.0000 C   0  0  0  0  0  0  0  0  0  0  0  0
    2.8840   -8.5651    0.0000 C   0  0  0  0  0  0  0  0  0  0  0  0
    3.5984   -8.1526    0.0000 C   0  0  0  0  0  0  0  0  0  0  0  0
    4.3129   -8.5651    0.0000 C   0  0  0  0  0  0  0  0  0  0  0  0
    5.0274   -8.1526    0.0000 C   0  0  0  0  0  0  0  0  0  0  0  0
    5.7419   -8.5651    0.0000 C   0  0  0  0  0  0  0  0  0  0  0  0
    6.4563   -8.1526    0.0000 C   0  0  0  0  0  0  0  0  0  0  0  0
    7.1708   -8.5651    0.0000 C   0  0  0  0  0  0  0  0  0  0  0  0
    7.8853   -8.1526    0.0000 C   0  0  0  0  0  0  0  0  0  0  0  0
    8.5997   -8.5651    0.0000 C   0  0  0  0  0  0  0  0  0  0  0  0
    9.3142   -8.1526    0.0000 C   0  0  0  0  0  0  0  0  0  0  0  0
   10.0287   -8.5651    0.0000 C   0  0  0  0  0  0  0  0  0  0  0  0
   10.7431   -8.1526    0.0000 O   0  0  0  0  0  0  0  0  0  0  0  0
   11.4576   -8.5651    0.0000 C   0  0  0  0  0  0  0  0  0  0  0  0
   12.1721   -8.1526    0.0000 C   0  0  0  0  0  0  0  0  0  0  0  0
   12.8866   -8.5651    0.0000 C   0  0  0  0  0  0  0  0  0  0  0  0
   13.6010   -8.1526    0.0000 C   0  0  0  0  0  0  0  0  0  0  0  0
   12.8866   -9.3901    0.0000 C   0  0  0  0  0  0  0  0  0  0  0  0
   11.4576   -9.3901    0.0000 O   0  0  0  0  0  0  0  0  0  0  0  0
  1  2  1  0  0  0  0
  2  3  1  0  0  0  0
  3  4  1  0  0  0  0
  4  5  1  0  0  0  0
  5  6  1  0  0  0  0
  6  7  1  0  0  0  0
  7  8  1  0  0  0  0
  8  9  1  0  0  0  0
  9 10  1  0  0  0  0
 10 11  1  0  0  0  0
 11 12  1  0  0  0  0
 12 13  1  0  0  0  0
 13 14  1  0  0  0  0
 14 15  1  0  0  0  0
 15 16  1  0  0  0  0
 16 17  2  0  0  0  0
 17 18  1  0  0  0  0
 17 19  1  0  0  0  0
 15 20  2  0  0  0  0
M  END
>  <cdx:fragmentId>
3

$$$$
