70364.cdx
  Mrv1902 05222410222D          

 41 45  0  0  0  0            999 V2000
    7.8433   -5.4660    0.0000 C   0  0  1  0  0  0  0  0  0  0  0  0
    8.5578   -5.0535    0.0000 C   0  0  1  0  0  0  0  0  0  0  0  0
    9.2723   -5.4660    0.0000 C   0  0  0  0  0  0  0  0  0  0  0  0
    9.2723   -6.2910    0.0000 C   0  0  0  0  0  0  0  0  0  0  0  0
    8.5578   -6.7035    0.0000 C   0  0  2  0  0  0  0  0  0  0  0  0
    8.5578   -7.5285    0.0000 C   0  0  0  0  0  0  0  0  0  0  0  0
    7.8433   -7.9410    0.0000 C   0  0  0  0  0  0  0  0  0  0  0  0
    7.1288   -7.5285    0.0000 C   0  0  1  0  0  0  0  0  0  0  0  0
    6.4144   -7.9410    0.0000 C   0  0  2  0  0  0  0  0  0  0  0  0
    6.4144   -8.7660    0.0000 C   0  0  0  0  0  0  0  0  0  0  0  0
    5.6999   -9.1785    0.0000 C   0  0  2  0  0  0  0  0  0  0  0  0
    4.9854   -8.7660    0.0000 C   0  0  1  0  0  0  0  0  0  0  0  0
    4.2710   -9.1785    0.0000 C   0  0  1  0  0  0  0  0  0  0  0  0
    3.5565   -8.7660    0.0000 C   0  0  2  0  0  0  0  0  0  0  0  0
    3.5565   -7.9410    0.0000 C   0  0  0  0  0  0  0  0  0  0  0  0
    4.2710   -7.5285    0.0000 C   0  0  0  0  0  0  0  0  0  0  0  0
    4.9854   -7.9410    0.0000 C   0  0  2  0  0  0  0  0  0  0  0  0
    5.6999   -7.5285    0.0000 C   0  0  1  0  0  0  0  0  0  0  0  0
    5.6999   -6.7035    0.0000 C   0  0  0  0  0  0  0  0  0  0  0  0
    6.4144   -6.2910    0.0000 C   0  0  0  0  0  0  0  0  0  0  0  0
    7.1288   -6.7035    0.0000 C   0  0  0  0  0  0  0  0  0  0  0  0
    7.8433   -6.2910    0.0000 C   0  0  2  0  0  0  0  0  0  0  0  0
    9.2723   -7.1160    0.0000 C   0  0  0  0  0  0  0  0  0  0  0  0
    9.2723   -7.9410    0.0000 O   0  0  0  0  0  0  0  0  0  0  0  0
    9.9867   -6.7035    0.0000 O   0  0  0  0  0  0  0  0  0  0  0  0
    5.6999  -10.0035    0.0000 O   0  0  0  0  0  0  0  0  0  0  0  0
    4.9854   -7.1160    0.0000 C   0  0  0  0  0  0  0  0  0  0  0  0
    4.6835   -9.8929    0.0000 C   0  0  0  0  0  0  0  0  0  0  0  0
    3.8585   -9.8929    0.0000 C   0  0  0  0  0  0  0  0  0  0  0  0
    6.4144   -7.1160    0.0000 C   0  0  0  0  0  0  0  0  0  0  0  0
    7.1288   -8.3535    0.0000 C   0  0  0  0  0  0  0  0  0  0  0  0
    8.5578   -4.2285    0.0000 C   0  0  0  0  0  0  0  0  0  0  0  0
    7.0464   -5.2524    0.0000 C   0  0  0  0  0  0  0  0  0  0  0  0
    2.8420   -9.1785    0.0000 O   0  0  0  0  0  0  0  0  0  0  0  0
    7.6298   -4.6691    0.0000 O   0  0  0  0  0  0  0  0  0  0  0  0
    4.9854   -9.5910    0.0000 H   0  0  0  0  0  0  0  0  0  0  0  0
    7.8433   -7.1160    0.0000 H   0  0  0  0  0  0  0  0  0  0  0  0
    5.6999   -8.3535    0.0000 H   0  0  0  0  0  0  0  0  0  0  0  0
    4.2710  -10.6074    0.0000 O   0  0  0  0  0  0  0  0  0  0  0  0
    3.0335   -9.8929    0.0000 O   0  0  0  0  0  0  0  0  0  0  0  0
    3.8585  -11.3219    0.0000 C   0  0  0  0  0  0  0  0  0  0  0  0
  1  2  1  0  0  0  0
  2  3  1  0  0  0  0
  3  4  1  0  0  0  0
  4  5  1  0  0  0  0
  5  6  1  0  0  0  0
  6  7  1  0  0  0  0
  7  8  1  0  0  0  0
  8  9  1  0  0  0  0
  9 10  1  0  0  0  0
 10 11  1  0  0  0  0
 11 12  1  0  0  0  0
 12 13  1  0  0  0  0
 13 14  1  0  0  0  0
 14 15  1  0  0  0  0
 15 16  1  0  0  0  0
 16 17  1  0  0  0  0
 12 17  1  0  0  0  0
 17 18  1  0  0  0  0
  9 18  1  0  0  0  0
 18 19  1  0  0  0  0
 19 20  1  0  0  0  0
 20 21  2  0  0  0  0
  8 21  1  0  0  0  0
 21 22  1  0  0  0  0
  5 22  1  0  0  0  0
  1 22  1  0  0  0  0
 23 24  2  0  0  0  0
 23 25  1  0  0  0  0
  5 23  1  1  0  0  0
 11 26  1  1  0  0  0
 17 27  1  1  0  0  0
 13 28  1  6  0  0  0
 13 29  1  1  0  0  0
  9 30  1  1  0  0  0
  8 31  1  6  0  0  0
  2 32  1  6  0  0  0
  1 33  1  1  0  0  0
 14 34  1  1  0  0  0
  1 35  1  6  0  0  0
 12 36  1  6  0  0  0
 22 37  1  1  0  0  0
 18 38  1  6  0  0  0
 29 39  1  0  0  0  0
 29 40  2  0  0  0  0
 39 41  1  0  0  0  0
M  END
>  <cdx:fragmentId>
7465

$$$$
