70365.cdx
  Mrv1902 05222410222D          

 20 21  0  0  0  0            999 V2000
    5.1980   -6.1325    0.0000 C   0  0  2  0  0  0  0  0  0  0  0  0
    5.1980   -6.9575    0.0000 C   0  0  2  0  0  0  0  0  0  0  0  0
    5.9125   -7.3700    0.0000 C   0  0  1  0  0  0  0  0  0  0  0  0
    6.6270   -6.9575    0.0000 C   0  0  2  0  0  0  0  0  0  0  0  0
    6.6270   -6.1325    0.0000 C   0  0  2  0  0  0  0  0  0  0  0  0
    5.9125   -5.7200    0.0000 O   0  0  0  0  0  0  0  0  0  0  0  0
    7.3414   -5.7200    0.0000 O   0  0  0  0  0  0  0  0  0  0  0  0
    7.3414   -7.3700    0.0000 O   0  0  0  0  0  0  0  0  0  0  0  0
    5.9125   -8.1950    0.0000 O   0  0  0  0  0  0  0  0  0  0  0  0
    4.4836   -7.3700    0.0000 O   0  0  0  0  0  0  0  0  0  0  0  0
    4.4836   -5.7200    0.0000 C   0  0  0  0  0  0  0  0  0  0  0  0
    3.7691   -6.1325    0.0000 O   0  0  0  0  0  0  0  0  0  0  0  0
    8.0559   -6.1325    0.0000 C   0  0  0  0  0  0  0  0  0  0  0  0
    8.7704   -5.7200    0.0000 C   0  0  0  0  0  0  0  0  0  0  0  0
    9.5241   -6.0556    0.0000 O   0  0  0  0  0  0  0  0  0  0  0  0
   10.0761   -5.4425    0.0000 C   0  0  0  0  0  0  0  0  0  0  0  0
    9.6636   -4.7280    0.0000 C   0  0  0  0  0  0  0  0  0  0  0  0
    8.8566   -4.8995    0.0000 C   0  0  0  0  0  0  0  0  0  0  0  0
   10.8966   -5.5287    0.0000 C   0  0  0  0  0  0  0  0  0  0  0  0
   11.2321   -6.2824    0.0000 O   0  0  0  0  0  0  0  0  0  0  0  0
  1  2  1  0  0  0  0
  2  3  1  0  0  0  0
  3  4  1  0  0  0  0
  4  5  1  0  0  0  0
  5  6  1  0  0  0  0
  6  1  1  0  0  0  0
  5  7  1  6  0  0  0
  4  8  1  6  0  0  0
  3  9  1  1  0  0  0
  2 10  1  6  0  0  0
  1 11  1  1  0  0  0
 11 12  1  0  0  0  0
  7 13  1  0  0  0  0
 13 14  1  0  0  0  0
 14 15  1  0  0  0  0
 15 16  1  0  0  0  0
 16 17  2  0  0  0  0
 17 18  1  0  0  0  0
 18 14  2  0  0  0  0
 16 19  1  0  0  0  0
 19 20  2  0  0  0  0
M  END
>  <cdx:fragmentId>
138

$$$$
