70374.cdx
  Mrv1902 05222410212D          

 55 62  0  0  0  0            999 V2000
   10.4505   -5.1975    0.0000 C   0  0  2  0  0  0  0  0  0  0  0  0
   10.4505   -6.0225    0.0000 C   0  0  0  0  0  0  0  0  0  0  0  0
   11.1650   -6.4350    0.0000 C   0  0  1  0  0  0  0  0  0  0  0  0
   11.8795   -6.0225    0.0000 C   0  0  1  0  0  0  0  0  0  0  0  0
   11.8795   -5.1975    0.0000 C   0  0  0  0  0  0  0  0  0  0  0  0
   11.1650   -4.7850    0.0000 C   0  0  1  0  0  0  0  0  0  0  0  0
   11.1650   -3.9600    0.0000 C   0  0  0  0  0  0  0  0  0  0  0  0
   12.5125   -4.8125    0.0000 O   0  0  0  0  0  0  0  0  0  0  0  0
   11.1650   -5.6100    0.0000 C   0  0  2  0  0  0  0  0  0  0  0  0
    9.7361   -4.7850    0.0000 O   0  0  0  0  0  0  0  0  0  0  0  0
   12.5125   -6.4075    0.0000 O   0  0  0  0  0  0  0  0  0  0  0  0
   11.8795   -6.8475    0.0000 O   0  0  0  0  0  0  0  0  0  0  0  0
   10.5600   -6.3800    0.0000 C   0  0  0  0  0  0  0  0  0  0  0  0
   10.5600   -7.2050    0.0000 O   0  0  0  0  0  0  0  0  0  0  0  0
   12.5125   -5.6100    0.0000 C   0  0  1  0  0  0  0  0  0  0  0  0
    9.8415   -7.6105    0.0000 C   0  0  0  0  0  0  0  0  0  0  0  0
    9.1311   -7.1910    0.0000 O   0  0  0  0  0  0  0  0  0  0  0  0
    9.8334   -8.4354    0.0000 C   0  0  0  0  0  0  0  0  0  0  0  0
   10.5438   -8.8549    0.0000 C   0  0  0  0  0  0  0  0  0  0  0  0
   10.5357   -9.6799    0.0000 C   0  0  0  0  0  0  0  0  0  0  0  0
    9.8173  -10.0854    0.0000 C   0  0  0  0  0  0  0  0  0  0  0  0
    9.1069   -9.6659    0.0000 C   0  0  0  0  0  0  0  0  0  0  0  0
    9.1150   -8.8409    0.0000 C   0  0  0  0  0  0  0  0  0  0  0  0
    9.0216   -5.1975    0.0000 C   0  0  2  0  0  0  0  0  0  0  0  0
    8.3071   -4.7850    0.0000 O   0  0  0  0  0  0  0  0  0  0  0  0
    7.5926   -5.1975    0.0000 C   0  0  1  0  0  0  0  0  0  0  0  0
    7.5926   -6.0225    0.0000 C   0  0  2  0  0  0  0  0  0  0  0  0
    8.3071   -6.4350    0.0000 C   0  0  1  0  0  0  0  0  0  0  0  0
    9.0216   -6.0225    0.0000 C   0  0  1  0  0  0  0  0  0  0  0  0
    6.8782   -4.7850    0.0000 C   0  0  0  0  0  0  0  0  0  0  0  0
    8.3071   -7.2600    0.0000 O   0  0  0  0  0  0  0  0  0  0  0  0
    9.7361   -6.4350    0.0000 O   0  0  0  0  0  0  0  0  0  0  0  0
    6.8782   -6.4350    0.0000 O   0  0  0  0  0  0  0  0  0  0  0  0
    6.1637   -5.1975    0.0000 O   0  0  0  0  0  0  0  0  0  0  0  0
   11.1650   -7.2600    0.0000 H   0  0  0  0  0  0  0  0  0  0  0  0
   13.4200   -5.5825    0.0000 H   0  0  0  0  0  0  0  0  0  0  0  0
    6.4700   -7.1520    0.0000 C   0  0  2  0  0  0  0  0  0  0  0  0
    5.6450   -7.1570    0.0000 O   0  0  0  0  0  0  0  0  0  0  0  0
    5.2369   -7.8739    0.0000 C   0  0  1  0  0  0  0  0  0  0  0  0
    5.6537   -8.5859    0.0000 C   0  0  2  0  0  0  0  0  0  0  0  0
    6.4787   -8.5809    0.0000 C   0  0  1  0  0  0  0  0  0  0  0  0
    6.8868   -7.8639    0.0000 C   0  0  1  0  0  0  0  0  0  0  0  0
    4.4119   -7.8789    0.0000 C   0  0  0  0  0  0  0  0  0  0  0  0
    6.8955   -9.2928    0.0000 O   0  0  0  0  0  0  0  0  0  0  0  0
    5.2455   -9.3028    0.0000 O   0  0  0  0  0  0  0  0  0  0  0  0
    7.7118   -7.8589    0.0000 O   0  0  0  0  0  0  0  0  0  0  0  0
    4.0037   -8.5959    0.0000 O   0  0  0  0  0  0  0  0  0  0  0  0
    3.1787   -8.6009    0.0000 C   0  0  0  0  0  0  0  0  0  0  0  0
    2.7706   -9.3178    0.0000 C   0  0  0  0  0  0  0  0  0  0  0  0
    2.7619   -7.8889    0.0000 O   0  0  0  0  0  0  0  0  0  0  0  0
    1.9456   -9.3253    0.0000 C   0  0  0  0  0  0  0  0  0  0  0  0
    1.5396  -10.0435    0.0000 C   0  0  0  0  0  0  0  0  0  0  0  0
    1.9456  -10.7542    0.0000 C   0  0  0  0  0  0  0  0  0  0  0  0
    2.7706  -10.7542    0.0000 C   0  0  0  0  0  0  0  0  0  0  0  0
    3.1765  -10.0435    0.0000 C   0  0  0  0  0  0  0  0  0  0  0  0
  1  2  1  0  0  0  0
  2  3  1  0  0  0  0
  3  4  1  0  0  0  0
  4  5  1  0  0  0  0
  5  6  1  0  0  0  0
  6  1  1  0  0  0  0
  6  7  1  6  0  0  0
  6  8  1  0  0  0  0
  3  9  1  0  0  0  0
  1 10  1  1  0  0  0
  4 11  1  0  0  0  0
  4 12  1  6  0  0  0
  9  1  1  0  0  0  0
  9 13  1  1  0  0  0
 13 14  1  0  0  0  0
 11 15  1  0  0  0  0
  8 15  1  0  0  0  0
  9 15  1  0  0  0  0
 14 16  1  0  0  0  0
 16 17  2  0  0  0  0
 16 18  1  0  0  0  0
 18 19  2  0  0  0  0
 19 20  1  0  0  0  0
 20 21  2  0  0  0  0
 21 22  1  0  0  0  0
 22 23  2  0  0  0  0
 23 18  1  0  0  0  0
 24 10  1  1  0  0  0
 24 25  1  0  0  0  0
 25 26  1  0  0  0  0
 26 27  1  0  0  0  0
 27 28  1  0  0  0  0
 28 29  1  0  0  0  0
 29 24  1  0  0  0  0
 26 30  1  1  0  0  0
 28 31  1  1  0  0  0
 29 32  1  6  0  0  0
 27 33  1  6  0  0  0
 30 34  1  0  0  0  0
  3 35  1  1  0  0  0
 15 36  1  1  0  0  0
 37 33  1  1  0  0  0
 37 38  1  0  0  0  0
 38 39  1  0  0  0  0
 39 40  1  0  0  0  0
 40 41  1  0  0  0  0
 41 42  1  0  0  0  0
 42 37  1  0  0  0  0
 39 43  1  1  0  0  0
 41 44  1  1  0  0  0
 40 45  1  6  0  0  0
 42 46  1  6  0  0  0
 43 47  1  0  0  0  0
 47 48  1  0  0  0  0
 48 49  1  0  0  0  0
 48 50  2  0  0  0  0
 49 51  2  0  0  0  0
 51 52  1  0  0  0  0
 52 53  2  0  0  0  0
 53 54  1  0  0  0  0
 54 55  2  0  0  0  0
 55 49  1  0  0  0  0
M  END
>  <cdx:fragmentId>
157

$$$$
