70376.cdx
  Mrv1902 05222410202D          

 68 74  0  0  0  0            999 V2000
    6.7678   -9.6239    0.0000 C   0  0  0  0  0  0  0  0  0  0  0  0
    6.7678  -10.4489    0.0000 C   0  0  1  0  0  0  0  0  0  0  0  0
    7.4823  -10.8614    0.0000 C   0  0  2  0  0  0  0  0  0  0  0  0
    8.1968  -10.4489    0.0000 C   0  0  1  0  0  0  0  0  0  0  0  0
    8.1968   -9.6239    0.0000 C   0  0  2  0  0  0  0  0  0  0  0  0
    7.4823   -9.2114    0.0000 C   0  0  0  0  0  0  0  0  0  0  0  0
    8.9112  -10.8614    0.0000 C   0  0  0  0  0  0  0  0  0  0  0  0
    9.6257  -10.4489    0.0000 C   0  0  0  0  0  0  0  0  0  0  0  0
    9.6257   -9.6239    0.0000 C   0  0  2  0  0  0  0  0  0  0  0  0
    8.9112   -9.2114    0.0000 C   0  0  2  0  0  0  0  0  0  0  0  0
   10.3402   -9.2114    0.0000 C   0  0  1  0  0  0  0  0  0  0  0  0
   10.3402   -8.3864    0.0000 C   0  0  0  0  0  0  0  0  0  0  0  0
    9.6257   -7.9739    0.0000 C   0  0  0  0  0  0  0  0  0  0  0  0
    8.9112   -8.3864    0.0000 C   0  0  0  0  0  0  0  0  0  0  0  0
   11.0546   -9.6239    0.0000 C   0  0  0  0  0  0  0  0  0  0  0  0
   11.7691   -9.2114    0.0000 C   0  0  2  0  0  0  0  0  0  0  0  0
   11.7691   -8.3864    0.0000 C   0  0  2  0  0  0  0  0  0  0  0  0
   11.0546   -7.9739    0.0000 C   0  0  0  0  0  0  0  0  0  0  0  0
   12.4836   -7.9739    0.0000 C   0  0  0  0  0  0  0  0  0  0  0  0
   12.4836   -7.1489    0.0000 C   0  0  0  0  0  0  0  0  0  0  0  0
   11.7691   -6.7364    0.0000 C   0  0  2  0  0  0  0  0  0  0  0  0
   11.0546   -7.1489    0.0000 C   0  0  0  0  0  0  0  0  0  0  0  0
   11.3566   -6.0219    0.0000 C   0  0  0  0  0  0  0  0  0  0  0  0
   12.1816   -6.0219    0.0000 C   0  0  0  0  0  0  0  0  0  0  0  0
   13.0066   -6.0219    0.0000 O   0  0  0  0  0  0  0  0  0  0  0  0
   11.7691   -5.3075    0.0000 O   0  0  0  0  0  0  0  0  0  0  0  0
   12.4836   -8.7989    0.0000 C   0  0  0  0  0  0  0  0  0  0  0  0
   13.1981   -8.3864    0.0000 O   0  0  0  0  0  0  0  0  0  0  0  0
    7.8948  -11.5759    0.0000 C   0  0  0  0  0  0  0  0  0  0  0  0
    7.4823  -12.2903    0.0000 O   0  0  0  0  0  0  0  0  0  0  0  0
    6.0534  -10.8614    0.0000 O   0  0  0  0  0  0  0  0  0  0  0  0
    5.3379  -10.4506    0.0000 C   0  0  2  0  0  0  0  0  0  0  0  0
    5.3360   -9.6256    0.0000 O   0  0  0  0  0  0  0  0  0  0  0  0
    4.6206   -9.2147    0.0000 C   0  0  1  0  0  0  0  0  0  0  0  0
    3.9071   -9.6289    0.0000 C   0  0  1  0  0  0  0  0  0  0  0  0
    3.9090  -10.4539    0.0000 C   0  0  1  0  0  0  0  0  0  0  0  0
    4.6244  -10.8647    0.0000 C   0  0  1  0  0  0  0  0  0  0  0  0
    3.1955  -10.8681    0.0000 O   0  0  0  0  0  0  0  0  0  0  0  0
    4.6263  -11.6897    0.0000 O   0  0  0  0  0  0  0  0  0  0  0  0
    7.0698  -11.5759    0.0000 C   0  0  0  0  0  0  0  0  0  0  0  0
    8.1968   -8.7989    0.0000 C   0  0  0  0  0  0  0  0  0  0  0  0
    9.6257   -8.7989    0.0000 C   0  0  0  0  0  0  0  0  0  0  0  0
   12.4836   -9.6239    0.0000 O   0  0  0  0  0  0  0  0  0  0  0  0
    4.6186   -8.3898    0.0000 C   0  0  0  0  0  0  0  0  0  0  0  0
    3.1916   -9.2181    0.0000 O   0  0  0  0  0  0  0  0  0  0  0  0
    2.4781  -10.4607    0.0000 C   0  0  2  0  0  0  0  0  0  0  0  0
    2.4722   -9.6357    0.0000 O   0  0  0  0  0  0  0  0  0  0  0  0
    1.7548   -9.2283    0.0000 C   0  0  1  0  0  0  0  0  0  0  0  0
    1.0433   -9.6459    0.0000 C   0  0  2  0  0  0  0  0  0  0  0  0
    1.0492  -10.4709    0.0000 C   0  0  1  0  0  0  0  0  0  0  0  0
    1.7666  -10.8783    0.0000 C   0  0  1  0  0  0  0  0  0  0  0  0
    1.7489   -8.4034    0.0000 C   0  0  0  0  0  0  0  0  0  0  0  0
    0.3377  -10.8885    0.0000 O   0  0  0  0  0  0  0  0  0  0  0  0
    1.7725  -11.7033    0.0000 O   0  0  0  0  0  0  0  0  0  0  0  0
    0.3259   -9.2386    0.0000 O   0  0  0  0  0  0  0  0  0  0  0  0
    1.0342   -7.9912    0.0000 O   0  0  0  0  0  0  0  0  0  0  0  0
   10.3402  -10.0364    0.0000 C   0  0  0  0  0  0  0  0  0  0  0  0
   13.6717   -5.6041    0.0000 C   0  0  0  0  0  0  0  0  0  0  0  0
   13.6727   -4.7791    0.0000 C   0  0  0  0  0  0  0  0  0  0  0  0
   14.3877   -4.3675    0.0000 C   0  0  0  0  0  0  0  0  0  0  0  0
   14.3887   -3.5425    0.0000 C   0  0  0  0  0  0  0  0  0  0  0  0
   15.1036   -3.1309    0.0000 C   0  0  0  0  0  0  0  0  0  0  0  0
   15.1017   -4.7809    0.0000 O   0  0  0  0  0  0  0  0  0  0  0  0
   13.6747   -3.1291    0.0000 O   0  0  0  0  0  0  0  0  0  0  0  0
   15.1046   -2.3059    0.0000 O   0  0  0  0  0  0  0  0  0  0  0  0
   12.9587   -4.3658    0.0000 O   0  0  0  0  0  0  0  0  0  0  0  0
    8.1968  -11.2739    0.0000 H   0  0  0  0  0  0  0  0  0  0  0  0
    8.9112  -10.0364    0.0000 H   0  0  0  0  0  0  0  0  0  0  0  0
  1  2  1  0  0  0  0
  2  3  1  0  0  0  0
  3  4  1  0  0  0  0
  4  5  1  0  0  0  0
  5  6  1  0  0  0  0
  6  1  1  0  0  0  0
  4  7  1  0  0  0  0
  7  8  1  0  0  0  0
  8  9  1  0  0  0  0
  9 10  1  0  0  0  0
 10  5  1  0  0  0  0
  9 11  1  0  0  0  0
 11 12  1  0  0  0  0
 12 13  1  0  0  0  0
 13 14  2  0  0  0  0
 14 10  1  0  0  0  0
 11 15  1  0  0  0  0
 15 16  1  0  0  0  0
 16 17  1  0  0  0  0
 17 18  1  0  0  0  0
 18 12  2  0  0  0  0
 17 19  1  0  0  0  0
 19 20  1  0  0  0  0
 20 21  1  0  0  0  0
 21 22  1  0  0  0  0
 22 18  1  0  0  0  0
 21 23  1  6  0  0  0
 21 24  1  1  0  0  0
 24 25  1  0  0  0  0
 24 26  2  0  0  0  0
 17 27  1  1  0  0  0
 27 28  1  0  0  0  0
  3 29  1  6  0  0  0
 29 30  1  0  0  0  0
  2 31  1  1  0  0  0
 32 31  1  1  0  0  0
 32 33  1  0  0  0  0
 33 34  1  0  0  0  0
 34 35  1  0  0  0  0
 35 36  1  0  0  0  0
 36 37  1  0  0  0  0
 37 32  1  0  0  0  0
 36 38  1  1  0  0  0
 37 39  1  6  0  0  0
  3 40  1  1  0  0  0
  5 41  1  1  0  0  0
  9 42  1  1  0  0  0
 16 43  1  6  0  0  0
 34 44  1  1  0  0  0
 35 45  1  1  0  0  0
 46 38  1  1  0  0  0
 46 47  1  0  0  0  0
 47 48  1  0  0  0  0
 48 49  1  0  0  0  0
 49 50  1  0  0  0  0
 50 51  1  0  0  0  0
 51 46  1  0  0  0  0
 48 52  1  1  0  0  0
 50 53  1  1  0  0  0
 51 54  1  6  0  0  0
 49 55  1  6  0  0  0
 52 56  1  0  0  0  0
 11 57  1  6  0  0  0
 58 59  1  0  0  0  0
 59 60  1  0  0  0  0
 60 61  1  0  0  0  0
 61 62  1  0  0  0  0
 60 63  1  0  0  0  0
 61 64  1  0  0  0  0
 62 65  1  0  0  0  0
 59 66  1  0  0  0  0
 58 25  1  0  0  0  0
  4 67  1  6  0  0  0
 10 68  1  6  0  0  0
M  END
>  <cdx:fragmentId>
5

$$$$
