70371.cdx
  Mrv1902 05222410222D          

 11 12  0  0  0  0            999 V2000
    7.5534   -9.2143    0.0000 C   0  0  0  0  0  0  0  0  0  0  0  0
    6.9227   -8.4958    0.0000 C   0  0  0  0  0  0  0  0  0  0  0  0
    5.9248   -9.3940    0.0000 C   0  0  0  0  0  0  0  0  0  0  0  0
    5.3984   -8.9867    0.0000 C   0  0  0  0  0  0  0  0  0  0  0  0
    5.7276   -8.4982    0.0000 C   0  0  0  0  0  0  0  0  0  0  0  0
    6.6796   -9.0387    0.0000 C   0  0  0  0  0  0  0  0  0  0  0  0
    6.4381   -7.8315    0.0000 C   0  0  0  0  0  0  0  0  0  0  0  0
    5.3394   -7.7702    0.0000 C   0  0  0  0  0  0  0  0  0  0  0  0
    5.8348  -10.2141    0.0000 O   0  0  0  0  0  0  0  0  0  0  0  0
    8.3503   -9.0008    0.0000 C   0  0  0  0  0  0  0  0  0  0  0  0
    7.7670  -10.0112    0.0000 C   0  0  0  0  0  0  0  0  0  0  0  0
  6  1  1  0  0  0  0
  1  2  1  0  0  0  0
  2  7  1  0  0  0  0
  6  3  1  0  0  0  0
  3  4  1  0  0  0  0
  4  5  2  0  0  0  0
  2  5  1  0  0  0  0
  6  7  1  0  0  0  0
  5  8  1  0  0  0  0
  3  9  1  0  0  0  0
  1 10  1  0  0  0  0
  1 11  1  0  0  0  0
M  END
>  <cdx:fragmentId>
814

$$$$
