70373.cdx
  Mrv1902 05222410222D          

 12 14  0  0  0  0            999 V2000
    6.5431   -6.5576    0.0000 C   0  0  0  0  0  0  0  0  0  0  0  0
    6.5431   -7.3826    0.0000 C   0  0  0  0  0  0  0  0  0  0  0  0
    7.2575   -7.7951    0.0000 C   0  0  0  0  0  0  0  0  0  0  0  0
    7.9720   -7.3826    0.0000 C   0  0  0  0  0  0  0  0  0  0  0  0
    7.9720   -6.5576    0.0000 C   0  0  0  0  0  0  0  0  0  0  0  0
    7.2575   -6.1451    0.0000 C   0  0  0  0  0  0  0  0  0  0  0  0
    8.5851   -6.0056    0.0000 C   0  0  0  0  0  0  0  0  0  0  0  0
    8.2495   -5.2519    0.0000 C   0  0  0  0  0  0  0  0  0  0  0  0
    7.4291   -5.3382    0.0000 C   0  0  0  0  0  0  0  0  0  0  0  0
    7.2575   -8.6201    0.0000 O   0  0  0  0  0  0  0  0  0  0  0  0
    7.8823   -5.4482    0.0000 C   0  0  0  0  0  0  0  0  0  0  0  0
    8.2057   -6.0632    0.0000 C   0  0  0  0  0  0  0  0  0  0  0  0
  1  2  1  0  0  0  0
  2  3  1  0  0  0  0
  3  4  1  0  0  0  0
  4  5  1  0  0  0  0
  5  6  1  0  0  0  0
  6  1  1  0  0  0  0
  5  7  1  0  0  0  0
  7  8  1  0  0  0  0
  8  9  1  0  0  0  0
  9  6  1  0  0  0  0
  3 10  1  0  0  0  0
  9 11  1  0  0  0  0
  5 12  1  0  0  0  0
 12 11  1  0  0  0  0
M  END
>  <cdx:fragmentId>
5

$$$$
