70379.cdx
  Mrv1902 05222410242D          

 78 86  0  0  0  0            999 V2000
    8.2208   -8.9158    0.0000 C   0  0  0  0  0  0  0  0  0  0  0  0
    8.9352   -8.5033    0.0000 C   0  0  0  0  0  0  0  0  0  0  0  0
    8.9352   -7.6783    0.0000 C   0  0  0  0  0  0  0  0  0  0  0  0
    9.6497   -7.2658    0.0000 C   0  0  0  0  0  0  0  0  0  0  0  0
   10.3642   -7.6783    0.0000 C   0  0  0  0  0  0  0  0  0  0  0  0
   10.3642   -8.5033    0.0000 C   0  0  0  0  0  0  0  0  0  0  0  0
    9.6497   -8.9158    0.0000 C   0  0  0  0  0  0  0  0  0  0  0  0
    7.5063   -8.5033    0.0000 O   0  0  0  0  0  0  0  0  0  0  0  0
    8.2208   -9.7408    0.0000 O   0  0  0  0  0  0  0  0  0  0  0  0
   11.0786   -8.9158    0.0000 O   0  0  0  0  0  0  0  0  0  0  0  0
   11.0786   -7.2658    0.0000 O   0  0  0  0  0  0  0  0  0  0  0  0
    9.6497   -6.4408    0.0000 O   0  0  0  0  0  0  0  0  0  0  0  0
    8.2208   -7.2658    0.0000 O   0  0  0  0  0  0  0  0  0  0  0  0
    7.7866   -6.5643    0.0000 C   0  0  0  0  0  0  0  0  0  0  0  0
    8.9352  -11.2258    0.0000 C   0  0  1  0  0  0  0  0  0  0  0  0
    8.9352  -10.1533    0.0000 C   0  0  2  0  0  0  0  0  0  0  0  0
    9.6497   -9.7408    0.0000 C   0  0  0  0  0  0  0  0  0  0  0  0
    9.6497  -11.6383    0.0000 O   0  0  0  0  0  0  0  0  0  0  0  0
    9.6497  -12.4633    0.0000 C   0  0  0  0  0  0  0  0  0  0  0  0
   10.3642  -12.8758    0.0000 C   0  0  0  0  0  0  0  0  0  0  0  0
   11.0786  -12.4633    0.0000 C   0  0  0  0  0  0  0  0  0  0  0  0
   11.7931  -12.8758    0.0000 C   0  0  0  0  0  0  0  0  0  0  0  0
   11.7931  -13.7008    0.0000 C   0  0  0  0  0  0  0  0  0  0  0  0
   11.0786  -14.1133    0.0000 C   0  0  0  0  0  0  0  0  0  0  0  0
   10.3642  -13.7008    0.0000 C   0  0  0  0  0  0  0  0  0  0  0  0
    8.9352  -12.8758    0.0000 O   0  0  0  0  0  0  0  0  0  0  0  0
   11.0786  -14.9383    0.0000 O   0  0  0  0  0  0  0  0  0  0  0  0
   12.5076  -14.1133    0.0000 O   0  0  0  0  0  0  0  0  0  0  0  0
   12.5076  -12.4633    0.0000 O   0  0  0  0  0  0  0  0  0  0  0  0
   10.3642  -10.1533    0.0000 O   0  0  0  0  0  0  0  0  0  0  0  0
    5.2796  -10.5625    0.0000 C   0  0  0  0  0  0  0  0  0  0  0  0
    5.8630   -9.9791    0.0000 C   0  0  0  0  0  0  0  0  0  0  0  0
    5.4505   -9.2647    0.0000 C   0  0  0  0  0  0  0  0  0  0  0  0
    5.8630   -8.5502    0.0000 C   0  0  0  0  0  0  0  0  0  0  0  0
    6.6880   -8.5502    0.0000 C   0  0  0  0  0  0  0  0  0  0  0  0
    7.1005   -9.2647    0.0000 C   0  0  0  0  0  0  0  0  0  0  0  0
    6.6880   -9.9791    0.0000 C   0  0  0  0  0  0  0  0  0  0  0  0
    7.2713  -10.5625    0.0000 C   0  0  0  0  0  0  0  0  0  0  0  0
    7.2713  -11.3875    0.0000 O   0  0  0  0  0  0  0  0  0  0  0  0
    8.0064  -11.7620    0.0000 C   0  0  2  0  0  0  0  0  0  0  0  0
    7.8774  -12.5769    0.0000 C   0  0  1  0  0  0  0  0  0  0  0  0
    7.0625  -12.7059    0.0000 C   0  0  0  0  0  0  0  0  0  0  0  0
    6.6880  -11.9709    0.0000 O   0  0  0  0  0  0  0  0  0  0  0  0
    5.8630  -11.9709    0.0000 C   0  0  0  0  0  0  0  0  0  0  0  0
    5.2796  -11.3875    0.0000 C   0  0  0  0  0  0  0  0  0  0  0  0
    4.5651  -11.8000    0.0000 C   0  0  0  0  0  0  0  0  0  0  0  0
    3.8507  -11.3875    0.0000 C   0  0  0  0  0  0  0  0  0  0  0  0
    3.8507  -10.5625    0.0000 C   0  0  0  0  0  0  0  0  0  0  0  0
    4.5651  -10.1500    0.0000 C   0  0  0  0  0  0  0  0  0  0  0  0
    5.5473  -12.7331    0.0000 O   0  0  0  0  0  0  0  0  0  0  0  0
    8.0335  -10.2468    0.0000 O   0  0  0  0  0  0  0  0  0  0  0  0
    4.2830   -9.3747    0.0000 O   0  0  0  0  0  0  0  0  0  0  0  0
    3.1362  -10.1500    0.0000 O   0  0  0  0  0  0  0  0  0  0  0  0
    3.1362  -11.8000    0.0000 O   0  0  0  0  0  0  0  0  0  0  0  0
    8.4607  -13.1602    0.0000 O   0  0  0  0  0  0  0  0  0  0  0  0
    7.1005   -7.8357    0.0000 O   0  0  0  0  0  0  0  0  0  0  0  0
    5.4505   -7.8357    0.0000 O   0  0  0  0  0  0  0  0  0  0  0  0
    4.6752   -8.9825    0.0000 O   0  0  0  0  0  0  0  0  0  0  0  0
    8.1770   -5.8375    0.0000 C   0  0  0  0  0  0  0  0  0  0  0  0
    7.7428   -5.1360    0.0000 C   0  0  0  0  0  0  0  0  0  0  0  0
    6.9182   -5.1613    0.0000 C   0  0  0  0  0  0  0  0  0  0  0  0
    6.5278   -5.8881    0.0000 C   0  0  0  0  0  0  0  0  0  0  0  0
    6.9620   -6.5896    0.0000 C   0  0  0  0  0  0  0  0  0  0  0  0
    6.4840   -4.4598    0.0000 C   0  0  0  0  0  0  0  0  0  0  0  0
    5.6594   -4.4851    0.0000 C   0  0  0  0  0  0  0  0  0  0  0  0
    5.2690   -5.2118    0.0000 O   0  0  0  0  0  0  0  0  0  0  0  0
    5.7031   -5.9133    0.0000 C   0  0  0  0  0  0  0  0  0  0  0  0
    8.1332   -4.4092    0.0000 O   0  0  0  0  0  0  0  0  0  0  0  0
    7.6990   -3.7077    0.0000 C   0  0  0  0  0  0  0  0  0  0  0  0
    6.8744   -3.7330    0.0000 C   0  0  0  0  0  0  0  0  0  0  0  0
    6.4402   -3.0315    0.0000 C   0  0  0  0  0  0  0  0  0  0  0  0
    5.6156   -3.0568    0.0000 C   0  0  0  0  0  0  0  0  0  0  0  0
    5.2252   -3.7836    0.0000 C   0  0  0  0  0  0  0  0  0  0  0  0
    5.1814   -2.3553    0.0000 O   0  0  0  0  0  0  0  0  0  0  0  0
    4.4006   -3.8088    0.0000 O   0  0  0  0  0  0  0  0  0  0  0  0
    9.0016   -5.8122    0.0000 O   0  0  0  0  0  0  0  0  0  0  0  0
    8.0894   -2.9810    0.0000 O   0  0  0  0  0  0  0  0  0  0  0  0
    5.3127   -6.6401    0.0000 O   0  0  0  0  0  0  0  0  0  0  0  0
  1  2  1  0  0  0  0
  2  3  1  0  0  0  0
  3  4  2  0  0  0  0
  4  5  1  0  0  0  0
  5  6  2  0  0  0  0
  6  7  1  0  0  0  0
  2  7  2  0  0  0  0
  1  8  2  0  0  0  0
  1  9  1  0  0  0  0
  6 10  1  0  0  0  0
  5 11  1  0  0  0  0
  4 12  1  0  0  0  0
 13 14  1  0  0  0  0
  3 13  1  0  0  0  0
 15 16  1  0  0  0  0
 16 17  1  0  0  0  0
 19 20  1  0  0  0  0
 20 21  1  0  0  0  0
 21 22  2  0  0  0  0
 22 23  1  0  0  0  0
 23 24  2  0  0  0  0
 24 25  1  0  0  0  0
 20 25  2  0  0  0  0
 19 26  2  0  0  0  0
 24 27  1  0  0  0  0
 23 28  1  0  0  0  0
 22 29  1  0  0  0  0
 18 19  1  0  0  0  0
 15 18  1  1  0  0  0
 17 30  2  0  0  0  0
 31 32  1  0  0  0  0
 32 33  2  0  0  0  0
 33 34  1  0  0  0  0
 34 35  2  0  0  0  0
 35 36  1  0  0  0  0
 36 37  2  0  0  0  0
 37 38  1  0  0  0  0
 38 39  1  0  0  0  0
 40 39  1  1  0  0  0
 40 41  1  0  0  0  0
 41 42  1  0  0  0  0
 42 43  1  0  0  0  0
 43 44  1  0  0  0  0
 44 45  1  0  0  0  0
 45 46  2  0  0  0  0
 46 47  1  0  0  0  0
 47 48  2  0  0  0  0
 48 49  1  0  0  0  0
 31 49  2  0  0  0  0
 31 45  1  0  0  0  0
 32 37  1  0  0  0  0
 44 50  2  0  0  0  0
 38 51  2  0  0  0  0
 49 52  1  0  0  0  0
 48 53  1  0  0  0  0
 47 54  1  0  0  0  0
 41 55  1  6  0  0  0
 35 56  1  0  0  0  0
 34 57  1  0  0  0  0
 33 58  1  0  0  0  0
 15 40  1  0  0  0  0
 16  9  1  1  0  0  0
 14 59  2  0  0  0  0
 59 60  1  0  0  0  0
 60 61  2  0  0  0  0
 61 62  1  0  0  0  0
 62 63  2  0  0  0  0
 63 14  1  0  0  0  0
 61 64  1  0  0  0  0
 64 65  2  0  0  0  0
 65 66  1  0  0  0  0
 66 67  1  0  0  0  0
 67 62  1  0  0  0  0
 60 68  1  0  0  0  0
 68 69  1  0  0  0  0
 69 70  1  0  0  0  0
 70 64  1  0  0  0  0
 70 71  2  0  0  0  0
 71 72  1  0  0  0  0
 72 73  2  0  0  0  0
 73 65  1  0  0  0  0
 72 74  1  0  0  0  0
 73 75  1  0  0  0  0
 59 76  1  0  0  0  0
 69 77  2  0  0  0  0
 67 78  2  0  0  0  0
M  END
>  <cdx:fragmentId>
241

$$$$
