70377.cdx
  Mrv1902 05222410212D          

 58 64  0  0  0  0            999 V2000
    6.8178   -8.9089    0.0000 C   0  0  0  0  0  0  0  0  0  0  0  0
    6.8178   -9.7339    0.0000 C   0  0  1  0  0  0  0  0  0  0  0  0
    7.5323  -10.1464    0.0000 C   0  0  2  0  0  0  0  0  0  0  0  0
    8.2467   -9.7339    0.0000 C   0  0  1  0  0  0  0  0  0  0  0  0
    8.2467   -8.9089    0.0000 C   0  0  2  0  0  0  0  0  0  0  0  0
    7.5323   -8.4964    0.0000 C   0  0  0  0  0  0  0  0  0  0  0  0
    8.9612  -10.1464    0.0000 C   0  0  0  0  0  0  0  0  0  0  0  0
    9.6757   -9.7339    0.0000 C   0  0  0  0  0  0  0  0  0  0  0  0
    9.6757   -8.9089    0.0000 C   0  0  2  0  0  0  0  0  0  0  0  0
    8.9612   -8.4964    0.0000 C   0  0  2  0  0  0  0  0  0  0  0  0
   10.3901   -8.4964    0.0000 C   0  0  1  0  0  0  0  0  0  0  0  0
   10.3901   -7.6714    0.0000 C   0  0  0  0  0  0  0  0  0  0  0  0
    9.6757   -7.2589    0.0000 C   0  0  0  0  0  0  0  0  0  0  0  0
    8.9612   -7.6714    0.0000 C   0  0  0  0  0  0  0  0  0  0  0  0
   11.1046   -8.9089    0.0000 C   0  0  0  0  0  0  0  0  0  0  0  0
   11.8191   -8.4964    0.0000 C   0  0  2  0  0  0  0  0  0  0  0  0
   11.8191   -7.6714    0.0000 C   0  0  2  0  0  0  0  0  0  0  0  0
   11.1046   -7.2589    0.0000 C   0  0  0  0  0  0  0  0  0  0  0  0
   12.5336   -7.2589    0.0000 C   0  0  0  0  0  0  0  0  0  0  0  0
   12.5336   -6.4339    0.0000 C   0  0  0  0  0  0  0  0  0  0  0  0
   11.8191   -6.0214    0.0000 C   0  0  2  0  0  0  0  0  0  0  0  0
   11.1046   -6.4339    0.0000 C   0  0  0  0  0  0  0  0  0  0  0  0
   11.4066   -5.3069    0.0000 C   0  0  0  0  0  0  0  0  0  0  0  0
   12.2316   -5.3069    0.0000 C   0  0  0  0  0  0  0  0  0  0  0  0
   13.0566   -5.3069    0.0000 O   0  0  0  0  0  0  0  0  0  0  0  0
   12.5336   -8.0839    0.0000 C   0  0  0  0  0  0  0  0  0  0  0  0
   13.2480   -7.6714    0.0000 O   0  0  0  0  0  0  0  0  0  0  0  0
    7.9448  -10.8609    0.0000 C   0  0  0  0  0  0  0  0  0  0  0  0
    7.5323  -11.5753    0.0000 O   0  0  0  0  0  0  0  0  0  0  0  0
    6.1033  -10.1464    0.0000 O   0  0  0  0  0  0  0  0  0  0  0  0
    5.3889   -9.7338    0.0000 C   0  0  2  0  0  0  0  0  0  0  0  0
    5.3891   -8.9088    0.0000 O   0  0  0  0  0  0  0  0  0  0  0  0
    4.6747   -8.4961    0.0000 C   0  0  1  0  0  0  0  0  0  0  0  0
    3.9602   -8.9085    0.0000 C   0  0  1  0  0  0  0  0  0  0  0  0
    3.9600   -9.7335    0.0000 C   0  0  1  0  0  0  0  0  0  0  0  0
    4.6744  -10.1461    0.0000 C   0  0  1  0  0  0  0  0  0  0  0  0
    3.2454  -10.1458    0.0000 O   0  0  0  0  0  0  0  0  0  0  0  0
    4.6742  -10.9711    0.0000 O   0  0  0  0  0  0  0  0  0  0  0  0
    7.1198  -10.8609    0.0000 C   0  0  0  0  0  0  0  0  0  0  0  0
    8.2467   -8.0839    0.0000 C   0  0  0  0  0  0  0  0  0  0  0  0
    9.6757   -8.0839    0.0000 C   0  0  0  0  0  0  0  0  0  0  0  0
   12.5336   -8.9089    0.0000 O   0  0  0  0  0  0  0  0  0  0  0  0
    4.6749   -7.6711    0.0000 C   0  0  0  0  0  0  0  0  0  0  0  0
    3.2458   -8.4958    0.0000 O   0  0  0  0  0  0  0  0  0  0  0  0
    2.5285   -9.7376    0.0000 C   0  0  2  0  0  0  0  0  0  0  0  0
    2.5235   -8.9127    0.0000 O   0  0  0  0  0  0  0  0  0  0  0  0
    1.8065   -8.5045    0.0000 C   0  0  1  0  0  0  0  0  0  0  0  0
    1.0945   -8.9213    0.0000 C   0  0  2  0  0  0  0  0  0  0  0  0
    1.0996   -9.7463    0.0000 C   0  0  1  0  0  0  0  0  0  0  0  0
    1.8165  -10.1545    0.0000 C   0  0  1  0  0  0  0  0  0  0  0  0
    1.8015   -7.6795    0.0000 C   0  0  0  0  0  0  0  0  0  0  0  0
    0.3876  -10.1631    0.0000 O   0  0  0  0  0  0  0  0  0  0  0  0
    1.8215  -10.9795    0.0000 O   0  0  0  0  0  0  0  0  0  0  0  0
    0.3776   -8.5132    0.0000 O   0  0  0  0  0  0  0  0  0  0  0  0
    1.0873   -7.2666    0.0000 O   0  0  0  0  0  0  0  0  0  0  0  0
   10.3901   -9.3214    0.0000 C   0  0  0  0  0  0  0  0  0  0  0  0
    8.9612   -9.3214    0.0000 H   0  0  0  0  0  0  0  0  0  0  0  0
    8.2467  -10.5589    0.0000 H   0  0  0  0  0  0  0  0  0  0  0  0
  1  2  1  0  0  0  0
  2  3  1  0  0  0  0
  3  4  1  0  0  0  0
  4  5  1  0  0  0  0
  5  6  1  0  0  0  0
  6  1  1  0  0  0  0
  4  7  1  0  0  0  0
  7  8  1  0  0  0  0
  8  9  1  0  0  0  0
  9 10  1  0  0  0  0
 10  5  1  0  0  0  0
  9 11  1  0  0  0  0
 11 12  1  0  0  0  0
 12 13  1  0  0  0  0
 13 14  2  0  0  0  0
 14 10  1  0  0  0  0
 11 15  1  0  0  0  0
 15 16  1  0  0  0  0
 16 17  1  0  0  0  0
 17 18  1  0  0  0  0
 18 12  2  0  0  0  0
 17 19  1  0  0  0  0
 19 20  1  0  0  0  0
 20 21  1  0  0  0  0
 21 22  1  0  0  0  0
 22 18  1  0  0  0  0
 21 23  1  6  0  0  0
 21 24  1  1  0  0  0
 24 25  1  0  0  0  0
 17 26  1  1  0  0  0
 26 27  1  0  0  0  0
  3 28  1  6  0  0  0
 28 29  1  0  0  0  0
  2 30  1  1  0  0  0
 31 30  1  1  0  0  0
 31 32  1  0  0  0  0
 32 33  1  0  0  0  0
 33 34  1  0  0  0  0
 34 35  1  0  0  0  0
 35 36  1  0  0  0  0
 36 31  1  0  0  0  0
 35 37  1  1  0  0  0
 36 38  1  6  0  0  0
  3 39  1  1  0  0  0
  5 40  1  1  0  0  0
  9 41  1  1  0  0  0
 16 42  1  6  0  0  0
 33 43  1  1  0  0  0
 34 44  1  1  0  0  0
 45 37  1  1  0  0  0
 45 46  1  0  0  0  0
 46 47  1  0  0  0  0
 47 48  1  0  0  0  0
 48 49  1  0  0  0  0
 49 50  1  0  0  0  0
 50 45  1  0  0  0  0
 47 51  1  1  0  0  0
 49 52  1  1  0  0  0
 50 53  1  6  0  0  0
 48 54  1  6  0  0  0
 51 55  1  0  0  0  0
 11 56  1  6  0  0  0
 10 57  1  6  0  0  0
  4 58  1  6  0  0  0
M  END
>  <cdx:fragmentId>
5

$$$$
