70370.cdx
  Mrv1902 05222410222D          

 12 13  0  0  0  0            999 V2000
    5.9125   -9.4325    0.0000 C   0  0  0  0  0  0  0  0  0  0  0  0
    5.5825   -8.0025    0.0000 C   0  0  0  0  0  0  0  0  0  0  0  0
    6.9891   -8.0167    0.0000 C   0  0  0  0  0  0  0  0  0  0  0  0
    6.7375   -8.8550    0.0000 C   0  0  0  0  0  0  0  0  0  0  0  0
    8.0575   -8.2225    0.0000 C   0  0  0  0  0  0  0  0  0  0  0  0
    7.6725   -9.0200    0.0000 C   0  0  0  0  0  0  0  0  0  0  0  0
    5.1425   -9.1300    0.0000 C   0  0  0  0  0  0  0  0  0  0  0  0
    5.0050   -8.4425    0.0000 C   0  0  0  0  0  0  0  0  0  0  0  0
    6.6022   -7.2634    0.0000 C   0  0  0  0  0  0  0  0  0  0  0  0
    6.0188   -6.6800    0.0000 O   0  0  0  0  0  0  0  0  0  0  0  0
    6.8157   -6.4665    0.0000 C   0  0  0  0  0  0  0  0  0  0  0  0
    6.2323   -5.8831    0.0000 C   0  0  0  0  0  0  0  0  0  0  0  0
  4  1  1  0  0  0  0
  2  3  1  0  0  0  0
  3  5  1  0  0  0  0
  4  6  1  0  0  0  0
  5  6  1  0  0  0  0
  1  7  2  0  0  0  0
  2  8  2  0  0  0  0
  7  8  1  0  0  0  0
  4  9  1  0  0  0  0
  3  9  1  0  0  0  0
  9 10  1  0  0  0  0
  9 11  1  0  0  0  0
 11 12  1  0  0  0  0
M  END
>  <cdx:fragmentId>
829

$$$$
