70372.cdx
  Mrv1902 05222410232D          

 15 16  0  0  0  0            999 V2000
    6.4056   -4.0826    0.0000 C   0  0  0  0  0  0  0  0  0  0  0  0
    6.4056   -4.9076    0.0000 C   0  0  2  0  0  0  0  0  0  0  0  0
    7.1200   -5.3201    0.0000 C   0  0  0  0  0  0  0  0  0  0  0  0
    7.8345   -4.9076    0.0000 C   0  0  2  0  0  0  0  0  0  0  0  0
    7.8345   -4.0826    0.0000 C   0  0  0  0  0  0  0  0  0  0  0  0
    7.1200   -3.6701    0.0000 C   0  0  0  0  0  0  0  0  0  0  0  0
    8.5490   -5.3201    0.0000 C   0  0  1  0  0  0  0  0  0  0  0  0
    9.2634   -4.9076    0.0000 C   0  0  0  0  0  0  0  0  0  0  0  0
    9.2634   -4.0826    0.0000 C   0  0  0  0  0  0  0  0  0  0  0  0
    8.5490   -3.6701    0.0000 C   0  0  0  0  0  0  0  0  0  0  0  0
    5.6911   -5.3201    0.0000 C   0  0  0  0  0  0  0  0  0  0  0  0
    5.6911   -6.1451    0.0000 C   0  0  0  0  0  0  0  0  0  0  0  0
    4.9766   -4.9076    0.0000 C   0  0  0  0  0  0  0  0  0  0  0  0
    7.8345   -5.7326    0.0000 C   0  0  0  0  0  0  0  0  0  0  0  0
    8.5490   -6.1451    0.0000 C   0  0  0  0  0  0  0  0  0  0  0  0
  1  2  1  0  0  0  0
  2  3  1  0  0  0  0
  3  4  1  0  0  0  0
  4  5  1  0  0  0  0
  5  6  1  0  0  0  0
  6  1  1  0  0  0  0
  4  7  1  0  0  0  0
  7  8  1  0  0  0  0
  8  9  1  0  0  0  0
  9 10  1  0  0  0  0
 10  5  2  0  0  0  0
  2 11  1  6  0  0  0
 11 12  2  0  0  0  0
 11 13  1  0  0  0  0
  4 14  1  1  0  0  0
  7 15  1  1  0  0  0
M  END
>  <cdx:fragmentId>
5

$$$$
