70375.cdx
  Mrv1902 05222410212D          

 59 65  0  0  0  0            999 V2000
    7.1482  -10.0639    0.0000 C   0  0  0  0  0  0  0  0  0  0  0  0
    7.1482  -10.8889    0.0000 C   0  0  1  0  0  0  0  0  0  0  0  0
    7.8627  -11.3014    0.0000 C   0  0  2  0  0  0  0  0  0  0  0  0
    8.5772  -10.8889    0.0000 C   0  0  1  0  0  0  0  0  0  0  0  0
    8.5772  -10.0639    0.0000 C   0  0  2  0  0  0  0  0  0  0  0  0
    7.8627   -9.6514    0.0000 C   0  0  0  0  0  0  0  0  0  0  0  0
    9.2916  -11.3014    0.0000 C   0  0  0  0  0  0  0  0  0  0  0  0
   10.0061  -10.8889    0.0000 C   0  0  0  0  0  0  0  0  0  0  0  0
   10.0061  -10.0639    0.0000 C   0  0  2  0  0  0  0  0  0  0  0  0
    9.2916   -9.6514    0.0000 C   0  0  2  0  0  0  0  0  0  0  0  0
   10.7206   -9.6514    0.0000 C   0  0  1  0  0  0  0  0  0  0  0  0
   10.7206   -8.8264    0.0000 C   0  0  0  0  0  0  0  0  0  0  0  0
   10.0061   -8.4139    0.0000 C   0  0  0  0  0  0  0  0  0  0  0  0
    9.2916   -8.8264    0.0000 C   0  0  0  0  0  0  0  0  0  0  0  0
   11.4351  -10.0639    0.0000 C   0  0  0  0  0  0  0  0  0  0  0  0
   12.1495   -9.6514    0.0000 C   0  0  2  0  0  0  0  0  0  0  0  0
   12.1495   -8.8264    0.0000 C   0  0  2  0  0  0  0  0  0  0  0  0
   11.4351   -8.4139    0.0000 C   0  0  0  0  0  0  0  0  0  0  0  0
   12.8640   -8.4139    0.0000 C   0  0  0  0  0  0  0  0  0  0  0  0
   12.8640   -7.5889    0.0000 C   0  0  0  0  0  0  0  0  0  0  0  0
   12.1495   -7.1764    0.0000 C   0  0  2  0  0  0  0  0  0  0  0  0
   11.4351   -7.5889    0.0000 C   0  0  0  0  0  0  0  0  0  0  0  0
   11.7370   -6.4619    0.0000 C   0  0  0  0  0  0  0  0  0  0  0  0
   12.5620   -6.4619    0.0000 C   0  0  0  0  0  0  0  0  0  0  0  0
   13.3870   -6.4619    0.0000 O   0  0  0  0  0  0  0  0  0  0  0  0
   12.1495   -5.7475    0.0000 O   0  0  0  0  0  0  0  0  0  0  0  0
   12.8640   -9.2389    0.0000 C   0  0  0  0  0  0  0  0  0  0  0  0
   13.5785   -8.8264    0.0000 O   0  0  0  0  0  0  0  0  0  0  0  0
    8.2752  -12.0159    0.0000 C   0  0  0  0  0  0  0  0  0  0  0  0
    7.8627  -12.7303    0.0000 O   0  0  0  0  0  0  0  0  0  0  0  0
    6.4338  -11.3014    0.0000 O   0  0  0  0  0  0  0  0  0  0  0  0
    5.7190  -10.8893    0.0000 C   0  0  2  0  0  0  0  0  0  0  0  0
    5.7186  -10.0643    0.0000 O   0  0  0  0  0  0  0  0  0  0  0  0
    5.0039   -9.6522    0.0000 C   0  0  1  0  0  0  0  0  0  0  0  0
    4.2896  -10.0651    0.0000 C   0  0  1  0  0  0  0  0  0  0  0  0
    4.2901  -10.8901    0.0000 C   0  0  1  0  0  0  0  0  0  0  0  0
    5.0048  -11.3022    0.0000 C   0  0  1  0  0  0  0  0  0  0  0  0
    3.5759  -11.3031    0.0000 O   0  0  0  0  0  0  0  0  0  0  0  0
    5.0053  -12.1272    0.0000 O   0  0  0  0  0  0  0  0  0  0  0  0
    7.4502  -12.0159    0.0000 C   0  0  0  0  0  0  0  0  0  0  0  0
    8.5772   -9.2389    0.0000 C   0  0  0  0  0  0  0  0  0  0  0  0
   10.0061   -9.2389    0.0000 C   0  0  0  0  0  0  0  0  0  0  0  0
   12.8640  -10.0639    0.0000 O   0  0  0  0  0  0  0  0  0  0  0  0
    5.0034   -8.8272    0.0000 C   0  0  0  0  0  0  0  0  0  0  0  0
    3.5749   -9.6531    0.0000 O   0  0  0  0  0  0  0  0  0  0  0  0
    2.8611  -10.8911    0.0000 C   0  0  2  0  0  0  0  0  0  0  0  0
    2.8605  -10.0661    0.0000 O   0  0  0  0  0  0  0  0  0  0  0  0
    2.1457   -9.6541    0.0000 C   0  0  1  0  0  0  0  0  0  0  0  0
    1.4316  -10.0671    0.0000 C   0  0  2  0  0  0  0  0  0  0  0  0
    1.4322  -10.8921    0.0000 C   0  0  1  0  0  0  0  0  0  0  0  0
    2.1469  -11.3041    0.0000 C   0  0  1  0  0  0  0  0  0  0  0  0
    2.1451   -8.8291    0.0000 C   0  0  0  0  0  0  0  0  0  0  0  0
    0.7180  -11.3051    0.0000 O   0  0  0  0  0  0  0  0  0  0  0  0
    2.1475  -12.1291    0.0000 O   0  0  0  0  0  0  0  0  0  0  0  0
    0.7168   -9.6551    0.0000 O   0  0  0  0  0  0  0  0  0  0  0  0
    1.4331   -8.4123    0.0000 O   0  0  0  0  0  0  0  0  0  0  0  0
   10.7206  -10.4764    0.0000 C   0  0  0  0  0  0  0  0  0  0  0  0
    8.5772  -11.7139    0.0000 H   0  0  0  0  0  0  0  0  0  0  0  0
    9.2916  -10.4764    0.0000 H   0  0  0  0  0  0  0  0  0  0  0  0
  1  2  1  0  0  0  0
  2  3  1  0  0  0  0
  3  4  1  0  0  0  0
  4  5  1  0  0  0  0
  5  6  1  0  0  0  0
  6  1  1  0  0  0  0
  4  7  1  0  0  0  0
  7  8  1  0  0  0  0
  8  9  1  0  0  0  0
  9 10  1  0  0  0  0
 10  5  1  0  0  0  0
  9 11  1  0  0  0  0
 11 12  1  0  0  0  0
 12 13  1  0  0  0  0
 13 14  2  0  0  0  0
 14 10  1  0  0  0  0
 11 15  1  0  0  0  0
 15 16  1  0  0  0  0
 16 17  1  0  0  0  0
 17 18  1  0  0  0  0
 18 12  2  0  0  0  0
 17 19  1  0  0  0  0
 19 20  1  0  0  0  0
 20 21  1  0  0  0  0
 21 22  1  0  0  0  0
 22 18  1  0  0  0  0
 21 23  1  6  0  0  0
 21 24  1  1  0  0  0
 24 25  1  0  0  0  0
 24 26  2  0  0  0  0
 17 27  1  1  0  0  0
 27 28  1  0  0  0  0
  3 29  1  6  0  0  0
 29 30  1  0  0  0  0
  2 31  1  1  0  0  0
 32 31  1  1  0  0  0
 32 33  1  0  0  0  0
 33 34  1  0  0  0  0
 34 35  1  0  0  0  0
 35 36  1  0  0  0  0
 36 37  1  0  0  0  0
 37 32  1  0  0  0  0
 36 38  1  1  0  0  0
 37 39  1  6  0  0  0
  3 40  1  1  0  0  0
  5 41  1  1  0  0  0
  9 42  1  1  0  0  0
 16 43  1  6  0  0  0
 34 44  1  1  0  0  0
 35 45  1  1  0  0  0
 46 38  1  1  0  0  0
 46 47  1  0  0  0  0
 47 48  1  0  0  0  0
 48 49  1  0  0  0  0
 49 50  1  0  0  0  0
 50 51  1  0  0  0  0
 51 46  1  0  0  0  0
 48 52  1  1  0  0  0
 50 53  1  1  0  0  0
 51 54  1  6  0  0  0
 49 55  1  6  0  0  0
 52 56  1  0  0  0  0
 11 57  1  6  0  0  0
  4 58  1  6  0  0  0
 10 59  1  6  0  0  0
M  END
>  <cdx:fragmentId>
5

$$$$
