70388.cdx
  Mrv1902 05222410212D          

 10  9  0  0  0  0            999 V2000
    3.9300   -6.9701    0.0000 C   0  0  0  0  0  0  0  0  0  0  0  0
    4.6445   -7.3826    0.0000 C   0  0  0  0  0  0  0  0  0  0  0  0
    5.3590   -6.9701    0.0000 C   0  0  0  0  0  0  0  0  0  0  0  0
    6.0734   -7.3826    0.0000 O   0  0  0  0  0  0  0  0  0  0  0  0
    6.7879   -6.9701    0.0000 C   0  0  0  0  0  0  0  0  0  0  0  0
    7.5024   -7.3826    0.0000 C   0  0  0  0  0  0  0  0  0  0  0  0
    8.2169   -6.9701    0.0000 C   0  0  0  0  0  0  0  0  0  0  0  0
    3.9300   -6.1451    0.0000 C   0  0  0  0  0  0  0  0  0  0  0  0
    4.6445   -8.2076    0.0000 C   0  0  0  0  0  0  0  0  0  0  0  0
    5.3590   -6.1451    0.0000 O   0  0  0  0  0  0  0  0  0  0  0  0
  1  2  2  0  0  0  0
  2  3  1  0  0  0  0
  3  4  1  0  0  0  0
  4  5  1  0  0  0  0
  5  6  1  0  0  0  0
  6  7  1  0  0  0  0
  1  8  1  0  0  0  0
  2  9  1  0  0  0  0
  3 10  2  0  0  0  0
M  END
>  <cdx:fragmentId>
3

$$$$
