70383.cdx
  Mrv1902 05222410242D          

 23 24  0  0  0  0            999 V2000
    5.5668   -6.6676    0.0000 C   0  0  2  0  0  0  0  0  0  0  0  0
    5.5668   -7.4926    0.0000 C   0  0  2  0  0  0  0  0  0  0  0  0
    6.2813   -7.9051    0.0000 C   0  0  1  0  0  0  0  0  0  0  0  0
    6.9957   -7.4926    0.0000 C   0  0  2  0  0  0  0  0  0  0  0  0
    6.9957   -6.6676    0.0000 C   0  0  1  0  0  0  0  0  0  0  0  0
    6.2813   -6.2551    0.0000 O   0  0  0  0  0  0  0  0  0  0  0  0
    7.7102   -6.2551    0.0000 O   0  0  0  0  0  0  0  0  0  0  0  0
    8.4247   -6.6676    0.0000 C   0  0  0  0  0  0  0  0  0  0  0  0
    7.7102   -7.9051    0.0000 O   0  0  0  0  0  0  0  0  0  0  0  0
    4.8523   -7.9051    0.0000 O   0  0  0  0  0  0  0  0  0  0  0  0
    6.2813   -8.7301    0.0000 O   0  0  0  0  0  0  0  0  0  0  0  0
    4.8523   -6.2551    0.0000 C   0  0  0  0  0  0  0  0  0  0  0  0
    4.1379   -6.6676    0.0000 O   0  0  0  0  0  0  0  0  0  0  0  0
    8.4247   -7.4926    0.0000 C   0  0  0  0  0  0  0  0  0  0  0  0
    9.1392   -7.9051    0.0000 C   0  0  0  0  0  0  0  0  0  0  0  0
    9.8536   -7.4926    0.0000 C   0  0  0  0  0  0  0  0  0  0  0  0
    9.8536   -6.6676    0.0000 C   0  0  0  0  0  0  0  0  0  0  0  0
    9.1392   -6.2551    0.0000 C   0  0  0  0  0  0  0  0  0  0  0  0
    9.1392   -8.7301    0.0000 O   0  0  0  0  0  0  0  0  0  0  0  0
    9.8536   -9.1426    0.0000 C   0  0  0  0  0  0  0  0  0  0  0  0
    9.1392   -5.4301    0.0000 C   0  0  0  0  0  0  0  0  0  0  0  0
    9.8536   -5.0176    0.0000 C   0  0  0  0  0  0  0  0  0  0  0  0
    8.4247   -5.0176    0.0000 O   0  0  0  0  0  0  0  0  0  0  0  0
  1  2  1  0  0  0  0
  2  3  1  0  0  0  0
  3  4  1  0  0  0  0
  4  5  1  0  0  0  0
  5  6  1  0  0  0  0
  6  1  1  0  0  0  0
  5  7  1  1  0  0  0
  7  8  1  0  0  0  0
  4  9  1  6  0  0  0
  2 10  1  6  0  0  0
  3 11  1  1  0  0  0
  1 12  1  1  0  0  0
 12 13  1  0  0  0  0
  8 14  2  0  0  0  0
 14 15  1  0  0  0  0
 15 16  2  0  0  0  0
 16 17  1  0  0  0  0
 17 18  2  0  0  0  0
 18  8  1  0  0  0  0
 15 19  1  0  0  0  0
 19 20  1  0  0  0  0
 18 21  1  0  0  0  0
 21 22  1  0  0  0  0
 21 23  2  0  0  0  0
M  END
>  <cdx:fragmentId>
5

$$$$
