70384.cdx
  Mrv1902 05222410252D          

 31 34  0  0  0  0            999 V2000
    4.0950   -6.5111    0.0000 C   0  0  0  0  0  0  0  0  0  0  0  0
    4.8096   -6.9234    0.0000 C   0  0  0  0  0  0  0  0  0  0  0  0
    5.5240   -6.5107    0.0000 C   0  0  0  0  0  0  0  0  0  0  0  0
    5.5237   -5.6857    0.0000 C   0  0  0  0  0  0  0  0  0  0  0  0
    4.8091   -5.2734    0.0000 C   0  0  0  0  0  0  0  0  0  0  0  0
    4.0948   -5.6861    0.0000 C   0  0  0  0  0  0  0  0  0  0  0  0
    6.2386   -6.9230    0.0000 C   0  0  0  0  0  0  0  0  0  0  0  0
    6.9529   -6.5103    0.0000 C   0  0  0  0  0  0  0  0  0  0  0  0
    6.9527   -5.6853    0.0000 C   0  0  0  0  0  0  0  0  0  0  0  0
    6.2381   -5.2730    0.0000 O   0  3  0  0  0  0  0  0  0  0  0  0
    7.6675   -6.9225    0.0000 O   0  0  0  0  0  0  0  0  0  0  0  0
    8.3816   -5.6848    0.0000 C   0  0  0  0  0  0  0  0  0  0  0  0
    7.6670   -5.2725    0.0000 C   0  0  0  0  0  0  0  0  0  0  0  0
    9.0959   -5.2721    0.0000 C   0  0  0  0  0  0  0  0  0  0  0  0
    9.0957   -4.4471    0.0000 C   0  0  0  0  0  0  0  0  0  0  0  0
    8.3811   -4.0348    0.0000 C   0  0  0  0  0  0  0  0  0  0  0  0
    7.6667   -4.4475    0.0000 C   0  0  0  0  0  0  0  0  0  0  0  0
    6.9534   -8.1603    0.0000 O   0  0  0  0  0  0  0  0  0  0  0  0
    7.6678   -7.7475    0.0000 C   0  0  2  0  0  0  0  0  0  0  0  0
    6.9537   -8.9853    0.0000 C   0  0  1  0  0  0  0  0  0  0  0  0
    7.6683   -9.3975    0.0000 C   0  0  1  0  0  0  0  0  0  0  0  0
    8.3826   -8.9848    0.0000 C   0  0  1  0  0  0  0  0  0  0  0  0
    8.3824   -8.1598    0.0000 C   0  0  1  0  0  0  0  0  0  0  0  0
    6.2393   -9.3980    0.0000 C   0  0  0  0  0  0  0  0  0  0  0  0
    6.2396  -10.2230    0.0000 O   0  0  0  0  0  0  0  0  0  0  0  0
    4.8099   -7.7484    0.0000 O   0  0  0  0  0  0  0  0  0  0  0  0
    3.3802   -5.2739    0.0000 O   0  0  0  0  0  0  0  0  0  0  0  0
    9.8100   -4.0344    0.0000 O   0  0  0  0  0  0  0  0  0  0  0  0
    7.6685  -10.2225    0.0000 O   0  0  0  0  0  0  0  0  0  0  0  0
    9.0972   -9.3971    0.0000 O   0  0  0  0  0  0  0  0  0  0  0  0
    9.0967   -7.7471    0.0000 O   0  0  0  0  0  0  0  0  0  0  0  0
  1  2  1  0  0  0  0
  2  3  2  0  0  0  0
  3  4  1  0  0  0  0
  4  5  2  0  0  0  0
  5  6  1  0  0  0  0
  6  1  2  0  0  0  0
  3  7  1  0  0  0  0
  7  8  2  0  0  0  0
  8  9  1  0  0  0  0
  9 10  2  0  0  0  0
 10  4  1  0  0  0  0
  8 11  1  0  0  0  0
 12 13  1  0  0  0  0
 13  9  1  0  0  0  0
 12 14  2  0  0  0  0
 14 15  1  0  0  0  0
 15 16  2  0  0  0  0
 16 17  1  0  0  0  0
 17 13  2  0  0  0  0
 18 19  1  0  0  0  0
 19 11  1  1  0  0  0
 18 20  1  0  0  0  0
 20 21  1  0  0  0  0
 21 22  1  0  0  0  0
 22 23  1  0  0  0  0
 23 19  1  0  0  0  0
 20 24  1  1  0  0  0
 24 25  1  0  0  0  0
  2 26  1  0  0  0  0
  6 27  1  0  0  0  0
 15 28  1  0  0  0  0
 21 29  1  1  0  0  0
 22 30  1  1  0  0  0
 23 31  1  6  0  0  0
M  CHG  1  10   1
M  END
>  <cdx:fragmentId>
5

$$$$
