70387.cdx
  Mrv1902 05222410252D          

 32 33  0  0  0  0            999 V2000
    3.7793   -6.9014    0.0000 C   0  0  0  0  0  0  0  0  0  0  0  0
    3.7793   -7.7264    0.0000 C   0  0  0  0  0  0  0  0  0  0  0  0
    4.4938   -8.1389    0.0000 C   0  0  0  0  0  0  0  0  0  0  0  0
    5.2082   -7.7264    0.0000 C   0  0  0  0  0  0  0  0  0  0  0  0
    5.2082   -6.9014    0.0000 C   0  0  0  0  0  0  0  0  0  0  0  0
    4.4938   -6.4889    0.0000 C   0  0  0  0  0  0  0  0  0  0  0  0
    3.0648   -6.4889    0.0000 O   0  0  0  0  0  0  0  0  0  0  0  0
    2.3504   -6.9014    0.0000 C   0  0  0  0  0  0  0  0  0  0  0  0
    5.9227   -8.1389    0.0000 C   0  0  0  0  0  0  0  0  0  0  0  0
    6.6372   -6.9014    0.0000 C   0  0  0  0  0  0  0  0  0  0  0  0
    5.9227   -6.4889    0.0000 O   0  0  0  0  0  0  0  0  0  0  0  0
    5.2082   -5.2514    0.0000 C   0  0  0  0  0  0  0  0  0  0  0  0
    4.4938   -5.6639    0.0000 C   0  0  0  0  0  0  0  0  0  0  0  0
    5.2082   -4.4264    0.0000 C   0  0  0  0  0  0  0  0  0  0  0  0
    4.4938   -4.0139    0.0000 C   0  0  0  0  0  0  0  0  0  0  0  0
    4.4938   -8.9639    0.0000 O   0  0  0  0  0  0  0  0  0  0  0  0
    5.2082   -9.3764    0.0000 O   0  0  0  0  0  0  0  0  0  0  0  0
    5.9227   -8.9639    0.0000 C   0  0  0  0  0  0  0  0  0  0  0  0
    6.6372   -9.3764    0.0000 C   0  0  0  0  0  0  0  0  0  0  0  0
    7.3517   -8.9639    0.0000 C   0  0  0  0  0  0  0  0  0  0  0  0
    7.3517   -8.1389    0.0000 O   0  0  0  0  0  0  0  0  0  0  0  0
    6.6372  -10.2014    0.0000 C   0  0  0  0  0  0  0  0  0  0  0  0
    7.3517  -10.6139    0.0000 C   0  0  0  0  0  0  0  0  0  0  0  0
    8.0661  -10.2014    0.0000 C   0  0  0  0  0  0  0  0  0  0  0  0
    8.0661   -9.3764    0.0000 C   0  0  0  0  0  0  0  0  0  0  0  0
    8.7806  -10.6139    0.0000 O   0  0  0  0  0  0  0  0  0  0  0  0
    9.4951   -9.3764    0.0000 C   0  0  0  0  0  0  0  0  0  0  0  0
    8.7806   -8.9639    0.0000 C   0  0  0  0  0  0  0  0  0  0  0  0
   10.9240   -9.3764    0.0000 C   0  0  0  0  0  0  0  0  0  0  0  0
   10.2095   -8.9639    0.0000 C   0  0  0  0  0  0  0  0  0  0  0  0
   10.2095   -8.1389    0.0000 C   0  0  0  0  0  0  0  0  0  0  0  0
    5.9227   -4.0139    0.0000 C   0  0  0  0  0  0  0  0  0  0  0  0
  1  2  2  0  0  0  0
  2  3  1  0  0  0  0
  3  4  2  0  0  0  0
  4  5  1  0  0  0  0
  5  6  2  0  0  0  0
  6  1  1  0  0  0  0
  1  7  1  0  0  0  0
  7  8  1  0  0  0  0
  4  9  1  0  0  0  0
 10 11  1  0  0  0  0
 11  5  1  0  0  0  0
 12 13  1  0  0  0  0
 13  6  1  0  0  0  0
 12 14  2  0  0  0  0
 14 15  1  0  0  0  0
  3 16  1  0  0  0  0
 17 18  2  0  0  0  0
 18  9  1  0  0  0  0
 18 19  1  0  0  0  0
 19 20  1  0  0  0  0
 20 21  1  0  0  0  0
 19 22  2  0  0  0  0
 22 23  1  0  0  0  0
 23 24  2  0  0  0  0
 24 25  1  0  0  0  0
 25 20  2  0  0  0  0
 24 26  1  0  0  0  0
 27 28  1  0  0  0  0
 28 25  1  0  0  0  0
 29 30  1  0  0  0  0
 30 27  2  0  0  0  0
 30 31  1  0  0  0  0
 14 32  1  0  0  0  0
M  END
>  <cdx:fragmentId>
5

$$$$
