70386.cdx
  Mrv1902 05222410242D          

 23 24  0  0  0  0            999 V2000
    4.9893  -12.0439    0.0000 C   0  0  0  0  0  0  0  0  0  0  0  0
    4.9893  -12.8689    0.0000 C   0  0  0  0  0  0  0  0  0  0  0  0
    5.7038  -13.2814    0.0000 C   0  0  0  0  0  0  0  0  0  0  0  0
    6.4182  -12.8689    0.0000 C   0  0  0  0  0  0  0  0  0  0  0  0
    6.4182  -12.0439    0.0000 C   0  0  0  0  0  0  0  0  0  0  0  0
    5.7038  -11.6314    0.0000 C   0  0  0  0  0  0  0  0  0  0  0  0
    5.7038  -14.1064    0.0000 O   0  0  0  0  0  0  0  0  0  0  0  0
    4.2748  -13.2814    0.0000 O   0  0  0  0  0  0  0  0  0  0  0  0
    3.5604  -12.8689    0.0000 C   0  0  0  0  0  0  0  0  0  0  0  0
    5.7038  -10.8064    0.0000 C   0  0  0  0  0  0  0  0  0  0  0  0
    6.4182  -10.3939    0.0000 C   0  0  0  0  0  0  0  0  0  0  0  0
    6.4182   -9.5689    0.0000 C   0  0  0  0  0  0  0  0  0  0  0  0
    5.7038   -9.1564    0.0000 O   0  0  0  0  0  0  0  0  0  0  0  0
    7.1327   -9.1564    0.0000 O   0  0  0  0  0  0  0  0  0  0  0  0
    7.1327   -8.3314    0.0000 C   0  0  0  0  0  0  0  0  0  0  0  0
    6.4182   -7.9189    0.0000 C   0  0  0  0  0  0  0  0  0  0  0  0
    7.8472   -7.9189    0.0000 C   0  0  0  0  0  0  0  0  0  0  0  0
    8.5617   -8.3314    0.0000 C   0  0  0  0  0  0  0  0  0  0  0  0
    9.2761   -7.9189    0.0000 C   0  0  0  0  0  0  0  0  0  0  0  0
    9.2761   -7.0939    0.0000 C   0  0  0  0  0  0  0  0  0  0  0  0
    8.5617   -6.6814    0.0000 C   0  0  0  0  0  0  0  0  0  0  0  0
    7.8472   -7.0939    0.0000 C   0  0  0  0  0  0  0  0  0  0  0  0
    9.9906   -6.6814    0.0000 O   0  0  0  0  0  0  0  0  0  0  0  0
  1  2  2  0  0  0  0
  2  3  1  0  0  0  0
  3  4  2  0  0  0  0
  4  5  1  0  0  0  0
  5  6  2  0  0  0  0
  6  1  1  0  0  0  0
  3  7  1  0  0  0  0
  2  8  1  0  0  0  0
  8  9  1  0  0  0  0
  6 10  1  0  0  0  0
 10 11  2  0  0  0  0
 11 12  1  0  0  0  0
 12 13  2  0  0  0  0
 12 14  1  0  0  0  0
 14 15  1  0  0  0  0
 15 16  1  0  0  0  0
 15 17  1  0  0  0  0
 17 18  2  0  0  0  0
 18 19  1  0  0  0  0
 19 20  2  0  0  0  0
 20 21  1  0  0  0  0
 21 22  2  0  0  0  0
 22 17  1  0  0  0  0
 20 23  1  0  0  0  0
M  END
>  <cdx:fragmentId>
5

$$$$
