70385.cdx
  Mrv1902 05222410252D          

 15 15  0  0  0  0            999 V2000
    3.8618   -9.4314    0.0000 C   0  0  0  0  0  0  0  0  0  0  0  0
    3.8618  -10.2564    0.0000 C   0  0  0  0  0  0  0  0  0  0  0  0
    4.5763  -10.6689    0.0000 C   0  0  0  0  0  0  0  0  0  0  0  0
    5.2907  -10.2564    0.0000 C   0  0  0  0  0  0  0  0  0  0  0  0
    5.2907   -9.4314    0.0000 C   0  0  0  0  0  0  0  0  0  0  0  0
    4.5763   -9.0189    0.0000 C   0  0  0  0  0  0  0  0  0  0  0  0
    6.0052  -10.6689    0.0000 C   0  0  0  0  0  0  0  0  0  0  0  0
    6.7197  -10.2564    0.0000 C   0  0  0  0  0  0  0  0  0  0  0  0
    6.7197   -9.4314    0.0000 C   0  0  0  0  0  0  0  0  0  0  0  0
    6.0052   -9.0189    0.0000 O   0  0  0  0  0  0  0  0  0  0  0  0
    7.4342  -10.6689    0.0000 C   0  0  0  0  0  0  0  0  0  0  0  0
    8.1486  -10.2564    0.0000 O   0  0  0  0  0  0  0  0  0  0  0  0
    7.4342   -9.0189    0.0000 O   0  0  0  0  0  0  0  0  0  0  0  0
    7.4342  -11.4939    0.0000 O   0  0  0  0  0  0  0  0  0  0  0  0
    3.1473   -9.0189    0.0000 O   0  0  0  0  0  0  0  0  0  0  0  0
  1  2  2  0  0  0  0
  2  3  1  0  0  0  0
  3  4  2  0  0  0  0
  4  5  1  0  0  0  0
  5  6  2  0  0  0  0
  6  1  1  0  0  0  0
  4  7  1  0  0  0  0
  7  8  1  0  0  0  0
  8  9  1  0  0  0  0
  9 10  1  0  0  0  0
  8 11  1  0  0  0  0
 11 12  2  0  0  0  0
 13  9  2  0  0  0  0
 11 14  1  0  0  0  0
  1 15  1  0  0  0  0
M  END
>  <cdx:fragmentId>
5

$$$$
