70398.cdx
  Mrv1902 05222410222D          

 29 30  0  0  0  0            999 V2000
    3.4768   -9.1426    0.0000 C   0  0  0  0  0  0  0  0  0  0  0  0
    3.4768   -9.9676    0.0000 C   0  0  0  0  0  0  0  0  0  0  0  0
    4.1913  -10.3801    0.0000 C   0  0  0  0  0  0  0  0  0  0  0  0
    4.9057   -9.9676    0.0000 C   0  0  0  0  0  0  0  0  0  0  0  0
    4.9057   -9.1426    0.0000 C   0  0  0  0  0  0  0  0  0  0  0  0
    4.1913   -8.7301    0.0000 C   0  0  0  0  0  0  0  0  0  0  0  0
    5.6202  -10.3801    0.0000 C   0  0  0  0  0  0  0  0  0  0  0  0
    6.3347   -9.9676    0.0000 C   0  0  0  0  0  0  0  0  0  0  0  0
    6.3347   -9.1426    0.0000 C   0  0  0  0  0  0  0  0  0  0  0  0
    5.6202   -8.7301    0.0000 O   0  0  0  0  0  0  0  0  0  0  0  0
    7.7636   -9.1426    0.0000 C   0  0  0  0  0  0  0  0  0  0  0  0
    7.0492   -8.7301    0.0000 C   0  0  0  0  0  0  0  0  0  0  0  0
    8.4781   -8.7301    0.0000 C   0  0  0  0  0  0  0  0  0  0  0  0
    8.4781   -7.9051    0.0000 C   0  0  0  0  0  0  0  0  0  0  0  0
    7.7636   -7.4926    0.0000 C   0  0  0  0  0  0  0  0  0  0  0  0
    7.0492   -7.9051    0.0000 C   0  0  0  0  0  0  0  0  0  0  0  0
    2.7623   -8.7301    0.0000 O   0  0  0  0  0  0  0  0  0  0  0  0
    4.1913   -7.9051    0.0000 C   0  0  0  0  0  0  0  0  0  0  0  0
    9.1926   -7.4926    0.0000 O   0  0  0  0  0  0  0  0  0  0  0  0
    9.1926   -9.1426    0.0000 C   0  0  0  0  0  0  0  0  0  0  0  0
    5.6202  -11.2051    0.0000 O   0  0  0  0  0  0  0  0  0  0  0  0
    9.9070   -8.7301    0.0000 C   0  0  0  0  0  0  0  0  0  0  0  0
   10.6215   -9.1426    0.0000 C   0  0  0  0  0  0  0  0  0  0  0  0
   11.3360   -8.7301    0.0000 C   0  0  0  0  0  0  0  0  0  0  0  0
   10.6215   -9.9676    0.0000 C   0  0  0  0  0  0  0  0  0  0  0  0
    3.4768   -7.4926    0.0000 C   0  0  0  0  0  0  0  0  0  0  0  0
    3.4768   -6.6676    0.0000 C   0  0  0  0  0  0  0  0  0  0  0  0
    4.1913   -6.2551    0.0000 C   0  0  0  0  0  0  0  0  0  0  0  0
    2.7623   -6.2551    0.0000 C   0  0  0  0  0  0  0  0  0  0  0  0
  1  2  2  0  0  0  0
  2  3  1  0  0  0  0
  3  4  2  0  0  0  0
  4  5  1  0  0  0  0
  5  6  2  0  0  0  0
  6  1  1  0  0  0  0
  4  7  1  0  0  0  0
  7  8  1  0  0  0  0
  8  9  2  0  0  0  0
 10  5  1  0  0  0  0
 11 12  1  0  0  0  0
 12  9  1  0  0  0  0
 11 13  2  0  0  0  0
 13 14  1  0  0  0  0
 14 15  2  0  0  0  0
 15 16  1  0  0  0  0
 16 12  2  0  0  0  0
  1 17  1  0  0  0  0
  6 18  1  0  0  0  0
 14 19  1  0  0  0  0
 13 20  1  0  0  0  0
  7 21  2  0  0  0  0
 20 22  1  0  0  0  0
 22 23  2  0  0  0  0
 23 24  1  0  0  0  0
 23 25  1  0  0  0  0
 18 26  1  0  0  0  0
 26 27  2  0  0  0  0
 27 28  1  0  0  0  0
 27 29  1  0  0  0  0
M  END
>  <cdx:fragmentId>
5

$$$$
