70394.cdx
  Mrv1902 05222410232D          

 72 80  0  0  0  0            999 V2000
    1.4932   -9.7887    0.0000 O   0  0  0  0  0  0  0  0  0  0  0  0
    0.7769  -11.0251    0.0000 C   0  0  0  0  0  0  0  0  0  0  0  0
    1.4920  -10.6137    0.0000 C   0  0  0  0  0  0  0  0  0  0  0  0
   12.2122   -7.7427    0.0000 C   0  0  0  0  0  0  0  0  0  0  0  0
   10.7845   -7.7405    0.0000 C   0  0  0  0  0  0  0  0  0  0  0  0
    5.7876   -4.8453    0.0000 O   0  0  0  0  0  0  0  0  0  0  0  0
    4.3460  -13.0931    0.0000 O   0  0  0  0  0  0  0  0  0  0  0  0
   12.9273   -8.9813    0.0000 C   0  0  0  0  0  0  0  0  0  0  0  0
    4.3574   -5.6681    0.0000 O   0  0  0  0  0  0  0  0  0  0  0  0
    4.3549   -7.3181    0.0000 O   0  0  0  0  0  0  0  0  0  0  0  0
    7.2153   -5.6725    0.0000 C   0  0  0  0  0  0  0  0  0  0  0  0
    2.9184  -12.2659    0.0000 O   0  0  0  0  0  0  0  0  0  0  0  0
    5.7762  -12.2703    0.0000 O   0  0  0  0  0  0  0  0  0  0  0  0
   10.4783  -10.5170    0.0000 C   0  0  0  0  0  0  0  0  0  0  0  0
    9.6533  -10.5157    0.0000 C   0  0  0  0  0  0  0  0  0  0  0  0
    2.2058  -11.0273    0.0000 O   0  0  0  0  0  0  0  0  0  0  0  0
    2.9209  -10.6159    0.0000 C   0  0  0  0  0  0  0  0  0  0  0  0
   15.0726   -6.9221    0.0000 C   0  0  0  0  0  0  0  0  0  0  0  0
   15.0739   -6.0971    0.0000 C   0  0  0  0  0  0  0  0  0  0  0  0
   14.3600   -5.6835    0.0000 C   0  0  1  0  0  0  0  0  0  0  0  0
   13.6449   -6.0949    0.0000 C   0  0  0  0  0  0  0  0  0  0  0  0
   13.6411   -8.5699    0.0000 C   0  0  0  0  0  0  0  0  0  0  0  0
   14.3562   -8.1585    0.0000 C   0  0  1  0  0  0  0  0  0  0  0  0
   14.3575   -7.3335    0.0000 C   0  0  0  0  0  0  0  0  0  0  0  0
   13.6437   -6.9199    0.0000 C   0  0  2  0  0  0  0  0  0  0  0  0
   12.9273   -8.1563    0.0000 C   0  0  1  0  0  0  0  0  0  0  0  0
   12.9285   -7.3313    0.0000 C   0  0  0  0  0  0  0  0  0  0  0  0
   12.2147   -6.9177    0.0000 C   0  0  0  0  0  0  0  0  0  0  0  0
   11.4996   -7.3291    0.0000 C   0  0  0  0  0  0  0  0  0  0  0  0
   11.4958   -9.8041    0.0000 C   0  0  0  0  0  0  0  0  0  0  0  0
   12.2109   -9.3927    0.0000 C   0  0  0  0  0  0  0  0  0  0  0  0
   12.2122   -8.5677    0.0000 C   0  0  1  0  0  0  0  0  0  0  0  0
   11.4983   -8.1541    0.0000 C   0  0  1  0  0  0  0  0  0  0  0  0
   10.0669   -9.8019    0.0000 C   0  0  1  0  0  0  0  0  0  0  0  0
   10.7820   -9.3905    0.0000 C   0  0  1  0  0  0  0  0  0  0  0  0
   10.7832   -8.5655    0.0000 C   0  0  1  0  0  0  0  0  0  0  0  0
   10.0694   -8.1519    0.0000 C   0  0  0  0  0  0  0  0  0  0  0  0
    8.6379   -9.7997    0.0000 O   0  0  0  0  0  0  0  0  0  0  0  0
    9.3530   -9.3883    0.0000 C   0  0  1  0  0  0  0  0  0  0  0  0
    9.3543   -8.5633    0.0000 C   0  0  0  0  0  0  0  0  0  0  0  0
    8.6405   -8.1497    0.0000 O   0  0  0  0  0  0  0  0  0  0  0  0
    6.5002   -6.0839    0.0000 C   0  0  1  0  0  0  0  0  0  0  0  0
    5.7864   -5.6703    0.0000 C   0  0  1  0  0  0  0  0  0  0  0  0
    5.0713   -6.0817    0.0000 C   0  0  2  0  0  0  0  0  0  0  0  0
    5.0700   -6.9067    0.0000 C   0  0  2  0  0  0  0  0  0  0  0  0
    7.2128   -7.3225    0.0000 O   0  0  0  0  0  0  0  0  0  0  0  0
    6.4990   -6.9089    0.0000 O   0  0  0  0  0  0  0  0  0  0  0  0
    5.7838   -7.3203    0.0000 C   0  0  1  0  0  0  0  0  0  0  0  0
    7.2090   -9.7975    0.0000 O   0  0  0  0  0  0  0  0  0  0  0  0
    7.9241   -9.3861    0.0000 C   0  0  2  0  0  0  0  0  0  0  0  0
    7.9254   -8.5611    0.0000 C   0  0  1  0  0  0  0  0  0  0  0  0
    7.2115   -8.1475    0.0000 C   0  0  2  0  0  0  0  0  0  0  0  0
    6.4952   -9.3839    0.0000 C   0  0  1  0  0  0  0  0  0  0  0  0
    6.4964   -8.5589    0.0000 C   0  0  1  0  0  0  0  0  0  0  0  0
    5.7826   -8.1453    0.0000 O   0  0  0  0  0  0  0  0  0  0  0  0
    5.7788  -10.6203    0.0000 O   0  0  0  0  0  0  0  0  0  0  0  0
    5.7800   -9.7953    0.0000 C   0  0  0  0  0  0  0  0  0  0  0  0
    5.0624  -11.8567    0.0000 C   0  0  1  0  0  0  0  0  0  0  0  0
    5.0637  -11.0317    0.0000 C   0  0  1  0  0  0  0  0  0  0  0  0
    4.3498  -10.6181    0.0000 O   0  0  0  0  0  0  0  0  0  0  0  0
    3.6347  -11.0295    0.0000 C   0  0  1  0  0  0  0  0  0  0  0  0
    3.6335  -11.8545    0.0000 C   0  0  2  0  0  0  0  0  0  0  0  0
    4.3473  -12.2681    0.0000 C   0  0  2  0  0  0  0  0  0  0  0  0
   13.9475   -4.9690    0.0000 C   0  0  0  0  0  0  0  0  0  0  0  0
   14.7725   -4.9690    0.0000 C   0  0  0  0  0  0  0  0  0  0  0  0
   12.9285   -6.5063    0.0000 O   0  0  0  0  0  0  0  0  0  0  0  0
   14.3575   -6.5085    0.0000 C   0  0  0  0  0  0  0  0  0  0  0  0
   10.0658  -11.2314    0.0000 O   0  0  0  0  0  0  0  0  0  0  0  0
   15.0707   -8.5710    0.0000 O   0  0  0  0  0  0  0  0  0  0  0  0
   13.6437   -7.7449    0.0000 H   0  0  0  0  0  0  0  0  0  0  0  0
   10.7820  -10.2155    0.0000 H   0  0  0  0  0  0  0  0  0  0  0  0
   11.4983   -8.9791    0.0000 H   0  0  0  0  0  0  0  0  0  0  0  0
  3  1  2  0  0  0  0
  3  2  1  0  0  0  0
 16  3  1  0  0  0  0
 32  4  1  1  0  0  0
 36  5  1  1  0  0  0
 43  6  1  1  0  0  0
 63  7  1  1  0  0  0
 26  8  1  6  0  0  0
 44  9  1  6  0  0  0
 45 10  1  6  0  0  0
 42 11  1  6  0  0  0
 62 12  1  6  0  0  0
 58 13  1  6  0  0  0
 34 14  1  6  0  0  0
 34 15  1  1  0  0  0
 17 16  1  0  0  0  0
 61 17  1  1  0  0  0
 18 24  1  0  0  0  0
 19 18  1  0  0  0  0
 20 19  1  0  0  0  0
 21 20  1  0  0  0  0
 25 21  1  0  0  0  0
 22 26  1  0  0  0  0
 23 22  1  0  0  0  0
 24 23  1  0  0  0  0
 25 24  1  0  0  0  0
 27 25  1  0  0  0  0
 26 32  1  0  0  0  0
 27 26  1  0  0  0  0
 28 27  1  0  0  0  0
 29 28  2  0  0  0  0
 33 29  1  0  0  0  0
 30 35  1  0  0  0  0
 31 30  1  0  0  0  0
 32 31  1  0  0  0  0
 33 32  1  0  0  0  0
 36 33  1  0  0  0  0
 34 39  1  0  0  0  0
 35 34  1  0  0  0  0
 36 35  1  0  0  0  0
 37 36  1  0  0  0  0
 40 37  1  0  0  0  0
 50 38  1  6  0  0  0
 39 38  1  1  0  0  0
 40 39  1  0  0  0  0
 51 41  1  1  0  0  0
 42 47  1  0  0  0  0
 43 42  1  0  0  0  0
 44 43  1  0  0  0  0
 45 44  1  0  0  0  0
 48 45  1  0  0  0  0
 52 46  1  6  0  0  0
 48 47  1  0  0  0  0
 48 55  1  1  0  0  0
 49 53  1  0  0  0  0
 50 49  1  0  0  0  0
 51 50  1  0  0  0  0
 52 51  1  0  0  0  0
 54 52  1  0  0  0  0
 53 57  1  6  0  0  0
 54 53  1  0  0  0  0
 54 55  1  1  0  0  0
 59 56  1  1  0  0  0
 57 56  1  0  0  0  0
 58 63  1  0  0  0  0
 59 58  1  0  0  0  0
 60 59  1  0  0  0  0
 61 60  1  0  0  0  0
 62 61  1  0  0  0  0
 63 62  1  0  0  0  0
 20 64  1  1  0  0  0
 20 65  1  6  0  0  0
 27 66  1  0  0  0  0
 24 67  1  0  0  0  0
 66 67  1  0  0  0  0
 14 68  1  0  0  0  0
 23 69  1  1  0  0  0
 25 70  1  1  0  0  0
 35 71  1  6  0  0  0
 33 72  1  6  0  0  0
M  END
>  <cdx:fragmentId>
5

$$$$
