70395.cdx
  Mrv1902 05222410232D          

 13 13  0  0  0  0            999 V2000
    8.5716   -6.1314    0.0000 O   0  0  0  0  0  0  0  0  0  0  0  0
    7.8803   -3.2382    0.0000 C   0  0  0  0  0  0  0  0  0  0  0  0
    6.4514   -3.2268    0.0000 O   0  0  0  0  0  0  0  0  0  0  0  0
    7.1626   -3.6450    0.0000 C   0  0  0  0  0  0  0  0  0  0  0  0
    5.7270   -4.4585    0.0000 O   0  0  0  0  0  0  0  0  0  0  0  0
    6.4184   -7.3516    0.0000 C   0  0  0  0  0  0  0  0  0  0  0  0
    7.1361   -6.9449    0.0000 O   0  0  0  0  0  0  0  0  0  0  0  0
    7.8605   -5.7132    0.0000 C   0  0  0  0  0  0  0  0  0  0  0  0
    7.8671   -4.8882    0.0000 C   0  0  0  0  0  0  0  0  0  0  0  0
    7.1559   -4.4700    0.0000 C   0  0  0  0  0  0  0  0  0  0  0  0
    6.4382   -4.8767    0.0000 C   0  0  0  0  0  0  0  0  0  0  0  0
    6.4316   -5.7017    0.0000 C   0  0  0  0  0  0  0  0  0  0  0  0
    7.1427   -6.1199    0.0000 C   0  0  0  0  0  0  0  0  0  0  0  0
  8  1  1  0  0  0  0
  4  2  1  0  0  0  0
  4  3  2  0  0  0  0
 10  4  1  0  0  0  0
 11  5  1  0  0  0  0
  7  6  1  0  0  0  0
 13  7  1  0  0  0  0
  8 13  1  0  0  0  0
  9  8  2  0  0  0  0
 10  9  1  0  0  0  0
 11 10  2  0  0  0  0
 12 11  1  0  0  0  0
 13 12  2  0  0  0  0
M  END
>  <cdx:fragmentId>
5

$$$$
