70396.cdx
  Mrv1902 05222410242D          

 69 76  0  0  0  0            999 V2000
    7.9731   -8.2076    0.0000 C   0  0  0  0  0  0  0  0  0  0  0  0
    7.9731   -9.0326    0.0000 C   0  0  1  0  0  0  0  0  0  0  0  0
    8.6875   -9.4451    0.0000 C   0  0  1  0  0  0  0  0  0  0  0  0
    9.4020   -9.0326    0.0000 C   0  0  1  0  0  0  0  0  0  0  0  0
    9.4020   -8.2076    0.0000 C   0  0  2  0  0  0  0  0  0  0  0  0
    8.6875   -7.7951    0.0000 C   0  0  0  0  0  0  0  0  0  0  0  0
   10.1165   -9.4451    0.0000 C   0  0  0  0  0  0  0  0  0  0  0  0
   10.8309   -9.0326    0.0000 C   0  0  0  0  0  0  0  0  0  0  0  0
   10.8309   -8.2076    0.0000 C   0  0  2  0  0  0  0  0  0  0  0  0
   10.1165   -7.7951    0.0000 C   0  0  2  0  0  0  0  0  0  0  0  0
   11.5454   -7.7951    0.0000 C   0  0  1  0  0  0  0  0  0  0  0  0
   11.5454   -6.9701    0.0000 C   0  0  0  0  0  0  0  0  0  0  0  0
   10.8309   -6.5576    0.0000 C   0  0  0  0  0  0  0  0  0  0  0  0
   10.1165   -6.9701    0.0000 C   0  0  1  0  0  0  0  0  0  0  0  0
   12.2599   -8.2076    0.0000 C   0  0  0  0  0  0  0  0  0  0  0  0
   12.9744   -7.7951    0.0000 C   0  0  1  0  0  0  0  0  0  0  0  0
   12.9744   -6.9701    0.0000 C   0  0  2  0  0  0  0  0  0  0  0  0
   12.2599   -6.5576    0.0000 C   0  0  1  0  0  0  0  0  0  0  0  0
   13.6888   -6.5576    0.0000 C   0  0  0  0  0  0  0  0  0  0  0  0
   13.6888   -5.7326    0.0000 C   0  0  0  0  0  0  0  0  0  0  0  0
   12.9744   -5.3201    0.0000 C   0  0  1  0  0  0  0  0  0  0  0  0
   12.2599   -5.7326    0.0000 C   0  0  0  0  0  0  0  0  0  0  0  0
    7.2586   -9.4451    0.0000 O   0  0  0  0  0  0  0  0  0  0  0  0
    6.5441   -9.0326    0.0000 C   0  0  2  0  0  0  0  0  0  0  0  0
    6.5441   -8.2076    0.0000 O   0  0  0  0  0  0  0  0  0  0  0  0
    5.8296   -7.7951    0.0000 C   0  0  1  0  0  0  0  0  0  0  0  0
    5.1152   -8.2076    0.0000 C   0  0  2  0  0  0  0  0  0  0  0  0
    5.1152   -9.0326    0.0000 C   0  0  1  0  0  0  0  0  0  0  0  0
    5.8296   -9.4451    0.0000 C   0  0  1  0  0  0  0  0  0  0  0  0
    5.8296   -6.9701    0.0000 C   0  0  0  0  0  0  0  0  0  0  0  0
    5.1152   -6.5576    0.0000 O   0  0  0  0  0  0  0  0  0  0  0  0
    5.1179   -5.7327    0.0000 C   0  0  2  0  0  0  0  0  0  0  0  0
    5.8338   -5.3225    0.0000 O   0  0  0  0  0  0  0  0  0  0  0  0
    5.8365   -4.4975    0.0000 C   0  0  1  0  0  0  0  0  0  0  0  0
    5.1234   -4.0827    0.0000 C   0  0  2  0  0  0  0  0  0  0  0  0
    4.4076   -4.4928    0.0000 C   0  0  1  0  0  0  0  0  0  0  0  0
    4.4048   -5.3178    0.0000 C   0  0  1  0  0  0  0  0  0  0  0  0
    4.4007   -7.7951    0.0000 O   0  0  0  0  0  0  0  0  0  0  0  0
    3.5758   -7.7829    0.0000 C   0  0  2  0  0  0  0  0  0  0  0  0
    3.1739   -7.0624    0.0000 O   0  0  0  0  0  0  0  0  0  0  0  0
    2.3490   -7.0502    0.0000 C   0  0  2  0  0  0  0  0  0  0  0  0
    1.9260   -7.7584    0.0000 C   0  0  1  0  0  0  0  0  0  0  0  0
    2.3278   -8.4790    0.0000 C   0  0  2  0  0  0  0  0  0  0  0  0
    3.1527   -8.4912    0.0000 C   0  0  1  0  0  0  0  0  0  0  0  0
    6.5523   -4.0874    0.0000 C   0  0  0  0  0  0  0  0  0  0  0  0
    7.2654   -4.5023    0.0000 O   0  0  0  0  0  0  0  0  0  0  0  0
   13.6888   -7.3826    0.0000 C   0  0  0  0  0  0  0  0  0  0  0  0
   14.4033   -6.9701    0.0000 O   0  0  0  0  0  0  0  0  0  0  0  0
   12.5619   -4.6057    0.0000 C   0  0  0  0  0  0  0  0  0  0  0  0
   13.6888   -8.2076    0.0000 O   0  0  0  0  0  0  0  0  0  0  0  0
   10.8309   -7.3826    0.0000 C   0  0  0  0  0  0  0  0  0  0  0  0
    9.4020   -7.3826    0.0000 C   0  0  0  0  0  0  0  0  0  0  0  0
    8.2750  -10.1596    0.0000 C   0  0  0  0  0  0  0  0  0  0  0  0
    4.4007   -9.4451    0.0000 O   0  0  0  0  0  0  0  0  0  0  0  0
    3.6945   -4.0779    0.0000 O   0  0  0  0  0  0  0  0  0  0  0  0
    1.1011   -7.7462    0.0000 O   0  0  0  0  0  0  0  0  0  0  0  0
   13.3869   -4.6057    0.0000 C   0  0  0  0  0  0  0  0  0  0  0  0
   11.5454   -8.6201    0.0000 C   0  0  0  0  0  0  0  0  0  0  0  0
    9.1000  -10.1596    0.0000 C   0  0  0  0  0  0  0  0  0  0  0  0
    5.8296  -10.2701    0.0000 O   0  0  0  0  0  0  0  0  0  0  0  0
    5.1262   -3.2577    0.0000 O   0  0  0  0  0  0  0  0  0  0  0  0
    3.6890   -5.7279    0.0000 O   0  0  0  0  0  0  0  0  0  0  0  0
    1.9472   -6.3297    0.0000 C   0  0  0  0  0  0  0  0  0  0  0  0
    1.9048   -9.1872    0.0000 O   0  0  0  0  0  0  0  0  0  0  0  0
    9.4020   -6.5576    0.0000 O   0  0  0  0  0  0  0  0  0  0  0  0
    3.5546   -9.2117    0.0000 O   0  0  0  0  0  0  0  0  0  0  0  0
    9.4020   -9.8576    0.0000 H   0  0  0  0  0  0  0  0  0  0  0  0
   10.1165   -8.6201    0.0000 H   0  0  0  0  0  0  0  0  0  0  0  0
   12.2599   -7.3826    0.0000 H   0  0  0  0  0  0  0  0  0  0  0  0
  1  2  1  0  0  0  0
  2  3  1  0  0  0  0
  3  4  1  0  0  0  0
  4  5  1  0  0  0  0
  5  6  1  0  0  0  0
  6  1  1  0  0  0  0
  4  7  1  0  0  0  0
  7  8  1  0  0  0  0
  8  9  1  0  0  0  0
  9 10  1  0  0  0  0
 10  5  1  0  0  0  0
  9 11  1  0  0  0  0
 11 12  1  0  0  0  0
 12 13  2  0  0  0  0
 13 14  1  0  0  0  0
 14 10  1  0  0  0  0
 11 15  1  0  0  0  0
 15 16  1  0  0  0  0
 16 17  1  0  0  0  0
 17 18  1  0  0  0  0
 18 12  1  0  0  0  0
 17 19  1  0  0  0  0
 19 20  1  0  0  0  0
 20 21  1  0  0  0  0
 21 22  1  0  0  0  0
 22 18  1  0  0  0  0
  2 23  1  1  0  0  0
 24 23  1  1  0  0  0
 24 25  1  0  0  0  0
 25 26  1  0  0  0  0
 26 27  1  0  0  0  0
 27 28  1  0  0  0  0
 28 29  1  0  0  0  0
 29 24  1  0  0  0  0
 26 30  1  1  0  0  0
 30 31  1  0  0  0  0
 32 31  1  1  0  0  0
 32 33  1  0  0  0  0
 33 34  1  0  0  0  0
 34 35  1  0  0  0  0
 35 36  1  0  0  0  0
 36 37  1  0  0  0  0
 37 32  1  0  0  0  0
 27 38  1  6  0  0  0
 39 38  1  1  0  0  0
 39 40  1  0  0  0  0
 40 41  1  0  0  0  0
 41 42  1  0  0  0  0
 42 43  1  0  0  0  0
 43 44  1  0  0  0  0
 44 39  1  0  0  0  0
 34 45  1  1  0  0  0
 45 46  1  0  0  0  0
 17 47  1  1  0  0  0
 47 48  1  0  0  0  0
 21 49  1  1  0  0  0
 16 50  1  1  0  0  0
  9 51  1  1  0  0  0
  5 52  1  1  0  0  0
  3 53  1  1  0  0  0
 28 54  1  1  0  0  0
 36 55  1  1  0  0  0
 42 56  1  1  0  0  0
 21 57  1  6  0  0  0
 11 58  1  6  0  0  0
  3 59  1  6  0  0  0
 29 60  1  6  0  0  0
 35 61  1  6  0  0  0
 37 62  1  6  0  0  0
 41 63  1  6  0  0  0
 43 64  1  6  0  0  0
 14 65  1  6  0  0  0
 44 66  1  6  0  0  0
  4 67  1  6  0  0  0
 10 68  1  6  0  0  0
 18 69  1  1  0  0  0
M  END
>  <cdx:fragmentId>
5

$$$$
