70392.cdx
  Mrv1902 05222410242D          

 60 66  0  0  0  0            999 V2000
    2.2463   -9.0161    0.0000 C   0  0  2  0  0  0  0  0  0  0  0  0
    1.5321   -9.4290    0.0000 C   0  0  2  0  0  0  0  0  0  0  0  0
    1.5325  -10.2540    0.0000 C   0  0  1  0  0  0  0  0  0  0  0  0
    2.2472  -10.6661    0.0000 C   0  0  2  0  0  0  0  0  0  0  0  0
    2.9614  -10.2533    0.0000 C   0  0  1  0  0  0  0  0  0  0  0  0
    2.9610   -9.4283    0.0000 O   0  0  0  0  0  0  0  0  0  0  0  0
    3.6761  -10.6654    0.0000 O   0  0  0  0  0  0  0  0  0  0  0  0
    4.3904  -10.2526    0.0000 C   0  0  1  0  0  0  0  0  0  0  0  0
    4.3899   -9.4276    0.0000 C   0  0  1  0  0  0  0  0  0  0  0  0
    3.6753   -9.0154    0.0000 O   0  0  0  0  0  0  0  0  0  0  0  0
    5.1050  -10.6647    0.0000 C   0  0  2  0  0  0  0  0  0  0  0  0
    5.8193  -10.2518    0.0000 C   0  0  1  0  0  0  0  0  0  0  0  0
    5.8189   -9.4268    0.0000 O   0  0  0  0  0  0  0  0  0  0  0  0
    5.1042   -9.0147    0.0000 C   0  0  2  0  0  0  0  0  0  0  0  0
    6.5340  -10.6640    0.0000 O   0  0  0  0  0  0  0  0  0  0  0  0
    7.2482  -10.2511    0.0000 C   0  0  1  0  0  0  0  0  0  0  0  0
    7.2478   -9.4261    0.0000 C   0  0  0  0  0  0  0  0  0  0  0  0
    7.9629  -10.6633    0.0000 C   0  0  2  0  0  0  0  0  0  0  0  0
    8.6772  -10.2504    0.0000 C   0  0  1  0  0  0  0  0  0  0  0  0
    8.6768   -9.4254    0.0000 C   0  0  2  0  0  0  0  0  0  0  0  0
    7.9621   -9.0133    0.0000 C   0  0  0  0  0  0  0  0  0  0  0  0
    9.3919  -10.6625    0.0000 C   0  0  0  0  0  0  0  0  0  0  0  0
   10.1061  -10.2497    0.0000 C   0  0  0  0  0  0  0  0  0  0  0  0
   10.1057   -9.4247    0.0000 C   0  0  2  0  0  0  0  0  0  0  0  0
    9.3910   -9.0125    0.0000 C   0  0  2  0  0  0  0  0  0  0  0  0
   10.8200   -9.0118    0.0000 C   0  0  1  0  0  0  0  0  0  0  0  0
   10.8196   -8.1868    0.0000 C   0  0  0  0  0  0  0  0  0  0  0  0
   10.1049   -7.7747    0.0000 C   0  0  0  0  0  0  0  0  0  0  0  0
    9.3906   -8.1875    0.0000 C   0  0  0  0  0  0  0  0  0  0  0  0
   11.5347   -9.4239    0.0000 C   0  0  0  0  0  0  0  0  0  0  0  0
   12.2489   -9.0111    0.0000 C   0  0  1  0  0  0  0  0  0  0  0  0
   12.2485   -8.1861    0.0000 C   0  0  2  0  0  0  0  0  0  0  0  0
   11.5338   -7.7739    0.0000 C   0  0  0  0  0  0  0  0  0  0  0  0
   12.9628   -7.7732    0.0000 C   0  0  0  0  0  0  0  0  0  0  0  0
   12.9623   -6.9482    0.0000 C   0  0  0  0  0  0  0  0  0  0  0  0
   12.2477   -6.5361    0.0000 C   0  0  1  0  0  0  0  0  0  0  0  0
   11.5334   -6.9489    0.0000 C   0  0  0  0  0  0  0  0  0  0  0  0
   11.8348   -5.8218    0.0000 C   0  0  0  0  0  0  0  0  0  0  0  0
   12.6598   -5.8214    0.0000 C   0  0  0  0  0  0  0  0  0  0  0  0
   12.9632   -8.5982    0.0000 C   0  0  0  0  0  0  0  0  0  0  0  0
   13.6774   -8.1854    0.0000 O   0  0  0  0  0  0  0  0  0  0  0  0
    8.3758  -11.3775    0.0000 C   0  0  0  0  0  0  0  0  0  0  0  0
    2.2459   -8.1911    0.0000 C   0  0  0  0  0  0  0  0  0  0  0  0
    2.9602   -7.7783    0.0000 O   0  0  0  0  0  0  0  0  0  0  0  0
   10.1057   -8.5997    0.0000 C   0  0  0  0  0  0  0  0  0  0  0  0
    8.6764   -8.6004    0.0000 C   0  0  0  0  0  0  0  0  0  0  0  0
    7.5504  -11.3777    0.0000 C   0  0  0  0  0  0  0  0  0  0  0  0
    5.1038   -8.1897    0.0000 C   0  0  0  0  0  0  0  0  0  0  0  0
    0.8182  -10.6669    0.0000 O   0  0  0  0  0  0  0  0  0  0  0  0
   10.8200   -9.8368    0.0000 C   0  0  0  0  0  0  0  0  0  0  0  0
    5.1055  -11.4897    0.0000 O   0  0  0  0  0  0  0  0  0  0  0  0
    2.2476  -11.4911    0.0000 O   0  0  0  0  0  0  0  0  0  0  0  0
    0.8174   -9.0169    0.0000 O   0  0  0  0  0  0  0  0  0  0  0  0
   12.9636   -9.4232    0.0000 O   0  0  0  0  0  0  0  0  0  0  0  0
    2.9598   -6.9533    0.0000 C   0  0  0  0  0  0  0  0  0  0  0  0
    3.6740   -6.5404    0.0000 C   0  0  0  0  0  0  0  0  0  0  0  0
    2.2451   -6.5411    0.0000 O   0  0  0  0  0  0  0  0  0  0  0  0
    7.9633  -12.0920    0.0000 O   0  0  0  0  0  0  0  0  0  0  0  0
    8.6772  -11.0754    0.0000 H   0  0  0  0  0  0  0  0  0  0  0  0
    9.3910   -9.8375    0.0000 H   0  0  0  0  0  0  0  0  0  0  0  0
  1  2  1  0  0  0  0
  2  3  1  0  0  0  0
  3  4  1  0  0  0  0
  4  5  1  0  0  0  0
  5  6  1  0  0  0  0
  6  1  1  0  0  0  0
  5  7  1  1  0  0  0
  8  7  1  1  0  0  0
  8  9  1  0  0  0  0
  9 10  1  1  0  0  0
  8 11  1  0  0  0  0
 11 12  1  0  0  0  0
 12 13  1  0  0  0  0
 13 14  1  0  0  0  0
 14  9  1  0  0  0  0
 12 15  1  1  0  0  0
 16 15  1  1  0  0  0
 16 17  1  0  0  0  0
 16 18  1  0  0  0  0
 18 19  1  0  0  0  0
 19 20  1  0  0  0  0
 20 21  1  0  0  0  0
 21 17  1  0  0  0  0
 19 22  1  0  0  0  0
 22 23  1  0  0  0  0
 23 24  1  0  0  0  0
 24 25  1  0  0  0  0
 25 20  1  0  0  0  0
 24 26  1  0  0  0  0
 26 27  1  0  0  0  0
 27 28  1  0  0  0  0
 28 29  2  0  0  0  0
 29 25  1  0  0  0  0
 26 30  1  0  0  0  0
 30 31  1  0  0  0  0
 31 32  1  0  0  0  0
 32 33  1  0  0  0  0
 33 27  2  0  0  0  0
 32 34  1  0  0  0  0
 34 35  1  0  0  0  0
 35 36  1  0  0  0  0
 36 37  1  0  0  0  0
 37 33  1  0  0  0  0
 36 38  1  1  0  0  0
 36 39  1  6  0  0  0
 32 40  1  1  0  0  0
 40 41  1  0  0  0  0
 18 42  1  6  0  0  0
  1 43  1  1  0  0  0
 43 44  1  0  0  0  0
 24 45  1  1  0  0  0
 20 46  1  1  0  0  0
 18 47  1  1  0  0  0
 14 48  1  1  0  0  0
  3 49  1  1  0  0  0
 26 50  1  6  0  0  0
 11 51  1  6  0  0  0
  4 52  1  6  0  0  0
  2 53  1  6  0  0  0
 31 54  1  1  0  0  0
 44 55  1  0  0  0  0
 55 56  1  0  0  0  0
 55 57  2  0  0  0  0
 42 58  1  0  0  0  0
 19 59  1  6  0  0  0
 25 60  1  6  0  0  0
M  END
>  <cdx:fragmentId>
5

$$$$
