70397.cdx
  Mrv1902 05222410242D          

 55 59  0  0  0  0            999 V2000
    3.7845  -14.2656    0.0000 C   0  0  0  0  0  0  0  0  0  0  0  0
    3.7845  -15.0906    0.0000 C   0  0  1  0  0  0  0  0  0  0  0  0
    4.4990  -15.5031    0.0000 C   0  0  2  0  0  0  0  0  0  0  0  0
    5.2135  -15.0906    0.0000 C   0  0  1  0  0  0  0  0  0  0  0  0
    5.2135  -14.2656    0.0000 C   0  0  2  0  0  0  0  0  0  0  0  0
    4.4990  -13.8531    0.0000 C   0  0  0  0  0  0  0  0  0  0  0  0
    5.9279  -15.5031    0.0000 C   0  0  0  0  0  0  0  0  0  0  0  0
    6.6424  -15.0906    0.0000 C   0  0  0  0  0  0  0  0  0  0  0  0
    6.6424  -14.2656    0.0000 C   0  0  2  0  0  0  0  0  0  0  0  0
    5.9279  -13.8531    0.0000 C   0  0  2  0  0  0  0  0  0  0  0  0
    7.3569  -13.8531    0.0000 C   0  0  1  0  0  0  0  0  0  0  0  0
    7.3569  -13.0281    0.0000 C   0  0  0  0  0  0  0  0  0  0  0  0
    6.6424  -12.6156    0.0000 C   0  0  0  0  0  0  0  0  0  0  0  0
    5.9279  -13.0281    0.0000 C   0  0  0  0  0  0  0  0  0  0  0  0
    8.0714  -14.2656    0.0000 C   0  0  0  0  0  0  0  0  0  0  0  0
    8.7858  -13.8531    0.0000 C   0  0  0  0  0  0  0  0  0  0  0  0
    8.7858  -13.0281    0.0000 C   0  0  2  0  0  0  0  0  0  0  0  0
    8.0714  -12.6156    0.0000 C   0  0  1  0  0  0  0  0  0  0  0  0
    9.5003  -12.6156    0.0000 C   0  0  0  0  0  0  0  0  0  0  0  0
    9.5003  -11.7906    0.0000 C   0  0  0  0  0  0  0  0  0  0  0  0
    8.7858  -11.3781    0.0000 C   0  0  1  0  0  0  0  0  0  0  0  0
    8.0714  -11.7906    0.0000 C   0  0  0  0  0  0  0  0  0  0  0  0
    4.0865  -16.2176    0.0000 C   0  0  0  0  0  0  0  0  0  0  0  0
    4.9115  -16.2176    0.0000 C   0  0  0  0  0  0  0  0  0  0  0  0
    9.1983  -10.6637    0.0000 C   0  0  0  0  0  0  0  0  0  0  0  0
   10.0233  -10.6637    0.0000 O   0  0  0  0  0  0  0  0  0  0  0  0
    8.7858   -9.9492    0.0000 O   0  0  0  0  0  0  0  0  0  0  0  0
    3.0701  -15.5031    0.0000 O   0  0  0  0  0  0  0  0  0  0  0  0
    5.2135  -13.4406    0.0000 C   0  0  0  0  0  0  0  0  0  0  0  0
    6.6424  -13.4406    0.0000 C   0  0  0  0  0  0  0  0  0  0  0  0
    7.3569  -12.2031    0.0000 H   0  0  0  0  0  0  0  0  0  0  0  0
    9.5003  -13.4406    0.0000 C   0  0  0  0  0  0  0  0  0  0  0  0
    8.3733  -10.6637    0.0000 C   0  0  0  0  0  0  0  0  0  0  0  0
    7.3569  -14.6781    0.0000 C   0  0  0  0  0  0  0  0  0  0  0  0
    5.9279  -14.6781    0.0000 H   0  0  0  0  0  0  0  0  0  0  0  0
    5.2135  -15.9156    0.0000 H   0  0  0  0  0  0  0  0  0  0  0  0
    5.2135  -12.6156    0.0000 O   0  0  0  0  0  0  0  0  0  0  0  0
   10.4358   -9.9492    0.0000 C   0  0  0  0  0  0  0  0  0  0  0  0
   11.2608   -9.9492    0.0000 C   0  0  0  0  0  0  0  0  0  0  0  0
   11.6733   -9.2347    0.0000 C   0  0  0  0  0  0  0  0  0  0  0  0
   12.4983   -9.2347    0.0000 C   0  0  0  0  0  0  0  0  0  0  0  0
   12.9108   -8.5202    0.0000 C   0  0  0  0  0  0  0  0  0  0  0  0
   13.7358   -8.5202    0.0000 C   0  0  0  0  0  0  0  0  0  0  0  0
   14.1483   -7.8058    0.0000 C   0  0  0  0  0  0  0  0  0  0  0  0
   14.9733   -7.8058    0.0000 C   0  0  0  0  0  0  0  0  0  0  0  0
   15.3858   -7.0913    0.0000 C   0  0  0  0  0  0  0  0  0  0  0  0
   16.2108   -7.0913    0.0000 C   0  0  0  0  0  0  0  0  0  0  0  0
   16.6233   -6.3768    0.0000 C   0  0  0  0  0  0  0  0  0  0  0  0
   17.4483   -6.3768    0.0000 C   0  0  0  0  0  0  0  0  0  0  0  0
   17.8608   -5.6624    0.0000 C   0  0  0  0  0  0  0  0  0  0  0  0
   18.6858   -5.6624    0.0000 C   0  0  0  0  0  0  0  0  0  0  0  0
   19.0983   -4.9479    0.0000 C   0  0  0  0  0  0  0  0  0  0  0  0
   19.9233   -4.9479    0.0000 C   0  0  0  0  0  0  0  0  0  0  0  0
   20.3358   -4.2334    0.0000 C   0  0  0  0  0  0  0  0  0  0  0  0
   21.1608   -4.2334    0.0000 C   0  0  0  0  0  0  0  0  0  0  0  0
  1  2  1  0  0  0  0
  2  3  1  0  0  0  0
  3  4  1  0  0  0  0
  4  5  1  0  0  0  0
  5  6  1  0  0  0  0
  6  1  1  0  0  0  0
  4  7  1  0  0  0  0
  7  8  1  0  0  0  0
  8  9  1  0  0  0  0
  9 10  1  0  0  0  0
 10  5  1  0  0  0  0
  9 11  1  0  0  0  0
 11 12  1  0  0  0  0
 12 13  2  0  0  0  0
 13 14  1  0  0  0  0
 14 10  1  0  0  0  0
 11 15  1  0  0  0  0
 15 16  1  0  0  0  0
 16 17  1  0  0  0  0
 17 18  1  0  0  0  0
 18 12  1  0  0  0  0
 17 19  1  0  0  0  0
 19 20  1  0  0  0  0
 20 21  1  0  0  0  0
 21 22  1  0  0  0  0
 22 18  1  0  0  0  0
  3 23  1  6  0  0  0
  3 24  1  1  0  0  0
 21 25  1  1  0  0  0
 25 26  1  0  0  0  0
 25 27  2  0  0  0  0
  2 28  1  1  0  0  0
  5 29  1  1  0  0  0
  9 30  1  1  0  0  0
 18 31  1  1  0  0  0
 17 32  1  1  0  0  0
 21 33  1  6  0  0  0
 11 34  1  6  0  0  0
 10 35  1  6  0  0  0
  4 36  1  6  0  0  0
 14 37  2  0  0  0  0
 26 38  1  0  0  0  0
 38 39  1  0  0  0  0
 39 40  1  0  0  0  0
 40 41  1  0  0  0  0
 41 42  1  0  0  0  0
 42 43  1  0  0  0  0
 43 44  1  0  0  0  0
 44 45  1  0  0  0  0
 45 46  1  0  0  0  0
 46 47  1  0  0  0  0
 47 48  1  0  0  0  0
 48 49  1  0  0  0  0
 49 50  1  0  0  0  0
 50 51  1  0  0  0  0
 51 52  1  0  0  0  0
 52 53  1  0  0  0  0
 53 54  1  0  0  0  0
 54 55  1  0  0  0  0
M  END
>  <cdx:fragmentId>
4796

$$$$
