70399.cdx
  Mrv1902 05222410232D          

 10  9  0  0  0  0            999 V2000
    3.5475   -8.8825    0.0000 C   0  0  0  0  0  0  0  0  0  0  0  0
    4.2620   -8.4700    0.0000 C   0  0  0  0  0  0  0  0  0  0  0  0
    4.9764   -8.8825    0.0000 C   0  0  0  0  0  0  0  0  0  0  0  0
    5.6909   -8.4700    0.0000 C   0  0  0  0  0  0  0  0  0  0  0  0
    6.4054   -8.8825    0.0000 C   0  0  0  0  0  0  0  0  0  0  0  0
    7.1199   -8.4700    0.0000 C   0  0  0  0  0  0  0  0  0  0  0  0
    7.8343   -8.8825    0.0000 C   0  0  0  0  0  0  0  0  0  0  0  0
    8.5488   -8.4700    0.0000 C   0  0  0  0  0  0  0  0  0  0  0  0
    9.2633   -8.8825    0.0000 C   0  0  0  0  0  0  0  0  0  0  0  0
    9.9777   -8.4700    0.0000 O   0  0  0  0  0  0  0  0  0  0  0  0
  1  2  1  0  0  0  0
  2  3  1  0  0  0  0
  3  4  1  0  0  0  0
  4  5  1  0  0  0  0
  5  6  2  0  0  0  0
  6  7  1  0  0  0  0
  7  8  2  0  0  0  0
  8  9  1  0  0  0  0
  9 10  1  0  0  0  0
M  END
>  <cdx:fragmentId>
5073

$$$$
