70403.cdx
  Mrv1902 05222410222D          

 28 31  0  0  0  0            999 V2000
    4.4531   -7.9326    0.0000 C   0  0  0  0  0  0  0  0  0  0  0  0
    4.4531   -8.7576    0.0000 C   0  0  0  0  0  0  0  0  0  0  0  0
    5.1675   -9.1701    0.0000 C   0  0  0  0  0  0  0  0  0  0  0  0
    5.8820   -8.7576    0.0000 C   0  0  0  0  0  0  0  0  0  0  0  0
    5.8820   -7.9326    0.0000 C   0  0  0  0  0  0  0  0  0  0  0  0
    5.1675   -7.5201    0.0000 C   0  0  0  0  0  0  0  0  0  0  0  0
    8.0281   -9.7635    0.0000 O   0  0  0  0  0  0  0  0  0  0  0  0
    8.4304   -9.0432    0.0000 C   0  0  0  0  0  0  0  0  0  0  0  0
    8.0078   -8.3347    0.0000 C   0  0  0  0  0  0  0  0  0  0  0  0
    9.2553   -9.0315    0.0000 C   0  0  0  0  0  0  0  0  0  0  0  0
    9.6576   -8.3113    0.0000 C   0  0  0  0  0  0  0  0  0  0  0  0
    9.2350   -7.6027    0.0000 C   0  0  0  0  0  0  0  0  0  0  0  0
    8.4101   -7.6144    0.0000 C   0  0  0  0  0  0  0  0  0  0  0  0
    3.7386   -7.5201    0.0000 O   0  0  0  0  0  0  0  0  0  0  0  0
    3.7386   -9.1701    0.0000 C   0  0  0  0  0  0  0  0  0  0  0  0
    9.6779   -9.7401    0.0000 C   0  0  0  0  0  0  0  0  0  0  0  0
   10.4826   -8.2996    0.0000 O   0  0  0  0  0  0  0  0  0  0  0  0
    3.0241   -8.7576    0.0000 C   0  0  0  0  0  0  0  0  0  0  0  0
    2.3096   -9.1701    0.0000 C   0  0  0  0  0  0  0  0  0  0  0  0
    1.5952   -8.7576    0.0000 C   0  0  0  0  0  0  0  0  0  0  0  0
    2.3096   -9.9951    0.0000 C   0  0  0  0  0  0  0  0  0  0  0  0
    9.2756  -10.4603    0.0000 C   0  0  0  0  0  0  0  0  0  0  0  0
    8.4507  -10.4720    0.0000 C   0  0  0  0  0  0  0  0  0  0  0  0
    7.7422  -10.8946    0.0000 C   0  0  0  0  0  0  0  0  0  0  0  0
    8.4624  -11.2970    0.0000 C   0  0  0  0  0  0  0  0  0  0  0  0
    6.6666   -9.0126    0.0000 C   0  0  0  0  0  0  0  0  0  0  0  0
    7.1515   -8.3451    0.0000 C   0  0  0  0  0  0  0  0  0  0  0  0
    6.6666   -7.6777    0.0000 C   0  0  0  0  0  0  0  0  0  0  0  0
  1  2  2  0  0  0  0
  2  3  1  0  0  0  0
  3  4  2  0  0  0  0
  4  5  1  0  0  0  0
  5  6  2  0  0  0  0
  6  1  1  0  0  0  0
  7  8  1  0  0  0  0
  8  9  2  0  0  0  0
  8 10  1  0  0  0  0
 10 11  2  0  0  0  0
 11 12  1  0  0  0  0
 12 13  2  0  0  0  0
 13  9  1  0  0  0  0
  1 14  1  0  0  0  0
  2 15  1  0  0  0  0
 10 16  1  0  0  0  0
 11 17  1  0  0  0  0
 15 18  1  0  0  0  0
 18 19  2  0  0  0  0
 19 20  1  0  0  0  0
 19 21  1  0  0  0  0
 16 22  2  0  0  0  0
  7 23  1  0  0  0  0
 23 22  1  0  0  0  0
 23 24  1  0  0  0  0
 23 25  1  0  0  0  0
  4 26  1  0  0  0  0
 26 27  2  0  0  0  0
 27 28  1  0  0  0  0
 28  5  1  0  0  0  0
 27  9  1  0  0  0  0
M  END
>  <cdx:fragmentId>
193

$$$$
