70402.cdx
  Mrv1902 05222410222D          

 57 61  0  0  0  0            999 V2000
    5.3501   -8.4216    0.0000 C   0  0  0  0  0  0  0  0  0  0  0  0
    4.6356   -8.8341    0.0000 C   0  0  0  0  0  0  0  0  0  0  0  0
    5.3501   -7.5966    0.0000 O   0  0  0  0  0  0  0  0  0  0  0  0
    6.0645   -8.8341    0.0000 O   0  0  0  0  0  0  0  0  0  0  0  0
    7.4935   -7.1841    0.0000 O   0  0  0  0  0  0  0  0  0  0  0  0
    6.7790   -7.5966    0.0000 C   0  0  1  0  0  0  0  0  0  0  0  0
    6.7790   -8.4216    0.0000 C   0  0  2  0  0  0  0  0  0  0  0  0
    7.4935   -8.8341    0.0000 C   0  0  1  0  0  0  0  0  0  0  0  0
    8.2080   -8.4216    0.0000 C   0  0  2  0  0  0  0  0  0  0  0  0
    8.2080   -7.5966    0.0000 C   0  0  2  0  0  0  0  0  0  0  0  0
    7.4935   -9.6591    0.0000 O   0  0  0  0  0  0  0  0  0  0  0  0
    6.0645   -9.6591    0.0000 O   0  0  0  0  0  0  0  0  0  0  0  0
    6.7790  -10.0716    0.0000 C   0  0  2  0  0  0  0  0  0  0  0  0
    6.7790  -10.8966    0.0000 C   0  0  1  0  0  0  0  0  0  0  0  0
    6.0645  -11.3091    0.0000 C   0  0  1  0  0  0  0  0  0  0  0  0
    5.3501  -10.8966    0.0000 C   0  0  2  0  0  0  0  0  0  0  0  0
    5.3501  -10.0716    0.0000 C   0  0  2  0  0  0  0  0  0  0  0  0
    4.6356   -9.6591    0.0000 C   0  0  0  0  0  0  0  0  0  0  0  0
    4.6356  -11.3091    0.0000 O   0  0  0  0  0  0  0  0  0  0  0  0
    6.0645  -12.1341    0.0000 O   0  0  0  0  0  0  0  0  0  0  0  0
    7.4935  -11.3091    0.0000 O   0  0  0  0  0  0  0  0  0  0  0  0
    6.0645   -7.1841    0.0000 C   0  0  0  0  0  0  0  0  0  0  0  0
    8.9224   -7.1841    0.0000 O   0  0  0  0  0  0  0  0  0  0  0  0
    9.6369   -7.5966    0.0000 C   0  0  0  0  0  0  0  0  0  0  0  0
   10.3514   -7.1841    0.0000 C   0  0  0  0  0  0  0  0  0  0  0  0
   11.0658   -7.5966    0.0000 C   0  0  0  0  0  0  0  0  0  0  0  0
   11.7803   -7.1841    0.0000 C   0  0  0  0  0  0  0  0  0  0  0  0
   12.4948   -7.5966    0.0000 C   0  0  0  0  0  0  0  0  0  0  0  0
   12.4948   -8.4216    0.0000 C   0  0  0  0  0  0  0  0  0  0  0  0
   11.7803   -8.8341    0.0000 C   0  0  0  0  0  0  0  0  0  0  0  0
   11.0658   -8.4216    0.0000 C   0  0  0  0  0  0  0  0  0  0  0  0
   13.2093   -8.8341    0.0000 O   0  0  0  0  0  0  0  0  0  0  0  0
   13.9237   -8.4216    0.0000 C   0  0  0  0  0  0  0  0  0  0  0  0
   13.2093   -7.1841    0.0000 O   0  0  0  0  0  0  0  0  0  0  0  0
    8.9224   -8.8341    0.0000 O   0  0  0  0  0  0  0  0  0  0  0  0
    3.9211   -5.1216    0.0000 O   0  0  0  0  0  0  0  0  0  0  0  0
    2.4922   -5.1216    0.0000 C   0  0  0  0  0  0  0  0  0  0  0  0
    2.4922   -5.9466    0.0000 O   0  0  0  0  0  0  0  0  0  0  0  0
    4.6356   -7.1841    0.0000 C   0  0  0  0  0  0  0  0  0  0  0  0
    4.6356   -6.3591    0.0000 C   0  0  0  0  0  0  0  0  0  0  0  0
    3.9211   -5.9466    0.0000 C   0  0  0  0  0  0  0  0  0  0  0  0
    3.2067   -6.3591    0.0000 C   0  0  0  0  0  0  0  0  0  0  0  0
    3.2067   -7.1841    0.0000 C   0  0  0  0  0  0  0  0  0  0  0  0
    3.9211   -7.5966    0.0000 C   0  0  0  0  0  0  0  0  0  0  0  0
    3.9211   -8.4216    0.0000 C   0  0  0  0  0  0  0  0  0  0  0  0
    5.2222   -4.9403    0.0000 O   0  0  0  0  0  0  0  0  0  0  0  0
    6.0297   -3.5014    0.0000 O   0  0  0  0  0  0  0  0  0  0  0  0
    7.6796   -3.4813    0.0000 O   0  0  0  0  0  0  0  0  0  0  0  0
    8.9257   -4.1807    0.0000 O   0  0  0  0  0  0  0  0  0  0  0  0
    8.5220   -4.9001    0.0000 C   0  0  0  0  0  0  0  0  0  0  0  0
    7.6970   -4.9102    0.0000 C   0  0  2  0  0  0  0  0  0  0  0  0
    7.2758   -4.2008    0.0000 C   0  0  1  0  0  0  0  0  0  0  0  0
    6.4509   -4.2108    0.0000 C   0  0  1  0  0  0  0  0  0  0  0  0
    6.0471   -4.9303    0.0000 C   0  0  2  0  0  0  0  0  0  0  0  0
    6.4683   -5.6396    0.0000 C   0  0  1  0  0  0  0  0  0  0  0  0
    7.2933   -5.6296    0.0000 O   0  0  0  0  0  0  0  0  0  0  0  0
    6.0645   -6.3591    0.0000 O   0  0  0  0  0  0  0  0  0  0  0  0
 45 44  1  0  0  0  0
 41 36  1  0  0  0  0
 42 38  1  0  0  0  0
 38 37  1  0  0  0  0
 44 39  2  0  0  0  0
 40 39  1  0  0  0  0
 41 40  2  0  0  0  0
 42 41  1  0  0  0  0
 43 42  2  0  0  0  0
 44 43  1  0  0  0  0
 55 57  1  1  0  0  0
 54 46  1  6  0  0  0
 53 47  1  1  0  0  0
 52 48  1  1  0  0  0
 51 50  1  1  0  0  0
 50 49  1  0  0  0  0
 56 51  1  0  0  0  0
 52 51  1  0  0  0  0
 53 52  1  0  0  0  0
 54 53  1  0  0  0  0
 55 54  1  0  0  0  0
 56 55  1  0  0  0  0
  1  2  1  0  0  0  0
  2 45  2  0  0  0  0
  1  3  2  0  0  0  0
  1  4  1  0  0  0  0
  5  6  1  0  0  0  0
  6  7  1  0  0  0  0
  7  8  1  0  0  0  0
  8  9  1  0  0  0  0
  9 10  1  0  0  0  0
  5 10  1  0  0  0  0
 12 13  1  0  0  0  0
 13 14  1  0  0  0  0
 14 15  1  0  0  0  0
 15 16  1  0  0  0  0
 16 17  1  0  0  0  0
 12 17  1  0  0  0  0
 17 18  1  6  0  0  0
 16 19  1  1  0  0  0
 15 20  1  6  0  0  0
 14 21  1  6  0  0  0
 13 11  1  1  0  0  0
  8 11  1  1  0  0  0
 22 57  1  0  0  0  0
  6 22  1  1  0  0  0
 24 25  1  0  0  0  0
 23 24  1  0  0  0  0
 26 27  1  0  0  0  0
 27 28  2  0  0  0  0
 28 29  1  0  0  0  0
 29 30  2  0  0  0  0
 30 31  1  0  0  0  0
 26 31  2  0  0  0  0
 32 33  1  0  0  0  0
 29 32  1  0  0  0  0
 28 34  1  0  0  0  0
 25 26  1  0  0  0  0
 10 23  1  1  0  0  0
  9 35  1  6  0  0  0
  7  4  1  6  0  0  0
M  END
>  <cdx:fragmentId>
20652

$$$$
