70409.cdx
  Mrv1902 05222410262D          

 46 49  0  0  0  0            999 V2000
    6.8456   -9.4451    0.0000 C   0  0  2  0  0  0  0  0  0  0  0  0
    6.8456  -10.2701    0.0000 C   0  0  2  0  0  0  0  0  0  0  0  0
    7.5600  -10.6826    0.0000 C   0  0  1  0  0  0  0  0  0  0  0  0
    8.2745  -10.2701    0.0000 C   0  0  2  0  0  0  0  0  0  0  0  0
    8.2745   -9.4451    0.0000 C   0  0  1  0  0  0  0  0  0  0  0  0
    7.5600   -9.0326    0.0000 O   0  0  0  0  0  0  0  0  0  0  0  0
    8.9890   -9.0326    0.0000 O   0  0  0  0  0  0  0  0  0  0  0  0
    6.1311   -9.0326    0.0000 C   0  0  0  0  0  0  0  0  0  0  0  0
    8.9890  -10.6826    0.0000 O   0  0  0  0  0  0  0  0  0  0  0  0
    7.5600  -11.5076    0.0000 O   0  0  0  0  0  0  0  0  0  0  0  0
    6.1311  -10.6826    0.0000 O   0  0  0  0  0  0  0  0  0  0  0  0
    5.4166  -10.2701    0.0000 C   0  0  0  0  0  0  0  0  0  0  0  0
    4.7021  -10.6826    0.0000 C   0  0  0  0  0  0  0  0  0  0  0  0
    5.4166   -9.4451    0.0000 O   0  0  0  0  0  0  0  0  0  0  0  0
    3.9877  -10.2701    0.0000 C   0  0  0  0  0  0  0  0  0  0  0  0
    3.2732  -10.6826    0.0000 C   0  0  0  0  0  0  0  0  0  0  0  0
    2.5587  -10.2701    0.0000 C   0  0  0  0  0  0  0  0  0  0  0  0
    1.8443  -10.6826    0.0000 C   0  0  0  0  0  0  0  0  0  0  0  0
    1.8443  -11.5076    0.0000 C   0  0  0  0  0  0  0  0  0  0  0  0
    2.5587  -11.9201    0.0000 C   0  0  0  0  0  0  0  0  0  0  0  0
    3.2732  -11.5076    0.0000 C   0  0  0  0  0  0  0  0  0  0  0  0
    1.1298  -11.9201    0.0000 O   0  0  0  0  0  0  0  0  0  0  0  0
    1.1298  -10.2701    0.0000 O   0  0  0  0  0  0  0  0  0  0  0  0
    0.4153  -10.6826    0.0000 C   0  0  0  0  0  0  0  0  0  0  0  0
    6.8456  -11.9201    0.0000 C   0  0  2  0  0  0  0  0  0  0  0  0
    6.1311  -11.5076    0.0000 O   0  0  0  0  0  0  0  0  0  0  0  0
    5.4166  -11.9201    0.0000 C   0  0  2  0  0  0  0  0  0  0  0  0
    5.4166  -12.7451    0.0000 C   0  0  1  0  0  0  0  0  0  0  0  0
    6.1311  -13.1576    0.0000 C   0  0  2  0  0  0  0  0  0  0  0  0
    6.8456  -12.7451    0.0000 C   0  0  1  0  0  0  0  0  0  0  0  0
    4.7021  -11.5076    0.0000 C   0  0  0  0  0  0  0  0  0  0  0  0
    4.7021  -13.1576    0.0000 O   0  0  0  0  0  0  0  0  0  0  0  0
    6.1311  -13.9826    0.0000 O   0  0  0  0  0  0  0  0  0  0  0  0
    7.5600  -13.1576    0.0000 O   0  0  0  0  0  0  0  0  0  0  0  0
    9.7034   -9.4451    0.0000 C   0  0  0  0  0  0  0  0  0  0  0  0
   10.4179   -9.0326    0.0000 C   0  0  0  0  0  0  0  0  0  0  0  0
   11.1324   -9.4451    0.0000 C   0  0  0  0  0  0  0  0  0  0  0  0
   11.1324  -10.2701    0.0000 C   0  0  0  0  0  0  0  0  0  0  0  0
   11.8469  -10.6826    0.0000 C   0  0  0  0  0  0  0  0  0  0  0  0
   12.5613  -10.2701    0.0000 C   0  0  0  0  0  0  0  0  0  0  0  0
   12.5613   -9.4451    0.0000 C   0  0  0  0  0  0  0  0  0  0  0  0
   11.8469   -9.0326    0.0000 C   0  0  0  0  0  0  0  0  0  0  0  0
   11.8469   -8.2076    0.0000 O   0  0  0  0  0  0  0  0  0  0  0  0
   13.2758   -9.0326    0.0000 O   0  0  0  0  0  0  0  0  0  0  0  0
   13.9903   -9.4451    0.0000 C   0  0  0  0  0  0  0  0  0  0  0  0
    6.1311   -8.2076    0.0000 O   0  0  0  0  0  0  0  0  0  0  0  0
  1  2  1  0  0  0  0
  2  3  1  0  0  0  0
  3  4  1  0  0  0  0
  4  5  1  0  0  0  0
  5  6  1  0  0  0  0
  6  1  1  0  0  0  0
  5  7  1  1  0  0  0
  1  8  1  1  0  0  0
  4  9  1  6  0  0  0
  3 10  1  1  0  0  0
  2 11  1  6  0  0  0
 11 12  1  0  0  0  0
 12 13  1  0  0  0  0
 12 14  2  0  0  0  0
 13 15  2  0  0  0  0
 15 16  1  0  0  0  0
 16 17  2  0  0  0  0
 17 18  1  0  0  0  0
 18 19  2  0  0  0  0
 19 20  1  0  0  0  0
 20 21  2  0  0  0  0
 21 16  1  0  0  0  0
 19 22  1  0  0  0  0
 18 23  1  0  0  0  0
 23 24  1  0  0  0  0
 25 10  1  1  0  0  0
 25 26  1  0  0  0  0
 26 27  1  0  0  0  0
 27 28  1  0  0  0  0
 28 29  1  0  0  0  0
 29 30  1  0  0  0  0
 30 25  1  0  0  0  0
 27 31  1  6  0  0  0
 28 32  1  1  0  0  0
 29 33  1  6  0  0  0
 30 34  1  6  0  0  0
  7 35  1  0  0  0  0
 35 36  1  0  0  0  0
 36 37  1  0  0  0  0
 37 38  2  0  0  0  0
 38 39  1  0  0  0  0
 39 40  2  0  0  0  0
 40 41  1  0  0  0  0
 41 42  2  0  0  0  0
 42 37  1  0  0  0  0
 42 43  1  0  0  0  0
 41 44  1  0  0  0  0
 44 45  1  0  0  0  0
  8 46  1  0  0  0  0
M  END
>  <cdx:fragmentId>
5

$$$$
