70417.cdx
  Mrv1902 05222410222D          

 31 34  0  0  0  0            999 V2000
    4.3156   -9.5551    0.0000 C   0  0  0  0  0  0  0  0  0  0  0  0
    4.3156  -10.3801    0.0000 C   0  0  0  0  0  0  0  0  0  0  0  0
    5.0300  -10.7926    0.0000 C   0  0  0  0  0  0  0  0  0  0  0  0
    5.7445  -10.3801    0.0000 C   0  0  0  0  0  0  0  0  0  0  0  0
    5.7445   -9.5551    0.0000 C   0  0  0  0  0  0  0  0  0  0  0  0
    5.0300   -9.1426    0.0000 C   0  0  0  0  0  0  0  0  0  0  0  0
    6.4590  -10.7926    0.0000 C   0  0  0  0  0  0  0  0  0  0  0  0
    7.1734  -10.3801    0.0000 C   0  0  0  0  0  0  0  0  0  0  0  0
    7.1734   -9.5551    0.0000 C   0  0  0  0  0  0  0  0  0  0  0  0
    6.4590   -9.1426    0.0000 O   0  0  0  0  0  0  0  0  0  0  0  0
    7.8879  -10.7926    0.0000 C   0  0  0  0  0  0  0  0  0  0  0  0
    8.6024  -10.3801    0.0000 C   0  0  0  0  0  0  0  0  0  0  0  0
    8.6024   -9.5551    0.0000 O   0  0  0  0  0  0  0  0  0  0  0  0
    7.8879  -11.6176    0.0000 C   0  0  0  0  0  0  0  0  0  0  0  0
    8.6024  -12.0301    0.0000 C   0  0  0  0  0  0  0  0  0  0  0  0
    9.3169  -11.6176    0.0000 C   0  0  0  0  0  0  0  0  0  0  0  0
    9.3169  -10.7926    0.0000 C   0  0  0  0  0  0  0  0  0  0  0  0
    6.4590  -11.6176    0.0000 O   0  0  0  0  0  0  0  0  0  0  0  0
   10.0313  -12.0301    0.0000 O   0  0  0  0  0  0  0  0  0  0  0  0
   10.0313  -10.3801    0.0000 C   0  0  0  0  0  0  0  0  0  0  0  0
    5.0300   -8.3176    0.0000 C   0  0  0  0  0  0  0  0  0  0  0  0
    3.6011   -9.1426    0.0000 O   0  0  0  0  0  0  0  0  0  0  0  0
    5.0300  -11.6176    0.0000 O   0  0  0  0  0  0  0  0  0  0  0  0
    5.7445   -7.9051    0.0000 C   0  0  0  0  0  0  0  0  0  0  0  0
    5.7445   -7.0801    0.0000 C   0  0  0  0  0  0  0  0  0  0  0  0
    5.0300   -6.6676    0.0000 C   0  0  0  0  0  0  0  0  0  0  0  0
    6.4590   -6.6676    0.0000 C   0  0  0  0  0  0  0  0  0  0  0  0
    9.3169   -9.1426    0.0000 C   0  0  0  0  0  0  0  0  0  0  0  0
   10.0313   -9.5551    0.0000 C   0  0  0  0  0  0  0  0  0  0  0  0
    8.7335   -8.5593    0.0000 C   0  0  0  0  0  0  0  0  0  0  0  0
    9.9002   -8.5593    0.0000 C   0  0  0  0  0  0  0  0  0  0  0  0
  1  2  2  0  0  0  0
  2  3  1  0  0  0  0
  3  4  2  0  0  0  0
  4  5  1  0  0  0  0
  5  6  2  0  0  0  0
  6  1  1  0  0  0  0
  4  7  1  0  0  0  0
  7  8  1  0  0  0  0
  8  9  2  0  0  0  0
  9 10  1  0  0  0  0
 10  5  1  0  0  0  0
  8 11  1  0  0  0  0
 11 12  1  0  0  0  0
 12 13  1  0  0  0  0
 11 14  2  0  0  0  0
 14 15  1  0  0  0  0
 15 16  2  0  0  0  0
 16 17  1  0  0  0  0
 17 12  2  0  0  0  0
  7 18  2  0  0  0  0
 16 19  1  0  0  0  0
 17 20  1  0  0  0  0
  6 21  1  0  0  0  0
  1 22  1  0  0  0  0
  3 23  1  0  0  0  0
 21 24  1  0  0  0  0
 24 25  2  0  0  0  0
 25 26  1  0  0  0  0
 25 27  1  0  0  0  0
 13 28  1  0  0  0  0
 28 29  1  0  0  0  0
 29 20  2  0  0  0  0
 28 30  1  0  0  0  0
 28 31  1  0  0  0  0
M  END
>  <cdx:fragmentId>
5

$$$$
