7041.cdx
  Mrv1902 05222410212D          

 11 11  0  0  0  0            999 V2000
    3.9559   -3.5211    0.0000 C   0  0  0  0  0  0  0  0  0  0  0  0
    3.2414   -3.1086    0.0000 C   0  0  0  0  0  0  0  0  0  0  0  0
    3.2414   -2.2836    0.0000 C   0  0  0  0  0  0  0  0  0  0  0  0
    3.9559   -1.8711    0.0000 C   0  0  0  0  0  0  0  0  0  0  0  0
    4.6703   -2.2836    0.0000 C   0  0  0  0  0  0  0  0  0  0  0  0
    4.6703   -3.1086    0.0000 C   0  0  0  0  0  0  0  0  0  0  0  0
    3.9559   -4.3461    0.0000 O   0  0  0  0  0  0  0  0  0  0  0  0
    5.3848   -3.5211    0.0000 O   0  0  0  0  0  0  0  0  0  0  0  0
    6.0993   -3.1086    0.0000 C   0  0  0  0  0  0  0  0  0  0  0  0
    2.5269   -3.5211    0.0000 O   0  0  0  0  0  0  0  0  0  0  0  0
    1.8125   -3.1086    0.0000 C   0  0  0  0  0  0  0  0  0  0  0  0
  1  2  1  0  0  0  0
  2  3  2  0  0  0  0
  3  4  1  0  0  0  0
  4  5  2  0  0  0  0
  5  6  1  0  0  0  0
  1  6  2  0  0  0  0
  1  7  1  0  0  0  0
  8  9  1  0  0  0  0
  6  8  1  0  0  0  0
 10 11  1  0  0  0  0
  2 10  1  0  0  0  0
M  END
>  <cdx:groupId>
35

>  <cdx:fragmentId>
5

$$$$
