70413.cdx
  Mrv1902 05222410212D          

 73 75  0  0  0  0            999 V2000
    3.1056  -11.7139    0.0000 C   0  0  0  0  0  0  0  0  0  0  0  0
    3.1056  -12.5389    0.0000 C   0  0  0  0  0  0  0  0  0  0  0  0
    3.8200  -12.9514    0.0000 C   0  0  0  0  0  0  0  0  0  0  0  0
    4.5345  -12.5389    0.0000 C   0  0  0  0  0  0  0  0  0  0  0  0
    4.5345  -11.7139    0.0000 C   0  0  0  0  0  0  0  0  0  0  0  0
    3.8200  -11.3014    0.0000 C   0  0  0  0  0  0  0  0  0  0  0  0
    5.2490  -11.3014    0.0000 C   0  0  1  0  0  0  0  0  0  0  0  0
    5.2490  -10.4764    0.0000 C   0  0  2  0  0  0  0  0  0  0  0  0
    4.5345  -10.0639    0.0000 C   0  0  0  0  0  0  0  0  0  0  0  0
    3.8200  -10.4764    0.0000 O   0  0  0  0  0  0  0  0  0  0  0  0
    5.9634  -11.7139    0.0000 O   0  0  0  0  0  0  0  0  0  0  0  0
    6.6779  -11.3014    0.0000 C   0  0  0  0  0  0  0  0  0  0  0  0
    6.6779  -10.4764    0.0000 C   0  0  0  0  0  0  0  0  0  0  0  0
    5.9634  -10.0639    0.0000 O   0  0  0  0  0  0  0  0  0  0  0  0
    7.3924  -11.7139    0.0000 C   0  0  0  0  0  0  0  0  0  0  0  0
    8.1069  -11.3014    0.0000 C   0  0  0  0  0  0  0  0  0  0  0  0
    8.1069  -10.4764    0.0000 C   0  0  0  0  0  0  0  0  0  0  0  0
    7.3924  -10.0639    0.0000 C   0  0  0  0  0  0  0  0  0  0  0  0
    3.1056  -10.0639    0.0000 C   0  0  0  0  0  0  0  0  0  0  0  0
    2.3911  -10.4764    0.0000 C   0  0  0  0  0  0  0  0  0  0  0  0
    1.6766  -10.0639    0.0000 C   0  0  0  0  0  0  0  0  0  0  0  0
    0.9621  -10.4764    0.0000 C   0  0  0  0  0  0  0  0  0  0  0  0
    8.8213  -11.7139    0.0000 C   0  0  0  0  0  0  0  0  0  0  0  0
    9.5358  -11.3014    0.0000 C   0  0  0  0  0  0  0  0  0  0  0  0
   10.2503  -11.7139    0.0000 C   0  0  0  0  0  0  0  0  0  0  0  0
   10.9647  -11.3014    0.0000 O   0  0  0  0  0  0  0  0  0  0  0  0
   11.6792  -11.7139    0.0000 C   0  0  0  0  0  0  0  0  0  0  0  0
   12.3937  -11.3014    0.0000 C   0  0  0  0  0  0  0  0  0  0  0  0
   13.1081  -11.7139    0.0000 C   0  0  0  0  0  0  0  0  0  0  0  0
   13.8226  -11.3014    0.0000 C   0  0  0  0  0  0  0  0  0  0  0  0
    2.3911  -12.9514    0.0000 O   0  0  0  0  0  0  0  0  0  0  0  0
    3.8200  -13.7764    0.0000 O   0  0  0  0  0  0  0  0  0  0  0  0
    4.5345  -14.1889    0.0000 C   0  0  0  0  0  0  0  0  0  0  0  0
    3.1056   -9.2389    0.0000 O   0  0  0  0  0  0  0  0  0  0  0  0
    0.2477  -10.0639    0.0000 C   0  0  0  0  0  0  0  0  0  0  0  0
   10.2503  -12.5389    0.0000 O   0  0  0  0  0  0  0  0  0  0  0  0
   14.5371  -11.7139    0.0000 C   0  0  0  0  0  0  0  0  0  0  0  0
    0.9621  -10.4764    0.0000 C   0  0  0  0  0  0  0  0  0  0  0  0
    0.9621  -10.4764    0.0000 C   0  0  0  0  0  0  0  0  0  0  0  0
    0.9621  -10.4764    0.0000 C   0  0  0  0  0  0  0  0  0  0  0  0
    0.9621  -10.4764    0.0000 C   0  0  0  0  0  0  0  0  0  0  0  0
    0.9621  -10.4764    0.0000 C   0  0  0  0  0  0  0  0  0  0  0  0
    0.9621  -10.4764    0.0000 C   0  0  0  0  0  0  0  0  0  0  0  0
    0.9621  -10.4764    0.0000 C   0  0  0  0  0  0  0  0  0  0  0  0
    0.9621  -10.4764    0.0000 C   0  0  0  0  0  0  0  0  0  0  0  0
    0.9621  -10.4764    0.0000 C   0  0  0  0  0  0  0  0  0  0  0  0
    0.9621  -10.4764    0.0000 C   0  0  0  0  0  0  0  0  0  0  0  0
    0.9621  -10.4764    0.0000 C   0  0  0  0  0  0  0  0  0  0  0  0
    0.9621  -10.4764    0.0000 C   0  0  0  0  0  0  0  0  0  0  0  0
    0.9621  -10.4764    0.0000 C   0  0  0  0  0  0  0  0  0  0  0  0
    0.9621  -10.4764    0.0000 C   0  0  0  0  0  0  0  0  0  0  0  0
    0.9621  -10.4764    0.0000 C   0  0  0  0  0  0  0  0  0  0  0  0
    0.9621  -10.4764    0.0000 C   0  0  0  0  0  0  0  0  0  0  0  0
    0.9621  -10.4764    0.0000 C   0  0  0  0  0  0  0  0  0  0  0  0
    0.9621  -10.4764    0.0000 C   0  0  0  0  0  0  0  0  0  0  0  0
    0.9621  -10.4764    0.0000 C   0  0  0  0  0  0  0  0  0  0  0  0
   13.1081  -11.7139    0.0000 C   0  0  0  0  0  0  0  0  0  0  0  0
   13.1081  -11.7139    0.0000 C   0  0  0  0  0  0  0  0  0  0  0  0
   13.1081  -11.7139    0.0000 C   0  0  0  0  0  0  0  0  0  0  0  0
   13.1081  -11.7139    0.0000 C   0  0  0  0  0  0  0  0  0  0  0  0
   13.1081  -11.7139    0.0000 C   0  0  0  0  0  0  0  0  0  0  0  0
   13.1081  -11.7139    0.0000 C   0  0  0  0  0  0  0  0  0  0  0  0
   13.1081  -11.7139    0.0000 C   0  0  0  0  0  0  0  0  0  0  0  0
   13.1081  -11.7139    0.0000 C   0  0  0  0  0  0  0  0  0  0  0  0
   13.1081  -11.7139    0.0000 C   0  0  0  0  0  0  0  0  0  0  0  0
   13.1081  -11.7139    0.0000 C   0  0  0  0  0  0  0  0  0  0  0  0
   13.1081  -11.7139    0.0000 C   0  0  0  0  0  0  0  0  0  0  0  0
   13.1081  -11.7139    0.0000 C   0  0  0  0  0  0  0  0  0  0  0  0
   13.1081  -11.7139    0.0000 C   0  0  0  0  0  0  0  0  0  0  0  0
   13.1081  -11.7139    0.0000 C   0  0  0  0  0  0  0  0  0  0  0  0
   13.1081  -11.7139    0.0000 C   0  0  0  0  0  0  0  0  0  0  0  0
   13.1081  -11.7139    0.0000 C   0  0  0  0  0  0  0  0  0  0  0  0
   13.1081  -11.7139    0.0000 C   0  0  0  0  0  0  0  0  0  0  0  0
  1  2  2  0  0  0  0
  2  3  1  0  0  0  0
  3  4  2  0  0  0  0
  4  5  1  0  0  0  0
  5  6  2  0  0  0  0
  6  1  1  0  0  0  0
  7  5  1  1  0  0  0
  7  8  1  0  0  0  0
  8  9  1  6  0  0  0
  9 10  1  0  0  0  0
  7 11  1  0  0  0  0
 11 12  1  0  0  0  0
 12 13  2  0  0  0  0
 13 14  1  0  0  0  0
 14  8  1  0  0  0  0
 12 15  1  0  0  0  0
 15 16  2  0  0  0  0
 16 17  1  0  0  0  0
 17 18  2  0  0  0  0
 18 13  1  0  0  0  0
 10 19  1  0  0  0  0
 19 20  1  0  0  0  0
 20 21  1  0  0  0  0
 16 23  1  0  0  0  0
 23 24  2  0  0  0  0
 24 25  1  0  0  0  0
 25 26  1  0  0  0  0
 26 27  1  0  0  0  0
 27 28  1  0  0  0  0
  2 31  1  0  0  0  0
  3 32  1  0  0  0  0
 32 33  1  0  0  0  0
 19 34  2  0  0  0  0
 25 36  2  0  0  0  0
 30 37  1  0  0  0  0
 56 22  1  0  0  0  0
 22 55  1  0  0  0  0
 55 54  1  0  0  0  0
 54 53  1  0  0  0  0
 53 52  1  0  0  0  0
 52 51  1  0  0  0  0
 51 50  1  0  0  0  0
 50 49  1  0  0  0  0
 49 48  1  0  0  0  0
 48 47  1  0  0  0  0
 47 46  1  0  0  0  0
 46 45  1  0  0  0  0
 45 44  1  0  0  0  0
 44 43  1  0  0  0  0
 43 42  1  0  0  0  0
 42 41  1  0  0  0  0
 41 40  1  0  0  0  0
 40 39  1  0  0  0  0
 39 38  1  0  0  0  0
 21 56  1  0  0  0  0
 35 38  1  0  0  0  0
 73 29  1  0  0  0  0
 29 72  1  0  0  0  0
 72 71  1  0  0  0  0
 71 70  1  0  0  0  0
 70 69  1  0  0  0  0
 69 68  1  0  0  0  0
 68 67  1  0  0  0  0
 67 66  1  0  0  0  0
 66 65  1  0  0  0  0
 65 64  1  0  0  0  0
 64 63  1  0  0  0  0
 63 62  1  0  0  0  0
 62 61  1  0  0  0  0
 61 60  1  0  0  0  0
 60 59  1  0  0  0  0
 59 58  1  0  0  0  0
 58 57  1  0  0  0  0
 28 73  1  0  0  0  0
 30 57  1  0  0  0  0
M  STY  2   1 MUL   2 MUL
M  SBT  2   1   1   2   1
M  SCN  1   1 HT 
M  SAL   1 15  22  56  55  54  53  52  51  50  49  48  47  46  45  44  43
M  SAL   1  5  42  41  40  39  38
M  SPA   1  1  22
M  SDI   1  4    0.6049  -10.6826    0.6049   -9.8576
M  SDI   1  4    1.3194   -9.8576    1.3194  -10.6826
M  SBL   1  2  55  56
M  SMT   1 20
M  SCN  1   2 HT 
M  SAL   2 15  29  73  72  71  70  69  68  67  66  65  64  63  62  61  60
M  SAL   2  3  59  58  57
M  SPA   2  1  29
M  SDI   2  4   12.7509  -11.9201   12.7509  -11.0951
M  SDI   2  4   13.4654  -11.0951   13.4654  -11.9201
M  SBL   2  2  74  75
M  SMT   2 18
M  END
>  <cdx:fragmentId>
5

$$$$
