70419.cdx
  Mrv1902 05222410232D          

  8  8  0  0  0  0            999 V2000
    6.0618   -9.7339    0.0000 C   0  0  0  0  0  0  0  0  0  0  0  0
    6.0618  -10.5589    0.0000 C   0  0  0  0  0  0  0  0  0  0  0  0
    6.7763  -10.9714    0.0000 C   0  0  0  0  0  0  0  0  0  0  0  0
    7.4907  -10.5589    0.0000 C   0  0  0  0  0  0  0  0  0  0  0  0
    7.4907   -9.7339    0.0000 C   0  0  0  0  0  0  0  0  0  0  0  0
    6.7763   -9.3214    0.0000 C   0  0  0  0  0  0  0  0  0  0  0  0
    6.7763   -8.4964    0.0000 C   0  0  0  0  0  0  0  0  0  0  0  0
    7.4907   -8.0839    0.0000 C   0  0  0  0  0  0  0  0  0  0  0  0
  1  2  1  0  0  0  0
  2  3  1  0  0  0  0
  3  4  1  0  0  0  0
  4  5  1  0  0  0  0
  5  6  1  0  0  0  0
  6  1  1  0  0  0  0
  6  7  1  0  0  0  0
  7  8  1  0  0  0  0
M  END
>  <cdx:fragmentId>
5

$$$$
