70412.cdx
  Mrv1902 05222410212D          

 40 44  0  0  0  0            999 V2000
    6.8318   -9.3076    0.0000 C   0  0  0  0  0  0  0  0  0  0  0  0
    6.8318   -8.4826    0.0000 C   0  0  0  0  0  0  0  0  0  0  0  0
    7.5463   -8.0701    0.0000 C   0  0  0  0  0  0  0  0  0  0  0  0
    8.2607   -8.4826    0.0000 C   0  0  0  0  0  0  0  0  0  0  0  0
    8.2607   -9.3076    0.0000 C   0  0  0  0  0  0  0  0  0  0  0  0
    7.5463   -9.7201    0.0000 C   0  0  0  0  0  0  0  0  0  0  0  0
    8.9752   -8.0701    0.0000 O   0  0  0  0  0  0  0  0  0  0  0  0
    9.6897   -8.4826    0.0000 C   0  0  0  0  0  0  0  0  0  0  0  0
    9.6897   -9.3076    0.0000 C   0  0  0  0  0  0  0  0  0  0  0  0
    8.9752   -9.7201    0.0000 C   0  0  0  0  0  0  0  0  0  0  0  0
   10.4042   -8.0701    0.0000 C   0  0  0  0  0  0  0  0  0  0  0  0
   11.1186   -8.4826    0.0000 C   0  0  0  0  0  0  0  0  0  0  0  0
   10.4042   -7.2451    0.0000 C   0  0  0  0  0  0  0  0  0  0  0  0
   11.1186   -6.8326    0.0000 C   0  0  0  0  0  0  0  0  0  0  0  0
   11.8331   -7.2451    0.0000 C   0  0  0  0  0  0  0  0  0  0  0  0
   11.8331   -8.0701    0.0000 C   0  0  0  0  0  0  0  0  0  0  0  0
    8.9752  -10.5451    0.0000 O   0  0  0  0  0  0  0  0  0  0  0  0
    7.5463  -10.5451    0.0000 O   0  0  0  0  0  0  0  0  0  0  0  0
    6.1173   -8.0701    0.0000 O   0  0  0  0  0  0  0  0  0  0  0  0
   12.5476   -6.8326    0.0000 O   0  0  0  0  0  0  0  0  0  0  0  0
    5.4029   -8.4826    0.0000 C   0  0  2  0  0  0  0  0  0  0  0  0
    4.6884   -8.0701    0.0000 O   0  0  0  0  0  0  0  0  0  0  0  0
    3.9739   -8.4826    0.0000 C   0  0  1  0  0  0  0  0  0  0  0  0
    3.9739   -9.3076    0.0000 C   0  0  2  0  0  0  0  0  0  0  0  0
    4.6884   -9.7201    0.0000 C   0  0  1  0  0  0  0  0  0  0  0  0
    5.4029   -9.3076    0.0000 C   0  0  1  0  0  0  0  0  0  0  0  0
    3.2594   -8.0701    0.0000 C   0  0  0  0  0  0  0  0  0  0  0  0
    4.6884  -10.5451    0.0000 O   0  0  0  0  0  0  0  0  0  0  0  0
    6.1173   -9.7201    0.0000 O   0  0  0  0  0  0  0  0  0  0  0  0
    3.2594   -9.7201    0.0000 O   0  0  0  0  0  0  0  0  0  0  0  0
    2.5450   -8.4826    0.0000 O   0  0  0  0  0  0  0  0  0  0  0  0
    6.1173  -10.5451    0.0000 C   0  0  1  0  0  0  0  0  0  0  0  0
    5.4499  -11.0301    0.0000 C   0  0  0  0  0  0  0  0  0  0  0  0
    5.7048  -11.8147    0.0000 C   0  0  1  0  0  0  0  0  0  0  0  0
    6.5298  -11.8147    0.0000 C   0  0  0  0  0  0  0  0  0  0  0  0
    6.7848  -11.0301    0.0000 O   0  0  0  0  0  0  0  0  0  0  0  0
    4.6249  -11.0301    0.0000 O   0  0  0  0  0  0  0  0  0  0  0  0
    4.9079  -12.0282    0.0000 C   0  0  0  0  0  0  0  0  0  0  0  0
    5.4913  -12.6116    0.0000 O   0  0  0  0  0  0  0  0  0  0  0  0
    4.6944  -12.8251    0.0000 O   0  0  0  0  0  0  0  0  0  0  0  0
  1  2  2  0  0  0  0
  2  3  1  0  0  0  0
  3  4  2  0  0  0  0
  4  5  1  0  0  0  0
  5  6  2  0  0  0  0
  6  1  1  0  0  0  0
  4  7  1  0  0  0  0
  7  8  1  0  0  0  0
  8  9  1  0  0  0  0
  9 10  1  0  0  0  0
 10  5  1  0  0  0  0
  8 11  1  0  0  0  0
 11 12  2  0  0  0  0
 11 13  1  0  0  0  0
 13 14  2  0  0  0  0
 14 15  1  0  0  0  0
 15 16  2  0  0  0  0
 16 12  1  0  0  0  0
 10 17  2  0  0  0  0
 18  6  1  0  0  0  0
  2 19  1  0  0  0  0
 15 20  1  0  0  0  0
 21 19  1  1  0  0  0
 21 22  1  0  0  0  0
 22 23  1  0  0  0  0
 23 24  1  0  0  0  0
 24 25  1  0  0  0  0
 25 26  1  0  0  0  0
 26 21  1  0  0  0  0
 23 27  1  1  0  0  0
 25 28  1  1  0  0  0
 26 29  1  6  0  0  0
 24 30  1  6  0  0  0
 27 31  1  0  0  0  0
 32 29  1  6  0  0  0
 32 33  1  0  0  0  0
 33 34  1  0  0  0  0
 34 35  1  0  0  0  0
 35 36  1  0  0  0  0
 36 32  1  0  0  0  0
 33 37  1  0  0  0  0
 34 38  1  0  0  0  0
 34 39  1  6  0  0  0
 38 40  1  0  0  0  0
M  END
>  <cdx:fragmentId>
5

$$$$
