70418.cdx
  Mrv1902 05222410242D          

 30 34  0  0  0  0            999 V2000
    6.7605  -12.1896    0.0000 O   0  0  0  0  0  0  0  0  0  0  0  0
    7.2098  -12.8815    0.0000 C   0  0  0  0  0  0  0  0  0  0  0  0
    8.0067  -12.6680    0.0000 C   0  0  0  0  0  0  0  0  0  0  0  0
    8.0499  -11.8441    0.0000 C   0  0  0  0  0  0  0  0  0  0  0  0
    7.2797  -11.5484    0.0000 C   0  0  2  0  0  0  0  0  0  0  0  0
    8.7850  -11.4696    0.0000 C   0  0  0  0  0  0  0  0  0  0  0  0
    9.4769  -11.9189    0.0000 C   0  0  0  0  0  0  0  0  0  0  0  0
    9.4337  -12.7427    0.0000 C   0  0  0  0  0  0  0  0  0  0  0  0
    8.6986  -13.1173    0.0000 C   0  0  0  0  0  0  0  0  0  0  0  0
    9.6762  -10.0090    0.0000 O   0  0  0  0  0  0  0  0  0  0  0  0
    9.1913  -10.6764    0.0000 C   0  0  0  0  0  0  0  0  0  0  0  0
    8.4067  -10.4215    0.0000 C   0  0  0  0  0  0  0  0  0  0  0  0
    8.4067   -9.5965    0.0000 C   0  0  0  0  0  0  0  0  0  0  0  0
    9.1913   -9.3415    0.0000 C   0  0  0  0  0  0  0  0  0  0  0  0
    7.6922   -9.1840    0.0000 C   0  0  0  0  0  0  0  0  0  0  0  0
    6.9777   -9.5965    0.0000 C   0  0  0  0  0  0  0  0  0  0  0  0
    6.9777  -10.4215    0.0000 C   0  0  2  0  0  0  0  0  0  0  0  0
    7.6922  -10.8340    0.0000 C   0  0  1  0  0  0  0  0  0  0  0  0
    6.5652  -11.1359    0.0000 C   0  0  1  0  0  0  0  0  0  0  0  0
    6.9142  -13.6517    0.0000 O   0  0  0  0  0  0  0  0  0  0  0  0
    9.4462  -11.4610    0.0000 O   0  0  0  0  0  0  0  0  0  0  0  0
    5.7683  -11.3495    0.0000 C   0  0  0  0  0  0  0  0  0  0  0  0
    5.1850  -10.7661    0.0000 C   0  0  0  0  0  0  0  0  0  0  0  0
    4.3881  -10.9796    0.0000 C   0  0  0  0  0  0  0  0  0  0  0  0
    9.4462   -8.5569    0.0000 C   0  0  0  0  0  0  0  0  0  0  0  0
    6.2633  -10.0090    0.0000 H   0  0  0  0  0  0  0  0  0  0  0  0
    8.4067  -11.2465    0.0000 H   0  0  0  0  0  0  0  0  0  0  0  0
   10.2532   -8.3854    0.0000 C   0  0  0  0  0  0  0  0  0  0  0  0
   10.5081   -7.6008    0.0000 C   0  0  0  0  0  0  0  0  0  0  0  0
   11.3151   -7.4292    0.0000 C   0  0  0  0  0  0  0  0  0  0  0  0
  1  2  1  0  0  0  0
  2  3  1  0  0  0  0
  3  4  2  0  0  0  0
  5  4  1  6  0  0  0
  5  1  1  1  0  0  0
  6  7  2  0  0  0  0
  7  8  1  0  0  0  0
  8  9  2  0  0  0  0
  9  3  1  0  0  0  0
  6  4  1  0  0  0  0
 10 11  1  0  0  0  0
 11 12  1  0  0  0  0
 12 13  2  0  0  0  0
 13 14  1  0  0  0  0
 10 14  1  0  0  0  0
 15 16  1  0  0  0  0
 16 17  1  0  0  0  0
 17 18  1  0  0  0  0
 18 12  1  0  0  0  0
 15 13  1  0  0  0  0
 19 17  1  0  0  0  0
 18  5  1  0  0  0  0
 19  5  1  0  0  0  0
  2 20  2  0  0  0  0
 11 21  2  0  0  0  0
 22 23  1  0  0  0  0
 23 24  1  0  0  0  0
 19 22  1  6  0  0  0
 14 25  2  0  0  0  0
 17 26  1  1  0  0  0
 18 27  1  1  0  0  0
 25 28  1  0  0  0  0
 28 29  1  0  0  0  0
 29 30  1  0  0  0  0
M  END
>  <cdx:fragmentId>
50087

$$$$
