70426.cdx
  Mrv1902 05222410242D          

 26 29  0  0  0  0            999 V2000
    4.8381   -5.8701    0.0000 C   0  0  0  0  0  0  0  0  0  0  0  0
    4.8381   -6.6951    0.0000 C   0  0  0  0  0  0  0  0  0  0  0  0
    5.5525   -7.1076    0.0000 C   0  0  0  0  0  0  0  0  0  0  0  0
    6.2670   -6.6951    0.0000 C   0  0  0  0  0  0  0  0  0  0  0  0
    6.2670   -5.8701    0.0000 C   0  0  0  0  0  0  0  0  0  0  0  0
    5.5525   -5.4576    0.0000 C   0  0  0  0  0  0  0  0  0  0  0  0
    6.9815   -7.1076    0.0000 C   0  0  0  0  0  0  0  0  0  0  0  0
    7.6959   -6.6951    0.0000 C   0  0  0  0  0  0  0  0  0  0  0  0
    7.6959   -5.8701    0.0000 C   0  0  0  0  0  0  0  0  0  0  0  0
    6.9815   -5.4576    0.0000 O   0  0  0  0  0  0  0  0  0  0  0  0
    7.1530   -7.9146    0.0000 O   0  0  0  0  0  0  0  0  0  0  0  0
    7.9735   -8.0009    0.0000 C   0  0  0  0  0  0  0  0  0  0  0  0
    8.3090   -7.2472    0.0000 C   0  0  0  0  0  0  0  0  0  0  0  0
    8.4584   -8.6683    0.0000 C   0  0  0  0  0  0  0  0  0  0  0  0
    9.2789   -8.5821    0.0000 C   0  0  0  0  0  0  0  0  0  0  0  0
    9.6144   -7.8284    0.0000 C   0  0  0  0  0  0  0  0  0  0  0  0
    9.1295   -7.1609    0.0000 C   0  0  0  0  0  0  0  0  0  0  0  0
    4.1236   -5.4576    0.0000 O   0  0  0  0  0  0  0  0  0  0  0  0
    4.1236   -7.1076    0.0000 C   0  0  0  0  0  0  0  0  0  0  0  0
    4.1236   -7.9326    0.0000 C   0  0  0  0  0  0  0  0  0  0  0  0
    3.4091   -8.3451    0.0000 C   0  0  0  0  0  0  0  0  0  0  0  0
    3.4091   -9.1701    0.0000 C   0  0  0  0  0  0  0  0  0  0  0  0
    2.6946   -7.9326    0.0000 C   0  0  0  0  0  0  0  0  0  0  0  0
    5.5525   -7.9326    0.0000 O   0  0  0  0  0  0  0  0  0  0  0  0
    8.4104   -5.4576    0.0000 O   0  0  0  0  0  0  0  0  0  0  0  0
    9.7638   -9.2495    0.0000 O   0  0  0  0  0  0  0  0  0  0  0  0
  1  2  2  0  0  0  0
  2  3  1  0  0  0  0
  3  4  2  0  0  0  0
  4  5  1  0  0  0  0
  5  6  2  0  0  0  0
  6  1  1  0  0  0  0
  4  7  1  0  0  0  0
  7  8  2  0  0  0  0
  8  9  1  0  0  0  0
  9 10  1  0  0  0  0
 10  5  1  0  0  0  0
  7 11  1  0  0  0  0
 11 12  1  0  0  0  0
 12 13  2  0  0  0  0
 13  8  1  0  0  0  0
 12 14  1  0  0  0  0
 14 15  2  0  0  0  0
 15 16  1  0  0  0  0
 16 17  2  0  0  0  0
 17 13  1  0  0  0  0
  1 18  1  0  0  0  0
  2 19  1  0  0  0  0
 19 20  1  0  0  0  0
 20 21  2  0  0  0  0
 21 22  1  0  0  0  0
 21 23  1  0  0  0  0
  3 24  1  0  0  0  0
  9 25  2  0  0  0  0
 15 26  1  0  0  0  0
M  END
>  <cdx:fragmentId>
5

$$$$
