70421.cdx
  Mrv1902 05222410262D          

 59 65  0  0  0  0            999 V2000
    7.2031   -8.4689    0.0000 C   0  0  0  0  0  0  0  0  0  0  0  0
    7.2031   -9.2939    0.0000 C   0  0  1  0  0  0  0  0  0  0  0  0
    7.9175   -9.7064    0.0000 C   0  0  1  0  0  0  0  0  0  0  0  0
    8.6320   -9.2939    0.0000 C   0  0  1  0  0  0  0  0  0  0  0  0
    8.6320   -8.4689    0.0000 C   0  0  2  0  0  0  0  0  0  0  0  0
    7.9175   -8.0564    0.0000 C   0  0  0  0  0  0  0  0  0  0  0  0
    9.3465   -9.7064    0.0000 C   0  0  0  0  0  0  0  0  0  0  0  0
   10.0609   -9.2939    0.0000 C   0  0  0  0  0  0  0  0  0  0  0  0
   10.0609   -8.4689    0.0000 C   0  0  2  0  0  0  0  0  0  0  0  0
    9.3465   -8.0564    0.0000 C   0  0  2  0  0  0  0  0  0  0  0  0
   10.7754   -8.0564    0.0000 C   0  0  1  0  0  0  0  0  0  0  0  0
   10.7754   -7.2314    0.0000 C   0  0  0  0  0  0  0  0  0  0  0  0
   10.0609   -6.8189    0.0000 C   0  0  0  0  0  0  0  0  0  0  0  0
    9.3465   -7.2314    0.0000 C   0  0  1  0  0  0  0  0  0  0  0  0
   11.4899   -8.4689    0.0000 C   0  0  0  0  0  0  0  0  0  0  0  0
   12.2044   -8.0564    0.0000 C   0  0  1  0  0  0  0  0  0  0  0  0
   12.2044   -7.2314    0.0000 C   0  0  2  0  0  0  0  0  0  0  0  0
   11.4899   -6.8189    0.0000 C   0  0  1  0  0  0  0  0  0  0  0  0
   12.9188   -6.8189    0.0000 C   0  0  0  0  0  0  0  0  0  0  0  0
   12.9188   -5.9939    0.0000 C   0  0  0  0  0  0  0  0  0  0  0  0
   12.2044   -5.5814    0.0000 C   0  0  1  0  0  0  0  0  0  0  0  0
   11.4899   -5.9939    0.0000 C   0  0  0  0  0  0  0  0  0  0  0  0
    6.4886   -9.7064    0.0000 O   0  0  0  0  0  0  0  0  0  0  0  0
    5.7742   -9.2938    0.0000 C   0  0  2  0  0  0  0  0  0  0  0  0
    5.7742   -8.4688    0.0000 O   0  0  0  0  0  0  0  0  0  0  0  0
    5.0598   -8.0562    0.0000 C   0  0  1  0  0  0  0  0  0  0  0  0
    4.3453   -8.4687    0.0000 C   0  0  1  0  0  0  0  0  0  0  0  0
    4.3452   -9.2937    0.0000 C   0  0  1  0  0  0  0  0  0  0  0  0
    5.0596   -9.7062    0.0000 C   0  0  1  0  0  0  0  0  0  0  0  0
    3.6307   -9.7061    0.0000 O   0  0  0  0  0  0  0  0  0  0  0  0
    2.9163   -9.2935    0.0000 C   0  0  2  0  0  0  0  0  0  0  0  0
    2.9164   -8.4685    0.0000 O   0  0  0  0  0  0  0  0  0  0  0  0
    2.2019   -8.0559    0.0000 C   0  0  1  0  0  0  0  0  0  0  0  0
    1.4874   -8.4684    0.0000 C   0  0  2  0  0  0  0  0  0  0  0  0
    1.4873   -9.2934    0.0000 C   0  0  1  0  0  0  0  0  0  0  0  0
    2.2018   -9.7059    0.0000 C   0  0  1  0  0  0  0  0  0  0  0  0
    2.2020   -7.2309    0.0000 C   0  0  0  0  0  0  0  0  0  0  0  0
    1.4876   -6.8184    0.0000 O   0  0  0  0  0  0  0  0  0  0  0  0
   11.7919   -4.8669    0.0000 C   0  0  0  0  0  0  0  0  0  0  0  0
   12.9188   -7.6439    0.0000 C   0  0  0  0  0  0  0  0  0  0  0  0
   12.9188   -8.4689    0.0000 O   0  0  0  0  0  0  0  0  0  0  0  0
   10.0609   -7.6439    0.0000 C   0  0  0  0  0  0  0  0  0  0  0  0
    8.6320   -7.6439    0.0000 C   0  0  0  0  0  0  0  0  0  0  0  0
    7.5050  -10.4209    0.0000 C   0  0  0  0  0  0  0  0  0  0  0  0
    5.0599   -7.2312    0.0000 C   0  0  0  0  0  0  0  0  0  0  0  0
    3.6309   -8.0561    0.0000 O   0  0  0  0  0  0  0  0  0  0  0  0
    0.7728   -9.7058    0.0000 O   0  0  0  0  0  0  0  0  0  0  0  0
    0.7730   -8.0558    0.0000 O   0  0  0  0  0  0  0  0  0  0  0  0
    2.2017  -10.5309    0.0000 O   0  0  0  0  0  0  0  0  0  0  0  0
    5.0596  -10.5312    0.0000 O   0  0  0  0  0  0  0  0  0  0  0  0
    8.3300  -10.4209    0.0000 C   0  0  0  0  0  0  0  0  0  0  0  0
    8.6320   -6.8189    0.0000 O   0  0  0  0  0  0  0  0  0  0  0  0
   10.7754   -8.8814    0.0000 C   0  0  0  0  0  0  0  0  0  0  0  0
   12.6169   -4.8669    0.0000 C   0  0  0  0  0  0  0  0  0  0  0  0
   13.6333   -7.2314    0.0000 O   0  0  0  0  0  0  0  0  0  0  0  0
    7.9175  -11.1353    0.0000 O   0  0  0  0  0  0  0  0  0  0  0  0
   11.4899   -7.6439    0.0000 H   0  0  0  0  0  0  0  0  0  0  0  0
    8.6320  -10.1189    0.0000 H   0  0  0  0  0  0  0  0  0  0  0  0
    9.3465   -8.8814    0.0000 H   0  0  0  0  0  0  0  0  0  0  0  0
  1  2  1  0  0  0  0
  2  3  1  0  0  0  0
  3  4  1  0  0  0  0
  4  5  1  0  0  0  0
  5  6  1  0  0  0  0
  6  1  1  0  0  0  0
  4  7  1  0  0  0  0
  7  8  1  0  0  0  0
  8  9  1  0  0  0  0
  9 10  1  0  0  0  0
 10  5  1  0  0  0  0
  9 11  1  0  0  0  0
 11 12  1  0  0  0  0
 12 13  2  0  0  0  0
 13 14  1  0  0  0  0
 14 10  1  0  0  0  0
 11 15  1  0  0  0  0
 15 16  1  0  0  0  0
 16 17  1  0  0  0  0
 17 18  1  0  0  0  0
 18 12  1  0  0  0  0
 17 19  1  0  0  0  0
 19 20  1  0  0  0  0
 20 21  1  0  0  0  0
 21 22  1  0  0  0  0
 22 18  1  0  0  0  0
  2 23  1  1  0  0  0
 24 23  1  1  0  0  0
 24 25  1  0  0  0  0
 25 26  1  0  0  0  0
 26 27  1  0  0  0  0
 27 28  1  0  0  0  0
 28 29  1  0  0  0  0
 29 24  1  0  0  0  0
 28 30  1  1  0  0  0
 31 30  1  1  0  0  0
 31 32  1  0  0  0  0
 32 33  1  0  0  0  0
 33 34  1  0  0  0  0
 34 35  1  0  0  0  0
 35 36  1  0  0  0  0
 36 31  1  0  0  0  0
 33 37  1  1  0  0  0
 37 38  1  0  0  0  0
 21 39  1  1  0  0  0
 17 40  1  1  0  0  0
 16 41  1  1  0  0  0
  9 42  1  1  0  0  0
  5 43  1  1  0  0  0
  3 44  1  1  0  0  0
 26 45  1  1  0  0  0
 27 46  1  1  0  0  0
 35 47  1  1  0  0  0
 34 48  1  6  0  0  0
 36 49  1  6  0  0  0
 29 50  1  6  0  0  0
  3 51  1  6  0  0  0
 14 52  1  6  0  0  0
 11 53  1  6  0  0  0
 21 54  1  6  0  0  0
 40 55  1  0  0  0  0
 51 56  1  0  0  0  0
 18 57  1  1  0  0  0
  4 58  1  6  0  0  0
 10 59  1  6  0  0  0
M  END
>  <cdx:fragmentId>
5

$$$$
