70427.cdx
  Mrv1902 05222410242D          

 11 12  0  0  0  0            999 V2000
    4.3018   -8.3726    0.0000 C   0  0  0  0  0  0  0  0  0  0  0  0
    4.3018   -9.1976    0.0000 C   0  0  0  0  0  0  0  0  0  0  0  0
    5.0163   -9.6101    0.0000 C   0  0  0  0  0  0  0  0  0  0  0  0
    5.7307   -9.1976    0.0000 C   0  0  0  0  0  0  0  0  0  0  0  0
    5.7307   -8.3726    0.0000 C   0  0  0  0  0  0  0  0  0  0  0  0
    5.0163   -7.9601    0.0000 C   0  0  0  0  0  0  0  0  0  0  0  0
    6.4452   -9.6101    0.0000 C   0  0  0  0  0  0  0  0  0  0  0  0
    7.1597   -9.1976    0.0000 O   0  0  0  0  0  0  0  0  0  0  0  0
    7.1597   -8.3726    0.0000 C   0  0  0  0  0  0  0  0  0  0  0  0
    6.4452   -7.9601    0.0000 C   0  0  0  0  0  0  0  0  0  0  0  0
    7.8742   -7.9601    0.0000 C   0  0  0  0  0  0  0  0  0  0  0  0
  1  2  1  0  0  0  0
  2  3  1  0  0  0  0
  3  4  1  0  0  0  0
  4  5  1  0  0  0  0
  5  6  1  0  0  0  0
  6  1  1  0  0  0  0
  4  7  1  0  0  0  0
  7  8  1  0  0  0  0
  8  9  1  0  0  0  0
  9 10  1  0  0  0  0
 10  5  1  0  0  0  0
  9 11  1  0  0  0  0
M  END
>  <cdx:fragmentId>
5

$$$$
