70424.cdx
  Mrv1902 05222410242D          

 16 18  0  0  0  0            999 V2000
    6.9647   -9.2389    0.0000 C   0  0  0  0  0  0  0  0  0  0  0  0
    6.9647  -10.0639    0.0000 C   0  0  0  0  0  0  0  0  0  0  0  0
    7.6097  -10.5783    0.0000 C   0  0  0  0  0  0  0  0  0  0  0  0
    8.4140  -10.3947    0.0000 C   0  0  0  0  0  0  0  0  0  0  0  0
    8.7720   -9.6514    0.0000 C   0  0  0  0  0  0  0  0  0  0  0  0
    8.4140   -8.9081    0.0000 C   0  0  0  0  0  0  0  0  0  0  0  0
    7.6097   -8.7245    0.0000 C   0  0  0  0  0  0  0  0  0  0  0  0
    6.1801   -8.9840    0.0000 C   0  0  0  0  0  0  0  0  0  0  0  0
    5.6952   -9.6514    0.0000 C   0  0  0  0  0  0  0  0  0  0  0  0
    6.1801  -10.3188    0.0000 C   0  0  0  0  0  0  0  0  0  0  0  0
    7.4261   -7.9202    0.0000 C   0  0  0  0  0  0  0  0  0  0  0  0
    5.9251  -11.1035    0.0000 C   0  0  0  0  0  0  0  0  0  0  0  0
    8.1709  -11.1830    0.0000 C   0  0  0  0  0  0  0  0  0  0  0  0
    7.5875  -11.7664    0.0000 C   0  0  0  0  0  0  0  0  0  0  0  0
    8.9678  -11.3966    0.0000 C   0  0  0  0  0  0  0  0  0  0  0  0
    5.3551  -10.3188    0.0000 O   0  0  0  0  0  0  0  0  0  0  0  0
  1  2  1  0  0  0  0
  2  3  1  0  0  0  0
  3  4  1  0  0  0  0
  4  5  1  0  0  0  0
  5  6  1  0  0  0  0
  6  7  1  0  0  0  0
  7  1  1  0  0  0  0
  1  8  1  0  0  0  0
  8  9  1  0  0  0  0
  9 10  1  0  0  0  0
 10  2  1  0  0  0  0
  7 11  1  0  0  0  0
 10 12  1  0  0  0  0
  3 13  1  0  0  0  0
 13  4  1  0  0  0  0
 13 14  1  0  0  0  0
 13 15  1  0  0  0  0
 10 16  1  0  0  0  0
M  END
>  <cdx:fragmentId>
5

$$$$
