70420.cdx
  Mrv1902 05222410252D          

  6  5  0  0  0  0            999 V2000
    5.8200   -3.9699    0.0000 C   0  0  0  0  0  0  0  0  0  0  0  0
    6.5344   -4.3824    0.0000 C   0  0  0  0  0  0  0  0  0  0  0  0
    7.2489   -3.9699    0.0000 C   0  0  0  0  0  0  0  0  0  0  0  0
    7.9634   -4.3824    0.0000 C   0  0  0  0  0  0  0  0  0  0  0  0
    8.6779   -3.9699    0.0000 C   0  0  0  0  0  0  0  0  0  0  0  0
    5.1055   -4.3824    0.0000 O   0  0  0  0  0  0  0  0  0  0  0  0
  1  2  1  0  0  0  0
  2  3  1  0  0  0  0
  3  4  1  0  0  0  0
  4  5  1  0  0  0  0
  1  6  2  0  0  0  0
M  END
>  <cdx:fragmentId>
61

$$$$
