7043.cdx
  Mrv1902 05222410212D          

 10 10  0  0  0  0            999 V2000
    3.4437   -1.4411    0.0000 C   0  0  0  0  0  0  0  0  0  0  0  0
    3.4437   -2.2661    0.0000 C   0  0  0  0  0  0  0  0  0  0  0  0
    2.7292   -2.6786    0.0000 C   0  0  0  0  0  0  0  0  0  0  0  0
    2.0147   -2.2661    0.0000 C   0  0  0  0  0  0  0  0  0  0  0  0
    2.0147   -1.4411    0.0000 C   0  0  0  0  0  0  0  0  0  0  0  0
    2.7292   -1.0286    0.0000 C   0  0  0  0  0  0  0  0  0  0  0  0
    4.1582   -2.6786    0.0000 O   0  0  0  0  0  0  0  0  0  0  0  0
    4.8726   -2.2661    0.0000 C   0  0  0  0  0  0  0  0  0  0  0  0
    4.1582   -1.0286    0.0000 O   0  0  0  0  0  0  0  0  0  0  0  0
    4.8726   -1.4411    0.0000 C   0  0  0  0  0  0  0  0  0  0  0  0
  1  2  1  0  0  0  0
  2  3  2  0  0  0  0
  3  4  1  0  0  0  0
  4  5  2  0  0  0  0
  5  6  1  0  0  0  0
  1  6  2  0  0  0  0
  7  8  1  0  0  0  0
  2  7  1  0  0  0  0
  9 10  1  0  0  0  0
  1  9  1  0  0  0  0
M  END
>  <cdx:groupId>
33

>  <cdx:fragmentId>
6

$$$$
