7044.cdx
  Mrv1902 05222410222D          

 10 11  0  0  0  0            999 V2000
    5.2066   -3.2794    0.0000 C   0  0  0  0  0  0  0  0  0  0  0  0
    5.9211   -3.6919    0.0000 C   0  0  0  0  0  0  0  0  0  0  0  0
    5.9211   -4.5169    0.0000 C   0  0  0  0  0  0  0  0  0  0  0  0
    5.2066   -4.9294    0.0000 C   0  0  0  0  0  0  0  0  0  0  0  0
    4.4921   -4.5169    0.0000 C   0  0  0  0  0  0  0  0  0  0  0  0
    3.7777   -4.9294    0.0000 C   0  0  0  0  0  0  0  0  0  0  0  0
    3.0632   -4.5169    0.0000 C   0  0  0  0  0  0  0  0  0  0  0  0
    3.0632   -3.6919    0.0000 C   0  0  0  0  0  0  0  0  0  0  0  0
    3.7777   -3.2794    0.0000 C   0  0  0  0  0  0  0  0  0  0  0  0
    4.4921   -3.6919    0.0000 C   0  0  0  0  0  0  0  0  0  0  0  0
  1  2  1  0  0  0  0
  2  3  1  0  0  0  0
  3  4  1  0  0  0  0
  4  5  1  0  0  0  0
  5  6  1  0  0  0  0
  6  7  1  0  0  0  0
  7  8  1  0  0  0  0
  8  9  1  0  0  0  0
  9 10  1  0  0  0  0
  1 10  1  0  0  0  0
  5 10  1  0  0  0  0
M  END
>  <cdx:groupId>
33

>  <cdx:fragmentId>
5

$$$$
