91704566.cdx
  Mrv1902 05222410242D          

 16 19  0  0  0  0            999 V2000
    7.5825  -14.6463    0.0000 C   0  0  0  0  0  0  0  0  0  0  0  0
    6.8680  -14.2338    0.0000 C   0  0  0  0  0  0  0  0  0  0  0  0
    6.1536  -14.6463    0.0000 C   0  0  0  0  0  0  0  0  0  0  0  0
    6.1536  -15.4713    0.0000 C   0  0  0  0  0  0  0  0  0  0  0  0
    6.1536  -16.2963    0.0000 O   0  0  0  0  0  0  0  0  0  0  0  0
    6.8680  -15.8838    0.0000 C   0  0  0  0  0  0  0  0  0  0  0  0
    7.5825  -15.4713    0.0000 C   0  0  0  0  0  0  0  0  0  0  0  0
    8.4075  -15.4713    0.0000 C   0  0  0  0  0  0  0  0  0  0  0  0
    8.4075  -14.6463    0.0000 C   0  0  0  0  0  0  0  0  0  0  0  0
    8.6624  -13.8616    0.0000 C   0  0  0  0  0  0  0  0  0  0  0  0
    7.9950  -13.3767    0.0000 C   0  0  0  0  0  0  0  0  0  0  0  0
    7.3276  -13.8616    0.0000 C   0  0  0  0  0  0  0  0  0  0  0  0
    6.5429  -13.6067    0.0000 C   0  0  0  0  0  0  0  0  0  0  0  0
    9.2044  -15.6848    0.0000 C   0  0  0  0  0  0  0  0  0  0  0  0
    8.6210  -16.2682    0.0000 C   0  0  0  0  0  0  0  0  0  0  0  0
    5.3286  -15.4713    0.0000 C   0  0  0  0  0  0  0  0  0  0  0  0
  1  2  1  0  0  0  0
  2  3  1  0  0  0  0
  3  4  1  0  0  0  0
  4  5  1  0  0  0  0
  5  6  1  0  0  0  0
  6  7  1  0  0  0  0
  7  8  1  0  0  0  0
  8  9  1  0  0  0  0
  9 10  1  0  0  0  0
 10 11  1  0  0  0  0
 11 12  1  0  0  0  0
  1 12  1  0  0  0  0
  1  7  1  0  0  0  0
  1  9  1  0  0  0  0
  4  6  1  0  0  0  0
 12 13  1  0  0  0  0
  8 14  1  0  0  0  0
  8 15  1  0  0  0  0
  4 16  1  0  0  0  0
M  END
>  <cdx:groupId>
215753

>  <cdx:fragmentId>
215705

$$$$
