704501.cdx
  Mrv1902 05222410272D          

 39 44  0  0  0  0            999 V2000
    4.7006   -7.6587    0.0000 C   0  0  0  0  0  0  0  0  0  0  0  0
    4.7006   -8.4838    0.0000 C   0  0  1  0  0  0  0  0  0  0  0  0
    5.4150   -8.8963    0.0000 C   0  0  0  0  0  0  0  0  0  0  0  0
    6.1295   -8.4838    0.0000 C   0  0  1  0  0  0  0  0  0  0  0  0
    6.1295   -7.6587    0.0000 C   0  0  2  0  0  0  0  0  0  0  0  0
    5.4150   -7.2462    0.0000 C   0  0  0  0  0  0  0  0  0  0  0  0
    6.8440   -8.8963    0.0000 C   0  0  2  0  0  0  0  0  0  0  0  0
    7.5584   -8.4838    0.0000 C   0  0  0  0  0  0  0  0  0  0  0  0
    7.5584   -7.6587    0.0000 C   0  0  2  0  0  0  0  0  0  0  0  0
    6.8440   -7.2462    0.0000 C   0  0  1  0  0  0  0  0  0  0  0  0
    8.2729   -7.2462    0.0000 C   0  0  1  0  0  0  0  0  0  0  0  0
    8.2729   -6.4213    0.0000 C   0  0  2  0  0  0  0  0  0  0  0  0
    7.5584   -6.0088    0.0000 C   0  0  0  0  0  0  0  0  0  0  0  0
    6.8440   -6.4213    0.0000 C   0  0  0  0  0  0  0  0  0  0  0  0
    9.0575   -7.5012    0.0000 C   0  0  0  0  0  0  0  0  0  0  0  0
    9.5425   -6.8338    0.0000 C   0  0  1  0  0  0  0  0  0  0  0  0
    9.0575   -6.1663    0.0000 C   0  0  2  0  0  0  0  0  0  0  0  0
    9.2711   -5.3694    0.0000 C   0  0  2  0  0  0  0  0  0  0  0  0
    9.9399   -4.8865    0.0000 O   0  0  0  0  0  0  0  0  0  0  0  0
    9.6874   -4.1011    0.0000 C   0  0  1  0  0  0  0  0  0  0  0  0
    8.8624   -4.0986    0.0000 C   0  0  0  0  0  0  0  0  0  0  0  0
    8.6051   -4.8825    0.0000 C   0  0  0  0  0  0  0  0  0  0  0  0
    5.0025   -9.6107    0.0000 C   0  0  0  0  0  0  0  0  0  0  0  0
    5.8275   -9.6107    0.0000 C   0  0  0  0  0  0  0  0  0  0  0  0
    3.9861   -8.8963    0.0000 O   0  0  0  0  0  0  0  0  0  0  0  0
    6.1295   -6.8338    0.0000 C   0  0  0  0  0  0  0  0  0  0  0  0
    7.5584   -6.8338    0.0000 H   0  0  0  0  0  0  0  0  0  0  0  0
    8.2729   -5.5962    0.0000 C   0  0  0  0  0  0  0  0  0  0  0  0
   10.3675   -6.8338    0.0000 O   0  0  0  0  0  0  0  0  0  0  0  0
   10.0784   -5.5390    0.0000 C   0  0  0  0  0  0  0  0  0  0  0  0
    6.1295   -9.3087    0.0000 H   0  0  0  0  0  0  0  0  0  0  0  0
    6.8440   -9.7212    0.0000 O   0  0  0  0  0  0  0  0  0  0  0  0
    8.2729   -8.0713    0.0000 C   0  0  0  0  0  0  0  0  0  0  0  0
    9.8825   -6.1663    0.0000 H   0  0  0  0  0  0  0  0  0  0  0  0
   10.4948   -4.2707    0.0000 H   0  0  0  0  0  0  0  0  0  0  0  0
   10.0999   -3.3867    0.0000 C   0  0  0  0  0  0  0  0  0  0  0  0
    9.3854   -2.9742    0.0000 C   0  0  0  0  0  0  0  0  0  0  0  0
   10.8143   -3.7992    0.0000 C   0  0  0  0  0  0  0  0  0  0  0  0
   10.5124   -2.6722    0.0000 O   0  0  0  0  0  0  0  0  0  0  0  0
  1  2  1  0  0  0  0
  2  3  1  0  0  0  0
  3  4  1  0  0  0  0
  4  5  1  0  0  0  0
  5  6  1  0  0  0  0
  6  1  1  0  0  0  0
  4  7  1  0  0  0  0
  7  8  1  0  0  0  0
  8  9  1  0  0  0  0
  9 10  1  0  0  0  0
 10  5  1  0  0  0  0
  9 11  1  0  0  0  0
 11 12  1  0  0  0  0
 12 13  1  0  0  0  0
 13 14  1  0  0  0  0
 14 10  1  0  0  0  0
 11 15  1  0  0  0  0
 15 16  1  0  0  0  0
 16 17  1  0  0  0  0
 17 12  1  0  0  0  0
 17 18  1  0  0  0  0
 18 19  1  0  0  0  0
 19 20  1  0  0  0  0
 20 21  1  0  0  0  0
 21 22  1  0  0  0  0
 22 18  1  0  0  0  0
  3 23  1  0  0  0  0
  3 24  1  0  0  0  0
  2 25  1  1  0  0  0
  5 26  1  1  0  0  0
 10 26  1  1  0  0  0
  9 27  1  1  0  0  0
 12 28  1  1  0  0  0
 16 29  1  1  0  0  0
 18 30  1  6  0  0  0
  4 31  1  6  0  0  0
  7 32  1  6  0  0  0
 11 33  1  6  0  0  0
 17 34  1  6  0  0  0
 20 35  1  6  0  0  0
 20 36  1  0  0  0  0
 36 37  1  0  0  0  0
 36 38  1  0  0  0  0
 36 39  1  0  0  0  0
M  END
>  <cdx:fragmentId>
5

$$$$
