704760.cdx
  Mrv1902 05222410252D          

 38 42  0  0  0  0            999 V2000
    4.2674   -8.1125    0.0000 C   0  0  0  0  0  0  0  0  0  0  0  0
    4.2674   -8.9375    0.0000 C   0  0  1  0  0  0  0  0  0  0  0  0
    4.9819   -9.3500    0.0000 C   0  0  2  0  0  0  0  0  0  0  0  0
    5.6964   -8.9375    0.0000 C   0  0  2  0  0  0  0  0  0  0  0  0
    5.6964   -8.1125    0.0000 C   0  0  2  0  0  0  0  0  0  0  0  0
    4.9819   -7.7000    0.0000 C   0  0  0  0  0  0  0  0  0  0  0  0
    6.4108   -9.3500    0.0000 C   0  0  0  0  0  0  0  0  0  0  0  0
    7.1253   -8.9375    0.0000 C   0  0  0  0  0  0  0  0  0  0  0  0
    7.1253   -8.1125    0.0000 C   0  0  2  0  0  0  0  0  0  0  0  0
    6.4108   -7.7000    0.0000 C   0  0  2  0  0  0  0  0  0  0  0  0
    7.8398   -7.7000    0.0000 C   0  0  1  0  0  0  0  0  0  0  0  0
    7.8398   -6.8750    0.0000 C   0  0  2  0  0  0  0  0  0  0  0  0
    7.1253   -6.4625    0.0000 C   0  0  0  0  0  0  0  0  0  0  0  0
    6.4108   -6.8750    0.0000 C   0  0  0  0  0  0  0  0  0  0  0  0
    8.5543   -8.1125    0.0000 C   0  0  0  0  0  0  0  0  0  0  0  0
    9.2687   -7.7000    0.0000 C   0  0  0  0  0  0  0  0  0  0  0  0
    9.2687   -6.8750    0.0000 C   0  0  2  0  0  0  0  0  0  0  0  0
    8.5543   -6.4625    0.0000 C   0  0  1  0  0  0  0  0  0  0  0  0
    9.8818   -6.3230    0.0000 C   0  0  0  0  0  0  0  0  0  0  0  0
    9.5463   -5.5693    0.0000 C   0  0  0  0  0  0  0  0  0  0  0  0
    8.7258   -5.6555    0.0000 C   0  0  1  0  0  0  0  0  0  0  0  0
    8.1737   -5.0424    0.0000 C   0  0  0  0  0  0  0  0  0  0  0  0
    5.3944  -10.0645    0.0000 C   0  0  0  0  0  0  0  0  0  0  0  0
    7.8398   -8.5250    0.0000 C   0  0  0  0  0  0  0  0  0  0  0  0
    3.5530   -9.3500    0.0000 O   0  0  0  0  0  0  0  0  0  0  0  0
    4.5694  -10.0645    0.0000 C   0  0  0  0  0  0  0  0  0  0  0  0
    5.6964   -7.2875    0.0000 C   0  0  0  0  0  0  0  0  0  0  0  0
    7.1253   -7.2875    0.0000 C   0  0  0  0  0  0  0  0  0  0  0  0
   10.0224   -7.2106    0.0000 C   0  0  0  0  0  0  0  0  0  0  0  0
    7.3668   -5.2140    0.0000 C   0  0  0  0  0  0  0  0  0  0  0  0
    8.4287   -4.2578    0.0000 C   0  0  0  0  0  0  0  0  0  0  0  0
    4.9819  -10.7789    0.0000 O   0  0  0  0  0  0  0  0  0  0  0  0
   10.6898   -6.7256    0.0000 O   0  0  0  0  0  0  0  0  0  0  0  0
   10.1086   -8.0310    0.0000 O   0  0  0  0  0  0  0  0  0  0  0  0
    5.6964   -9.7625    0.0000 H   0  0  0  0  0  0  0  0  0  0  0  0
    7.8398   -6.0500    0.0000 H   0  0  0  0  0  0  0  0  0  0  0  0
    8.4680   -7.2830    0.0000 H   0  0  0  0  0  0  0  0  0  0  0  0
    6.4108   -8.5250    0.0000 H   0  0  0  0  0  0  0  0  0  0  0  0
  1  2  1  0  0  0  0
  2  3  1  0  0  0  0
  3  4  1  0  0  0  0
  4  5  1  0  0  0  0
  5  6  1  0  0  0  0
  6  1  1  0  0  0  0
  4  7  1  0  0  0  0
  7  8  1  0  0  0  0
  8  9  1  0  0  0  0
  9 10  1  0  0  0  0
 10  5  1  0  0  0  0
  9 11  1  0  0  0  0
 11 12  1  0  0  0  0
 12 13  1  0  0  0  0
 13 14  1  0  0  0  0
 14 10  1  0  0  0  0
 11 15  1  0  0  0  0
 15 16  1  0  0  0  0
 16 17  1  0  0  0  0
 17 18  1  0  0  0  0
 18 12  1  0  0  0  0
 17 19  1  0  0  0  0
 19 20  1  0  0  0  0
 20 21  1  0  0  0  0
 21 18  1  0  0  0  0
 21 22  1  6  0  0  0
  3 23  1  6  0  0  0
 11 24  1  6  0  0  0
  2 25  1  1  0  0  0
  3 26  1  1  0  0  0
  5 27  1  1  0  0  0
  9 28  1  1  0  0  0
 17 29  1  1  0  0  0
 22 30  1  0  0  0  0
 22 31  2  0  0  0  0
 23 32  1  0  0  0  0
 29 33  2  0  0  0  0
 29 34  1  0  0  0  0
  4 35  1  1  0  0  0
 12 36  1  1  0  0  0
 18 37  1  1  0  0  0
 10 38  1  6  0  0  0
M  END
>  <cdx:fragmentId>
5

$$$$
