704955.cdx
  Mrv1902 05222410232D          

 23 26  0  0  0  0            999 V2000
    7.4779   -7.6047    0.0000 C   0  0  1  0  0  0  0  0  0  0  0  0
    6.6529   -7.6057    0.0000 C   0  0  0  0  0  0  0  0  0  0  0  0
    6.1472   -8.2575    0.0000 C   0  0  0  0  0  0  0  0  0  0  0  0
    6.3513   -9.0569    0.0000 C   0  0  1  0  0  0  0  0  0  0  0  0
    5.6373   -9.4702    0.0000 C   0  0  1  0  0  0  0  0  0  0  0  0
    5.6383  -10.2952    0.0000 C   0  0  0  0  0  0  0  0  0  0  0  0
    6.3533  -10.7069    0.0000 C   0  0  0  0  0  0  0  0  0  0  0  0
    7.0672  -10.2935    0.0000 C   0  0  1  0  0  0  0  0  0  0  0  0
    7.7822  -10.7051    0.0000 C   0  0  2  0  0  0  0  0  0  0  0  0
    8.4962  -10.2917    0.0000 C   0  0  0  0  0  0  0  0  0  0  0  0
    8.4952   -9.4667    0.0000 O   0  0  0  0  0  0  0  0  0  0  0  0
    7.7802   -9.0551    0.0000 C   0  0  1  0  0  0  0  0  0  0  0  0
    7.0662   -9.4685    0.0000 C   0  0  1  0  0  0  0  0  0  0  0  0
    6.7431   -8.8000    0.0000 O   0  0  0  0  0  0  0  0  0  0  0  0
    6.9032   -8.0750    0.0000 O   0  0  0  0  0  0  0  0  0  0  0  0
    7.9852   -8.2553    0.0000 O   0  0  0  0  0  0  0  0  0  0  0  0
    9.2112  -10.7034    0.0000 O   0  0  0  0  0  0  0  0  0  0  0  0
    7.7832  -11.5301    0.0000 C   0  0  0  0  0  0  0  0  0  0  0  0
    4.9223   -9.0586    0.0000 C   0  0  0  0  0  0  0  0  0  0  0  0
    7.8895   -6.8897    0.0000 C   0  0  0  0  0  0  0  0  0  0  0  0
    5.5908   -8.7371    0.0000 H   0  0  0  0  0  0  0  0  0  0  0  0
    7.0683  -11.1185    0.0000 H   0  0  0  0  0  0  0  0  0  0  0  0
    8.5405   -8.7348    0.0000 H   0  0  0  0  0  0  0  0  0  0  0  0
  1  2  1  0  0  0  0
  2  3  1  0  0  0  0
  3  4  1  0  0  0  0
  4  5  1  0  0  0  0
  5  6  1  0  0  0  0
  6  7  1  0  0  0  0
  7  8  1  0  0  0  0
  8  9  1  0  0  0  0
  9 10  1  0  0  0  0
 10 11  1  0  0  0  0
 11 12  1  0  0  0  0
 12 13  1  0  0  0  0
 13 14  1  1  0  0  0
 14 15  1  0  0  0  0
  1 15  1  0  0  0  0
  1 16  1  0  0  0  0
 16 12  1  0  0  0  0
  8 13  1  0  0  0  0
  4 13  1  0  0  0  0
 10 17  2  0  0  0  0
  9 18  1  6  0  0  0
  5 19  1  1  0  0  0
  1 20  1  1  0  0  0
  4 21  1  1  0  0  0
  8 22  1  1  0  0  0
 12 23  1  6  0  0  0
M  END
>  <cdx:fragmentId>
5

$$$$
