7054.cdx
  Mrv1902 05222410212D          

 11 12  0  0  0  0            999 V2000
    3.9072   -4.7491    0.0000 N   0  0  0  0  0  0  0  0  0  0  0  0
    4.3921   -4.0817    0.0000 C   0  0  0  0  0  0  0  0  0  0  0  0
    3.9072   -3.4142    0.0000 C   0  0  0  0  0  0  0  0  0  0  0  0
    3.1226   -3.6692    0.0000 C   0  0  0  0  0  0  0  0  0  0  0  0
    2.4081   -3.2567    0.0000 C   0  0  0  0  0  0  0  0  0  0  0  0
    1.6936   -3.6692    0.0000 C   0  0  0  0  0  0  0  0  0  0  0  0
    1.6936   -4.4942    0.0000 C   0  0  0  0  0  0  0  0  0  0  0  0
    2.4081   -4.9067    0.0000 C   0  0  0  0  0  0  0  0  0  0  0  0
    3.1226   -4.4942    0.0000 C   0  0  0  0  0  0  0  0  0  0  0  0
    5.2171   -4.0817    0.0000 O   0  0  0  0  0  0  0  0  0  0  0  0
    4.1621   -2.6296    0.0000 O   0  0  0  0  0  0  0  0  0  0  0  0
  1  2  1  0  0  0  0
  2  3  1  0  0  0  0
  3  4  1  0  0  0  0
  4  5  1  0  0  0  0
  5  6  2  0  0  0  0
  6  7  1  0  0  0  0
  7  8  2  0  0  0  0
  8  9  1  0  0  0  0
  1  9  1  0  0  0  0
  4  9  2  0  0  0  0
  2 10  2  0  0  0  0
  3 11  2  0  0  0  0
M  END
>  <cdx:groupId>
36

>  <cdx:fragmentId>
5

$$$$
