705531.cdx
  Mrv1902 05222410232D          

 28 31  0  0  0  0            999 V2000
    6.3546   -8.1422    0.0000 O   0  0  0  0  0  0  0  0  0  0  0  0
    7.0691   -8.5547    0.0000 C   0  0  2  0  0  0  0  0  0  0  0  0
    7.0691   -9.3797    0.0000 C   0  0  1  0  0  0  0  0  0  0  0  0
    6.3546   -9.7922    0.0000 C   0  0  2  0  0  0  0  0  0  0  0  0
    5.6401   -9.3797    0.0000 C   0  0  1  0  0  0  0  0  0  0  0  0
    5.6401   -8.5547    0.0000 C   0  0  1  0  0  0  0  0  0  0  0  0
    7.7836   -9.7922    0.0000 O   0  0  0  0  0  0  0  0  0  0  0  0
    6.3546  -10.6172    0.0000 O   0  0  0  0  0  0  0  0  0  0  0  0
    4.9257   -9.7922    0.0000 O   0  0  0  0  0  0  0  0  0  0  0  0
    4.9257   -8.1422    0.0000 C   0  0  0  0  0  0  0  0  0  0  0  0
    4.2112   -8.5547    0.0000 O   0  0  0  0  0  0  0  0  0  0  0  0
    7.7836   -8.1422    0.0000 O   0  0  0  0  0  0  0  0  0  0  0  0
    8.4980   -6.9047    0.0000 C   0  0  2  0  0  0  0  0  0  0  0  0
    9.2827   -7.1596    0.0000 C   0  0  1  0  0  0  0  0  0  0  0  0
   10.1031   -7.2459    0.0000 O   0  0  0  0  0  0  0  0  0  0  0  0
    9.7676   -6.4922    0.0000 C   0  0  1  0  0  0  0  0  0  0  0  0
    9.2827   -5.8248    0.0000 C   0  0  2  0  0  0  0  0  0  0  0  0
    8.4980   -6.0797    0.0000 C   0  0  2  0  0  0  0  0  0  0  0  0
    7.7836   -5.6672    0.0000 C   0  0  0  0  0  0  0  0  0  0  0  0
    7.0691   -6.0797    0.0000 C   0  0  0  0  0  0  0  0  0  0  0  0
    7.0691   -6.9047    0.0000 O   0  0  0  0  0  0  0  0  0  0  0  0
    7.7836   -7.3172    0.0000 C   0  0  1  0  0  0  0  0  0  0  0  0
    9.1111   -7.9666    0.0000 C   0  0  0  0  0  0  0  0  0  0  0  0
    9.6945   -8.5500    0.0000 O   0  0  0  0  0  0  0  0  0  0  0  0
    9.5376   -5.0401    0.0000 O   0  0  0  0  0  0  0  0  0  0  0  0
    8.4980   -7.7297    0.0000 H   0  0  0  0  0  0  0  0  0  0  0  0
   10.4820   -6.0797    0.0000 H   0  0  0  0  0  0  0  0  0  0  0  0
    8.4980   -5.2547    0.0000 H   0  0  0  0  0  0  0  0  0  0  0  0
  1  2  1  0  0  0  0
  2  3  1  0  0  0  0
  3  4  1  0  0  0  0
  4  5  1  0  0  0  0
  5  6  1  0  0  0  0
  1  6  1  0  0  0  0
  3  7  1  6  0  0  0
  4  8  1  1  0  0  0
  5  9  1  6  0  0  0
 10 11  1  0  0  0  0
  6 10  1  1  0  0  0
 13 14  1  0  0  0  0
 14 15  1  0  0  0  0
 15 16  1  0  0  0  0
 16 17  1  0  0  0  0
 17 18  1  0  0  0  0
 18 19  1  0  0  0  0
 19 20  1  0  0  0  0
 20 21  1  0  0  0  0
 21 22  1  0  0  0  0
 13 22  1  0  0  0  0
 13 18  1  0  0  0  0
 14 16  1  0  0  0  0
 23 24  1  0  0  0  0
 14 23  1  1  0  0  0
 17 25  1  6  0  0  0
 22 12  1  6  0  0  0
  2 12  1  1  0  0  0
 13 26  1  6  0  0  0
 16 27  1  1  0  0  0
 18 28  1  6  0  0  0
M  END
>  <cdx:fragmentId>
7317

$$$$
