7055.cdx
  Mrv1902 05222410212D          

 11 12  0  0  0  0            999 V2000
    5.9253   -3.1556    0.0000 C   0  0  0  0  0  0  0  0  0  0  0  0
    6.6398   -3.5681    0.0000 C   0  0  0  0  0  0  0  0  0  0  0  0
    6.6398   -4.3931    0.0000 C   0  0  0  0  0  0  0  0  0  0  0  0
    5.9253   -4.8056    0.0000 C   0  0  0  0  0  0  0  0  0  0  0  0
    5.2108   -4.3931    0.0000 C   0  0  0  0  0  0  0  0  0  0  0  0
    4.4964   -4.8056    0.0000 C   0  0  0  0  0  0  0  0  0  0  0  0
    3.7819   -4.3931    0.0000 C   0  0  0  0  0  0  0  0  0  0  0  0
    3.7819   -3.5681    0.0000 C   0  0  0  0  0  0  0  0  0  0  0  0
    4.4964   -3.1556    0.0000 C   0  0  0  0  0  0  0  0  0  0  0  0
    5.2108   -3.5681    0.0000 C   0  0  0  0  0  0  0  0  0  0  0  0
    7.3542   -3.1556    0.0000 C   0  0  0  0  0  0  0  0  0  0  0  0
  1  2  1  0  0  0  0
  2  3  2  0  0  0  0
  3  4  1  0  0  0  0
  4  5  2  0  0  0  0
  5  6  1  0  0  0  0
  6  7  2  0  0  0  0
  7  8  1  0  0  0  0
  8  9  2  0  0  0  0
  9 10  1  0  0  0  0
  1 10  2  0  0  0  0
  5 10  1  0  0  0  0
  2 11  1  0  0  0  0
M  END
>  <cdx:groupId>
36

>  <cdx:fragmentId>
5

$$$$
