54705797.cdx
  Mrv1902 05222410282D          

 16 17  0  0  0  0            999 V2000
    9.0042  -15.7157    0.0000 C   0  0  0  0  0  0  0  0  0  0  0  0
    9.0042  -14.8907    0.0000 C   0  0  0  0  0  0  0  0  0  0  0  0
    8.2898  -14.4782    0.0000 C   0  0  0  0  0  0  0  0  0  0  0  0
    7.5753  -14.8907    0.0000 C   0  0  0  0  0  0  0  0  0  0  0  0
    6.8608  -14.4782    0.0000 C   0  0  0  0  0  0  0  0  0  0  0  0
    6.1464  -14.8907    0.0000 C   0  0  0  0  0  0  0  0  0  0  0  0
    6.1464  -15.7157    0.0000 C   0  0  0  0  0  0  0  0  0  0  0  0
    6.8608  -16.1282    0.0000 C   0  0  0  0  0  0  0  0  0  0  0  0
    7.5753  -15.7157    0.0000 C   0  0  0  0  0  0  0  0  0  0  0  0
    8.2898  -16.1282    0.0000 O   0  0  0  0  0  0  0  0  0  0  0  0
    9.7187  -16.1282    0.0000 O   0  0  0  0  0  0  0  0  0  0  0  0
    5.4319  -16.1282    0.0000 O   0  0  0  0  0  0  0  0  0  0  0  0
    4.7174  -15.7157    0.0000 C   0  0  0  0  0  0  0  0  0  0  0  0
    5.4319  -14.4782    0.0000 O   0  0  0  0  0  0  0  0  0  0  0  0
    4.7174  -14.8907    0.0000 C   0  0  0  0  0  0  0  0  0  0  0  0
    8.2898  -13.6532    0.0000 O   0  0  0  0  0  0  0  0  0  0  0  0
  1  2  1  0  0  0  0
  2  3  2  0  0  0  0
  3  4  1  0  0  0  0
  4  5  1  0  0  0  0
  5  6  2  0  0  0  0
  6  7  1  0  0  0  0
  7  8  2  0  0  0  0
  8  9  1  0  0  0  0
  4  9  2  0  0  0  0
  9 10  1  0  0  0  0
  1 10  1  0  0  0  0
  1 11  2  0  0  0  0
 12 13  1  0  0  0  0
  7 12  1  0  0  0  0
 14 15  1  0  0  0  0
  6 14  1  0  0  0  0
  3 16  1  0  0  0  0
M  END
>  <cdx:groupId>
188710

>  <cdx:fragmentId>
188664

$$$$
