705769.cdx
  Mrv1902 05222410282D          

 25 27  0  0  0  0            999 V2000
    8.3628   -7.7906    0.0000 C   0  0  0  0  0  0  0  0  0  0  0  0
    7.6483   -8.2031    0.0000 C   0  0  0  0  0  0  0  0  0  0  0  0
    7.6483   -9.0281    0.0000 C   0  0  2  0  0  0  0  0  0  0  0  0
    8.3628   -9.4406    0.0000 C   0  0  0  0  0  0  0  0  0  0  0  0
    8.3628  -10.2656    0.0000 C   0  0  0  0  0  0  0  0  0  0  0  0
    7.6483  -10.6781    0.0000 C   0  0  0  0  0  0  0  0  0  0  0  0
    6.9339  -10.2656    0.0000 C   0  0  2  0  0  0  0  0  0  0  0  0
    6.2194  -10.6781    0.0000 C   0  0  1  0  0  0  0  0  0  0  0  0
    5.5049  -10.2656    0.0000 C   0  0  1  0  0  0  0  0  0  0  0  0
    5.5049   -9.4406    0.0000 C   0  0  0  0  0  0  0  0  0  0  0  0
    6.2194   -9.0281    0.0000 C   0  0  0  0  0  0  0  0  0  0  0  0
    6.9339   -9.4406    0.0000 C   0  0  1  0  0  0  0  0  0  0  0  0
    9.0773   -9.0281    0.0000 C   0  0  0  0  0  0  0  0  0  0  0  0
    6.9339   -8.6156    0.0000 C   0  0  0  0  0  0  0  0  0  0  0  0
    5.8069  -11.3925    0.0000 C   0  0  0  0  0  0  0  0  0  0  0  0
    6.6319  -11.3925    0.0000 C   0  0  0  0  0  0  0  0  0  0  0  0
    4.7904  -10.6781    0.0000 O   0  0  0  0  0  0  0  0  0  0  0  0
    6.9339  -11.0906    0.0000 H   0  0  0  0  0  0  0  0  0  0  0  0
    9.8149   -6.7356    0.0000 O   0  0  0  0  0  0  0  0  0  0  0  0
    9.0302   -6.4806    0.0000 C   0  0  0  0  0  0  0  0  0  0  0  0
    8.3628   -6.9656    0.0000 C   0  0  0  0  0  0  0  0  0  0  0  0
    7.6954   -6.4806    0.0000 C   0  0  0  0  0  0  0  0  0  0  0  0
    7.9503   -5.6960    0.0000 C   0  0  0  0  0  0  0  0  0  0  0  0
    8.7753   -5.6960    0.0000 O   0  0  0  0  0  0  0  0  0  0  0  0
    6.2194  -12.1070    0.0000 O   0  0  0  0  0  0  0  0  0  0  0  0
 20 19  2  0  0  0  0
 24 20  1  0  0  0  0
 21 20  1  0  0  0  0
 22 21  2  0  0  0  0
 23 22  1  0  0  0  0
 24 23  1  0  0  0  0
  1  2  2  0  0  0  0
  3  4  1  0  0  0  0
  4  5  1  0  0  0  0
  5  6  1  0  0  0  0
  6  7  1  0  0  0  0
  7  8  1  0  0  0  0
  8  9  1  0  0  0  0
  9 10  1  0  0  0  0
 10 11  1  0  0  0  0
 11 12  1  0  0  0  0
  3 12  1  0  0  0  0
  7 12  1  0  0  0  0
  4 13  2  0  0  0  0
 12 14  1  6  0  0  0
  8 15  1  6  0  0  0
  8 16  1  1  0  0  0
  9 17  1  6  0  0  0
  3  2  1  6  0  0  0
 21  1  1  0  0  0  0
  7 18  1  1  0  0  0
 15 25  1  0  0  0  0
M  END
>  <cdx:fragmentId>
89147

$$$$
