705791.cdx
  Mrv1902 05222410262D          

 23 26  0  0  0  0            999 V2000
    8.5841   -8.6568    0.0000 H   0  0  0  0  0  0  0  0  0  0  0  0
    5.9866   -6.9088    0.0000 H   0  0  0  0  0  0  0  0  0  0  0  0
    5.9242   -9.9887    0.0000 H   0  0  0  0  0  0  0  0  0  0  0  0
    6.3569   -9.6739    0.0000 H   0  0  0  0  0  0  0  0  0  0  0  0
    4.1883   -8.4236    0.0000 C   0  0  0  0  0  0  0  0  0  0  0  0
    8.1744   -6.9535    0.0000 C   0  0  0  0  0  0  0  0  0  0  0  0
    6.5202  -10.5801    0.0000 C   0  0  0  0  0  0  0  0  0  0  0  0
    8.2793  -10.9367    0.0000 O   0  0  0  0  0  0  0  0  0  0  0  0
    7.1281  -10.0223    0.0000 C   0  0  0  0  0  0  0  0  0  0  0  0
    7.9366  -10.1862    0.0000 C   0  0  0  0  0  0  0  0  0  0  0  0
    8.3424   -9.4679    0.0000 O   0  0  0  0  0  0  0  0  0  0  0  0
    7.7845   -8.8600    0.0000 C   0  0  1  0  0  0  0  0  0  0  0  0
    7.9845   -8.0596    0.0000 C   0  0  0  0  0  0  0  0  0  0  0  0
    7.4834   -7.4042    0.0000 C   0  0  2  0  0  0  0  0  0  0  0  0
    7.0856   -6.6815    0.0000 O   0  0  0  0  0  0  0  0  0  0  0  0
    6.6586   -7.3874    0.0000 C   0  0  2  0  0  0  0  0  0  0  0  0
    6.1312   -8.0217    0.0000 C   0  0  0  0  0  0  0  0  0  0  0  0
    5.3112   -7.9310    0.0000 C   0  0  0  0  0  0  0  0  0  0  0  0
    4.9715   -8.6828    0.0000 C   0  0  2  0  0  0  0  0  0  0  0  0
    4.7955   -9.4888    0.0000 O   0  0  0  0  0  0  0  0  0  0  0  0
    5.5815   -9.2382    0.0000 C   0  0  1  0  0  0  0  0  0  0  0  0
    6.2983   -8.8296    0.0000 C   0  0  0  0  0  0  0  0  0  0  0  0
    7.0341   -9.2027    0.0000 C   0  0  2  0  0  0  0  0  0  0  0  0
 12  1  1  1  0  0  0
 16  2  1  6  0  0  0
 21  3  1  1  0  0  0
 23  4  1  6  0  0  0
 19  5  1  1  0  0  0
 14  6  1  1  0  0  0
  9  7  2  0  0  0  0
 10  8  2  0  0  0  0
 21 19  1  0  0  0  0
 16 14  1  0  0  0  0
 23 12  1  0  0  0  0
 23  9  1  0  0  0  0
 10  9  1  0  0  0  0
 11 10  1  0  0  0  0
 12 11  1  0  0  0  0
 13 12  1  0  0  0  0
 14 13  1  0  0  0  0
 15 14  1  0  0  0  0
 16 15  1  0  0  0  0
 17 16  1  0  0  0  0
 18 17  1  0  0  0  0
 19 18  1  0  0  0  0
 20 19  1  0  0  0  0
 21 20  1  0  0  0  0
 22 21  1  0  0  0  0
 23 22  1  0  0  0  0
M  END
>  <cdx:fragmentId>
5

$$$$
