137705891.cdx
  Mrv1902 05222410222D          

 25 27  0  0  0  0            999 V2000
    7.1783   -5.6422    0.0000 C   0  0  0  0  0  0  0  0  0  0  0  0
    6.3533   -5.6422    0.0000 C   0  0  0  0  0  0  0  0  0  0  0  0
    5.9408   -6.3567    0.0000 C   0  0  1  0  0  0  0  0  0  0  0  0
    6.3533   -7.0712    0.0000 C   0  0  2  0  0  0  0  0  0  0  0  0
    7.1783   -7.0712    0.0000 C   0  0  1  0  0  0  0  0  0  0  0  0
    7.5908   -6.3567    0.0000 C   0  0  0  0  0  0  0  0  0  0  0  0
    5.1158   -6.3567    0.0000 C   0  0  0  0  0  0  0  0  0  0  0  0
    4.7033   -7.0712    0.0000 C   0  0  1  0  0  0  0  0  0  0  0  0
    5.1158   -7.7856    0.0000 C   0  0  0  0  0  0  0  0  0  0  0  0
    5.9408   -7.7856    0.0000 C   0  0  0  0  0  0  0  0  0  0  0  0
    7.5908   -7.7856    0.0000 C   0  0  0  0  0  0  0  0  0  0  0  0
    8.4158   -7.7856    0.0000 C   0  0  0  0  0  0  0  0  0  0  0  0
    8.8283   -7.0712    0.0000 C   0  0  2  0  0  0  0  0  0  0  0  0
    8.4158   -6.3567    0.0000 C   0  0  0  0  0  0  0  0  0  0  0  0
    3.8783   -7.0712    0.0000 O   0  0  0  0  0  0  0  0  0  0  0  0
    6.5668   -7.8681    0.0000 C   0  0  0  0  0  0  0  0  0  0  0  0
    6.9648   -7.8681    0.0000 H   0  0  0  0  0  0  0  0  0  0  0  0
    9.5428   -7.4837    0.0000 C   0  0  0  0  0  0  0  0  0  0  0  0
    5.5283   -5.6422    0.0000 H   0  0  0  0  0  0  0  0  0  0  0  0
    4.9023   -5.5598    0.0000 C   0  0  0  0  0  0  0  0  0  0  0  0
    4.3189   -6.1432    0.0000 C   0  0  0  0  0  0  0  0  0  0  0  0
    9.5428   -6.6587    0.0000 C   0  0  2  0  0  0  0  0  0  0  0  0
   10.2573   -7.0712    0.0000 C   0  0  0  0  0  0  0  0  0  0  0  0
   10.9717   -6.6587    0.0000 O   0  0  0  0  0  0  0  0  0  0  0  0
    9.5428   -5.8337    0.0000 O   0  0  0  0  0  0  0  0  0  0  0  0
  1  2  1  0  0  0  0
  2  3  1  0  0  0  0
  3  4  1  0  0  0  0
  4  5  1  0  0  0  0
  5  6  1  0  0  0  0
  6  1  1  0  0  0  0
  3  7  1  0  0  0  0
  7  8  1  0  0  0  0
  8  9  1  0  0  0  0
  9 10  1  0  0  0  0
 10  4  1  0  0  0  0
  5 11  1  0  0  0  0
 11 12  1  0  0  0  0
 12 13  1  0  0  0  0
 13 14  1  0  0  0  0
 14  6  2  0  0  0  0
  8 15  1  1  0  0  0
  4 16  1  1  0  0  0
  5 17  1  6  0  0  0
 13 18  1  6  0  0  0
  3 19  1  6  0  0  0
  7 20  1  0  0  0  0
  7 21  1  0  0  0  0
 13 22  1  0  0  0  0
 22 23  1  0  0  0  0
 23 24  1  0  0  0  0
 22 25  1  1  0  0  0
M  END
>  <cdx:fragmentId>
3

$$$$
