70587.cdx
  Mrv1902 05222410232D          

 59 63  0  0  0  0            999 V2000
   10.9408   -8.8768    0.0000 C   0  0  0  0  0  0  0  0  0  0  0  0
   10.5283   -8.1624    0.0000 C   0  0  0  0  0  0  0  0  0  0  0  0
   10.9408   -7.4479    0.0000 C   0  0  0  0  0  0  0  0  0  0  0  0
   11.7658   -7.4479    0.0000 C   0  0  0  0  0  0  0  0  0  0  0  0
   12.1783   -8.1624    0.0000 C   0  0  0  0  0  0  0  0  0  0  0  0
   11.7658   -8.8768    0.0000 N   0  0  0  0  0  0  0  0  0  0  0  0
    9.7033   -8.1624    0.0000 C   0  0  0  0  0  0  0  0  0  0  0  0
    9.2908   -7.4479    0.0000 O   0  0  0  0  0  0  0  0  0  0  0  0
    9.2908   -8.8768    0.0000 O   0  0  0  0  0  0  0  0  0  0  0  0
    5.9441   -8.0518    0.0000 C   0  0  1  0  0  0  0  0  0  0  0  0
    5.2296   -8.4643    0.0000 C   0  0  1  0  0  0  0  0  0  0  0  0
    4.4450   -8.2094    0.0000 C   0  0  0  0  0  0  0  0  0  0  0  0
    3.9600   -8.8768    0.0000 C   0  0  1  0  0  0  0  0  0  0  0  0
    4.4450   -9.5443    0.0000 C   0  0  1  0  0  0  0  0  0  0  0  0
    5.2296   -9.2893    0.0000 C   0  0  2  0  0  0  0  0  0  0  0  0
    5.9441   -9.7018    0.0000 C   0  0  2  0  0  0  0  0  0  0  0  0
    6.6585   -9.2893    0.0000 C   0  0  0  0  0  0  0  0  0  0  0  0
    7.3035   -9.8037    0.0000 C   0  0  1  0  0  0  0  0  0  0  0  0
    8.1079   -9.6201    0.0000 C   0  0  2  0  0  0  0  0  0  0  0  0
    8.4658   -8.8768    0.0000 C   0  0  2  0  0  0  0  0  0  0  0  0
    8.1079   -8.1335    0.0000 C   0  0  0  0  0  0  0  0  0  0  0  0
    7.3035   -7.9500    0.0000 C   0  0  2  0  0  0  0  0  0  0  0  0
    6.9758   -7.1929    0.0000 C   0  0  0  0  0  0  0  0  0  0  0  0
    6.1531   -7.2545    0.0000 C   0  0  1  0  0  0  0  0  0  0  0  0
    6.6585   -8.4643    0.0000 O   0  0  0  0  0  0  0  0  0  0  0  0
    7.3883   -6.4784    0.0000 O   0  0  0  0  0  0  0  0  0  0  0  0
    7.3479   -8.4678    0.0000 C   0  0  0  0  0  0  0  0  0  0  0  0
    5.6250   -6.6207    0.0000 C   0  0  0  0  0  0  0  0  0  0  0  0
    8.3706   -7.3515    0.0000 C   0  0  0  0  0  0  0  0  0  0  0  0
    8.8992   -7.9002    0.0000 C   0  0  0  0  0  0  0  0  0  0  0  0
    3.1350   -8.8768    0.0000 C   0  0  0  0  0  0  0  0  0  0  0  0
    5.3850   -7.4451    0.0000 O   0  0  0  0  0  0  0  0  0  0  0  0
    8.6222  -10.2651    0.0000 O   0  0  0  0  0  0  0  0  0  0  0  0
    9.4380  -10.1422    0.0000 C   0  0  0  0  0  0  0  0  0  0  0  0
    9.9524  -10.7872    0.0000 C   0  0  0  0  0  0  0  0  0  0  0  0
    9.7394   -9.3742    0.0000 O   0  0  0  0  0  0  0  0  0  0  0  0
    7.1200  -10.6080    0.0000 O   0  0  0  0  0  0  0  0  0  0  0  0
    7.0949  -11.4326    0.0000 C   0  0  0  0  0  0  0  0  0  0  0  0
    6.3833  -11.8501    0.0000 O   0  0  0  0  0  0  0  0  0  0  0  0
    7.8122  -11.8401    0.0000 C   0  0  0  0  0  0  0  0  0  0  0  0
    5.9441  -10.7743    0.0000 O   0  0  0  0  0  0  0  0  0  0  0  0
    5.2296  -11.1868    0.0000 C   0  0  0  0  0  0  0  0  0  0  0  0
    5.2296  -12.0118    0.0000 O   0  0  0  0  0  0  0  0  0  0  0  0
    4.5151  -10.7743    0.0000 C   0  0  0  0  0  0  0  0  0  0  0  0
    4.1900  -10.3289    0.0000 O   0  0  0  0  0  0  0  0  0  0  0  0
    3.3831  -10.5004    0.0000 C   0  0  0  0  0  0  0  0  0  0  0  0
    3.1281  -11.2850    0.0000 O   0  0  0  0  0  0  0  0  0  0  0  0
    2.8310   -9.8873    0.0000 C   0  0  0  0  0  0  0  0  0  0  0  0
    5.0022   -7.6713    0.0000 O   0  0  0  0  0  0  0  0  0  0  0  0
    4.2017   -7.4717    0.0000 C   0  0  0  0  0  0  0  0  0  0  0  0
    3.9743   -6.6787    0.0000 O   0  0  0  0  0  0  0  0  0  0  0  0
    3.6286   -8.0652    0.0000 C   0  0  0  0  0  0  0  0  0  0  0  0
    5.1434  -10.1098    0.0000 H   0  0  0  0  0  0  0  0  0  0  0  0
    7.8308   -7.3154    0.0000 H   0  0  0  0  0  0  0  0  0  0  0  0
    7.8180  -12.6651    0.0000 C   0  0  0  0  0  0  0  0  0  0  0  0
    8.5353  -13.0726    0.0000 C   0  0  0  0  0  0  0  0  0  0  0  0
    9.2469  -12.6551    0.0000 C   0  0  0  0  0  0  0  0  0  0  0  0
    9.2411  -11.8302    0.0000 C   0  0  0  0  0  0  0  0  0  0  0  0
    8.5238  -11.4227    0.0000 C   0  0  0  0  0  0  0  0  0  0  0  0
  1  2  1  0  0  0  0
  2  3  2  0  0  0  0
  3  4  1  0  0  0  0
  4  5  2  0  0  0  0
  5  6  1  0  0  0  0
  1  6  2  0  0  0  0
  7  8  2  0  0  0  0
  7  9  1  0  0  0  0
  2  7  1  0  0  0  0
 10 11  1  0  0  0  0
 11 12  1  0  0  0  0
 12 13  1  0  0  0  0
 13 14  1  0  0  0  0
 14 15  1  0  0  0  0
 15 16  1  0  0  0  0
 16 17  1  0  0  0  0
 17 18  1  0  0  0  0
 18 19  1  0  0  0  0
 19 20  1  0  0  0  0
 20 21  1  0  0  0  0
 21 22  1  0  0  0  0
 22 23  1  0  0  0  0
 23 24  1  0  0  0  0
 10 24  1  0  0  0  0
 10 25  1  0  0  0  0
 25 22  1  0  0  0  0
 11 15  1  0  0  0  0
 23 26  2  0  0  0  0
 17 27  2  0  0  0  0
 24 28  1  6  0  0  0
 21 29  1  0  0  0  0
 21 30  1  0  0  0  0
 13 31  1  1  0  0  0
 10 32  1  6  0  0  0
 34 35  1  0  0  0  0
 34 36  2  0  0  0  0
 33 34  1  0  0  0  0
 19 33  1  6  0  0  0
 38 39  2  0  0  0  0
 38 40  1  0  0  0  0
 37 38  1  0  0  0  0
 18 37  1  1  0  0  0
 42 43  2  0  0  0  0
 42 44  1  0  0  0  0
 41 42  1  0  0  0  0
 16 41  1  6  0  0  0
 46 47  2  0  0  0  0
 46 48  1  0  0  0  0
 45 46  1  0  0  0  0
 14 45  1  1  0  0  0
 50 51  2  0  0  0  0
 50 52  1  0  0  0  0
 49 50  1  0  0  0  0
 11 49  1  1  0  0  0
 20  9  1  6  0  0  0
 15 53  1  6  0  0  0
 22 54  1  6  0  0  0
 40 55  2  0  0  0  0
 55 56  1  0  0  0  0
 56 57  2  0  0  0  0
 57 58  1  0  0  0  0
 58 59  2  0  0  0  0
 59 40  1  0  0  0  0
M  END
>  <cdx:groupId>
13315

>  <cdx:fragmentId>
13155

$$$$
