705876.cdx
  Mrv1902 05222410242D          

 27 30  0  0  0  0            999 V2000
    9.6526   -8.7482    0.0000 N   0  3  0  0  0  0  0  0  0  0  0  0
   10.3670   -8.3355    0.0000 C   0  0  0  0  0  0  0  0  0  0  0  0
   10.3672   -7.5105    0.0000 C   0  0  0  0  0  0  0  0  0  0  0  0
    9.6532   -7.0973    0.0000 C   0  0  0  0  0  0  0  0  0  0  0  0
    8.9387   -7.5098    0.0000 C   0  0  0  0  0  0  0  0  0  0  0  0
    8.2242   -7.0973    0.0000 C   0  0  0  0  0  0  0  0  0  0  0  0
    7.5098   -7.5098    0.0000 C   0  0  0  0  0  0  0  0  0  0  0  0
    7.5098   -8.3348    0.0000 C   0  0  0  0  0  0  0  0  0  0  0  0
    8.2242   -8.7473    0.0000 C   0  0  0  0  0  0  0  0  0  0  0  0
    8.9387   -8.3348    0.0000 C   0  0  2  0  0  0  0  0  0  0  0  0
    8.2242   -6.2723    0.0000 C   0  0  0  0  0  0  0  0  0  0  0  0
    8.9387   -5.8598    0.0000 C   0  0  0  0  0  0  0  0  0  0  0  0
    9.6532   -6.2723    0.0000 C   0  0  0  0  0  0  0  0  0  0  0  0
    6.7953   -8.7473    0.0000 C   0  0  0  0  0  0  0  0  0  0  0  0
    6.0808   -8.3348    0.0000 C   0  0  0  0  0  0  0  0  0  0  0  0
    6.0808   -7.5098    0.0000 C   0  0  0  0  0  0  0  0  0  0  0  0
    6.7953   -7.0973    0.0000 C   0  0  0  0  0  0  0  0  0  0  0  0
    5.3663   -8.7473    0.0000 O   0  0  0  0  0  0  0  0  0  0  0  0
    9.2401   -9.4627    0.0000 C   0  0  0  0  0  0  0  0  0  0  0  0
   10.0651   -9.4627    0.0000 C   0  0  0  0  0  0  0  0  0  0  0  0
    5.3663   -7.0973    0.0000 O   0  0  0  0  0  0  0  0  0  0  0  0
    4.6519   -7.5098    0.0000 C   0  0  0  0  0  0  0  0  0  0  0  0
    8.9387   -5.0348    0.0000 O   0  0  0  0  0  0  0  0  0  0  0  0
    9.6532   -4.6223    0.0000 C   0  0  0  0  0  0  0  0  0  0  0  0
    7.5098   -5.8598    0.0000 O   0  0  0  0  0  0  0  0  0  0  0  0
    6.7953   -6.2723    0.0000 C   0  0  0  0  0  0  0  0  0  0  0  0
    8.9387   -9.1598    0.0000 H   0  0  0  0  0  0  0  0  0  0  0  0
  1  2  1  0  0  0  0
  2  3  1  0  0  0  0
  3  4  1  0  0  0  0
  4  5  1  0  0  0  0
  5  6  2  0  0  0  0
  6  7  1  0  0  0  0
  7  8  1  0  0  0  0
  8  9  1  0  0  0  0
  9 10  1  0  0  0  0
  1 10  1  0  0  0  0
  5 10  1  0  0  0  0
 11 12  2  0  0  0  0
 12 13  1  0  0  0  0
 13  4  2  0  0  0  0
 11  6  1  0  0  0  0
 14 15  1  0  0  0  0
 15 16  2  0  0  0  0
 16 17  1  0  0  0  0
 17  7  2  0  0  0  0
 14  8  2  0  0  0  0
 15 18  1  0  0  0  0
  1 19  1  0  0  0  0
  1 20  1  0  0  0  0
 21 22  1  0  0  0  0
 16 21  1  0  0  0  0
 23 24  1  0  0  0  0
 12 23  1  0  0  0  0
 25 26  1  0  0  0  0
 11 25  1  0  0  0  0
 10 27  1  6  0  0  0
M  CHG  1   1   1
M  END
>  <cdx:fragmentId>
89530

$$$$
