70610.cdx
  Mrv1902 05222410222D          

 10  9  0  0  0  0            999 V2000
    4.6660   -3.4314    0.0000 C   0  0  0  0  0  0  0  0  0  0  0  0
    5.3805   -3.0189    0.0000 C   0  0  0  0  0  0  0  0  0  0  0  0
    6.0950   -3.4314    0.0000 C   0  0  0  0  0  0  0  0  0  0  0  0
    6.8094   -3.0189    0.0000 C   0  0  0  0  0  0  0  0  0  0  0  0
    4.6660   -4.2564    0.0000 O   0  0  0  0  0  0  0  0  0  0  0  0
    3.9516   -3.0189    0.0000 O   0  0  0  0  0  0  0  0  0  0  0  0
    6.8094   -2.1939    0.0000 O   0  0  0  0  0  0  0  0  0  0  0  0
    7.5239   -3.4314    0.0000 O   0  0  0  0  0  0  0  0  0  0  0  0
    3.2371   -3.4314    0.0000 C   0  0  0  0  0  0  0  0  0  0  0  0
    2.5226   -3.0189    0.0000 C   0  0  0  0  0  0  0  0  0  0  0  0
  1  2  1  0  0  0  0
  2  3  1  0  0  0  0
  3  4  1  0  0  0  0
  1  5  2  0  0  0  0
  1  6  1  0  0  0  0
  4  7  2  0  0  0  0
  4  8  1  0  0  0  0
  9 10  1  0  0  0  0
  6  9  1  0  0  0  0
M  END
>  <cdx:groupId>
31

>  <cdx:fragmentId>
5

$$$$
