706151.cdx
  Mrv1902 05222410212D          

 34 38  0  0  0  0            999 V2000
    6.0638   -9.5696    0.0000 C   0  0  2  0  0  0  0  0  0  0  0  0
    5.3493   -9.1571    0.0000 C   0  0  0  0  0  0  0  0  0  0  0  0
    5.3493   -9.9821    0.0000 C   0  0  1  0  0  0  0  0  0  0  0  0
    4.6348   -9.5696    0.0000 C   0  0  0  0  0  0  0  0  0  0  0  0
    3.9204   -9.9821    0.0000 C   0  0  0  0  0  0  0  0  0  0  0  0
    3.9204  -10.8071    0.0000 C   0  0  1  0  0  0  0  0  0  0  0  0
    4.6348  -11.2196    0.0000 C   0  0  2  0  0  0  0  0  0  0  0  0
    5.3493  -10.8071    0.0000 C   0  0  2  0  0  0  0  0  0  0  0  0
    6.0638  -11.2196    0.0000 C   0  0  0  0  0  0  0  0  0  0  0  0
    6.7783  -10.8071    0.0000 C   0  0  0  0  0  0  0  0  0  0  0  0
    6.7783   -9.9821    0.0000 C   0  0  1  0  0  0  0  0  0  0  0  0
    7.4927   -9.5696    0.0000 C   0  0  2  0  0  0  0  0  0  0  0  0
    8.2774   -9.8245    0.0000 C   0  0  0  0  0  0  0  0  0  0  0  0
    8.7623   -9.1571    0.0000 C   0  0  0  0  0  0  0  0  0  0  0  0
    8.2774   -8.4896    0.0000 C   0  0  1  0  0  0  0  0  0  0  0  0
    7.4927   -8.7446    0.0000 C   0  0  1  0  0  0  0  0  0  0  0  0
    6.7783   -8.3321    0.0000 C   0  0  0  0  0  0  0  0  0  0  0  0
    6.0638   -8.7446    0.0000 C   0  0  0  0  0  0  0  0  0  0  0  0
    3.2059  -11.2196    0.0000 O   0  0  0  0  0  0  0  0  0  0  0  0
    7.9803   -7.0919    0.0000 C   0  0  0  0  0  0  0  0  0  0  0  0
    8.5323   -7.7050    0.0000 C   0  0  2  0  0  0  0  0  0  0  0  0
    9.3393   -7.5335    0.0000 C   0  0  0  0  0  0  0  0  0  0  0  0
    9.5942   -6.7489    0.0000 C   0  0  0  0  0  0  0  0  0  0  0  0
   10.4012   -6.5773    0.0000 C   0  0  0  0  0  0  0  0  0  0  0  0
   10.6561   -5.7927    0.0000 C   0  0  0  0  0  0  0  0  0  0  0  0
   10.1041   -5.1796    0.0000 C   0  0  0  0  0  0  0  0  0  0  0  0
   10.9532   -7.1904    0.0000 C   0  0  0  0  0  0  0  0  0  0  0  0
   11.4631   -5.6212    0.0000 C   0  0  0  0  0  0  0  0  0  0  0  0
    7.4927   -7.9196    0.0000 C   0  0  0  0  0  0  0  0  0  0  0  0
    7.4927  -10.3946    0.0000 C   0  0  0  0  0  0  0  0  0  0  0  0
    4.6348  -12.0446    0.0000 C   0  0  0  0  0  0  0  0  0  0  0  0
    5.3493  -11.6321    0.0000 H   0  0  0  0  0  0  0  0  0  0  0  0
    6.7783   -9.1571    0.0000 H   0  0  0  0  0  0  0  0  0  0  0  0
    9.0742   -8.2761    0.0000 H   0  0  0  0  0  0  0  0  0  0  0  0
  1  2  1  1  0  0  0
  3  2  1  1  0  0  0
  3  4  1  0  0  0  0
  4  5  1  0  0  0  0
  5  6  1  0  0  0  0
  6  7  1  0  0  0  0
  7  8  1  0  0  0  0
  8  9  1  0  0  0  0
  9 10  1  0  0  0  0
 10 11  1  0  0  0  0
 11 12  1  0  0  0  0
 12 13  1  0  0  0  0
 13 14  1  0  0  0  0
 15 14  1  0  0  0  0
 15 16  1  0  0  0  0
 16 17  1  0  0  0  0
 17 18  1  0  0  0  0
  1 18  1  0  0  0  0
  1 11  1  0  0  0  0
 12 16  1  0  0  0  0
  3  8  1  0  0  0  0
  1  3  1  0  0  0  0
  6 19  1  1  0  0  0
 21 20  1  6  0  0  0
 21 22  1  0  0  0  0
 22 23  1  0  0  0  0
 23 24  1  0  0  0  0
 24 25  1  0  0  0  0
 25 26  1  0  0  0  0
 24 27  2  0  0  0  0
 25 28  1  0  0  0  0
 15 21  1  0  0  0  0
 16 29  1  1  0  0  0
 12 30  1  6  0  0  0
  7 31  1  6  0  0  0
  8 32  1  6  0  0  0
 11 33  1  1  0  0  0
 15 34  1  6  0  0  0
M  END
>  <cdx:fragmentId>
89802

$$$$
