70615.cdx
  Mrv1902 05222410222D          

  9  8  0  0  0  0            999 V2000
    8.7045   -6.8469    0.0000 C   0  0  0  0  0  0  0  0  0  0  0  0
    7.9900   -7.2594    0.0000 C   0  0  0  0  0  0  0  0  0  0  0  0
    7.2755   -6.8469    0.0000 C   0  0  0  0  0  0  0  0  0  0  0  0
    8.7045   -6.0219    0.0000 O   0  0  0  0  0  0  0  0  0  0  0  0
    9.4189   -7.2594    0.0000 O   0  0  0  0  0  0  0  0  0  0  0  0
    7.2755   -6.0219    0.0000 O   0  0  0  0  0  0  0  0  0  0  0  0
    6.5610   -7.2594    0.0000 O   0  0  0  0  0  0  0  0  0  0  0  0
    5.8466   -6.8469    0.0000 C   0  0  0  0  0  0  0  0  0  0  0  0
    5.1321   -7.2594    0.0000 C   0  0  0  0  0  0  0  0  0  0  0  0
  1  2  1  0  0  0  0
  2  3  1  0  0  0  0
  1  4  2  0  0  0  0
  1  5  1  0  0  0  0
  3  6  2  0  0  0  0
  8  9  1  0  0  0  0
  7  8  1  0  0  0  0
  3  7  1  0  0  0  0
M  END
>  <cdx:groupId>
28

>  <cdx:fragmentId>
5

$$$$
