70627.cdx
  Mrv1902 05222410232D          

 10 10  0  0  0  0            999 V2000
    8.0735   -5.0539    0.0000 C   0  0  0  0  0  0  0  0  0  0  0  0
    8.0735   -5.8789    0.0000 C   0  0  0  0  0  0  0  0  0  0  0  0
    7.3590   -6.2914    0.0000 C   0  0  0  0  0  0  0  0  0  0  0  0
    6.6445   -5.8789    0.0000 C   0  0  0  0  0  0  0  0  0  0  0  0
    6.6445   -5.0539    0.0000 C   0  0  0  0  0  0  0  0  0  0  0  0
    7.3590   -4.6414    0.0000 O   0  0  0  0  0  0  0  0  0  0  0  0
    7.3590   -7.1164    0.0000 O   0  0  0  0  0  0  0  0  0  0  0  0
    8.7879   -4.6414    0.0000 C   0  0  0  0  0  0  0  0  0  0  0  0
    5.9301   -6.2914    0.0000 O   0  0  0  0  0  0  0  0  0  0  0  0
    8.7879   -6.2914    0.0000 O   0  0  0  0  0  0  0  0  0  0  0  0
  1  2  2  0  0  0  0
  2  3  1  0  0  0  0
  3  4  1  0  0  0  0
  4  5  2  0  0  0  0
  5  6  1  0  0  0  0
  1  6  1  0  0  0  0
  3  7  2  0  0  0  0
  1  8  1  0  0  0  0
  4  9  1  0  0  0  0
  2 10  1  0  0  0  0
M  END
>  <cdx:groupId>
65

>  <cdx:fragmentId>
38

$$$$
