706214.cdx
  Mrv1902 05222410252D          

 38 42  0  0  0  0            999 V2000
    8.7346   -6.6495    0.0000 C   0  0  2  0  0  0  0  0  0  0  0  0
    9.4491   -6.2370    0.0000 C   0  0  0  0  0  0  0  0  0  0  0  0
   10.1635   -6.6495    0.0000 C   0  0  0  0  0  0  0  0  0  0  0  0
   10.1635   -7.4745    0.0000 C   0  0  0  0  0  0  0  0  0  0  0  0
    9.4491   -7.8870    0.0000 C   0  0  2  0  0  0  0  0  0  0  0  0
    9.4491   -8.7120    0.0000 C   0  0  0  0  0  0  0  0  0  0  0  0
    8.7346   -9.1245    0.0000 C   0  0  0  0  0  0  0  0  0  0  0  0
    8.0201   -8.7120    0.0000 C   0  0  1  0  0  0  0  0  0  0  0  0
    7.3056   -9.1245    0.0000 C   0  0  2  0  0  0  0  0  0  0  0  0
    7.3056   -9.9495    0.0000 C   0  0  0  0  0  0  0  0  0  0  0  0
    6.5912  -10.3620    0.0000 C   0  0  0  0  0  0  0  0  0  0  0  0
    5.8767   -9.9495    0.0000 C   0  0  1  0  0  0  0  0  0  0  0  0
    5.1622  -10.3620    0.0000 C   0  0  0  0  0  0  0  0  0  0  0  0
    4.4478   -9.9495    0.0000 C   0  0  2  0  0  0  0  0  0  0  0  0
    4.4478   -9.1245    0.0000 C   0  0  1  0  0  0  0  0  0  0  0  0
    5.1622   -8.7120    0.0000 C   0  0  0  0  0  0  0  0  0  0  0  0
    5.8767   -9.1245    0.0000 C   0  0  2  0  0  0  0  0  0  0  0  0
    6.5912   -8.7120    0.0000 C   0  0  1  0  0  0  0  0  0  0  0  0
    6.5912   -7.8870    0.0000 C   0  0  0  0  0  0  0  0  0  0  0  0
    7.3056   -7.4745    0.0000 C   0  0  0  0  0  0  0  0  0  0  0  0
    8.0201   -7.8870    0.0000 C   0  0  0  0  0  0  0  0  0  0  0  0
    8.7346   -7.4745    0.0000 C   0  0  2  0  0  0  0  0  0  0  0  0
   10.1635   -8.2995    0.0000 C   0  0  0  0  0  0  0  0  0  0  0  0
   10.1635   -9.1245    0.0000 O   0  0  0  0  0  0  0  0  0  0  0  0
   10.8780   -7.8870    0.0000 O   0  0  0  0  0  0  0  0  0  0  0  0
    5.8767   -8.2995    0.0000 C   0  0  0  0  0  0  0  0  0  0  0  0
    5.5747  -11.0765    0.0000 C   0  0  0  0  0  0  0  0  0  0  0  0
    4.7497  -11.0765    0.0000 C   0  0  0  0  0  0  0  0  0  0  0  0
    9.0366   -5.5225    0.0000 C   0  0  0  0  0  0  0  0  0  0  0  0
    9.8616   -5.5225    0.0000 C   0  0  0  0  0  0  0  0  0  0  0  0
    3.7333   -8.7120    0.0000 O   0  0  0  0  0  0  0  0  0  0  0  0
    3.7333  -10.3620    0.0000 O   0  0  0  0  0  0  0  0  0  0  0  0
    8.0201   -6.2370    0.0000 O   0  0  0  0  0  0  0  0  0  0  0  0
    5.8767  -10.7745    0.0000 H   0  0  0  0  0  0  0  0  0  0  0  0
    8.7346   -8.2995    0.0000 H   0  0  0  0  0  0  0  0  0  0  0  0
    7.3056   -8.2995    0.0000 C   0  0  0  0  0  0  0  0  0  0  0  0
    8.0201   -9.5370    0.0000 C   0  0  0  0  0  0  0  0  0  0  0  0
    6.5912   -9.5370    0.0000 H   0  0  0  0  0  0  0  0  0  0  0  0
  1  2  1  0  0  0  0
  2  3  1  0  0  0  0
  3  4  1  0  0  0  0
  4  5  1  0  0  0  0
  5  6  1  0  0  0  0
  6  7  1  0  0  0  0
  7  8  1  0  0  0  0
  8  9  1  0  0  0  0
  9 10  1  0  0  0  0
 10 11  1  0  0  0  0
 11 12  1  0  0  0  0
 12 13  1  0  0  0  0
 13 14  1  0  0  0  0
 14 15  1  0  0  0  0
 15 16  1  0  0  0  0
 16 17  1  0  0  0  0
 12 17  1  0  0  0  0
 17 18  1  0  0  0  0
  9 18  1  0  0  0  0
 18 19  1  0  0  0  0
 19 20  1  0  0  0  0
 20 21  2  0  0  0  0
  8 21  1  0  0  0  0
 21 22  1  0  0  0  0
  5 22  1  0  0  0  0
  1 22  1  0  0  0  0
 23 24  2  0  0  0  0
 23 25  1  0  0  0  0
  5 23  1  1  0  0  0
 17 26  1  1  0  0  0
 13 27  1  0  0  0  0
 13 28  1  0  0  0  0
  2 29  1  0  0  0  0
  2 30  1  0  0  0  0
 15 31  1  6  0  0  0
 14 32  1  1  0  0  0
  1 33  1  6  0  0  0
 12 34  1  6  0  0  0
 22 35  1  1  0  0  0
  9 36  1  1  0  0  0
  8 37  1  6  0  0  0
 18 38  1  6  0  0  0
M  END
>  <cdx:groupId>
3114

>  <cdx:fragmentId>
3002

$$$$
