137706587.cdx
  Mrv1902 05222410232D          

 19 21  0  0  0  0            999 V2000
   13.0882  -10.2725    0.0000 C   0  0  0  0  0  0  0  0  0  0  0  0
   12.6033   -9.6051    0.0000 C   0  0  0  0  0  0  0  0  0  0  0  0
   13.0882   -8.9377    0.0000 C   0  0  0  0  0  0  0  0  0  0  0  0
   13.8728   -9.1926    0.0000 C   0  0  2  0  0  0  0  0  0  0  0  0
   14.5178   -8.6782    0.0000 C   0  0  0  0  0  0  0  0  0  0  0  0
   15.3221   -8.8618    0.0000 C   0  0  0  0  0  0  0  0  0  0  0  0
   15.6801   -9.6051    0.0000 C   0  0  0  0  0  0  0  0  0  0  0  0
   15.3221  -10.3484    0.0000 C   0  0  2  0  0  0  0  0  0  0  0  0
   14.5178  -10.5320    0.0000 C   0  0  1  0  0  0  0  0  0  0  0  0
   13.8728  -10.0176    0.0000 C   0  0  1  0  0  0  0  0  0  0  0  0
   15.0790  -11.1368    0.0000 C   0  0  0  0  0  0  0  0  0  0  0  0
   13.7255   -8.3809    0.0000 O   0  0  0  0  0  0  0  0  0  0  0  0
   12.8333  -11.0572    0.0000 C   0  0  0  0  0  0  0  0  0  0  0  0
   14.3343   -7.8739    0.0000 C   0  0  0  0  0  0  0  0  0  0  0  0
   15.6401  -11.7415    0.0000 C   0  0  0  0  0  0  0  0  0  0  0  0
   14.8358  -11.9251    0.0000 C   0  0  0  0  0  0  0  0  0  0  0  0
   16.0901  -10.6498    0.0000 H   0  0  0  0  0  0  0  0  0  0  0  0
   13.7296  -10.8301    0.0000 H   0  0  0  0  0  0  0  0  0  0  0  0
   14.0702  -11.2250    0.0000 H   0  0  0  0  0  0  0  0  0  0  0  0
  1  2  1  0  0  0  0
  2  3  1  0  0  0  0
  3  4  1  0  0  0  0
  4  5  1  0  0  0  0
  5  6  1  0  0  0  0
  6  7  1  0  0  0  0
  7  8  1  0  0  0  0
  8  9  1  0  0  0  0
  9 10  1  0  0  0  0
  1 10  1  0  0  0  0
  4 10  1  0  0  0  0
 11  8  1  0  0  0  0
 11  9  1  0  0  0  0
  4 12  1  1  0  0  0
  1 13  1  0  0  0  0
  5 14  1  0  0  0  0
 11 15  1  0  0  0  0
 11 16  1  0  0  0  0
  8 17  1  6  0  0  0
 10 18  1  6  0  0  0
  9 19  1  1  0  0  0
M  END
>  <cdx:groupId>
90633

>  <cdx:fragmentId>
90577

$$$$
