70694.cdx
  Mrv1902 05222410272D          

 13 12  0  0  0  0            999 V2000
    4.6002   -2.3383    0.0000 C   0  0  0  0  0  0  0  0  0  0  0  0
    3.8857   -2.7508    0.0000 C   0  0  0  0  0  0  0  0  0  0  0  0
    3.1712   -2.3383    0.0000 C   0  0  0  0  0  0  0  0  0  0  0  0
    2.4568   -2.7508    0.0000 C   0  0  0  0  0  0  0  0  0  0  0  0
    1.7423   -2.3383    0.0000 C   0  0  0  0  0  0  0  0  0  0  0  0
    4.6002   -1.5133    0.0000 O   0  0  0  0  0  0  0  0  0  0  0  0
    5.3146   -2.7508    0.0000 O   0  0  0  0  0  0  0  0  0  0  0  0
    6.0291   -2.3383    0.0000 C   0  0  0  0  0  0  0  0  0  0  0  0
    6.7436   -2.7508    0.0000 C   0  0  0  0  0  0  0  0  0  0  0  0
    7.4581   -2.3383    0.0000 C   0  0  0  0  0  0  0  0  0  0  0  0
    8.1725   -2.7508    0.0000 C   0  0  0  0  0  0  0  0  0  0  0  0
    8.8870   -2.3383    0.0000 C   0  0  0  0  0  0  0  0  0  0  0  0
    9.6015   -2.7508    0.0000 C   0  0  0  0  0  0  0  0  0  0  0  0
  1  2  1  0  0  0  0
  2  3  1  0  0  0  0
  3  4  1  0  0  0  0
  4  5  1  0  0  0  0
  1  6  2  0  0  0  0
  1  7  1  0  0  0  0
  8  9  1  0  0  0  0
  9 10  1  0  0  0  0
 10 11  1  0  0  0  0
 11 12  1  0  0  0  0
 12 13  1  0  0  0  0
  7  8  1  0  0  0  0
M  END
>  <cdx:groupId>
40

>  <cdx:fragmentId>
5

$$$$
