707273.cdx
  Mrv1902 05222410212D          

 25 29  0  0  0  0            999 V2000
    7.7357   -6.8097    0.0000 C   0  0  0  0  0  0  0  0  0  0  0  0
    8.4502   -6.3972    0.0000 C   0  0  0  0  0  0  0  0  0  0  0  0
    8.4502   -5.5722    0.0000 C   0  0  0  0  0  0  0  0  0  0  0  0
    9.1647   -5.1597    0.0000 C   0  0  0  0  0  0  0  0  0  0  0  0
    9.3362   -4.3528    0.0000 O   0  0  0  0  0  0  0  0  0  0  0  0
   10.1567   -4.2665    0.0000 C   0  0  0  0  0  0  0  0  0  0  0  0
   10.4922   -5.0202    0.0000 O   0  0  0  0  0  0  0  0  0  0  0  0
    9.8791   -5.5722    0.0000 C   0  0  0  0  0  0  0  0  0  0  0  0
    9.8791   -6.3972    0.0000 C   0  0  0  0  0  0  0  0  0  0  0  0
    9.1647   -6.8097    0.0000 C   0  0  0  0  0  0  0  0  0  0  0  0
    9.1647   -7.6347    0.0000 C   0  0  0  0  0  0  0  0  0  0  0  0
    8.4502   -8.0472    0.0000 C   0  0  0  0  0  0  0  0  0  0  0  0
    7.7357   -7.6347    0.0000 N   0  3  0  0  0  0  0  0  0  0  0  0
    7.0213   -8.0472    0.0000 C   0  0  0  0  0  0  0  0  0  0  0  0
    6.3068   -7.6347    0.0000 C   0  0  0  0  0  0  0  0  0  0  0  0
    5.5923   -8.0472    0.0000 C   0  0  0  0  0  0  0  0  0  0  0  0
    4.8778   -7.6347    0.0000 C   0  0  0  0  0  0  0  0  0  0  0  0
    4.8778   -6.8097    0.0000 C   0  0  0  0  0  0  0  0  0  0  0  0
    5.5923   -6.3972    0.0000 C   0  0  0  0  0  0  0  0  0  0  0  0
    6.3068   -6.8097    0.0000 C   0  0  0  0  0  0  0  0  0  0  0  0
    7.0213   -6.3972    0.0000 C   0  0  0  0  0  0  0  0  0  0  0  0
    4.1634   -6.3972    0.0000 O   0  0  0  0  0  0  0  0  0  0  0  0
    3.4489   -6.8097    0.0000 C   0  0  0  0  0  0  0  0  0  0  0  0
    4.1634   -8.0472    0.0000 O   0  0  0  0  0  0  0  0  0  0  0  0
    3.4489   -7.6347    0.0000 C   0  0  0  0  0  0  0  0  0  0  0  0
  1  2  1  0  0  0  0
  2  3  2  0  0  0  0
  3  4  1  0  0  0  0
  4  5  1  0  0  0  0
  5  6  1  0  0  0  0
  6  7  1  0  0  0  0
  7  8  1  0  0  0  0
  8  9  1  0  0  0  0
  9 10  2  0  0  0  0
 10 11  1  0  0  0  0
 11 12  1  0  0  0  0
 12 13  1  0  0  0  0
 13 14  2  0  0  0  0
 14 15  1  0  0  0  0
 15 16  2  0  0  0  0
 16 17  1  0  0  0  0
 17 18  2  0  0  0  0
 18 19  1  0  0  0  0
 19 20  2  0  0  0  0
 20 21  1  0  0  0  0
  1 21  2  0  0  0  0
  1 13  1  0  0  0  0
 15 20  1  0  0  0  0
  2 10  1  0  0  0  0
  4  8  2  0  0  0  0
 22 23  1  0  0  0  0
 18 22  1  0  0  0  0
 24 25  1  0  0  0  0
 17 24  1  0  0  0  0
M  CHG  1  13   1
M  END
>  <cdx:groupId>
108992

>  <cdx:fragmentId>
108914

$$$$
