101707484.cdx
  Mrv1902 05222410242D          

 18 20  0  0  0  0            999 V2000
    8.3878   -5.3551    0.0000 N   0  0  0  0  0  0  0  0  0  0  0  0
    8.8727   -6.0225    0.0000 C   0  0  0  0  0  0  0  0  0  0  0  0
    8.3878   -6.6899    0.0000 C   0  0  0  0  0  0  0  0  0  0  0  0
    7.6032   -6.4350    0.0000 C   0  0  0  0  0  0  0  0  0  0  0  0
    6.8887   -6.8475    0.0000 C   0  0  0  0  0  0  0  0  0  0  0  0
    6.1742   -6.4350    0.0000 C   0  0  2  0  0  0  0  0  0  0  0  0
    6.1742   -5.6100    0.0000 C   0  0  1  0  0  0  0  0  0  0  0  0
    6.8887   -5.1975    0.0000 C   0  0  0  0  0  0  0  0  0  0  0  0
    7.6032   -5.6100    0.0000 C   0  0  0  0  0  0  0  0  0  0  0  0
    5.4598   -5.1975    0.0000 C   0  0  0  0  0  0  0  0  0  0  0  0
    4.7453   -5.6100    0.0000 C   0  0  0  0  0  0  0  0  0  0  0  0
    4.7453   -6.4350    0.0000 C   0  0  0  0  0  0  0  0  0  0  0  0
    5.4598   -6.8475    0.0000 C   0  0  0  0  0  0  0  0  0  0  0  0
    9.6977   -6.0225    0.0000 O   0  0  0  0  0  0  0  0  0  0  0  0
    5.4598   -7.6725    0.0000 C   0  0  0  0  0  0  0  0  0  0  0  0
    6.1742   -4.7850    0.0000 C   0  0  0  0  0  0  0  0  0  0  0  0
    8.6427   -7.4746    0.0000 C   0  0  0  0  0  0  0  0  0  0  0  0
    6.1742   -7.2600    0.0000 H   0  0  0  0  0  0  0  0  0  0  0  0
  1  2  1  0  0  0  0
  2  3  1  0  0  0  0
  3  4  2  0  0  0  0
  4  5  1  0  0  0  0
  5  6  1  0  0  0  0
  6  7  1  0  0  0  0
  7  8  1  0  0  0  0
  8  9  2  0  0  0  0
  1  9  1  0  0  0  0
  4  9  1  0  0  0  0
 10 11  1  0  0  0  0
 11 12  1  0  0  0  0
 12 13  1  0  0  0  0
 13  6  1  0  0  0  0
 10  7  1  0  0  0  0
  2 14  2  0  0  0  0
 13 15  2  0  0  0  0
  7 16  1  1  0  0  0
  3 17  1  0  0  0  0
  6 18  1  6  0  0  0
M  END
>  <cdx:groupId>
265527

>  <cdx:fragmentId>
265474

$$$$
