10707741.cdx
  Mrv1902 05222410262D          

 20 19  0  0  0  0            999 V2000
   12.9593   -7.9442    0.0000 C   0  0  0  0  0  0  0  0  0  0  0  0
   12.2448   -8.3567    0.0000 C   0  0  0  0  0  0  0  0  0  0  0  0
   11.5303   -7.9442    0.0000 C   0  0  1  0  0  0  0  0  0  0  0  0
   10.8159   -8.3567    0.0000 C   0  0  0  0  0  0  0  0  0  0  0  0
   10.1014   -8.7692    0.0000 C   0  0  0  0  0  0  0  0  0  0  0  0
    9.3869   -9.1817    0.0000 C   0  0  0  0  0  0  0  0  0  0  0  0
    8.6724   -9.5942    0.0000 C   0  0  0  0  0  0  0  0  0  0  0  0
    7.9580  -10.0067    0.0000 C   0  0  0  0  0  0  0  0  0  0  0  0
    7.2435   -9.5942    0.0000 C   0  0  2  0  0  0  0  0  0  0  0  0
    6.5290  -10.0067    0.0000 C   0  0  1  0  0  0  0  0  0  0  0  0
    5.8146   -9.5942    0.0000 C   0  0  0  0  0  0  0  0  0  0  0  0
    5.1001  -10.0067    0.0000 C   0  0  0  0  0  0  0  0  0  0  0  0
    4.3856   -9.5942    0.0000 C   0  0  0  0  0  0  0  0  0  0  0  0
    3.6711  -10.0067    0.0000 C   0  0  0  0  0  0  0  0  0  0  0  0
    2.9567   -9.5942    0.0000 C   0  0  0  0  0  0  0  0  0  0  0  0
    2.2422  -10.0067    0.0000 C   0  0  0  0  0  0  0  0  0  0  0  0
    1.5277   -9.5942    0.0000 C   0  0  0  0  0  0  0  0  0  0  0  0
   11.5303   -7.1192    0.0000 O   0  0  0  0  0  0  0  0  0  0  0  0
    7.2435   -8.7692    0.0000 O   0  0  0  0  0  0  0  0  0  0  0  0
    6.5290  -10.8317    0.0000 O   0  0  0  0  0  0  0  0  0  0  0  0
  1  2  2  0  0  0  0
  2  3  1  0  0  0  0
  3  4  1  0  0  0  0
  4  5  3  0  0  0  0
  5  6  1  0  0  0  0
  6  7  3  0  0  0  0
  7  8  1  0  0  0  0
  8  9  1  0  0  0  0
  9 10  1  0  0  0  0
 10 11  1  0  0  0  0
 11 12  1  0  0  0  0
 12 13  1  0  0  0  0
 13 14  1  0  0  0  0
 14 15  1  0  0  0  0
 15 16  1  0  0  0  0
 16 17  1  0  0  0  0
  3 18  1  1  0  0  0
  9 19  1  6  0  0  0
 10 20  1  6  0  0  0
M  END
>  <cdx:fragmentId>
57351

$$$$
