5070783.cdx
  Mrv1902 05222410252D          

 20 21  0  0  0  0            999 V2000
   17.1475   -9.7187    0.0000 C   0  0  0  0  0  0  0  0  0  0  0  0
   17.1475  -10.5437    0.0000 C   0  0  0  0  0  0  0  0  0  0  0  0
   16.4330  -10.9562    0.0000 C   0  0  0  0  0  0  0  0  0  0  0  0
   15.7186  -10.5437    0.0000 C   0  0  0  0  0  0  0  0  0  0  0  0
   15.7186   -9.7187    0.0000 C   0  0  0  0  0  0  0  0  0  0  0  0
   16.4330   -9.3062    0.0000 O   0  0  0  0  0  0  0  0  0  0  0  0
   15.0041   -9.3062    0.0000 C   0  0  0  0  0  0  0  0  0  0  0  0
   14.2896   -9.7187    0.0000 C   0  0  0  0  0  0  0  0  0  0  0  0
   14.2896  -10.5437    0.0000 C   0  0  0  0  0  0  0  0  0  0  0  0
   15.0041  -10.9562    0.0000 C   0  0  0  0  0  0  0  0  0  0  0  0
   17.8620   -9.3062    0.0000 O   0  0  0  0  0  0  0  0  0  0  0  0
   13.5751   -9.3062    0.0000 O   0  0  0  0  0  0  0  0  0  0  0  0
   12.8607   -9.7187    0.0000 C   0  0  0  0  0  0  0  0  0  0  0  0
   15.0041   -8.4812    0.0000 C   0  0  0  0  0  0  0  0  0  0  0  0
   14.2896   -8.0687    0.0000 C   0  0  1  0  0  0  0  0  0  0  0  0
   14.2896   -7.2437    0.0000 C   0  0  0  0  0  0  0  0  0  0  0  0
   15.0041   -6.8312    0.0000 C   0  0  0  0  0  0  0  0  0  0  0  0
   13.5751   -6.8312    0.0000 C   0  0  0  0  0  0  0  0  0  0  0  0
   14.2896   -6.4187    0.0000 O   0  0  0  0  0  0  0  0  0  0  0  0
   13.5751   -8.4812    0.0000 O   0  0  0  0  0  0  0  0  0  0  0  0
  1  2  1  0  0  0  0
  2  3  2  0  0  0  0
  3  4  1  0  0  0  0
  4  5  1  0  0  0  0
  5  6  1  0  0  0  0
  1  6  1  0  0  0  0
  7  8  1  0  0  0  0
  8  9  2  0  0  0  0
  9 10  1  0  0  0  0
 10  4  2  0  0  0  0
  7  5  2  0  0  0  0
  1 11  2  0  0  0  0
 12 13  1  0  0  0  0
  8 12  1  0  0  0  0
 14 15  1  0  0  0  0
 15 16  1  0  0  0  0
 16 17  1  0  0  0  0
 16 18  1  0  0  0  0
 16 19  1  0  0  0  0
 15 20  1  6  0  0  0
  7 14  1  0  0  0  0
M  END
>  <cdx:fragmentId>
5915

$$$$
