708103.cdx
  Mrv1902 05222410262D          

 33 36  0  0  0  0            999 V2000
   12.1969   -9.1341    0.0000 O   0  0  0  0  0  0  0  0  0  0  0  0
   12.1969   -7.4841    0.0000 O   0  0  0  0  0  0  0  0  0  0  0  0
   10.0535   -7.8966    0.0000 C   0  0  0  0  0  0  0  0  0  0  0  0
   10.7680   -7.4841    0.0000 C   0  0  0  0  0  0  0  0  0  0  0  0
   11.4825   -7.8966    0.0000 C   0  0  0  0  0  0  0  0  0  0  0  0
   11.4825   -8.7216    0.0000 C   0  0  0  0  0  0  0  0  0  0  0  0
   10.7680   -9.1341    0.0000 C   0  0  0  0  0  0  0  0  0  0  0  0
   10.0535   -8.7216    0.0000 C   0  0  0  0  0  0  0  0  0  0  0  0
    7.1956  -11.1966    0.0000 O   0  0  0  0  0  0  0  0  0  0  0  0
    8.6246  -11.1966    0.0000 O   0  0  0  0  0  0  0  0  0  0  0  0
    8.6246   -8.7216    0.0000 O   0  0  0  0  0  0  0  0  0  0  0  0
    7.9101   -9.1341    0.0000 C   0  0  0  0  0  0  0  0  0  0  0  0
    7.1956   -8.7216    0.0000 C   0  0  0  0  0  0  0  0  0  0  0  0
    6.4812   -9.1341    0.0000 C   0  0  0  0  0  0  0  0  0  0  0  0
    6.4812   -9.9591    0.0000 C   0  0  0  0  0  0  0  0  0  0  0  0
    7.1956  -10.3716    0.0000 C   0  0  0  0  0  0  0  0  0  0  0  0
    7.9101   -9.9591    0.0000 C   0  0  0  0  0  0  0  0  0  0  0  0
    8.6246  -10.3716    0.0000 C   0  0  0  0  0  0  0  0  0  0  0  0
    9.3391   -9.9591    0.0000 C   0  0  0  0  0  0  0  0  0  0  0  0
    9.3391   -9.1341    0.0000 C   0  0  0  0  0  0  0  0  0  0  0  0
    5.7667   -8.7216    0.0000 O   0  0  0  0  0  0  0  0  0  0  0  0
    2.9088  -10.3716    0.0000 O   0  0  0  0  0  0  0  0  0  0  0  0
    4.3378  -11.1966    0.0000 O   0  0  0  0  0  0  0  0  0  0  0  0
    5.7667  -10.3716    0.0000 O   0  0  0  0  0  0  0  0  0  0  0  0
    2.1944   -9.1341    0.0000 O   0  0  0  0  0  0  0  0  0  0  0  0
    2.9088   -7.8966    0.0000 O   0  0  0  0  0  0  0  0  0  0  0  0
    2.9088   -8.7216    0.0000 C   0  0  0  0  0  0  0  0  0  0  0  0
    5.0522   -9.1341    0.0000 C   0  0  1  0  0  0  0  0  0  0  0  0
    5.0522   -9.9591    0.0000 C   0  0  1  0  0  0  0  0  0  0  0  0
    4.3378  -10.3716    0.0000 C   0  0  2  0  0  0  0  0  0  0  0  0
    3.6233   -9.9591    0.0000 C   0  0  1  0  0  0  0  0  0  0  0  0
    3.6233   -9.1341    0.0000 C   0  0  2  0  0  0  0  0  0  0  0  0
    4.3378   -8.7216    0.0000 O   0  0  0  0  0  0  0  0  0  0  0  0
 28 21  1  1  0  0  0
 21 14  1  0  0  0  0
 20  8  1  0  0  0  0
  6  1  1  0  0  0  0
  5  2  1  0  0  0  0
  8  3  2  0  0  0  0
  4  3  1  0  0  0  0
  5  4  2  0  0  0  0
  6  5  1  0  0  0  0
  7  6  2  0  0  0  0
  8  7  1  0  0  0  0
 16  9  1  0  0  0  0
 18 10  2  0  0  0  0
 20 11  1  0  0  0  0
 12 11  1  0  0  0  0
 17 12  2  0  0  0  0
 13 12  1  0  0  0  0
 14 13  2  0  0  0  0
 15 14  1  0  0  0  0
 16 15  2  0  0  0  0
 17 16  1  0  0  0  0
 18 17  1  0  0  0  0
 19 18  1  0  0  0  0
 20 19  2  0  0  0  0
 31 22  1  6  0  0  0
 30 23  1  1  0  0  0
 29 24  1  6  0  0  0
 32 27  1  1  0  0  0
 27 25  1  0  0  0  0
 27 26  2  0  0  0  0
 33 28  1  0  0  0  0
 29 28  1  0  0  0  0
 30 29  1  0  0  0  0
 31 30  1  0  0  0  0
 32 31  1  0  0  0  0
 33 32  1  0  0  0  0
M  END
>  <cdx:fragmentId>
31

$$$$
