708615.cdx
  Mrv1902 05222410252D          

 34 35  0  0  0  0            999 V2000
    7.6255   -7.1930    0.0000 C   0  0  0  0  0  0  0  0  0  0  0  0
    6.9110   -6.7805    0.0000 C   0  0  0  0  0  0  0  0  0  0  0  0
    6.1965   -7.1930    0.0000 C   0  0  2  0  0  0  0  0  0  0  0  0
    5.4821   -6.7805    0.0000 C   0  0  1  0  0  0  0  0  0  0  0  0
    4.7676   -7.1930    0.0000 C   0  0  1  0  0  0  0  0  0  0  0  0
    4.0531   -6.7805    0.0000 C   0  0  0  0  0  0  0  0  0  0  0  0
    6.9110   -5.9555    0.0000 O   0  0  0  0  0  0  0  0  0  0  0  0
    3.3387   -7.1930    0.0000 O   0  0  0  0  0  0  0  0  0  0  0  0
    4.7676   -8.0180    0.0000 O   0  0  0  0  0  0  0  0  0  0  0  0
    5.4821   -5.9555    0.0000 O   0  0  0  0  0  0  0  0  0  0  0  0
    6.1965   -8.0180    0.0000 O   0  0  0  0  0  0  0  0  0  0  0  0
    8.3400   -6.7805    0.0000 O   0  0  0  0  0  0  0  0  0  0  0  0
    8.7189   -7.9467    0.0000 O   0  0  0  0  0  0  0  0  0  0  0  0
    9.0544   -7.1930    0.0000 C   0  0  2  0  0  0  0  0  0  0  0  0
    9.8749   -7.2792    0.0000 C   0  0  2  0  0  0  0  0  0  0  0  0
   10.0464   -8.0862    0.0000 C   0  0  1  0  0  0  0  0  0  0  0  0
    9.3320   -8.4987    0.0000 C   0  0  1  0  0  0  0  0  0  0  0  0
    9.2457   -9.3192    0.0000 C   0  0  0  0  0  0  0  0  0  0  0  0
    9.9132   -9.8041    0.0000 O   0  0  0  0  0  0  0  0  0  0  0  0
   10.8001   -8.4218    0.0000 O   0  0  0  0  0  0  0  0  0  0  0  0
   10.4269   -6.6661    0.0000 O   0  0  0  0  0  0  0  0  0  0  0  0
    9.0544   -6.3680    0.0000 C   0  0  0  0  0  0  0  0  0  0  0  0
    9.7689   -5.9555    0.0000 O   0  0  0  0  0  0  0  0  0  0  0  0
   10.1045   -4.3768    0.0000 O   0  0  0  0  0  0  0  0  0  0  0  0
    9.7689   -5.1305    0.0000 C   0  0  2  0  0  0  0  0  0  0  0  0
    8.9484   -5.0443    0.0000 C   0  0  2  0  0  0  0  0  0  0  0  0
    8.7769   -4.2373    0.0000 C   0  0  1  0  0  0  0  0  0  0  0  0
    9.4914   -3.8248    0.0000 C   0  0  1  0  0  0  0  0  0  0  0  0
    9.5776   -3.0043    0.0000 C   0  0  0  0  0  0  0  0  0  0  0  0
    8.8631   -2.5918    0.0000 O   0  0  0  0  0  0  0  0  0  0  0  0
   10.4834   -5.5430    0.0000 C   0  0  0  0  0  0  0  0  0  0  0  0
   11.1978   -5.1305    0.0000 O   0  0  0  0  0  0  0  0  0  0  0  0
    8.0232   -3.9017    0.0000 O   0  0  0  0  0  0  0  0  0  0  0  0
    8.3964   -5.6574    0.0000 O   0  0  0  0  0  0  0  0  0  0  0  0
  1  2  1  0  0  0  0
  2  3  1  0  0  0  0
  3  4  1  0  0  0  0
  4  5  1  0  0  0  0
  5  6  1  0  0  0  0
  2  7  2  0  0  0  0
  6  8  1  0  0  0  0
  5  9  1  6  0  0  0
  4 10  1  1  0  0  0
  3 11  1  1  0  0  0
 13 14  1  0  0  0  0
 14 15  1  0  0  0  0
 15 16  1  0  0  0  0
 16 17  1  0  0  0  0
 13 17  1  0  0  0  0
 18 19  1  0  0  0  0
 17 18  1  1  0  0  0
 16 20  1  6  0  0  0
 15 21  1  1  0  0  0
 24 25  1  0  0  0  0
 25 26  1  0  0  0  0
 26 27  1  0  0  0  0
 27 28  1  0  0  0  0
 24 28  1  0  0  0  0
 29 30  1  0  0  0  0
 28 29  1  1  0  0  0
 31 32  1  0  0  0  0
 25 31  1  6  0  0  0
 27 33  1  6  0  0  0
 26 34  1  1  0  0  0
 25 23  1  1  0  0  0
 22 23  1  0  0  0  0
 14 22  1  6  0  0  0
 14 12  1  1  0  0  0
  1 12  1  0  0  0  0
M  END
>  <cdx:groupId>
265902

>  <cdx:fragmentId>
265848

$$$$
