7095.cdx
  Mrv1902 05222410202D          

 12 13  0  0  0  0            999 V2000
    3.9080   -4.7644    0.0000 C   0  0  0  0  0  0  0  0  0  0  0  0
    3.9080   -5.5894    0.0000 C   0  0  0  0  0  0  0  0  0  0  0  0
    3.1935   -6.0019    0.0000 C   0  0  0  0  0  0  0  0  0  0  0  0
    2.4791   -5.5894    0.0000 C   0  0  0  0  0  0  0  0  0  0  0  0
    2.4791   -4.7644    0.0000 C   0  0  0  0  0  0  0  0  0  0  0  0
    3.1935   -4.3519    0.0000 C   0  0  0  0  0  0  0  0  0  0  0  0
    4.6225   -4.3519    0.0000 C   0  0  0  0  0  0  0  0  0  0  0  0
    4.6225   -3.5269    0.0000 C   0  0  0  0  0  0  0  0  0  0  0  0
    5.3370   -3.1144    0.0000 C   0  0  0  0  0  0  0  0  0  0  0  0
    6.0514   -3.5269    0.0000 C   0  0  0  0  0  0  0  0  0  0  0  0
    6.0514   -4.3519    0.0000 C   0  0  0  0  0  0  0  0  0  0  0  0
    5.3370   -4.7644    0.0000 C   0  0  0  0  0  0  0  0  0  0  0  0
  1  2  1  0  0  0  0
  2  3  2  0  0  0  0
  3  4  1  0  0  0  0
  4  5  2  0  0  0  0
  5  6  1  0  0  0  0
  1  6  2  0  0  0  0
  7  8  1  0  0  0  0
  8  9  2  0  0  0  0
  9 10  1  0  0  0  0
 10 11  2  0  0  0  0
 11 12  1  0  0  0  0
  7 12  2  0  0  0  0
  1  7  1  0  0  0  0
M  END
>  <cdx:groupId>
39

>  <cdx:fragmentId>
17

$$$$
