71.cdx
  Mrv1902 05222410202D          

 39 43  0  0  0  0            999 V2000
    5.8016   -7.9868    0.0000 C   0  0  0  0  0  0  0  0  0  0  0  0
    5.8016   -8.8118    0.0000 C   0  0  1  0  0  0  0  0  0  0  0  0
    6.5161   -9.2243    0.0000 C   0  0  0  0  0  0  0  0  0  0  0  0
    7.2306   -8.8118    0.0000 C   0  0  2  0  0  0  0  0  0  0  0  0
    7.2306   -7.9868    0.0000 C   0  0  2  0  0  0  0  0  0  0  0  0
    6.5161   -7.5743    0.0000 C   0  0  1  0  0  0  0  0  0  0  0  0
    7.9450   -9.2243    0.0000 C   0  0  0  0  0  0  0  0  0  0  0  0
    8.6595   -8.8118    0.0000 C   0  0  0  0  0  0  0  0  0  0  0  0
    8.6595   -7.9868    0.0000 C   0  0  2  0  0  0  0  0  0  0  0  0
    7.9450   -7.5743    0.0000 C   0  0  2  0  0  0  0  0  0  0  0  0
    9.3740   -7.5743    0.0000 C   0  0  2  0  0  0  0  0  0  0  0  0
    9.3740   -6.7493    0.0000 C   0  0  2  0  0  0  0  0  0  0  0  0
    8.6595   -6.3368    0.0000 C   0  0  0  0  0  0  0  0  0  0  0  0
    7.9450   -6.7493    0.0000 C   0  0  1  0  0  0  0  0  0  0  0  0
   10.1586   -7.8292    0.0000 C   0  0  0  0  0  0  0  0  0  0  0  0
   10.6435   -7.1618    0.0000 C   0  0  2  0  0  0  0  0  0  0  0  0
   10.1586   -6.4943    0.0000 C   0  0  2  0  0  0  0  0  0  0  0  0
   10.4135   -5.7097    0.0000 C   0  0  0  0  0  0  0  0  0  0  0  0
   11.2205   -5.5382    0.0000 C   0  0  0  0  0  0  0  0  0  0  0  0
    9.8615   -5.0966    0.0000 C   0  0  0  0  0  0  0  0  0  0  0  0
   11.4755   -4.7536    0.0000 C   0  0  0  0  0  0  0  0  0  0  0  0
   10.1165   -4.3120    0.0000 O   0  0  0  0  0  0  0  0  0  0  0  0
   10.9234   -4.1405    0.0000 C   0  0  0  0  0  0  0  0  0  0  0  0
   11.1784   -3.3558    0.0000 O   0  0  0  0  0  0  0  0  0  0  0  0
    5.0872   -9.2243    0.0000 O   0  0  0  0  0  0  0  0  0  0  0  0
    7.2306   -7.1618    0.0000 C   0  0  0  0  0  0  0  0  0  0  0  0
    7.2306   -9.6368    0.0000 H   0  0  0  0  0  0  0  0  0  0  0  0
    9.4602   -5.9288    0.0000 C   0  0  0  0  0  0  0  0  0  0  0  0
   11.4685   -7.1618    0.0000 H   0  0  0  0  0  0  0  0  0  0  0  0
    9.4602   -8.3947    0.0000 O   0  0  0  0  0  0  0  0  0  0  0  0
    7.2306   -6.3368    0.0000 O   0  0  0  0  0  0  0  0  0  0  0  0
    6.5161   -6.7493    0.0000 H   0  0  0  0  0  0  0  0  0  0  0  0
    4.3727   -8.8118    0.0000 C   0  0  0  0  0  0  0  0  0  0  0  0
    3.6582   -9.2243    0.0000 C   0  0  0  0  0  0  0  0  0  0  0  0
    4.3727   -7.9868    0.0000 O   0  0  0  0  0  0  0  0  0  0  0  0
    2.9437   -8.8118    0.0000 O   0  0  0  0  0  0  0  0  0  0  0  0
    3.6582  -10.0493    0.0000 O   0  0  0  0  0  0  0  0  0  0  0  0
    7.9450   -8.3993    0.0000 H   0  0  0  0  0  0  0  0  0  0  0  0
    8.6595   -7.1618    0.0000 H   0  0  0  0  0  0  0  0  0  0  0  0
  1  2  1  0  0  0  0
  2  3  1  0  0  0  0
  3  4  1  0  0  0  0
  4  5  1  0  0  0  0
  5  6  1  0  0  0  0
  6  1  1  0  0  0  0
  4  7  1  0  0  0  0
  7  8  1  0  0  0  0
  8  9  1  0  0  0  0
  9 10  1  0  0  0  0
 10  5  1  0  0  0  0
  9 11  1  0  0  0  0
 11 12  1  0  0  0  0
 12 13  1  0  0  0  0
 13 14  1  0  0  0  0
 14 10  1  0  0  0  0
 11 15  1  0  0  0  0
 15 16  1  0  0  0  0
 16 17  1  0  0  0  0
 17 12  1  0  0  0  0
 17 18  1  1  0  0  0
 18 19  1  0  0  0  0
 18 20  2  0  0  0  0
 19 21  2  0  0  0  0
 20 22  1  0  0  0  0
 21 23  1  0  0  0  0
 22 23  1  0  0  0  0
 23 24  2  0  0  0  0
  2 25  1  1  0  0  0
  5 26  1  1  0  0  0
  4 27  1  1  0  0  0
 12 28  1  1  0  0  0
 16 29  1  1  0  0  0
 11 30  1  1  0  0  0
 14 31  1  6  0  0  0
  6 32  1  1  0  0  0
 25 33  1  0  0  0  0
 33 34  1  0  0  0  0
 33 35  2  0  0  0  0
 34 36  1  0  0  0  0
 34 37  2  0  0  0  0
 10 38  1  6  0  0  0
  9 39  1  1  0  0  0
M  END
>  <cdx:fragmentId>
5

$$$$
