71001.cdx
  Mrv1902 05222410262D          

 19 21  0  0  0  0            999 V2000
    7.9205   -7.3700    0.0000 C   0  0  0  0  0  0  0  0  0  0  0  0
    7.9205   -8.1950    0.0000 C   0  0  0  0  0  0  0  0  0  0  0  0
    8.6350   -8.6075    0.0000 C   0  0  0  0  0  0  0  0  0  0  0  0
    9.3495   -8.1950    0.0000 C   0  0  0  0  0  0  0  0  0  0  0  0
    9.3495   -7.3700    0.0000 C   0  0  0  0  0  0  0  0  0  0  0  0
    8.6350   -6.9575    0.0000 C   0  0  0  0  0  0  0  0  0  0  0  0
    7.1359   -7.1151    0.0000 C   0  0  0  0  0  0  0  0  0  0  0  0
    6.6510   -7.7825    0.0000 C   0  0  0  0  0  0  0  0  0  0  0  0
    7.1359   -8.4499    0.0000 C   0  0  1  0  0  0  0  0  0  0  0  0
    6.3289   -8.6215    0.0000 C   0  0  0  0  0  0  0  0  0  0  0  0
    6.0740   -9.4061    0.0000 C   0  0  0  0  0  0  0  0  0  0  0  0
    6.6260  -10.0192    0.0000 C   0  0  0  0  0  0  0  0  0  0  0  0
    7.4330   -9.8477    0.0000 C   0  0  0  0  0  0  0  0  0  0  0  0
    7.6879   -9.0630    0.0000 C   0  0  0  0  0  0  0  0  0  0  0  0
    5.7769   -8.0084    0.0000 O   0  0  0  0  0  0  0  0  0  0  0  0
    7.9850  -10.4607    0.0000 O   0  0  0  0  0  0  0  0  0  0  0  0
    5.2670   -9.5776    0.0000 O   0  0  0  0  0  0  0  0  0  0  0  0
    4.7150   -8.9645    0.0000 C   0  0  0  0  0  0  0  0  0  0  0  0
    8.6350   -9.4325    0.0000 O   0  0  0  0  0  0  0  0  0  0  0  0
  1  2  2  0  0  0  0
  2  3  1  0  0  0  0
  3  4  2  0  0  0  0
  4  5  1  0  0  0  0
  5  6  2  0  0  0  0
  6  1  1  0  0  0  0
  1  7  1  0  0  0  0
  7  8  1  0  0  0  0
  9  8  1  1  0  0  0
  9  2  1  0  0  0  0
  9 10  1  0  0  0  0
 10 11  1  0  0  0  0
 11 12  2  0  0  0  0
 12 13  1  0  0  0  0
 13 14  1  0  0  0  0
 14  9  1  0  0  0  0
 10 15  2  0  0  0  0
 13 16  2  0  0  0  0
 11 17  1  0  0  0  0
 17 18  1  0  0  0  0
  3 19  1  0  0  0  0
M  END
>  <cdx:fragmentId>
106

$$$$
