71002.cdx
  Mrv1902 05222410262D          

 19 21  0  0  0  0            999 V2000
    5.4333   -9.4325    0.0000 O   0  0  0  0  0  0  0  0  0  0  0  0
    9.3533   -8.9645    0.0000 C   0  0  0  0  0  0  0  0  0  0  0  0
    8.8012   -9.5776    0.0000 O   0  0  0  0  0  0  0  0  0  0  0  0
    6.0832  -10.4607    0.0000 O   0  0  0  0  0  0  0  0  0  0  0  0
    8.2914   -8.0084    0.0000 O   0  0  0  0  0  0  0  0  0  0  0  0
    6.3803   -9.0630    0.0000 C   0  0  0  0  0  0  0  0  0  0  0  0
    6.6353   -9.8477    0.0000 C   0  0  0  0  0  0  0  0  0  0  0  0
    7.4422  -10.0192    0.0000 C   0  0  0  0  0  0  0  0  0  0  0  0
    7.9943   -9.4061    0.0000 C   0  0  0  0  0  0  0  0  0  0  0  0
    7.7393   -8.6215    0.0000 C   0  0  0  0  0  0  0  0  0  0  0  0
    6.9324   -8.4499    0.0000 C   0  0  2  0  0  0  0  0  0  0  0  0
    7.4173   -7.7825    0.0000 C   0  0  0  0  0  0  0  0  0  0  0  0
    6.9324   -7.1151    0.0000 C   0  0  0  0  0  0  0  0  0  0  0  0
    5.4333   -6.9575    0.0000 C   0  0  0  0  0  0  0  0  0  0  0  0
    4.7188   -7.3700    0.0000 C   0  0  0  0  0  0  0  0  0  0  0  0
    4.7188   -8.1950    0.0000 C   0  0  0  0  0  0  0  0  0  0  0  0
    5.4333   -8.6075    0.0000 C   0  0  0  0  0  0  0  0  0  0  0  0
    6.1477   -8.1950    0.0000 C   0  0  0  0  0  0  0  0  0  0  0  0
    6.1477   -7.3700    0.0000 C   0  0  0  0  0  0  0  0  0  0  0  0
 17  1  1  0  0  0  0
  3  2  1  0  0  0  0
  9  3  1  0  0  0  0
  7  4  2  0  0  0  0
 10  5  2  0  0  0  0
  6 11  1  0  0  0  0
  7  6  1  0  0  0  0
  8  7  1  0  0  0  0
  9  8  2  0  0  0  0
 10  9  1  0  0  0  0
 11 10  1  0  0  0  0
 11 18  1  0  0  0  0
 11 12  1  1  0  0  0
 13 12  1  0  0  0  0
 19 13  1  0  0  0  0
 14 19  1  0  0  0  0
 15 14  2  0  0  0  0
 16 15  1  0  0  0  0
 17 16  2  0  0  0  0
 18 17  1  0  0  0  0
 19 18  2  0  0  0  0
M  END
>  <cdx:fragmentId>
106

$$$$
