71029.cdx
  Mrv1902 05222410262D          

 34 38  0  0  0  0            999 V2000
    5.2524   -7.8764    0.0000 C   0  0  0  0  0  0  0  0  0  0  0  0
    4.5447   -8.3004    0.0000 C   0  0  0  0  0  0  0  0  0  0  0  0
    4.5581   -9.1253    0.0000 C   0  0  0  0  0  0  0  0  0  0  0  0
    5.2791   -9.5262    0.0000 C   0  0  0  0  0  0  0  0  0  0  0  0
    5.9868   -9.1022    0.0000 C   0  0  0  0  0  0  0  0  0  0  0  0
    6.7079   -9.5031    0.0000 C   0  0  0  0  0  0  0  0  0  0  0  0
    7.4156   -9.0791    0.0000 C   0  0  0  0  0  0  0  0  0  0  0  0
    7.4022   -8.2542    0.0000 C   0  0  2  0  0  0  0  0  0  0  0  0
    8.1099   -7.8302    0.0000 C   0  0  1  0  0  0  0  0  0  0  0  0
    8.8310   -8.2311    0.0000 C   0  0  0  0  0  0  0  0  0  0  0  0
    9.5387   -7.8071    0.0000 C   0  0  0  0  0  0  0  0  0  0  0  0
    9.5253   -6.9822    0.0000 C   0  0  1  0  0  0  0  0  0  0  0  0
   10.2331   -6.5582    0.0000 C   0  0  0  0  0  0  0  0  0  0  0  0
   10.2197   -5.7333    0.0000 C   0  0  0  0  0  0  0  0  0  0  0  0
    9.4987   -5.3324    0.0000 C   0  0  0  0  0  0  0  0  0  0  0  0
    8.7910   -5.7564    0.0000 C   0  0  0  0  0  0  0  0  0  0  0  0
    8.8043   -6.5813    0.0000 C   0  0  1  0  0  0  0  0  0  0  0  0
    8.0966   -7.0053    0.0000 C   0  0  2  0  0  0  0  0  0  0  0  0
    7.3755   -6.6044    0.0000 C   0  0  0  0  0  0  0  0  0  0  0  0
    6.6678   -7.0284    0.0000 C   0  0  0  0  0  0  0  0  0  0  0  0
    6.6812   -7.8533    0.0000 C   0  0  1  0  0  0  0  0  0  0  0  0
    5.9735   -8.2773    0.0000 C   0  0  2  0  0  0  0  0  0  0  0  0
    3.8504   -9.5493    0.0000 O   0  0  0  0  0  0  0  0  0  0  0  0
    6.6945   -8.6782    0.0000 C   0  0  0  0  0  0  0  0  0  0  0  0
    9.0747   -4.6247    0.0000 C   0  0  0  0  0  0  0  0  0  0  0  0
    9.8995   -4.6114    0.0000 C   0  0  0  0  0  0  0  0  0  0  0  0
    7.3889   -7.4293    0.0000 H   0  0  0  0  0  0  0  0  0  0  0  0
    5.7031  -10.2339    0.0000 C   0  0  0  0  0  0  0  0  0  0  0  0
    4.8782  -10.2473    0.0000 C   0  0  0  0  0  0  0  0  0  0  0  0
    8.8176   -7.4062    0.0000 H   0  0  0  0  0  0  0  0  0  0  0  0
    5.9601   -7.4524    0.0000 H   0  0  0  0  0  0  0  0  0  0  0  0
    8.0832   -6.1804    0.0000 C   0  0  0  0  0  0  0  0  0  0  0  0
    8.1233   -8.6551    0.0000 C   0  0  0  0  0  0  0  0  0  0  0  0
   10.2468   -7.3824    0.0000 C   0  0  0  0  0  0  0  0  0  0  0  0
  1  2  1  0  0  0  0
  2  3  1  0  0  0  0
  3  4  1  0  0  0  0
  4  5  1  0  0  0  0
  5  6  2  0  0  0  0
  6  7  1  0  0  0  0
  7  8  1  0  0  0  0
  8  9  1  0  0  0  0
  9 10  1  0  0  0  0
 10 11  1  0  0  0  0
 11 12  1  0  0  0  0
 12 13  1  0  0  0  0
 13 14  1  0  0  0  0
 14 15  1  0  0  0  0
 15 16  1  0  0  0  0
 16 17  1  0  0  0  0
 12 17  1  0  0  0  0
 17 18  1  0  0  0  0
  9 18  1  0  0  0  0
 18 19  1  0  0  0  0
 19 20  1  0  0  0  0
 20 21  1  0  0  0  0
  8 21  1  0  0  0  0
 21 22  1  0  0  0  0
  5 22  1  0  0  0  0
  1 22  1  0  0  0  0
  3 23  2  0  0  0  0
 21 24  1  1  0  0  0
 15 25  1  0  0  0  0
 15 26  1  0  0  0  0
  4 28  1  0  0  0  0
  4 29  1  0  0  0  0
 18 32  1  6  0  0  0
  9 33  1  1  0  0  0
 17 30  1  1  0  0  0
 12 34  1  1  0  0  0
  8 27  1  6  0  0  0
 22 31  1  6  0  0  0
M  END
>  <cdx:groupId>
38984

>  <cdx:fragmentId>
38884

$$$$
