710361.cdx
  Mrv1902 05222410262D          

 15 16  0  0  0  0            999 V2000
    5.4852   -7.3559    0.0000 C   0  0  0  0  0  0  0  0  0  0  0  0
    4.7708   -6.9434    0.0000 C   0  0  0  0  0  0  0  0  0  0  0  0
    4.7708   -6.1184    0.0000 C   0  0  0  0  0  0  0  0  0  0  0  0
    5.4852   -5.7059    0.0000 C   0  0  0  0  0  0  0  0  0  0  0  0
    6.1997   -6.1184    0.0000 C   0  0  0  0  0  0  0  0  0  0  0  0
    6.9142   -5.7059    0.0000 C   0  0  0  0  0  0  0  0  0  0  0  0
    7.6287   -6.1184    0.0000 C   0  0  0  0  0  0  0  0  0  0  0  0
    7.6287   -6.9434    0.0000 C   0  0  0  0  0  0  0  0  0  0  0  0
    6.9142   -7.3559    0.0000 C   0  0  0  0  0  0  0  0  0  0  0  0
    6.1997   -6.9434    0.0000 C   0  0  0  0  0  0  0  0  0  0  0  0
    8.3431   -8.1809    0.0000 C   0  0  0  0  0  0  0  0  0  0  0  0
    8.3431   -7.3559    0.0000 C   0  0  0  0  0  0  0  0  0  0  0  0
    9.0576   -6.9434    0.0000 C   0  0  0  0  0  0  0  0  0  0  0  0
    6.1997   -7.7684    0.0000 C   0  0  0  0  0  0  0  0  0  0  0  0
    5.4852   -8.1809    0.0000 C   0  0  0  0  0  0  0  0  0  0  0  0
  1  2  1  0  0  0  0
  2  3  1  0  0  0  0
  3  4  1  0  0  0  0
  4  5  2  0  0  0  0
  5  6  1  0  0  0  0
  6  7  2  0  0  0  0
  7  8  1  0  0  0  0
  8  9  1  0  0  0  0
  9 10  1  0  0  0  0
  1 10  1  0  0  0  0
  5 10  1  0  0  0  0
 11 12  2  0  0  0  0
 12 13  1  0  0  0  0
  8 12  1  0  0  0  0
 10 14  1  0  0  0  0
  1 15  1  0  0  0  0
M  END
>  <cdx:fragmentId>
215813

$$$$
