untitled.cdx
  Mrv1902 05222410212D          

 22 22  0  0  0  0            999 V2000
    6.6752   -1.6429    0.0000 C   0  0  0  0  0  0  0  0  0  0  0  0
    6.6752   -2.4679    0.0000 C   0  0  2  0  0  0  0  0  0  0  0  0
    7.3896   -2.8804    0.0000 C   0  0  0  0  0  0  0  0  0  0  0  0
    8.1041   -2.4679    0.0000 C   0  0  0  0  0  0  0  0  0  0  0  0
    8.8186   -2.8804    0.0000 C   0  0  0  0  0  0  0  0  0  0  0  0
    5.9607   -1.2304    0.0000 O   0  0  0  0  0  0  0  0  0  0  0  0
    7.3896   -1.2304    0.0000 O   0  0  0  0  0  0  0  0  0  0  0  0
    5.9607   -2.8804    0.0000 N   0  0  0  0  0  0  0  0  0  0  0  0
    5.2462   -2.4679    0.0000 C   0  0  0  0  0  0  0  0  0  0  0  0
    5.2462   -1.6429    0.0000 O   0  0  0  0  0  0  0  0  0  0  0  0
    4.5317   -2.8804    0.0000 O   0  0  0  0  0  0  0  0  0  0  0  0
    3.8173   -2.4679    0.0000 C   0  0  0  0  0  0  0  0  0  0  0  0
    3.1028   -2.8804    0.0000 C   0  0  0  0  0  0  0  0  0  0  0  0
    2.3883   -2.4679    0.0000 C   0  0  0  0  0  0  0  0  0  0  0  0
    1.6739   -2.8804    0.0000 C   0  0  0  0  0  0  0  0  0  0  0  0
    1.6739   -3.7054    0.0000 C   0  0  0  0  0  0  0  0  0  0  0  0
    2.3883   -4.1179    0.0000 C   0  0  0  0  0  0  0  0  0  0  0  0
    3.1028   -3.7054    0.0000 C   0  0  0  0  0  0  0  0  0  0  0  0
    9.5330   -2.4679    0.0000 N   0  0  0  0  0  0  0  0  0  0  0  0
   10.2475   -2.8804    0.0000 C   0  0  0  0  0  0  0  0  0  0  0  0
   10.2475   -3.7054    0.0000 N   0  0  0  0  0  0  0  0  0  0  0  0
   10.9620   -2.4679    0.0000 N   0  0  0  0  0  0  0  0  0  0  0  0
  2  1  1  6  0  0  0
  2  3  1  0  0  0  0
  3  4  1  0  0  0  0
  4  5  1  0  0  0  0
  1  6  2  0  0  0  0
  1  7  1  0  0  0  0
  9 10  2  0  0  0  0
 11 12  1  0  0  0  0
  9 11  1  0  0  0  0
 13 14  1  0  0  0  0
 14 15  2  0  0  0  0
 15 16  1  0  0  0  0
 16 17  2  0  0  0  0
 17 18  1  0  0  0  0
 13 18  2  0  0  0  0
 12 13  1  0  0  0  0
  8  9  1  0  0  0  0
  2  8  1  0  0  0  0
 20 21  1  0  0  0  0
 20 22  1  0  0  0  0
 19 20  2  0  0  0  0
  5 19  1  0  0  0  0
M  END
>  <cdx:groupId>
68

>  <cdx:fragmentId>
29

$$$$
