710638.cdx
  Mrv1902 05222410262D          

 16 16  0  0  0  0            999 V2000
    9.0474   -5.3426    0.0000 C   0  0  0  0  0  0  0  0  0  0  0  0
    7.0025  -11.5634    0.0000 C   0  0  0  0  0  0  0  0  0  0  0  0
    7.6841   -9.4898    0.0000 C   0  0  0  0  0  0  0  0  0  0  0  0
    7.6972  -10.3147    0.0000 C   0  0  0  0  0  0  0  0  0  0  0  0
    6.9894  -10.7385    0.0000 C   0  0  0  0  0  0  0  0  0  0  0  0
    6.2685  -10.3374    0.0000 C   0  0  0  0  0  0  0  0  0  0  0  0
    6.2554   -9.5125    0.0000 C   0  0  0  0  0  0  0  0  0  0  0  0
    6.9632   -9.0887    0.0000 C   0  0  0  0  0  0  0  0  0  0  0  0
    7.6055   -4.5404    0.0000 O   0  0  0  0  0  0  0  0  0  0  0  0
    6.2292   -7.8627    0.0000 C   0  0  0  0  0  0  0  0  0  0  0  0
    6.9501   -8.2638    0.0000 C   0  0  2  0  0  0  0  0  0  0  0  0
    7.6579   -7.8400    0.0000 C   0  0  0  0  0  0  0  0  0  0  0  0
    7.6448   -7.0151    0.0000 C   0  0  0  0  0  0  0  0  0  0  0  0
    8.3527   -6.5913    0.0000 C   0  0  0  0  0  0  0  0  0  0  0  0
    8.3396   -5.7664    0.0000 C   0  0  0  0  0  0  0  0  0  0  0  0
    7.6186   -5.3653    0.0000 C   0  0  0  0  0  0  0  0  0  0  0  0
 15  1  1  0  0  0  0
 11  8  1  0  0  0  0
  5  2  1  0  0  0  0
  8  3  1  0  0  0  0
  4  3  1  0  0  0  0
  5  4  2  0  0  0  0
  6  5  1  0  0  0  0
  7  6  1  0  0  0  0
  8  7  2  0  0  0  0
 16  9  1  0  0  0  0
 11 10  1  6  0  0  0
 12 11  1  0  0  0  0
 13 12  1  0  0  0  0
 14 13  1  0  0  0  0
 15 14  2  0  0  0  0
 16 15  1  0  0  0  0
M  END
>  <cdx:fragmentId>
215864

$$$$
