710641.cdx
  Mrv1902 05222410222D          

 18 18  0  0  0  0            999 V2000
   10.1962   -7.7825    0.0000 O   0  0  0  0  0  0  0  0  0  0  0  0
    6.6238   -4.8950    0.0000 O   0  0  0  0  0  0  0  0  0  0  0  0
    5.1949   -4.8950    0.0000 O   0  0  0  0  0  0  0  0  0  0  0  0
    5.9093   -5.3075    0.0000 C   0  0  0  0  0  0  0  0  0  0  0  0
    5.1949   -6.5450    0.0000 O   0  0  0  0  0  0  0  0  0  0  0  0
    7.3383   -6.9575    0.0000 O   0  0  0  0  0  0  0  0  0  0  0  0
    5.9093   -7.7825    0.0000 O   0  0  0  0  0  0  0  0  0  0  0  0
    7.3383   -7.7825    0.0000 O   0  0  0  0  0  0  0  0  0  0  0  0
    6.6238   -7.3700    0.0000 C   0  0  0  0  0  0  0  0  0  0  0  0
    5.9093   -6.1325    0.0000 C   0  0  1  0  0  0  0  0  0  0  0  0
    6.6238   -6.5450    0.0000 C   0  0  1  0  0  0  0  0  0  0  0  0
    7.3383   -6.1325    0.0000 C   0  0  0  0  0  0  0  0  0  0  0  0
    8.7672   -6.1325    0.0000 C   0  0  0  0  0  0  0  0  0  0  0  0
    8.0527   -6.5450    0.0000 C   0  0  0  0  0  0  0  0  0  0  0  0
    8.0527   -7.3700    0.0000 C   0  0  0  0  0  0  0  0  0  0  0  0
    8.7672   -7.7825    0.0000 C   0  0  0  0  0  0  0  0  0  0  0  0
    9.4817   -7.3700    0.0000 C   0  0  0  0  0  0  0  0  0  0  0  0
    9.4817   -6.5450    0.0000 C   0  0  0  0  0  0  0  0  0  0  0  0
 17  1  1  0  0  0  0
  4  2  2  0  0  0  0
  4  3  1  0  0  0  0
 10  4  1  0  0  0  0
 10  5  1  6  0  0  0
 11  6  1  1  0  0  0
  9  7  2  0  0  0  0
  9  8  1  0  0  0  0
 11  9  1  0  0  0  0
 11 10  1  0  0  0  0
 12 11  1  0  0  0  0
 14 12  1  0  0  0  0
 13 18  2  0  0  0  0
 14 13  1  0  0  0  0
 15 14  2  0  0  0  0
 16 15  1  0  0  0  0
 17 16  2  0  0  0  0
 18 17  1  0  0  0  0
M  END
>  <cdx:fragmentId>
607

$$$$
