6710676.cdx
  Mrv1902 05222410252D          

 19 21  0  0  0  0            999 V2000
    6.3501  -13.8753    0.0000 C   0  0  2  0  0  0  0  0  0  0  0  0
    7.1136  -14.1878    0.0000 C   0  0  0  0  0  0  0  0  0  0  0  0
    7.7661  -13.6829    0.0000 C   0  0  0  0  0  0  0  0  0  0  0  0
    8.5779  -13.8299    0.0000 C   0  0  1  0  0  0  0  0  0  0  0  0
    9.4025  -13.8048    0.0000 O   0  0  0  0  0  0  0  0  0  0  0  0
    8.9685  -13.1032    0.0000 C   0  0  2  0  0  0  0  0  0  0  0  0
    8.3981  -12.5071    0.0000 C   0  0  0  0  0  0  0  0  0  0  0  0
    7.6550  -12.8654    0.0000 C   0  0  0  0  0  0  0  0  0  0  0  0
    6.8915  -12.5529    0.0000 C   0  0  0  0  0  0  0  0  0  0  0  0
    6.2391  -13.0578    0.0000 C   0  0  1  0  0  0  0  0  0  0  0  0
    5.4216  -13.1689    0.0000 C   0  0  0  0  0  0  0  0  0  0  0  0
    5.5327  -13.9864    0.0000 C   0  0  0  0  0  0  0  0  0  0  0  0
    6.7804  -11.7354    0.0000 O   0  0  0  0  0  0  0  0  0  0  0  0
    5.4284  -14.8047    0.0000 C   0  0  0  0  0  0  0  0  0  0  0  0
    4.7718  -14.3052    0.0000 C   0  0  0  0  0  0  0  0  0  0  0  0
    8.5779  -14.6549    0.0000 C   0  0  0  0  0  0  0  0  0  0  0  0
    6.2459  -14.6937    0.0000 H   0  0  0  0  0  0  0  0  0  0  0  0
    9.6209  -12.5983    0.0000 H   0  0  0  0  0  0  0  0  0  0  0  0
    5.9202  -12.2969    0.0000 H   0  0  0  0  0  0  0  0  0  0  0  0
  1  2  1  0  0  0  0
  2  3  1  0  0  0  0
  3  4  1  0  0  0  0
  4  5  1  0  0  0  0
  5  6  1  0  0  0  0
  6  7  1  0  0  0  0
  7  8  1  0  0  0  0
  8  9  1  0  0  0  0
  9 10  1  0  0  0  0
 10 11  1  0  0  0  0
 11 12  1  0  0  0  0
  1 12  1  0  0  0  0
  1 10  1  0  0  0  0
  4  6  1  0  0  0  0
  9 13  2  0  0  0  0
 12 14  1  0  0  0  0
 12 15  1  0  0  0  0
  4 16  1  1  0  0  0
  1 17  1  6  0  0  0
  6 18  1  6  0  0  0
 10 19  1  1  0  0  0
M  END
>  <cdx:groupId>
26217

>  <cdx:fragmentId>
26161

$$$$
