6710642.cdx
  Mrv1902 05222410232D          

 32 37  0  0  0  0            999 V2000
    6.9544   -7.6725    0.0000 C   0  0  0  0  0  0  0  0  0  0  0  0
    7.6688   -7.2600    0.0000 C   0  0  2  0  0  0  0  0  0  0  0  0
    8.4535   -7.5149    0.0000 C   0  0  0  0  0  0  0  0  0  0  0  0
    8.9384   -6.8475    0.0000 C   0  0  2  0  0  0  0  0  0  0  0  0
    9.7230   -6.5925    0.0000 O   0  0  0  0  0  0  0  0  0  0  0  0
    9.7230   -5.7675    0.0000 C   0  0  2  0  0  0  0  0  0  0  0  0
    8.9384   -5.5126    0.0000 C   0  0  2  0  0  0  0  0  0  0  0  0
    8.4535   -6.1800    0.0000 C   0  0  0  0  0  0  0  0  0  0  0  0
    7.6688   -6.4350    0.0000 C   0  0  1  0  0  0  0  0  0  0  0  0
    6.9544   -6.0225    0.0000 C   0  0  0  0  0  0  0  0  0  0  0  0
    6.2399   -6.4350    0.0000 C   0  0  0  0  0  0  0  0  0  0  0  0
    6.2399   -7.2600    0.0000 C   0  0  0  0  0  0  0  0  0  0  0  0
    5.5254   -7.6725    0.0000 C   0  0  1  0  0  0  0  0  0  0  0  0
    4.8110   -7.2600    0.0000 C   0  0  0  0  0  0  0  0  0  0  0  0
    4.0965   -7.6725    0.0000 C   0  0  0  0  0  0  0  0  0  0  0  0
    4.0965   -8.4975    0.0000 C   0  0  1  0  0  0  0  0  0  0  0  0
    4.8110   -8.9100    0.0000 C   0  0  0  0  0  0  0  0  0  0  0  0
    5.5254   -8.4975    0.0000 C   0  0  0  0  0  0  0  0  0  0  0  0
    6.2399   -8.9100    0.0000 C   0  0  0  0  0  0  0  0  0  0  0  0
    6.9544   -8.4975    0.0000 C   0  0  0  0  0  0  0  0  0  0  0  0
    9.6368   -4.9471    0.0000 N   0  0  0  0  0  0  0  0  0  0  0  0
   10.4767   -6.1031    0.0000 C   0  0  0  0  0  0  0  0  0  0  0  0
   11.1441   -5.6182    0.0000 C   0  0  0  0  0  0  0  0  0  0  0  0
   11.0579   -4.7977    0.0000 C   0  0  2  0  0  0  0  0  0  0  0  0
   10.3042   -4.4621    0.0000 C   0  0  0  0  0  0  0  0  0  0  0  0
    3.3820   -8.9100    0.0000 O   0  0  0  0  0  0  0  0  0  0  0  0
    5.5254   -6.8475    0.0000 C   0  0  0  0  0  0  0  0  0  0  0  0
    7.7551   -5.6145    0.0000 C   0  0  0  0  0  0  0  0  0  0  0  0
    8.6835   -4.7280    0.0000 C   0  0  0  0  0  0  0  0  0  0  0  0
   11.7253   -4.3128    0.0000 C   0  0  0  0  0  0  0  0  0  0  0  0
    7.7551   -8.0805    0.0000 H   0  0  0  0  0  0  0  0  0  0  0  0
    9.4233   -7.5149    0.0000 H   0  0  0  0  0  0  0  0  0  0  0  0
  1  2  1  0  0  0  0
  2  3  1  0  0  0  0
  3  4  1  0  0  0  0
  4  5  1  0  0  0  0
  5  6  1  0  0  0  0
  6  7  1  0  0  0  0
  7  8  1  0  0  0  0
  8  9  1  0  0  0  0
  9 10  1  0  0  0  0
 10 11  1  0  0  0  0
 11 12  1  0  0  0  0
 12 13  1  0  0  0  0
 13 14  1  0  0  0  0
 14 15  1  0  0  0  0
 15 16  1  0  0  0  0
 16 17  1  0  0  0  0
 17 18  1  0  0  0  0
 18 19  2  0  0  0  0
 19 20  1  0  0  0  0
  1 20  1  0  0  0  0
  1 12  1  0  0  0  0
 13 18  1  0  0  0  0
  2  9  1  0  0  0  0
  4  8  1  0  0  0  0
 22 23  1  0  0  0  0
 23 24  1  0  0  0  0
 24 25  1  0  0  0  0
 21 25  1  0  0  0  0
  6 21  1  6  0  0  0
  6 22  1  1  0  0  0
 16 26  1  1  0  0  0
 13 27  1  1  0  0  0
  9 28  1  1  0  0  0
  7 29  1  6  0  0  0
 24 30  1  6  0  0  0
  2 31  1  6  0  0  0
  4 32  1  6  0  0  0
M  END
>  <cdx:groupId>
103

>  <cdx:fragmentId>
5

$$$$
