710776.cdx
  Mrv1902 05222410272D          

 38 43  0  0  0  0            999 V2000
    9.0914  -10.3474    0.0000 C   0  0  0  0  0  0  0  0  0  0  0  0
    9.8697  -10.0737    0.0000 C   0  0  0  0  0  0  0  0  0  0  0  0
    8.9393  -11.1582    0.0000 O   0  0  0  0  0  0  0  0  0  0  0  0
    8.4857   -9.7872    0.0000 O   0  0  0  0  0  0  0  0  0  0  0  0
    6.5933   -8.4715    0.0000 C   0  0  1  0  0  0  0  0  0  0  0  0
    5.8795   -8.8851    0.0000 C   0  0  1  0  0  0  0  0  0  0  0  0
    5.8782   -8.0601    0.0000 O   0  0  0  0  0  0  0  0  0  0  0  0
    5.1644   -8.4737    0.0000 C   0  0  2  0  0  0  0  0  0  0  0  0
    4.4505   -8.8873    0.0000 C   0  0  0  0  0  0  0  0  0  0  0  0
    4.4518   -9.7123    0.0000 O   0  0  0  0  0  0  0  0  0  0  0  0
    5.1670  -10.1237    0.0000 C   0  0  2  0  0  0  0  0  0  0  0  0
    5.8808   -9.7101    0.0000 C   0  0  2  0  0  0  0  0  0  0  0  0
    6.5959  -10.1215    0.0000 C   0  0  0  0  0  0  0  0  0  0  0  0
    7.3097   -9.7078    0.0000 C   0  0  0  0  0  0  0  0  0  0  0  0
    7.3084   -8.8828    0.0000 C   0  0  0  0  0  0  0  0  0  0  0  0
    8.0223   -8.4692    0.0000 C   0  0  1  0  0  0  0  0  0  0  0  0
    8.6681   -8.9826    0.0000 C   0  0  1  0  0  0  0  0  0  0  0  0
    9.4721   -8.7978    0.0000 C   0  0  0  0  0  0  0  0  0  0  0  0
    9.8289   -8.0539    0.0000 C   0  0  0  0  0  0  0  0  0  0  0  0
    9.4698   -7.3112    0.0000 O   0  0  0  0  0  0  0  0  0  0  0  0
    8.6652   -7.1288    0.0000 C   0  0  0  0  0  0  0  0  0  0  0  0
    8.0210   -7.6442    0.0000 C   0  0  0  0  0  0  0  0  0  0  0  0
    7.3058   -7.2328    0.0000 C   0  0  0  0  0  0  0  0  0  0  0  0
    6.5920   -7.6465    0.0000 C   0  0  0  0  0  0  0  0  0  0  0  0
    5.8769   -7.2351    0.0000 O   0  0  0  0  0  0  0  0  0  0  0  0
   10.6539   -8.0526    0.0000 O   0  0  0  0  0  0  0  0  0  0  0  0
    3.7354   -8.4759    0.0000 O   0  0  0  0  0  0  0  0  0  0  0  0
    8.1031   -6.5249    0.0000 C   0  0  0  0  0  0  0  0  0  0  0  0
    8.9071   -6.3401    0.0000 C   0  0  0  0  0  0  0  0  0  0  0  0
    8.0235   -9.2942    0.0000 C   0  0  0  0  0  0  0  0  0  0  0  0
    5.8821  -10.5351    0.0000 C   0  0  0  0  0  0  0  0  0  0  0  0
    6.5946   -9.2965    0.0000 C   0  0  0  0  0  0  0  0  0  0  0  0
    4.7577  -12.2189    0.0000 O   0  0  0  0  0  0  0  0  0  0  0  0
    4.5016  -11.4346    0.0000 C   0  0  0  0  0  0  0  0  0  0  0  0
    5.1682  -10.9487    0.0000 C   0  0  0  0  0  0  0  0  0  0  0  0
    5.8364  -11.4326    0.0000 C   0  0  0  0  0  0  0  0  0  0  0  0
    5.5827  -12.2176    0.0000 C   0  0  0  0  0  0  0  0  0  0  0  0
    4.7508   -7.7599    0.0000 H   0  0  0  0  0  0  0  0  0  0  0  0
  1  2  1  0  0  0  0
  1  3  2  0  0  0  0
  1  4  1  0  0  0  0
  5  6  1  0  0  0  0
  6  7  1  1  0  0  0
  7  8  1  0  0  0  0
  8  9  1  0  0  0  0
  9 10  1  0  0  0  0
 10 11  1  0  0  0  0
 11 12  1  0  0  0  0
 12 13  1  0  0  0  0
 13 14  1  0  0  0  0
 14 15  1  0  0  0  0
 15 16  1  0  0  0  0
 16 17  1  0  0  0  0
 17 18  1  0  0  0  0
 18 19  1  0  0  0  0
 19 20  1  0  0  0  0
 20 21  1  0  0  0  0
 21 22  1  0  0  0  0
 22 23  1  0  0  0  0
 23 24  1  0  0  0  0
  5 24  1  0  0  0  0
  5 15  1  0  0  0  0
 16 22  1  0  0  0  0
  6 12  1  0  0  0  0
  6  8  1  0  0  0  0
 24 25  2  0  0  0  0
 19 26  2  0  0  0  0
  9 27  2  0  0  0  0
 21 28  1  0  0  0  0
 21 29  1  0  0  0  0
 16 30  1  1  0  0  0
 12 31  1  6  0  0  0
  5 32  1  1  0  0  0
 33 34  1  0  0  0  0
 34 35  2  0  0  0  0
 35 36  1  0  0  0  0
 36 37  2  0  0  0  0
 33 37  1  0  0  0  0
 11 35  1  6  0  0  0
 17  4  1  1  0  0  0
  8 38  1  6  0  0  0
M  END
>  <cdx:fragmentId>
13

$$$$
