710865.cdx
  Mrv1902 05222410232D          

 38 40  0  0  0  0            999 V2000
    6.8985   -5.4114    0.0000 C   0  0  0  0  0  0  0  0  0  0  0  0
    7.6130   -5.8239    0.0000 C   0  0  0  0  0  0  0  0  0  0  0  0
    7.6130   -6.6489    0.0000 C   0  0  2  0  0  0  0  0  0  0  0  0
    6.8985   -7.0614    0.0000 C   0  0  0  0  0  0  0  0  0  0  0  0
    6.1840   -6.6489    0.0000 C   0  0  1  0  0  0  0  0  0  0  0  0
    6.1840   -5.8239    0.0000 C   0  0  0  0  0  0  0  0  0  0  0  0
    5.4696   -7.0614    0.0000 O   0  0  0  0  0  0  0  0  0  0  0  0
    4.7551   -6.6489    0.0000 C   0  0  0  0  0  0  0  0  0  0  0  0
    4.0406   -7.0614    0.0000 C   0  0  0  0  0  0  0  0  0  0  0  0
    3.3261   -6.6489    0.0000 C   0  0  0  0  0  0  0  0  0  0  0  0
    4.7551   -5.8239    0.0000 O   0  0  0  0  0  0  0  0  0  0  0  0
    2.6117   -7.0614    0.0000 C   0  0  0  0  0  0  0  0  0  0  0  0
    1.8972   -6.6489    0.0000 C   0  0  0  0  0  0  0  0  0  0  0  0
    1.1827   -7.0614    0.0000 C   0  0  0  0  0  0  0  0  0  0  0  0
    1.1827   -7.8864    0.0000 C   0  0  0  0  0  0  0  0  0  0  0  0
    1.8972   -8.2989    0.0000 C   0  0  0  0  0  0  0  0  0  0  0  0
    2.6117   -7.8864    0.0000 C   0  0  0  0  0  0  0  0  0  0  0  0
    0.4683   -6.6489    0.0000 O   0  0  0  0  0  0  0  0  0  0  0  0
    0.4683   -8.2989    0.0000 O   0  0  0  0  0  0  0  0  0  0  0  0
    6.8985   -7.8864    0.0000 O   0  0  0  0  0  0  0  0  0  0  0  0
    8.3274   -7.0614    0.0000 O   0  0  0  0  0  0  0  0  0  0  0  0
    9.0419   -6.6489    0.0000 C   0  0  0  0  0  0  0  0  0  0  0  0
    9.7564   -7.0614    0.0000 C   0  0  0  0  0  0  0  0  0  0  0  0
   10.4709   -6.6489    0.0000 C   0  0  0  0  0  0  0  0  0  0  0  0
    9.0419   -5.8239    0.0000 O   0  0  0  0  0  0  0  0  0  0  0  0
   11.1853   -7.0614    0.0000 C   0  0  0  0  0  0  0  0  0  0  0  0
   11.8998   -6.6489    0.0000 C   0  0  0  0  0  0  0  0  0  0  0  0
   12.6143   -7.0614    0.0000 C   0  0  0  0  0  0  0  0  0  0  0  0
   12.6143   -7.8864    0.0000 C   0  0  0  0  0  0  0  0  0  0  0  0
   11.8998   -8.2989    0.0000 C   0  0  0  0  0  0  0  0  0  0  0  0
   11.1853   -7.8864    0.0000 C   0  0  0  0  0  0  0  0  0  0  0  0
   13.3287   -8.2989    0.0000 O   0  0  0  0  0  0  0  0  0  0  0  0
   13.3287   -6.6489    0.0000 O   0  0  0  0  0  0  0  0  0  0  0  0
    6.4860   -4.6970    0.0000 O   0  0  0  0  0  0  0  0  0  0  0  0
    7.3110   -4.6970    0.0000 C   0  0  0  0  0  0  0  0  0  0  0  0
    6.8985   -3.9825    0.0000 O   0  0  0  0  0  0  0  0  0  0  0  0
    8.1360   -4.6970    0.0000 O   0  0  0  0  0  0  0  0  0  0  0  0
   14.0432   -7.0614    0.0000 C   0  0  0  0  0  0  0  0  0  0  0  0
  1  2  1  0  0  0  0
  2  3  1  0  0  0  0
  3  4  1  0  0  0  0
  4  5  1  0  0  0  0
  5  6  1  0  0  0  0
  1  6  1  0  0  0  0
  8  9  1  0  0  0  0
  9 10  2  0  0  0  0
  8 11  2  0  0  0  0
 12 13  1  0  0  0  0
 13 14  2  0  0  0  0
 14 15  1  0  0  0  0
 15 16  2  0  0  0  0
 16 17  1  0  0  0  0
 12 17  2  0  0  0  0
 14 18  1  0  0  0  0
 15 19  1  0  0  0  0
 10 12  1  0  0  0  0
  7  8  1  0  0  0  0
  5  7  1  6  0  0  0
  4 20  1  0  0  0  0
 22 23  1  0  0  0  0
 23 24  2  0  0  0  0
 22 25  2  0  0  0  0
 26 27  1  0  0  0  0
 27 28  2  0  0  0  0
 28 29  1  0  0  0  0
 29 30  2  0  0  0  0
 30 31  1  0  0  0  0
 26 31  2  0  0  0  0
 29 32  1  0  0  0  0
 28 33  1  0  0  0  0
 24 26  1  0  0  0  0
 21 22  1  0  0  0  0
  3 21  1  1  0  0  0
  1 34  1  0  0  0  0
  1 35  1  0  0  0  0
 35 36  2  0  0  0  0
 35 37  1  0  0  0  0
 33 38  1  0  0  0  0
M  END
>  <cdx:fragmentId>
266063

$$$$
