7112.cdx
  Mrv1902 05222410252D          

 29 34  0  0  0  0            999 V2000
    3.3445   -7.8994    0.0000 C   0  0  0  0  0  0  0  0  0  0  0  0
    3.3445   -8.7244    0.0000 C   0  0  0  0  0  0  0  0  0  0  0  0
    4.0590   -9.1369    0.0000 C   0  0  0  0  0  0  0  0  0  0  0  0
    4.7735   -8.7244    0.0000 C   0  0  0  0  0  0  0  0  0  0  0  0
    4.7735   -7.8994    0.0000 C   0  0  0  0  0  0  0  0  0  0  0  0
    4.0590   -7.4869    0.0000 C   0  0  0  0  0  0  0  0  0  0  0  0
    5.4879   -9.1369    0.0000 C   0  0  0  0  0  0  0  0  0  0  0  0
    6.2024   -8.7244    0.0000 N   0  0  0  0  0  0  0  0  0  0  0  0
    6.2024   -7.8994    0.0000 C   0  0  1  0  0  0  0  0  0  0  0  0
    5.4879   -7.4869    0.0000 C   0  0  2  0  0  0  0  0  0  0  0  0
    6.9169   -7.4869    0.0000 C   0  0  0  0  0  0  0  0  0  0  0  0
    6.9169   -6.6619    0.0000 C   0  0  0  0  0  0  0  0  0  0  0  0
    6.2024   -6.2494    0.0000 C   0  0  0  0  0  0  0  0  0  0  0  0
    5.4879   -6.6619    0.0000 C   0  0  2  0  0  0  0  0  0  0  0  0
    7.6314   -7.8994    0.0000 C   0  0  0  0  0  0  0  0  0  0  0  0
    8.3458   -7.4869    0.0000 C   0  0  0  0  0  0  0  0  0  0  0  0
    8.3458   -6.6619    0.0000 C   0  0  0  0  0  0  0  0  0  0  0  0
    7.6314   -6.2494    0.0000 C   0  0  0  0  0  0  0  0  0  0  0  0
    9.1304   -7.7418    0.0000 O   0  0  0  0  0  0  0  0  0  0  0  0
    9.6154   -7.0744    0.0000 C   0  0  0  0  0  0  0  0  0  0  0  0
    9.1304   -6.4069    0.0000 O   0  0  0  0  0  0  0  0  0  0  0  0
    2.7314   -9.2764    0.0000 O   0  0  0  0  0  0  0  0  0  0  0  0
    3.0670  -10.0301    0.0000 C   0  0  0  0  0  0  0  0  0  0  0  0
    3.8875   -9.9438    0.0000 O   0  0  0  0  0  0  0  0  0  0  0  0
    5.4879   -9.9619    0.0000 O   0  0  0  0  0  0  0  0  0  0  0  0
    6.9169   -9.1369    0.0000 C   0  0  0  0  0  0  0  0  0  0  0  0
    4.7735   -6.2494    0.0000 O   0  0  0  0  0  0  0  0  0  0  0  0
    4.7735   -7.0744    0.0000 C   0  0  0  0  0  0  0  0  0  0  0  0
    6.9169   -8.3119    0.0000 H   0  0  0  0  0  0  0  0  0  0  0  0
  1  2  2  0  0  0  0
  2  3  1  0  0  0  0
  3  4  2  0  0  0  0
  4  5  1  0  0  0  0
  5  6  2  0  0  0  0
  6  1  1  0  0  0  0
  4  7  1  0  0  0  0
  7  8  1  0  0  0  0
  8  9  1  0  0  0  0
  9 10  1  0  0  0  0
 10  5  1  0  0  0  0
  9 11  1  0  0  0  0
 11 12  2  0  0  0  0
 12 13  1  0  0  0  0
 13 14  1  0  0  0  0
 14 10  1  0  0  0  0
 11 15  1  0  0  0  0
 15 16  2  0  0  0  0
 16 17  1  0  0  0  0
 17 18  2  0  0  0  0
 18 12  1  0  0  0  0
 16 19  1  0  0  0  0
 19 20  1  0  0  0  0
 20 21  1  0  0  0  0
 21 17  1  0  0  0  0
  2 22  1  0  0  0  0
 22 23  1  0  0  0  0
 23 24  1  0  0  0  0
 24  3  1  0  0  0  0
  7 25  2  0  0  0  0
  8 26  1  0  0  0  0
 14 27  1  1  0  0  0
 10 28  1  6  0  0  0
  9 29  1  6  0  0  0
M  END
>  <cdx:fragmentId>
5

$$$$
