71151.cdx
  Mrv1902 05222410192D          

 17 18  0  0  0  0            999 V2000
    7.3329   -6.3478    0.0000 O   0  0  0  0  0  0  0  0  0  0  0  0
    8.0492   -6.7571    0.0000 C   0  0  0  0  0  0  0  0  0  0  0  0
    8.7618   -6.3414    0.0000 C   0  0  0  0  0  0  0  0  0  0  0  0
    8.7581   -5.5164    0.0000 C   0  0  0  0  0  0  0  0  0  0  0  0
    9.4707   -5.1007    0.0000 C   0  0  0  0  0  0  0  0  0  0  0  0
   10.1870   -5.5100    0.0000 C   0  0  0  0  0  0  0  0  0  0  0  0
   10.1907   -6.3350    0.0000 C   0  0  0  0  0  0  0  0  0  0  0  0
    9.4781   -6.7507    0.0000 C   0  0  0  0  0  0  0  0  0  0  0  0
   10.8996   -5.0943    0.0000 O   0  0  0  0  0  0  0  0  0  0  0  0
    6.6203   -6.7635    0.0000 C   0  0  0  0  0  0  0  0  0  0  0  0
    5.9039   -6.3542    0.0000 C   0  0  2  0  0  0  0  0  0  0  0  0
    6.6240   -7.5885    0.0000 O   0  0  0  0  0  0  0  0  0  0  0  0
    5.8140   -5.5342    0.0000 C   0  0  0  0  0  0  0  0  0  0  0  0
    5.0063   -5.3663    0.0000 C   0  0  0  0  0  0  0  0  0  0  0  0
    4.5970   -6.0826    0.0000 C   0  0  0  0  0  0  0  0  0  0  0  0
    5.1518   -6.6932    0.0000 N   0  0  0  0  0  0  0  0  0  0  0  0
    3.7769   -6.1725    0.0000 O   0  0  0  0  0  0  0  0  0  0  0  0
  2  3  1  0  0  0  0
  3  4  1  0  0  0  0
  4  5  2  0  0  0  0
  5  6  1  0  0  0  0
  6  7  2  0  0  0  0
  7  8  1  0  0  0  0
  3  8  2  0  0  0  0
  6  9  1  0  0  0  0
  1  2  1  0  0  0  0
  1 10  1  0  0  0  0
 11 10  1  1  0  0  0
 10 12  2  0  0  0  0
 11 13  1  0  0  0  0
 13 14  1  0  0  0  0
 14 15  1  0  0  0  0
 15 16  1  0  0  0  0
 16 11  1  0  0  0  0
 15 17  2  0  0  0  0
M  END
>  <cdx:fragmentId>
39

$$$$
