101711554.cdx
  Mrv1902 05222410252D          

 67 74  0  0  0  0            999 V2000
   13.4557   -8.8200    0.0000 O   0  0  0  0  0  0  0  0  0  0  0  0
   12.9037   -9.4331    0.0000 C   0  0  2  0  0  0  0  0  0  0  0  0
   12.1500   -9.0975    0.0000 C   0  0  0  0  0  0  0  0  0  0  0  0
   12.2363   -8.2771    0.0000 C   0  0  0  0  0  0  0  0  0  0  0  0
   13.0432   -8.1055    0.0000 C   0  0  0  0  0  0  0  0  0  0  0  0
   11.4356   -9.5100    0.0000 O   0  0  0  0  0  0  0  0  0  0  0  0
   14.1936   -7.2228    0.0000 C   0  0  0  0  0  0  0  0  0  0  0  0
   13.3788   -7.3519    0.0000 C   0  0  0  0  0  0  0  0  0  0  0  0
   12.8939   -6.6844    0.0000 C   0  0  0  0  0  0  0  0  0  0  0  0
   13.4557  -10.0462    0.0000 C   0  0  0  0  0  0  0  0  0  0  0  0
    9.0063  -11.2977    0.0000 C   0  0  0  0  0  0  0  0  0  0  0  0
    8.2918  -11.7102    0.0000 C   0  0  0  0  0  0  0  0  0  0  0  0
    8.2918  -12.5352    0.0000 C   0  0  2  0  0  0  0  0  0  0  0  0
    9.0063  -12.9477    0.0000 C   0  0  0  0  0  0  0  0  0  0  0  0
    9.7207  -12.5352    0.0000 C   0  0  0  0  0  0  0  0  0  0  0  0
   10.4352  -12.9477    0.0000 C   0  0  0  0  0  0  0  0  0  0  0  0
   11.1497  -12.5352    0.0000 C   0  0  0  0  0  0  0  0  0  0  0  0
   11.1497  -11.7102    0.0000 C   0  0  1  0  0  0  0  0  0  0  0  0
   11.8641  -11.2977    0.0000 C   0  0  2  0  0  0  0  0  0  0  0  0
   12.6488  -11.5526    0.0000 C   0  0  0  0  0  0  0  0  0  0  0  0
   13.1337  -10.8852    0.0000 C   0  0  2  0  0  0  0  0  0  0  0  0
   12.6488  -10.2177    0.0000 C   0  0  1  0  0  0  0  0  0  0  0  0
   11.8641  -10.4727    0.0000 C   0  0  1  0  0  0  0  0  0  0  0  0
   11.1497  -10.0602    0.0000 C   0  0  0  0  0  0  0  0  0  0  0  0
   10.4352  -10.4727    0.0000 C   0  0  0  0  0  0  0  0  0  0  0  0
   10.4352  -11.2977    0.0000 C   0  0  1  0  0  0  0  0  0  0  0  0
    9.7207  -11.7102    0.0000 C   0  0  1  0  0  0  0  0  0  0  0  0
    9.7207  -10.0602    0.0000 O   0  0  0  0  0  0  0  0  0  0  0  0
   11.8641  -12.1227    0.0000 C   0  0  0  0  0  0  0  0  0  0  0  0
   11.9504   -9.6522    0.0000 C   0  0  0  0  0  0  0  0  0  0  0  0
   10.4352  -12.1227    0.0000 C   0  0  0  0  0  0  0  0  0  0  0  0
    9.4188  -13.6621    0.0000 C   0  0  0  0  0  0  0  0  0  0  0  0
    8.5938  -13.6621    0.0000 C   0  0  0  0  0  0  0  0  0  0  0  0
   13.9587  -10.8852    0.0000 O   0  0  0  0  0  0  0  0  0  0  0  0
    7.5773  -12.9477    0.0000 O   0  0  0  0  0  0  0  0  0  0  0  0
    6.8628  -11.7102    0.0000 O   0  0  0  0  0  0  0  0  0  0  0  0
    6.8628  -12.5352    0.0000 C   0  0  2  0  0  0  0  0  0  0  0  0
    6.1484  -12.9477    0.0000 C   0  0  1  0  0  0  0  0  0  0  0  0
    5.4339  -12.5352    0.0000 C   0  0  2  0  0  0  0  0  0  0  0  0
    5.4339  -11.7102    0.0000 C   0  0  1  0  0  0  0  0  0  0  0  0
    6.1484  -11.2977    0.0000 C   0  0  0  0  0  0  0  0  0  0  0  0
    4.7194  -11.2977    0.0000 O   0  0  0  0  0  0  0  0  0  0  0  0
    6.1484  -13.7727    0.0000 O   0  0  0  0  0  0  0  0  0  0  0  0
    4.7194  -12.9477    0.0000 O   0  0  0  0  0  0  0  0  0  0  0  0
    4.0050  -11.7102    0.0000 O   0  0  0  0  0  0  0  0  0  0  0  0
    4.0050  -12.5352    0.0000 C   0  0  2  0  0  0  0  0  0  0  0  0
    3.2905  -12.9477    0.0000 C   0  0  1  0  0  0  0  0  0  0  0  0
    2.5760  -12.5352    0.0000 C   0  0  2  0  0  0  0  0  0  0  0  0
    2.5760  -11.7102    0.0000 C   0  0  1  0  0  0  0  0  0  0  0  0
    3.2905  -11.2977    0.0000 C   0  0  1  0  0  0  0  0  0  0  0  0
    3.2905  -13.7727    0.0000 O   0  0  0  0  0  0  0  0  0  0  0  0
    1.8616  -13.7727    0.0000 O   0  0  0  0  0  0  0  0  0  0  0  0
    2.5760  -14.1852    0.0000 C   0  0  2  0  0  0  0  0  0  0  0  0
    2.5760  -15.0102    0.0000 C   0  0  1  0  0  0  0  0  0  0  0  0
    1.8616  -15.4227    0.0000 C   0  0  1  0  0  0  0  0  0  0  0  0
    1.1471  -15.0102    0.0000 C   0  0  2  0  0  0  0  0  0  0  0  0
    1.1471  -14.1852    0.0000 C   0  0  2  0  0  0  0  0  0  0  0  0
    0.4326  -13.7727    0.0000 C   0  0  0  0  0  0  0  0  0  0  0  0
    0.4326  -15.4227    0.0000 O   0  0  0  0  0  0  0  0  0  0  0  0
    1.8616  -16.2477    0.0000 O   0  0  0  0  0  0  0  0  0  0  0  0
    3.2905  -15.4227    0.0000 O   0  0  0  0  0  0  0  0  0  0  0  0
    3.2905  -10.4727    0.0000 C   0  0  0  0  0  0  0  0  0  0  0  0
    2.5760  -10.0602    0.0000 O   0  0  0  0  0  0  0  0  0  0  0  0
    1.8616  -11.2977    0.0000 O   0  0  0  0  0  0  0  0  0  0  0  0
    1.8616  -12.9477    0.0000 O   0  0  0  0  0  0  0  0  0  0  0  0
   11.1497  -10.8852    0.0000 H   0  0  0  0  0  0  0  0  0  0  0  0
    9.7207  -10.8852    0.0000 H   0  0  0  0  0  0  0  0  0  0  0  0
  1  2  1  0  0  0  0
  2  3  1  0  0  0  0
  3  4  1  0  0  0  0
  4  5  2  0  0  0  0
  1  5  1  0  0  0  0
  3  6  2  0  0  0  0
  7  8  1  0  0  0  0
  8  9  1  0  0  0  0
  5  8  1  0  0  0  0
  2 10  1  1  0  0  0
 11 12  1  0  0  0  0
 12 13  1  0  0  0  0
 13 14  1  0  0  0  0
 14 15  1  0  0  0  0
 15 16  2  0  0  0  0
 16 17  1  0  0  0  0
 17 18  1  0  0  0  0
 18 19  1  0  0  0  0
 19 20  1  0  0  0  0
 20 21  1  0  0  0  0
 21 22  1  0  0  0  0
 22 23  1  0  0  0  0
 19 23  1  0  0  0  0
 23 24  1  0  0  0  0
 24 25  1  0  0  0  0
 25 26  1  0  0  0  0
 18 26  1  0  0  0  0
 26 27  1  0  0  0  0
 15 27  1  0  0  0  0
 11 27  1  0  0  0  0
 25 28  2  0  0  0  0
 19 29  1  6  0  0  0
 23 30  1  1  0  0  0
 26 31  1  1  0  0  0
 14 32  1  0  0  0  0
 14 33  1  0  0  0  0
 21 34  1  6  0  0  0
 36 37  1  0  0  0  0
 37 38  1  0  0  0  0
 38 39  1  0  0  0  0
 39 40  1  0  0  0  0
 40 41  1  0  0  0  0
 36 41  1  0  0  0  0
 40 42  1  6  0  0  0
 38 43  1  6  0  0  0
 45 46  1  0  0  0  0
 46 47  1  0  0  0  0
 47 48  1  0  0  0  0
 48 49  1  0  0  0  0
 49 50  1  0  0  0  0
 45 50  1  0  0  0  0
 52 53  1  0  0  0  0
 53 54  1  0  0  0  0
 54 55  1  0  0  0  0
 55 56  1  0  0  0  0
 56 57  1  0  0  0  0
 52 57  1  0  0  0  0
 57 58  1  6  0  0  0
 56 59  1  1  0  0  0
 55 60  1  6  0  0  0
 54 61  1  6  0  0  0
 53 51  1  1  0  0  0
 47 51  1  6  0  0  0
 62 63  1  0  0  0  0
 50 62  1  1  0  0  0
 49 64  1  6  0  0  0
 48 65  1  1  0  0  0
 46 44  1  1  0  0  0
 39 44  1  1  0  0  0
 37 35  1  1  0  0  0
 13 35  1  6  0  0  0
 22  2  1  1  0  0  0
 18 66  1  1  0  0  0
 27 67  1  1  0  0  0
M  END
>  <cdx:groupId>
5426

>  <cdx:fragmentId>
5323

$$$$
