7116.cdx
  Mrv1902 05222410232D          

 26 29  0  0  0  0            999 V2000
    7.6827   -8.8132    0.0000 C   0  0  0  0  0  0  0  0  0  0  0  0
    7.6827   -7.9882    0.0000 C   0  0  0  0  0  0  0  0  0  0  0  0
    6.9682   -7.5757    0.0000 C   0  0  0  0  0  0  0  0  0  0  0  0
    6.2537   -7.9882    0.0000 C   0  0  0  0  0  0  0  0  0  0  0  0
    6.2537   -8.8132    0.0000 C   0  0  0  0  0  0  0  0  0  0  0  0
    6.9682   -9.2257    0.0000 C   0  0  0  0  0  0  0  0  0  0  0  0
    5.5393   -7.5757    0.0000 O   0  0  0  0  0  0  0  0  0  0  0  0
    4.8248   -7.9882    0.0000 C   0  0  0  0  0  0  0  0  0  0  0  0
    4.8248   -8.8132    0.0000 C   0  0  0  0  0  0  0  0  0  0  0  0
    5.5393   -9.2257    0.0000 C   0  0  0  0  0  0  0  0  0  0  0  0
    8.4673   -9.0682    0.0000 C   0  0  0  0  0  0  0  0  0  0  0  0
    8.9522   -8.4007    0.0000 C   0  0  0  0  0  0  0  0  0  0  0  0
    8.4673   -7.7333    0.0000 O   0  0  0  0  0  0  0  0  0  0  0  0
    4.1103   -7.5757    0.0000 O   0  0  0  0  0  0  0  0  0  0  0  0
    6.9682   -6.7507    0.0000 O   0  0  0  0  0  0  0  0  0  0  0  0
    9.1058   -6.3382    0.0000 C   0  0  2  0  0  0  0  0  0  0  0  0
    9.1058   -5.5132    0.0000 C   0  0  1  0  0  0  0  0  0  0  0  0
    8.3913   -5.1007    0.0000 C   0  0  1  0  0  0  0  0  0  0  0  0
    7.6769   -5.5132    0.0000 C   0  0  2  0  0  0  0  0  0  0  0  0
    7.6769   -6.3382    0.0000 C   0  0  1  0  0  0  0  0  0  0  0  0
    8.3913   -6.7507    0.0000 O   0  0  0  0  0  0  0  0  0  0  0  0
    9.8203   -6.7507    0.0000 C   0  0  0  0  0  0  0  0  0  0  0  0
    8.3913   -4.2757    0.0000 O   0  0  0  0  0  0  0  0  0  0  0  0
    6.9624   -5.1007    0.0000 O   0  0  0  0  0  0  0  0  0  0  0  0
    9.8203   -5.1007    0.0000 O   0  0  0  0  0  0  0  0  0  0  0  0
   10.5347   -6.3382    0.0000 O   0  0  0  0  0  0  0  0  0  0  0  0
  1  2  2  0  0  0  0
  2  3  1  0  0  0  0
  3  4  2  0  0  0  0
  4  5  1  0  0  0  0
  5  6  2  0  0  0  0
  6  1  1  0  0  0  0
  4  7  1  0  0  0  0
  7  8  1  0  0  0  0
  8  9  1  0  0  0  0
  9 10  2  0  0  0  0
 10  5  1  0  0  0  0
  1 11  1  0  0  0  0
 11 12  2  0  0  0  0
 12 13  1  0  0  0  0
 13  2  1  0  0  0  0
  8 14  2  0  0  0  0
  3 15  1  0  0  0  0
 16 17  1  0  0  0  0
 17 18  1  0  0  0  0
 18 19  1  0  0  0  0
 19 20  1  0  0  0  0
 20 21  1  0  0  0  0
 21 16  1  0  0  0  0
 16 22  1  1  0  0  0
 18 23  1  1  0  0  0
 19 24  1  6  0  0  0
 17 25  1  1  0  0  0
 22 26  1  0  0  0  0
 20 15  1  1  0  0  0
M  END
>  <cdx:fragmentId>
5

$$$$
