91711829.cdx
  Mrv1902 05222410232D          

 15 18  0  0  0  0            999 V2000
    8.0311  -14.4705    0.0000 C   0  0  0  0  0  0  0  0  0  0  0  0
    7.3166  -14.0580    0.0000 C   0  0  0  0  0  0  0  0  0  0  0  0
    6.6022  -14.4705    0.0000 C   0  0  0  0  0  0  0  0  0  0  0  0
    5.8877  -14.8830    0.0000 C   0  0  0  0  0  0  0  0  0  0  0  0
    6.6022  -15.2955    0.0000 C   0  0  0  0  0  0  0  0  0  0  0  0
    7.3166  -15.7080    0.0000 C   0  0  0  0  0  0  0  0  0  0  0  0
    8.0311  -15.2955    0.0000 C   0  0  0  0  0  0  0  0  0  0  0  0
    8.7456  -15.7080    0.0000 C   0  0  0  0  0  0  0  0  0  0  0  0
    9.4601  -15.2955    0.0000 C   0  0  0  0  0  0  0  0  0  0  0  0
    9.4601  -14.4705    0.0000 C   0  0  0  0  0  0  0  0  0  0  0  0
    8.7456  -14.0580    0.0000 C   0  0  0  0  0  0  0  0  0  0  0  0
    8.7456  -13.2330    0.0000 C   0  0  0  0  0  0  0  0  0  0  0  0
    8.7456  -16.5330    0.0000 C   0  0  0  0  0  0  0  0  0  0  0  0
    7.3166  -14.8830    0.0000 C   0  0  0  0  0  0  0  0  0  0  0  0
    5.0627  -14.8830    0.0000 C   0  0  0  0  0  0  0  0  0  0  0  0
  1  2  1  0  0  0  0
  2  3  1  0  0  0  0
  3  4  1  0  0  0  0
  4  5  1  0  0  0  0
  5  6  1  0  0  0  0
  6  7  1  0  0  0  0
  7  8  1  0  0  0  0
  8  9  1  0  0  0  0
  9 10  1  0  0  0  0
 10 11  1  0  0  0  0
  1 11  1  0  0  0  0
  1  7  1  0  0  0  0
  4  8  1  0  0  0  0
  3  5  1  0  0  0  0
 11 12  1  0  0  0  0
  8 13  1  0  0  0  0
  7 14  1  0  0  0  0
  4 15  1  0  0  0  0
M  END
>  <cdx:groupId>
215961

>  <cdx:fragmentId>
215916

$$$$
