1711942.cdx
  Mrv1902 05222410212D          

 19 18  0  0  0  0            999 V2000
   10.9974   -9.6717    0.0000 C   0  0  0  0  0  0  0  0  0  0  0  0
   10.2829   -9.2592    0.0000 C   0  0  0  0  0  0  0  0  0  0  0  0
   10.2829   -8.4342    0.0000 C   0  0  0  0  0  0  0  0  0  0  0  0
    9.5684   -8.0217    0.0000 C   0  0  0  0  0  0  0  0  0  0  0  0
    9.5684   -7.1967    0.0000 C   0  0  0  0  0  0  0  0  0  0  0  0
    8.8539   -6.7842    0.0000 C   0  0  0  0  0  0  0  0  0  0  0  0
    8.1395   -7.1967    0.0000 C   0  0  0  0  0  0  0  0  0  0  0  0
    7.4250   -6.7842    0.0000 C   0  0  0  0  0  0  0  0  0  0  0  0
    6.7105   -7.1967    0.0000 C   0  0  0  0  0  0  0  0  0  0  0  0
    5.9961   -6.7842    0.0000 C   0  0  0  0  0  0  0  0  0  0  0  0
    5.9961   -5.9592    0.0000 C   0  0  0  0  0  0  0  0  0  0  0  0
    5.2816   -5.5467    0.0000 C   0  0  0  0  0  0  0  0  0  0  0  0
    5.2816   -4.7217    0.0000 C   0  0  0  0  0  0  0  0  0  0  0  0
    4.5671   -4.3092    0.0000 C   0  0  0  0  0  0  0  0  0  0  0  0
    3.8526   -4.7217    0.0000 C   0  0  0  0  0  0  0  0  0  0  0  0
    9.5684   -9.6717    0.0000 O   0  0  0  0  0  0  0  0  0  0  0  0
    4.5671   -3.4842    0.0000 C   0  0  0  0  0  0  0  0  0  0  0  0
    5.2816   -7.1967    0.0000 C   0  0  0  0  0  0  0  0  0  0  0  0
    8.8539   -5.9592    0.0000 C   0  0  0  0  0  0  0  0  0  0  0  0
  1  2  1  0  0  0  0
  2  3  1  0  0  0  0
  3  4  1  0  0  0  0
  4  5  1  0  0  0  0
  5  6  2  0  0  0  0
  6  7  1  0  0  0  0
  7  8  1  0  0  0  0
  8  9  1  0  0  0  0
  9 10  2  0  0  0  0
 10 11  1  0  0  0  0
 11 12  1  0  0  0  0
 12 13  1  0  0  0  0
 13 14  2  0  0  0  0
 14 15  1  0  0  0  0
  2 16  2  0  0  0  0
 14 17  1  0  0  0  0
 10 18  1  0  0  0  0
  6 19  1  0  0  0  0
M  END
>  <cdx:groupId>
58

>  <cdx:fragmentId>
5

$$$$
