7121.cdx
  Mrv1902 05222410212D          

 13 13  0  0  0  0            999 V2000
    5.1528   -2.1321    0.0000 C   0  0  0  0  0  0  0  0  0  0  0  0
    4.4384   -2.5446    0.0000 C   0  0  0  0  0  0  0  0  0  0  0  0
    3.7239   -2.1321    0.0000 C   0  0  0  0  0  0  0  0  0  0  0  0
    3.0094   -2.5446    0.0000 C   0  0  0  0  0  0  0  0  0  0  0  0
    3.0094   -3.3696    0.0000 C   0  0  0  0  0  0  0  0  0  0  0  0
    3.7239   -3.7821    0.0000 C   0  0  0  0  0  0  0  0  0  0  0  0
    4.4384   -3.3696    0.0000 C   0  0  0  0  0  0  0  0  0  0  0  0
    5.1528   -1.3071    0.0000 O   0  0  0  0  0  0  0  0  0  0  0  0
    5.8673   -2.5446    0.0000 O   0  0  0  0  0  0  0  0  0  0  0  0
    2.2949   -3.7821    0.0000 O   0  0  0  0  0  0  0  0  0  0  0  0
    1.5805   -3.3696    0.0000 C   0  0  0  0  0  0  0  0  0  0  0  0
    2.2949   -2.1321    0.0000 O   0  0  0  0  0  0  0  0  0  0  0  0
    1.5805   -2.5446    0.0000 C   0  0  0  0  0  0  0  0  0  0  0  0
  1  2  1  0  0  0  0
  2  3  1  0  0  0  0
  3  4  2  0  0  0  0
  4  5  1  0  0  0  0
  5  6  2  0  0  0  0
  6  7  1  0  0  0  0
  2  7  2  0  0  0  0
  1  8  2  0  0  0  0
  1  9  1  0  0  0  0
 10 11  1  0  0  0  0
  5 10  1  0  0  0  0
 12 13  1  0  0  0  0
  4 12  1  0  0  0  0
M  END
>  <cdx:groupId>
41

>  <cdx:fragmentId>
5

$$$$
