7122.cdx
  Mrv1902 05222410202D          

 13 14  0  0  0  0            999 V2000
    8.6539   -4.1660    0.0000 C   0  0  0  0  0  0  0  0  0  0  0  0
    9.3684   -4.5785    0.0000 C   0  0  0  0  0  0  0  0  0  0  0  0
    7.2249   -4.1660    0.0000 C   0  0  0  0  0  0  0  0  0  0  0  0
    7.9394   -4.5785    0.0000 C   0  0  0  0  0  0  0  0  0  0  0  0
    7.9394   -5.4035    0.0000 C   0  0  0  0  0  0  0  0  0  0  0  0
    7.2249   -5.8160    0.0000 C   0  0  0  0  0  0  0  0  0  0  0  0
    6.5105   -5.4035    0.0000 C   0  0  0  0  0  0  0  0  0  0  0  0
    5.7960   -5.8160    0.0000 C   0  0  0  0  0  0  0  0  0  0  0  0
    5.0815   -5.4035    0.0000 C   0  0  0  0  0  0  0  0  0  0  0  0
    5.0815   -4.5785    0.0000 C   0  0  0  0  0  0  0  0  0  0  0  0
    5.7960   -4.1660    0.0000 C   0  0  0  0  0  0  0  0  0  0  0  0
    6.5105   -4.5785    0.0000 C   0  0  0  0  0  0  0  0  0  0  0  0
    8.6539   -3.3410    0.0000 O   0  0  0  0  0  0  0  0  0  0  0  0
  1  2  1  0  0  0  0
  3  4  1  0  0  0  0
  4  5  2  0  0  0  0
  5  6  1  0  0  0  0
  6  7  2  0  0  0  0
  7  8  1  0  0  0  0
  8  9  2  0  0  0  0
  9 10  1  0  0  0  0
 10 11  2  0  0  0  0
 11 12  1  0  0  0  0
  3 12  2  0  0  0  0
  7 12  1  0  0  0  0
  1  4  1  0  0  0  0
  1 13  2  0  0  0  0
M  END
>  <cdx:fragmentId>
9

$$$$
