712276.cdx
  Mrv1902 05222410262D          

  7  6  0  0  0  0            999 V2000
    9.2437   -8.9220    0.0000 C   0  0  0  0  0  0  0  0  0  0  0  0
    8.5276   -9.3318    0.0000 C   0  0  0  0  0  0  0  0  0  0  0  0
    7.8147   -8.9165    0.0000 C   0  0  0  0  0  0  0  0  0  0  0  0
    7.0987   -9.3263    0.0000 S   0  0  0  0  0  0  0  0  0  0  0  0
    6.3858   -8.9110    0.0000 S   0  0  0  0  0  0  0  0  0  0  0  0
    5.6698   -9.3208    0.0000 C   0  0  0  0  0  0  0  0  0  0  0  0
    7.0955  -10.1513    0.0000 O   0  0  0  0  0  0  0  0  0  0  0  0
  1  2  2  0  0  0  0
  2  3  1  0  0  0  0
  5  6  1  0  0  0  0
  4  5  1  0  0  0  0
  3  4  1  0  0  0  0
  4  7  2  0  0  0  0
M  END
>  <cdx:groupId>
126373

>  <cdx:fragmentId>
126364

$$$$
