6712226.cdx
  Mrv1902 05222410192D          

 42 50  0  0  0  0            999 V2000
    7.0850   -6.5448    0.0000 C   0  0  0  0  0  0  0  0  0  0  0  0
    6.5017   -7.1282    0.0000 C   0  0  0  0  0  0  0  0  0  0  0  0
    5.7872   -6.7157    0.0000 C   0  0  0  0  0  0  0  0  0  0  0  0
    5.0727   -7.1282    0.0000 C   0  0  1  0  0  0  0  0  0  0  0  0
    4.3583   -7.5407    0.0000 O   0  0  0  0  0  0  0  0  0  0  0  0
    5.0727   -7.9532    0.0000 C   0  0  2  0  0  0  0  0  0  0  0  0
    4.3583   -8.3657    0.0000 C   0  0  0  0  0  0  0  0  0  0  0  0
    4.3583   -9.1907    0.0000 C   0  0  0  0  0  0  0  0  0  0  0  0
    5.0727   -9.6032    0.0000 C   0  0  0  0  0  0  0  0  0  0  0  0
    5.7872   -9.1907    0.0000 C   0  0  0  0  0  0  0  0  0  0  0  0
    5.7872   -8.3657    0.0000 C   0  0  2  0  0  0  0  0  0  0  0  0
    6.5017   -7.9532    0.0000 C   0  0  0  0  0  0  0  0  0  0  0  0
    7.0850   -8.5366    0.0000 C   0  0  0  0  0  0  0  0  0  0  0  0
    7.9100   -8.5366    0.0000 C   0  0  0  0  0  0  0  0  0  0  0  0
    8.4934   -7.9532    0.0000 C   0  0  2  0  0  0  0  0  0  0  0  0
    9.2780   -8.2081    0.0000 C   0  0  0  0  0  0  0  0  0  0  0  0
    9.7629   -7.5407    0.0000 O   0  0  0  0  0  0  0  0  0  0  0  0
    9.2780   -6.8733    0.0000 C   0  0  0  0  0  0  0  0  0  0  0  0
    8.4934   -7.1282    0.0000 C   0  0  0  0  0  0  0  0  0  0  0  0
    8.1977   -6.3580    0.0000 C   0  0  2  0  0  0  0  0  0  0  0  0
    8.4614   -5.5763    0.0000 C   0  0  2  0  0  0  0  0  0  0  0  0
    9.2806   -5.4788    0.0000 C   0  0  0  0  0  0  0  0  0  0  0  0
    9.7204   -6.1768    0.0000 C   0  0  1  0  0  0  0  0  0  0  0  0
    9.8306   -5.1313    0.0000 O   0  0  0  0  0  0  0  0  0  0  0  0
    8.9926   -4.4955    0.0000 C   0  0  0  0  0  0  0  0  0  0  0  0
    8.0146   -4.8827    0.0000 C   0  0  2  0  0  0  0  0  0  0  0  0
    7.1938   -4.7996    0.0000 C   0  0  0  0  0  0  0  0  0  0  0  0
    6.6171   -5.3896    0.0000 O   0  0  0  0  0  0  0  0  0  0  0  0
    7.9100   -6.5448    0.0000 O   0  0  0  0  0  0  0  0  0  0  0  0
    7.4222   -6.6393    0.0000 C   0  0  0  0  0  0  0  0  0  0  0  0
    6.5017   -9.6032    0.0000 O   0  0  0  0  0  0  0  0  0  0  0  0
    9.5330   -8.9928    0.0000 O   0  0  0  0  0  0  0  0  0  0  0  0
    9.1045   -3.6782    0.0000 O   0  0  0  0  0  0  0  0  0  0  0  0
    7.4222   -7.4643    0.0000 O   0  0  0  0  0  0  0  0  0  0  0  0
    8.7708   -5.0404    0.0000 C   0  0  0  0  0  0  0  0  0  0  0  0
   10.1030   -6.8733    0.0000 C   0  0  0  0  0  0  0  0  0  0  0  0
    6.5017   -8.7782    0.0000 C   0  0  0  0  0  0  0  0  0  0  0  0
    8.6860   -8.7554    0.0000 O   0  0  0  0  0  0  0  0  0  0  0  0
    4.6602   -6.4137    0.0000 H   0  0  0  0  0  0  0  0  0  0  0  0
    7.6078   -5.7813    0.0000 H   0  0  0  0  0  0  0  0  0  0  0  0
   10.4994   -6.4484    0.0000 H   0  0  0  0  0  0  0  0  0  0  0  0
    7.9011   -4.0656    0.0000 H   0  0  0  0  0  0  0  0  0  0  0  0
  1  2  1  0  0  0  0
  2  3  1  0  0  0  0
  3  4  1  0  0  0  0
  4  5  1  0  0  0  0
  6  5  1  6  0  0  0
  6  7  1  0  0  0  0
  7  8  1  0  0  0  0
  8  9  2  0  0  0  0
  9 10  1  0  0  0  0
 10 11  1  0  0  0  0
 11 12  1  0  0  0  0
 12 13  1  0  0  0  0
 13 14  1  0  0  0  0
 14 15  1  0  0  0  0
 15 16  1  0  0  0  0
 16 17  1  0  0  0  0
 17 18  1  0  0  0  0
 18 19  1  0  0  0  0
 19 20  1  0  0  0  0
 20 21  1  0  0  0  0
 21 22  1  0  0  0  0
 23 22  1  6  0  0  0
 23 24  1  0  0  0  0
 24 25  1  0  0  0  0
 25 26  1  0  0  0  0
 26 27  1  0  0  0  0
 27 28  1  0  0  0  0
  1 28  1  0  0  0  0
  1 29  1  0  0  0  0
 29 19  1  0  0  0  0
 21 26  1  0  0  0  0
 18 23  1  0  0  0  0
 20 30  1  0  0  0  0
 30  1  1  0  0  0  0
 15 19  1  0  0  0  0
  2 12  1  0  0  0  0
  6 11  1  0  0  0  0
  4  6  1  0  0  0  0
 10 31  2  0  0  0  0
 16 32  2  0  0  0  0
 25 33  2  0  0  0  0
 30 34  2  0  0  0  0
 21 35  1  6  0  0  0
 18 36  1  0  0  0  0
 11 37  1  6  0  0  0
 15 38  1  6  0  0  0
  4 39  1  1  0  0  0
 20 40  1  6  0  0  0
 23 41  1  0  0  0  0
 26 42  1  6  0  0  0
M  END
>  <cdx:groupId>
136

>  <cdx:fragmentId>
5

$$$$
