712624.cdx
  Mrv1902 05222410202D          

 18 20  0  0  0  0            999 V2000
    9.3388   -6.2972    0.0000 C   0  0  0  0  0  0  0  0  0  0  0  0
    9.3464   -7.1222    0.0000 C   0  0  0  0  0  0  0  0  0  0  0  0
    8.5642   -7.3843    0.0000 C   0  0  0  0  0  0  0  0  0  0  0  0
    8.0731   -6.7214    0.0000 C   0  0  0  0  0  0  0  0  0  0  0  0
    8.5519   -6.0495    0.0000 O   0  0  0  0  0  0  0  0  0  0  0  0
    7.5343   -7.6084    0.0000 C   0  0  0  0  0  0  0  0  0  0  0  0
    6.8388  -10.5024    0.0000 C   0  0  0  0  0  0  0  0  0  0  0  0
    5.4023   -9.6906    0.0000 O   0  0  0  0  0  0  0  0  0  0  0  0
    8.5909  -10.2883    0.0000 O   0  0  0  0  0  0  0  0  0  0  0  0
    6.8312   -9.6774    0.0000 C   0  0  0  0  0  0  0  0  0  0  0  0
    6.1130   -9.2715    0.0000 C   0  0  0  0  0  0  0  0  0  0  0  0
    6.1054   -8.4466    0.0000 C   0  0  0  0  0  0  0  0  0  0  0  0
    6.8160   -8.0275    0.0000 C   0  0  0  0  0  0  0  0  0  0  0  0
    8.3165   -8.1712    0.0000 C   0  0  1  0  0  0  0  0  0  0  0  0
    7.5343   -8.4334    0.0000 C   0  0  2  0  0  0  0  0  0  0  0  0
    7.5418   -9.2584    0.0000 C   0  0  0  0  0  0  0  0  0  0  0  0
    8.3288   -9.5061    0.0000 C   0  0  0  0  0  0  0  0  0  0  0  0
    8.8075   -8.8342    0.0000 O   0  0  0  0  0  0  0  0  0  0  0  0
 14  3  1  6  0  0  0
  5  1  1  0  0  0  0
  2  1  2  0  0  0  0
  3  2  1  0  0  0  0
  4  3  2  0  0  0  0
  5  4  1  0  0  0  0
 15  6  1  6  0  0  0
 10  7  1  0  0  0  0
 11  8  2  0  0  0  0
 17  9  2  0  0  0  0
 13 15  1  0  0  0  0
 10 16  2  0  0  0  0
 11 10  1  0  0  0  0
 12 11  1  0  0  0  0
 13 12  1  0  0  0  0
 18 14  1  0  0  0  0
 15 14  1  0  0  0  0
 16 15  1  0  0  0  0
 17 16  1  0  0  0  0
 18 17  1  0  0  0  0
M  END
>  <cdx:fragmentId>
26415

$$$$
