712607.cdx
  Mrv1902 05222410272D          

 27 32  0  0  0  0            999 V2000
   10.1422   -5.9192    0.0000 C   0  0  0  0  0  0  0  0  0  0  0  0
    6.5727   -6.6848    0.0000 C   0  0  0  0  0  0  0  0  0  0  0  0
    6.2495   -9.4594    0.0000 C   0  0  0  0  0  0  0  0  0  0  0  0
    5.4245   -9.4531    0.0000 C   0  0  0  0  0  0  0  0  0  0  0  0
    9.4247   -4.2740    0.0000 O   0  0  0  0  0  0  0  0  0  0  0  0
    7.9890   -8.3458    0.0000 C   0  0  0  0  0  0  0  0  0  0  0  0
    7.2714   -8.7528    0.0000 C   0  0  0  0  0  0  0  0  0  0  0  0
    6.5601   -8.3348    0.0000 C   0  0  2  0  0  0  0  0  0  0  0  0
    5.8425   -8.7418    0.0000 C   0  0  0  0  0  0  0  0  0  0  0  0
    5.1312   -8.3238    0.0000 C   0  0  0  0  0  0  0  0  0  0  0  0
    5.1375   -7.4989    0.0000 C   0  0  0  0  0  0  0  0  0  0  0  0
    5.8551   -7.0919    0.0000 C   0  0  0  0  0  0  0  0  0  0  0  0
    6.5664   -7.5098    0.0000 C   0  0  2  0  0  0  0  0  0  0  0  0
    7.2840   -7.1028    0.0000 C   0  0  2  0  0  0  0  0  0  0  0  0
    7.2903   -6.2778    0.0000 C   0  0  2  0  0  0  0  0  0  0  0  0
    8.0079   -5.8708    0.0000 C   0  0  2  0  0  0  0  0  0  0  0  0
    8.1857   -5.0652    0.0000 O   0  0  0  0  0  0  0  0  0  0  0  0
    9.0068   -4.9852    0.0000 C   0  0  0  0  0  0  0  0  0  0  0  0
    9.3365   -5.7415    0.0000 C   0  0  0  0  0  0  0  0  0  0  0  0
    8.7192   -6.2888    0.0000 C   0  0  0  0  0  0  0  0  0  0  0  0
    8.7129   -7.1138    0.0000 C   0  0  1  0  0  0  0  0  0  0  0  0
    8.7066   -7.9387    0.0000 O   0  0  0  0  0  0  0  0  0  0  0  0
    7.9953   -7.5208    0.0000 C   0  0  2  0  0  0  0  0  0  0  0  0
    6.5537   -9.1598    0.0000 H   0  0  0  0  0  0  0  0  0  0  0  0
    7.2777   -7.9278    0.0000 H   0  0  0  0  0  0  0  0  0  0  0  0
    7.2875   -5.3900    0.0000 O   0  0  0  0  0  0  0  0  0  0  0  0
   10.6989   -5.3103    0.0000 O   0  0  0  0  0  0  0  0  0  0  0  0
 19  1  1  0  0  0  0
 13  2  1  6  0  0  0
  9  3  1  0  0  0  0
  9  4  1  0  0  0  0
 18  5  2  0  0  0  0
 23 21  1  0  0  0  0
 20 16  1  0  0  0  0
 13  8  1  0  0  0  0
 23 14  1  0  0  0  0
 23  6  1  0  0  0  0
  7  6  1  0  0  0  0
  8  7  1  0  0  0  0
  9  8  1  0  0  0  0
 10  9  1  0  0  0  0
 11 10  1  0  0  0  0
 12 11  1  0  0  0  0
 13 12  1  0  0  0  0
 14 13  1  0  0  0  0
 15 14  1  0  0  0  0
 16 15  1  0  0  0  0
 17 16  1  0  0  0  0
 18 17  1  0  0  0  0
 19 18  1  0  0  0  0
 20 19  2  0  0  0  0
 21 20  1  0  0  0  0
 21 22  1  1  0  0  0
 23 22  1  1  0  0  0
  8 24  1  1  0  0  0
 14 25  1  1  0  0  0
 16 26  1  1  0  0  0
 15 26  1  1  0  0  0
  1 27  1  0  0  0  0
M  END
>  <cdx:groupId>
7480

>  <cdx:fragmentId>
7481

$$$$
