53712654.cdx
  Mrv1902 05222410212D          

  8  7  0  0  0  0            999 V2000
    8.3021  -15.4938    0.0000 C   0  0  0  0  0  0  0  0  0  0  0  0
    7.5877  -15.0813    0.0000 C   0  0  0  0  0  0  0  0  0  0  0  0
    6.8732  -15.4938    0.0000 C   0  0  0  0  0  0  0  0  0  0  0  0
    6.1587  -15.0813    0.0000 C   0  0  0  0  0  0  0  0  0  0  0  0
    5.4443  -15.4938    0.0000 C   0  0  0  0  0  0  0  0  0  0  0  0
    9.0166  -15.0813    0.0000 O   0  0  0  0  0  0  0  0  0  0  0  0
    6.1587  -14.2563    0.0000 C   0  0  0  0  0  0  0  0  0  0  0  0
    7.5877  -14.2563    0.0000 C   0  0  0  0  0  0  0  0  0  0  0  0
  1  2  1  0  0  0  0
  2  3  2  0  0  0  0
  3  4  1  0  0  0  0
  4  5  1  0  0  0  0
  1  6  2  0  0  0  0
  4  7  1  0  0  0  0
  2  8  1  0  0  0  0
M  END
>  <cdx:groupId>
187789

>  <cdx:fragmentId>
187769

$$$$
