7127.cdx
  Mrv1902 05222410222D          

 13 13  0  0  0  0            999 V2000
    5.8542   -4.6414    0.0000 C   0  0  0  0  0  0  0  0  0  0  0  0
    5.8542   -5.4664    0.0000 C   0  0  0  0  0  0  0  0  0  0  0  0
    6.5686   -5.8789    0.0000 C   0  0  0  0  0  0  0  0  0  0  0  0
    7.2831   -5.4664    0.0000 C   0  0  0  0  0  0  0  0  0  0  0  0
    7.2831   -4.6414    0.0000 C   0  0  0  0  0  0  0  0  0  0  0  0
    6.5686   -4.2289    0.0000 C   0  0  0  0  0  0  0  0  0  0  0  0
    7.9976   -5.8789    0.0000 C   0  0  0  0  0  0  0  0  0  0  0  0
    8.7121   -5.4664    0.0000 C   0  0  0  0  0  0  0  0  0  0  0  0
    9.4265   -5.8789    0.0000 C   0  0  0  0  0  0  0  0  0  0  0  0
    5.1397   -5.8789    0.0000 O   0  0  0  0  0  0  0  0  0  0  0  0
    4.4252   -5.4664    0.0000 C   0  0  0  0  0  0  0  0  0  0  0  0
    5.1397   -4.2289    0.0000 O   0  0  0  0  0  0  0  0  0  0  0  0
    4.4252   -4.6414    0.0000 C   0  0  0  0  0  0  0  0  0  0  0  0
  1  2  1  0  0  0  0
  2  3  2  0  0  0  0
  3  4  1  0  0  0  0
  4  5  2  0  0  0  0
  5  6  1  0  0  0  0
  1  6  2  0  0  0  0
  7  8  1  0  0  0  0
  8  9  2  0  0  0  0
  4  7  1  0  0  0  0
 10 11  1  0  0  0  0
  2 10  1  0  0  0  0
 12 13  1  0  0  0  0
  1 12  1  0  0  0  0
M  END
>  <cdx:fragmentId>
5

$$$$
