7128.cdx
  Mrv1902 05222410242D          

 22 23  0  0  0  0            999 V2000
    8.0823   -5.5951    0.0000 C   0  0  0  0  0  0  0  0  0  0  0  0
    7.3643   -6.0013    0.0000 C   0  0  0  0  0  0  0  0  0  0  0  0
    7.3571   -6.8263    0.0000 C   0  0  0  0  0  0  0  0  0  0  0  0
    8.0679   -7.2450    0.0000 C   0  0  0  0  0  0  0  0  0  0  0  0
    8.7860   -6.8387    0.0000 C   0  0  0  0  0  0  0  0  0  0  0  0
    8.7932   -6.0138    0.0000 C   0  0  0  0  0  0  0  0  0  0  0  0
    8.0608   -8.0700    0.0000 C   0  0  0  0  0  0  0  0  0  0  0  0
    8.7716   -8.4887    0.0000 C   0  0  0  0  0  0  0  0  0  0  0  0
    8.7644   -9.3136    0.0000 C   0  0  0  0  0  0  0  0  0  0  0  0
    6.6534   -5.5826    0.0000 O   0  0  0  0  0  0  0  0  0  0  0  0
    8.0895   -4.7701    0.0000 O   0  0  0  0  0  0  0  0  0  0  0  0
    7.3786   -4.3514    0.0000 C   0  0  0  0  0  0  0  0  0  0  0  0
    5.9354   -5.9889    0.0000 C   0  0  0  0  0  0  0  0  0  0  0  0
    5.2282   -5.5640    0.0000 C   0  0  0  0  0  0  0  0  0  0  0  0
    4.5067   -5.9889    0.0000 C   0  0  0  0  0  0  0  0  0  0  0  0
    4.5067   -6.8138    0.0000 C   0  0  0  0  0  0  0  0  0  0  0  0
    5.2282   -7.2386    0.0000 C   0  0  0  0  0  0  0  0  0  0  0  0
    5.9354   -6.8138    0.0000 C   0  0  0  0  0  0  0  0  0  0  0  0
    5.2318   -4.7390    0.0000 C   0  0  0  0  0  0  0  0  0  0  0  0
    4.5192   -4.3234    0.0000 C   0  0  0  0  0  0  0  0  0  0  0  0
    5.9481   -4.3297    0.0000 C   0  0  0  0  0  0  0  0  0  0  0  0
    5.2318   -8.0636    0.0000 C   0  0  0  0  0  0  0  0  0  0  0  0
  1  2  1  0  0  0  0
  2  3  2  0  0  0  0
  3  4  1  0  0  0  0
  4  5  2  0  0  0  0
  5  6  1  0  0  0  0
  1  6  2  0  0  0  0
  7  8  1  0  0  0  0
  8  9  2  0  0  0  0
  4  7  1  0  0  0  0
  2 10  1  0  0  0  0
 11 12  1  0  0  0  0
  1 11  1  0  0  0  0
 10 13  1  0  0  0  0
 13 14  1  0  0  0  0
 14 15  1  0  0  0  0
 15 16  1  0  0  0  0
 16 17  1  0  0  0  0
 17 18  1  0  0  0  0
 18 13  1  0  0  0  0
 14 19  1  0  0  0  0
 19 20  1  0  0  0  0
 19 21  1  0  0  0  0
 17 22  1  0  0  0  0
M  END
>  <cdx:fragmentId>
5

$$$$
