101713109.cdx
  Mrv1902 05222410272D          

 28 30  0  0  0  0            999 V2000
    7.6499   -6.3800    0.0000 C   0  0  1  0  0  0  0  0  0  0  0  0
    8.3644   -5.9675    0.0000 C   0  0  0  0  0  0  0  0  0  0  0  0
    8.3644   -5.1425    0.0000 C   0  0  1  0  0  0  0  0  0  0  0  0
    7.6499   -4.7300    0.0000 C   0  0  0  0  0  0  0  0  0  0  0  0
    6.9354   -5.1425    0.0000 C   0  0  0  0  0  0  0  0  0  0  0  0
    6.9354   -5.9675    0.0000 O   0  0  0  0  0  0  0  0  0  0  0  0
    9.1490   -4.8876    0.0000 C   0  0  0  0  0  0  0  0  0  0  0  0
    9.6339   -5.5550    0.0000 C   0  0  1  0  0  0  0  0  0  0  0  0
    9.1490   -6.2224    0.0000 C   0  0  2  0  0  0  0  0  0  0  0  0
    7.6499   -3.9050    0.0000 C   0  0  0  0  0  0  0  0  0  0  0  0
    8.3644   -3.4925    0.0000 O   0  0  0  0  0  0  0  0  0  0  0  0
    6.9354   -3.4925    0.0000 O   0  0  0  0  0  0  0  0  0  0  0  0
    7.6499   -7.2050    0.0000 O   0  0  0  0  0  0  0  0  0  0  0  0
    6.2210   -7.2050    0.0000 O   0  0  0  0  0  0  0  0  0  0  0  0
    6.9354   -7.6175    0.0000 C   0  0  2  0  0  0  0  0  0  0  0  0
    6.9354   -8.4425    0.0000 C   0  0  1  0  0  0  0  0  0  0  0  0
    6.2210   -8.8550    0.0000 C   0  0  2  0  0  0  0  0  0  0  0  0
    5.5065   -8.4425    0.0000 C   0  0  1  0  0  0  0  0  0  0  0  0
    5.5065   -7.6175    0.0000 C   0  0  1  0  0  0  0  0  0  0  0  0
    4.7920   -7.2050    0.0000 C   0  0  0  0  0  0  0  0  0  0  0  0
    4.0776   -7.6175    0.0000 O   0  0  0  0  0  0  0  0  0  0  0  0
    4.7920   -8.8550    0.0000 O   0  0  0  0  0  0  0  0  0  0  0  0
    6.2210   -9.6800    0.0000 O   0  0  0  0  0  0  0  0  0  0  0  0
    7.6499   -8.8550    0.0000 O   0  0  0  0  0  0  0  0  0  0  0  0
    9.4040   -7.0071    0.0000 C   0  0  0  0  0  0  0  0  0  0  0  0
   10.4589   -5.5550    0.0000 O   0  0  0  0  0  0  0  0  0  0  0  0
    8.4506   -4.3220    0.0000 O   0  0  0  0  0  0  0  0  0  0  0  0
    6.9354   -2.6675    0.0000 C   0  0  0  0  0  0  0  0  0  0  0  0
  1  2  1  0  0  0  0
  2  3  1  0  0  0  0
  3  4  1  0  0  0  0
  4  5  2  0  0  0  0
  5  6  1  0  0  0  0
  1  6  1  0  0  0  0
  7  8  1  0  0  0  0
  8  9  1  0  0  0  0
  9  2  1  0  0  0  0
  7  3  1  0  0  0  0
 10 11  2  0  0  0  0
 10 12  1  0  0  0  0
  4 10  1  0  0  0  0
 14 15  1  0  0  0  0
 15 16  1  0  0  0  0
 16 17  1  0  0  0  0
 17 18  1  0  0  0  0
 18 19  1  0  0  0  0
 14 19  1  0  0  0  0
 20 21  1  0  0  0  0
 19 20  1  1  0  0  0
 18 22  1  6  0  0  0
 17 23  1  1  0  0  0
 16 24  1  6  0  0  0
 15 13  1  1  0  0  0
  1 13  1  6  0  0  0
  9 25  1  6  0  0  0
  8 26  1  6  0  0  0
  3 27  1  6  0  0  0
 12 28  1  0  0  0  0
M  END
>  <cdx:groupId>
266244

>  <cdx:fragmentId>
266161

$$$$
