713462.cdx
  Mrv1902 05222410182D          

 34 37  0  0  0  0            999 V2000
    7.8966   -8.5688    0.0000 H   0  0  0  0  0  0  0  0  0  0  0  0
    5.7532  -10.6313    0.0000 C   0  0  0  0  0  0  0  0  0  0  0  0
    5.0388  -10.2188    0.0000 C   0  0  0  0  0  0  0  0  0  0  0  0
    5.0388   -9.3938    0.0000 C   0  0  0  0  0  0  0  0  0  0  0  0
    5.7532   -8.9813    0.0000 C   0  0  0  0  0  0  0  0  0  0  0  0
    6.4677   -9.3938    0.0000 C   0  0  0  0  0  0  0  0  0  0  0  0
    7.1822   -8.9813    0.0000 C   0  0  1  0  0  0  0  0  0  0  0  0
    7.8966   -9.3938    0.0000 C   0  0  0  0  0  0  0  0  0  0  0  0
    8.6111   -8.9813    0.0000 C   0  0  0  0  0  0  0  0  0  0  0  0
    9.3256   -9.3938    0.0000 C   0  0  0  0  0  0  0  0  0  0  0  0
    9.3256  -10.2188    0.0000 C   0  0  0  0  0  0  0  0  0  0  0  0
    8.6111  -10.6313    0.0000 C   0  0  0  0  0  0  0  0  0  0  0  0
    7.8966  -10.2188    0.0000 C   0  0  0  0  0  0  0  0  0  0  0  0
    7.1822  -10.6313    0.0000 C   0  0  0  0  0  0  0  0  0  0  0  0
    6.4677  -10.2188    0.0000 C   0  0  0  0  0  0  0  0  0  0  0  0
    7.1822  -11.4563    0.0000 O   0  0  0  0  0  0  0  0  0  0  0  0
    7.8966   -7.7438    0.0000 O   0  0  0  0  0  0  0  0  0  0  0  0
    7.1822   -8.1563    0.0000 C   0  0  2  0  0  0  0  0  0  0  0  0
    6.4677   -7.7438    0.0000 C   0  0  1  0  0  0  0  0  0  0  0  0
    6.4677   -6.9188    0.0000 C   0  0  2  0  0  0  0  0  0  0  0  0
    7.1822   -6.5063    0.0000 C   0  0  1  0  0  0  0  0  0  0  0  0
    7.8966   -6.9188    0.0000 C   0  0  1  0  0  0  0  0  0  0  0  0
    8.6111   -6.5063    0.0000 C   0  0  0  0  0  0  0  0  0  0  0  0
    8.6111   -5.6813    0.0000 O   0  0  0  0  0  0  0  0  0  0  0  0
    7.1822   -5.6813    0.0000 O   0  0  0  0  0  0  0  0  0  0  0  0
    5.7532   -6.5063    0.0000 O   0  0  0  0  0  0  0  0  0  0  0  0
    5.7532   -8.1563    0.0000 O   0  0  0  0  0  0  0  0  0  0  0  0
    5.7532  -11.4563    0.0000 O   0  0  0  0  0  0  0  0  0  0  0  0
    5.0388  -11.8688    0.0000 C   0  0  0  0  0  0  0  0  0  0  0  0
   10.0400   -8.9813    0.0000 C   0  0  0  0  0  0  0  0  0  0  0  0
   10.7545   -9.3938    0.0000 O   0  0  0  0  0  0  0  0  0  0  0  0
    8.6111  -11.4563    0.0000 O   0  0  0  0  0  0  0  0  0  0  0  0
    4.3243  -10.6313    0.0000 O   0  0  0  0  0  0  0  0  0  0  0  0
    6.4677   -8.5688    0.0000 H   0  0  0  0  0  0  0  0  0  0  0  0
 18  1  1  6  0  0  0
  2  3  1  0  0  0  0
  3  4  2  0  0  0  0
  4  5  1  0  0  0  0
  5  6  2  0  0  0  0
  7  6  1  0  0  0  0
  7  8  1  0  0  0  0
  8  9  1  0  0  0  0
  9 10  2  0  0  0  0
 10 11  1  0  0  0  0
 11 12  2  0  0  0  0
 12 13  1  0  0  0  0
  8 13  2  0  0  0  0
 13 14  1  0  0  0  0
 14 15  1  0  0  0  0
  6 15  1  0  0  0  0
  2 15  2  0  0  0  0
 14 16  2  0  0  0  0
 18 17  1  0  0  0  0
 18 19  1  0  0  0  0
 19 20  1  0  0  0  0
 20 21  1  0  0  0  0
 21 22  1  0  0  0  0
 17 22  1  0  0  0  0
 23 24  1  0  0  0  0
 22 23  1  1  0  0  0
 21 25  1  6  0  0  0
 20 26  1  1  0  0  0
 19 27  1  6  0  0  0
  7 18  1  0  0  0  0
 28 29  1  0  0  0  0
  2 28  1  0  0  0  0
 30 31  1  0  0  0  0
 10 30  1  0  0  0  0
 12 32  1  0  0  0  0
  3 33  1  0  0  0  0
  7 34  1  1  0  0  0
M  END
>  <cdx:fragmentId>
266253

$$$$
