7136.cdx
  Mrv1902 05222410202D          

 15 15  0  0  0  0            999 V2000
    4.9818   -4.0975    0.0000 C   0  0  0  0  0  0  0  0  0  0  0  0
    4.2674   -4.5100    0.0000 C   0  0  0  0  0  0  0  0  0  0  0  0
    4.9818   -3.2725    0.0000 O   0  0  0  0  0  0  0  0  0  0  0  0
    5.6963   -4.5100    0.0000 O   0  0  0  0  0  0  0  0  0  0  0  0
    6.4108   -4.0975    0.0000 C   0  0  0  0  0  0  0  0  0  0  0  0
    6.4108   -3.2725    0.0000 C   0  0  0  0  0  0  0  0  0  0  0  0
    7.1252   -2.8600    0.0000 C   0  0  0  0  0  0  0  0  0  0  0  0
    7.8397   -3.2725    0.0000 C   0  0  0  0  0  0  0  0  0  0  0  0
    7.8397   -4.0975    0.0000 C   0  0  0  0  0  0  0  0  0  0  0  0
    7.1252   -4.5100    0.0000 C   0  0  0  0  0  0  0  0  0  0  0  0
    8.5542   -2.8600    0.0000 C   0  0  0  0  0  0  0  0  0  0  0  0
    9.2687   -3.2725    0.0000 C   0  0  0  0  0  0  0  0  0  0  0  0
    9.9831   -2.8600    0.0000 C   0  0  0  0  0  0  0  0  0  0  0  0
    5.6963   -2.8600    0.0000 O   0  0  0  0  0  0  0  0  0  0  0  0
    5.6963   -2.0350    0.0000 C   0  0  0  0  0  0  0  0  0  0  0  0
  1  2  1  0  0  0  0
  1  3  2  0  0  0  0
  1  4  1  0  0  0  0
  5  6  1  0  0  0  0
  6  7  2  0  0  0  0
  7  8  1  0  0  0  0
  8  9  2  0  0  0  0
  9 10  1  0  0  0  0
  5 10  2  0  0  0  0
 11 12  1  0  0  0  0
 12 13  2  0  0  0  0
  8 11  1  0  0  0  0
 14 15  1  0  0  0  0
  6 14  1  0  0  0  0
  4  5  1  0  0  0  0
M  END
>  <cdx:fragmentId>
13

$$$$
