715050.cdx
  Mrv1902 05222410232D          

 15 16  0  0  0  0            999 V2000
    6.7375   -7.1225    0.0000 C   0  0  1  0  0  0  0  0  0  0  0  0
    5.6650   -7.3700    0.0000 C   0  0  1  0  0  0  0  0  0  0  0  0
    5.1700   -6.9025    0.0000 C   0  0  0  0  0  0  0  0  0  0  0  0
    5.6650   -6.2700    0.0000 C   0  0  0  0  0  0  0  0  0  0  0  0
    7.1775   -6.3250    0.0000 C   0  0  2  0  0  0  0  0  0  0  0  0
    8.3875   -6.6000    0.0000 C   0  0  0  0  0  0  0  0  0  0  0  0
    7.9608   -7.4690    0.0000 C   0  0  0  0  0  0  0  0  0  0  0  0
    6.4350   -5.5000    0.0000 C   0  0  0  0  0  0  0  0  0  0  0  0
    5.6381   -5.2865    0.0000 C   0  0  0  0  0  0  0  0  0  0  0  0
    6.6485   -4.7086    0.0000 C   0  0  0  0  0  0  0  0  0  0  0  0
    5.4515   -8.1669    0.0000 C   0  0  0  0  0  0  0  0  0  0  0  0
    6.5240   -7.9194    0.0000 C   0  0  0  0  0  0  0  0  0  0  0  0
    8.3733   -8.1834    0.0000 C   0  0  0  0  0  0  0  0  0  0  0  0
    7.5900   -5.6105    0.0000 H   0  0  0  0  0  0  0  0  0  0  0  0
    9.1983   -8.1834    0.0000 C   0  0  0  0  0  0  0  0  0  0  0  0
  1  2  1  0  0  0  0
  2  3  1  0  0  0  0
  3  4  1  0  0  0  0
  4  5  1  0  0  0  0
  5  6  1  0  0  0  0
  6  7  1  0  0  0  0
  1  7  1  0  0  0  0
  1  8  1  0  0  0  0
  5  8  1  0  0  0  0
  8  9  1  0  0  0  0
  8 10  1  0  0  0  0
  2 11  1  6  0  0  0
  1 12  1  1  0  0  0
  7 13  2  0  0  0  0
  5 14  1  6  0  0  0
 13 15  1  0  0  0  0
M  END
>  <cdx:fragmentId>
215967

$$$$
