1715135.cdx
  Mrv1902 05222410252D          

 16 16  0  0  0  0            999 V2000
    9.2077   -8.0767    0.0000 C   0  0  0  0  0  0  0  0  0  0  0  0
    8.4933   -7.6642    0.0000 C   0  0  0  0  0  0  0  0  0  0  0  0
    7.7788   -8.0767    0.0000 C   0  0  0  0  0  0  0  0  0  0  0  0
    7.0643   -7.6642    0.0000 C   0  0  0  0  0  0  0  0  0  0  0  0
    6.3499   -8.0767    0.0000 C   0  0  0  0  0  0  0  0  0  0  0  0
    5.6354   -7.6642    0.0000 C   0  0  0  0  0  0  0  0  0  0  0  0
    4.9209   -8.0767    0.0000 C   0  0  0  0  0  0  0  0  0  0  0  0
    4.2064   -7.6642    0.0000 C   0  0  0  0  0  0  0  0  0  0  0  0
    9.9222   -7.6642    0.0000 O   0  0  0  0  0  0  0  0  0  0  0  0
    8.4933   -6.8392    0.0000 C   0  0  0  0  0  0  0  0  0  0  0  0
    9.2077   -6.4267    0.0000 C   0  0  0  0  0  0  0  0  0  0  0  0
    9.2077   -5.6017    0.0000 C   0  0  0  0  0  0  0  0  0  0  0  0
    9.9222   -5.1892    0.0000 C   0  0  0  0  0  0  0  0  0  0  0  0
   10.6367   -5.6017    0.0000 C   0  0  0  0  0  0  0  0  0  0  0  0
   10.6367   -6.4267    0.0000 C   0  0  0  0  0  0  0  0  0  0  0  0
    9.9222   -6.8392    0.0000 C   0  0  0  0  0  0  0  0  0  0  0  0
  1  2  1  0  0  0  0
  2  3  1  0  0  0  0
  3  4  1  0  0  0  0
  4  5  1  0  0  0  0
  5  6  1  0  0  0  0
  6  7  1  0  0  0  0
  7  8  1  0  0  0  0
  1  9  2  0  0  0  0
 10 11  1  0  0  0  0
 11 12  1  0  0  0  0
 12 13  2  0  0  0  0
 13 14  1  0  0  0  0
 14 15  2  0  0  0  0
 15 16  1  0  0  0  0
 11 16  2  0  0  0  0
  2 10  2  0  0  0  0
M  END
>  <cdx:groupId>
50

>  <cdx:fragmentId>
5

$$$$
