715190.cdx
  Mrv1902 05222410262D          

 37 39  0  0  0  0            999 V2000
    9.6251   -7.2752    0.0000 C   0  0  0  0  0  0  0  0  0  0  0  0
    9.6360   -8.1002    0.0000 C   0  0  0  0  0  0  0  0  0  0  0  0
   10.3558   -8.5032    0.0000 C   0  0  0  0  0  0  0  0  0  0  0  0
    8.9053   -6.8722    0.0000 O   0  0  0  0  0  0  0  0  0  0  0  0
   10.3341   -6.8534    0.0000 O   0  0  0  0  0  0  0  0  0  0  0  0
    3.9207   -8.1753    0.0000 O   0  0  0  0  0  0  0  0  0  0  0  0
   13.2134   -8.4657    0.0000 O   0  0  0  0  0  0  0  0  0  0  0  0
   13.1917   -6.8158    0.0000 O   0  0  0  0  0  0  0  0  0  0  0  0
   11.0539   -7.2565    0.0000 C   0  0  0  0  0  0  0  0  0  0  0  0
   11.7629   -6.8346    0.0000 C   0  0  0  0  0  0  0  0  0  0  0  0
    3.9424   -9.8252    0.0000 O   0  0  0  0  0  0  0  0  0  0  0  0
    6.0802   -9.3845    0.0000 C   0  0  0  0  0  0  0  0  0  0  0  0
    5.3712   -9.8064    0.0000 C   0  0  0  0  0  0  0  0  0  0  0  0
    4.6514   -9.4033    0.0000 C   0  0  0  0  0  0  0  0  0  0  0  0
    4.6405   -8.5784    0.0000 C   0  0  0  0  0  0  0  0  0  0  0  0
    5.3495   -8.1565    0.0000 C   0  0  0  0  0  0  0  0  0  0  0  0
    6.0693   -8.5596    0.0000 C   0  0  0  0  0  0  0  0  0  0  0  0
    8.1963   -7.2940    0.0000 O   0  0  0  0  0  0  0  0  0  0  0  0
    6.7783   -8.1377    0.0000 C   0  0  0  0  0  0  0  0  0  0  0  0
    7.4982   -8.5408    0.0000 C   0  0  0  0  0  0  0  0  0  0  0  0
    8.2071   -8.1190    0.0000 C   0  0  0  0  0  0  0  0  0  0  0  0
    8.9270   -8.5220    0.0000 O   0  0  0  0  0  0  0  0  0  0  0  0
   12.4828   -7.2377    0.0000 C   0  0  0  0  0  0  0  0  0  0  0  0
   12.4936   -8.0626    0.0000 C   0  0  0  0  0  0  0  0  0  0  0  0
   11.7846   -8.4845    0.0000 C   0  0  0  0  0  0  0  0  0  0  0  0
   11.0648   -8.0814    0.0000 C   0  0  0  0  0  0  0  0  0  0  0  0
    3.2225   -9.4221    0.0000 C   0  0  2  0  0  0  0  0  0  0  0  0
    3.2062   -8.5972    0.0000 O   0  0  0  0  0  0  0  0  0  0  0  0
    2.4837   -8.1990    0.0000 C   0  0  1  0  0  0  0  0  0  0  0  0
    1.7776   -8.6255    0.0000 C   0  0  2  0  0  0  0  0  0  0  0  0
    1.7776   -9.4504    0.0000 C   0  0  1  0  0  0  0  0  0  0  0  0
    2.4837   -9.8486    0.0000 C   0  0  1  0  0  0  0  0  0  0  0  0
    2.4674   -7.3741    0.0000 C   0  0  0  0  0  0  0  0  0  0  0  0
    1.0652   -9.8664    0.0000 O   0  0  0  0  0  0  0  0  0  0  0  0
    2.4879  -10.6736    0.0000 O   0  0  0  0  0  0  0  0  0  0  0  0
    1.0590   -8.2201    0.0000 O   0  0  0  0  0  0  0  0  0  0  0  0
    1.7449   -6.9758    0.0000 O   0  0  0  0  0  0  0  0  0  0  0  0
 24  7  1  0  0  0  0
 23  8  1  0  0  0  0
 26  9  2  0  0  0  0
 10  9  1  0  0  0  0
  2 22  1  0  0  0  0
 22 21  1  0  0  0  0
 19 17  1  0  0  0  0
 14 11  1  0  0  0  0
 15  6  1  0  0  0  0
 17 12  2  0  0  0  0
 13 12  1  0  0  0  0
 14 13  2  0  0  0  0
 15 14  1  0  0  0  0
 16 15  2  0  0  0  0
 17 16  1  0  0  0  0
 21 18  2  0  0  0  0
 20 19  2  0  0  0  0
 21 20  1  0  0  0  0
 23 10  2  0  0  0  0
 24 23  1  0  0  0  0
 25 24  2  0  0  0  0
 26 25  1  0  0  0  0
  1  2  1  0  0  0  0
  2  3  1  0  0  0  0
  1  4  2  0  0  0  0
  1  5  1  0  0  0  0
  3 26  1  0  0  0  0
 27 11  1  1  0  0  0
 27 28  1  0  0  0  0
 28 29  1  0  0  0  0
 29 30  1  0  0  0  0
 30 31  1  0  0  0  0
 31 32  1  0  0  0  0
 32 27  1  0  0  0  0
 29 33  1  1  0  0  0
 31 34  1  1  0  0  0
 32 35  1  6  0  0  0
 30 36  1  6  0  0  0
 33 37  1  0  0  0  0
M  END
>  <cdx:fragmentId>
78892

$$$$
