715137 cdx.cdx
  Mrv1902 05222410252D          

 29 35  0  0  0  0            999 V2000
    5.8403   -8.5862    0.0000 C   0  0  1  0  0  0  0  0  0  0  0  0
    6.3252   -7.9188    0.0000 C   0  0  0  0  0  0  0  0  0  0  0  0
    7.5375   -8.6643    0.0000 C   0  0  0  0  0  0  0  0  0  0  0  0
    7.8243   -9.4112    0.0000 C   0  0  2  0  0  0  0  0  0  0  0  0
    8.5388   -8.9987    0.0000 C   0  0  1  0  0  0  0  0  0  0  0  0
    9.2532   -9.4112    0.0000 C   0  0  0  0  0  0  0  0  0  0  0  0
    9.9677   -8.9987    0.0000 C   0  0  0  0  0  0  0  0  0  0  0  0
    9.9677   -8.1737    0.0000 C   0  0  2  0  0  0  0  0  0  0  0  0
    9.2532   -7.7612    0.0000 O   0  0  0  0  0  0  0  0  0  0  0  0
    8.5388   -8.1737    0.0000 C   0  0  2  0  0  0  0  0  0  0  0  0
    7.8243   -7.7612    0.0000 N   0  0  0  0  0  0  0  0  0  0  0  0
    7.1098   -8.1737    0.0000 C   0  0  1  0  0  0  0  0  0  0  0  0
    7.1098   -8.9987    0.0000 C   0  0  2  0  0  0  0  0  0  0  0  0
    6.3252   -9.2537    0.0000 C   0  0  2  0  0  0  0  0  0  0  0  0
    6.1057  -10.0489    0.0000 C   0  0  0  0  0  0  0  0  0  0  0  0
    5.3471  -10.3732    0.0000 C   0  0  0  0  0  0  0  0  0  0  0  0
    4.6206   -9.9822    0.0000 C   0  0  2  0  0  0  0  0  0  0  0  0
    4.4733   -9.1705    0.0000 C   0  0  0  0  0  0  0  0  0  0  0  0
    5.0161   -8.5492    0.0000 C   0  0  1  0  0  0  0  0  0  0  0  0
    5.6337   -9.6353    0.0000 C   0  0  0  0  0  0  0  0  0  0  0  0
    5.3471  -11.1982    0.0000 O   0  0  0  0  0  0  0  0  0  0  0  0
    3.6780   -8.9510    0.0000 C   0  0  0  0  0  0  0  0  0  0  0  0
    8.5388   -9.8237    0.0000 C   0  0  0  0  0  0  0  0  0  0  0  0
    4.6919   -7.7906    0.0000 O   0  0  0  0  0  0  0  0  0  0  0  0
    7.8243   -6.9362    0.0000 C   0  0  0  0  0  0  0  0  0  0  0  0
    8.5388   -6.5237    0.0000 C   0  0  0  0  0  0  0  0  0  0  0  0
    8.5388   -7.3487    0.0000 H   0  0  0  0  0  0  0  0  0  0  0  0
    7.1098   -7.3487    0.0000 H   0  0  0  0  0  0  0  0  0  0  0  0
    6.7377   -9.9681    0.0000 H   0  0  0  0  0  0  0  0  0  0  0  0
  1  2  1  0  0  0  0
  2  3  1  0  0  0  0
  4  3  1  1  0  0  0
  4  5  1  0  0  0  0
  5  6  1  0  0  0  0
  6  7  1  0  0  0  0
  7  8  1  0  0  0  0
  8  9  1  1  0  0  0
  9 10  1  0  0  0  0
 10 11  1  0  0  0  0
 11 12  1  0  0  0  0
 12 13  1  0  0  0  0
 13 14  1  0  0  0  0
 14 15  1  0  0  0  0
 15 16  1  0  0  0  0
 16 17  1  0  0  0  0
 17 18  1  0  0  0  0
 18 19  1  0  0  0  0
  1 19  1  0  0  0  0
  1 20  1  6  0  0  0
 17 20  1  1  0  0  0
  1 14  1  0  0  0  0
 13  8  1  6  0  0  0
  4 13  1  0  0  0  0
  2 12  1  0  0  0  0
  5 10  1  0  0  0  0
 16 21  2  0  0  0  0
 18 22  2  0  0  0  0
  5 23  1  1  0  0  0
 19 24  1  1  0  0  0
 25 26  1  0  0  0  0
 11 25  1  0  0  0  0
 10 27  1  6  0  0  0
 12 28  1  6  0  0  0
 14 29  1  1  0  0  0
M  END
>  <cdx:fragmentId>
78558

$$$$
