15715949.cdx
  Mrv1902 05222410272D          

 13 13  0  0  0  0            999 V2000
    7.7372  -14.9962    0.0000 C   0  0  0  0  0  0  0  0  0  0  0  0
    7.0227  -15.4087    0.0000 C   0  0  0  0  0  0  0  0  0  0  0  0
    6.3082  -14.9962    0.0000 C   0  0  0  0  0  0  0  0  0  0  0  0
    6.3082  -14.1712    0.0000 C   0  0  0  0  0  0  0  0  0  0  0  0
    7.0227  -13.7587    0.0000 C   0  0  0  0  0  0  0  0  0  0  0  0
    7.7372  -14.1712    0.0000 C   0  0  0  0  0  0  0  0  0  0  0  0
    8.4516  -15.4087    0.0000 C   0  0  0  0  0  0  0  0  0  0  0  0
    9.1661  -14.9962    0.0000 O   0  0  0  0  0  0  0  0  0  0  0  0
    5.5937  -15.4087    0.0000 O   0  0  0  0  0  0  0  0  0  0  0  0
    8.1497  -13.4567    0.0000 C   0  0  0  0  0  0  0  0  0  0  0  0
    8.5622  -14.1712    0.0000 C   0  0  0  0  0  0  0  0  0  0  0  0
    7.0227  -16.2337    0.0000 C   0  0  0  0  0  0  0  0  0  0  0  0
    5.5937  -13.7587    0.0000 O   0  0  0  0  0  0  0  0  0  0  0  0
  1  2  2  0  0  0  0
  2  3  1  0  0  0  0
  3  4  1  0  0  0  0
  4  5  1  0  0  0  0
  5  6  1  0  0  0  0
  1  6  1  0  0  0  0
  7  8  2  0  0  0  0
  1  7  1  0  0  0  0
  3  9  2  0  0  0  0
  6 10  1  0  0  0  0
  6 11  1  0  0  0  0
  2 12  1  0  0  0  0
  4 13  1  0  0  0  0
M  END
>  <cdx:groupId>
116074

>  <cdx:fragmentId>
116038

$$$$
