15715943.cdx
  Mrv1902 05222410202D          

 12 12  0  0  0  0            999 V2000
    6.6514  -14.1712    0.0000 C   0  0  0  0  0  0  0  0  0  0  0  0
    6.6514  -14.9962    0.0000 C   0  0  0  0  0  0  0  0  0  0  0  0
    7.3659  -15.4087    0.0000 C   0  0  0  0  0  0  0  0  0  0  0  0
    8.0804  -14.9962    0.0000 C   0  0  0  0  0  0  0  0  0  0  0  0
    8.0804  -14.1712    0.0000 C   0  0  0  0  0  0  0  0  0  0  0  0
    7.3659  -13.7587    0.0000 C   0  0  0  0  0  0  0  0  0  0  0  0
    5.9370  -13.7587    0.0000 O   0  0  0  0  0  0  0  0  0  0  0  0
    8.7949  -15.4087    0.0000 C   0  0  0  0  0  0  0  0  0  0  0  0
    8.4929  -13.4567    0.0000 C   0  0  0  0  0  0  0  0  0  0  0  0
    8.9054  -14.1712    0.0000 C   0  0  0  0  0  0  0  0  0  0  0  0
    7.3659  -16.2337    0.0000 C   0  0  0  0  0  0  0  0  0  0  0  0
    5.9370  -15.4087    0.0000 O   0  0  0  0  0  0  0  0  0  0  0  0
  1  2  1  0  0  0  0
  2  3  2  0  0  0  0
  3  4  1  0  0  0  0
  4  5  1  0  0  0  0
  5  6  1  0  0  0  0
  1  6  1  0  0  0  0
  1  7  2  0  0  0  0
  4  8  2  0  0  0  0
  5  9  1  0  0  0  0
  5 10  1  0  0  0  0
  3 11  1  0  0  0  0
  2 12  1  0  0  0  0
M  END
>  <cdx:groupId>
115945

>  <cdx:fragmentId>
115912

$$$$
