15715953.cdx
  Mrv1902 05222410182D          

 14 14  0  0  0  0            999 V2000
    8.8334  -10.7408    0.0000 C   0  0  0  0  0  0  0  0  0  0  0  0
    8.1189  -11.1533    0.0000 C   0  0  0  0  0  0  0  0  0  0  0  0
    7.4045  -10.7408    0.0000 C   0  0  0  0  0  0  0  0  0  0  0  0
    7.4045   -9.9158    0.0000 C   0  0  0  0  0  0  0  0  0  0  0  0
    8.1189   -9.5033    0.0000 C   0  0  0  0  0  0  0  0  0  0  0  0
    8.8334   -9.9158    0.0000 C   0  0  0  0  0  0  0  0  0  0  0  0
    9.5479  -11.1533    0.0000 O   0  0  0  0  0  0  0  0  0  0  0  0
    6.5795   -9.9158    0.0000 C   0  0  0  0  0  0  0  0  0  0  0  0
    6.9920   -9.2014    0.0000 C   0  0  0  0  0  0  0  0  0  0  0  0
    8.1189  -11.9783    0.0000 C   0  0  0  0  0  0  0  0  0  0  0  0
    6.6900  -11.1533    0.0000 C   0  0  0  0  0  0  0  0  0  0  0  0
    5.9755  -10.7408    0.0000 C   0  0  0  0  0  0  0  0  0  0  0  0
    5.2611  -11.1533    0.0000 C   0  0  0  0  0  0  0  0  0  0  0  0
    4.5466  -10.7408    0.0000 C   0  0  0  0  0  0  0  0  0  0  0  0
  1  2  1  0  0  0  0
  2  3  1  0  0  0  0
  3  4  1  0  0  0  0
  4  5  1  0  0  0  0
  5  6  1  0  0  0  0
  1  6  1  0  0  0  0
  1  7  1  0  0  0  0
  4  8  1  0  0  0  0
  4  9  1  0  0  0  0
  2 10  1  0  0  0  0
 11 12  2  0  0  0  0
 12 13  1  0  0  0  0
 13 14  1  0  0  0  0
  3 11  1  0  0  0  0
M  END
>  <cdx:fragmentId>
8688

$$$$
