15715941.cdx
  Mrv1902 05222410192D          

 11 11  0  0  0  0            999 V2000
    7.2339  -14.9962    0.0000 C   0  0  0  0  0  0  0  0  0  0  0  0
    6.5194  -15.4087    0.0000 C   0  0  0  0  0  0  0  0  0  0  0  0
    5.8049  -14.9962    0.0000 C   0  0  0  0  0  0  0  0  0  0  0  0
    5.8049  -14.1712    0.0000 C   0  0  0  0  0  0  0  0  0  0  0  0
    6.5194  -13.7587    0.0000 C   0  0  0  0  0  0  0  0  0  0  0  0
    7.2339  -14.1712    0.0000 C   0  0  0  0  0  0  0  0  0  0  0  0
    7.9483  -15.4087    0.0000 C   0  0  0  0  0  0  0  0  0  0  0  0
    8.6628  -14.9962    0.0000 O   0  0  0  0  0  0  0  0  0  0  0  0
    6.5194  -16.2337    0.0000 C   0  0  0  0  0  0  0  0  0  0  0  0
    7.6464  -13.4567    0.0000 C   0  0  0  0  0  0  0  0  0  0  0  0
    8.0589  -14.1712    0.0000 C   0  0  0  0  0  0  0  0  0  0  0  0
  1  2  1  0  0  0  0
  2  3  1  0  0  0  0
  3  4  2  0  0  0  0
  4  5  1  0  0  0  0
  5  6  1  0  0  0  0
  1  6  1  0  0  0  0
  7  8  2  0  0  0  0
  1  7  1  0  0  0  0
  2  9  2  0  0  0  0
  6 10  1  0  0  0  0
  6 11  1  0  0  0  0
M  END
>  <cdx:groupId>
115904

>  <cdx:fragmentId>
115874

$$$$
