15715946.cdx
  Mrv1902 05222410182D          

 14 14  0  0  0  0            999 V2000
    8.9049  -14.9962    0.0000 C   0  0  0  0  0  0  0  0  0  0  0  0
    8.1905  -15.4087    0.0000 C   0  0  0  0  0  0  0  0  0  0  0  0
    7.4760  -14.9962    0.0000 C   0  0  0  0  0  0  0  0  0  0  0  0
    7.4760  -14.1712    0.0000 C   0  0  0  0  0  0  0  0  0  0  0  0
    8.1905  -13.7587    0.0000 C   0  0  0  0  0  0  0  0  0  0  0  0
    8.9049  -14.1712    0.0000 C   0  0  0  0  0  0  0  0  0  0  0  0
    9.6194  -15.4087    0.0000 O   0  0  0  0  0  0  0  0  0  0  0  0
    6.6510  -14.1712    0.0000 C   0  0  0  0  0  0  0  0  0  0  0  0
    7.0635  -13.4567    0.0000 C   0  0  0  0  0  0  0  0  0  0  0  0
    8.1905  -16.2337    0.0000 C   0  0  0  0  0  0  0  0  0  0  0  0
    6.7615  -15.4087    0.0000 C   0  0  0  0  0  0  0  0  0  0  0  0
    6.0471  -14.9962    0.0000 C   0  0  0  0  0  0  0  0  0  0  0  0
    5.3326  -15.4087    0.0000 C   0  0  0  0  0  0  0  0  0  0  0  0
    4.6181  -14.9962    0.0000 C   0  0  0  0  0  0  0  0  0  0  0  0
  1  2  1  0  0  0  0
  2  3  2  0  0  0  0
  3  4  1  0  0  0  0
  4  5  1  0  0  0  0
  5  6  1  0  0  0  0
  1  6  1  0  0  0  0
  1  7  1  0  0  0  0
  4  8  1  0  0  0  0
  4  9  1  0  0  0  0
  2 10  1  0  0  0  0
 11 12  2  0  0  0  0
 12 13  1  0  0  0  0
 13 14  1  0  0  0  0
  3 11  1  0  0  0  0
M  END
>  <cdx:groupId>
116030

>  <cdx:fragmentId>
115991

$$$$
