716903.cdx
  Mrv1902 05222410182D          

 30 32  0  0  0  0            999 V2000
    9.9293   -7.1826    0.0000 C   0  0  2  0  0  0  0  0  0  0  0  0
    9.9161   -8.0075    0.0000 C   0  0  0  0  0  0  0  0  0  0  0  0
    9.1951   -8.4085    0.0000 C   0  0  0  0  0  0  0  0  0  0  0  0
    8.4873   -7.9846    0.0000 C   0  0  0  0  0  0  0  0  0  0  0  0
    7.7663   -8.3856    0.0000 C   0  0  0  0  0  0  0  0  0  0  0  0
    7.0586   -7.9617    0.0000 C   0  0  0  0  0  0  0  0  0  0  0  0
    7.0718   -7.1368    0.0000 C   0  0  0  0  0  0  0  0  0  0  0  0
    7.7928   -6.7358    0.0000 C   0  0  0  0  0  0  0  0  0  0  0  0
    8.5005   -7.1597    0.0000 C   0  0  0  0  0  0  0  0  0  0  0  0
    9.2215   -6.7587    0.0000 O   0  0  0  0  0  0  0  0  0  0  0  0
    9.1819   -9.2334    0.0000 O   0  0  0  0  0  0  0  0  0  0  0  0
   10.6503   -6.7817    0.0000 C   0  0  0  0  0  0  0  0  0  0  0  0
   10.6635   -5.9568    0.0000 C   0  0  0  0  0  0  0  0  0  0  0  0
   11.3845   -5.5558    0.0000 C   0  0  0  0  0  0  0  0  0  0  0  0
   12.0923   -5.9797    0.0000 C   0  0  0  0  0  0  0  0  0  0  0  0
   12.0790   -6.8046    0.0000 C   0  0  0  0  0  0  0  0  0  0  0  0
   11.3581   -7.2055    0.0000 C   0  0  0  0  0  0  0  0  0  0  0  0
   12.8133   -5.5787    0.0000 O   0  0  0  0  0  0  0  0  0  0  0  0
    6.3640   -6.7129    0.0000 O   0  0  0  0  0  0  0  0  0  0  0  0
    7.7531   -9.2105    0.0000 O   0  0  0  0  0  0  0  0  0  0  0  0
    6.3376   -8.3627    0.0000 C   0  0  0  0  0  0  0  0  0  0  0  0
    5.6298   -7.9388    0.0000 C   0  0  0  0  0  0  0  0  0  0  0  0
    4.9088   -8.3398    0.0000 C   0  0  0  0  0  0  0  0  0  0  0  0
    4.2010   -7.9159    0.0000 C   0  0  0  0  0  0  0  0  0  0  0  0
    3.4801   -8.3169    0.0000 C   0  0  0  0  0  0  0  0  0  0  0  0
    2.7723   -7.8930    0.0000 C   0  0  0  0  0  0  0  0  0  0  0  0
    2.0513   -8.2940    0.0000 C   0  0  0  0  0  0  0  0  0  0  0  0
    2.0381   -9.1189    0.0000 C   0  0  0  0  0  0  0  0  0  0  0  0
    1.3435   -7.8701    0.0000 C   0  0  0  0  0  0  0  0  0  0  0  0
    4.8956   -9.1647    0.0000 C   0  0  0  0  0  0  0  0  0  0  0  0
  1  2  1  0  0  0  0
  2  3  1  0  0  0  0
  3  4  1  0  0  0  0
  4  5  1  0  0  0  0
  5  6  2  0  0  0  0
  6  7  1  0  0  0  0
  7  8  2  0  0  0  0
  8  9  1  0  0  0  0
  4  9  2  0  0  0  0
  9 10  1  0  0  0  0
  1 10  1  0  0  0  0
  3 11  2  0  0  0  0
 12 13  1  0  0  0  0
 13 14  2  0  0  0  0
 14 15  1  0  0  0  0
 15 16  2  0  0  0  0
 16 17  1  0  0  0  0
 12 17  2  0  0  0  0
 15 18  1  0  0  0  0
  1 12  1  6  0  0  0
  7 19  1  0  0  0  0
  5 20  1  0  0  0  0
 21 22  1  0  0  0  0
 22 23  2  0  0  0  0
 23 24  1  0  0  0  0
 24 25  1  0  0  0  0
 25 26  1  0  0  0  0
 26 27  2  0  0  0  0
 27 28  1  0  0  0  0
 27 29  1  0  0  0  0
 23 30  1  0  0  0  0
  6 21  1  0  0  0  0
M  END
>  <cdx:fragmentId>
401

$$$$
