7172.cdx
  Mrv1902 05222410272D          

 12 12  0  0  0  0            999 V2000
    3.7011   -3.6377    0.0000 C   0  0  0  0  0  0  0  0  0  0  0  0
    3.7011   -2.8127    0.0000 C   0  0  0  0  0  0  0  0  0  0  0  0
    4.4155   -2.4002    0.0000 C   0  0  0  0  0  0  0  0  0  0  0  0
    5.1300   -2.8127    0.0000 C   0  0  0  0  0  0  0  0  0  0  0  0
    5.1300   -3.6377    0.0000 C   0  0  0  0  0  0  0  0  0  0  0  0
    4.4155   -4.0502    0.0000 C   0  0  0  0  0  0  0  0  0  0  0  0
    2.9866   -4.0502    0.0000 O   0  0  0  0  0  0  0  0  0  0  0  0
    5.8445   -2.4002    0.0000 C   0  0  0  0  0  0  0  0  0  0  0  0
    6.5589   -2.8127    0.0000 C   0  0  0  0  0  0  0  0  0  0  0  0
    7.2734   -2.4002    0.0000 N   0  0  0  0  0  0  0  0  0  0  0  0
    7.9879   -2.8127    0.0000 C   0  0  0  0  0  0  0  0  0  0  0  0
    5.8445   -1.5752    0.0000 O   0  0  0  0  0  0  0  0  0  0  0  0
  1  2  1  0  0  0  0
  2  3  2  0  0  0  0
  3  4  1  0  0  0  0
  4  5  2  0  0  0  0
  5  6  1  0  0  0  0
  1  6  2  0  0  0  0
  1  7  1  0  0  0  0
  8  9  1  0  0  0  0
 10 11  1  0  0  0  0
  9 10  1  0  0  0  0
  8 12  1  0  0  0  0
  4  8  1  0  0  0  0
M  END
>  <cdx:groupId>
38

>  <cdx:fragmentId>
5

$$$$
