7175.cdx
  Mrv1902 05222410262D          

 13 13  0  0  0  0            999 V2000
    5.0541   -2.3177    0.0000 C   0  0  0  0  0  0  0  0  0  0  0  0
    4.3396   -2.7302    0.0000 C   0  0  0  0  0  0  0  0  0  0  0  0
    4.3396   -3.5552    0.0000 C   0  0  0  0  0  0  0  0  0  0  0  0
    3.6252   -3.9677    0.0000 C   0  0  0  0  0  0  0  0  0  0  0  0
    2.9107   -3.5552    0.0000 C   0  0  0  0  0  0  0  0  0  0  0  0
    2.9107   -2.7302    0.0000 C   0  0  0  0  0  0  0  0  0  0  0  0
    3.6252   -2.3177    0.0000 C   0  0  0  0  0  0  0  0  0  0  0  0
    5.0541   -1.4927    0.0000 O   0  0  0  0  0  0  0  0  0  0  0  0
    5.7686   -2.7302    0.0000 O   0  0  0  0  0  0  0  0  0  0  0  0
    2.1962   -3.9677    0.0000 O   0  0  0  0  0  0  0  0  0  0  0  0
    6.4831   -2.3177    0.0000 C   0  0  0  0  0  0  0  0  0  0  0  0
    7.1975   -2.7302    0.0000 C   0  0  0  0  0  0  0  0  0  0  0  0
    7.9120   -2.3177    0.0000 C   0  0  0  0  0  0  0  0  0  0  0  0
  1  2  1  0  0  0  0
  2  3  1  0  0  0  0
  3  4  2  0  0  0  0
  4  5  1  0  0  0  0
  5  6  2  0  0  0  0
  6  7  1  0  0  0  0
  2  7  2  0  0  0  0
  1  8  2  0  0  0  0
  1  9  1  0  0  0  0
  5 10  1  0  0  0  0
 11 12  1  0  0  0  0
 12 13  1  0  0  0  0
  9 11  1  0  0  0  0
M  END
>  <cdx:groupId>
41

>  <cdx:fragmentId>
5

$$$$
