717704.cdx
  Mrv1902 05222410212D          

 18 17  0  0  0  0            999 V2000
    8.0930   -7.5344    0.0000 C   0  0  0  0  0  0  0  0  0  0  0  0
    7.3785   -7.9469    0.0000 C   0  0  0  0  0  0  0  0  0  0  0  0
    7.3785   -8.7719    0.0000 C   0  0  0  0  0  0  0  0  0  0  0  0
    8.0930   -6.7094    0.0000 O   0  0  0  0  0  0  0  0  0  0  0  0
    8.8075   -7.9469    0.0000 O   0  0  0  0  0  0  0  0  0  0  0  0
    6.6640   -7.5344    0.0000 N   0  0  0  0  0  0  0  0  0  0  0  0
    5.9496   -7.9469    0.0000 C   0  0  0  0  0  0  0  0  0  0  0  0
    5.9496   -8.7719    0.0000 O   0  0  0  0  0  0  0  0  0  0  0  0
    5.2351   -7.5344    0.0000 O   0  0  0  0  0  0  0  0  0  0  0  0
    4.5206   -7.9469    0.0000 C   0  0  0  0  0  0  0  0  0  0  0  0
    3.8062   -7.5344    0.0000 C   0  0  0  0  0  0  0  0  0  0  0  0
    3.0917   -7.9469    0.0000 C   0  0  0  0  0  0  0  0  0  0  0  0
    6.6640   -6.7094    0.0000 C   0  0  0  0  0  0  0  0  0  0  0  0
    9.5219   -7.5344    0.0000 C   0  0  0  0  0  0  0  0  0  0  0  0
   10.2364   -7.9469    0.0000 C   0  0  0  0  0  0  0  0  0  0  0  0
   10.9509   -7.5344    0.0000 C   0  0  0  0  0  0  0  0  0  0  0  0
   11.6653   -7.9469    0.0000 C   0  0  0  0  0  0  0  0  0  0  0  0
   12.3798   -7.5344    0.0000 C   0  0  0  0  0  0  0  0  0  0  0  0
  1  2  1  0  0  0  0
  2  3  1  0  0  0  0
  1  4  2  0  0  0  0
  1  5  1  0  0  0  0
  7  8  2  0  0  0  0
 10 11  1  0  0  0  0
 11 12  2  0  0  0  0
  9 10  1  0  0  0  0
  7  9  1  0  0  0  0
  6  7  1  0  0  0  0
  6 13  1  0  0  0  0
  2  6  1  0  0  0  0
 14 15  1  0  0  0  0
 15 16  1  0  0  0  0
 16 17  1  0  0  0  0
 17 18  1  0  0  0  0
  5 14  1  0  0  0  0
M  END
>  <cdx:fragmentId>
216035

$$$$
