718315.cdx
  Mrv1902 05222410282D          

 36 39  0  0  0  0            999 V2000
    9.8059   -5.7327    0.0000 C   0  0  0  0  0  0  0  0  0  0  0  0
    9.5510   -6.5173    0.0000 C   0  0  0  0  0  0  0  0  0  0  0  0
    8.7440   -6.6889    0.0000 C   0  0  1  0  0  0  0  0  0  0  0  0
    8.1920   -6.0758    0.0000 C   0  0  0  0  0  0  0  0  0  0  0  0
    4.8465   -8.5534    0.0000 C   0  0  0  0  0  0  0  0  0  0  0  0
    4.1321   -8.9659    0.0000 C   0  0  0  0  0  0  0  0  0  0  0  0
    4.1321   -9.7909    0.0000 C   0  0  1  0  0  0  0  0  0  0  0  0
    4.8465  -10.2034    0.0000 C   0  0  0  0  0  0  0  0  0  0  0  0
    5.5610   -9.7909    0.0000 C   0  0  2  0  0  0  0  0  0  0  0  0
    6.2755  -10.2034    0.0000 C   0  0  0  0  0  0  0  0  0  0  0  0
    6.9900   -9.7909    0.0000 C   0  0  1  0  0  0  0  0  0  0  0  0
    6.9900   -8.9659    0.0000 C   0  0  0  0  0  0  0  0  0  0  0  0
    7.7044   -8.5534    0.0000 C   0  0  2  0  0  0  0  0  0  0  0  0
    8.4891   -8.8084    0.0000 C   0  0  0  0  0  0  0  0  0  0  0  0
    8.9740   -8.1409    0.0000 C   0  0  0  0  0  0  0  0  0  0  0  0
    8.4891   -7.4735    0.0000 C   0  0  1  0  0  0  0  0  0  0  0  0
    7.7044   -7.7284    0.0000 C   0  0  1  0  0  0  0  0  0  0  0  0
    6.9900   -7.3159    0.0000 C   0  0  0  0  0  0  0  0  0  0  0  0
    6.2755   -7.7284    0.0000 C   0  0  0  0  0  0  0  0  0  0  0  0
    6.2755   -8.5534    0.0000 C   0  0  0  0  0  0  0  0  0  0  0  0
    5.5610   -8.9659    0.0000 C   0  0  1  0  0  0  0  0  0  0  0  0
    8.7440   -9.5930    0.0000 O   0  0  0  0  0  0  0  0  0  0  0  0
    5.5610   -7.3159    0.0000 O   0  0  0  0  0  0  0  0  0  0  0  0
    7.7044   -9.3784    0.0000 C   0  0  0  0  0  0  0  0  0  0  0  0
    7.7044   -6.9034    0.0000 C   0  0  0  0  0  0  0  0  0  0  0  0
    5.5610   -8.1409    0.0000 C   0  0  0  0  0  0  0  0  0  0  0  0
    5.2590  -10.9179    0.0000 C   0  0  0  0  0  0  0  0  0  0  0  0
    4.4340  -10.9179    0.0000 C   0  0  0  0  0  0  0  0  0  0  0  0
    7.7044  -10.2034    0.0000 O   0  0  0  0  0  0  0  0  0  0  0  0
    3.4176  -10.2034    0.0000 O   0  0  0  0  0  0  0  0  0  0  0  0
   11.6748   -4.6050    0.0000 C   0  0  0  0  0  0  0  0  0  0  0  0
    5.5610  -10.6159    0.0000 H   0  0  0  0  0  0  0  0  0  0  0  0
   10.8678   -4.7766    0.0000 O   0  0  0  0  0  0  0  0  0  0  0  0
   11.1649   -6.1743    0.0000 O   0  0  0  0  0  0  0  0  0  0  0  0
   10.6129   -5.5612    0.0000 C   0  0  0  0  0  0  0  0  0  0  0  0
    9.2737   -7.2186    0.0000 H   0  0  0  0  0  0  0  0  0  0  0  0
 33 31  1  0  0  0  0
 35 33  1  0  0  0  0
 35 34  2  0  0  0  0
 35  1  1  0  0  0  0
  1  2  1  0  0  0  0
  2  3  1  0  0  0  0
  3  4  1  6  0  0  0
  5  6  1  0  0  0  0
  6  7  1  0  0  0  0
  7  8  1  0  0  0  0
  8  9  1  0  0  0  0
  9 10  1  0  0  0  0
 10 11  1  0  0  0  0
 11 12  1  0  0  0  0
 12 13  1  0  0  0  0
 13 14  1  0  0  0  0
 14 15  1  0  0  0  0
 16 15  1  0  0  0  0
 16 17  1  0  0  0  0
 13 17  1  0  0  0  0
 17 18  1  0  0  0  0
 18 19  1  0  0  0  0
 19 20  1  0  0  0  0
 12 20  2  0  0  0  0
 20 21  1  0  0  0  0
  9 21  1  0  0  0  0
  5 21  1  0  0  0  0
 14 22  2  0  0  0  0
 19 23  2  0  0  0  0
 13 24  1  6  0  0  0
 17 25  1  1  0  0  0
 21 26  1  1  0  0  0
  8 27  1  0  0  0  0
  8 28  1  0  0  0  0
 11 29  1  1  0  0  0
  7 30  1  1  0  0  0
  3 16  1  0  0  0  0
  9 32  1  6  0  0  0
 16 36  1  6  0  0  0
M  END
>  <cdx:fragmentId>
204445

$$$$
