7194.cdx
  Mrv1902 05222410192D          

 17 18  0  0  0  0            999 V2000
    6.1567   -5.7475    0.0000 C   0  0  0  0  0  0  0  0  0  0  0  0
    5.4422   -6.1600    0.0000 C   0  0  0  0  0  0  0  0  0  0  0  0
    5.4422   -6.9850    0.0000 C   0  0  0  0  0  0  0  0  0  0  0  0
    4.7277   -7.3975    0.0000 C   0  0  0  0  0  0  0  0  0  0  0  0
    4.0133   -6.9850    0.0000 C   0  0  0  0  0  0  0  0  0  0  0  0
    4.0133   -6.1600    0.0000 C   0  0  0  0  0  0  0  0  0  0  0  0
    4.7277   -5.7475    0.0000 C   0  0  0  0  0  0  0  0  0  0  0  0
    6.1567   -4.9225    0.0000 O   0  0  0  0  0  0  0  0  0  0  0  0
    6.8711   -6.1600    0.0000 O   0  0  0  0  0  0  0  0  0  0  0  0
    7.5856   -5.7475    0.0000 C   0  0  0  0  0  0  0  0  0  0  0  0
    8.3001   -6.1600    0.0000 C   0  0  0  0  0  0  0  0  0  0  0  0
    9.0146   -5.7475    0.0000 C   0  0  0  0  0  0  0  0  0  0  0  0
    9.0146   -4.9225    0.0000 C   0  0  0  0  0  0  0  0  0  0  0  0
    9.7290   -4.5100    0.0000 C   0  0  0  0  0  0  0  0  0  0  0  0
   10.4435   -4.9225    0.0000 C   0  0  0  0  0  0  0  0  0  0  0  0
   10.4435   -5.7475    0.0000 C   0  0  0  0  0  0  0  0  0  0  0  0
    9.7290   -6.1600    0.0000 C   0  0  0  0  0  0  0  0  0  0  0  0
  1  2  1  0  0  0  0
  2  3  1  0  0  0  0
  3  4  2  0  0  0  0
  4  5  1  0  0  0  0
  5  6  2  0  0  0  0
  6  7  1  0  0  0  0
  2  7  2  0  0  0  0
  1  8  2  0  0  0  0
  1  9  1  0  0  0  0
 10 11  1  0  0  0  0
 12 13  1  0  0  0  0
 13 14  2  0  0  0  0
 14 15  1  0  0  0  0
 15 16  2  0  0  0  0
 16 17  1  0  0  0  0
 12 17  2  0  0  0  0
 11 12  1  0  0  0  0
  9 10  1  0  0  0  0
M  END
>  <cdx:fragmentId>
5

$$$$
