719669.cdx
  Mrv1902 05222410242D          

 38 40  0  0  0  0            999 V2000
    7.4599   -6.7035    0.0000 C   0  0  0  0  0  0  0  0  0  0  0  0
    6.6352   -6.7278    0.0000 O   0  0  0  0  0  0  0  0  0  0  0  0
    6.2440   -7.4541    0.0000 C   0  0  1  0  0  0  0  0  0  0  0  0
    5.4424   -7.6493    0.0000 C   0  0  0  0  0  0  0  0  0  0  0  0
    5.3804   -8.4720    0.0000 C   0  0  0  0  0  0  0  0  0  0  0  0
    6.1436   -8.7852    0.0000 N   0  0  0  0  0  0  0  0  0  0  0  0
    6.6773   -8.1561    0.0000 C   0  0  2  0  0  0  0  0  0  0  0  0
    7.5020   -8.1318    0.0000 C   0  0  0  0  0  0  0  0  0  0  0  0
    7.9354   -8.8338    0.0000 N   0  0  0  0  0  0  0  0  0  0  0  0
    8.7600   -8.8095    0.0000 C   0  0  2  0  0  0  0  0  0  0  0  0
    9.1513   -8.0832    0.0000 C   0  0  0  0  0  0  0  0  0  0  0  0
    9.9759   -8.0588    0.0000 N   0  0  0  0  0  0  0  0  0  0  0  0
   10.3672   -7.3325    0.0000 C   0  0  0  0  0  0  0  0  0  0  0  0
    9.9338   -6.6305    0.0000 C   0  0  0  0  0  0  0  0  0  0  0  0
    9.1092   -6.6548    0.0000 C   0  0  0  0  0  0  0  0  0  0  0  0
    8.6746   -5.9535    0.0000 C   0  0  0  0  0  0  0  0  0  0  0  0
    7.8500   -5.9778    0.0000 C   0  0  0  0  0  0  0  0  0  0  0  0
    7.8932   -7.4055    0.0000 C   0  0  0  0  0  0  0  0  0  0  0  0
    8.7179   -7.3812    0.0000 C   0  0  0  0  0  0  0  0  0  0  0  0
    7.0895   -7.4173    0.0000 O   0  0  0  0  0  0  0  0  0  0  0  0
    9.5638   -7.3687    0.0000 O   0  0  0  0  0  0  0  0  0  0  0  0
    6.3389   -9.5868    0.0000 C   0  0  0  0  0  0  0  0  0  0  0  0
    7.1306   -9.8185    0.0000 O   0  0  0  0  0  0  0  0  0  0  0  0
    6.7293  -11.1899    0.0000 C   0  0  0  0  0  0  0  0  0  0  0  0
    9.2355  -10.9398    0.0000 C   0  0  0  0  0  0  0  0  0  0  0  0
    5.7396   -6.8012    0.0000 H   0  0  0  0  0  0  0  0  0  0  0  0
    7.0350   -8.8996    0.0000 H   0  0  0  0  0  0  0  0  0  0  0  0
    5.3410  -11.5280    0.0000 C   0  0  0  0  0  0  0  0  0  0  0  0
    5.9375  -10.9582    0.0000 N   0  0  0  0  0  0  0  0  0  0  0  0
    4.5492  -11.2963    0.0000 C   0  0  0  0  0  0  0  0  0  0  0  0
    3.5621  -10.2631    0.0000 C   0  0  0  0  0  0  0  0  0  0  0  0
    4.3539  -10.4948    0.0000 C   0  0  0  0  0  0  0  0  0  0  0  0
    4.9505   -9.9249    0.0000 C   0  0  0  0  0  0  0  0  0  0  0  0
    5.7423  -10.1566    0.0000 C   0  0  1  0  0  0  0  0  0  0  0  0
    8.8021  -10.2378    0.0000 C   0  0  0  0  0  0  0  0  0  0  0  0
    9.1934   -9.5115    0.0000 C   0  0  2  0  0  0  0  0  0  0  0  0
   10.0180   -9.4872    0.0000 C   0  0  0  0  0  0  0  0  0  0  0  0
    8.3475   -9.5239    0.0000 H   0  0  0  0  0  0  0  0  0  0  0  0
 34 29  1  1  0  0  0
 29 24  1  0  0  0  0
 29 28  1  0  0  0  0
 32 30  1  0  0  0  0
 32 31  1  0  0  0  0
 33 32  1  0  0  0  0
 34 33  1  0  0  0  0
 35 25  1  0  0  0  0
 36 35  1  0  0  0  0
 36 37  1  1  0  0  0
  1  2  1  0  0  0  0
  2  3  1  0  0  0  0
  3  4  1  0  0  0  0
  4  5  1  0  0  0  0
  5  6  1  0  0  0  0
  6  7  1  0  0  0  0
  7  8  1  0  0  0  0
  8  9  1  0  0  0  0
 10  9  1  0  0  0  0
 10 11  1  0  0  0  0
 11 12  1  0  0  0  0
 12 13  1  0  0  0  0
 13 14  2  0  0  0  0
 14 15  1  0  0  0  0
 15 16  1  0  0  0  0
 16 17  2  0  0  0  0
 18 19  1  0  0  0  0
  1 17  1  0  0  0  0
  1 18  2  0  0  0  0
 19 15  2  0  0  0  0
  3  7  1  0  0  0  0
  8 20  2  0  0  0  0
 11 21  2  0  0  0  0
 22 34  1  0  0  0  0
 22 23  2  0  0  0  0
  6 22  1  0  0  0  0
 10 36  1  0  0  0  0
  3 26  1  1  0  0  0
  7 27  1  6  0  0  0
 10 38  1  1  0  0  0
M  END
>  <cdx:fragmentId>
57416

$$$$
