44720381.cdx
  Mrv1902 05222410212D          

 19 20  0  0  0  0            999 V2000
    8.3434  -14.3885    0.0000 C   0  0  0  0  0  0  0  0  0  0  0  0
    8.3434  -15.2135    0.0000 C   0  0  0  0  0  0  0  0  0  0  0  0
    7.6289  -15.6260    0.0000 C   0  0  0  0  0  0  0  0  0  0  0  0
    6.9145  -15.2135    0.0000 C   0  0  0  0  0  0  0  0  0  0  0  0
    6.9145  -14.3885    0.0000 C   0  0  0  0  0  0  0  0  0  0  0  0
    7.6289  -13.9760    0.0000 C   0  0  0  0  0  0  0  0  0  0  0  0
    9.0579  -13.9760    0.0000 O   0  0  0  0  0  0  0  0  0  0  0  0
    6.2000  -15.6260    0.0000 C   0  0  0  0  0  0  0  0  0  0  0  0
    6.2000  -16.4510    0.0000 C   0  0  0  0  0  0  0  0  0  0  0  0
    5.4855  -16.8635    0.0000 C   0  0  0  0  0  0  0  0  0  0  0  0
    4.7710  -16.4510    0.0000 C   0  0  0  0  0  0  0  0  0  0  0  0
    4.7710  -15.6260    0.0000 C   0  0  0  0  0  0  0  0  0  0  0  0
    5.4855  -15.2135    0.0000 C   0  0  0  0  0  0  0  0  0  0  0  0
    6.9145  -16.8635    0.0000 O   0  0  0  0  0  0  0  0  0  0  0  0
    7.6289  -16.4510    0.0000 C   0  0  0  0  0  0  0  0  0  0  0  0
    7.6289  -13.1510    0.0000 O   0  0  0  0  0  0  0  0  0  0  0  0
    8.3434  -12.7385    0.0000 C   0  0  0  0  0  0  0  0  0  0  0  0
    9.0579  -15.6260    0.0000 O   0  0  0  0  0  0  0  0  0  0  0  0
    9.7723  -15.2135    0.0000 C   0  0  0  0  0  0  0  0  0  0  0  0
  1  2  1  0  0  0  0
  2  3  2  0  0  0  0
  3  4  1  0  0  0  0
  4  5  2  0  0  0  0
  5  6  1  0  0  0  0
  1  6  2  0  0  0  0
  1  7  1  0  0  0  0
  8  9  1  0  0  0  0
  9 10  2  0  0  0  0
 10 11  1  0  0  0  0
 11 12  2  0  0  0  0
 12 13  1  0  0  0  0
  8 13  2  0  0  0  0
 14 15  1  0  0  0  0
  9 14  1  0  0  0  0
  4  8  1  0  0  0  0
 16 17  1  0  0  0  0
  6 16  1  0  0  0  0
 18 19  1  0  0  0  0
  2 18  1  0  0  0  0
M  END
>  <cdx:groupId>
172102

>  <cdx:fragmentId>
172061

$$$$
