720662.cdx
  Mrv1902 05222410272D          

 56 60  0  0  0  0            999 V2000
    2.6936   -8.2556    0.0000 C   0  0  0  0  0  0  0  0  0  0  0  0
    3.4249   -7.0280    0.0000 O   0  0  0  0  0  0  0  0  0  0  0  0
    3.4137   -7.8529    0.0000 C   0  0  0  0  0  0  0  0  0  0  0  0
    4.1224   -8.2751    0.0000 O   0  0  0  0  0  0  0  0  0  0  0  0
    4.8425   -7.8724    0.0000 C   0  0  0  0  0  0  0  0  0  0  0  0
    9.1064   -9.5808    0.0000 C   0  0  0  0  0  0  0  0  0  0  0  0
    9.8377   -8.3532    0.0000 O   0  0  0  0  0  0  0  0  0  0  0  0
    9.1176   -8.7559    0.0000 C   0  0  0  0  0  0  0  0  0  0  0  0
    8.4089   -8.3337    0.0000 O   0  0  0  0  0  0  0  0  0  0  0  0
    8.4201   -7.5088    0.0000 C   0  0  0  0  0  0  0  0  0  0  0  0
    8.5885   -4.7754    0.0000 O   0  0  0  0  0  0  0  0  0  0  0  0
   10.4849   -5.8561    0.0000 C   0  0  0  0  0  0  0  0  0  0  0  0
   11.2941   -5.6956    0.0000 C   0  0  0  0  0  0  0  0  0  0  0  0
   11.5598   -4.9145    0.0000 C   0  0  0  0  0  0  0  0  0  0  0  0
   11.0162   -4.2939    0.0000 C   0  0  0  0  0  0  0  0  0  0  0  0
   10.2069   -4.4544    0.0000 C   0  0  0  0  0  0  0  0  0  0  0  0
    9.9413   -5.2355    0.0000 C   0  0  0  0  0  0  0  0  0  0  0  0
    9.1321   -5.3960    0.0000 C   0  0  0  0  0  0  0  0  0  0  0  0
    8.8664   -6.1770    0.0000 O   0  0  0  0  0  0  0  0  0  0  0  0
    7.5491   -4.9579    0.0000 O   0  0  0  0  0  0  0  0  0  0  0  0
    5.9076   -5.0125    0.0000 O   0  0  0  0  0  0  0  0  0  0  0  0
    5.9826   -5.8340    0.0000 C   0  0  0  0  0  0  0  0  0  0  0  0
    6.7317   -6.1799    0.0000 C   0  0  2  0  0  0  0  0  0  0  0  0
    7.4517   -5.7772    0.0000 C   0  0  2  0  0  0  0  0  0  0  0  0
    8.0572   -6.3375    0.0000 C   0  0  1  0  0  0  0  0  0  0  0  0
    7.7114   -7.0865    0.0000 C   0  0  2  0  0  0  0  0  0  0  0  0
    6.8921   -6.9891    0.0000 O   0  0  0  0  0  0  0  0  0  0  0  0
    7.7001   -7.9115    0.0000 O   0  0  0  0  0  0  0  0  0  0  0  0
    6.2375  -10.3667    0.0000 O   0  0  0  0  0  0  0  0  0  0  0  0
    9.0951  -10.4058    0.0000 O   0  0  0  0  0  0  0  0  0  0  0  0
    9.0726  -12.0556    0.0000 O   0  0  0  0  0  0  0  0  0  0  0  0
    7.6325  -12.8610    0.0000 O   0  0  0  0  0  0  0  0  0  0  0  0
    6.2037  -12.8415    0.0000 O   0  0  0  0  0  0  0  0  0  0  0  0
    6.2149  -12.0166    0.0000 C   0  0  0  0  0  0  0  0  0  0  0  0
    6.9350  -11.6139    0.0000 C   0  0  2  0  0  0  0  0  0  0  0  0
    7.6438  -12.0361    0.0000 C   0  0  2  0  0  0  0  0  0  0  0  0
    8.3638  -11.6334    0.0000 C   0  0  1  0  0  0  0  0  0  0  0  0
    8.3751  -10.8085    0.0000 C   0  0  2  0  0  0  0  0  0  0  0  0
    7.6663  -10.3862    0.0000 C   0  0  1  0  0  0  0  0  0  0  0  0
    6.9463  -10.7889    0.0000 O   0  0  0  0  0  0  0  0  0  0  0  0
    7.6776   -9.5613    0.0000 O   0  0  0  0  0  0  0  0  0  0  0  0
    6.9801   -8.3142    0.0000 C   0  0  2  0  0  0  0  0  0  0  0  0
    6.9688   -9.1391    0.0000 C   0  0  1  0  0  0  0  0  0  0  0  0
    6.2488   -9.5418    0.0000 C   0  0  2  0  0  0  0  0  0  0  0  0
    5.5400   -9.1196    0.0000 C   0  0  1  0  0  0  0  0  0  0  0  0
    5.5513   -8.2946    0.0000 C   0  0  2  0  0  0  0  0  0  0  0  0
    6.2713   -7.8919    0.0000 O   0  0  0  0  0  0  0  0  0  0  0  0
    4.8199   -9.5223    0.0000 O   0  0  0  0  0  0  0  0  0  0  0  0
    5.5174  -10.7694    0.0000 O   0  0  0  0  0  0  0  0  0  0  0  0
    4.0774  -11.5748    0.0000 C   0  0  0  0  0  0  0  0  0  0  0  0
    3.3573  -11.9775    0.0000 C   0  0  0  0  0  0  0  0  0  0  0  0
    2.6486  -11.5553    0.0000 C   0  0  0  0  0  0  0  0  0  0  0  0
    2.6598  -10.7304    0.0000 C   0  0  0  0  0  0  0  0  0  0  0  0
    3.3799  -10.3277    0.0000 C   0  0  0  0  0  0  0  0  0  0  0  0
    4.0886  -10.7499    0.0000 C   0  0  0  0  0  0  0  0  0  0  0  0
    4.8087  -10.3472    0.0000 C   0  0  0  0  0  0  0  0  0  0  0  0
 45 48  1  6  0  0  0
 46  5  1  1  0  0  0
  5  4  1  0  0  0  0
  4  3  1  0  0  0  0
  3  1  1  0  0  0  0
  3  2  2  0  0  0  0
 42 28  1  6  0  0  0
 26 28  1  6  0  0  0
 26 10  1  1  0  0  0
 10  9  1  0  0  0  0
  9  8  1  0  0  0  0
  8  6  1  0  0  0  0
  8  7  2  0  0  0  0
 25 19  1  6  0  0  0
 19 18  1  0  0  0  0
 18 11  2  0  0  0  0
 17 12  2  0  0  0  0
 13 12  1  0  0  0  0
 14 13  2  0  0  0  0
 15 14  1  0  0  0  0
 16 15  2  0  0  0  0
 17 16  1  0  0  0  0
 18 17  1  0  0  0  0
 24 20  1  1  0  0  0
 23 22  1  6  0  0  0
 22 21  1  0  0  0  0
 27 23  1  0  0  0  0
 24 23  1  0  0  0  0
 25 24  1  0  0  0  0
 26 25  1  0  0  0  0
 27 26  1  0  0  0  0
 44 29  1  1  0  0  0
 43 41  1  6  0  0  0
 39 41  1  1  0  0  0
 38 30  1  6  0  0  0
 37 31  1  1  0  0  0
 36 32  1  6  0  0  0
 35 34  1  1  0  0  0
 34 33  1  0  0  0  0
 40 35  1  0  0  0  0
 36 35  1  0  0  0  0
 37 36  1  0  0  0  0
 38 37  1  0  0  0  0
 39 38  1  0  0  0  0
 40 39  1  0  0  0  0
 47 42  1  0  0  0  0
 43 42  1  0  0  0  0
 44 43  1  0  0  0  0
 45 44  1  0  0  0  0
 46 45  1  0  0  0  0
 47 46  1  0  0  0  0
 56 48  1  0  0  0  0
 56 49  2  0  0  0  0
 55 50  2  0  0  0  0
 51 50  1  0  0  0  0
 52 51  2  0  0  0  0
 53 52  1  0  0  0  0
 54 53  2  0  0  0  0
 55 54  1  0  0  0  0
 56 55  1  0  0  0  0
M  END
>  <cdx:fragmentId>
123229

$$$$
