129720749.cdx
  Mrv1902 05222410242D          

 14 14  0  0  0  0            999 V2000
   14.3286   -9.8529    0.0000 C   0  0  0  0  0  0  0  0  0  0  0  0
   13.6141  -10.2654    0.0000 C   0  0  2  0  0  0  0  0  0  0  0  0
   14.3286   -9.0279    0.0000 O   0  0  0  0  0  0  0  0  0  0  0  0
   15.0430  -10.2654    0.0000 O   0  0  0  0  0  0  0  0  0  0  0  0
   12.8996   -9.8529    0.0000 C   0  0  0  0  0  0  0  0  0  0  0  0
   12.8996   -9.0279    0.0000 C   0  0  0  0  0  0  0  0  0  0  0  0
   12.1852   -8.6154    0.0000 C   0  0  0  0  0  0  0  0  0  0  0  0
   11.4707   -9.0279    0.0000 C   0  0  0  0  0  0  0  0  0  0  0  0
   11.4707   -9.8529    0.0000 C   0  0  0  0  0  0  0  0  0  0  0  0
   12.1852  -10.2654    0.0000 C   0  0  0  0  0  0  0  0  0  0  0  0
   13.6141  -11.0904    0.0000 O   0  0  0  0  0  0  0  0  0  0  0  0
   15.7575   -9.8529    0.0000 C   0  0  0  0  0  0  0  0  0  0  0  0
   16.4720  -10.2654    0.0000 C   0  0  0  0  0  0  0  0  0  0  0  0
   17.1865   -9.8529    0.0000 D   0  0  0  0  0  0  0  0  0  0  0  0
  1  2  1  0  0  0  0
  1  3  2  0  0  0  0
  1  4  1  0  0  0  0
  5  6  1  0  0  0  0
  6  7  2  0  0  0  0
  7  8  1  0  0  0  0
  8  9  2  0  0  0  0
  9 10  1  0  0  0  0
  5 10  2  0  0  0  0
  2  5  1  0  0  0  0
  2 11  1  1  0  0  0
 12 13  1  0  0  0  0
 13 14  1  0  0  0  0
  4 12  1  0  0  0  0
M  END
>  <cdx:groupId>
55302

>  <cdx:fragmentId>
55271

$$$$
