24720988.cdx
  Mrv1902 05222410212D          

 69 75  0  0  0  0            999 V2000
   16.2174   -9.6909    0.0000 O   0  0  0  0  0  0  0  0  0  0  0  0
   16.7694  -10.3040    0.0000 C   0  0  1  0  0  0  0  0  0  0  0  0
   16.5145  -11.0886    0.0000 C   0  0  2  0  0  0  0  0  0  0  0  0
   15.7075  -11.2601    0.0000 C   0  0  1  0  0  0  0  0  0  0  0  0
   15.1555  -10.6470    0.0000 C   0  0  2  0  0  0  0  0  0  0  0  0
   15.4104   -9.8624    0.0000 C   0  0  2  0  0  0  0  0  0  0  0  0
   17.0665  -11.7017    0.0000 O   0  0  0  0  0  0  0  0  0  0  0  0
   15.4526  -12.0448    0.0000 O   0  0  0  0  0  0  0  0  0  0  0  0
   14.3485  -10.8186    0.0000 O   0  0  0  0  0  0  0  0  0  0  0  0
   14.8584   -9.2493    0.0000 O   0  0  0  0  0  0  0  0  0  0  0  0
   14.0514   -9.4209    0.0000 C   0  0  0  0  0  0  0  0  0  0  0  0
   12.6924   -8.9793    0.0000 O   0  0  0  0  0  0  0  0  0  0  0  0
   13.4994   -8.8078    0.0000 C   0  0  1  0  0  0  0  0  0  0  0  0
   13.7543   -8.0231    0.0000 C   0  0  2  0  0  0  0  0  0  0  0  0
   13.2023   -7.4100    0.0000 C   0  0  1  0  0  0  0  0  0  0  0  0
   12.3953   -7.5816    0.0000 C   0  0  2  0  0  0  0  0  0  0  0  0
   12.1404   -8.3662    0.0000 C   0  0  2  0  0  0  0  0  0  0  0  0
   11.3334   -8.5377    0.0000 O   0  0  0  0  0  0  0  0  0  0  0  0
   12.4375   -9.7639    0.0000 C   0  0  0  0  0  0  0  0  0  0  0  0
   11.6305   -9.9354    0.0000 C   0  0  0  0  0  0  0  0  0  0  0  0
   11.0785   -9.3223    0.0000 C   0  0  1  0  0  0  0  0  0  0  0  0
   10.2715   -9.4939    0.0000 C   0  0  0  0  0  0  0  0  0  0  0  0
   10.0166  -10.2785    0.0000 C   0  0  0  0  0  0  0  0  0  0  0  0
    9.2096  -10.4500    0.0000 C   0  0  1  0  0  0  0  0  0  0  0  0
    8.6576   -9.8369    0.0000 C   0  0  0  0  0  0  0  0  0  0  0  0
   11.3756  -10.7201    0.0000 C   0  0  0  0  0  0  0  0  0  0  0  0
    5.3122  -12.3146    0.0000 C   0  0  0  0  0  0  0  0  0  0  0  0
    4.5977  -12.7271    0.0000 C   0  0  0  0  0  0  0  0  0  0  0  0
    4.5977  -13.5521    0.0000 C   0  0  1  0  0  0  0  0  0  0  0  0
    5.3122  -13.9646    0.0000 C   0  0  0  0  0  0  0  0  0  0  0  0
    6.0266  -13.5521    0.0000 C   0  0  0  0  0  0  0  0  0  0  0  0
    6.7411  -13.9646    0.0000 C   0  0  0  0  0  0  0  0  0  0  0  0
    7.4556  -13.5521    0.0000 C   0  0  0  0  0  0  0  0  0  0  0  0
    7.4556  -12.7271    0.0000 C   0  0  1  0  0  0  0  0  0  0  0  0
    8.1700  -12.3146    0.0000 C   0  0  2  0  0  0  0  0  0  0  0  0
    8.9547  -12.5695    0.0000 C   0  0  0  0  0  0  0  0  0  0  0  0
    9.4396  -11.9021    0.0000 C   0  0  0  0  0  0  0  0  0  0  0  0
    8.9547  -11.2346    0.0000 C   0  0  1  0  0  0  0  0  0  0  0  0
    8.1700  -11.4896    0.0000 C   0  0  1  0  0  0  0  0  0  0  0  0
    7.4556  -11.0771    0.0000 C   0  0  0  0  0  0  0  0  0  0  0  0
    6.7411  -11.4896    0.0000 C   0  0  2  0  0  0  0  0  0  0  0  0
    6.7411  -12.3146    0.0000 C   0  0  1  0  0  0  0  0  0  0  0  0
    6.0266  -12.7271    0.0000 C   0  0  2  0  0  0  0  0  0  0  0  0
    3.8832  -13.9646    0.0000 O   0  0  0  0  0  0  0  0  0  0  0  0
    2.4543  -13.9646    0.0000 O   0  0  0  0  0  0  0  0  0  0  0  0
    3.1687  -13.5521    0.0000 C   0  0  2  0  0  0  0  0  0  0  0  0
    3.1687  -12.7271    0.0000 C   0  0  1  0  0  0  0  0  0  0  0  0
    2.4543  -12.3146    0.0000 C   0  0  2  0  0  0  0  0  0  0  0  0
    1.7398  -12.7271    0.0000 C   0  0  1  0  0  0  0  0  0  0  0  0
    1.7398  -13.5521    0.0000 C   0  0  1  0  0  0  0  0  0  0  0  0
    1.0253  -13.9646    0.0000 C   0  0  0  0  0  0  0  0  0  0  0  0
    0.3109  -13.5521    0.0000 O   0  0  0  0  0  0  0  0  0  0  0  0
    1.0253  -12.3146    0.0000 O   0  0  0  0  0  0  0  0  0  0  0  0
    2.4543  -11.4896    0.0000 O   0  0  0  0  0  0  0  0  0  0  0  0
    3.8832  -12.3146    0.0000 O   0  0  0  0  0  0  0  0  0  0  0  0
    8.1700  -13.1396    0.0000 C   0  0  0  0  0  0  0  0  0  0  0  0
    8.2563  -10.6691    0.0000 C   0  0  0  0  0  0  0  0  0  0  0  0
    6.7411  -13.1396    0.0000 C   0  0  0  0  0  0  0  0  0  0  0  0
    5.7247  -14.6791    0.0000 C   0  0  0  0  0  0  0  0  0  0  0  0
    4.8997  -14.6791    0.0000 C   0  0  0  0  0  0  0  0  0  0  0  0
    6.0266  -11.0771    0.0000 O   0  0  0  0  0  0  0  0  0  0  0  0
   12.1825  -10.5485    0.0000 O   0  0  0  0  0  0  0  0  0  0  0  0
   11.8433   -6.9685    0.0000 O   0  0  0  0  0  0  0  0  0  0  0  0
   13.4572   -6.6254    0.0000 O   0  0  0  0  0  0  0  0  0  0  0  0
   14.5613   -7.8516    0.0000 O   0  0  0  0  0  0  0  0  0  0  0  0
   17.5764  -10.1325    0.0000 C   0  0  0  0  0  0  0  0  0  0  0  0
   18.1284  -10.7456    0.0000 O   0  0  0  0  0  0  0  0  0  0  0  0
    7.4556  -11.9021    0.0000 H   0  0  0  0  0  0  0  0  0  0  0  0
    6.0266  -11.9021    0.0000 H   0  0  0  0  0  0  0  0  0  0  0  0
  1  2  1  0  0  0  0
  2  3  1  0  0  0  0
  3  4  1  0  0  0  0
  4  5  1  0  0  0  0
  5  6  1  0  0  0  0
  1  6  1  0  0  0  0
  3  7  1  1  0  0  0
  4  8  1  6  0  0  0
  5  9  1  1  0  0  0
 10 11  1  0  0  0  0
 12 13  1  0  0  0  0
 13 14  1  0  0  0  0
 14 15  1  0  0  0  0
 15 16  1  0  0  0  0
 16 17  1  0  0  0  0
 12 17  1  0  0  0  0
 19 20  1  0  0  0  0
 20 21  1  0  0  0  0
 21 22  1  0  0  0  0
 22 23  1  0  0  0  0
 23 24  1  0  0  0  0
 24 25  1  6  0  0  0
 20 26  1  0  0  0  0
 27 28  1  0  0  0  0
 28 29  1  0  0  0  0
 29 30  1  0  0  0  0
 30 31  1  0  0  0  0
 31 32  2  0  0  0  0
 32 33  1  0  0  0  0
 33 34  1  0  0  0  0
 34 35  1  0  0  0  0
 35 36  1  0  0  0  0
 36 37  1  0  0  0  0
 38 37  1  1  0  0  0
 38 39  1  0  0  0  0
 35 39  1  0  0  0  0
 39 40  1  0  0  0  0
 40 41  1  0  0  0  0
 41 42  1  0  0  0  0
 34 42  1  0  0  0  0
 42 43  1  0  0  0  0
 31 43  1  0  0  0  0
 27 43  1  0  0  0  0
 45 46  1  0  0  0  0
 46 47  1  0  0  0  0
 47 48  1  0  0  0  0
 48 49  1  0  0  0  0
 49 50  1  0  0  0  0
 45 50  1  0  0  0  0
 51 52  1  0  0  0  0
 50 51  1  6  0  0  0
 49 53  1  1  0  0  0
 48 54  1  6  0  0  0
 47 55  1  1  0  0  0
 46 44  1  6  0  0  0
 29 44  1  1  0  0  0
 35 56  1  6  0  0  0
 39 57  1  1  0  0  0
 42 58  1  1  0  0  0
 30 59  1  0  0  0  0
 30 60  1  0  0  0  0
 41 61  1  6  0  0  0
 24 38  1  0  0  0  0
 20 62  1  0  0  0  0
 21 18  1  1  0  0  0
 17 18  1  1  0  0  0
 16 63  1  6  0  0  0
 15 64  1  1  0  0  0
 14 65  1  6  0  0  0
 13 11  1  1  0  0  0
  6 10  1  6  0  0  0
 66 67  1  0  0  0  0
  2 66  1  6  0  0  0
 34 68  1  1  0  0  0
 43 69  1  6  0  0  0
M  END
>  <cdx:groupId>
2067

>  <cdx:fragmentId>
1909

$$$$
