721104.cdx
  Mrv1902 05222410232D          

 58 65  0  0  0  0            999 V2000
    3.2661   -8.8725    0.0000 O   0  0  0  0  0  0  0  0  0  0  0  0
    3.2661   -9.6975    0.0000 C   0  0  2  0  0  0  0  0  0  0  0  0
    2.5516  -10.1100    0.0000 C   0  0  1  0  0  0  0  0  0  0  0  0
    1.8371   -9.6975    0.0000 C   0  0  2  0  0  0  0  0  0  0  0  0
    1.8371   -8.8725    0.0000 C   0  0  1  0  0  0  0  0  0  0  0  0
    2.5516   -8.4600    0.0000 C   0  0  1  0  0  0  0  0  0  0  0  0
    2.5516  -10.9350    0.0000 O   0  0  0  0  0  0  0  0  0  0  0  0
    1.1226  -10.1100    0.0000 O   0  0  0  0  0  0  0  0  0  0  0  0
    1.1226   -8.4600    0.0000 O   0  0  0  0  0  0  0  0  0  0  0  0
    2.5516   -7.6350    0.0000 C   0  0  0  0  0  0  0  0  0  0  0  0
    1.8371   -7.2225    0.0000 O   0  0  0  0  0  0  0  0  0  0  0  0
    3.9805  -10.1100    0.0000 O   0  0  0  0  0  0  0  0  0  0  0  0
    6.1239   -8.8725    0.0000 O   0  0  0  0  0  0  0  0  0  0  0  0
    6.1239   -9.6975    0.0000 C   0  0  2  0  0  0  0  0  0  0  0  0
    5.4095  -10.1100    0.0000 C   0  0  1  0  0  0  0  0  0  0  0  0
    4.6950   -9.6975    0.0000 C   0  0  2  0  0  0  0  0  0  0  0  0
    4.6950   -8.8725    0.0000 C   0  0  2  0  0  0  0  0  0  0  0  0
    5.4095   -8.4600    0.0000 C   0  0  1  0  0  0  0  0  0  0  0  0
    5.4095   -7.6350    0.0000 C   0  0  0  0  0  0  0  0  0  0  0  0
    6.8384  -10.1100    0.0000 O   0  0  0  0  0  0  0  0  0  0  0  0
   12.5542   -7.6350    0.0000 C   0  0  0  0  0  0  0  0  0  0  0  0
   12.5542   -8.4600    0.0000 C   0  0  2  0  0  0  0  0  0  0  0  0
   11.8397   -8.8725    0.0000 C   0  0  0  0  0  0  0  0  0  0  0  0
   11.1252   -8.4600    0.0000 C   0  0  1  0  0  0  0  0  0  0  0  0
   10.4108   -8.8725    0.0000 C   0  0  2  0  0  0  0  0  0  0  0  0
   10.4108   -9.6975    0.0000 C   0  0  0  0  0  0  0  0  0  0  0  0
    9.6963  -10.1100    0.0000 C   0  0  0  0  0  0  0  0  0  0  0  0
    8.9818   -9.6975    0.0000 C   0  0  1  0  0  0  0  0  0  0  0  0
    8.2674  -10.1100    0.0000 C   0  0  2  0  0  0  0  0  0  0  0  0
    7.5529   -9.6975    0.0000 C   0  0  2  0  0  0  0  0  0  0  0  0
    7.5529   -8.8725    0.0000 C   0  0  0  0  0  0  0  0  0  0  0  0
    8.2674   -8.4600    0.0000 C   0  0  0  0  0  0  0  0  0  0  0  0
    8.9818   -8.8725    0.0000 C   0  0  2  0  0  0  0  0  0  0  0  0
    9.6963   -8.4600    0.0000 C   0  0  1  0  0  0  0  0  0  0  0  0
    9.6963   -7.6350    0.0000 C   0  0  0  0  0  0  0  0  0  0  0  0
   10.4108   -7.2225    0.0000 C   0  0  0  0  0  0  0  0  0  0  0  0
   11.1252   -7.6350    0.0000 C   0  0  0  0  0  0  0  0  0  0  0  0
   11.8397   -7.2225    0.0000 C   0  0  2  0  0  0  0  0  0  0  0  0
   11.8397   -6.3975    0.0000 C   0  0  0  0  0  0  0  0  0  0  0  0
   12.5542   -5.9850    0.0000 C   0  0  0  0  0  0  0  0  0  0  0  0
   13.2687   -6.3975    0.0000 C   0  0  0  0  0  0  0  0  0  0  0  0
   13.2687   -7.2225    0.0000 C   0  0  0  0  0  0  0  0  0  0  0  0
   12.1417   -5.2705    0.0000 C   0  0  0  0  0  0  0  0  0  0  0  0
   12.9667   -5.2705    0.0000 C   0  0  0  0  0  0  0  0  0  0  0  0
    8.9818   -8.0475    0.0000 C   0  0  0  0  0  0  0  0  0  0  0  0
    7.8549  -10.8244    0.0000 C   0  0  0  0  0  0  0  0  0  0  0  0
   10.4108   -8.0475    0.0000 C   0  0  0  0  0  0  0  0  0  0  0  0
   11.1252   -9.2850    0.0000 C   0  0  0  0  0  0  0  0  0  0  0  0
    8.6799  -10.8244    0.0000 C   0  0  0  0  0  0  0  0  0  0  0  0
    8.2674  -11.5389    0.0000 O   0  0  0  0  0  0  0  0  0  0  0  0
   13.2687   -8.8725    0.0000 O   0  0  0  0  0  0  0  0  0  0  0  0
    3.9805   -8.4600    0.0000 O   0  0  0  0  0  0  0  0  0  0  0  0
    5.4095  -10.9350    0.0000 O   0  0  0  0  0  0  0  0  0  0  0  0
   11.1252   -6.8100    0.0000 O   0  0  0  0  0  0  0  0  0  0  0  0
   12.5542   -6.8100    0.0000 C   0  0  0  0  0  0  0  0  0  0  0  0
    8.9818  -10.5225    0.0000 H   0  0  0  0  0  0  0  0  0  0  0  0
    9.6963   -9.2850    0.0000 H   0  0  0  0  0  0  0  0  0  0  0  0
   11.8397   -8.0475    0.0000 H   0  0  0  0  0  0  0  0  0  0  0  0
  1  2  1  0  0  0  0
  2  3  1  0  0  0  0
  3  4  1  0  0  0  0
  4  5  1  0  0  0  0
  5  6  1  0  0  0  0
  1  6  1  0  0  0  0
  3  7  1  6  0  0  0
  4  8  1  1  0  0  0
  5  9  1  6  0  0  0
 10 11  1  0  0  0  0
  6 10  1  1  0  0  0
 13 14  1  0  0  0  0
 14 15  1  0  0  0  0
 15 16  1  0  0  0  0
 16 17  1  0  0  0  0
 17 18  1  0  0  0  0
 13 18  1  0  0  0  0
 18 19  1  1  0  0  0
 21 22  1  0  0  0  0
 22 23  1  0  0  0  0
 23 24  1  0  0  0  0
 24 25  1  0  0  0  0
 25 26  1  0  0  0  0
 26 27  1  0  0  0  0
 27 28  1  0  0  0  0
 28 29  1  0  0  0  0
 29 30  1  0  0  0  0
 30 31  1  0  0  0  0
 31 32  1  0  0  0  0
 32 33  1  0  0  0  0
 33 34  1  0  0  0  0
 34 35  1  0  0  0  0
 35 36  2  0  0  0  0
 36 37  1  0  0  0  0
 37 38  1  0  0  0  0
 38 39  1  0  0  0  0
 39 40  1  0  0  0  0
 40 41  1  0  0  0  0
 41 42  1  0  0  0  0
 21 42  1  0  0  0  0
 21 38  1  0  0  0  0
 24 37  1  0  0  0  0
 25 34  1  0  0  0  0
 28 33  1  0  0  0  0
 40 43  1  0  0  0  0
 40 44  1  0  0  0  0
 33 45  1  1  0  0  0
 29 46  1  1  0  0  0
 25 47  1  1  0  0  0
 24 48  1  6  0  0  0
 49 50  1  0  0  0  0
 29 49  1  6  0  0  0
 22 51  1  1  0  0  0
 30 20  1  1  0  0  0
 14 20  1  1  0  0  0
 17 52  1  1  0  0  0
 15 53  1  6  0  0  0
 16 12  1  1  0  0  0
  2 12  1  1  0  0  0
 37 54  1  0  0  0  0
 21 55  1  0  0  0  0
 55 54  1  0  0  0  0
 28 56  1  6  0  0  0
 34 57  1  6  0  0  0
 38 58  1  1  0  0  0
M  END
>  <cdx:fragmentId>
45

$$$$
