721256.cdx
  Mrv1902 05222410232D          

 28 31  0  0  0  0            999 V2000
    6.1044   -7.6912    0.0000 O   0  0  0  0  0  0  0  0  0  0  0  0
    6.8188   -8.1037    0.0000 C   0  0  2  0  0  0  0  0  0  0  0  0
    6.8188   -8.9287    0.0000 C   0  0  1  0  0  0  0  0  0  0  0  0
    6.1044   -9.3412    0.0000 C   0  0  2  0  0  0  0  0  0  0  0  0
    5.3899   -8.9287    0.0000 C   0  0  1  0  0  0  0  0  0  0  0  0
    5.3899   -8.1037    0.0000 C   0  0  1  0  0  0  0  0  0  0  0  0
    7.5333   -9.3412    0.0000 O   0  0  0  0  0  0  0  0  0  0  0  0
    6.1044  -10.1662    0.0000 O   0  0  0  0  0  0  0  0  0  0  0  0
    4.6754   -9.3412    0.0000 O   0  0  0  0  0  0  0  0  0  0  0  0
    4.6754   -7.6912    0.0000 C   0  0  0  0  0  0  0  0  0  0  0  0
    3.9610   -8.1037    0.0000 O   0  0  0  0  0  0  0  0  0  0  0  0
    7.5333   -7.6912    0.0000 O   0  0  0  0  0  0  0  0  0  0  0  0
    8.2478   -6.4537    0.0000 C   0  0  2  0  0  0  0  0  0  0  0  0
    9.0324   -6.7086    0.0000 C   0  0  1  0  0  0  0  0  0  0  0  0
    9.8529   -6.7949    0.0000 O   0  0  0  0  0  0  0  0  0  0  0  0
    9.5173   -6.0412    0.0000 C   0  0  1  0  0  0  0  0  0  0  0  0
    9.0324   -5.3738    0.0000 C   0  0  2  0  0  0  0  0  0  0  0  0
    8.2478   -5.6287    0.0000 C   0  0  2  0  0  0  0  0  0  0  0  0
    7.5333   -5.2162    0.0000 C   0  0  0  0  0  0  0  0  0  0  0  0
    6.8188   -5.6287    0.0000 C   0  0  0  0  0  0  0  0  0  0  0  0
    6.8188   -6.4537    0.0000 O   0  0  0  0  0  0  0  0  0  0  0  0
    7.5333   -6.8662    0.0000 C   0  0  1  0  0  0  0  0  0  0  0  0
    8.8609   -7.5156    0.0000 C   0  0  0  0  0  0  0  0  0  0  0  0
    9.2873   -4.5891    0.0000 O   0  0  0  0  0  0  0  0  0  0  0  0
    8.2478   -7.2787    0.0000 H   0  0  0  0  0  0  0  0  0  0  0  0
   10.2318   -5.6287    0.0000 H   0  0  0  0  0  0  0  0  0  0  0  0
    8.3340   -4.8082    0.0000 H   0  0  0  0  0  0  0  0  0  0  0  0
    9.4740   -8.0677    0.0000 O   0  0  0  0  0  0  0  0  0  0  0  0
  1  2  1  0  0  0  0
  2  3  1  0  0  0  0
  3  4  1  0  0  0  0
  4  5  1  0  0  0  0
  5  6  1  0  0  0  0
  1  6  1  0  0  0  0
  3  7  1  6  0  0  0
  4  8  1  1  0  0  0
  5  9  1  6  0  0  0
 10 11  1  0  0  0  0
  6 10  1  1  0  0  0
 13 14  1  0  0  0  0
 14 15  1  0  0  0  0
 15 16  1  0  0  0  0
 16 17  1  0  0  0  0
 17 18  1  0  0  0  0
 18 19  1  0  0  0  0
 19 20  2  0  0  0  0
 20 21  1  0  0  0  0
 21 22  1  0  0  0  0
 13 22  1  0  0  0  0
 13 18  1  0  0  0  0
 14 16  1  0  0  0  0
 14 23  1  1  0  0  0
 17 24  1  6  0  0  0
 22 12  1  6  0  0  0
  2 12  1  1  0  0  0
 13 25  1  6  0  0  0
 16 26  1  1  0  0  0
 18 27  1  6  0  0  0
 23 28  1  0  0  0  0
M  END
>  <cdx:fragmentId>
146540

$$$$
