24721282.cdx
  Mrv1902 05222410242D          

 61 67  0  0  0  0            999 V2000
   11.5982  -12.7843    0.0000 C   0  0  0  0  0  0  0  0  0  0  0  0
   12.3126  -12.3718    0.0000 C   0  0  1  0  0  0  0  0  0  0  0  0
   13.0271  -12.7843    0.0000 C   0  0  0  0  0  0  0  0  0  0  0  0
   13.0271  -13.6093    0.0000 C   0  0  0  0  0  0  0  0  0  0  0  0
   12.3126  -14.0218    0.0000 C   0  0  2  0  0  0  0  0  0  0  0  0
   12.3126  -14.8468    0.0000 C   0  0  0  0  0  0  0  0  0  0  0  0
   11.5982  -15.2593    0.0000 C   0  0  0  0  0  0  0  0  0  0  0  0
   10.8837  -14.8468    0.0000 C   0  0  1  0  0  0  0  0  0  0  0  0
   10.1692  -15.2593    0.0000 C   0  0  2  0  0  0  0  0  0  0  0  0
   10.1692  -16.0843    0.0000 C   0  0  0  0  0  0  0  0  0  0  0  0
    9.4548  -16.4968    0.0000 C   0  0  0  0  0  0  0  0  0  0  0  0
    8.7403  -16.0843    0.0000 C   0  0  1  0  0  0  0  0  0  0  0  0
    8.0258  -16.4968    0.0000 C   0  0  2  0  0  0  0  0  0  0  0  0
    7.3113  -16.0843    0.0000 C   0  0  2  0  0  0  0  0  0  0  0  0
    7.3113  -15.2593    0.0000 C   0  0  2  0  0  0  0  0  0  0  0  0
    8.0258  -14.8468    0.0000 C   0  0  0  0  0  0  0  0  0  0  0  0
    8.7403  -15.2593    0.0000 C   0  0  2  0  0  0  0  0  0  0  0  0
    9.4548  -14.8468    0.0000 C   0  0  1  0  0  0  0  0  0  0  0  0
    9.4548  -14.0218    0.0000 C   0  0  0  0  0  0  0  0  0  0  0  0
   10.1692  -13.6093    0.0000 C   0  0  0  0  0  0  0  0  0  0  0  0
   10.8837  -14.0218    0.0000 C   0  0  0  0  0  0  0  0  0  0  0  0
   11.5982  -13.6093    0.0000 C   0  0  2  0  0  0  0  0  0  0  0  0
   12.8429  -11.7398    0.0000 C   0  0  0  0  0  0  0  0  0  0  0  0
   12.5608  -10.9646    0.0000 O   0  0  0  0  0  0  0  0  0  0  0  0
   13.6554  -11.8831    0.0000 O   0  0  0  0  0  0  0  0  0  0  0  0
    7.6133  -17.2113    0.0000 C   0  0  0  0  0  0  0  0  0  0  0  0
   13.0271  -14.4343    0.0000 C   0  0  0  0  0  0  0  0  0  0  0  0
   11.7823  -11.7398    0.0000 C   0  0  0  0  0  0  0  0  0  0  0  0
   12.0645  -10.9646    0.0000 O   0  0  0  0  0  0  0  0  0  0  0  0
   10.9699  -11.8831    0.0000 O   0  0  0  0  0  0  0  0  0  0  0  0
   10.4396  -11.2511    0.0000 C   0  0  0  0  0  0  0  0  0  0  0  0
    8.4383  -17.2113    0.0000 C   0  0  0  0  0  0  0  0  0  0  0  0
    8.0258  -17.9258    0.0000 O   0  0  0  0  0  0  0  0  0  0  0  0
    6.5969  -14.8468    0.0000 O   0  0  0  0  0  0  0  0  0  0  0  0
    6.5969  -16.4968    0.0000 O   0  0  0  0  0  0  0  0  0  0  0  0
    5.8824  -15.2593    0.0000 O   0  0  0  0  0  0  0  0  0  0  0  0
    5.8824  -16.0843    0.0000 C   0  0  2  0  0  0  0  0  0  0  0  0
    5.1679  -16.4968    0.0000 C   0  0  1  0  0  0  0  0  0  0  0  0
    4.4535  -16.0843    0.0000 C   0  0  2  0  0  0  0  0  0  0  0  0
    4.4535  -15.2593    0.0000 C   0  0  1  0  0  0  0  0  0  0  0  0
    5.1679  -14.8468    0.0000 C   0  0  0  0  0  0  0  0  0  0  0  0
    3.7390  -14.8468    0.0000 O   0  0  0  0  0  0  0  0  0  0  0  0
    3.0245  -16.0843    0.0000 O   0  0  0  0  0  0  0  0  0  0  0  0
    3.0245  -15.2593    0.0000 C   0  0  2  0  0  0  0  0  0  0  0  0
    2.3100  -14.8468    0.0000 C   0  0  1  0  0  0  0  0  0  0  0  0
    1.5956  -15.2593    0.0000 C   0  0  2  0  0  0  0  0  0  0  0  0
    1.5956  -16.0843    0.0000 C   0  0  1  0  0  0  0  0  0  0  0  0
    2.3100  -16.4968    0.0000 C   0  0  1  0  0  0  0  0  0  0  0  0
    2.3100  -17.3218    0.0000 C   0  0  0  0  0  0  0  0  0  0  0  0
    1.5956  -17.7343    0.0000 O   0  0  0  0  0  0  0  0  0  0  0  0
    0.8811  -16.4968    0.0000 O   0  0  0  0  0  0  0  0  0  0  0  0
    0.8811  -14.8468    0.0000 O   0  0  0  0  0  0  0  0  0  0  0  0
    2.3100  -14.0218    0.0000 O   0  0  0  0  0  0  0  0  0  0  0  0
    3.7390  -16.4968    0.0000 O   0  0  0  0  0  0  0  0  0  0  0  0
    5.1679  -17.3218    0.0000 O   0  0  0  0  0  0  0  0  0  0  0  0
    8.7403  -16.9093    0.0000 H   0  0  0  0  0  0  0  0  0  0  0  0
   11.5982  -14.4343    0.0000 H   0  0  0  0  0  0  0  0  0  0  0  0
    8.7403  -14.4343    0.0000 C   0  0  0  0  0  0  0  0  0  0  0  0
   10.8837  -15.6718    0.0000 C   0  0  0  0  0  0  0  0  0  0  0  0
   11.2962  -15.5613    0.0000 C   0  0  0  0  0  0  0  0  0  0  0  0
   10.1692  -14.4343    0.0000 H   0  0  0  0  0  0  0  0  0  0  0  0
  1  2  1  0  0  0  0
  2  3  1  0  0  0  0
  3  4  1  0  0  0  0
  4  5  1  0  0  0  0
  5  6  1  0  0  0  0
  6  7  1  0  0  0  0
  7  8  1  0  0  0  0
  8  9  1  0  0  0  0
  9 10  1  0  0  0  0
 10 11  1  0  0  0  0
 11 12  1  0  0  0  0
 12 13  1  0  0  0  0
 13 14  1  0  0  0  0
 14 15  1  0  0  0  0
 15 16  1  0  0  0  0
 16 17  1  0  0  0  0
 12 17  1  0  0  0  0
 17 18  1  0  0  0  0
  9 18  1  0  0  0  0
 18 19  1  0  0  0  0
 19 20  1  0  0  0  0
 20 21  2  0  0  0  0
  8 21  1  0  0  0  0
 21 22  1  0  0  0  0
  5 22  1  0  0  0  0
  1 22  1  0  0  0  0
 23 24  2  0  0  0  0
 23 25  1  0  0  0  0
  2 23  1  6  0  0  0
 13 26  1  1  0  0  0
  5 27  1  1  0  0  0
 28 29  2  0  0  0  0
 30 31  1  0  0  0  0
 28 30  1  0  0  0  0
  2 28  1  1  0  0  0
 32 33  1  0  0  0  0
 13 32  1  6  0  0  0
 15 34  1  1  0  0  0
 36 37  1  0  0  0  0
 37 38  1  0  0  0  0
 38 39  1  0  0  0  0
 39 40  1  0  0  0  0
 40 41  1  0  0  0  0
 36 41  1  0  0  0  0
 43 44  1  0  0  0  0
 44 45  1  0  0  0  0
 45 46  1  0  0  0  0
 46 47  1  0  0  0  0
 47 48  1  0  0  0  0
 43 48  1  0  0  0  0
 49 50  1  0  0  0  0
 48 49  1  6  0  0  0
 47 51  1  1  0  0  0
 46 52  1  6  0  0  0
 45 53  1  1  0  0  0
 44 42  1  6  0  0  0
 40 42  1  6  0  0  0
 39 54  1  1  0  0  0
 38 55  1  6  0  0  0
 37 35  1  1  0  0  0
 14 35  1  1  0  0  0
 12 56  1  6  0  0  0
 22 57  1  1  0  0  0
 17 58  1  1  0  0  0
  9 59  1  1  0  0  0
  8 60  1  6  0  0  0
 18 61  1  6  0  0  0
M  END
>  <cdx:groupId>
146791

>  <cdx:fragmentId>
146608

$$$$
