721354.cdx
  Mrv1902 05222410262D          

 57 63  0  0  0  0            999 V2000
    7.4060   -8.8907    0.0000 C   0  0  0  0  0  0  0  0  0  0  0  0
    6.6915   -9.3032    0.0000 C   0  0  0  0  0  0  0  0  0  0  0  0
    6.6915  -10.1282    0.0000 C   0  0  1  0  0  0  0  0  0  0  0  0
    7.4060  -10.5407    0.0000 C   0  0  1  0  0  0  0  0  0  0  0  0
    8.1205  -10.1282    0.0000 C   0  0  2  0  0  0  0  0  0  0  0  0
    8.8350  -10.5407    0.0000 C   0  0  0  0  0  0  0  0  0  0  0  0
    9.5494  -10.1282    0.0000 C   0  0  0  0  0  0  0  0  0  0  0  0
    9.5494   -9.3032    0.0000 C   0  0  1  0  0  0  0  0  0  0  0  0
   10.2639   -8.8907    0.0000 C   0  0  2  0  0  0  0  0  0  0  0  0
   10.9784   -9.3032    0.0000 C   0  0  0  0  0  0  0  0  0  0  0  0
   11.6928   -8.8907    0.0000 C   0  0  0  0  0  0  0  0  0  0  0  0
   11.6928   -8.0657    0.0000 C   0  0  1  0  0  0  0  0  0  0  0  0
   12.4073   -7.6532    0.0000 C   0  0  1  0  0  0  0  0  0  0  0  0
   12.4073   -6.8282    0.0000 C   0  0  0  0  0  0  0  0  0  0  0  0
   11.6928   -6.4157    0.0000 C   0  0  0  0  0  0  0  0  0  0  0  0
   10.9784   -6.8282    0.0000 C   0  0  0  0  0  0  0  0  0  0  0  0
   10.9784   -7.6532    0.0000 C   0  0  1  0  0  0  0  0  0  0  0  0
   10.2639   -8.0657    0.0000 C   0  0  0  0  0  0  0  0  0  0  0  0
    9.5494   -7.6532    0.0000 C   0  0  0  0  0  0  0  0  0  0  0  0
    8.8350   -8.0657    0.0000 C   0  0  0  0  0  0  0  0  0  0  0  0
    8.8350   -8.8907    0.0000 C   0  0  2  0  0  0  0  0  0  0  0  0
    8.1205   -9.3032    0.0000 C   0  0  1  0  0  0  0  0  0  0  0  0
    8.1205   -8.4782    0.0000 C   0  0  0  0  0  0  0  0  0  0  0  0
   11.2803   -5.7012    0.0000 C   0  0  0  0  0  0  0  0  0  0  0  0
   12.1053   -5.7012    0.0000 C   0  0  0  0  0  0  0  0  0  0  0  0
   12.4073   -8.4782    0.0000 C   0  0  0  0  0  0  0  0  0  0  0  0
   10.2639   -9.7157    0.0000 C   0  0  0  0  0  0  0  0  0  0  0  0
    9.5494   -8.4782    0.0000 C   0  0  0  0  0  0  0  0  0  0  0  0
   13.1218   -8.0657    0.0000 O   0  0  0  0  0  0  0  0  0  0  0  0
    8.1205  -10.9532    0.0000 H   0  0  0  0  0  0  0  0  0  0  0  0
   10.9784   -8.4782    0.0000 H   0  0  0  0  0  0  0  0  0  0  0  0
    8.8350   -9.7157    0.0000 H   0  0  0  0  0  0  0  0  0  0  0  0
    5.9771  -10.5407    0.0000 O   0  0  0  0  0  0  0  0  0  0  0  0
    3.1270   -8.8773    0.0000 O   0  0  0  0  0  0  0  0  0  0  0  0
    3.1192  -10.5273    0.0000 O   0  0  0  0  0  0  0  0  0  0  0  0
    4.5365  -13.0090    0.0000 O   0  0  0  0  0  0  0  0  0  0  0  0
    3.1037  -13.8273    0.0000 O   0  0  0  0  0  0  0  0  0  0  0  0
    1.6787  -12.9956    0.0000 O   0  0  0  0  0  0  0  0  0  0  0  0
    2.3990  -11.7614    0.0000 C   0  0  0  0  0  0  0  0  0  0  0  0
    2.3951  -12.5864    0.0000 C   0  0  1  0  0  0  0  0  0  0  0  0
    3.1076  -13.0023    0.0000 C   0  0  1  0  0  0  0  0  0  0  0  0
    3.8240  -12.5931    0.0000 C   0  0  2  0  0  0  0  0  0  0  0  0
    3.8279  -11.7681    0.0000 C   0  0  1  0  0  0  0  0  0  0  0  0
    3.1153  -11.3523    0.0000 O   0  0  0  0  0  0  0  0  0  0  0  0
    4.5443  -11.3590    0.0000 O   0  0  0  0  0  0  0  0  0  0  0  0
    3.8472   -7.6432    0.0000 O   0  0  0  0  0  0  0  0  0  0  0  0
    5.2762   -7.6499    0.0000 O   0  0  0  0  0  0  0  0  0  0  0  0
    4.5598   -8.0590    0.0000 C   0  0  0  0  0  0  0  0  0  0  0  0
    5.2645  -10.1249    0.0000 C   0  0  1  0  0  0  0  0  0  0  0  0
    4.5481  -10.5340    0.0000 C   0  0  1  0  0  0  0  0  0  0  0  0
    3.8356  -10.1182    0.0000 C   0  0  2  0  0  0  0  0  0  0  0  0
    3.8395   -9.2932    0.0000 C   0  0  1  0  0  0  0  0  0  0  0  0
    4.5559   -8.8840    0.0000 C   0  0  2  0  0  0  0  0  0  0  0  0
    5.2684   -9.2999    0.0000 O   0  0  0  0  0  0  0  0  0  0  0  0
    6.9935  -11.2552    0.0000 C   0  0  0  0  0  0  0  0  0  0  0  0
    7.8185  -11.2552    0.0000 C   0  0  0  0  0  0  0  0  0  0  0  0
    7.4060  -11.9696    0.0000 O   0  0  0  0  0  0  0  0  0  0  0  0
 49 33  1  1  0  0  0
 52 34  1  6  0  0  0
 51 35  1  1  0  0  0
 50 45  1  6  0  0  0
 43 45  1  1  0  0  0
 42 36  1  6  0  0  0
 41 37  1  1  0  0  0
 40 38  1  1  0  0  0
 44 39  1  0  0  0  0
 40 39  1  0  0  0  0
 41 40  1  0  0  0  0
 42 41  1  0  0  0  0
 43 42  1  0  0  0  0
 44 43  1  0  0  0  0
 53 48  1  1  0  0  0
 48 46  1  0  0  0  0
 48 47  2  0  0  0  0
 54 49  1  0  0  0  0
 50 49  1  0  0  0  0
 51 50  1  0  0  0  0
 52 51  1  0  0  0  0
 53 52  1  0  0  0  0
 54 53  1  0  0  0  0
  1  2  1  0  0  0  0
  2  3  1  0  0  0  0
  3  4  1  0  0  0  0
  4  5  1  0  0  0  0
  5  6  1  0  0  0  0
  6  7  1  0  0  0  0
  7  8  1  0  0  0  0
  8  9  1  0  0  0  0
  9 10  1  0  0  0  0
 10 11  1  0  0  0  0
 11 12  1  0  0  0  0
 12 13  1  0  0  0  0
 13 14  1  0  0  0  0
 14 15  1  0  0  0  0
 15 16  1  0  0  0  0
 16 17  1  0  0  0  0
 12 17  1  0  0  0  0
 17 18  1  0  0  0  0
  9 18  1  0  0  0  0
 18 19  2  0  0  0  0
 19 20  1  0  0  0  0
 20 21  1  0  0  0  0
  8 21  1  0  0  0  0
 21 22  1  0  0  0  0
  5 22  1  0  0  0  0
  1 22  1  0  0  0  0
 22 23  1  1  0  0  0
 15 24  1  0  0  0  0
 15 25  1  0  0  0  0
 12 26  1  1  0  0  0
  9 27  1  6  0  0  0
  8 28  1  1  0  0  0
 13 29  1  1  0  0  0
  3 33  1  1  0  0  0
  5 30  1  6  0  0  0
 17 31  1  1  0  0  0
 21 32  1  6  0  0  0
  4 55  1  1  0  0  0
  4 56  1  6  0  0  0
 55 57  1  0  0  0  0
M  END
>  <cdx:groupId>
146995

>  <cdx:fragmentId>
146865

$$$$
