721401.cdx
  Mrv1902 05222410192D          

 38 40  0  0  0  0            999 V2000
    4.3987   -5.2615    0.0000 C   0  0  0  0  0  0  0  0  0  0  0  0
   12.2668   -7.2896    0.0000 O   0  0  0  0  0  0  0  0  0  0  0  0
   12.2740   -8.9396    0.0000 O   0  0  0  0  0  0  0  0  0  0  0  0
   10.1288   -8.5365    0.0000 C   0  0  0  0  0  0  0  0  0  0  0  0
   10.8451   -8.9459    0.0000 C   0  0  0  0  0  0  0  0  0  0  0  0
   11.5578   -8.5303    0.0000 C   0  0  0  0  0  0  0  0  0  0  0  0
   11.5542   -7.7053    0.0000 C   0  0  0  0  0  0  0  0  0  0  0  0
   10.8379   -7.2959    0.0000 C   0  0  0  0  0  0  0  0  0  0  0  0
   10.1252   -7.7115    0.0000 C   0  0  0  0  0  0  0  0  0  0  0  0
    9.4090   -7.3021    0.0000 C   0  0  0  0  0  0  0  0  0  0  0  0
    8.6963   -7.7178    0.0000 C   0  0  0  0  0  0  0  0  0  0  0  0
    7.9800   -7.3084    0.0000 O   0  0  0  0  0  0  0  0  0  0  0  0
    7.2710   -8.5490    0.0000 O   0  0  0  0  0  0  0  0  0  0  0  0
    7.2674   -7.7240    0.0000 C   0  0  0  0  0  0  0  0  0  0  0  0
    6.5511   -7.3146    0.0000 C   0  0  0  0  0  0  0  0  0  0  0  0
    6.5619   -9.7896    0.0000 C   0  0  0  0  0  0  0  0  0  0  0  0
    6.5583   -8.9646    0.0000 C   0  0  0  0  0  0  0  0  0  0  0  0
    5.1402  -11.4459    0.0000 O   0  0  0  0  0  0  0  0  0  0  0  0
    3.7149  -12.2771    0.0000 O   0  0  0  0  0  0  0  0  0  0  0  0
    2.2824  -11.4584    0.0000 O   0  0  0  0  0  0  0  0  0  0  0  0
    1.5625  -10.2240    0.0000 O   0  0  0  0  0  0  0  0  0  0  0  0
    2.2751   -9.8084    0.0000 C   0  0  0  0  0  0  0  0  0  0  0  0
    2.9914  -10.2177    0.0000 C   0  0  2  0  0  0  0  0  0  0  0  0
    2.9950  -11.0427    0.0000 C   0  0  2  0  0  0  0  0  0  0  0  0
    3.7113  -11.4521    0.0000 C   0  0  1  0  0  0  0  0  0  0  0  0
    4.4240  -11.0365    0.0000 C   0  0  2  0  0  0  0  0  0  0  0  0
    4.4203  -10.2115    0.0000 C   0  0  1  0  0  0  0  0  0  0  0  0
    3.7041   -9.8021    0.0000 O   0  0  0  0  0  0  0  0  0  0  0  0
    5.1330   -9.7959    0.0000 O   0  0  0  0  0  0  0  0  0  0  0  0
    4.4023   -6.0865    0.0000 O   0  0  0  0  0  0  0  0  0  0  0  0
    5.8312   -6.0803    0.0000 O   0  0  0  0  0  0  0  0  0  0  0  0
    5.1186   -6.4959    0.0000 C   0  0  0  0  0  0  0  0  0  0  0  0
    4.4131   -8.5615    0.0000 O   0  0  0  0  0  0  0  0  0  0  0  0
    5.1294   -8.9709    0.0000 C   0  0  0  0  0  0  0  0  0  0  0  0
    5.8421   -8.5553    0.0000 C   0  0  0  0  0  0  0  0  0  0  0  0
    5.8384   -7.7303    0.0000 C   0  0  0  0  0  0  0  0  0  0  0  0
    5.1222   -7.3209    0.0000 C   0  0  0  0  0  0  0  0  0  0  0  0
    4.4095   -7.7365    0.0000 C   0  0  0  0  0  0  0  0  0  0  0  0
 30  1  1  0  0  0  0
 36 15  1  0  0  0  0
 14 12  1  0  0  0  0
 10  9  1  0  0  0  0
  7  2  1  0  0  0  0
  6  3  1  0  0  0  0
  9  4  2  0  0  0  0
  5  4  1  0  0  0  0
  6  5  2  0  0  0  0
  7  6  1  0  0  0  0
  8  7  2  0  0  0  0
  9  8  1  0  0  0  0
 12 11  1  0  0  0  0
 11 10  1  0  0  0  0
 14 13  2  0  0  0  0
 15 14  1  0  0  0  0
 35 17  2  0  0  0  0
 17 16  1  0  0  0  0
 34 29  1  0  0  0  0
 27 29  1  1  0  0  0
 26 18  1  6  0  0  0
 25 19  1  1  0  0  0
 24 20  1  6  0  0  0
 23 22  1  1  0  0  0
 22 21  1  0  0  0  0
 28 23  1  0  0  0  0
 24 23  1  0  0  0  0
 25 24  1  0  0  0  0
 26 25  1  0  0  0  0
 27 26  1  0  0  0  0
 28 27  1  0  0  0  0
 37 32  1  0  0  0  0
 32 30  1  0  0  0  0
 32 31  2  0  0  0  0
 38 33  1  0  0  0  0
 34 33  1  0  0  0  0
 35 34  1  0  0  0  0
 36 35  1  0  0  0  0
 37 36  1  0  0  0  0
 38 37  2  0  0  0  0
M  END
>  <cdx:fragmentId>
9529

$$$$
