721470.cdx
  Mrv1902 05222410202D          

 28 31  0  0  0  0            999 V2000
    6.3388   -9.6678    0.0000 H   0  0  0  0  0  0  0  0  0  0  0  0
    9.5308   -9.8062    0.0000 C   0  0  0  0  0  0  0  0  0  0  0  0
    8.7150   -9.9291    0.0000 O   0  0  0  0  0  0  0  0  0  0  0  0
    5.9667   -4.9693    0.0000 C   0  0  0  0  0  0  0  0  0  0  0  0
    4.2597   -5.5239    0.0000 O   0  0  0  0  0  0  0  0  0  0  0  0
    4.9271   -6.0088    0.0000 C   0  0  0  0  0  0  0  0  0  0  0  0
    5.7117   -5.7539    0.0000 C   0  0  2  0  0  0  0  0  0  0  0  0
    6.1967   -6.4213    0.0000 C   0  0  0  0  0  0  0  0  0  0  0  0
    5.7117   -7.0888    0.0000 C   0  0  2  0  0  0  0  0  0  0  0  0
    4.9271   -6.8338    0.0000 O   0  0  0  0  0  0  0  0  0  0  0  0
    5.9667   -7.8734    0.0000 C   0  0  2  0  0  0  0  0  0  0  0  0
    5.4817   -8.5408    0.0000 C   0  0  0  0  0  0  0  0  0  0  0  0
    5.9667   -9.2083    0.0000 C   0  0  0  0  0  0  0  0  0  0  0  0
    7.3963   -7.6139    0.0000 C   0  0  0  0  0  0  0  0  0  0  0  0
    8.2006   -7.7975    0.0000 C   0  0  0  0  0  0  0  0  0  0  0  0
    8.5586   -8.5408    0.0000 C   0  0  0  0  0  0  0  0  0  0  0  0
    8.2006   -9.2841    0.0000 C   0  0  1  0  0  0  0  0  0  0  0  0
    7.3963   -9.4677    0.0000 C   0  0  1  0  0  0  0  0  0  0  0  0
    6.7513   -8.9533    0.0000 C   0  0  2  0  0  0  0  0  0  0  0  0
    6.7513   -8.1283    0.0000 N   0  0  0  0  0  0  0  0  0  0  0  0
    4.9973   -7.5013    0.0000 H   0  0  0  0  0  0  0  0  0  0  0  0
    5.1417   -7.8734    0.0000 H   0  0  0  0  0  0  0  0  0  0  0  0
    6.6377   -9.7919    0.0000 O   0  0  0  0  0  0  0  0  0  0  0  0
    6.7116  -10.6136    0.0000 C   0  0  0  0  0  0  0  0  0  0  0  0
    7.5160  -10.7972    0.0000 C   0  0  2  0  0  0  0  0  0  0  0  0
    7.9391  -10.0890    0.0000 C   0  0  0  0  0  0  0  0  0  0  0  0
    6.0904  -11.1564    0.0000 O   0  0  0  0  0  0  0  0  0  0  0  0
    7.8402  -11.5558    0.0000 C   0  0  0  0  0  0  0  0  0  0  0  0
 19  1  1  6  0  0  0
 17  3  1  6  0  0  0
  3  2  1  0  0  0  0
 11  9  1  0  0  0  0
  7  4  1  1  0  0  0
  6  5  2  0  0  0  0
 10  6  1  0  0  0  0
  7  6  1  0  0  0  0
  8  7  1  0  0  0  0
  9  8  1  0  0  0  0
  9 10  1  0  0  0  0
 13 19  1  0  0  0  0
 11 20  1  0  0  0  0
 11 12  1  0  0  0  0
 13 12  1  0  0  0  0
 20 14  1  0  0  0  0
 15 14  1  0  0  0  0
 16 15  1  0  0  0  0
 17 16  1  0  0  0  0
 18 17  1  0  0  0  0
 19 18  1  0  0  0  0
 20 19  1  0  0  0  0
  9 21  1  6  0  0  0
 11 22  1  6  0  0  0
 18 23  1  6  0  0  0
 23 24  1  0  0  0  0
 24 25  1  0  0  0  0
 25 26  1  0  0  0  0
 26 18  1  0  0  0  0
 24 27  2  0  0  0  0
 25 28  1  6  0  0  0
M  END
>  <cdx:fragmentId>
147008

$$$$
