24721557.cdx
  Mrv1902 05222410282D          

 31 33  0  0  0  0            999 V2000
    7.6499  -14.5887    0.0000 C   0  0  1  0  0  0  0  0  0  0  0  0
    8.3644  -14.1762    0.0000 C   0  0  1  0  0  0  0  0  0  0  0  0
    8.3644  -13.3513    0.0000 C   0  0  1  0  0  0  0  0  0  0  0  0
    7.6499  -12.9388    0.0000 C   0  0  0  0  0  0  0  0  0  0  0  0
    6.9354  -13.3513    0.0000 C   0  0  0  0  0  0  0  0  0  0  0  0
    6.9354  -14.1762    0.0000 O   0  0  0  0  0  0  0  0  0  0  0  0
    9.1490  -13.0963    0.0000 C   0  0  1  0  0  0  0  0  0  0  0  0
    9.6339  -13.7637    0.0000 C   0  0  2  0  0  0  0  0  0  0  0  0
    9.1490  -14.4312    0.0000 C   0  0  1  0  0  0  0  0  0  0  0  0
    7.6499  -12.1138    0.0000 C   0  0  0  0  0  0  0  0  0  0  0  0
    8.3644  -11.7012    0.0000 O   0  0  0  0  0  0  0  0  0  0  0  0
    6.9354  -11.7012    0.0000 O   0  0  0  0  0  0  0  0  0  0  0  0
    7.6499  -15.4138    0.0000 O   0  0  0  0  0  0  0  0  0  0  0  0
    6.2210  -15.4138    0.0000 O   0  0  0  0  0  0  0  0  0  0  0  0
    6.9354  -15.8263    0.0000 C   0  0  2  0  0  0  0  0  0  0  0  0
    6.9354  -16.6513    0.0000 C   0  0  1  0  0  0  0  0  0  0  0  0
    6.2210  -17.0637    0.0000 C   0  0  2  0  0  0  0  0  0  0  0  0
    5.5065  -16.6513    0.0000 C   0  0  1  0  0  0  0  0  0  0  0  0
    5.5065  -15.8263    0.0000 C   0  0  1  0  0  0  0  0  0  0  0  0
    4.7920  -15.4138    0.0000 C   0  0  0  0  0  0  0  0  0  0  0  0
    4.0776  -15.8263    0.0000 O   0  0  0  0  0  0  0  0  0  0  0  0
    4.7920  -17.0637    0.0000 O   0  0  0  0  0  0  0  0  0  0  0  0
    6.2210  -17.8887    0.0000 O   0  0  0  0  0  0  0  0  0  0  0  0
    7.6499  -17.0637    0.0000 O   0  0  0  0  0  0  0  0  0  0  0  0
    8.9775  -15.2382    0.0000 C   0  0  0  0  0  0  0  0  0  0  0  0
    8.4506  -14.9967    0.0000 O   0  0  0  0  0  0  0  0  0  0  0  0
    9.7621  -14.9832    0.0000 O   0  0  0  0  0  0  0  0  0  0  0  0
   10.4589  -13.7637    0.0000 O   0  0  0  0  0  0  0  0  0  0  0  0
    9.4040  -12.3117    0.0000 O   0  0  0  0  0  0  0  0  0  0  0  0
    8.4506  -12.5308    0.0000 O   0  0  0  0  0  0  0  0  0  0  0  0
    6.9354  -10.8762    0.0000 C   0  0  0  0  0  0  0  0  0  0  0  0
  1  2  1  0  0  0  0
  2  3  1  0  0  0  0
  3  4  1  0  0  0  0
  4  5  2  0  0  0  0
  5  6  1  0  0  0  0
  1  6  1  0  0  0  0
  7  8  1  0  0  0  0
  8  9  1  0  0  0  0
  9  2  1  0  0  0  0
  7  3  1  0  0  0  0
 10 11  2  0  0  0  0
 10 12  1  0  0  0  0
  4 10  1  0  0  0  0
 14 15  1  0  0  0  0
 15 16  1  0  0  0  0
 16 17  1  0  0  0  0
 17 18  1  0  0  0  0
 18 19  1  0  0  0  0
 14 19  1  0  0  0  0
 20 21  1  0  0  0  0
 19 20  1  1  0  0  0
 18 22  1  6  0  0  0
 17 23  1  1  0  0  0
 16 24  1  6  0  0  0
 15 13  1  1  0  0  0
  1 13  1  6  0  0  0
  9 25  1  1  0  0  0
  2 26  1  6  0  0  0
  9 27  1  6  0  0  0
  8 28  1  1  0  0  0
  7 29  1  6  0  0  0
  3 30  1  6  0  0  0
 12 31  1  0  0  0  0
M  END
>  <cdx:groupId>
147187

>  <cdx:fragmentId>
147095

$$$$
