721502.cdx
  Mrv1902 05222410222D          

 35 40  0  0  0  0            999 V2000
    6.1946  -10.3409    0.0000 C   0  0  1  0  0  0  0  0  0  0  0  0
    6.1946  -11.1637    0.0000 C   0  0  2  0  0  0  0  0  0  0  0  0
    6.9900  -11.4105    0.0000 C   0  0  2  0  0  0  0  0  0  0  0  0
    7.4288  -10.7523    0.0000 C   0  0  2  0  0  0  0  0  0  0  0  0
    6.9900  -10.0392    0.0000 C   0  0  1  0  0  0  0  0  0  0  0  0
    5.3993  -10.0392    0.0000 C   0  0  1  0  0  0  0  0  0  0  0  0
    4.9331  -10.7523    0.0000 C   0  0  0  0  0  0  0  0  0  0  0  0
    5.3993  -11.4105    0.0000 O   0  0  0  0  0  0  0  0  0  0  0  0
    8.2241  -10.4506    0.0000 C   0  0  2  0  0  0  0  0  0  0  0  0
    8.2241   -9.6827    0.0000 C   0  0  2  0  0  0  0  0  0  0  0  0
    7.4288   -9.4359    0.0000 O   0  0  0  0  0  0  0  0  0  0  0  0
    9.0194  -10.7523    0.0000 C   0  0  2  0  0  0  0  0  0  0  0  0
    9.4857  -10.0392    0.0000 C   0  0  0  0  0  0  0  0  0  0  0  0
    9.0194   -9.4359    0.0000 O   0  0  0  0  0  0  0  0  0  0  0  0
    7.4288  -11.5202    0.0000 C   0  0  1  0  0  0  0  0  0  0  0  0
    8.2241  -11.8219    0.0000 C   0  0  1  0  0  0  0  0  0  0  0  0
    8.7177  -11.1637    0.0000 C   0  0  1  0  0  0  0  0  0  0  0  0
   10.3084  -10.0392    0.0000 O   0  0  0  0  0  0  0  0  0  0  0  0
    6.1946   -9.5181    0.0000 O   0  0  0  0  0  0  0  0  0  0  0  0
    4.0829  -10.7523    0.0000 O   0  0  0  0  0  0  0  0  0  0  0  0
    5.1250   -9.2713    0.0000 C   0  0  0  0  0  0  0  0  0  0  0  0
    8.2241   -8.8599    0.0000 H   0  0  0  0  0  0  0  0  0  0  0  0
    9.8444  -10.7523    0.0000 O   0  0  0  0  0  0  0  0  0  0  0  0
    6.1946  -11.9590    0.0000 H   0  0  0  0  0  0  0  0  0  0  0  0
    6.6275  -11.6325    0.0000 O   0  0  0  0  0  0  0  0  0  0  0  0
    6.6000  -10.7250    0.0000 C   0  0  0  0  0  0  0  0  0  0  0  0
    5.7750  -10.7250    0.0000 O   0  0  0  0  0  0  0  0  0  0  0  0
    7.6423  -12.3171    0.0000 H   0  0  0  0  0  0  0  0  0  0  0  0
    9.4322  -11.5762    0.0000 C   0  0  0  0  0  0  0  0  0  0  0  0
    8.9312  -11.9605    0.0000 H   0  0  0  0  0  0  0  0  0  0  0  0
   10.1467  -11.1637    0.0000 C   0  0  0  0  0  0  0  0  0  0  0  0
    9.4322  -12.4012    0.0000 C   0  0  0  0  0  0  0  0  0  0  0  0
   10.1467  -11.9887    0.0000 C   0  0  0  0  0  0  0  0  0  0  0  0
    6.9900  -12.2355    0.0000 O   0  0  0  0  0  0  0  0  0  0  0  0
    8.4540  -12.6142    0.0000 O   0  0  0  0  0  0  0  0  0  0  0  0
  1  2  1  0  0  0  0
  2  3  1  0  0  0  0
  4  3  1  6  0  0  0
  4  5  1  0  0  0  0
  1  5  1  0  0  0  0
  1  6  1  0  0  0  0
  6  7  1  0  0  0  0
  7  8  1  0  0  0  0
  2  8  1  0  0  0  0
  4  9  1  0  0  0  0
  9 10  1  0  0  0  0
 10 11  1  0  0  0  0
  5 11  1  1  0  0  0
  9 12  1  6  0  0  0
 12 13  1  0  0  0  0
 13 14  1  0  0  0  0
 10 14  1  0  0  0  0
  4 15  1  0  0  0  0
 15 16  1  0  0  0  0
 16 17  1  0  0  0  0
  9 17  1  0  0  0  0
 13 18  2  0  0  0  0
  1 19  1  1  0  0  0
  7 20  2  0  0  0  0
  6 21  1  1  0  0  0
 10 22  1  1  0  0  0
 12 23  1  6  0  0  0
  2 24  1  1  0  0  0
 15 25  1  0  0  0  0
  5 26  1  0  0  0  0
 25 26  1  0  0  0  0
 26 27  2  0  0  0  0
 15 28  1  6  0  0  0
 17 29  1  0  0  0  0
 17 30  1  1  0  0  0
 29 31  1  0  0  0  0
 29 32  1  0  0  0  0
 29 33  1  0  0  0  0
  3 34  1  6  0  0  0
 16 35  1  1  0  0  0
M  END
>  <cdx:fragmentId>
462

$$$$
