24721558.cdx
  Mrv1902 05222410182D          

 58 63  0  0  0  0            999 V2000
    3.3777  -12.7549    0.0000 O   0  0  0  0  0  0  0  0  0  0  0  0
    4.0922  -12.3424    0.0000 C   0  0  2  0  0  0  0  0  0  0  0  0
    4.0922  -11.5174    0.0000 C   0  0  1  0  0  0  0  0  0  0  0  0
    3.3777  -11.1049    0.0000 C   0  0  2  0  0  0  0  0  0  0  0  0
    2.6633  -11.5174    0.0000 C   0  0  1  0  0  0  0  0  0  0  0  0
    2.6633  -12.3424    0.0000 C   0  0  1  0  0  0  0  0  0  0  0  0
    4.8067  -11.1049    0.0000 O   0  0  0  0  0  0  0  0  0  0  0  0
    3.3777  -10.2799    0.0000 O   0  0  0  0  0  0  0  0  0  0  0  0
    1.9488  -11.1049    0.0000 O   0  0  0  0  0  0  0  0  0  0  0  0
    1.9488  -12.7549    0.0000 C   0  0  0  0  0  0  0  0  0  0  0  0
    1.2343  -12.3424    0.0000 O   0  0  0  0  0  0  0  0  0  0  0  0
    4.8067  -12.7549    0.0000 O   0  0  0  0  0  0  0  0  0  0  0  0
    6.2356  -11.1049    0.0000 C   0  0  0  0  0  0  0  0  0  0  0  0
    5.5211  -11.5174    0.0000 C   0  0  0  0  0  0  0  0  0  0  0  0
    5.5211  -12.3424    0.0000 C   0  0  1  0  0  0  0  0  0  0  0  0
    6.2356  -12.7549    0.0000 C   0  0  0  0  0  0  0  0  0  0  0  0
    6.9501  -12.3424    0.0000 C   0  0  0  0  0  0  0  0  0  0  0  0
    7.6646  -12.7549    0.0000 C   0  0  0  0  0  0  0  0  0  0  0  0
    8.3790  -12.3424    0.0000 C   0  0  0  0  0  0  0  0  0  0  0  0
    8.3790  -11.5174    0.0000 C   0  0  1  0  0  0  0  0  0  0  0  0
    9.0935  -11.1049    0.0000 C   0  0  2  0  0  0  0  0  0  0  0  0
    9.8781  -11.3598    0.0000 C   0  0  0  0  0  0  0  0  0  0  0  0
   10.3630  -10.6924    0.0000 C   0  0  0  0  0  0  0  0  0  0  0  0
    9.8781  -10.0249    0.0000 C   0  0  1  0  0  0  0  0  0  0  0  0
    9.0935  -10.2799    0.0000 C   0  0  1  0  0  0  0  0  0  0  0  0
    8.3790   -9.8674    0.0000 C   0  0  0  0  0  0  0  0  0  0  0  0
    7.6646  -10.2799    0.0000 C   0  0  2  0  0  0  0  0  0  0  0  0
    7.6646  -11.1049    0.0000 C   0  0  1  0  0  0  0  0  0  0  0  0
    6.9501  -11.5174    0.0000 C   0  0  2  0  0  0  0  0  0  0  0  0
    9.0935  -11.9299    0.0000 C   0  0  0  0  0  0  0  0  0  0  0  0
    9.1797   -9.4594    0.0000 C   0  0  0  0  0  0  0  0  0  0  0  0
    7.6646  -11.9299    0.0000 C   0  0  0  0  0  0  0  0  0  0  0  0
    6.6481  -13.4694    0.0000 C   0  0  0  0  0  0  0  0  0  0  0  0
    5.8231  -13.4694    0.0000 C   0  0  0  0  0  0  0  0  0  0  0  0
    9.5810   -8.6272    0.0000 C   0  0  0  0  0  0  0  0  0  0  0  0
   10.1331   -9.2403    0.0000 C   0  0  2  0  0  0  0  0  0  0  0  0
   10.9400   -9.0688    0.0000 C   0  0  0  0  0  0  0  0  0  0  0  0
   11.1950   -8.2842    0.0000 C   0  0  0  0  0  0  0  0  0  0  0  0
   12.0019   -8.1126    0.0000 C   0  0  2  0  0  0  0  0  0  0  0  0
   12.5540   -8.7257    0.0000 C   0  0  0  0  0  0  0  0  0  0  0  0
   13.3609   -8.5542    0.0000 C   0  0  0  0  0  0  0  0  0  0  0  0
   12.2569   -7.3280    0.0000 O   0  0  0  0  0  0  0  0  0  0  0  0
   13.6159   -7.7696    0.0000 O   0  0  0  0  0  0  0  0  0  0  0  0
   13.0638   -7.1565    0.0000 C   0  0  2  0  0  0  0  0  0  0  0  0
   13.3188   -6.3719    0.0000 C   0  0  1  0  0  0  0  0  0  0  0  0
   14.1258   -6.2003    0.0000 C   0  0  2  0  0  0  0  0  0  0  0  0
   14.6778   -6.8134    0.0000 C   0  0  1  0  0  0  0  0  0  0  0  0
   14.4229   -7.5981    0.0000 C   0  0  1  0  0  0  0  0  0  0  0  0
   14.9749   -8.2112    0.0000 C   0  0  0  0  0  0  0  0  0  0  0  0
   15.7819   -8.0396    0.0000 O   0  0  0  0  0  0  0  0  0  0  0  0
   15.4848   -6.6419    0.0000 O   0  0  0  0  0  0  0  0  0  0  0  0
   14.3807   -5.4157    0.0000 O   0  0  0  0  0  0  0  0  0  0  0  0
   12.7668   -5.7588    0.0000 O   0  0  0  0  0  0  0  0  0  0  0  0
   12.2990   -9.5104    0.0000 C   0  0  0  0  0  0  0  0  0  0  0  0
   13.1060   -9.3388    0.0000 O   0  0  0  0  0  0  0  0  0  0  0  0
    6.9501   -9.8674    0.0000 O   0  0  0  0  0  0  0  0  0  0  0  0
    8.3790  -10.6924    0.0000 H   0  0  0  0  0  0  0  0  0  0  0  0
    6.9501  -10.6924    0.0000 H   0  0  0  0  0  0  0  0  0  0  0  0
  1  2  1  0  0  0  0
  2  3  1  0  0  0  0
  3  4  1  0  0  0  0
  4  5  1  0  0  0  0
  5  6  1  0  0  0  0
  1  6  1  0  0  0  0
  3  7  1  1  0  0  0
  4  8  1  6  0  0  0
  5  9  1  1  0  0  0
 10 11  1  0  0  0  0
  6 10  1  6  0  0  0
 13 14  1  0  0  0  0
 14 15  1  0  0  0  0
 15 16  1  0  0  0  0
 16 17  1  0  0  0  0
 17 18  2  0  0  0  0
 18 19  1  0  0  0  0
 19 20  1  0  0  0  0
 20 21  1  0  0  0  0
 21 22  1  0  0  0  0
 22 23  1  0  0  0  0
 24 23  1  1  0  0  0
 24 25  1  0  0  0  0
 21 25  1  0  0  0  0
 25 26  1  0  0  0  0
 26 27  1  0  0  0  0
 27 28  1  0  0  0  0
 20 28  1  0  0  0  0
 28 29  1  0  0  0  0
 17 29  1  0  0  0  0
 13 29  1  0  0  0  0
 21 30  1  6  0  0  0
 25 31  1  1  0  0  0
 28 32  1  1  0  0  0
 16 33  1  0  0  0  0
 16 34  1  0  0  0  0
 36 35  1  6  0  0  0
 36 37  1  0  0  0  0
 37 38  1  0  0  0  0
 38 39  1  0  0  0  0
 39 40  1  0  0  0  0
 40 41  1  0  0  0  0
 43 44  1  0  0  0  0
 44 45  1  0  0  0  0
 45 46  1  0  0  0  0
 46 47  1  0  0  0  0
 47 48  1  0  0  0  0
 43 48  1  0  0  0  0
 49 50  1  0  0  0  0
 48 49  1  1  0  0  0
 47 51  1  6  0  0  0
 46 52  1  1  0  0  0
 45 53  1  6  0  0  0
 44 42  1  1  0  0  0
 39 42  1  1  0  0  0
 40 54  1  0  0  0  0
 40 55  1  0  0  0  0
 24 36  1  0  0  0  0
 27 56  1  6  0  0  0
 15 12  1  1  0  0  0
  2 12  1  6  0  0  0
 20 57  1  1  0  0  0
 29 58  1  6  0  0  0
M  END
>  <cdx:fragmentId>
458

$$$$
