7217.cdx
  Mrv1902 05222410262D          

 19 21  0  0  0  0            999 V2000
    5.9247  -10.2163    0.0000 C   0  0  0  0  0  0  0  0  0  0  0  0
    6.6391   -9.8038    0.0000 O   0  0  0  0  0  0  0  0  0  0  0  0
    8.0681   -9.8038    0.0000 C   0  0  0  0  0  0  0  0  0  0  0  0
    4.5446   -8.5663    0.0000 O   0  0  0  0  0  0  0  0  0  0  0  0
    5.5996   -7.1142    0.0000 C   0  0  0  0  0  0  0  0  0  0  0  0
    8.7826   -6.9162    0.0000 C   0  0  0  0  0  0  0  0  0  0  0  0
    5.8545   -7.8988    0.0000 C   0  0  0  0  0  0  0  0  0  0  0  0
    5.3696   -8.5663    0.0000 C   0  0  0  0  0  0  0  0  0  0  0  0
    5.8545   -9.2337    0.0000 O   0  0  0  0  0  0  0  0  0  0  0  0
    7.3536   -7.7413    0.0000 C   0  0  0  0  0  0  0  0  0  0  0  0
    6.6391   -8.1538    0.0000 C   0  0  0  0  0  0  0  0  0  0  0  0
    6.6391   -8.9788    0.0000 C   0  0  1  0  0  0  0  0  0  0  0  0
    7.3536   -9.3913    0.0000 C   0  0  0  0  0  0  0  0  0  0  0  0
    8.7826   -7.7413    0.0000 C   0  0  0  0  0  0  0  0  0  0  0  0
    8.0681   -8.1538    0.0000 C   0  0  0  0  0  0  0  0  0  0  0  0
    8.0681   -8.9788    0.0000 C   0  0  1  0  0  0  0  0  0  0  0  0
    8.7826   -9.3913    0.0000 C   0  0  0  0  0  0  0  0  0  0  0  0
    9.4970   -8.9788    0.0000 C   0  0  0  0  0  0  0  0  0  0  0  0
    9.4970   -8.1538    0.0000 C   0  0  0  0  0  0  0  0  0  0  0  0
  2  1  1  0  0  0  0
 12  2  1  1  0  0  0
 16  3  1  1  0  0  0
  8  4  2  0  0  0  0
  7  5  1  0  0  0  0
 14  6  2  0  0  0  0
  7 11  2  0  0  0  0
  8  7  1  0  0  0  0
  9  8  1  0  0  0  0
 12  9  1  0  0  0  0
 10 15  1  0  0  0  0
 11 10  1  0  0  0  0
 12 11  1  0  0  0  0
 13 12  1  0  0  0  0
 16 13  1  0  0  0  0
 14 19  1  0  0  0  0
 15 14  1  0  0  0  0
 16 15  1  0  0  0  0
 17 16  1  0  0  0  0
 18 17  1  0  0  0  0
 19 18  1  0  0  0  0
M  END
>  <cdx:fragmentId>
5

$$$$
