721850.cdx
  Mrv1902 05222410222D          

 26 29  0  0  0  0            999 V2000
    7.7875   -8.1239    0.0000 C   0  0  0  0  0  0  0  0  0  0  0  0
    7.7962   -8.9488    0.0000 C   0  0  0  0  0  0  0  0  0  0  0  0
    7.0862   -9.3689    0.0000 C   0  0  0  0  0  0  0  0  0  0  0  0
    6.3674   -8.9640    0.0000 C   0  0  0  0  0  0  0  0  0  0  0  0
    5.6573   -9.3840    0.0000 C   0  0  0  0  0  0  0  0  0  0  0  0
    4.9385   -8.9791    0.0000 C   0  0  0  0  0  0  0  0  0  0  0  0
    4.9298   -8.1542    0.0000 C   0  0  0  0  0  0  0  0  0  0  0  0
    5.6398   -7.7341    0.0000 C   0  0  0  0  0  0  0  0  0  0  0  0
    6.3586   -8.1390    0.0000 C   0  0  0  0  0  0  0  0  0  0  0  0
    7.0687   -7.7190    0.0000 O   0  0  0  0  0  0  0  0  0  0  0  0
    7.0949  -10.1938    0.0000 O   0  0  0  0  0  0  0  0  0  0  0  0
    7.7612   -5.6490    0.0000 C   0  0  0  0  0  0  0  0  0  0  0  0
    8.4713   -5.2290    0.0000 C   0  0  0  0  0  0  0  0  0  0  0  0
    9.1901   -5.6339    0.0000 C   0  0  0  0  0  0  0  0  0  0  0  0
    9.1989   -6.4588    0.0000 C   0  0  0  0  0  0  0  0  0  0  0  0
    9.9177   -6.8637    0.0000 C   0  0  0  0  0  0  0  0  0  0  0  0
    9.9264   -7.6887    0.0000 C   0  0  0  0  0  0  0  0  0  0  0  0
    9.2163   -8.1087    0.0000 C   0  0  0  0  0  0  0  0  0  0  0  0
    8.4975   -7.7038    0.0000 C   0  0  0  0  0  0  0  0  0  0  0  0
    8.4888   -6.8789    0.0000 C   0  0  0  0  0  0  0  0  0  0  0  0
    7.7700   -6.4740    0.0000 O   0  0  0  0  0  0  0  0  0  0  0  0
    6.9363   -5.6578    0.0000 C   0  0  0  0  0  0  0  0  0  0  0  0
    7.3412   -4.9389    0.0000 C   0  0  0  0  0  0  0  0  0  0  0  0
   10.6277   -6.4437    0.0000 O   0  0  0  0  0  0  0  0  0  0  0  0
    4.2110   -7.7493    0.0000 O   0  0  0  0  0  0  0  0  0  0  0  0
    5.6661  -10.2090    0.0000 O   0  0  0  0  0  0  0  0  0  0  0  0
  1  2  1  0  0  0  0
  2  3  1  0  0  0  0
  3  4  1  0  0  0  0
  4  5  1  0  0  0  0
  5  6  2  0  0  0  0
  6  7  1  0  0  0  0
  7  8  2  0  0  0  0
  8  9  1  0  0  0  0
  4  9  2  0  0  0  0
  9 10  1  0  0  0  0
  1 10  1  0  0  0  0
  3 11  2  0  0  0  0
 12 13  1  0  0  0  0
 13 14  2  0  0  0  0
 14 15  1  0  0  0  0
 15 16  1  0  0  0  0
 16 17  2  0  0  0  0
 17 18  1  0  0  0  0
 18 19  2  0  0  0  0
 19 20  1  0  0  0  0
 15 20  2  0  0  0  0
 20 21  1  0  0  0  0
 12 21  1  0  0  0  0
 12 22  1  0  0  0  0
 12 23  1  0  0  0  0
 16 24  1  0  0  0  0
  1 19  1  0  0  0  0
  7 25  1  0  0  0  0
  5 26  1  0  0  0  0
M  END
>  <cdx:fragmentId>
141537

$$$$
