21721878.cdx
  Mrv1902 05222410222D          

 32 34  0  0  0  0            999 V2000
    8.5477  -14.0817    0.0000 C   0  0  2  0  0  0  0  0  0  0  0  0
    8.5477  -13.2567    0.0000 C   0  0  2  0  0  0  0  0  0  0  0  0
    7.8332  -12.8442    0.0000 C   0  0  0  0  0  0  0  0  0  0  0  0
    7.1188  -13.2567    0.0000 C   0  0  0  0  0  0  0  0  0  0  0  0
    6.4043  -12.8442    0.0000 C   0  0  0  0  0  0  0  0  0  0  0  0
    5.6898  -13.2567    0.0000 C   0  0  0  0  0  0  0  0  0  0  0  0
    5.6898  -14.0817    0.0000 C   0  0  0  0  0  0  0  0  0  0  0  0
    6.4043  -14.4942    0.0000 C   0  0  0  0  0  0  0  0  0  0  0  0
    7.1188  -14.0817    0.0000 C   0  0  0  0  0  0  0  0  0  0  0  0
    7.8332  -14.4942    0.0000 O   0  0  0  0  0  0  0  0  0  0  0  0
    7.8332  -12.0192    0.0000 O   0  0  0  0  0  0  0  0  0  0  0  0
    6.4043  -15.3192    0.0000 C   0  0  0  0  0  0  0  0  0  0  0  0
    5.6898  -15.7317    0.0000 C   0  0  0  0  0  0  0  0  0  0  0  0
    5.6898  -16.5567    0.0000 C   0  0  0  0  0  0  0  0  0  0  0  0
    6.4043  -16.9692    0.0000 C   0  0  0  0  0  0  0  0  0  0  0  0
    4.9754  -16.9692    0.0000 C   0  0  0  0  0  0  0  0  0  0  0  0
    4.9754  -12.8442    0.0000 C   0  0  0  0  0  0  0  0  0  0  0  0
    4.2609  -13.2567    0.0000 C   0  0  0  0  0  0  0  0  0  0  0  0
    3.5464  -12.8442    0.0000 C   0  0  0  0  0  0  0  0  0  0  0  0
    3.5464  -12.0192    0.0000 C   0  0  0  0  0  0  0  0  0  0  0  0
    2.8319  -13.2567    0.0000 C   0  0  0  0  0  0  0  0  0  0  0  0
    4.9754  -14.4942    0.0000 O   0  0  0  0  0  0  0  0  0  0  0  0
    6.4043  -12.0192    0.0000 O   0  0  0  0  0  0  0  0  0  0  0  0
    9.2622  -12.8442    0.0000 O   0  0  0  0  0  0  0  0  0  0  0  0
    9.2622  -14.4942    0.0000 C   0  0  0  0  0  0  0  0  0  0  0  0
    9.2622  -15.3192    0.0000 C   0  0  0  0  0  0  0  0  0  0  0  0
    9.9766  -15.7317    0.0000 C   0  0  0  0  0  0  0  0  0  0  0  0
   10.6911  -15.3192    0.0000 C   0  0  0  0  0  0  0  0  0  0  0  0
   10.6911  -14.4942    0.0000 C   0  0  0  0  0  0  0  0  0  0  0  0
    9.9766  -14.0817    0.0000 C   0  0  0  0  0  0  0  0  0  0  0  0
   11.4056  -15.7317    0.0000 O   0  0  0  0  0  0  0  0  0  0  0  0
    8.5477  -15.7317    0.0000 O   0  0  0  0  0  0  0  0  0  0  0  0
  1  2  1  0  0  0  0
  2  3  1  0  0  0  0
  3  4  1  0  0  0  0
  4  5  1  0  0  0  0
  5  6  2  0  0  0  0
  6  7  1  0  0  0  0
  7  8  2  0  0  0  0
  8  9  1  0  0  0  0
  4  9  2  0  0  0  0
  9 10  1  0  0  0  0
  1 10  1  0  0  0  0
  3 11  2  0  0  0  0
 12 13  1  0  0  0  0
 13 14  2  0  0  0  0
 14 15  1  0  0  0  0
 14 16  1  0  0  0  0
  8 12  1  0  0  0  0
 17 18  1  0  0  0  0
 18 19  2  0  0  0  0
 19 20  1  0  0  0  0
 19 21  1  0  0  0  0
  6 17  1  0  0  0  0
  7 22  1  0  0  0  0
  5 23  1  0  0  0  0
  2 24  1  6  0  0  0
 25 26  1  0  0  0  0
 26 27  2  0  0  0  0
 27 28  1  0  0  0  0
 28 29  2  0  0  0  0
 29 30  1  0  0  0  0
 25 30  2  0  0  0  0
 28 31  1  0  0  0  0
 26 32  1  0  0  0  0
  1 25  1  1  0  0  0
M  END
>  <cdx:groupId>
141698

>  <cdx:fragmentId>
141603

$$$$
