721831.cdx
  Mrv1902 05222410202D          

 31 34  0  0  0  0            999 V2000
    4.0738   -8.7785    0.0000 C   0  0  0  0  0  0  0  0  0  0  0  0
    4.0738   -9.6035    0.0000 C   0  0  0  0  0  0  0  0  0  0  0  0
    4.7882  -10.0160    0.0000 C   0  0  0  0  0  0  0  0  0  0  0  0
    5.5027   -9.6035    0.0000 C   0  0  0  0  0  0  0  0  0  0  0  0
    6.2172  -10.0160    0.0000 C   0  0  0  0  0  0  0  0  0  0  0  0
    6.9316   -9.6035    0.0000 C   0  0  0  0  0  0  0  0  0  0  0  0
    6.9316   -8.7785    0.0000 C   0  0  0  0  0  0  0  0  0  0  0  0
    6.2172   -8.3660    0.0000 C   0  0  0  0  0  0  0  0  0  0  0  0
    5.5027   -8.7785    0.0000 C   0  0  0  0  0  0  0  0  0  0  0  0
    4.7882   -8.3660    0.0000 O   0  0  0  0  0  0  0  0  0  0  0  0
    7.6461  -10.0160    0.0000 C   0  0  0  0  0  0  0  0  0  0  0  0
    8.3606   -9.6035    0.0000 C   0  0  0  0  0  0  0  0  0  0  0  0
    8.3606   -8.7785    0.0000 C   0  0  0  0  0  0  0  0  0  0  0  0
    7.6461   -8.3660    0.0000 O   0  0  0  0  0  0  0  0  0  0  0  0
    7.6461  -10.8410    0.0000 O   0  0  0  0  0  0  0  0  0  0  0  0
    6.2172   -7.5410    0.0000 C   0  0  0  0  0  0  0  0  0  0  0  0
    6.9316   -7.1285    0.0000 C   0  0  0  0  0  0  0  0  0  0  0  0
    6.9316   -6.3035    0.0000 C   0  0  0  0  0  0  0  0  0  0  0  0
    6.2172   -5.8910    0.0000 C   0  0  0  0  0  0  0  0  0  0  0  0
    7.6461   -5.8910    0.0000 C   0  0  0  0  0  0  0  0  0  0  0  0
    3.2488   -8.7785    0.0000 C   0  0  0  0  0  0  0  0  0  0  0  0
    3.6613   -8.0640    0.0000 C   0  0  0  0  0  0  0  0  0  0  0  0
    6.2172  -10.8410    0.0000 O   0  0  0  0  0  0  0  0  0  0  0  0
    9.0751   -8.3660    0.0000 C   0  0  0  0  0  0  0  0  0  0  0  0
    9.0751   -7.5410    0.0000 C   0  0  0  0  0  0  0  0  0  0  0  0
    9.7895   -7.1285    0.0000 C   0  0  0  0  0  0  0  0  0  0  0  0
   10.5040   -7.5410    0.0000 C   0  0  0  0  0  0  0  0  0  0  0  0
   10.5040   -8.3660    0.0000 C   0  0  0  0  0  0  0  0  0  0  0  0
    9.7895   -8.7785    0.0000 C   0  0  0  0  0  0  0  0  0  0  0  0
    9.7895   -9.6035    0.0000 O   0  0  0  0  0  0  0  0  0  0  0  0
    8.3606   -7.1285    0.0000 O   0  0  0  0  0  0  0  0  0  0  0  0
  1  2  1  0  0  0  0
  2  3  2  0  0  0  0
  3  4  1  0  0  0  0
  4  5  1  0  0  0  0
  5  6  2  0  0  0  0
  6  7  1  0  0  0  0
  7  8  2  0  0  0  0
  8  9  1  0  0  0  0
  4  9  2  0  0  0  0
  9 10  1  0  0  0  0
  1 10  1  0  0  0  0
 11 12  1  0  0  0  0
 12 13  1  0  0  0  0
 13 14  1  0  0  0  0
 11  6  1  0  0  0  0
 14  7  1  0  0  0  0
 11 15  2  0  0  0  0
 16 17  1  0  0  0  0
 17 18  2  0  0  0  0
 18 19  1  0  0  0  0
 18 20  1  0  0  0  0
  8 16  1  0  0  0  0
  1 21  1  0  0  0  0
  1 22  1  0  0  0  0
  5 23  1  0  0  0  0
 24 25  1  0  0  0  0
 25 26  2  0  0  0  0
 26 27  1  0  0  0  0
 27 28  2  0  0  0  0
 28 29  1  0  0  0  0
 24 29  2  0  0  0  0
 29 30  1  0  0  0  0
 25 31  1  0  0  0  0
 13 24  1  0  0  0  0
M  END
>  <cdx:groupId>
141507

>  <cdx:fragmentId>
141414

$$$$
