7219.cdx
  Mrv1902 05222410192D          

  9 10  0  0  0  0            999 V2000
    7.6373   -4.0626    0.0000 C   0  0  0  0  0  0  0  0  0  0  0  0
    8.1222   -4.7300    0.0000 C   0  0  0  0  0  0  0  0  0  0  0  0
    7.6373   -5.3974    0.0000 C   0  0  0  0  0  0  0  0  0  0  0  0
    6.8527   -5.1425    0.0000 C   0  0  0  0  0  0  0  0  0  0  0  0
    6.1382   -5.5550    0.0000 C   0  0  0  0  0  0  0  0  0  0  0  0
    5.4238   -5.1425    0.0000 C   0  0  0  0  0  0  0  0  0  0  0  0
    5.4238   -4.3175    0.0000 C   0  0  0  0  0  0  0  0  0  0  0  0
    6.1382   -3.9050    0.0000 C   0  0  0  0  0  0  0  0  0  0  0  0
    6.8527   -4.3175    0.0000 C   0  0  0  0  0  0  0  0  0  0  0  0
  1  2  1  0  0  0  0
  2  3  2  0  0  0  0
  3  4  1  0  0  0  0
  4  5  1  0  0  0  0
  5  6  2  0  0  0  0
  6  7  1  0  0  0  0
  7  8  2  0  0  0  0
  8  9  1  0  0  0  0
  1  9  1  0  0  0  0
  4  9  2  0  0  0  0
M  END
>  <cdx:fragmentId>
5

$$$$
