72200.cdx
  Mrv1902 05222410222D          

 20 22  0  0  0  0            999 V2000
    8.7518   -5.5933    0.0000 O   0  0  0  0  0  0  0  0  0  0  0  0
    7.9671   -5.8483    0.0000 C   0  0  2  0  0  0  0  0  0  0  0  0
    7.4822   -5.1808    0.0000 C   0  0  1  0  0  0  0  0  0  0  0  0
    7.9671   -4.5134    0.0000 C   0  0  1  0  0  0  0  0  0  0  0  0
    8.7518   -4.7683    0.0000 C   0  0  1  0  0  0  0  0  0  0  0  0
    6.6572   -5.1808    0.0000 O   0  0  0  0  0  0  0  0  0  0  0  0
    7.7122   -3.7288    0.0000 O   0  0  0  0  0  0  0  0  0  0  0  0
    9.4192   -4.2834    0.0000 C   0  0  0  0  0  0  0  0  0  0  0  0
    9.4192   -3.4584    0.0000 O   0  0  0  0  0  0  0  0  0  0  0  0
    7.7122   -7.9678    0.0000 N   0  0  0  0  0  0  0  0  0  0  0  0
    8.1971   -7.3003    0.0000 C   0  0  0  0  0  0  0  0  0  0  0  0
    7.7122   -6.6329    0.0000 N   0  0  0  0  0  0  0  0  0  0  0  0
    6.9276   -6.8878    0.0000 C   0  0  0  0  0  0  0  0  0  0  0  0
    6.2131   -6.4753    0.0000 N   0  0  0  0  0  0  0  0  0  0  0  0
    5.4986   -6.8878    0.0000 C   0  0  0  0  0  0  0  0  0  0  0  0
    5.4986   -7.7128    0.0000 N   0  0  0  0  0  0  0  0  0  0  0  0
    6.2131   -8.1253    0.0000 C   0  0  0  0  0  0  0  0  0  0  0  0
    6.9276   -7.7128    0.0000 C   0  0  0  0  0  0  0  0  0  0  0  0
    6.2131   -8.9503    0.0000 N   0  0  0  0  0  0  0  0  0  0  0  0
    4.7842   -6.4753    0.0000 N   0  0  0  0  0  0  0  0  0  0  0  0
  1  2  1  0  0  0  0
  2  3  1  0  0  0  0
  3  4  1  0  0  0  0
  4  5  1  0  0  0  0
  1  5  1  0  0  0  0
  3  6  1  6  0  0  0
  4  7  1  6  0  0  0
  8  9  1  0  0  0  0
  5  8  1  1  0  0  0
 10 11  2  0  0  0  0
 11 12  1  0  0  0  0
 12 13  1  0  0  0  0
 13 14  2  0  0  0  0
 14 15  1  0  0  0  0
 15 16  2  0  0  0  0
 16 17  1  0  0  0  0
 17 18  2  0  0  0  0
 10 18  1  0  0  0  0
 13 18  1  0  0  0  0
 17 19  1  0  0  0  0
 15 20  1  0  0  0  0
  2 12  1  1  0  0  0
M  END
>  <cdx:groupId>
64

>  <cdx:fragmentId>
23

$$$$
