7228.cdx
  Mrv1902 05222410272D          

 15 17  0  0  0  0            999 V2000
    5.4307   -5.0931    0.0000 C   0  0  0  0  0  0  0  0  0  0  0  0
    6.1451   -5.5057    0.0000 C   0  0  0  0  0  0  0  0  0  0  0  0
    6.8596   -5.0934    0.0000 C   0  0  0  0  0  0  0  0  0  0  0  0
    6.8598   -4.2684    0.0000 C   0  0  0  0  0  0  0  0  0  0  0  0
    6.1454   -3.8557    0.0000 C   0  0  0  0  0  0  0  0  0  0  0  0
    5.4309   -4.2681    0.0000 C   0  0  0  0  0  0  0  0  0  0  0  0
    7.5740   -5.5060    0.0000 C   0  0  0  0  0  0  0  0  0  0  0  0
    8.2886   -5.0937    0.0000 C   0  0  0  0  0  0  0  0  0  0  0  0
    8.2887   -4.2687    0.0000 C   0  0  0  0  0  0  0  0  0  0  0  0
    7.5744   -3.8560    0.0000 C   0  0  0  0  0  0  0  0  0  0  0  0
    6.9910   -3.2727    0.0000 C   0  0  0  0  0  0  0  0  0  0  0  0
    8.1578   -3.2728    0.0000 C   0  0  0  0  0  0  0  0  0  0  0  0
    5.7324   -6.2201    0.0000 C   0  0  0  0  0  0  0  0  0  0  0  0
    6.7283   -6.0892    0.0000 C   0  0  0  0  0  0  0  0  0  0  0  0
    6.2276   -4.8797    0.0000 C   0  0  0  0  0  0  0  0  0  0  0  0
  1  2  1  0  0  0  0
  2  3  1  0  0  0  0
  3  4  1  0  0  0  0
  4  5  1  0  0  0  0
  5  6  1  0  0  0  0
  6  1  1  0  0  0  0
  3  7  2  0  0  0  0
  7  8  1  0  0  0  0
  8  9  2  0  0  0  0
  9 10  1  0  0  0  0
 10  4  1  0  0  0  0
 10 11  1  0  0  0  0
 10 12  1  0  0  0  0
  2 13  1  0  0  0  0
  2 14  1  0  0  0  0
  1 15  1  0  0  0  0
 15  4  1  0  0  0  0
M  END
>  <cdx:fragmentId>
5

$$$$
