72304.cdx
  Mrv1902 05222410182D          

 17 19  0  0  0  0            999 V2000
    5.1175   -2.8185    0.0000 C   0  0  0  0  0  0  0  0  0  0  0  0
    5.1175   -3.6435    0.0000 C   0  0  0  0  0  0  0  0  0  0  0  0
    4.4030   -4.0560    0.0000 C   0  0  0  0  0  0  0  0  0  0  0  0
    4.4030   -4.8810    0.0000 O   0  0  0  0  0  0  0  0  0  0  0  0
    3.6885   -3.6435    0.0000 C   0  0  0  0  0  0  0  0  0  0  0  0
    2.9741   -4.0560    0.0000 C   0  0  0  0  0  0  0  0  0  0  0  0
    2.2596   -3.6435    0.0000 C   0  0  0  0  0  0  0  0  0  0  0  0
    2.2596   -2.8185    0.0000 C   0  0  0  0  0  0  0  0  0  0  0  0
    2.9741   -2.4060    0.0000 C   0  0  0  0  0  0  0  0  0  0  0  0
    3.6885   -2.8185    0.0000 C   0  0  0  0  0  0  0  0  0  0  0  0
    4.4030   -2.4060    0.0000 O   0  0  0  0  0  0  0  0  0  0  0  0
    5.8320   -4.0560    0.0000 C   0  0  0  0  0  0  0  0  0  0  0  0
    6.5464   -3.6435    0.0000 C   0  0  0  0  0  0  0  0  0  0  0  0
    7.2609   -4.0560    0.0000 C   0  0  0  0  0  0  0  0  0  0  0  0
    7.2609   -4.8810    0.0000 C   0  0  0  0  0  0  0  0  0  0  0  0
    6.5464   -5.2935    0.0000 C   0  0  0  0  0  0  0  0  0  0  0  0
    5.8320   -4.8810    0.0000 C   0  0  0  0  0  0  0  0  0  0  0  0
  1  2  2  0  0  0  0
  2  3  1  0  0  0  0
  3  4  2  0  0  0  0
  3  5  1  0  0  0  0
  5  6  1  0  0  0  0
  6  7  2  0  0  0  0
  7  8  1  0  0  0  0
  8  9  2  0  0  0  0
  9 10  1  0  0  0  0
  5 10  2  0  0  0  0
 10 11  1  0  0  0  0
  1 11  1  0  0  0  0
  2 12  1  0  0  0  0
 12 13  1  0  0  0  0
 13 14  2  0  0  0  0
 14 15  1  0  0  0  0
 15 16  2  0  0  0  0
 16 17  1  0  0  0  0
 12 17  2  0  0  0  0
M  END
>  <cdx:groupId>
55

>  <cdx:fragmentId>
5

$$$$
