72300.cdx
  Mrv1902 05222410202D          

 20 21  0  0  0  0            999 V2000
    7.4555   -5.1708    0.0000 C   0  0  0  0  0  0  0  0  0  0  0  0
    7.4555   -5.9958    0.0000 C   0  0  0  0  0  0  0  0  0  0  0  0
    6.7410   -6.4083    0.0000 C   0  0  0  0  0  0  0  0  0  0  0  0
    6.0266   -5.9958    0.0000 C   0  0  0  0  0  0  0  0  0  0  0  0
    6.0266   -5.1708    0.0000 C   0  0  0  0  0  0  0  0  0  0  0  0
    6.7410   -4.7583    0.0000 C   0  0  0  0  0  0  0  0  0  0  0  0
    8.1700   -4.7583    0.0000 O   0  0  0  0  0  0  0  0  0  0  0  0
    5.3121   -6.4083    0.0000 C   0  0  0  0  0  0  0  0  0  0  0  0
    4.5976   -5.9958    0.0000 C   0  0  0  0  0  0  0  0  0  0  0  0
    3.8832   -6.4083    0.0000 C   0  0  0  0  0  0  0  0  0  0  0  0
    8.1700   -6.4083    0.0000 C   0  0  0  0  0  0  0  0  0  0  0  0
    8.1700   -7.2333    0.0000 C   0  0  0  0  0  0  0  0  0  0  0  0
    8.8845   -7.6458    0.0000 C   0  0  0  0  0  0  0  0  0  0  0  0
    9.5989   -7.2333    0.0000 C   0  0  0  0  0  0  0  0  0  0  0  0
    9.5989   -6.4083    0.0000 C   0  0  0  0  0  0  0  0  0  0  0  0
    8.8845   -5.9958    0.0000 C   0  0  0  0  0  0  0  0  0  0  0  0
   10.3134   -5.9958    0.0000 C   0  0  0  0  0  0  0  0  0  0  0  0
   11.0279   -6.4083    0.0000 C   0  0  0  0  0  0  0  0  0  0  0  0
   11.7423   -5.9958    0.0000 C   0  0  0  0  0  0  0  0  0  0  0  0
    7.4555   -7.6458    0.0000 O   0  0  0  0  0  0  0  0  0  0  0  0
  1  2  1  0  0  0  0
  2  3  2  0  0  0  0
  3  4  1  0  0  0  0
  4  5  2  0  0  0  0
  5  6  1  0  0  0  0
  1  6  2  0  0  0  0
  1  7  1  0  0  0  0
  8  9  1  0  0  0  0
  9 10  2  0  0  0  0
  4  8  1  0  0  0  0
 11 12  1  0  0  0  0
 12 13  2  0  0  0  0
 13 14  1  0  0  0  0
 14 15  2  0  0  0  0
 15 16  1  0  0  0  0
 11 16  2  0  0  0  0
 17 18  1  0  0  0  0
 18 19  2  0  0  0  0
 15 17  1  0  0  0  0
 12 20  1  0  0  0  0
  2 11  1  0  0  0  0
M  END
>  <cdx:fragmentId>
25

$$$$
