72303.cdx
  Mrv1902 05222410192D          

 20 21  0  0  0  0            999 V2000
    6.6718   -2.3039    0.0000 C   0  0  0  0  0  0  0  0  0  0  0  0
    6.6718   -3.1289    0.0000 C   0  0  0  0  0  0  0  0  0  0  0  0
    5.9573   -3.5414    0.0000 C   0  0  0  0  0  0  0  0  0  0  0  0
    5.2428   -3.1289    0.0000 C   0  0  0  0  0  0  0  0  0  0  0  0
    5.2428   -2.3039    0.0000 C   0  0  0  0  0  0  0  0  0  0  0  0
    5.9573   -1.8914    0.0000 C   0  0  0  0  0  0  0  0  0  0  0  0
    7.3862   -1.8914    0.0000 O   0  0  0  0  0  0  0  0  0  0  0  0
    4.5284   -3.5414    0.0000 C   0  0  0  0  0  0  0  0  0  0  0  0
    3.8139   -3.1289    0.0000 C   0  0  0  0  0  0  0  0  0  0  0  0
    3.0994   -3.5414    0.0000 C   0  0  0  0  0  0  0  0  0  0  0  0
    7.3862   -3.5414    0.0000 C   0  0  0  0  0  0  0  0  0  0  0  0
    8.1007   -3.1289    0.0000 C   0  0  0  0  0  0  0  0  0  0  0  0
    8.8152   -3.5414    0.0000 C   0  0  0  0  0  0  0  0  0  0  0  0
    8.8152   -4.3664    0.0000 C   0  0  0  0  0  0  0  0  0  0  0  0
    8.1007   -4.7789    0.0000 C   0  0  0  0  0  0  0  0  0  0  0  0
    7.3862   -4.3664    0.0000 C   0  0  0  0  0  0  0  0  0  0  0  0
    9.5296   -3.1289    0.0000 C   0  0  0  0  0  0  0  0  0  0  0  0
   10.2441   -3.5414    0.0000 C   0  0  0  0  0  0  0  0  0  0  0  0
   10.9586   -3.1289    0.0000 C   0  0  0  0  0  0  0  0  0  0  0  0
    9.5296   -4.7789    0.0000 O   0  0  0  0  0  0  0  0  0  0  0  0
  1  2  1  0  0  0  0
  2  3  2  0  0  0  0
  3  4  1  0  0  0  0
  4  5  2  0  0  0  0
  5  6  1  0  0  0  0
  1  6  2  0  0  0  0
  1  7  1  0  0  0  0
  8  9  1  0  0  0  0
  9 10  2  0  0  0  0
  4  8  1  0  0  0  0
 11 12  1  0  0  0  0
 12 13  2  0  0  0  0
 13 14  1  0  0  0  0
 14 15  2  0  0  0  0
 15 16  1  0  0  0  0
 11 16  2  0  0  0  0
 17 18  1  0  0  0  0
 18 19  2  0  0  0  0
 13 17  1  0  0  0  0
 14 20  1  0  0  0  0
  2 11  1  0  0  0  0
M  END
>  <cdx:fragmentId>
25

$$$$
