72319.cdx
  Mrv1902 05222410262D          

 35 38  0  0  0  0            999 V2000
    7.0363   -8.2363    0.0000 C   0  0  1  0  0  0  0  0  0  0  0  0
    7.7508   -7.8237    0.0000 C   0  0  1  0  0  0  0  0  0  0  0  0
    7.7508   -6.9988    0.0000 C   0  0  1  0  0  0  0  0  0  0  0  0
    7.0363   -6.5863    0.0000 C   0  0  0  0  0  0  0  0  0  0  0  0
    6.3219   -6.9988    0.0000 C   0  0  0  0  0  0  0  0  0  0  0  0
    6.3219   -7.8237    0.0000 O   0  0  0  0  0  0  0  0  0  0  0  0
    8.5354   -6.7438    0.0000 C   0  0  0  0  0  0  0  0  0  0  0  0
    9.0203   -7.4112    0.0000 C   0  0  0  0  0  0  0  0  0  0  0  0
    8.5354   -8.0787    0.0000 C   0  0  1  0  0  0  0  0  0  0  0  0
    9.3599   -8.0499    0.0000 C   0  0  0  0  0  0  0  0  0  0  0  0
    8.3080   -8.8717    0.0000 O   0  0  0  0  0  0  0  0  0  0  0  0
    8.9920   -9.3331    0.0000 C   0  0  0  0  0  0  0  0  0  0  0  0
    9.6421   -8.8251    0.0000 C   0  0  0  0  0  0  0  0  0  0  0  0
    7.0363   -5.7612    0.0000 C   0  0  0  0  0  0  0  0  0  0  0  0
    7.7508   -5.3487    0.0000 O   0  0  0  0  0  0  0  0  0  0  0  0
    6.3219   -5.3487    0.0000 O   0  0  0  0  0  0  0  0  0  0  0  0
    7.0363   -9.0613    0.0000 O   0  0  0  0  0  0  0  0  0  0  0  0
    5.6074   -9.0612    0.0000 O   0  0  0  0  0  0  0  0  0  0  0  0
    6.3219   -9.4738    0.0000 C   0  0  2  0  0  0  0  0  0  0  0  0
    6.3219  -10.2988    0.0000 C   0  0  1  0  0  0  0  0  0  0  0  0
    5.6074  -10.7112    0.0000 C   0  0  2  0  0  0  0  0  0  0  0  0
    4.8929  -10.2988    0.0000 C   0  0  1  0  0  0  0  0  0  0  0  0
    4.8929   -9.4738    0.0000 C   0  0  1  0  0  0  0  0  0  0  0  0
    4.1784   -9.0612    0.0000 C   0  0  0  0  0  0  0  0  0  0  0  0
    3.4640   -9.4737    0.0000 O   0  0  0  0  0  0  0  0  0  0  0  0
    4.1784  -10.7112    0.0000 O   0  0  0  0  0  0  0  0  0  0  0  0
    5.6074  -11.5362    0.0000 O   0  0  0  0  0  0  0  0  0  0  0  0
    7.0363  -10.7112    0.0000 O   0  0  0  0  0  0  0  0  0  0  0  0
   10.4351   -9.0525    0.0000 C   0  0  1  0  0  0  0  0  0  0  0  0
    9.0208  -10.1576    0.0000 O   0  0  0  0  0  0  0  0  0  0  0  0
    7.8370   -6.1783    0.0000 H   0  0  0  0  0  0  0  0  0  0  0  0
    7.8370   -8.6442    0.0000 H   0  0  0  0  0  0  0  0  0  0  0  0
    6.3219   -4.5237    0.0000 C   0  0  0  0  0  0  0  0  0  0  0  0
   11.0286   -8.4795    0.0000 O   0  0  0  0  0  0  0  0  0  0  0  0
   10.6347   -9.8530    0.0000 C   0  0  0  0  0  0  0  0  0  0  0  0
  1  2  1  0  0  0  0
  2  3  1  0  0  0  0
  3  4  1  0  0  0  0
  4  5  2  0  0  0  0
  5  6  1  0  0  0  0
  1  6  1  0  0  0  0
  7  8  2  0  0  0  0
  8  9  1  0  0  0  0
  9  2  1  0  0  0  0
  7  3  1  0  0  0  0
 11 12  1  0  0  0  0
 12 13  1  0  0  0  0
 10 13  2  0  0  0  0
  9 10  1  0  0  0  0
  9 11  1  6  0  0  0
 14 15  2  0  0  0  0
 14 16  1  0  0  0  0
  4 14  1  0  0  0  0
 18 19  1  0  0  0  0
 19 20  1  0  0  0  0
 20 21  1  0  0  0  0
 21 22  1  0  0  0  0
 22 23  1  0  0  0  0
 18 23  1  0  0  0  0
 24 25  1  0  0  0  0
 23 24  1  1  0  0  0
 22 26  1  6  0  0  0
 21 27  1  1  0  0  0
 20 28  1  6  0  0  0
 19 17  1  1  0  0  0
  1 17  1  6  0  0  0
 13 29  1  0  0  0  0
 12 30  2  0  0  0  0
  3 31  1  6  0  0  0
  2 32  1  6  0  0  0
 16 33  1  0  0  0  0
 29 34  1  1  0  0  0
 29 35  1  0  0  0  0
M  END
>  <cdx:fragmentId>
5

$$$$
