72326.cdx
  Mrv1902 05222410262D          

 36 40  0  0  0  0            999 V2000
    6.7954   -3.0202    0.0000 C   0  0  1  0  0  0  0  0  0  0  0  0
    7.5098   -3.4327    0.0000 C   0  0  1  0  0  0  0  0  0  0  0  0
    7.5098   -4.2577    0.0000 C   0  0  0  0  0  0  0  0  0  0  0  0
    6.7954   -4.6702    0.0000 C   0  0  0  0  0  0  0  0  0  0  0  0
    6.0809   -4.2577    0.0000 C   0  0  1  0  0  0  0  0  0  0  0  0
    5.3664   -4.6702    0.0000 C   0  0  2  0  0  0  0  0  0  0  0  0
    5.3664   -5.4952    0.0000 C   0  0  0  0  0  0  0  0  0  0  0  0
    4.6519   -5.9077    0.0000 C   0  0  0  0  0  0  0  0  0  0  0  0
    3.9375   -5.4952    0.0000 C   0  0  1  0  0  0  0  0  0  0  0  0
    3.2230   -5.9077    0.0000 C   0  0  0  0  0  0  0  0  0  0  0  0
    2.5085   -5.4952    0.0000 C   0  0  2  0  0  0  0  0  0  0  0  0
    2.5085   -4.6702    0.0000 C   0  0  0  0  0  0  0  0  0  0  0  0
    3.2230   -4.2577    0.0000 C   0  0  0  0  0  0  0  0  0  0  0  0
    3.9375   -4.6702    0.0000 C   0  0  2  0  0  0  0  0  0  0  0  0
    4.6519   -4.2577    0.0000 C   0  0  1  0  0  0  0  0  0  0  0  0
    4.6519   -3.4327    0.0000 C   0  0  0  0  0  0  0  0  0  0  0  0
    5.3664   -3.0202    0.0000 C   0  0  0  0  0  0  0  0  0  0  0  0
    6.0809   -3.4327    0.0000 C   0  0  2  0  0  0  0  0  0  0  0  0
    8.1229   -2.8807    0.0000 C   0  0  0  0  0  0  0  0  0  0  0  0
    7.7874   -2.1270    0.0000 C   0  0  0  0  0  0  0  0  0  0  0  0
    6.9669   -2.2132    0.0000 C   0  0  1  0  0  0  0  0  0  0  0  0
    1.7941   -5.9077    0.0000 O   0  0  0  0  0  0  0  0  0  0  0  0
    6.6698   -0.8155    0.0000 C   0  0  0  0  0  0  0  0  0  0  0  0
    6.4149   -1.6001    0.0000 C   0  0  0  0  0  0  0  0  0  0  0  0
    5.6079   -1.7717    0.0000 C   0  0  0  0  0  0  0  0  0  0  0  0
    3.9375   -3.8452    0.0000 C   0  0  0  0  0  0  0  0  0  0  0  0
    3.6355   -6.6222    0.0000 C   0  0  0  0  0  0  0  0  0  0  0  0
    2.8105   -6.6222    0.0000 C   0  0  0  0  0  0  0  0  0  0  0  0
    5.3664   -3.8452    0.0000 C   0  0  0  0  0  0  0  0  0  0  0  0
    6.0809   -5.0827    0.0000 C   0  0  0  0  0  0  0  0  0  0  0  0
    8.2635   -3.7683    0.0000 C   0  0  0  0  0  0  0  0  0  0  0  0
    8.9309   -3.2833    0.0000 O   0  0  0  0  0  0  0  0  0  0  0  0
    3.9375   -6.3202    0.0000 H   0  0  0  0  0  0  0  0  0  0  0  0
    4.6519   -5.0827    0.0000 H   0  0  0  0  0  0  0  0  0  0  0  0
    6.0809   -2.6077    0.0000 H   0  0  0  0  0  0  0  0  0  0  0  0
    6.7954   -3.8452    0.0000 H   0  0  0  0  0  0  0  0  0  0  0  0
  1  2  1  0  0  0  0
  2  3  1  0  0  0  0
  3  4  1  0  0  0  0
  4  5  1  0  0  0  0
  5  6  1  0  0  0  0
  6  7  1  0  0  0  0
  7  8  1  0  0  0  0
  8  9  1  0  0  0  0
  9 10  1  0  0  0  0
 10 11  1  0  0  0  0
 11 12  1  0  0  0  0
 12 13  1  0  0  0  0
 13 14  1  0  0  0  0
  9 14  1  0  0  0  0
 14 15  1  0  0  0  0
  6 15  1  0  0  0  0
 15 16  1  0  0  0  0
 16 17  1  0  0  0  0
 17 18  1  0  0  0  0
  5 18  1  0  0  0  0
  1 18  1  0  0  0  0
 19 20  1  0  0  0  0
 20 21  1  0  0  0  0
 21  1  1  0  0  0  0
 19  2  1  0  0  0  0
 11 22  1  1  0  0  0
 23 24  2  0  0  0  0
 24 25  1  0  0  0  0
 21 24  1  6  0  0  0
 14 26  1  1  0  0  0
 10 27  1  0  0  0  0
 10 28  1  0  0  0  0
  6 29  1  1  0  0  0
  5 30  1  6  0  0  0
 31 32  1  0  0  0  0
  2 31  1  1  0  0  0
  9 33  1  6  0  0  0
 15 34  1  6  0  0  0
 18 35  1  1  0  0  0
  1 36  1  6  0  0  0
M  END
>  <cdx:groupId>
114

>  <cdx:fragmentId>
5

$$$$
