72321.cdx
  Mrv1902 05222410282D          

 25 29  0  0  0  0            999 V2000
    7.1517   -9.0887    0.0000 Cl  0  5  0  0  0  0  0  0  0  0  0  0
    9.2957   -6.2830    0.0000 C   0  0  0  0  0  0  0  0  0  0  0  0
    8.5788   -5.8746    0.0000 C   0  0  0  0  0  0  0  0  0  0  0  0
    7.8668   -6.2913    0.0000 C   0  0  0  0  0  0  0  0  0  0  0  0
    7.8716   -7.1163    0.0000 C   0  0  0  0  0  0  0  0  0  0  0  0
    8.5884   -7.5246    0.0000 C   0  0  0  0  0  0  0  0  0  0  0  0
    9.3005   -7.1080    0.0000 C   0  0  0  0  0  0  0  0  0  0  0  0
    7.1595   -7.5329    0.0000 C   0  0  0  0  0  0  0  0  0  0  0  0
    7.1643   -8.3579    0.0000 N   0  3  0  0  0  0  0  0  0  0  0  0
    7.8811   -8.7663    0.0000 C   0  0  0  0  0  0  0  0  0  0  0  0
    8.5932   -8.3496    0.0000 C   0  0  0  0  0  0  0  0  0  0  0  0
    6.4426   -7.1246    0.0000 C   0  0  0  0  0  0  0  0  0  0  0  0
    5.7306   -7.5412    0.0000 C   0  0  0  0  0  0  0  0  0  0  0  0
    5.7354   -8.3662    0.0000 C   0  0  0  0  0  0  0  0  0  0  0  0
    6.4522   -8.7745    0.0000 C   0  0  0  0  0  0  0  0  0  0  0  0
    5.0137   -7.1329    0.0000 C   0  0  0  0  0  0  0  0  0  0  0  0
    4.3017   -7.5495    0.0000 C   0  0  0  0  0  0  0  0  0  0  0  0
    4.3064   -8.3745    0.0000 C   0  0  0  0  0  0  0  0  0  0  0  0
    5.0233   -8.7828    0.0000 C   0  0  0  0  0  0  0  0  0  0  0  0
    9.9056   -5.7274    0.0000 O   0  0  0  0  0  0  0  0  0  0  0  0
    9.5656   -4.9757    0.0000 C   0  0  0  0  0  0  0  0  0  0  0  0
    8.7457   -5.0667    0.0000 O   0  0  0  0  0  0  0  0  0  0  0  0
    3.6966   -8.9301    0.0000 O   0  0  0  0  0  0  0  0  0  0  0  0
    4.0365   -9.6818    0.0000 C   0  0  0  0  0  0  0  0  0  0  0  0
    4.8565   -9.5908    0.0000 O   0  0  0  0  0  0  0  0  0  0  0  0
  2  3  2  0  0  0  0
  3  4  1  0  0  0  0
  4  5  2  0  0  0  0
  5  6  1  0  0  0  0
  6  7  2  0  0  0  0
  7  2  1  0  0  0  0
  5  8  1  0  0  0  0
  8  9  2  0  0  0  0
  9 10  1  0  0  0  0
 10 11  1  0  0  0  0
 11  6  1  0  0  0  0
  8 12  1  0  0  0  0
 12 13  2  0  0  0  0
 13 14  1  0  0  0  0
 14 15  2  0  0  0  0
 15  9  1  0  0  0  0
 13 16  1  0  0  0  0
 16 17  2  0  0  0  0
 17 18  1  0  0  0  0
 18 19  2  0  0  0  0
 19 14  1  0  0  0  0
  2 20  1  0  0  0  0
 20 21  1  0  0  0  0
 21 22  1  0  0  0  0
 22  3  1  0  0  0  0
 18 23  1  0  0  0  0
 23 24  1  0  0  0  0
 24 25  1  0  0  0  0
 25 19  1  0  0  0  0
M  CHG  2   1  -1   9   1
M  END
>  <cdx:groupId>
81

>  <cdx:fragmentId>
107

$$$$
