723872.cdx
  Mrv1902 05222410242D          

 12 12  0  0  0  0            999 V2000
    6.5087   -7.1638    0.0000 C   0  0  1  0  0  0  0  0  0  0  0  0
    6.5087   -7.9888    0.0000 C   0  0  1  0  0  0  0  0  0  0  0  0
    7.2231   -8.4013    0.0000 C   0  0  0  0  0  0  0  0  0  0  0  0
    7.9376   -7.9888    0.0000 O   0  0  0  0  0  0  0  0  0  0  0  0
    7.9376   -7.1638    0.0000 C   0  0  0  0  0  0  0  0  0  0  0  0
    7.2231   -6.7512    0.0000 C   0  0  1  0  0  0  0  0  0  0  0  0
    5.7942   -6.7512    0.0000 O   0  0  0  0  0  0  0  0  0  0  0  0
    7.2231   -5.9262    0.0000 O   0  0  0  0  0  0  0  0  0  0  0  0
    7.6356   -9.1157    0.0000 O   0  0  0  0  0  0  0  0  0  0  0  0
    5.7942   -8.4013    0.0000 O   0  0  0  0  0  0  0  0  0  0  0  0
    6.8106   -9.1157    0.0000 C   0  0  0  0  0  0  0  0  0  0  0  0
    7.2231   -9.8302    0.0000 O   0  0  0  0  0  0  0  0  0  0  0  0
  1  2  1  0  0  0  0
  2  3  1  0  0  0  0
  3  4  1  0  0  0  0
  4  5  1  0  0  0  0
  5  6  1  0  0  0  0
  6  1  1  0  0  0  0
  1  7  1  6  0  0  0
  6  8  1  6  0  0  0
  3  9  1  0  0  0  0
  2 10  1  1  0  0  0
  3 11  1  0  0  0  0
 11 12  1  0  0  0  0
M  END
>  <cdx:fragmentId>
5

$$$$
