723995.cdx
  Mrv1902 05222410202D          

 24 27  0  0  0  0            999 V2000
    7.9351   -7.7892    0.0000 C   0  0  0  0  0  0  0  0  0  0  0  0
    7.9398   -8.6142    0.0000 C   0  0  0  0  0  0  0  0  0  0  0  0
    7.2277   -9.0307    0.0000 C   0  0  0  0  0  0  0  0  0  0  0  0
    6.5109   -8.6223    0.0000 C   0  0  0  0  0  0  0  0  0  0  0  0
    5.7988   -9.0388    0.0000 C   0  0  0  0  0  0  0  0  0  0  0  0
    5.0820   -8.6304    0.0000 C   0  0  0  0  0  0  0  0  0  0  0  0
    5.0773   -7.8054    0.0000 C   0  0  0  0  0  0  0  0  0  0  0  0
    5.7894   -7.3888    0.0000 C   0  0  0  0  0  0  0  0  0  0  0  0
    6.5062   -7.7973    0.0000 C   0  0  0  0  0  0  0  0  0  0  0  0
    7.2184   -7.3808    0.0000 O   0  0  0  0  0  0  0  0  0  0  0  0
    4.2913   -7.5549    0.0000 O   0  0  0  0  0  0  0  0  0  0  0  0
    3.8101   -8.2251    0.0000 C   0  0  0  0  0  0  0  0  0  0  0  0
    4.2988   -8.8897    0.0000 O   0  0  0  0  0  0  0  0  0  0  0  0
    7.2324   -9.8557    0.0000 O   0  0  0  0  0  0  0  0  0  0  0  0
    8.6566   -9.0226    0.0000 C   0  0  0  0  0  0  0  0  0  0  0  0
    9.3687   -8.6061    0.0000 C   0  0  0  0  0  0  0  0  0  0  0  0
   10.0855   -9.0145    0.0000 C   0  0  0  0  0  0  0  0  0  0  0  0
   10.0902   -9.8395    0.0000 C   0  0  0  0  0  0  0  0  0  0  0  0
    9.3781  -10.2561    0.0000 C   0  0  0  0  0  0  0  0  0  0  0  0
    8.6613   -9.8476    0.0000 C   0  0  0  0  0  0  0  0  0  0  0  0
   10.7977   -8.5980    0.0000 O   0  0  0  0  0  0  0  0  0  0  0  0
   11.5145   -9.0065    0.0000 C   0  0  0  0  0  0  0  0  0  0  0  0
   10.8070  -10.2480    0.0000 O   0  0  0  0  0  0  0  0  0  0  0  0
    5.8034   -9.8638    0.0000 O   0  0  0  0  0  0  0  0  0  0  0  0
  1  2  2  0  0  0  0
  2  3  1  0  0  0  0
  3  4  1  0  0  0  0
  4  5  2  0  0  0  0
  5  6  1  0  0  0  0
  6  7  2  0  0  0  0
  7  8  1  0  0  0  0
  8  9  2  0  0  0  0
  4  9  1  0  0  0  0
  9 10  1  0  0  0  0
  1 10  1  0  0  0  0
 11 12  1  0  0  0  0
 12 13  1  0  0  0  0
 13  6  1  0  0  0  0
 11  7  1  0  0  0  0
  3 14  2  0  0  0  0
 15 16  1  0  0  0  0
 16 17  2  0  0  0  0
 17 18  1  0  0  0  0
 18 19  2  0  0  0  0
 19 20  1  0  0  0  0
 15 20  2  0  0  0  0
 21 22  1  0  0  0  0
 17 21  1  0  0  0  0
 18 23  1  0  0  0  0
  2 15  1  0  0  0  0
  5 24  1  0  0  0  0
M  END
>  <cdx:groupId>
80050

>  <cdx:fragmentId>
79978

$$$$
