723992.cdx
  Mrv1902 05222410192D          

100107  0  0  0  0            999 V2000
   11.7215  -12.2743    0.0000 C   0  0  0  0  0  0  0  0  0  0  0  0
   11.7322  -13.0993    0.0000 C   0  0  0  0  0  0  0  0  0  0  0  0
   12.4519  -13.5025    0.0000 C   0  0  0  0  0  0  0  0  0  0  0  0
   12.4625  -14.3274    0.0000 C   0  0  0  0  0  0  0  0  0  0  0  0
   11.7534  -14.7491    0.0000 C   0  0  0  0  0  0  0  0  0  0  0  0
   11.0337  -14.3459    0.0000 C   0  0  0  0  0  0  0  0  0  0  0  0
   11.0231  -13.5209    0.0000 C   0  0  0  0  0  0  0  0  0  0  0  0
   12.4306  -11.8526    0.0000 O   0  0  0  0  0  0  0  0  0  0  0  0
   11.0018  -11.8711    0.0000 O   0  0  0  0  0  0  0  0  0  0  0  0
   10.3246  -14.7675    0.0000 O   0  0  0  0  0  0  0  0  0  0  0  0
   11.7641  -15.5740    0.0000 O   0  0  0  0  0  0  0  0  0  0  0  0
   13.1823  -14.7307    0.0000 O   0  0  0  0  0  0  0  0  0  0  0  0
   10.0417   -9.4495    0.0000 C   0  0  0  0  0  0  0  0  0  0  0  0
   10.9773   -9.9737    0.0000 C   0  0  0  0  0  0  0  0  0  0  0  0
   10.9912  -11.0461    0.0000 C   0  0  1  0  0  0  0  0  0  0  0  0
   15.7308  -10.9850    0.0000 C   0  0  2  0  0  0  0  0  0  0  0  0
   17.6446  -10.9603    0.0000 C   0  0  0  0  0  0  0  0  0  0  0  0
   17.6308   -9.8879    0.0000 C   0  0  1  0  0  0  0  0  0  0  0  0
   18.3399   -9.4662    0.0000 C   0  0  0  0  0  0  0  0  0  0  0  0
   18.3293   -8.6413    0.0000 C   0  0  0  0  0  0  0  0  0  0  0  0
   17.6095   -8.2381    0.0000 C   0  0  0  0  0  0  0  0  0  0  0  0
   17.5989   -7.4131    0.0000 C   0  0  0  0  0  0  0  0  0  0  0  0
   18.3080   -6.9915    0.0000 C   0  0  0  0  0  0  0  0  0  0  0  0
   19.0277   -7.3947    0.0000 C   0  0  0  0  0  0  0  0  0  0  0  0
   19.0383   -8.2196    0.0000 C   0  0  0  0  0  0  0  0  0  0  0  0
   19.7368   -6.9730    0.0000 O   0  0  0  0  0  0  0  0  0  0  0  0
   18.2973   -6.1665    0.0000 O   0  0  0  0  0  0  0  0  0  0  0  0
   16.8792   -7.0099    0.0000 O   0  0  0  0  0  0  0  0  0  0  0  0
   10.0310   -8.6246    0.0000 C   0  0  0  0  0  0  0  0  0  0  0  0
    9.3113   -8.2213    0.0000 C   0  0  0  0  0  0  0  0  0  0  0  0
    9.3007   -7.3964    0.0000 C   0  0  0  0  0  0  0  0  0  0  0  0
   10.0098   -6.9747    0.0000 C   0  0  0  0  0  0  0  0  0  0  0  0
   10.7295   -7.3780    0.0000 C   0  0  0  0  0  0  0  0  0  0  0  0
   10.7401   -8.2029    0.0000 C   0  0  0  0  0  0  0  0  0  0  0  0
   11.4386   -6.9563    0.0000 O   0  0  0  0  0  0  0  0  0  0  0  0
    9.9991   -6.1498    0.0000 O   0  0  0  0  0  0  0  0  0  0  0  0
    8.5810   -6.9931    0.0000 O   0  0  0  0  0  0  0  0  0  0  0  0
   18.7170  -10.9465    0.0000 O   0  0  0  0  0  0  0  0  0  0  0  0
   19.3622   -9.7949    0.0000 C   0  0  0  0  0  0  0  0  0  0  0  0
   20.1872   -9.7843    0.0000 C   0  0  0  0  0  0  0  0  0  0  0  0
   20.5904   -9.0646    0.0000 C   0  0  0  0  0  0  0  0  0  0  0  0
   21.4154   -9.0539    0.0000 C   0  0  0  0  0  0  0  0  0  0  0  0
   21.8370   -9.7630    0.0000 C   0  0  0  0  0  0  0  0  0  0  0  0
   21.4338  -10.4828    0.0000 C   0  0  0  0  0  0  0  0  0  0  0  0
   20.6089  -10.4934    0.0000 C   0  0  0  0  0  0  0  0  0  0  0  0
   18.9406   -9.0858    0.0000 O   0  0  0  0  0  0  0  0  0  0  0  0
   21.8555  -11.1918    0.0000 O   0  0  0  0  0  0  0  0  0  0  0  0
   22.6620   -9.7524    0.0000 O   0  0  0  0  0  0  0  0  0  0  0  0
   21.8186   -8.3342    0.0000 O   0  0  0  0  0  0  0  0  0  0  0  0
   15.7414  -11.8099    0.0000 O   0  0  0  0  0  0  0  0  0  0  0  0
   15.0323  -12.2316    0.0000 C   0  0  0  0  0  0  0  0  0  0  0  0
   15.0430  -13.0566    0.0000 C   0  0  0  0  0  0  0  0  0  0  0  0
   15.7627  -13.4598    0.0000 C   0  0  0  0  0  0  0  0  0  0  0  0
   15.7733  -14.2847    0.0000 C   0  0  0  0  0  0  0  0  0  0  0  0
   15.0642  -14.7064    0.0000 C   0  0  0  0  0  0  0  0  0  0  0  0
   14.3445  -14.3032    0.0000 C   0  0  0  0  0  0  0  0  0  0  0  0
   14.3339  -13.4782    0.0000 C   0  0  0  0  0  0  0  0  0  0  0  0
   14.3126  -11.8284    0.0000 O   0  0  0  0  0  0  0  0  0  0  0  0
   13.6354  -14.7248    0.0000 O   0  0  0  0  0  0  0  0  0  0  0  0
   15.0749  -15.5314    0.0000 O   0  0  0  0  0  0  0  0  0  0  0  0
   16.4931  -14.6880    0.0000 O   0  0  0  0  0  0  0  0  0  0  0  0
   17.6553  -11.7853    0.0000 C   0  0  0  0  0  0  0  0  0  0  0  0
   18.3750  -12.1885    0.0000 C   0  0  0  0  0  0  0  0  0  0  0  0
   19.0841  -11.7668    0.0000 C   0  0  0  0  0  0  0  0  0  0  0  0
   19.8038  -12.1701    0.0000 C   0  0  0  0  0  0  0  0  0  0  0  0
   19.8145  -12.9950    0.0000 C   0  0  0  0  0  0  0  0  0  0  0  0
   19.1054  -13.4167    0.0000 C   0  0  0  0  0  0  0  0  0  0  0  0
   18.3856  -13.0135    0.0000 C   0  0  0  0  0  0  0  0  0  0  0  0
   16.9462  -12.2069    0.0000 O   0  0  0  0  0  0  0  0  0  0  0  0
   19.1160  -14.2416    0.0000 O   0  0  0  0  0  0  0  0  0  0  0  0
   20.5342  -13.3983    0.0000 O   0  0  0  0  0  0  0  0  0  0  0  0
   20.5129  -11.7484    0.0000 O   0  0  0  0  0  0  0  0  0  0  0  0
   15.7201  -10.1601    0.0000 C   0  0  0  0  0  0  0  0  0  0  0  0
   15.0004   -9.7568    0.0000 C   0  0  0  0  0  0  0  0  0  0  0  0
   14.2913  -10.1785    0.0000 C   0  0  0  0  0  0  0  0  0  0  0  0
   13.5716   -9.7753    0.0000 C   0  0  0  0  0  0  0  0  0  0  0  0
   13.5610   -8.9503    0.0000 C   0  0  0  0  0  0  0  0  0  0  0  0
   14.2700   -8.5286    0.0000 C   0  0  0  0  0  0  0  0  0  0  0  0
   14.9898   -8.9319    0.0000 C   0  0  0  0  0  0  0  0  0  0  0  0
   16.4292   -9.7384    0.0000 O   0  0  0  0  0  0  0  0  0  0  0  0
   14.2594   -7.7037    0.0000 O   0  0  0  0  0  0  0  0  0  0  0  0
   12.8412   -8.5471    0.0000 O   0  0  0  0  0  0  0  0  0  0  0  0
   12.8625  -10.1969    0.0000 O   0  0  0  0  0  0  0  0  0  0  0  0
   10.1662  -11.0568    0.0000 C   0  0  0  0  0  0  0  0  0  0  0  0
    9.7630  -11.7765    0.0000 C   0  0  0  0  0  0  0  0  0  0  0  0
   10.1847  -12.4856    0.0000 C   0  0  0  0  0  0  0  0  0  0  0  0
    9.7814  -13.2053    0.0000 C   0  0  0  0  0  0  0  0  0  0  0  0
    8.9565  -13.2160    0.0000 C   0  0  0  0  0  0  0  0  0  0  0  0
    8.5348  -12.5069    0.0000 C   0  0  0  0  0  0  0  0  0  0  0  0
    8.9380  -11.7871    0.0000 C   0  0  0  0  0  0  0  0  0  0  0  0
    9.7446  -10.3477    0.0000 O   0  0  0  0  0  0  0  0  0  0  0  0
    7.7099  -12.5175    0.0000 O   0  0  0  0  0  0  0  0  0  0  0  0
    8.5532  -13.9357    0.0000 O   0  0  0  0  0  0  0  0  0  0  0  0
   10.2031  -13.9144    0.0000 O   0  0  0  0  0  0  0  0  0  0  0  0
   19.0596   -9.8695    0.0000 O   0  0  0  0  0  0  0  0  0  0  0  0
   11.6864   -9.5520    0.0000 O   0  0  0  0  0  0  0  0  0  0  0  0
    9.3326   -9.8712    0.0000 O   0  0  0  0  0  0  0  0  0  0  0  0
   17.6202   -9.0630    0.0000 C   0  0  0  0  0  0  0  0  0  0  0  0
   16.9004   -8.6597    0.0000 O   0  0  0  0  0  0  0  0  0  0  0  0
   16.9111   -9.4847    0.0000 O   0  0  0  0  0  0  0  0  0  0  0  0
  1  2  1  0  0  0  0
  2  3  1  0  0  0  0
  3  4  2  0  0  0  0
  4  5  1  0  0  0  0
  5  6  2  0  0  0  0
  6  7  1  0  0  0  0
  2  7  2  0  0  0  0
  1  8  2  0  0  0  0
  1  9  1  0  0  0  0
  6 10  1  0  0  0  0
  5 11  1  0  0  0  0
  4 12  1  0  0  0  0
 13 14  1  0  0  0  0
 15 14  1  1  0  0  0
 15 16  1  0  0  0  0
 16 17  1  0  0  0  0
 17 18  1  0  0  0  0
 18 19  1  0  0  0  0
 20 21  1  0  0  0  0
 21 22  2  0  0  0  0
 22 23  1  0  0  0  0
 23 24  2  0  0  0  0
 24 25  1  0  0  0  0
 20 25  2  0  0  0  0
 24 26  1  0  0  0  0
 23 27  1  0  0  0  0
 22 28  1  0  0  0  0
 19 20  1  0  0  0  0
 29 30  1  0  0  0  0
 30 31  2  0  0  0  0
 31 32  1  0  0  0  0
 32 33  2  0  0  0  0
 33 34  1  0  0  0  0
 29 34  2  0  0  0  0
 33 35  1  0  0  0  0
 32 36  1  0  0  0  0
 31 37  1  0  0  0  0
 13 29  1  0  0  0  0
 39 40  1  0  0  0  0
 40 41  1  0  0  0  0
 41 42  2  0  0  0  0
 42 43  1  0  0  0  0
 43 44  2  0  0  0  0
 44 45  1  0  0  0  0
 40 45  2  0  0  0  0
 39 46  2  0  0  0  0
 44 47  1  0  0  0  0
 43 48  1  0  0  0  0
 42 49  1  0  0  0  0
 38 39  1  0  0  0  0
 17 38  1  1  0  0  0
 51 52  1  0  0  0  0
 52 53  1  0  0  0  0
 53 54  2  0  0  0  0
 54 55  1  0  0  0  0
 55 56  2  0  0  0  0
 56 57  1  0  0  0  0
 52 57  2  0  0  0  0
 51 58  2  0  0  0  0
 56 59  1  0  0  0  0
 55 60  1  0  0  0  0
 54 61  1  0  0  0  0
 50 51  1  0  0  0  0
 16 50  1  1  0  0  0
 62 63  1  0  0  0  0
 63 64  1  0  0  0  0
 64 65  2  0  0  0  0
 65 66  1  0  0  0  0
 66 67  2  0  0  0  0
 67 68  1  0  0  0  0
 63 68  2  0  0  0  0
 62 69  2  0  0  0  0
 67 70  1  0  0  0  0
 66 71  1  0  0  0  0
 65 72  1  0  0  0  0
 17 62  1  0  0  0  0
 73 74  1  0  0  0  0
 74 75  1  0  0  0  0
 75 76  2  0  0  0  0
 76 77  1  0  0  0  0
 77 78  2  0  0  0  0
 78 79  1  0  0  0  0
 74 79  2  0  0  0  0
 73 80  2  0  0  0  0
 78 81  1  0  0  0  0
 77 82  1  0  0  0  0
 76 83  1  0  0  0  0
 16 73  1  1  0  0  0
 84 85  1  0  0  0  0
 85 86  1  0  0  0  0
 86 87  2  0  0  0  0
 87 88  1  0  0  0  0
 88 89  2  0  0  0  0
 89 90  1  0  0  0  0
 85 90  2  0  0  0  0
 84 91  2  0  0  0  0
 89 92  1  0  0  0  0
 88 93  1  0  0  0  0
 87 94  1  0  0  0  0
 15 84  1  0  0  0  0
 19 95  2  0  0  0  0
 14 96  2  0  0  0  0
 13 97  2  0  0  0  0
 98 99  1  0  0  0  0
 18 98  1  6  0  0  0
 18100  1  0  0  0  0
 15  9  1  1  0  0  0
M  END
>  <cdx:fragmentId>
82296

$$$$
