723994.cdx
  Mrv1902 05222410202D          

122131  0  0  0  0            999 V2000
    7.9028  -11.6193    0.0000 C   0  0  0  0  0  0  0  0  0  0  0  0
    7.8990  -12.4442    0.0000 C   0  0  0  0  0  0  0  0  0  0  0  0
    7.1827  -12.8535    0.0000 C   0  0  0  0  0  0  0  0  0  0  0  0
    7.1789  -13.6785    0.0000 C   0  0  0  0  0  0  0  0  0  0  0  0
    7.8915  -14.0942    0.0000 C   0  0  0  0  0  0  0  0  0  0  0  0
    8.6078  -13.6850    0.0000 C   0  0  0  0  0  0  0  0  0  0  0  0
    8.6116  -12.8600    0.0000 C   0  0  0  0  0  0  0  0  0  0  0  0
    7.1902  -11.2035    0.0000 O   0  0  0  0  0  0  0  0  0  0  0  0
    9.0490  -10.9645    0.0000 O   0  0  0  0  0  0  0  0  0  0  0  0
    9.3204  -14.1008    0.0000 O   0  0  0  0  0  0  0  0  0  0  0  0
    7.8877  -14.9192    0.0000 O   0  0  0  0  0  0  0  0  0  0  0  0
    6.4625  -14.0877    0.0000 O   0  0  0  0  0  0  0  0  0  0  0  0
    7.5710   -9.4182    0.0000 C   0  0  0  0  0  0  0  0  0  0  0  0
    7.9802  -10.1346    0.0000 C   0  0  0  0  0  0  0  0  0  0  0  0
    9.0527  -10.1395    0.0000 C   0  0  2  0  0  0  0  0  0  0  0  0
    9.8777  -10.1433    0.0000 C   0  0  2  0  0  0  0  0  0  0  0  0
   14.7862  -10.1657    0.0000 C   0  0  1  0  0  0  0  0  0  0  0  0
   18.0688  -10.1807    0.0000 C   0  0  2  0  0  0  0  0  0  0  0  0
   18.0650  -11.0057    0.0000 C   0  0  0  0  0  0  0  0  0  0  0  0
   17.3487  -11.4150    0.0000 C   0  0  0  0  0  0  0  0  0  0  0  0
   17.3449  -12.2400    0.0000 C   0  0  0  0  0  0  0  0  0  0  0  0
   18.0575  -12.6557    0.0000 C   0  0  0  0  0  0  0  0  0  0  0  0
   18.0537  -13.4807    0.0000 C   0  0  0  0  0  0  0  0  0  0  0  0
   17.3374  -13.8899    0.0000 C   0  0  0  0  0  0  0  0  0  0  0  0
   16.6248  -13.4742    0.0000 C   0  0  0  0  0  0  0  0  0  0  0  0
   16.6286  -12.6492    0.0000 C   0  0  0  0  0  0  0  0  0  0  0  0
   15.9084  -13.8834    0.0000 O   0  0  0  0  0  0  0  0  0  0  0  0
   17.3336  -14.7149    0.0000 O   0  0  0  0  0  0  0  0  0  0  0  0
   18.7663  -13.8965    0.0000 O   0  0  0  0  0  0  0  0  0  0  0  0
    6.7460   -9.4145    0.0000 C   0  0  0  0  0  0  0  0  0  0  0  0
    6.3368   -8.6981    0.0000 C   0  0  0  0  0  0  0  0  0  0  0  0
    5.5118   -8.6943    0.0000 C   0  0  0  0  0  0  0  0  0  0  0  0
    5.0960   -9.4069    0.0000 C   0  0  0  0  0  0  0  0  0  0  0  0
    5.5053  -10.1233    0.0000 C   0  0  0  0  0  0  0  0  0  0  0  0
    6.3303  -10.1270    0.0000 C   0  0  0  0  0  0  0  0  0  0  0  0
    5.0895  -10.8359    0.0000 O   0  0  0  0  0  0  0  0  0  0  0  0
    4.2711   -9.4031    0.0000 O   0  0  0  0  0  0  0  0  0  0  0  0
    5.1026   -7.9780    0.0000 O   0  0  0  0  0  0  0  0  0  0  0  0
   18.0737   -9.1083    0.0000 O   0  0  0  0  0  0  0  0  0  0  0  0
   19.0050   -8.5763    0.0000 C   0  0  0  0  0  0  0  0  0  0  0  0
   19.0088   -7.7513    0.0000 C   0  0  0  0  0  0  0  0  0  0  0  0
   18.2962   -7.3355    0.0000 C   0  0  0  0  0  0  0  0  0  0  0  0
   18.3000   -6.5105    0.0000 C   0  0  0  0  0  0  0  0  0  0  0  0
   19.0163   -6.1013    0.0000 C   0  0  0  0  0  0  0  0  0  0  0  0
   19.7289   -6.5171    0.0000 C   0  0  0  0  0  0  0  0  0  0  0  0
   19.7251   -7.3420    0.0000 C   0  0  0  0  0  0  0  0  0  0  0  0
   19.7176   -8.9920    0.0000 O   0  0  0  0  0  0  0  0  0  0  0  0
   20.4452   -6.1078    0.0000 O   0  0  0  0  0  0  0  0  0  0  0  0
   19.0201   -5.2763    0.0000 O   0  0  0  0  0  0  0  0  0  0  0  0
   17.5874   -6.0948    0.0000 O   0  0  0  0  0  0  0  0  0  0  0  0
   14.7824  -10.9907    0.0000 O   0  0  0  0  0  0  0  0  0  0  0  0
   14.0661  -11.3999    0.0000 C   0  0  0  0  0  0  0  0  0  0  0  0
   14.0623  -12.2249    0.0000 C   0  0  0  0  0  0  0  0  0  0  0  0
   14.7749  -12.6407    0.0000 C   0  0  0  0  0  0  0  0  0  0  0  0
   14.7711  -13.4657    0.0000 C   0  0  0  0  0  0  0  0  0  0  0  0
   14.0547  -13.8749    0.0000 C   0  0  0  0  0  0  0  0  0  0  0  0
   13.3422  -13.4592    0.0000 C   0  0  0  0  0  0  0  0  0  0  0  0
   13.3459  -12.6342    0.0000 C   0  0  0  0  0  0  0  0  0  0  0  0
   13.3535  -10.9842    0.0000 O   0  0  0  0  0  0  0  0  0  0  0  0
   12.6258  -13.8684    0.0000 O   0  0  0  0  0  0  0  0  0  0  0  0
   14.0510  -14.6999    0.0000 O   0  0  0  0  0  0  0  0  0  0  0  0
   15.4837  -13.8815    0.0000 O   0  0  0  0  0  0  0  0  0  0  0  0
    9.8815   -9.3183    0.0000 O   0  0  0  0  0  0  0  0  0  0  0  0
   10.5978   -8.9091    0.0000 C   0  0  0  0  0  0  0  0  0  0  0  0
   10.6016   -8.0841    0.0000 C   0  0  0  0  0  0  0  0  0  0  0  0
   11.3180   -7.6748    0.0000 C   0  0  0  0  0  0  0  0  0  0  0  0
   11.3217   -6.8498    0.0000 C   0  0  0  0  0  0  0  0  0  0  0  0
   10.6092   -6.4341    0.0000 C   0  0  0  0  0  0  0  0  0  0  0  0
    9.8928   -6.8433    0.0000 C   0  0  0  0  0  0  0  0  0  0  0  0
    9.8890   -7.6683    0.0000 C   0  0  0  0  0  0  0  0  0  0  0  0
   11.3104   -9.3248    0.0000 O   0  0  0  0  0  0  0  0  0  0  0  0
    9.1802   -6.4275    0.0000 O   0  0  0  0  0  0  0  0  0  0  0  0
   10.6129   -5.6091    0.0000 O   0  0  0  0  0  0  0  0  0  0  0  0
   12.0381   -6.4406    0.0000 O   0  0  0  0  0  0  0  0  0  0  0  0
   18.8938  -10.1845    0.0000 C   0  0  0  0  0  0  0  0  0  0  0  0
   19.3030  -10.9009    0.0000 C   0  0  0  0  0  0  0  0  0  0  0  0
   18.8873  -11.6134    0.0000 C   0  0  0  0  0  0  0  0  0  0  0  0
   19.2965  -12.3298    0.0000 C   0  0  0  0  0  0  0  0  0  0  0  0
   20.1215  -12.3336    0.0000 C   0  0  0  0  0  0  0  0  0  0  0  0
   20.5373  -11.6210    0.0000 C   0  0  0  0  0  0  0  0  0  0  0  0
   20.1280  -10.9046    0.0000 C   0  0  0  0  0  0  0  0  0  0  0  0
   19.3096   -9.4719    0.0000 O   0  0  0  0  0  0  0  0  0  0  0  0
   21.3622  -11.6248    0.0000 O   0  0  0  0  0  0  0  0  0  0  0  0
   20.5307  -13.0499    0.0000 O   0  0  0  0  0  0  0  0  0  0  0  0
   18.8807  -13.0424    0.0000 O   0  0  0  0  0  0  0  0  0  0  0  0
   14.7900   -9.3407    0.0000 C   0  0  0  0  0  0  0  0  0  0  0  0
   15.5063   -8.9315    0.0000 C   0  0  0  0  0  0  0  0  0  0  0  0
   16.2189   -9.3473    0.0000 C   0  0  0  0  0  0  0  0  0  0  0  0
   16.9352   -8.9380    0.0000 C   0  0  0  0  0  0  0  0  0  0  0  0
   16.9390   -8.1131    0.0000 C   0  0  0  0  0  0  0  0  0  0  0  0
   16.2264   -7.6973    0.0000 C   0  0  0  0  0  0  0  0  0  0  0  0
   15.5101   -8.1065    0.0000 C   0  0  0  0  0  0  0  0  0  0  0  0
   14.0774   -8.9250    0.0000 O   0  0  0  0  0  0  0  0  0  0  0  0
   16.2302   -6.8723    0.0000 O   0  0  0  0  0  0  0  0  0  0  0  0
   17.6554   -7.7038    0.0000 O   0  0  0  0  0  0  0  0  0  0  0  0
   17.6478   -9.3538    0.0000 O   0  0  0  0  0  0  0  0  0  0  0  0
    9.8740  -10.9683    0.0000 C   0  0  0  0  0  0  0  0  0  0  0  0
   10.5865  -11.3840    0.0000 C   0  0  0  0  0  0  0  0  0  0  0  0
   10.5828  -12.2090    0.0000 C   0  0  0  0  0  0  0  0  0  0  0  0
   11.2953  -12.6248    0.0000 C   0  0  0  0  0  0  0  0  0  0  0  0
   12.0117  -12.2156    0.0000 C   0  0  0  0  0  0  0  0  0  0  0  0
   12.0155  -11.3906    0.0000 C   0  0  0  0  0  0  0  0  0  0  0  0
   11.3029  -10.9748    0.0000 C   0  0  0  0  0  0  0  0  0  0  0  0
    9.1576  -11.3775    0.0000 O   0  0  0  0  0  0  0  0  0  0  0  0
   12.7318  -10.9813    0.0000 O   0  0  0  0  0  0  0  0  0  0  0  0
   12.7243  -12.6313    0.0000 O   0  0  0  0  0  0  0  0  0  0  0  0
   11.2916  -13.4498    0.0000 O   0  0  0  0  0  0  0  0  0  0  0  0
    9.0610   -8.3245    0.0000 C   0  0  0  0  0  0  0  0  0  0  0  0
    8.3485   -7.9088    0.0000 C   0  0  0  0  0  0  0  0  0  0  0  0
    7.6321   -8.3180    0.0000 C   0  0  0  0  0  0  0  0  0  0  0  0
    6.9195   -7.9022    0.0000 C   0  0  0  0  0  0  0  0  0  0  0  0
    6.9233   -7.0772    0.0000 C   0  0  0  0  0  0  0  0  0  0  0  0
    7.6397   -6.6680    0.0000 C   0  0  0  0  0  0  0  0  0  0  0  0
    8.3522   -7.0838    0.0000 C   0  0  0  0  0  0  0  0  0  0  0  0
    9.5983   -8.0176    0.0000 O   0  0  0  0  0  0  0  0  0  0  0  0
    7.6434   -5.8430    0.0000 O   0  0  0  0  0  0  0  0  0  0  0  0
    6.2107   -6.6615    0.0000 O   0  0  0  0  0  0  0  0  0  0  0  0
    6.2032   -8.3114    0.0000 O   0  0  0  0  0  0  0  0  0  0  0  0
   16.6361  -10.9992    0.0000 O   0  0  0  0  0  0  0  0  0  0  0  0
   18.5995  -11.3176    0.0000 O   0  0  0  0  0  0  0  0  0  0  0  0
    7.9868   -8.7057    0.0000 O   0  0  0  0  0  0  0  0  0  0  0  0
    7.5645  -10.8472    0.0000 O   0  0  0  0  0  0  0  0  0  0  0  0
  1  2  1  0  0  0  0
  2  3  1  0  0  0  0
  3  4  2  0  0  0  0
  4  5  1  0  0  0  0
  5  6  2  0  0  0  0
  6  7  1  0  0  0  0
  2  7  2  0  0  0  0
  1  8  2  0  0  0  0
  1  9  1  0  0  0  0
  6 10  1  0  0  0  0
  5 11  1  0  0  0  0
  4 12  1  0  0  0  0
 13 14  1  0  0  0  0
 14 15  1  0  0  0  0
 15 16  1  0  0  0  0
 16 17  1  0  0  0  0
 17 18  1  0  0  0  0
 18 19  1  1  0  0  0
 19 20  1  0  0  0  0
 21 22  1  0  0  0  0
 22 23  2  0  0  0  0
 23 24  1  0  0  0  0
 24 25  2  0  0  0  0
 25 26  1  0  0  0  0
 21 26  2  0  0  0  0
 25 27  1  0  0  0  0
 24 28  1  0  0  0  0
 23 29  1  0  0  0  0
 20 21  1  0  0  0  0
 30 31  1  0  0  0  0
 31 32  2  0  0  0  0
 32 33  1  0  0  0  0
 33 34  2  0  0  0  0
 34 35  1  0  0  0  0
 30 35  2  0  0  0  0
 34 36  1  0  0  0  0
 33 37  1  0  0  0  0
 32 38  1  0  0  0  0
 13 30  1  0  0  0  0
 40 41  1  0  0  0  0
 41 42  1  0  0  0  0
 42 43  2  0  0  0  0
 43 44  1  0  0  0  0
 44 45  2  0  0  0  0
 45 46  1  0  0  0  0
 41 46  2  0  0  0  0
 40 47  2  0  0  0  0
 45 48  1  0  0  0  0
 44 49  1  0  0  0  0
 43 50  1  0  0  0  0
 39 40  1  0  0  0  0
 18 39  1  1  0  0  0
 52 53  1  0  0  0  0
 53 54  1  0  0  0  0
 54 55  2  0  0  0  0
 55 56  1  0  0  0  0
 56 57  2  0  0  0  0
 57 58  1  0  0  0  0
 53 58  2  0  0  0  0
 52 59  2  0  0  0  0
 57 60  1  0  0  0  0
 56 61  1  0  0  0  0
 55 62  1  0  0  0  0
 51 52  1  0  0  0  0
 17 51  1  6  0  0  0
 64 65  1  0  0  0  0
 65 66  1  0  0  0  0
 66 67  2  0  0  0  0
 67 68  1  0  0  0  0
 68 69  2  0  0  0  0
 69 70  1  0  0  0  0
 65 70  2  0  0  0  0
 64 71  2  0  0  0  0
 69 72  1  0  0  0  0
 68 73  1  0  0  0  0
 67 74  1  0  0  0  0
 63 64  1  0  0  0  0
 16 63  1  6  0  0  0
 75 76  1  0  0  0  0
 76 77  1  0  0  0  0
 77 78  2  0  0  0  0
 78 79  1  0  0  0  0
 79 80  2  0  0  0  0
 80 81  1  0  0  0  0
 76 81  2  0  0  0  0
 75 82  2  0  0  0  0
 80 83  1  0  0  0  0
 79 84  1  0  0  0  0
 78 85  1  0  0  0  0
 18 75  1  0  0  0  0
 86 87  1  0  0  0  0
 87 88  1  0  0  0  0
 88 89  2  0  0  0  0
 89 90  1  0  0  0  0
 90 91  2  0  0  0  0
 91 92  1  0  0  0  0
 87 92  2  0  0  0  0
 86 93  2  0  0  0  0
 91 94  1  0  0  0  0
 90 95  1  0  0  0  0
 89 96  1  0  0  0  0
 17 86  1  6  0  0  0
 97 98  1  0  0  0  0
 98 99  1  0  0  0  0
 99100  2  0  0  0  0
100101  1  0  0  0  0
101102  2  0  0  0  0
102103  1  0  0  0  0
 98103  2  0  0  0  0
 97104  2  0  0  0  0
102105  1  0  0  0  0
101106  1  0  0  0  0
100107  1  0  0  0  0
 16 97  1  6  0  0  0
108109  1  0  0  0  0
109110  1  0  0  0  0
110111  2  0  0  0  0
111112  1  0  0  0  0
112113  2  0  0  0  0
113114  1  0  0  0  0
109114  2  0  0  0  0
108115  2  0  0  0  0
113116  1  0  0  0  0
112117  1  0  0  0  0
111118  1  0  0  0  0
 15108  1  1  0  0  0
 20119  2  0  0  0  0
 19120  2  0  0  0  0
 13121  2  0  0  0  0
 14122  1  0  0  0  0
 15  9  1  1  0  0  0
M  END
>  <cdx:fragmentId>
80122

$$$$
