723993.cdx
  Mrv1902 05222410182D          

111119  0  0  0  0            999 V2000
    9.0834   -9.0281    0.0000 C   0  0  0  0  0  0  0  0  0  0  0  0
    9.0811   -8.2031    0.0000 C   0  0  0  0  0  0  0  0  0  0  0  0
    8.3654   -7.7926    0.0000 C   0  0  0  0  0  0  0  0  0  0  0  0
    8.3631   -6.9676    0.0000 C   0  0  0  0  0  0  0  0  0  0  0  0
    9.0764   -6.5531    0.0000 C   0  0  0  0  0  0  0  0  0  0  0  0
    9.7921   -6.9636    0.0000 C   0  0  0  0  0  0  0  0  0  0  0  0
    9.7944   -7.7886    0.0000 C   0  0  0  0  0  0  0  0  0  0  0  0
    8.3700   -9.4426    0.0000 O   0  0  0  0  0  0  0  0  0  0  0  0
    9.7990   -9.4386    0.0000 O   0  0  0  0  0  0  0  0  0  0  0  0
   10.5054   -6.5491    0.0000 O   0  0  0  0  0  0  0  0  0  0  0  0
    9.0741   -5.7281    0.0000 O   0  0  0  0  0  0  0  0  0  0  0  0
    7.6475   -6.5571    0.0000 O   0  0  0  0  0  0  0  0  0  0  0  0
    8.9777  -10.7609    0.0000 C   0  0  0  0  0  0  0  0  0  0  0  0
    9.8027  -10.7586    0.0000 C   0  0  1  0  0  0  0  0  0  0  0  0
   10.8752  -10.7556    0.0000 C   0  0  2  0  0  0  0  0  0  0  0  0
   15.7837  -10.7419    0.0000 C   0  0  1  0  0  0  0  0  0  0  0  0
   19.0663  -10.7327    0.0000 C   0  0  2  0  0  0  0  0  0  0  0  0
   19.0640   -9.9077    0.0000 C   0  0  0  0  0  0  0  0  0  0  0  0
   18.3484   -9.4972    0.0000 C   0  0  0  0  0  0  0  0  0  0  0  0
   18.3461   -8.6722    0.0000 C   0  0  0  0  0  0  0  0  0  0  0  0
   17.6305   -8.2617    0.0000 C   0  0  0  0  0  0  0  0  0  0  0  0
   17.6281   -7.4367    0.0000 C   0  0  0  0  0  0  0  0  0  0  0  0
   18.3415   -7.0222    0.0000 C   0  0  0  0  0  0  0  0  0  0  0  0
   19.0571   -7.4327    0.0000 C   0  0  0  0  0  0  0  0  0  0  0  0
   19.0594   -8.2577    0.0000 C   0  0  0  0  0  0  0  0  0  0  0  0
   19.7704   -7.0182    0.0000 O   0  0  0  0  0  0  0  0  0  0  0  0
   18.3392   -6.1972    0.0000 O   0  0  0  0  0  0  0  0  0  0  0  0
   16.9125   -7.0262    0.0000 O   0  0  0  0  0  0  0  0  0  0  0  0
    8.5672  -11.4765    0.0000 C   0  0  0  0  0  0  0  0  0  0  0  0
    8.9817  -12.1899    0.0000 C   0  0  0  0  0  0  0  0  0  0  0  0
    8.5712  -12.9055    0.0000 C   0  0  0  0  0  0  0  0  0  0  0  0
    7.7462  -12.9078    0.0000 C   0  0  0  0  0  0  0  0  0  0  0  0
    7.3317  -12.1945    0.0000 C   0  0  0  0  0  0  0  0  0  0  0  0
    7.7422  -11.4788    0.0000 C   0  0  0  0  0  0  0  0  0  0  0  0
    6.5067  -12.1968    0.0000 O   0  0  0  0  0  0  0  0  0  0  0  0
    7.3357  -13.6234    0.0000 O   0  0  0  0  0  0  0  0  0  0  0  0
    8.9857  -13.6188    0.0000 O   0  0  0  0  0  0  0  0  0  0  0  0
   19.0693  -11.8052    0.0000 O   0  0  0  0  0  0  0  0  0  0  0  0
   19.9996  -12.3388    0.0000 C   0  0  0  0  0  0  0  0  0  0  0  0
   20.0019  -13.1638    0.0000 C   0  0  0  0  0  0  0  0  0  0  0  0
   19.2886  -13.5783    0.0000 C   0  0  0  0  0  0  0  0  0  0  0  0
   19.2909  -14.4033    0.0000 C   0  0  0  0  0  0  0  0  0  0  0  0
   20.0066  -14.8138    0.0000 C   0  0  0  0  0  0  0  0  0  0  0  0
   20.7199  -14.3993    0.0000 C   0  0  0  0  0  0  0  0  0  0  0  0
   20.7176  -13.5743    0.0000 C   0  0  0  0  0  0  0  0  0  0  0  0
   20.7129  -11.9243    0.0000 O   0  0  0  0  0  0  0  0  0  0  0  0
   21.4355  -14.8098    0.0000 O   0  0  0  0  0  0  0  0  0  0  0  0
   20.0089  -15.6388    0.0000 O   0  0  0  0  0  0  0  0  0  0  0  0
   18.5776  -14.8178    0.0000 O   0  0  0  0  0  0  0  0  0  0  0  0
   15.7814   -9.9169    0.0000 O   0  0  0  0  0  0  0  0  0  0  0  0
   15.0657   -9.5064    0.0000 C   0  0  0  0  0  0  0  0  0  0  0  0
   15.0634   -8.6814    0.0000 C   0  0  0  0  0  0  0  0  0  0  0  0
   14.3478   -8.2709    0.0000 C   0  0  0  0  0  0  0  0  0  0  0  0
   14.3455   -7.4459    0.0000 C   0  0  0  0  0  0  0  0  0  0  0  0
   15.0588   -7.0314    0.0000 C   0  0  0  0  0  0  0  0  0  0  0  0
   15.7744   -7.4419    0.0000 C   0  0  0  0  0  0  0  0  0  0  0  0
   15.7768   -8.2669    0.0000 C   0  0  0  0  0  0  0  0  0  0  0  0
   14.3524   -9.9209    0.0000 O   0  0  0  0  0  0  0  0  0  0  0  0
   16.4878   -7.0274    0.0000 O   0  0  0  0  0  0  0  0  0  0  0  0
   15.0565   -6.2064    0.0000 O   0  0  0  0  0  0  0  0  0  0  0  0
   13.6299   -7.0354    0.0000 O   0  0  0  0  0  0  0  0  0  0  0  0
   10.8775  -11.5806    0.0000 O   0  0  0  0  0  0  0  0  0  0  0  0
   11.5931  -11.9911    0.0000 C   0  0  0  0  0  0  0  0  0  0  0  0
   11.5954  -12.8161    0.0000 C   0  0  0  0  0  0  0  0  0  0  0  0
   12.3110  -13.2266    0.0000 C   0  0  0  0  0  0  0  0  0  0  0  0
   12.3133  -14.0516    0.0000 C   0  0  0  0  0  0  0  0  0  0  0  0
   11.6000  -14.4661    0.0000 C   0  0  0  0  0  0  0  0  0  0  0  0
   10.8844  -14.0556    0.0000 C   0  0  0  0  0  0  0  0  0  0  0  0
   10.8821  -13.2306    0.0000 C   0  0  0  0  0  0  0  0  0  0  0  0
   12.3064  -11.5766    0.0000 O   0  0  0  0  0  0  0  0  0  0  0  0
   10.1711  -14.4701    0.0000 O   0  0  0  0  0  0  0  0  0  0  0  0
   11.6023  -15.2911    0.0000 O   0  0  0  0  0  0  0  0  0  0  0  0
   13.0290  -14.4621    0.0000 O   0  0  0  0  0  0  0  0  0  0  0  0
   19.8913  -10.7304    0.0000 C   0  0  0  0  0  0  0  0  0  0  0  0
   20.3018  -10.0148    0.0000 C   0  0  0  0  0  0  0  0  0  0  0  0
   21.1268  -10.0125    0.0000 C   0  0  0  0  0  0  0  0  0  0  0  0
   21.5373   -9.2968    0.0000 C   0  0  0  0  0  0  0  0  0  0  0  0
   21.1228   -8.5835    0.0000 C   0  0  0  0  0  0  0  0  0  0  0  0
   20.2978   -8.5858    0.0000 C   0  0  0  0  0  0  0  0  0  0  0  0
   19.8873   -9.3014    0.0000 C   0  0  0  0  0  0  0  0  0  0  0  0
   20.3058  -11.4437    0.0000 O   0  0  0  0  0  0  0  0  0  0  0  0
   19.8833   -7.8725    0.0000 O   0  0  0  0  0  0  0  0  0  0  0  0
   21.5333   -7.8679    0.0000 O   0  0  0  0  0  0  0  0  0  0  0  0
   22.3623   -9.2945    0.0000 O   0  0  0  0  0  0  0  0  0  0  0  0
   15.7860  -11.5669    0.0000 C   0  0  0  0  0  0  0  0  0  0  0  0
   16.5016  -11.9774    0.0000 C   0  0  0  0  0  0  0  0  0  0  0  0
   16.5039  -12.8024    0.0000 C   0  0  0  0  0  0  0  0  0  0  0  0
   17.2195  -13.2129    0.0000 C   0  0  0  0  0  0  0  0  0  0  0  0
   17.9329  -12.7984    0.0000 C   0  0  0  0  0  0  0  0  0  0  0  0
   17.9305  -11.9734    0.0000 C   0  0  0  0  0  0  0  0  0  0  0  0
   17.2149  -11.5629    0.0000 C   0  0  0  0  0  0  0  0  0  0  0  0
   15.0727  -11.9814    0.0000 O   0  0  0  0  0  0  0  0  0  0  0  0
   18.6439  -11.5589    0.0000 O   0  0  0  0  0  0  0  0  0  0  0  0
   18.6485  -13.2089    0.0000 O   0  0  0  0  0  0  0  0  0  0  0  0
   17.2218  -14.0379    0.0000 O   0  0  0  0  0  0  0  0  0  0  0  0
   10.8729   -9.9306    0.0000 C   0  0  0  0  0  0  0  0  0  0  0  0
   11.5862   -9.5161    0.0000 C   0  0  0  0  0  0  0  0  0  0  0  0
   12.3018   -9.9266    0.0000 C   0  0  0  0  0  0  0  0  0  0  0  0
   13.0151   -9.5121    0.0000 C   0  0  0  0  0  0  0  0  0  0  0  0
   13.0128   -8.6871    0.0000 C   0  0  0  0  0  0  0  0  0  0  0  0
   12.2972   -8.2766    0.0000 C   0  0  0  0  0  0  0  0  0  0  0  0
   11.5839   -8.6911    0.0000 C   0  0  0  0  0  0  0  0  0  0  0  0
   10.3361   -9.6227    0.0000 O   0  0  0  0  0  0  0  0  0  0  0  0
   12.2949   -7.4516    0.0000 O   0  0  0  0  0  0  0  0  0  0  0  0
   13.7261   -8.2726    0.0000 O   0  0  0  0  0  0  0  0  0  0  0  0
   13.7307   -9.9226    0.0000 O   0  0  0  0  0  0  0  0  0  0  0  0
   17.6351   -9.9117    0.0000 O   0  0  0  0  0  0  0  0  0  0  0  0
   19.5990   -9.5968    0.0000 O   0  0  0  0  0  0  0  0  0  0  0  0
    8.5632  -10.0476    0.0000 O   0  0  0  0  0  0  0  0  0  0  0  0
    9.8050  -11.5836    0.0000 C   0  0  0  0  0  0  0  0  0  0  0  0
   10.5206  -11.9941    0.0000 O   0  0  0  0  0  0  0  0  0  0  0  0
  1  2  1  0  0  0  0
  2  3  1  0  0  0  0
  3  4  2  0  0  0  0
  4  5  1  0  0  0  0
  5  6  2  0  0  0  0
  6  7  1  0  0  0  0
  2  7  2  0  0  0  0
  1  8  2  0  0  0  0
  1  9  1  0  0  0  0
  6 10  1  0  0  0  0
  5 11  1  0  0  0  0
  4 12  1  0  0  0  0
 13 14  1  0  0  0  0
 14 15  1  0  0  0  0
 15 16  1  0  0  0  0
 16 17  1  0  0  0  0
 17 18  1  6  0  0  0
 18 19  1  0  0  0  0
 20 21  1  0  0  0  0
 21 22  2  0  0  0  0
 22 23  1  0  0  0  0
 23 24  2  0  0  0  0
 24 25  1  0  0  0  0
 20 25  2  0  0  0  0
 24 26  1  0  0  0  0
 23 27  1  0  0  0  0
 22 28  1  0  0  0  0
 19 20  1  0  0  0  0
 29 30  1  0  0  0  0
 30 31  2  0  0  0  0
 31 32  1  0  0  0  0
 32 33  2  0  0  0  0
 33 34  1  0  0  0  0
 29 34  2  0  0  0  0
 33 35  1  0  0  0  0
 32 36  1  0  0  0  0
 31 37  1  0  0  0  0
 13 29  1  0  0  0  0
 39 40  1  0  0  0  0
 40 41  1  0  0  0  0
 41 42  2  0  0  0  0
 42 43  1  0  0  0  0
 43 44  2  0  0  0  0
 44 45  1  0  0  0  0
 40 45  2  0  0  0  0
 39 46  2  0  0  0  0
 44 47  1  0  0  0  0
 43 48  1  0  0  0  0
 42 49  1  0  0  0  0
 38 39  1  0  0  0  0
 17 38  1  6  0  0  0
 51 52  1  0  0  0  0
 52 53  1  0  0  0  0
 53 54  2  0  0  0  0
 54 55  1  0  0  0  0
 55 56  2  0  0  0  0
 56 57  1  0  0  0  0
 52 57  2  0  0  0  0
 51 58  2  0  0  0  0
 56 59  1  0  0  0  0
 55 60  1  0  0  0  0
 54 61  1  0  0  0  0
 50 51  1  0  0  0  0
 16 50  1  1  0  0  0
 63 64  1  0  0  0  0
 64 65  1  0  0  0  0
 65 66  2  0  0  0  0
 66 67  1  0  0  0  0
 67 68  2  0  0  0  0
 68 69  1  0  0  0  0
 64 69  2  0  0  0  0
 63 70  2  0  0  0  0
 68 71  1  0  0  0  0
 67 72  1  0  0  0  0
 66 73  1  0  0  0  0
 62 63  1  0  0  0  0
 15 62  1  1  0  0  0
 74 75  1  0  0  0  0
 75 76  1  0  0  0  0
 76 77  2  0  0  0  0
 77 78  1  0  0  0  0
 78 79  2  0  0  0  0
 79 80  1  0  0  0  0
 75 80  2  0  0  0  0
 74 81  2  0  0  0  0
 79 82  1  0  0  0  0
 78 83  1  0  0  0  0
 77 84  1  0  0  0  0
 17 74  1  0  0  0  0
 85 86  1  0  0  0  0
 86 87  1  0  0  0  0
 87 88  2  0  0  0  0
 88 89  1  0  0  0  0
 89 90  2  0  0  0  0
 90 91  1  0  0  0  0
 86 91  2  0  0  0  0
 85 92  2  0  0  0  0
 90 93  1  0  0  0  0
 89 94  1  0  0  0  0
 88 95  1  0  0  0  0
 16 85  1  1  0  0  0
 96 97  1  0  0  0  0
 97 98  1  0  0  0  0
 98 99  2  0  0  0  0
 99100  1  0  0  0  0
100101  2  0  0  0  0
101102  1  0  0  0  0
 97102  2  0  0  0  0
 96103  2  0  0  0  0
101104  1  0  0  0  0
100105  1  0  0  0  0
 99106  1  0  0  0  0
 15 96  1  1  0  0  0
 19107  2  0  0  0  0
 18108  2  0  0  0  0
 13109  2  0  0  0  0
110111  1  0  0  0  0
 14110  1  1  0  0  0
 14  9  1  1  0  0  0
M  END
>  <cdx:fragmentId>
80619

$$$$
