72415.cdx
  Mrv1902 05222410202D          

 28 30  0  0  0  0            999 V2000
    6.6686   -4.8308    0.0000 C   0  0  0  0  0  0  0  0  0  0  0  0
    5.9541   -5.2433    0.0000 C   0  0  0  0  0  0  0  0  0  0  0  0
    5.2396   -4.8308    0.0000 C   0  0  0  0  0  0  0  0  0  0  0  0
    5.2396   -4.0058    0.0000 C   0  0  0  0  0  0  0  0  0  0  0  0
    6.6686   -4.0058    0.0000 O   0  0  0  0  0  0  0  0  0  0  0  0
    7.3831   -5.2433    0.0000 O   0  0  0  0  0  0  0  0  0  0  0  0
    4.5252   -5.2433    0.0000 C   0  0  0  0  0  0  0  0  0  0  0  0
    6.6686   -7.3058    0.0000 C   0  0  0  0  0  0  0  0  0  0  0  0
    6.6686   -6.4808    0.0000 C   0  0  2  0  0  0  0  0  0  0  0  0
    7.3831   -6.0683    0.0000 C   0  0  2  0  0  0  0  0  0  0  0  0
    8.0975   -6.4808    0.0000 C   0  0  0  0  0  0  0  0  0  0  0  0
    8.8120   -6.0683    0.0000 C   0  0  0  0  0  0  0  0  0  0  0  0
    9.5265   -6.4808    0.0000 C   0  0  0  0  0  0  0  0  0  0  0  0
    9.5265   -7.3058    0.0000 C   0  0  0  0  0  0  0  0  0  0  0  0
    8.8120   -7.7183    0.0000 C   0  0  0  0  0  0  0  0  0  0  0  0
    8.0975   -7.3058    0.0000 C   0  0  0  0  0  0  0  0  0  0  0  0
    7.3831   -7.7183    0.0000 O   0  0  0  0  0  0  0  0  0  0  0  0
   10.2409   -6.0683    0.0000 C   0  0  0  0  0  0  0  0  0  0  0  0
   10.2409   -5.2433    0.0000 C   0  0  0  0  0  0  0  0  0  0  0  0
    9.5265   -4.8308    0.0000 C   0  0  0  0  0  0  0  0  0  0  0  0
    8.8120   -5.2433    0.0000 O   0  0  0  0  0  0  0  0  0  0  0  0
    9.5265   -4.0058    0.0000 O   0  0  0  0  0  0  0  0  0  0  0  0
    6.2561   -8.0202    0.0000 C   0  0  0  0  0  0  0  0  0  0  0  0
    5.8436   -7.3058    0.0000 C   0  0  0  0  0  0  0  0  0  0  0  0
    5.9541   -6.0683    0.0000 O   0  0  0  0  0  0  0  0  0  0  0  0
    5.2396   -6.4808    0.0000 C   0  0  0  0  0  0  0  0  0  0  0  0
    5.2396   -7.3058    0.0000 O   0  0  0  0  0  0  0  0  0  0  0  0
    4.5252   -6.0683    0.0000 C   0  0  0  0  0  0  0  0  0  0  0  0
  1  2  1  0  0  0  0
  2  3  1  0  0  0  0
  3  4  1  0  0  0  0
  1  5  2  0  0  0  0
  1  6  1  0  0  0  0
  3  7  1  0  0  0  0
  8  9  1  0  0  0  0
  9 10  1  0  0  0  0
 10 11  1  0  0  0  0
 11 12  1  0  0  0  0
 12 13  2  0  0  0  0
 13 14  1  0  0  0  0
 14 15  2  0  0  0  0
 15 16  1  0  0  0  0
 11 16  2  0  0  0  0
 16 17  1  0  0  0  0
  8 17  1  0  0  0  0
 18 19  2  0  0  0  0
 19 20  1  0  0  0  0
 20 21  1  0  0  0  0
 21 12  1  0  0  0  0
 18 13  1  0  0  0  0
 20 22  2  0  0  0  0
  8 23  1  0  0  0  0
  8 24  1  0  0  0  0
 26 27  2  0  0  0  0
 26 28  1  0  0  0  0
 25 26  1  0  0  0  0
  9 25  1  1  0  0  0
 10  6  1  1  0  0  0
M  END
>  <cdx:fragmentId>
19

$$$$
