10724147.cdx
  Mrv1902 05222410182D          

 59 63  0  0  0  0            999 V2000
    4.8201   -8.5676    0.0000 C   0  0  0  0  0  0  0  0  0  0  0  0
    4.1057   -8.9801    0.0000 C   0  0  0  0  0  0  0  0  0  0  0  0
    3.3912   -8.5676    0.0000 C   0  0  0  0  0  0  0  0  0  0  0  0
    4.8201   -7.7426    0.0000 O   0  0  0  0  0  0  0  0  0  0  0  0
    5.5346   -8.9801    0.0000 O   0  0  0  0  0  0  0  0  0  0  0  0
    2.6767   -8.9801    0.0000 C   0  0  0  0  0  0  0  0  0  0  0  0
    2.6767   -9.8051    0.0000 C   0  0  0  0  0  0  0  0  0  0  0  0
    1.9622  -10.2176    0.0000 C   0  0  0  0  0  0  0  0  0  0  0  0
    1.2478   -9.8051    0.0000 C   0  0  0  0  0  0  0  0  0  0  0  0
    1.2478   -8.9801    0.0000 C   0  0  0  0  0  0  0  0  0  0  0  0
    1.9622   -8.5676    0.0000 C   0  0  0  0  0  0  0  0  0  0  0  0
    0.5333  -10.2176    0.0000 O   0  0  0  0  0  0  0  0  0  0  0  0
    6.2491   -8.5676    0.0000 C   0  0  0  0  0  0  0  0  0  0  0  0
    7.7172   -8.6445    0.0000 O   0  0  0  0  0  0  0  0  0  0  0  0
    6.9635   -8.9801    0.0000 C   0  0  1  0  0  0  0  0  0  0  0  0
    7.0498   -9.8005    0.0000 C   0  0  2  0  0  0  0  0  0  0  0  0
    7.8567   -9.9721    0.0000 C   0  0  1  0  0  0  0  0  0  0  0  0
    8.2692   -9.2576    0.0000 C   0  0  1  0  0  0  0  0  0  0  0  0
    9.0229   -9.5932    0.0000 C   0  0  0  0  0  0  0  0  0  0  0  0
    9.1092  -10.4136    0.0000 O   0  0  0  0  0  0  0  0  0  0  0  0
    9.8628  -10.7492    0.0000 C   0  0  0  0  0  0  0  0  0  0  0  0
   10.5303  -10.2643    0.0000 C   0  0  0  0  0  0  0  0  0  0  0  0
   11.2839  -10.5998    0.0000 C   0  0  0  0  0  0  0  0  0  0  0  0
    9.9491  -11.5697    0.0000 O   0  0  0  0  0  0  0  0  0  0  0  0
   11.9514  -10.1149    0.0000 C   0  0  0  0  0  0  0  0  0  0  0  0
   11.8651   -9.2944    0.0000 C   0  0  0  0  0  0  0  0  0  0  0  0
   12.5326   -8.8095    0.0000 C   0  0  0  0  0  0  0  0  0  0  0  0
   13.2863   -9.1451    0.0000 C   0  0  0  0  0  0  0  0  0  0  0  0
   13.3725   -9.9655    0.0000 C   0  0  0  0  0  0  0  0  0  0  0  0
   12.7051  -10.4505    0.0000 C   0  0  0  0  0  0  0  0  0  0  0  0
   13.9537   -8.6601    0.0000 O   0  0  0  0  0  0  0  0  0  0  0  0
    8.1923  -10.7257    0.0000 O   0  0  0  0  0  0  0  0  0  0  0  0
    7.7074  -11.3932    0.0000 C   0  0  0  0  0  0  0  0  0  0  0  0
    6.8869  -11.3070    0.0000 C   0  0  0  0  0  0  0  0  0  0  0  0
    6.4020  -11.9744    0.0000 C   0  0  0  0  0  0  0  0  0  0  0  0
    8.0429  -12.1469    0.0000 O   0  0  0  0  0  0  0  0  0  0  0  0
    5.5815  -11.8882    0.0000 C   0  0  0  0  0  0  0  0  0  0  0  0
    5.0966  -12.5556    0.0000 C   0  0  0  0  0  0  0  0  0  0  0  0
    4.2761  -12.4694    0.0000 C   0  0  0  0  0  0  0  0  0  0  0  0
    3.9405  -11.7157    0.0000 C   0  0  0  0  0  0  0  0  0  0  0  0
    4.4255  -11.0482    0.0000 C   0  0  0  0  0  0  0  0  0  0  0  0
    5.2459  -11.1345    0.0000 C   0  0  0  0  0  0  0  0  0  0  0  0
    3.1201  -11.6294    0.0000 O   0  0  0  0  0  0  0  0  0  0  0  0
    6.4367  -10.3526    0.0000 O   0  0  0  0  0  0  0  0  0  0  0  0
    8.9367   -8.7727    0.0000 O   0  0  0  0  0  0  0  0  0  0  0  0
    8.0968   -7.6166    0.0000 O   0  0  0  0  0  0  0  0  0  0  0  0
    8.8504   -7.9522    0.0000 C   0  0  1  0  0  0  0  0  0  0  0  0
    9.5179   -7.4673    0.0000 C   0  0  1  0  0  0  0  0  0  0  0  0
    9.4317   -6.6468    0.0000 C   0  0  2  0  0  0  0  0  0  0  0  0
    8.6780   -6.3112    0.0000 C   0  0  1  0  0  0  0  0  0  0  0  0
    8.0105   -6.7962    0.0000 C   0  0  1  0  0  0  0  0  0  0  0  0
    7.2569   -6.4606    0.0000 C   0  0  0  0  0  0  0  0  0  0  0  0
    6.5894   -6.9455    0.0000 O   0  0  0  0  0  0  0  0  0  0  0  0
    8.5917   -5.4908    0.0000 O   0  0  0  0  0  0  0  0  0  0  0  0
   10.0991   -6.1619    0.0000 O   0  0  0  0  0  0  0  0  0  0  0  0
   10.2716   -7.8028    0.0000 O   0  0  0  0  0  0  0  0  0  0  0  0
   10.9390   -7.3179    0.0000 C   0  0  0  0  0  0  0  0  0  0  0  0
   10.8528   -6.4974    0.0000 O   0  0  0  0  0  0  0  0  0  0  0  0
   11.6927   -7.6535    0.0000 C   0  0  0  0  0  0  0  0  0  0  0  0
  1  2  1  0  0  0  0
  2  3  2  0  0  0  0
  1  4  2  0  0  0  0
  1  5  1  0  0  0  0
  6  7  1  0  0  0  0
  7  8  2  0  0  0  0
  8  9  1  0  0  0  0
  9 10  2  0  0  0  0
 10 11  1  0  0  0  0
  6 11  2  0  0  0  0
  9 12  1  0  0  0  0
  3  6  1  0  0  0  0
 14 15  1  0  0  0  0
 15 16  1  0  0  0  0
 16 17  1  0  0  0  0
 17 18  1  0  0  0  0
 14 18  1  0  0  0  0
 21 22  1  0  0  0  0
 22 23  2  0  0  0  0
 21 24  2  0  0  0  0
 25 26  1  0  0  0  0
 26 27  2  0  0  0  0
 27 28  1  0  0  0  0
 28 29  2  0  0  0  0
 29 30  1  0  0  0  0
 25 30  2  0  0  0  0
 28 31  1  0  0  0  0
 23 25  1  0  0  0  0
 20 21  1  0  0  0  0
 19 20  1  0  0  0  0
 18 19  1  6  0  0  0
 33 34  1  0  0  0  0
 34 35  2  0  0  0  0
 33 36  2  0  0  0  0
 37 38  1  0  0  0  0
 38 39  2  0  0  0  0
 39 40  1  0  0  0  0
 40 41  2  0  0  0  0
 41 42  1  0  0  0  0
 37 42  2  0  0  0  0
 40 43  1  0  0  0  0
 35 37  1  0  0  0  0
 32 33  1  0  0  0  0
 17 32  1  1  0  0  0
 16 44  1  6  0  0  0
 46 47  1  0  0  0  0
 47 48  1  0  0  0  0
 48 49  1  0  0  0  0
 49 50  1  0  0  0  0
 50 51  1  0  0  0  0
 46 51  1  0  0  0  0
 52 53  1  0  0  0  0
 51 52  1  6  0  0  0
 50 54  1  1  0  0  0
 49 55  1  6  0  0  0
 57 58  2  0  0  0  0
 57 59  1  0  0  0  0
 56 57  1  0  0  0  0
 48 56  1  1  0  0  0
 47 45  1  1  0  0  0
 18 45  1  1  0  0  0
 15 13  1  1  0  0  0
  5 13  1  0  0  0  0
M  END
>  <cdx:groupId>
57925

>  <cdx:fragmentId>
57795

$$$$
