724385.cdx
  Mrv1902 05222410192D          

 58 65  0  0  0  0            999 V2000
   16.8877   -5.6669    0.0000 O   0  0  0  0  0  0  0  0  0  0  0  0
   16.4028   -6.3343    0.0000 C   0  0  0  0  0  0  0  0  0  0  0  0
   16.8877   -7.0018    0.0000 C   0  0  0  0  0  0  0  0  0  0  0  0
   17.6723   -6.7468    0.0000 C   0  0  0  0  0  0  0  0  0  0  0  0
   17.6723   -5.9218    0.0000 C   0  0  0  0  0  0  0  0  0  0  0  0
   18.3397   -5.4369    0.0000 O   0  0  0  0  0  0  0  0  0  0  0  0
   12.9902   -8.8663    0.0000 C   0  0  0  0  0  0  0  0  0  0  0  0
   12.2758   -9.2788    0.0000 C   0  0  0  0  0  0  0  0  0  0  0  0
   12.2758  -10.1038    0.0000 C   0  0  1  0  0  0  0  0  0  0  0  0
   12.9902  -10.5163    0.0000 C   0  0  0  0  0  0  0  0  0  0  0  0
   13.7047  -10.1038    0.0000 C   0  0  1  0  0  0  0  0  0  0  0  0
   14.4192  -10.5163    0.0000 C   0  0  0  0  0  0  0  0  0  0  0  0
   15.1337  -10.1038    0.0000 C   0  0  0  0  0  0  0  0  0  0  0  0
   15.1337   -9.2788    0.0000 C   0  0  1  0  0  0  0  0  0  0  0  0
   15.8481   -8.8663    0.0000 C   0  0  1  0  0  0  0  0  0  0  0  0
   16.6327   -9.1213    0.0000 C   0  0  0  0  0  0  0  0  0  0  0  0
   17.1177   -8.4538    0.0000 C   0  0  0  0  0  0  0  0  0  0  0  0
   16.6327   -7.7864    0.0000 C   0  0  1  0  0  0  0  0  0  0  0  0
   15.8481   -8.0413    0.0000 C   0  0  1  0  0  0  0  0  0  0  0  0
   15.1337   -7.6288    0.0000 C   0  0  1  0  0  0  0  0  0  0  0  0
   14.4192   -8.0413    0.0000 C   0  0  0  0  0  0  0  0  0  0  0  0
   14.4192   -8.8663    0.0000 C   0  0  2  0  0  0  0  0  0  0  0  0
   13.7047   -9.2788    0.0000 C   0  0  1  0  0  0  0  0  0  0  0  0
   15.9344   -7.2208    0.0000 C   0  0  0  0  0  0  0  0  0  0  0  0
   13.7047   -8.4538    0.0000 C   0  0  0  0  0  0  0  0  0  0  0  0
   15.8481   -9.6913    0.0000 O   0  0  0  0  0  0  0  0  0  0  0  0
   15.1337   -6.8038    0.0000 O   0  0  0  0  0  0  0  0  0  0  0  0
   11.5613  -10.5163    0.0000 O   0  0  0  0  0  0  0  0  0  0  0  0
   10.8468   -9.2788    0.0000 O   0  0  0  0  0  0  0  0  0  0  0  0
   10.8468  -10.1038    0.0000 C   0  0  2  0  0  0  0  0  0  0  0  0
   10.1324  -10.5163    0.0000 C   0  0  0  0  0  0  0  0  0  0  0  0
    9.4179  -10.1038    0.0000 C   0  0  1  0  0  0  0  0  0  0  0  0
    9.4179   -9.2788    0.0000 C   0  0  1  0  0  0  0  0  0  0  0  0
   10.1324   -8.8663    0.0000 C   0  0  1  0  0  0  0  0  0  0  0  0
   10.1324   -8.0413    0.0000 C   0  0  0  0  0  0  0  0  0  0  0  0
    8.7034  -10.5163    0.0000 O   0  0  0  0  0  0  0  0  0  0  0  0
    8.7034   -8.8663    0.0000 O   0  0  0  0  0  0  0  0  0  0  0  0
    7.2745   -8.8663    0.0000 O   0  0  0  0  0  0  0  0  0  0  0  0
    7.9889   -9.2788    0.0000 C   0  0  2  0  0  0  0  0  0  0  0  0
    7.9889  -10.1038    0.0000 C   0  0  0  0  0  0  0  0  0  0  0  0
    7.2745  -10.5163    0.0000 C   0  0  1  0  0  0  0  0  0  0  0  0
    6.5600  -10.1038    0.0000 C   0  0  1  0  0  0  0  0  0  0  0  0
    6.5600   -9.2788    0.0000 C   0  0  1  0  0  0  0  0  0  0  0  0
    5.8455   -8.8663    0.0000 C   0  0  0  0  0  0  0  0  0  0  0  0
    7.2745  -11.3413    0.0000 O   0  0  0  0  0  0  0  0  0  0  0  0
    5.8455  -10.5163    0.0000 O   0  0  0  0  0  0  0  0  0  0  0  0
    5.1311   -9.2788    0.0000 O   0  0  0  0  0  0  0  0  0  0  0  0
    5.1311  -10.1038    0.0000 C   0  0  2  0  0  0  0  0  0  0  0  0
    4.4166  -10.5163    0.0000 C   0  0  0  0  0  0  0  0  0  0  0  0
    3.7021  -10.1038    0.0000 C   0  0  1  0  0  0  0  0  0  0  0  0
    3.7021   -9.2788    0.0000 C   0  0  1  0  0  0  0  0  0  0  0  0
    4.4166   -8.8663    0.0000 C   0  0  1  0  0  0  0  0  0  0  0  0
    4.4166   -8.0413    0.0000 C   0  0  0  0  0  0  0  0  0  0  0  0
    2.9876   -8.8663    0.0000 O   0  0  0  0  0  0  0  0  0  0  0  0
    2.9876  -10.5163    0.0000 O   0  0  0  0  0  0  0  0  0  0  0  0
   13.7047  -10.9288    0.0000 H   0  0  0  0  0  0  0  0  0  0  0  0
   15.1337   -8.4538    0.0000 H   0  0  0  0  0  0  0  0  0  0  0  0
   14.4192   -9.6913    0.0000 H   0  0  0  0  0  0  0  0  0  0  0  0
  1  2  1  0  0  0  0
  2  3  1  0  0  0  0
  3  4  2  0  0  0  0
  4  5  1  0  0  0  0
  1  5  1  0  0  0  0
  5  6  2  0  0  0  0
  7  8  1  0  0  0  0
  8  9  1  0  0  0  0
  9 10  1  0  0  0  0
 10 11  1  0  0  0  0
 11 12  1  0  0  0  0
 12 13  1  0  0  0  0
 13 14  1  0  0  0  0
 14 15  1  0  0  0  0
 15 16  1  0  0  0  0
 16 17  1  0  0  0  0
 17 18  1  0  0  0  0
 18 19  1  0  0  0  0
 15 19  1  0  0  0  0
 19 20  1  0  0  0  0
 20 21  1  0  0  0  0
 21 22  1  0  0  0  0
 14 22  1  0  0  0  0
 22 23  1  0  0  0  0
 11 23  1  0  0  0  0
  7 23  1  0  0  0  0
 19 24  1  1  0  0  0
 23 25  1  1  0  0  0
 15 26  1  1  0  0  0
 20 27  1  1  0  0  0
 29 30  1  0  0  0  0
 30 31  1  0  0  0  0
 31 32  1  0  0  0  0
 32 33  1  0  0  0  0
 33 34  1  0  0  0  0
 29 34  1  0  0  0  0
 34 35  1  1  0  0  0
 32 36  1  6  0  0  0
 38 39  1  0  0  0  0
 39 40  1  0  0  0  0
 40 41  1  0  0  0  0
 41 42  1  0  0  0  0
 42 43  1  0  0  0  0
 38 43  1  0  0  0  0
 43 44  1  1  0  0  0
 41 45  1  6  0  0  0
 47 48  1  0  0  0  0
 48 49  1  0  0  0  0
 49 50  1  0  0  0  0
 50 51  1  0  0  0  0
 51 52  1  0  0  0  0
 47 52  1  0  0  0  0
 52 53  1  1  0  0  0
 51 54  1  6  0  0  0
 50 55  1  6  0  0  0
 48 46  1  1  0  0  0
 42 46  1  6  0  0  0
 39 37  1  1  0  0  0
 33 37  1  6  0  0  0
 30 28  1  1  0  0  0
  9 28  1  1  0  0  0
 18  3  1  1  0  0  0
 11 56  1  1  0  0  0
 14 57  1  1  0  0  0
 22 58  1  6  0  0  0
M  END
>  <cdx:fragmentId>
97

$$$$
