10724685.cdx
  Mrv1902 05222410232D          

 72 77  0  0  0  0            999 V2000
    4.6025   -9.2097    0.0000 C   0  0  0  0  0  0  0  0  0  0  0  0
    3.8880   -8.7972    0.0000 C   0  0  0  0  0  0  0  0  0  0  0  0
    3.1735   -9.2097    0.0000 C   0  0  0  0  0  0  0  0  0  0  0  0
    4.6025  -10.0347    0.0000 O   0  0  0  0  0  0  0  0  0  0  0  0
    5.3170   -8.7972    0.0000 O   0  0  0  0  0  0  0  0  0  0  0  0
    2.4591   -8.7972    0.0000 C   0  0  0  0  0  0  0  0  0  0  0  0
    1.7446   -9.2097    0.0000 C   0  0  0  0  0  0  0  0  0  0  0  0
    1.0301   -8.7972    0.0000 C   0  0  0  0  0  0  0  0  0  0  0  0
    1.0301   -7.9722    0.0000 C   0  0  0  0  0  0  0  0  0  0  0  0
    1.7446   -7.5597    0.0000 C   0  0  0  0  0  0  0  0  0  0  0  0
    2.4591   -7.9722    0.0000 C   0  0  0  0  0  0  0  0  0  0  0  0
    0.3157   -7.5597    0.0000 O   0  0  0  0  0  0  0  0  0  0  0  0
    6.0314   -9.2097    0.0000 C   0  0  0  0  0  0  0  0  0  0  0  0
    7.4996   -9.1328    0.0000 O   0  0  0  0  0  0  0  0  0  0  0  0
    6.7459   -8.7972    0.0000 C   0  0  1  0  0  0  0  0  0  0  0  0
    6.8321   -7.9768    0.0000 C   0  0  2  0  0  0  0  0  0  0  0  0
    7.6391   -7.8052    0.0000 C   0  0  1  0  0  0  0  0  0  0  0  0
    8.0516   -8.5197    0.0000 C   0  0  1  0  0  0  0  0  0  0  0  0
    8.8053   -8.1842    0.0000 C   0  0  0  0  0  0  0  0  0  0  0  0
    8.8915   -7.3637    0.0000 O   0  0  0  0  0  0  0  0  0  0  0  0
    9.6452   -7.0281    0.0000 C   0  0  0  0  0  0  0  0  0  0  0  0
   10.3126   -7.5130    0.0000 C   0  0  0  0  0  0  0  0  0  0  0  0
   11.0663   -7.1775    0.0000 C   0  0  0  0  0  0  0  0  0  0  0  0
    9.7314   -6.2076    0.0000 O   0  0  0  0  0  0  0  0  0  0  0  0
   11.7338   -7.6624    0.0000 C   0  0  0  0  0  0  0  0  0  0  0  0
   12.4874   -7.3268    0.0000 C   0  0  0  0  0  0  0  0  0  0  0  0
   13.1549   -7.8118    0.0000 C   0  0  0  0  0  0  0  0  0  0  0  0
   13.0686   -8.6322    0.0000 C   0  0  0  0  0  0  0  0  0  0  0  0
   12.3150   -8.9678    0.0000 C   0  0  0  0  0  0  0  0  0  0  0  0
   11.6475   -8.4829    0.0000 C   0  0  0  0  0  0  0  0  0  0  0  0
   13.7361   -9.1172    0.0000 O   0  0  0  0  0  0  0  0  0  0  0  0
    7.9747   -7.0516    0.0000 O   0  0  0  0  0  0  0  0  0  0  0  0
    7.4897   -6.3841    0.0000 C   0  0  0  0  0  0  0  0  0  0  0  0
    6.6693   -6.4704    0.0000 C   0  0  0  0  0  0  0  0  0  0  0  0
    6.1843   -5.8029    0.0000 C   0  0  0  0  0  0  0  0  0  0  0  0
    7.8253   -5.6305    0.0000 O   0  0  0  0  0  0  0  0  0  0  0  0
    5.3639   -5.8892    0.0000 C   0  0  0  0  0  0  0  0  0  0  0  0
    5.0283   -6.6428    0.0000 C   0  0  0  0  0  0  0  0  0  0  0  0
    4.2078   -6.7291    0.0000 C   0  0  0  0  0  0  0  0  0  0  0  0
    3.7229   -6.0616    0.0000 C   0  0  0  0  0  0  0  0  0  0  0  0
    4.0585   -5.3080    0.0000 C   0  0  0  0  0  0  0  0  0  0  0  0
    4.8789   -5.2217    0.0000 C   0  0  0  0  0  0  0  0  0  0  0  0
    2.9024   -6.1479    0.0000 O   0  0  0  0  0  0  0  0  0  0  0  0
    6.2190   -7.4247    0.0000 O   0  0  0  0  0  0  0  0  0  0  0  0
    8.7191   -9.0046    0.0000 O   0  0  0  0  0  0  0  0  0  0  0  0
    9.3003  -10.3100    0.0000 O   0  0  0  0  0  0  0  0  0  0  0  0
    8.6328   -9.8251    0.0000 C   0  0  1  0  0  0  0  0  0  0  0  0
    7.8791  -10.1607    0.0000 C   0  0  1  0  0  0  0  0  0  0  0  0
    7.7929  -10.9812    0.0000 C   0  0  2  0  0  0  0  0  0  0  0  0
    8.4603  -11.4661    0.0000 C   0  0  1  0  0  0  0  0  0  0  0  0
    9.2140  -11.1305    0.0000 C   0  0  1  0  0  0  0  0  0  0  0  0
    9.8815  -11.6154    0.0000 C   0  0  0  0  0  0  0  0  0  0  0  0
   10.6351  -11.2799    0.0000 O   0  0  0  0  0  0  0  0  0  0  0  0
   11.3026  -11.7648    0.0000 C   0  0  0  0  0  0  0  0  0  0  0  0
   12.0562  -11.4292    0.0000 C   0  0  0  0  0  0  0  0  0  0  0  0
   12.7237  -11.9142    0.0000 C   0  0  0  0  0  0  0  0  0  0  0  0
   11.2163  -12.5853    0.0000 O   0  0  0  0  0  0  0  0  0  0  0  0
   13.4774  -11.5786    0.0000 C   0  0  0  0  0  0  0  0  0  0  0  0
   14.1448  -12.0635    0.0000 C   0  0  0  0  0  0  0  0  0  0  0  0
   14.8985  -11.7280    0.0000 C   0  0  0  0  0  0  0  0  0  0  0  0
   14.9847  -10.9075    0.0000 C   0  0  0  0  0  0  0  0  0  0  0  0
   14.3173  -10.4226    0.0000 C   0  0  0  0  0  0  0  0  0  0  0  0
   13.5636  -10.7581    0.0000 C   0  0  0  0  0  0  0  0  0  0  0  0
   15.5659  -12.2129    0.0000 O   0  0  0  0  0  0  0  0  0  0  0  0
   16.3196  -11.8773    0.0000 C   0  0  0  0  0  0  0  0  0  0  0  0
   15.7384  -10.5719    0.0000 O   0  0  0  0  0  0  0  0  0  0  0  0
    8.3741  -12.2866    0.0000 O   0  0  0  0  0  0  0  0  0  0  0  0
    7.2117   -9.6757    0.0000 O   0  0  0  0  0  0  0  0  0  0  0  0
    7.0392  -11.3167    0.0000 O   0  0  0  0  0  0  0  0  0  0  0  0
    6.3718  -10.8318    0.0000 C   0  0  0  0  0  0  0  0  0  0  0  0
    6.4580  -10.0113    0.0000 O   0  0  0  0  0  0  0  0  0  0  0  0
    5.6181  -11.1673    0.0000 C   0  0  0  0  0  0  0  0  0  0  0  0
  1  2  1  0  0  0  0
  2  3  2  0  0  0  0
  1  4  2  0  0  0  0
  1  5  1  0  0  0  0
  6  7  1  0  0  0  0
  7  8  2  0  0  0  0
  8  9  1  0  0  0  0
  9 10  2  0  0  0  0
 10 11  1  0  0  0  0
  6 11  2  0  0  0  0
  9 12  1  0  0  0  0
  3  6  1  0  0  0  0
 14 15  1  0  0  0  0
 15 16  1  0  0  0  0
 16 17  1  0  0  0  0
 17 18  1  0  0  0  0
 14 18  1  0  0  0  0
 21 22  1  0  0  0  0
 22 23  2  0  0  0  0
 21 24  2  0  0  0  0
 25 26  1  0  0  0  0
 26 27  2  0  0  0  0
 27 28  1  0  0  0  0
 28 29  2  0  0  0  0
 29 30  1  0  0  0  0
 25 30  2  0  0  0  0
 28 31  1  0  0  0  0
 23 25  1  0  0  0  0
 20 21  1  0  0  0  0
 19 20  1  0  0  0  0
 18 19  1  1  0  0  0
 33 34  1  0  0  0  0
 34 35  2  0  0  0  0
 33 36  2  0  0  0  0
 37 38  1  0  0  0  0
 38 39  2  0  0  0  0
 39 40  1  0  0  0  0
 40 41  2  0  0  0  0
 41 42  1  0  0  0  0
 37 42  2  0  0  0  0
 40 43  1  0  0  0  0
 35 37  1  0  0  0  0
 32 33  1  0  0  0  0
 17 32  1  6  0  0  0
 16 44  1  1  0  0  0
 46 47  1  0  0  0  0
 47 48  1  0  0  0  0
 48 49  1  0  0  0  0
 49 50  1  0  0  0  0
 50 51  1  0  0  0  0
 46 51  1  0  0  0  0
 54 55  1  0  0  0  0
 55 56  2  0  0  0  0
 54 57  2  0  0  0  0
 58 59  1  0  0  0  0
 59 60  2  0  0  0  0
 60 61  1  0  0  0  0
 61 62  2  0  0  0  0
 62 63  1  0  0  0  0
 58 63  2  0  0  0  0
 64 65  1  0  0  0  0
 60 64  1  0  0  0  0
 61 66  1  0  0  0  0
 56 58  1  0  0  0  0
 53 54  1  0  0  0  0
 52 53  1  0  0  0  0
 51 52  1  6  0  0  0
 50 67  1  1  0  0  0
 48 68  1  1  0  0  0
 70 71  2  0  0  0  0
 70 72  1  0  0  0  0
 69 70  1  0  0  0  0
 49 69  1  6  0  0  0
 47 45  1  1  0  0  0
 18 45  1  6  0  0  0
 15 13  1  6  0  0  0
  5 13  1  0  0  0  0
M  END
>  <cdx:groupId>
58164

>  <cdx:fragmentId>
57994

$$$$
