23724655.cdx
  Mrv1902 05222410212D          

 21 23  0  0  0  0            999 V2000
   11.0506  -15.0067    0.0000 C   0  0  0  0  0  0  0  0  0  0  0  0
   11.0506  -15.8317    0.0000 C   0  0  2  0  0  0  0  0  0  0  0  0
   10.3361  -16.2442    0.0000 C   0  0  0  0  0  0  0  0  0  0  0  0
    9.6216  -15.8317    0.0000 C   0  0  0  0  0  0  0  0  0  0  0  0
    8.9072  -16.2442    0.0000 C   0  0  0  0  0  0  0  0  0  0  0  0
    8.1927  -15.8317    0.0000 C   0  0  0  0  0  0  0  0  0  0  0  0
    8.1927  -15.0067    0.0000 C   0  0  0  0  0  0  0  0  0  0  0  0
    8.9072  -14.5942    0.0000 C   0  0  0  0  0  0  0  0  0  0  0  0
    9.6216  -15.0067    0.0000 C   0  0  0  0  0  0  0  0  0  0  0  0
   10.3361  -14.5942    0.0000 O   0  0  0  0  0  0  0  0  0  0  0  0
   10.3361  -17.0692    0.0000 O   0  0  0  0  0  0  0  0  0  0  0  0
    7.4782  -14.5942    0.0000 O   0  0  0  0  0  0  0  0  0  0  0  0
   11.7650  -16.2442    0.0000 C   0  0  0  0  0  0  0  0  0  0  0  0
   11.7650  -17.0692    0.0000 C   0  0  0  0  0  0  0  0  0  0  0  0
   12.4795  -17.4817    0.0000 C   0  0  0  0  0  0  0  0  0  0  0  0
   13.1940  -17.0692    0.0000 C   0  0  0  0  0  0  0  0  0  0  0  0
   13.1940  -16.2442    0.0000 C   0  0  0  0  0  0  0  0  0  0  0  0
   12.4795  -15.8317    0.0000 C   0  0  0  0  0  0  0  0  0  0  0  0
   13.9085  -17.4817    0.0000 O   0  0  0  0  0  0  0  0  0  0  0  0
   14.6229  -17.0692    0.0000 C   0  0  0  0  0  0  0  0  0  0  0  0
   11.0506  -17.4817    0.0000 O   0  0  0  0  0  0  0  0  0  0  0  0
  1  2  1  0  0  0  0
  2  3  1  0  0  0  0
  3  4  1  0  0  0  0
  4  5  1  0  0  0  0
  5  6  2  0  0  0  0
  6  7  1  0  0  0  0
  7  8  2  0  0  0  0
  8  9  1  0  0  0  0
  4  9  2  0  0  0  0
  9 10  1  0  0  0  0
  1 10  1  0  0  0  0
  3 11  1  0  0  0  0
  7 12  1  0  0  0  0
 13 14  1  0  0  0  0
 14 15  2  0  0  0  0
 15 16  1  0  0  0  0
 16 17  2  0  0  0  0
 17 18  1  0  0  0  0
 13 18  2  0  0  0  0
 19 20  1  0  0  0  0
 16 19  1  0  0  0  0
 14 21  1  0  0  0  0
  2 13  1  1  0  0  0
M  END
>  <cdx:fragmentId>
380

$$$$
