7247.cdx
  Mrv1902 05222410222D          

  9  9  0  0  0  0            999 V2000
    3.8247   -4.1044    0.0000 C   0  0  0  0  0  0  0  0  0  0  0  0
    3.8247   -4.9294    0.0000 C   0  0  0  0  0  0  0  0  0  0  0  0
    3.1102   -5.3419    0.0000 C   0  0  0  0  0  0  0  0  0  0  0  0
    2.3958   -4.9294    0.0000 C   0  0  0  0  0  0  0  0  0  0  0  0
    2.3958   -4.1044    0.0000 C   0  0  0  0  0  0  0  0  0  0  0  0
    3.1102   -3.6919    0.0000 C   0  0  0  0  0  0  0  0  0  0  0  0
    1.6813   -5.3419    0.0000 C   0  0  0  0  0  0  0  0  0  0  0  0
    4.5392   -5.3419    0.0000 C   0  0  0  0  0  0  0  0  0  0  0  0
    4.5392   -3.6919    0.0000 C   0  0  0  0  0  0  0  0  0  0  0  0
  1  2  1  0  0  0  0
  2  3  2  0  0  0  0
  3  4  1  0  0  0  0
  4  5  2  0  0  0  0
  5  6  1  0  0  0  0
  1  6  2  0  0  0  0
  4  7  1  0  0  0  0
  2  8  1  0  0  0  0
  1  9  1  0  0  0  0
M  END
>  <cdx:groupId>
29

>  <cdx:fragmentId>
5

$$$$
