724882.cdx
  Mrv1902 05222410252D          

 63 62  0  0  0  0            999 V2000
    8.2996   -7.2877    0.0000 C   0  0  0  0  0  0  0  0  0  0  0  0
    9.0140   -7.7002    0.0000 C   0  0  0  0  0  0  0  0  0  0  0  0
    9.7285   -7.2877    0.0000 C   0  0  0  0  0  0  0  0  0  0  0  0
   10.4430   -7.7002    0.0000 C   0  0  0  0  0  0  0  0  0  0  0  0
   11.1574   -7.2877    0.0000 C   0  0  0  0  0  0  0  0  0  0  0  0
   11.8719   -7.7002    0.0000 C   0  0  0  0  0  0  0  0  0  0  0  0
   12.5864   -7.2877    0.0000 C   0  0  0  0  0  0  0  0  0  0  0  0
   13.3009   -7.7002    0.0000 C   0  0  0  0  0  0  0  0  0  0  0  0
   14.0153   -7.2877    0.0000 C   0  0  0  0  0  0  0  0  0  0  0  0
   14.7298   -7.7002    0.0000 C   0  0  0  0  0  0  0  0  0  0  0  0
   15.4443   -7.2877    0.0000 C   0  0  0  0  0  0  0  0  0  0  0  0
   16.1587   -7.7002    0.0000 C   0  0  0  0  0  0  0  0  0  0  0  0
   16.8732   -7.2877    0.0000 C   0  0  0  0  0  0  0  0  0  0  0  0
   17.5877   -7.7002    0.0000 C   0  0  0  0  0  0  0  0  0  0  0  0
   18.3021   -7.2877    0.0000 C   0  0  0  0  0  0  0  0  0  0  0  0
   19.0166   -7.7002    0.0000 C   0  0  0  0  0  0  0  0  0  0  0  0
   19.7311   -7.2877    0.0000 C   0  0  0  0  0  0  0  0  0  0  0  0
   20.4456   -7.7002    0.0000 C   0  0  0  0  0  0  0  0  0  0  0  0
   21.1600   -7.2877    0.0000 C   0  0  0  0  0  0  0  0  0  0  0  0
   21.8745   -7.7002    0.0000 C   0  0  0  0  0  0  0  0  0  0  0  0
   22.5890   -7.2877    0.0000 C   0  0  0  0  0  0  0  0  0  0  0  0
   14.0153   -6.4627    0.0000 O   0  0  0  0  0  0  0  0  0  0  0  0
   16.8732   -6.4627    0.0000 O   0  0  0  0  0  0  0  0  0  0  0  0
   14.7298   -8.5252    0.0000 C   0  0  0  0  0  0  0  0  0  0  0  0
   14.0153   -8.9377    0.0000 C   0  0  0  0  0  0  0  0  0  0  0  0
   14.0153   -9.7627    0.0000 C   0  0  0  0  0  0  0  0  0  0  0  0
   13.3009  -10.1752    0.0000 C   0  0  0  0  0  0  0  0  0  0  0  0
   13.3009  -11.0002    0.0000 C   0  0  0  0  0  0  0  0  0  0  0  0
   12.5864  -11.4127    0.0000 C   0  0  0  0  0  0  0  0  0  0  0  0
   12.5864  -12.2377    0.0000 C   0  0  0  0  0  0  0  0  0  0  0  0
   11.8719  -12.6502    0.0000 C   0  0  0  0  0  0  0  0  0  0  0  0
   11.8719  -13.4752    0.0000 C   0  0  0  0  0  0  0  0  0  0  0  0
   15.4443   -8.9377    0.0000 O   0  0  0  0  0  0  0  0  0  0  0  0
   16.1587   -8.5252    0.0000 O   0  0  0  0  0  0  0  0  0  0  0  0
   15.4443   -6.4627    0.0000 O   0  0  0  0  0  0  0  0  0  0  0  0
   14.7298   -6.8752    0.0000 O   0  0  0  0  0  0  0  0  0  0  0  0
   23.3034   -7.7002    0.0000 C   0  0  0  0  0  0  0  0  0  0  0  0
   23.3034   -8.5252    0.0000 C   0  0  0  0  0  0  0  0  0  0  0  0
   24.0179   -8.9377    0.0000 C   0  0  0  0  0  0  0  0  0  0  0  0
   24.0179   -9.7627    0.0000 C   0  0  0  0  0  0  0  0  0  0  0  0
   24.7324  -10.1752    0.0000 C   0  0  0  0  0  0  0  0  0  0  0  0
   24.7324  -11.0002    0.0000 C   0  0  0  0  0  0  0  0  0  0  0  0
   25.4469  -11.4127    0.0000 C   0  0  0  0  0  0  0  0  0  0  0  0
   25.4469  -12.2377    0.0000 C   0  0  0  0  0  0  0  0  0  0  0  0
   26.1613  -12.6502    0.0000 C   0  0  0  0  0  0  0  0  0  0  0  0
   11.1574  -13.8877    0.0000 C   0  0  0  0  0  0  0  0  0  0  0  0
   10.4430  -13.4752    0.0000 C   0  0  0  0  0  0  0  0  0  0  0  0
    9.7285  -13.8877    0.0000 C   0  0  0  0  0  0  0  0  0  0  0  0
    9.7285  -14.7127    0.0000 C   0  0  0  0  0  0  0  0  0  0  0  0
   10.4430  -15.1252    0.0000 C   0  0  0  0  0  0  0  0  0  0  0  0
   10.4430  -15.9502    0.0000 C   0  0  0  0  0  0  0  0  0  0  0  0
   11.1574  -16.3627    0.0000 C   0  0  0  0  0  0  0  0  0  0  0  0
   11.1574  -17.1877    0.0000 C   0  0  0  0  0  0  0  0  0  0  0  0
    7.5851   -7.7002    0.0000 C   0  0  0  0  0  0  0  0  0  0  0  0
    7.5851   -8.5252    0.0000 C   0  0  0  0  0  0  0  0  0  0  0  0
    6.8706   -8.9377    0.0000 C   0  0  0  0  0  0  0  0  0  0  0  0
    6.1561   -8.5252    0.0000 C   0  0  0  0  0  0  0  0  0  0  0  0
    6.1561   -7.7002    0.0000 C   0  0  0  0  0  0  0  0  0  0  0  0
    5.4417   -7.2877    0.0000 C   0  0  0  0  0  0  0  0  0  0  0  0
    5.4417   -6.4627    0.0000 C   0  0  0  0  0  0  0  0  0  0  0  0
    4.7272   -6.0502    0.0000 C   0  0  0  0  0  0  0  0  0  0  0  0
    4.7272   -5.2252    0.0000 C   0  0  0  0  0  0  0  0  0  0  0  0
   11.8719  -17.6002    0.0000 C   0  0  0  0  0  0  0  0  0  0  0  0
  1  2  1  0  0  0  0
  2  3  1  0  0  0  0
  3  4  1  0  0  0  0
  4  5  1  0  0  0  0
  5  6  1  0  0  0  0
  6  7  1  0  0  0  0
  7  8  1  0  0  0  0
  8  9  1  0  0  0  0
  9 10  1  0  0  0  0
 10 11  1  0  0  0  0
 11 12  1  0  0  0  0
 12 13  1  0  0  0  0
 13 14  1  0  0  0  0
 14 15  1  0  0  0  0
 15 16  1  0  0  0  0
 16 17  1  0  0  0  0
 17 18  1  0  0  0  0
 18 19  1  0  0  0  0
 19 20  1  0  0  0  0
 20 21  1  0  0  0  0
  9 22  2  0  0  0  0
 13 23  2  0  0  0  0
 24 25  1  0  0  0  0
 25 26  1  0  0  0  0
 26 27  1  0  0  0  0
 27 28  1  0  0  0  0
 28 29  1  0  0  0  0
 29 30  1  0  0  0  0
 30 31  1  0  0  0  0
 31 32  1  0  0  0  0
 24 33  2  0  0  0  0
 10 24  1  0  0  0  0
 12 34  1  0  0  0  0
 11 35  1  0  0  0  0
 10 36  1  0  0  0  0
 21 37  2  0  0  0  0
 37 38  1  0  0  0  0
 38 39  1  0  0  0  0
 39 40  1  0  0  0  0
 40 41  1  0  0  0  0
 41 42  1  0  0  0  0
 42 43  1  0  0  0  0
 43 44  1  0  0  0  0
 44 45  1  0  0  0  0
 32 46  2  0  0  0  0
 46 47  1  0  0  0  0
 47 48  1  0  0  0  0
 48 49  2  0  0  0  0
 49 50  1  0  0  0  0
 50 51  1  0  0  0  0
 51 52  1  0  0  0  0
 52 53  1  0  0  0  0
  1 54  2  0  0  0  0
 54 55  1  0  0  0  0
 55 56  1  0  0  0  0
 56 57  2  0  0  0  0
 57 58  1  0  0  0  0
 58 59  1  0  0  0  0
 59 60  1  0  0  0  0
 60 61  1  0  0  0  0
 61 62  1  0  0  0  0
 53 63  1  0  0  0  0
M  END
>  <cdx:fragmentId>
55349

$$$$
