7248.cdx
  Mrv1902 05222410242D          

 21 20  0  0  0  0            999 V2000
    1.9140   -8.7656    0.0000 C   0  0  0  0  0  0  0  0  0  0  0  0
    2.6285   -8.3531    0.0000 O   0  0  0  0  0  0  0  0  0  0  0  0
    3.3429   -8.7656    0.0000 C   0  0  0  0  0  0  0  0  0  0  0  0
    4.0574   -8.3531    0.0000 C   0  0  0  0  0  0  0  0  0  0  0  0
    4.7719   -8.7656    0.0000 C   0  0  0  0  0  0  0  0  0  0  0  0
    5.4864   -8.3531    0.0000 C   0  0  0  0  0  0  0  0  0  0  0  0
    6.2008   -8.7656    0.0000 C   0  0  0  0  0  0  0  0  0  0  0  0
    6.9153   -8.3531    0.0000 C   0  0  0  0  0  0  0  0  0  0  0  0
    7.6298   -8.7656    0.0000 C   0  0  0  0  0  0  0  0  0  0  0  0
    8.3442   -8.3531    0.0000 C   0  0  0  0  0  0  0  0  0  0  0  0
    9.0587   -8.7656    0.0000 C   0  0  0  0  0  0  0  0  0  0  0  0
    9.7732   -8.3531    0.0000 C   0  0  0  0  0  0  0  0  0  0  0  0
    3.3429   -9.5906    0.0000 O   0  0  0  0  0  0  0  0  0  0  0  0
    9.7732   -7.5281    0.0000 C   0  0  0  0  0  0  0  0  0  0  0  0
   10.4877   -7.1156    0.0000 C   0  0  0  0  0  0  0  0  0  0  0  0
   10.4877   -6.2906    0.0000 C   0  0  0  0  0  0  0  0  0  0  0  0
    9.7732   -5.8781    0.0000 C   0  0  0  0  0  0  0  0  0  0  0  0
    9.7732   -5.0531    0.0000 C   0  0  0  0  0  0  0  0  0  0  0  0
    9.0587   -4.6406    0.0000 C   0  0  0  0  0  0  0  0  0  0  0  0
    8.3442   -5.0531    0.0000 C   0  0  0  0  0  0  0  0  0  0  0  0
    7.6298   -4.6406    0.0000 C   0  0  0  0  0  0  0  0  0  0  0  0
  1  2  1  0  0  0  0
  2  3  1  0  0  0  0
  3  4  1  0  0  0  0
  4  5  1  0  0  0  0
  5  6  1  0  0  0  0
  6  7  1  0  0  0  0
  7  8  1  0  0  0  0
  8  9  1  0  0  0  0
  9 10  1  0  0  0  0
 10 11  1  0  0  0  0
 11 12  2  0  0  0  0
  3 13  2  0  0  0  0
 12 14  1  0  0  0  0
 14 15  1  0  0  0  0
 15 16  2  0  0  0  0
 16 17  1  0  0  0  0
 17 18  1  0  0  0  0
 18 19  2  0  0  0  0
 19 20  1  0  0  0  0
 20 21  1  0  0  0  0
M  END
>  <cdx:fragmentId>
3

$$$$
