7250.cdx
  Mrv1902 05222410232D          

  9  9  0  0  0  0            999 V2000
    8.5849   -4.7419    0.0000 N   0  0  0  0  0  0  0  0  0  0  0  0
    7.8705   -5.1544    0.0000 C   0  0  0  0  0  0  0  0  0  0  0  0
    7.8705   -5.9794    0.0000 C   0  0  0  0  0  0  0  0  0  0  0  0
    7.1560   -6.3919    0.0000 C   0  0  0  0  0  0  0  0  0  0  0  0
    6.4415   -5.9794    0.0000 C   0  0  0  0  0  0  0  0  0  0  0  0
    6.4415   -5.1544    0.0000 C   0  0  0  0  0  0  0  0  0  0  0  0
    7.1560   -4.7419    0.0000 C   0  0  0  0  0  0  0  0  0  0  0  0
    5.7270   -6.3919    0.0000 C   0  0  0  0  0  0  0  0  0  0  0  0
    8.5849   -6.3919    0.0000 C   0  0  0  0  0  0  0  0  0  0  0  0
  1  2  1  0  0  0  0
  2  3  1  0  0  0  0
  3  4  2  0  0  0  0
  4  5  1  0  0  0  0
  5  6  2  0  0  0  0
  6  7  1  0  0  0  0
  2  7  2  0  0  0  0
  5  8  1  0  0  0  0
  3  9  1  0  0  0  0
M  END
>  <cdx:fragmentId>
5

$$$$
