72506.cdx
  Mrv1902 05222410202D          

 28 31  0  0  0  0            999 V2000
    8.6750   -6.8771    0.0000 H   0  0  0  0  0  0  0  0  0  0  0  0
    8.6790   -9.3430    0.0000 H   0  0  0  0  0  0  0  0  0  0  0  0
    5.0170   -7.2910    0.0000 O   0  0  0  0  0  0  0  0  0  0  0  0
    7.8696   -3.9863    0.0000 O   0  0  0  0  0  0  0  0  0  0  0  0
   10.0150   -5.2204    0.0000 C   0  0  0  0  0  0  0  0  0  0  0  0
    9.2999   -4.8090    0.0000 O   0  0  0  0  0  0  0  0  0  0  0  0
    7.1585   -6.0500    0.0000 C   0  0  0  0  0  0  0  0  0  0  0  0
    7.1571   -5.2250    0.0000 C   0  0  0  0  0  0  0  0  0  0  0  0
    7.8709   -4.8113    0.0000 C   0  0  0  0  0  0  0  0  0  0  0  0
    8.5861   -5.2227    0.0000 C   0  0  0  0  0  0  0  0  0  0  0  0
    8.5874   -6.0477    0.0000 C   0  0  0  0  0  0  0  0  0  0  0  0
    7.8736   -6.4613    0.0000 C   0  0  0  0  0  0  0  0  0  0  0  0
    4.3046   -8.5296    0.0000 C   0  0  0  0  0  0  0  0  0  0  0  0
    5.0197   -8.9410    0.0000 O   0  0  0  0  0  0  0  0  0  0  0  0
    9.6326   -9.5606    0.0000 O   0  0  0  0  0  0  0  0  0  0  0  0
    6.4487   -8.9387    0.0000 C   0  0  0  0  0  0  0  0  0  0  0  0
    5.7335   -8.5273    0.0000 C   0  0  0  0  0  0  0  0  0  0  0  0
    5.7322   -7.7023    0.0000 C   0  0  0  0  0  0  0  0  0  0  0  0
    6.4460   -7.2887    0.0000 C   0  0  0  0  0  0  0  0  0  0  0  0
    7.8749   -7.2863    0.0000 C   0  0  1  0  0  0  0  0  0  0  0  0
    7.1611   -7.7000    0.0000 C   0  0  0  0  0  0  0  0  0  0  0  0
    7.1625   -8.5250    0.0000 C   0  0  0  0  0  0  0  0  0  0  0  0
    7.8776   -8.9363    0.0000 C   0  0  0  0  0  0  0  0  0  0  0  0
    9.3764   -8.7764    0.0000 C   0  0  0  0  0  0  0  0  0  0  0  0
    8.5914   -8.5227    0.0000 C   0  0  1  0  0  0  0  0  0  0  0  0
    8.5901   -7.6977    0.0000 C   0  0  2  0  0  0  0  0  0  0  0  0
    9.3743   -7.4415    0.0000 C   0  0  0  0  0  0  0  0  0  0  0  0
    9.8603   -8.1081    0.0000 O   0  0  0  0  0  0  0  0  0  0  0  0
 26  1  1  6  0  0  0
 25  2  1  1  0  0  0
 18  3  1  0  0  0  0
 20 12  1  6  0  0  0
  9  4  1  0  0  0  0
 10  6  1  0  0  0  0
  6  5  1  0  0  0  0
 12  7  2  0  0  0  0
  8  7  1  0  0  0  0
  9  8  2  0  0  0  0
 10  9  1  0  0  0  0
 11 10  2  0  0  0  0
 12 11  1  0  0  0  0
 17 14  1  0  0  0  0
 14 13  1  0  0  0  0
 24 15  2  0  0  0  0
 19 21  2  0  0  0  0
 16 22  2  0  0  0  0
 17 16  1  0  0  0  0
 18 17  2  0  0  0  0
 19 18  1  0  0  0  0
 23 25  1  0  0  0  0
 20 26  1  0  0  0  0
 21 20  1  0  0  0  0
 22 21  1  0  0  0  0
 23 22  1  0  0  0  0
 28 24  1  0  0  0  0
 25 24  1  0  0  0  0
 26 25  1  0  0  0  0
 27 26  1  0  0  0  0
 28 27  1  0  0  0  0
M  END
>  <cdx:groupId>
89

>  <cdx:fragmentId>
5

$$$$
