7253.cdx
  Mrv1902 05222410222D          

  9  9  0  0  0  0            999 V2000
    4.6910   -3.4521    0.0000 C   0  0  0  0  0  0  0  0  0  0  0  0
    4.6910   -4.2771    0.0000 C   0  0  0  0  0  0  0  0  0  0  0  0
    3.9765   -4.6896    0.0000 C   0  0  0  0  0  0  0  0  0  0  0  0
    3.2620   -4.2771    0.0000 C   0  0  0  0  0  0  0  0  0  0  0  0
    3.2620   -3.4521    0.0000 C   0  0  0  0  0  0  0  0  0  0  0  0
    3.9765   -3.0396    0.0000 C   0  0  0  0  0  0  0  0  0  0  0  0
    5.4054   -3.0396    0.0000 O   0  0  0  0  0  0  0  0  0  0  0  0
    2.5476   -4.6896    0.0000 O   0  0  0  0  0  0  0  0  0  0  0  0
    5.4054   -4.6896    0.0000 C   0  0  0  0  0  0  0  0  0  0  0  0
  1  2  1  0  0  0  0
  2  3  2  0  0  0  0
  3  4  1  0  0  0  0
  4  5  2  0  0  0  0
  5  6  1  0  0  0  0
  1  6  2  0  0  0  0
  1  7  1  0  0  0  0
  4  8  1  0  0  0  0
  2  9  1  0  0  0  0
M  END
>  <cdx:groupId>
29

>  <cdx:fragmentId>
5

$$$$
