725569.cdx
  Mrv1902 05222410232D          

 11 11  0  0  0  0            999 V2000
    5.9847   -6.5928    0.0000 O   0  0  0  0  0  0  0  0  0  0  0  0
    5.3139   -7.0730    0.0000 C   0  0  0  0  0  0  0  0  0  0  0  0
    5.5633   -7.8594    0.0000 C   0  0  0  0  0  0  0  0  0  0  0  0
    6.3882   -7.8652    0.0000 C   0  0  0  0  0  0  0  0  0  0  0  0
    6.6487   -7.0824    0.0000 C   0  0  0  0  0  0  0  0  0  0  0  0
    4.5311   -6.8125    0.0000 O   0  0  0  0  0  0  0  0  0  0  0  0
    7.4351   -6.8330    0.0000 C   0  0  0  0  0  0  0  0  0  0  0  0
    8.0443   -7.3894    0.0000 C   0  0  0  0  0  0  0  0  0  0  0  0
    8.8307   -7.1400    0.0000 C   0  0  0  0  0  0  0  0  0  0  0  0
    9.4399   -7.6963    0.0000 C   0  0  0  0  0  0  0  0  0  0  0  0
   10.2263   -7.4469    0.0000 C   0  0  0  0  0  0  0  0  0  0  0  0
  1  2  1  0  0  0  0
  2  3  1  0  0  0  0
  3  4  1  0  0  0  0
  4  5  2  0  0  0  0
  1  5  1  0  0  0  0
  2  6  2  0  0  0  0
  7  8  1  0  0  0  0
  8  9  1  0  0  0  0
  9 10  1  0  0  0  0
 10 11  1  0  0  0  0
  5  7  1  0  0  0  0
M  END
>  <cdx:fragmentId>
58662

$$$$
