72584.cdx
  Mrv1902 05222410252D          

 15 17  0  0  0  0            999 V2000
    4.8634   -4.2560    0.0000 C   0  0  0  0  0  0  0  0  0  0  0  0
    5.1183   -3.4714    0.0000 C   0  0  0  0  0  0  0  0  0  0  0  0
    5.9253   -3.2999    0.0000 C   0  0  0  0  0  0  0  0  0  0  0  0
    6.4773   -3.9130    0.0000 C   0  0  0  0  0  0  0  0  0  0  0  0
    6.2224   -4.6976    0.0000 C   0  0  0  0  0  0  0  0  0  0  0  0
    5.4154   -4.8691    0.0000 N   0  0  0  0  0  0  0  0  0  0  0  0
    4.4509   -2.9865    0.0000 C   0  0  0  0  0  0  0  0  0  0  0  0
    3.7834   -3.4714    0.0000 C   0  0  0  0  0  0  0  0  0  0  0  0
    2.9765   -3.2999    0.0000 C   0  0  0  0  0  0  0  0  0  0  0  0
    2.4244   -3.9130    0.0000 C   0  0  0  0  0  0  0  0  0  0  0  0
    2.6794   -4.6976    0.0000 C   0  0  0  0  0  0  0  0  0  0  0  0
    3.4863   -4.8691    0.0000 C   0  0  0  0  0  0  0  0  0  0  0  0
    4.0384   -4.2560    0.0000 C   0  0  0  0  0  0  0  0  0  0  0  0
    4.4509   -2.1615    0.0000 O   0  0  0  0  0  0  0  0  0  0  0  0
    6.1802   -2.5153    0.0000 C   0  0  0  0  0  0  0  0  0  0  0  0
  1  2  1  0  0  0  0
  2  3  2  0  0  0  0
  3  4  1  0  0  0  0
  4  5  2  0  0  0  0
  5  6  1  0  0  0  0
  1  6  2  0  0  0  0
  7  8  1  0  0  0  0
  8  9  1  0  0  0  0
  9 10  2  0  0  0  0
 10 11  1  0  0  0  0
 11 12  2  0  0  0  0
 12 13  1  0  0  0  0
  8 13  2  0  0  0  0
 13  1  1  0  0  0  0
  7  2  1  0  0  0  0
  7 14  2  0  0  0  0
  3 15  1  0  0  0  0
M  END
>  <cdx:groupId>
49

>  <cdx:fragmentId>
17

$$$$
