72604.cdx
  Mrv1902 05222410222D          

 72 80  0  0  0  0            999 V2000
    3.0421  -11.2038    0.0000 C   0  0  0  0  0  0  0  0  0  0  0  0
    2.3276  -11.6163    0.0000 C   0  0  0  0  0  0  0  0  0  0  0  0
    3.7566  -11.6163    0.0000 O   0  0  0  0  0  0  0  0  0  0  0  0
    3.0421  -10.3788    0.0000 O   0  0  0  0  0  0  0  0  0  0  0  0
    5.1855   -9.1413    0.0000 O   0  0  0  0  0  0  0  0  0  0  0  0
    4.4711   -8.7288    0.0000 C   0  0  1  0  0  0  0  0  0  0  0  0
    3.7566   -9.1413    0.0000 C   0  0  2  0  0  0  0  0  0  0  0  0
    3.7566   -9.9663    0.0000 C   0  0  2  0  0  0  0  0  0  0  0  0
    4.4711  -10.3788    0.0000 C   0  0  0  0  0  0  0  0  0  0  0  0
    5.1855   -9.9663    0.0000 C   0  0  2  0  0  0  0  0  0  0  0  0
    3.0421   -8.7288    0.0000 O   0  0  0  0  0  0  0  0  0  0  0  0
    3.7566   -7.4913    0.0000 O   0  0  0  0  0  0  0  0  0  0  0  0
    3.0421   -7.9038    0.0000 C   0  0  2  0  0  0  0  0  0  0  0  0
    2.3276   -7.4913    0.0000 C   0  0  1  0  0  0  0  0  0  0  0  0
    2.3276   -6.6663    0.0000 C   0  0  2  0  0  0  0  0  0  0  0  0
    3.0421   -6.2538    0.0000 C   0  0  1  0  0  0  0  0  0  0  0  0
    3.7566   -6.6663    0.0000 C   0  0  1  0  0  0  0  0  0  0  0  0
    4.4711   -6.2538    0.0000 C   0  0  0  0  0  0  0  0  0  0  0  0
    4.4711   -5.4288    0.0000 O   0  0  0  0  0  0  0  0  0  0  0  0
    3.0421   -5.4288    0.0000 O   0  0  0  0  0  0  0  0  0  0  0  0
    1.6132   -6.2538    0.0000 O   0  0  0  0  0  0  0  0  0  0  0  0
    1.6132   -7.9038    0.0000 O   0  0  0  0  0  0  0  0  0  0  0  0
    4.4711   -7.9038    0.0000 C   0  0  0  0  0  0  0  0  0  0  0  0
    5.9000  -10.3788    0.0000 O   0  0  0  0  0  0  0  0  0  0  0  0
    8.0434   -9.9663    0.0000 O   0  0  0  0  0  0  0  0  0  0  0  0
    7.3289  -10.3788    0.0000 C   0  0  1  0  0  0  0  0  0  0  0  0
    6.6145   -9.9663    0.0000 C   0  0  2  0  0  0  0  0  0  0  0  0
    6.6145   -9.1413    0.0000 C   0  0  2  0  0  0  0  0  0  0  0  0
    7.3289   -8.7288    0.0000 C   0  0  0  0  0  0  0  0  0  0  0  0
    8.0434   -9.1413    0.0000 C   0  0  2  0  0  0  0  0  0  0  0  0
    7.3289  -11.2038    0.0000 C   0  0  0  0  0  0  0  0  0  0  0  0
    5.9000   -8.7288    0.0000 O   0  0  0  0  0  0  0  0  0  0  0  0
    8.7579   -8.7288    0.0000 O   0  0  0  0  0  0  0  0  0  0  0  0
   10.1868  -10.3788    0.0000 O   0  0  0  0  0  0  0  0  0  0  0  0
    9.4724   -9.9663    0.0000 C   0  0  1  0  0  0  0  0  0  0  0  0
    9.4724   -9.1413    0.0000 C   0  0  2  0  0  0  0  0  0  0  0  0
   10.1868   -8.7288    0.0000 C   0  0  2  0  0  0  0  0  0  0  0  0
   10.9013   -9.1413    0.0000 C   0  0  0  0  0  0  0  0  0  0  0  0
   10.9013   -9.9663    0.0000 C   0  0  2  0  0  0  0  0  0  0  0  0
    8.7579  -10.3788    0.0000 C   0  0  0  0  0  0  0  0  0  0  0  0
   10.1868   -7.9038    0.0000 O   0  0  0  0  0  0  0  0  0  0  0  0
   11.6158  -10.3788    0.0000 O   0  0  0  0  0  0  0  0  0  0  0  0
   13.0447   -8.7288    0.0000 C   0  0  0  0  0  0  0  0  0  0  0  0
   12.3302   -9.1413    0.0000 C   0  0  0  0  0  0  0  0  0  0  0  0
   12.3302   -9.9663    0.0000 C   0  0  1  0  0  0  0  0  0  0  0  0
   13.0447  -10.3788    0.0000 C   0  0  0  0  0  0  0  0  0  0  0  0
   13.7592   -9.9663    0.0000 C   0  0  1  0  0  0  0  0  0  0  0  0
   14.4737  -10.3788    0.0000 C   0  0  0  0  0  0  0  0  0  0  0  0
   15.1881   -9.9663    0.0000 C   0  0  0  0  0  0  0  0  0  0  0  0
   15.1881   -9.1413    0.0000 C   0  0  1  0  0  0  0  0  0  0  0  0
   15.9026   -8.7288    0.0000 C   0  0  1  0  0  0  0  0  0  0  0  0
   16.6872   -8.9838    0.0000 C   0  0  0  0  0  0  0  0  0  0  0  0
   17.1721   -8.3163    0.0000 C   0  0  1  0  0  0  0  0  0  0  0  0
   16.6872   -7.6489    0.0000 C   0  0  1  0  0  0  0  0  0  0  0  0
   15.9026   -7.9038    0.0000 C   0  0  1  0  0  0  0  0  0  0  0  0
   15.1881   -7.4913    0.0000 C   0  0  0  0  0  0  0  0  0  0  0  0
   14.4737   -7.9038    0.0000 C   0  0  0  0  0  0  0  0  0  0  0  0
   14.4737   -8.7288    0.0000 C   0  0  2  0  0  0  0  0  0  0  0  0
   13.7592   -9.1413    0.0000 C   0  0  1  0  0  0  0  0  0  0  0  0
   16.9422   -5.5294    0.0000 O   0  0  0  0  0  0  0  0  0  0  0  0
   16.4572   -6.1968    0.0000 C   0  0  0  0  0  0  0  0  0  0  0  0
   16.9422   -6.8643    0.0000 C   0  0  0  0  0  0  0  0  0  0  0  0
   17.7268   -6.6093    0.0000 C   0  0  0  0  0  0  0  0  0  0  0  0
   17.7268   -5.7843    0.0000 C   0  0  0  0  0  0  0  0  0  0  0  0
   18.3942   -5.2994    0.0000 O   0  0  0  0  0  0  0  0  0  0  0  0
   15.9888   -7.0833    0.0000 C   0  0  0  0  0  0  0  0  0  0  0  0
   13.7592   -8.3163    0.0000 C   0  0  0  0  0  0  0  0  0  0  0  0
   17.9971   -8.3163    0.0000 O   0  0  0  0  0  0  0  0  0  0  0  0
   15.9026   -9.5538    0.0000 O   0  0  0  0  0  0  0  0  0  0  0  0
   13.7592  -10.7913    0.0000 H   0  0  0  0  0  0  0  0  0  0  0  0
   15.1881   -8.3163    0.0000 H   0  0  0  0  0  0  0  0  0  0  0  0
   14.4737   -9.5538    0.0000 H   0  0  0  0  0  0  0  0  0  0  0  0
  1  2  1  0  0  0  0
  1  3  2  0  0  0  0
  1  4  1  0  0  0  0
  5  6  1  0  0  0  0
  6  7  1  0  0  0  0
  7  8  1  0  0  0  0
  8  9  1  0  0  0  0
  9 10  1  0  0  0  0
  5 10  1  0  0  0  0
 12 13  1  0  0  0  0
 13 14  1  0  0  0  0
 14 15  1  0  0  0  0
 15 16  1  0  0  0  0
 16 17  1  0  0  0  0
 12 17  1  0  0  0  0
 18 19  1  0  0  0  0
 17 18  1  1  0  0  0
 16 20  1  6  0  0  0
 15 21  1  1  0  0  0
 14 22  1  6  0  0  0
 13 11  1  1  0  0  0
  7 11  1  6  0  0  0
  6 23  1  1  0  0  0
 25 26  1  0  0  0  0
 26 27  1  0  0  0  0
 27 28  1  0  0  0  0
 28 29  1  0  0  0  0
 29 30  1  0  0  0  0
 25 30  1  0  0  0  0
 26 31  1  6  0  0  0
 28 32  1  1  0  0  0
 34 35  1  0  0  0  0
 35 36  1  0  0  0  0
 36 37  1  0  0  0  0
 37 38  1  0  0  0  0
 38 39  1  0  0  0  0
 34 39  1  0  0  0  0
 35 40  1  6  0  0  0
 37 41  1  1  0  0  0
 43 44  1  0  0  0  0
 44 45  1  0  0  0  0
 45 46  1  0  0  0  0
 46 47  1  0  0  0  0
 47 48  1  0  0  0  0
 48 49  1  0  0  0  0
 49 50  1  0  0  0  0
 50 51  1  0  0  0  0
 51 52  1  0  0  0  0
 52 53  1  0  0  0  0
 53 54  1  0  0  0  0
 54 55  1  0  0  0  0
 51 55  1  0  0  0  0
 55 56  1  0  0  0  0
 56 57  1  0  0  0  0
 57 58  1  0  0  0  0
 50 58  1  0  0  0  0
 58 59  1  0  0  0  0
 47 59  1  0  0  0  0
 43 59  1  0  0  0  0
 60 61  1  0  0  0  0
 61 62  1  0  0  0  0
 62 63  2  0  0  0  0
 63 64  1  0  0  0  0
 60 64  1  0  0  0  0
 64 65  2  0  0  0  0
 54 62  1  1  0  0  0
 55 66  1  1  0  0  0
 59 67  1  1  0  0  0
 53 68  1  1  0  0  0
 51 69  1  1  0  0  0
 45 42  1  1  0  0  0
 39 42  1  6  0  0  0
 36 33  1  1  0  0  0
 30 33  1  6  0  0  0
 27 24  1  1  0  0  0
 10 24  1  1  0  0  0
  8  4  1  6  0  0  0
 47 70  1  1  0  0  0
 50 71  1  1  0  0  0
 58 72  1  6  0  0  0
M  END
>  <cdx:fragmentId>
89

$$$$
