7261.cdx
  Mrv1902 05222410232D          

 23 26  0  0  0  0            999 V2000
    4.8502   -5.1150    0.0000 C   0  0  0  0  0  0  0  0  0  0  0  0
    4.8502   -5.9400    0.0000 C   0  0  0  0  0  0  0  0  0  0  0  0
    5.5646   -6.3525    0.0000 C   0  0  0  0  0  0  0  0  0  0  0  0
    6.2791   -5.9400    0.0000 N   0  0  0  0  0  0  0  0  0  0  0  0
    6.2791   -5.1150    0.0000 C   0  0  2  0  0  0  0  0  0  0  0  0
    5.5646   -4.7025    0.0000 C   0  0  0  0  0  0  0  0  0  0  0  0
    6.9936   -6.3525    0.0000 C   0  0  0  0  0  0  0  0  0  0  0  0
    7.7080   -5.9400    0.0000 C   0  0  1  0  0  0  0  0  0  0  0  0
    7.7080   -5.1150    0.0000 C   0  0  1  0  0  0  0  0  0  0  0  0
    6.9936   -4.7025    0.0000 C   0  0  2  0  0  0  0  0  0  0  0  0
    8.4225   -6.3525    0.0000 C   0  0  0  0  0  0  0  0  0  0  0  0
    9.1370   -5.9400    0.0000 C   0  0  0  0  0  0  0  0  0  0  0  0
    9.1370   -5.1150    0.0000 C   0  0  0  0  0  0  0  0  0  0  0  0
    8.4225   -4.7025    0.0000 N   0  0  0  0  0  0  0  0  0  0  0  0
    8.4225   -3.8775    0.0000 C   0  0  0  0  0  0  0  0  0  0  0  0
    7.7080   -3.4650    0.0000 C   0  0  2  0  0  0  0  0  0  0  0  0
    6.9936   -3.8775    0.0000 C   0  0  0  0  0  0  0  0  0  0  0  0
    5.5646   -7.1775    0.0000 O   0  0  0  0  0  0  0  0  0  0  0  0
    6.2791   -4.2900    0.0000 H   0  0  0  0  0  0  0  0  0  0  0  0
    7.7080   -4.2900    0.0000 H   0  0  0  0  0  0  0  0  0  0  0  0
    7.7080   -6.7650    0.0000 H   0  0  0  0  0  0  0  0  0  0  0  0
    6.9936   -5.5275    0.0000 H   0  0  0  0  0  0  0  0  0  0  0  0
    7.7080   -2.6400    0.0000 O   0  0  0  0  0  0  0  0  0  0  0  0
  1  2  1  0  0  0  0
  2  3  1  0  0  0  0
  3  4  1  0  0  0  0
  4  5  1  0  0  0  0
  5  6  1  0  0  0  0
  6  1  1  0  0  0  0
  4  7  1  0  0  0  0
  7  8  1  0  0  0  0
  8  9  1  0  0  0  0
  9 10  1  0  0  0  0
 10  5  1  0  0  0  0
  8 11  1  0  0  0  0
 11 12  1  0  0  0  0
 12 13  1  0  0  0  0
 13 14  1  0  0  0  0
 14  9  1  0  0  0  0
 14 15  1  0  0  0  0
 15 16  1  0  0  0  0
 16 17  1  0  0  0  0
 17 10  1  0  0  0  0
  3 18  2  0  0  0  0
 10 19  1  6  0  0  0
  9 20  1  6  0  0  0
  8 21  1  6  0  0  0
  5 22  1  1  0  0  0
 16 23  1  6  0  0  0
M  END
>  <cdx:fragmentId>
5

$$$$
