7262.cdx
  Mrv1902 05222410242D          

 21 24  0  0  0  0            999 V2000
    2.9527   -7.5900    0.0000 C   0  0  0  0  0  0  0  0  0  0  0  0
    2.9527   -8.4150    0.0000 C   0  0  0  0  0  0  0  0  0  0  0  0
    3.6671   -8.8275    0.0000 C   0  0  0  0  0  0  0  0  0  0  0  0
    4.3816   -8.4150    0.0000 N   0  0  0  0  0  0  0  0  0  0  0  0
    4.3816   -7.5900    0.0000 C   0  0  0  0  0  0  0  0  0  0  0  0
    3.6671   -7.1775    0.0000 C   0  0  0  0  0  0  0  0  0  0  0  0
    5.0961   -8.8275    0.0000 C   0  0  0  0  0  0  0  0  0  0  0  0
    5.8105   -8.4150    0.0000 C   0  0  1  0  0  0  0  0  0  0  0  0
    5.8105   -7.5900    0.0000 C   0  0  1  0  0  0  0  0  0  0  0  0
    5.0961   -7.1775    0.0000 C   0  0  0  0  0  0  0  0  0  0  0  0
    6.5250   -8.8275    0.0000 C   0  0  0  0  0  0  0  0  0  0  0  0
    7.2395   -8.4150    0.0000 C   0  0  0  0  0  0  0  0  0  0  0  0
    7.2395   -7.5900    0.0000 C   0  0  0  0  0  0  0  0  0  0  0  0
    6.5250   -7.1775    0.0000 N   0  0  0  0  0  0  0  0  0  0  0  0
    6.5250   -6.3525    0.0000 C   0  0  0  0  0  0  0  0  0  0  0  0
    5.8105   -5.9400    0.0000 C   0  0  2  0  0  0  0  0  0  0  0  0
    5.0961   -6.3525    0.0000 C   0  0  0  0  0  0  0  0  0  0  0  0
    3.6671   -9.6525    0.0000 O   0  0  0  0  0  0  0  0  0  0  0  0
    5.8105   -6.7650    0.0000 H   0  0  0  0  0  0  0  0  0  0  0  0
    5.8105   -9.2400    0.0000 H   0  0  0  0  0  0  0  0  0  0  0  0
    5.8105   -5.1150    0.0000 O   0  0  0  0  0  0  0  0  0  0  0  0
  1  2  2  0  0  0  0
  2  3  1  0  0  0  0
  3  4  1  0  0  0  0
  4  5  1  0  0  0  0
  5  6  2  0  0  0  0
  6  1  1  0  0  0  0
  4  7  1  0  0  0  0
  7  8  1  0  0  0  0
  8  9  1  0  0  0  0
  9 10  1  0  0  0  0
 10  5  1  0  0  0  0
  8 11  1  0  0  0  0
 11 12  1  0  0  0  0
 12 13  1  0  0  0  0
 13 14  1  0  0  0  0
 14  9  1  0  0  0  0
 14 15  1  0  0  0  0
 15 16  1  0  0  0  0
 16 17  1  0  0  0  0
 17 10  1  0  0  0  0
  3 18  2  0  0  0  0
  9 19  1  6  0  0  0
  8 20  1  6  0  0  0
 16 21  1  6  0  0  0
M  END
>  <cdx:fragmentId>
5

$$$$
