72646.cdx
  Mrv1902 05222410272D          

 22 24  0  0  0  0            999 V2000
    5.0166   -2.7163    0.0000 O   0  0  0  0  0  0  0  0  0  0  0  0
    5.0905   -3.5380    0.0000 C   0  0  1  0  0  0  0  0  0  0  0  0
    5.8949   -3.7216    0.0000 C   0  0  2  0  0  0  0  0  0  0  0  0
    6.3180   -3.0133    0.0000 C   0  0  0  0  0  0  0  0  0  0  0  0
    5.7752   -2.3920    0.0000 C   0  0  0  0  0  0  0  0  0  0  0  0
    3.6609   -5.1323    0.0000 C   0  0  0  0  0  0  0  0  0  0  0  0
    3.1760   -4.4649    0.0000 C   0  0  1  0  0  0  0  0  0  0  0  0
    3.6609   -3.7974    0.0000 C   0  0  0  0  0  0  0  0  0  0  0  0
    4.4455   -4.0524    0.0000 C   0  0  1  0  0  0  0  0  0  0  0  0
    6.2528   -4.4649    0.0000 C   0  0  0  0  0  0  0  0  0  0  0  0
    5.8949   -5.2082    0.0000 C   0  0  0  0  0  0  0  0  0  0  0  0
    5.0905   -5.3917    0.0000 C   0  0  0  0  0  0  0  0  0  0  0  0
    4.4455   -4.8774    0.0000 C   0  0  2  0  0  0  0  0  0  0  0  0
    5.9588   -1.5877    0.0000 O   0  0  0  0  0  0  0  0  0  0  0  0
    3.4060   -3.0128    0.0000 C   0  0  0  0  0  0  0  0  0  0  0  0
    4.9070   -6.1960    0.0000 C   0  0  0  0  0  0  0  0  0  0  0  0
    7.1397   -2.9394    0.0000 C   0  0  0  0  0  0  0  0  0  0  0  0
    2.3510   -4.4649    0.0000 O   0  0  0  0  0  0  0  0  0  0  0  0
    6.7199   -3.7216    0.0000 H   0  0  0  0  0  0  0  0  0  0  0  0
    4.2982   -5.6891    0.0000 H   0  0  0  0  0  0  0  0  0  0  0  0
    4.4455   -3.2274    0.0000 H   0  0  0  0  0  0  0  0  0  0  0  0
    5.0905   -4.3630    0.0000 H   0  0  0  0  0  0  0  0  0  0  0  0
  1  2  1  0  0  0  0
  2  3  1  0  0  0  0
  3  4  1  0  0  0  0
  4  5  1  0  0  0  0
  1  5  1  0  0  0  0
  6  7  1  0  0  0  0
  7  8  1  0  0  0  0
  8  9  1  0  0  0  0
 10 11  1  0  0  0  0
 11 12  1  0  0  0  0
 12 13  1  0  0  0  0
  6 13  1  0  0  0  0
  9 13  1  0  0  0  0
  9  2  1  0  0  0  0
 10  3  1  0  0  0  0
  5 14  2  0  0  0  0
  8 15  2  0  0  0  0
 12 16  2  0  0  0  0
  4 17  2  0  0  0  0
  7 18  1  6  0  0  0
  3 19  1  1  0  0  0
 13 20  1  1  0  0  0
  9 21  1  1  0  0  0
  2 22  1  6  0  0  0
M  END
>  <cdx:groupId>
70

>  <cdx:fragmentId>
23

$$$$
