726743.cdx
  Mrv1902 05222410192D          

 24 24  0  0  0  0            999 V2000
    4.7116   -8.2823    0.0000 C   0  0  0  0  0  0  0  0  0  0  0  0
    5.4289   -8.6897    0.0000 C   0  0  0  0  0  0  0  0  0  0  0  0
    6.1405   -8.2722    0.0000 C   0  0  0  0  0  0  0  0  0  0  0  0
    6.8578   -8.6797    0.0000 C   0  0  0  0  0  0  0  0  0  0  0  0
    7.5694   -8.2621    0.0000 C   0  0  0  0  0  0  0  0  0  0  0  0
    8.2867   -8.6696    0.0000 C   0  0  0  0  0  0  0  0  0  0  0  0
    8.9983   -8.2520    0.0000 C   0  0  0  0  0  0  0  0  0  0  0  0
    9.7156   -8.6595    0.0000 C   0  0  0  0  0  0  0  0  0  0  0  0
   10.4272   -8.2420    0.0000 C   0  0  0  0  0  0  0  0  0  0  0  0
   11.1446   -8.6494    0.0000 C   0  0  0  0  0  0  0  0  0  0  0  0
   11.8561   -8.2319    0.0000 C   0  0  0  0  0  0  0  0  0  0  0  0
   11.8503   -7.4069    0.0000 C   0  0  0  0  0  0  0  0  0  0  0  0
   12.5735   -8.6393    0.0000 C   0  0  0  0  0  0  0  0  0  0  0  0
    8.9925   -7.4271    0.0000 C   0  0  0  0  0  0  0  0  0  0  0  0
    1.8538   -8.3025    0.0000 C   0  0  0  0  0  0  0  0  0  0  0  0
    6.1346   -7.4472    0.0000 C   0  0  0  0  0  0  0  0  0  0  0  0
    3.3001  -10.7673    0.0000 O   0  0  0  0  0  0  0  0  0  0  0  0
    3.2768   -7.4674    0.0000 O   0  0  0  0  0  0  0  0  0  0  0  0
    4.0000   -8.6998    0.0000 C   0  0  0  0  0  0  0  0  0  0  0  0
    4.0058   -9.5248    0.0000 C   0  0  0  0  0  0  0  0  0  0  0  0
    3.2943   -9.9423    0.0000 C   0  0  0  0  0  0  0  0  0  0  0  0
    2.5769   -9.5349    0.0000 C   0  0  0  0  0  0  0  0  0  0  0  0
    2.5711   -8.7099    0.0000 C   0  0  0  0  0  0  0  0  0  0  0  0
    3.2827   -8.2924    0.0000 C   0  0  0  0  0  0  0  0  0  0  0  0
 23 15  1  0  0  0  0
 19  1  1  0  0  0  0
 21 17  2  0  0  0  0
 24 18  2  0  0  0  0
 24 19  1  0  0  0  0
 20 19  2  0  0  0  0
 21 20  1  0  0  0  0
 22 21  1  0  0  0  0
 23 22  2  0  0  0  0
 24 23  1  0  0  0  0
  1  2  1  0  0  0  0
  2  3  2  0  0  0  0
  3  4  1  0  0  0  0
  4  5  1  0  0  0  0
  5  6  1  0  0  0  0
  6  7  2  0  0  0  0
  7  8  1  0  0  0  0
  8  9  1  0  0  0  0
  9 10  1  0  0  0  0
 10 11  2  0  0  0  0
 11 12  1  0  0  0  0
 11 13  1  0  0  0  0
  7 14  1  0  0  0  0
  3 16  1  0  0  0  0
M  END
>  <cdx:fragmentId>
216091

$$$$
