7269.cdx
  Mrv1902 05222410212D          

 10 10  0  0  0  0            999 V2000
    6.0935   -3.5681    0.0000 C   0  0  0  0  0  0  0  0  0  0  0  0
    6.0935   -4.3931    0.0000 C   0  0  0  0  0  0  0  0  0  0  0  0
    5.3790   -4.8056    0.0000 C   0  0  0  0  0  0  0  0  0  0  0  0
    4.6645   -4.3931    0.0000 C   0  0  0  0  0  0  0  0  0  0  0  0
    4.6645   -3.5681    0.0000 C   0  0  0  0  0  0  0  0  0  0  0  0
    5.3790   -3.1556    0.0000 C   0  0  0  0  0  0  0  0  0  0  0  0
    3.9501   -3.1556    0.0000 C   0  0  0  0  0  0  0  0  0  0  0  0
    3.9501   -4.8056    0.0000 C   0  0  0  0  0  0  0  0  0  0  0  0
    6.8079   -4.8056    0.0000 C   0  0  0  0  0  0  0  0  0  0  0  0
    6.8079   -3.1556    0.0000 C   0  0  0  0  0  0  0  0  0  0  0  0
  1  2  1  0  0  0  0
  2  3  2  0  0  0  0
  3  4  1  0  0  0  0
  4  5  2  0  0  0  0
  5  6  1  0  0  0  0
  1  6  2  0  0  0  0
  5  7  1  0  0  0  0
  4  8  1  0  0  0  0
  2  9  1  0  0  0  0
  1 10  1  0  0  0  0
M  END
>  <cdx:groupId>
32

>  <cdx:fragmentId>
5

$$$$
