72704.cdx
  Mrv1902 05222410202D          

 24 28  0  0  0  0            999 V2000
    8.1400   -6.8379    0.0000 C   0  0  0  0  0  0  0  0  0  0  0  0
    8.8544   -6.4254    0.0000 C   0  0  0  0  0  0  0  0  0  0  0  0
    8.8544   -5.6004    0.0000 C   0  0  0  0  0  0  0  0  0  0  0  0
    9.5689   -5.1879    0.0000 C   0  0  0  0  0  0  0  0  0  0  0  0
    9.7404   -4.3809    0.0000 O   0  0  0  0  0  0  0  0  0  0  0  0
   10.5609   -4.2947    0.0000 C   0  0  0  0  0  0  0  0  0  0  0  0
   10.8965   -5.0484    0.0000 O   0  0  0  0  0  0  0  0  0  0  0  0
   10.2834   -5.6004    0.0000 C   0  0  0  0  0  0  0  0  0  0  0  0
   10.2834   -6.4254    0.0000 C   0  0  0  0  0  0  0  0  0  0  0  0
    9.5689   -6.8379    0.0000 C   0  0  0  0  0  0  0  0  0  0  0  0
    9.5689   -7.6629    0.0000 C   0  0  0  0  0  0  0  0  0  0  0  0
    8.8544   -8.0754    0.0000 C   0  0  0  0  0  0  0  0  0  0  0  0
    8.1400   -7.6629    0.0000 N   0  3  0  0  0  0  0  0  0  0  0  0
    7.4255   -8.0754    0.0000 C   0  0  0  0  0  0  0  0  0  0  0  0
    6.7110   -7.6629    0.0000 C   0  0  0  0  0  0  0  0  0  0  0  0
    5.9966   -8.0754    0.0000 C   0  0  0  0  0  0  0  0  0  0  0  0
    5.2821   -7.6629    0.0000 C   0  0  0  0  0  0  0  0  0  0  0  0
    5.2821   -6.8379    0.0000 C   0  0  0  0  0  0  0  0  0  0  0  0
    5.9966   -6.4254    0.0000 C   0  0  0  0  0  0  0  0  0  0  0  0
    6.7110   -6.8379    0.0000 C   0  0  0  0  0  0  0  0  0  0  0  0
    7.4255   -6.4254    0.0000 C   0  0  0  0  0  0  0  0  0  0  0  0
    5.9966   -8.9004    0.0000 O   0  0  0  0  0  0  0  0  0  0  0  0
    4.5676   -8.0754    0.0000 O   0  0  0  0  0  0  0  0  0  0  0  0
    3.8531   -7.6629    0.0000 C   0  0  0  0  0  0  0  0  0  0  0  0
  1  2  1  0  0  0  0
  2  3  2  0  0  0  0
  3  4  1  0  0  0  0
  4  5  1  0  0  0  0
  5  6  1  0  0  0  0
  6  7  1  0  0  0  0
  7  8  1  0  0  0  0
  8  9  1  0  0  0  0
  9 10  2  0  0  0  0
 10 11  1  0  0  0  0
 11 12  1  0  0  0  0
 12 13  1  0  0  0  0
 13 14  1  0  0  0  0
 14 15  2  0  0  0  0
 15 16  1  0  0  0  0
 16 17  2  0  0  0  0
 17 18  1  0  0  0  0
 18 19  2  0  0  0  0
 19 20  1  0  0  0  0
 20 21  2  0  0  0  0
  1 21  1  0  0  0  0
  1 13  2  0  0  0  0
 15 20  1  0  0  0  0
  2 10  1  0  0  0  0
  4  8  2  0  0  0  0
 16 22  1  0  0  0  0
 23 24  1  0  0  0  0
 17 23  1  0  0  0  0
M  CHG  1  13   1
M  END
>  <cdx:groupId>
78

>  <cdx:fragmentId>
5

$$$$
