72724.cdx
  Mrv1902 05222410282D          

 19 21  0  0  0  0            999 V2000
    5.8798   -2.3614    0.0000 O   0  0  0  0  0  0  0  0  0  0  0  0
    6.3647   -3.0288    0.0000 C   0  0  0  0  0  0  0  0  0  0  0  0
    5.8798   -3.6963    0.0000 C   0  0  0  0  0  0  0  0  0  0  0  0
    5.0952   -3.4413    0.0000 C   0  0  1  0  0  0  0  0  0  0  0  0
    4.3807   -3.8538    0.0000 C   0  0  0  0  0  0  0  0  0  0  0  0
    3.6662   -3.4413    0.0000 C   0  0  0  0  0  0  0  0  0  0  0  0
    3.6662   -2.6163    0.0000 C   0  0  1  0  0  0  0  0  0  0  0  0
    4.3807   -2.2038    0.0000 C   0  0  0  0  0  0  0  0  0  0  0  0
    5.0952   -2.6163    0.0000 C   0  0  1  0  0  0  0  0  0  0  0  0
    2.9518   -2.2038    0.0000 C   0  0  0  0  0  0  0  0  0  0  0  0
    2.2373   -2.6163    0.0000 C   0  0  0  0  0  0  0  0  0  0  0  0
    2.2373   -3.4413    0.0000 C   0  0  0  0  0  0  0  0  0  0  0  0
    2.9518   -3.8538    0.0000 C   0  0  2  0  0  0  0  0  0  0  0  0
    7.1897   -3.0288    0.0000 O   0  0  0  0  0  0  0  0  0  0  0  0
    6.1347   -4.4809    0.0000 C   0  0  0  0  0  0  0  0  0  0  0  0
    3.6662   -1.7913    0.0000 C   0  0  0  0  0  0  0  0  0  0  0  0
    2.9518   -4.6788    0.0000 C   0  0  0  0  0  0  0  0  0  0  0  0
    5.1814   -4.2618    0.0000 H   0  0  0  0  0  0  0  0  0  0  0  0
    5.1814   -1.7958    0.0000 H   0  0  0  0  0  0  0  0  0  0  0  0
  1  2  1  0  0  0  0
  2  3  1  0  0  0  0
  3  4  1  0  0  0  0
  4  5  1  0  0  0  0
  5  6  2  0  0  0  0
  6  7  1  0  0  0  0
  7  8  1  0  0  0  0
  8  9  1  0  0  0  0
  4  9  1  0  0  0  0
  1  9  1  0  0  0  0
 10 11  1  0  0  0  0
 11 12  1  0  0  0  0
 12 13  1  0  0  0  0
 13  6  1  0  0  0  0
 10  7  1  0  0  0  0
  2 14  2  0  0  0  0
  3 15  2  0  0  0  0
  7 16  1  1  0  0  0
 13 17  1  1  0  0  0
  4 18  1  6  0  0  0
  9 19  1  6  0  0  0
M  END
>  <cdx:groupId>
61

>  <cdx:fragmentId>
5

$$$$
