727558.cdx
  Mrv1902 05222410212D          

 63 62  0  0  0  0            999 V2000
   11.7385   -2.7325    0.0000 C   0  0  0  0  0  0  0  0  0  0  0  0
   12.1510   -3.4470    0.0000 C   0  0  0  0  0  0  0  0  0  0  0  0
   11.7385   -4.1615    0.0000 C   0  0  0  0  0  0  0  0  0  0  0  0
   12.1510   -4.8760    0.0000 C   0  0  0  0  0  0  0  0  0  0  0  0
   11.7385   -5.5904    0.0000 C   0  0  0  0  0  0  0  0  0  0  0  0
   12.1510   -6.3049    0.0000 C   0  0  0  0  0  0  0  0  0  0  0  0
   11.7385   -7.0194    0.0000 C   0  0  0  0  0  0  0  0  0  0  0  0
   10.9135   -7.0194    0.0000 C   0  0  0  0  0  0  0  0  0  0  0  0
   10.5010   -6.3049    0.0000 C   0  0  0  0  0  0  0  0  0  0  0  0
   14.3161  -12.3523    0.0000 C   0  0  0  0  0  0  0  0  0  0  0  0
   14.3161  -11.5273    0.0000 C   0  0  0  0  0  0  0  0  0  0  0  0
   13.6016  -11.1148    0.0000 C   0  0  0  0  0  0  0  0  0  0  0  0
   13.6016  -10.2898    0.0000 C   0  0  0  0  0  0  0  0  0  0  0  0
   12.8871   -9.8773    0.0000 C   0  0  0  0  0  0  0  0  0  0  0  0
   12.8871   -9.0523    0.0000 C   0  0  0  0  0  0  0  0  0  0  0  0
   12.1726   -8.6398    0.0000 C   0  0  0  0  0  0  0  0  0  0  0  0
   11.4582   -9.0523    0.0000 C   0  0  0  0  0  0  0  0  0  0  0  0
   11.4582   -9.8773    0.0000 C   0  0  0  0  0  0  0  0  0  0  0  0
    8.0260  -13.4496    0.0000 C   0  0  0  0  0  0  0  0  0  0  0  0
    7.6135  -14.1641    0.0000 C   0  0  0  0  0  0  0  0  0  0  0  0
    8.0260  -14.8786    0.0000 C   0  0  0  0  0  0  0  0  0  0  0  0
    7.6135  -15.5930    0.0000 C   0  0  0  0  0  0  0  0  0  0  0  0
    6.7885  -15.5930    0.0000 C   0  0  0  0  0  0  0  0  0  0  0  0
    6.3760  -16.3075    0.0000 C   0  0  0  0  0  0  0  0  0  0  0  0
    5.5510  -16.3075    0.0000 C   0  0  0  0  0  0  0  0  0  0  0  0
    5.1385  -15.5930    0.0000 C   0  0  0  0  0  0  0  0  0  0  0  0
    4.3135  -15.5930    0.0000 C   0  0  0  0  0  0  0  0  0  0  0  0
   10.7437  -10.2898    0.0000 C   0  0  0  0  0  0  0  0  0  0  0  0
   10.0292   -9.8773    0.0000 C   0  0  0  0  0  0  0  0  0  0  0  0
    9.3148  -10.2898    0.0000 C   0  0  0  0  0  0  0  0  0  0  0  0
    8.6003   -9.8773    0.0000 C   0  0  0  0  0  0  0  0  0  0  0  0
    7.8858  -10.2898    0.0000 C   0  0  0  0  0  0  0  0  0  0  0  0
    7.1713   -9.8773    0.0000 C   0  0  0  0  0  0  0  0  0  0  0  0
    6.4569  -10.2898    0.0000 C   0  0  0  0  0  0  0  0  0  0  0  0
    5.7424   -9.8773    0.0000 C   0  0  0  0  0  0  0  0  0  0  0  0
    5.0279  -10.2898    0.0000 C   0  0  0  0  0  0  0  0  0  0  0  0
    4.3135   -9.8773    0.0000 C   0  0  0  0  0  0  0  0  0  0  0  0
    4.7260   -9.1628    0.0000 C   0  0  0  0  0  0  0  0  0  0  0  0
    5.5510   -9.1628    0.0000 C   0  0  0  0  0  0  0  0  0  0  0  0
    5.9635   -8.4483    0.0000 C   0  0  0  0  0  0  0  0  0  0  0  0
    6.7885   -8.4483    0.0000 C   0  0  0  0  0  0  0  0  0  0  0  0
    7.2010   -7.7338    0.0000 C   0  0  0  0  0  0  0  0  0  0  0  0
    8.0260   -7.7338    0.0000 C   0  0  0  0  0  0  0  0  0  0  0  0
    8.4385   -7.0194    0.0000 C   0  0  0  0  0  0  0  0  0  0  0  0
    9.2635   -7.0194    0.0000 C   0  0  0  0  0  0  0  0  0  0  0  0
    9.6760   -6.3049    0.0000 C   0  0  0  0  0  0  0  0  0  0  0  0
    5.0279  -11.1148    0.0000 O   0  0  0  0  0  0  0  0  0  0  0  0
    4.3135   -8.4483    0.0000 O   0  0  0  0  0  0  0  0  0  0  0  0
    3.5990   -9.4648    0.0000 C   0  0  0  0  0  0  0  0  0  0  0  0
    2.8845   -9.8773    0.0000 C   0  0  0  0  0  0  0  0  0  0  0  0
    2.1700   -9.4648    0.0000 C   0  0  0  0  0  0  0  0  0  0  0  0
    1.4556   -9.8773    0.0000 C   0  0  0  0  0  0  0  0  0  0  0  0
    3.5990   -8.6398    0.0000 O   0  0  0  0  0  0  0  0  0  0  0  0
    0.7411   -9.4648    0.0000 O   0  0  0  0  0  0  0  0  0  0  0  0
    2.1700   -8.6398    0.0000 O   0  0  0  0  0  0  0  0  0  0  0  0
    2.8845  -10.7023    0.0000 O   0  0  0  0  0  0  0  0  0  0  0  0
    3.9010  -10.5917    0.0000 C   0  0  0  0  0  0  0  0  0  0  0  0
    4.3135  -11.3062    0.0000 C   0  0  0  0  0  0  0  0  0  0  0  0
    3.9010  -12.0207    0.0000 C   0  0  0  0  0  0  0  0  0  0  0  0
    4.3135  -12.7351    0.0000 C   0  0  0  0  0  0  0  0  0  0  0  0
    3.9010  -13.4496    0.0000 C   0  0  0  0  0  0  0  0  0  0  0  0
    4.3135  -14.1641    0.0000 C   0  0  0  0  0  0  0  0  0  0  0  0
    3.9010  -14.8786    0.0000 C   0  0  0  0  0  0  0  0  0  0  0  0
  2  1  1  0  0  0  0
  3  2  1  0  0  0  0
  4  3  1  0  0  0  0
  5  4  1  0  0  0  0
  6  5  1  0  0  0  0
  7  6  2  0  0  0  0
  8  7  1  0  0  0  0
  9  8  1  0  0  0  0
 46  9  2  0  0  0  0
 11 10  1  0  0  0  0
 12 11  1  0  0  0  0
 13 12  1  0  0  0  0
 14 13  1  0  0  0  0
 15 14  1  0  0  0  0
 16 15  2  0  0  0  0
 17 16  1  0  0  0  0
 18 17  1  0  0  0  0
 28 18  2  0  0  0  0
 20 19  1  0  0  0  0
 21 20  1  0  0  0  0
 22 21  2  0  0  0  0
 23 22  1  0  0  0  0
 24 23  1  0  0  0  0
 25 24  2  0  0  0  0
 26 25  1  0  0  0  0
 27 26  1  0  0  0  0
 63 27  2  0  0  0  0
 28 29  1  0  0  0  0
 29 30  1  0  0  0  0
 30 31  1  0  0  0  0
 31 32  1  0  0  0  0
 32 33  1  0  0  0  0
 33 34  1  0  0  0  0
 34 35  1  0  0  0  0
 35 36  1  0  0  0  0
 36 37  1  0  0  0  0
 37 38  1  0  0  0  0
 38 39  1  0  0  0  0
 39 40  1  0  0  0  0
 40 41  1  0  0  0  0
 41 42  1  0  0  0  0
 42 43  1  0  0  0  0
 43 44  1  0  0  0  0
 44 45  1  0  0  0  0
 45 46  1  0  0  0  0
 36 47  2  0  0  0  0
 38 48  2  0  0  0  0
 49 50  1  0  0  0  0
 50 51  1  0  0  0  0
 51 52  1  0  0  0  0
 49 53  2  0  0  0  0
 52 54  1  0  0  0  0
 51 55  1  0  0  0  0
 50 56  1  0  0  0  0
 37 49  1  0  0  0  0
 57 58  1  0  0  0  0
 58 59  1  0  0  0  0
 59 60  1  0  0  0  0
 60 61  1  0  0  0  0
 61 62  1  0  0  0  0
 62 63  1  0  0  0  0
 37 57  1  0  0  0  0
M  END
>  <cdx:fragmentId>
55756

$$$$
