7277.cdx
  Mrv1902 05222410242D          

 20 20  0  0  0  0            999 V2000
    1.2334   -5.6100    0.0000 C   0  0  0  0  0  0  0  0  0  0  0  0
    2.0584   -5.6100    0.0000 C   0  0  0  0  0  0  0  0  0  0  0  0
    2.4709   -6.3245    0.0000 C   0  0  0  0  0  0  0  0  0  0  0  0
    3.2959   -6.3245    0.0000 C   0  0  0  0  0  0  0  0  0  0  0  0
    3.7084   -7.0389    0.0000 C   0  0  0  0  0  0  0  0  0  0  0  0
    4.5334   -7.0389    0.0000 C   0  0  0  0  0  0  0  0  0  0  0  0
    4.9459   -7.7534    0.0000 C   0  0  0  0  0  0  0  0  0  0  0  0
    5.7709   -7.7534    0.0000 C   0  0  0  0  0  0  0  0  0  0  0  0
    6.4853   -7.3409    0.0000 C   0  0  0  0  0  0  0  0  0  0  0  0
    6.8978   -6.6264    0.0000 C   0  0  1  0  0  0  0  0  0  0  0  0
    7.7228   -6.6264    0.0000 C   0  0  0  0  0  0  0  0  0  0  0  0
    8.5478   -6.6264    0.0000 C   0  0  0  0  0  0  0  0  0  0  0  0
    9.3728   -6.6264    0.0000 C   0  0  0  0  0  0  0  0  0  0  0  0
   10.1978   -6.6264    0.0000 C   0  0  0  0  0  0  0  0  0  0  0  0
   11.0228   -6.6264    0.0000 C   0  0  1  0  0  0  0  0  0  0  0  0
   11.4353   -7.3409    0.0000 C   0  0  0  0  0  0  0  0  0  0  0  0
   12.2603   -7.3409    0.0000 C   0  0  0  0  0  0  0  0  0  0  0  0
    6.4853   -5.9120    0.0000 O   0  0  0  0  0  0  0  0  0  0  0  0
   11.4353   -5.9120    0.0000 O   0  0  0  0  0  0  0  0  0  0  0  0
    6.4853   -8.1659    0.0000 O   0  0  0  0  0  0  0  0  0  0  0  0
  1  2  1  0  0  0  0
  2  3  1  0  0  0  0
  3  4  1  0  0  0  0
  4  5  1  0  0  0  0
  5  6  1  0  0  0  0
  6  7  1  0  0  0  0
  7  8  1  0  0  0  0
  8  9  1  0  0  0  0
  9 10  1  0  0  0  0
 10 11  1  0  0  0  0
 11 12  3  0  0  0  0
 12 13  1  0  0  0  0
 13 14  3  0  0  0  0
 14 15  1  0  0  0  0
 15 16  1  0  0  0  0
 16 17  2  0  0  0  0
 10 18  1  6  0  0  0
 15 19  1  6  0  0  0
  8 20  1  0  0  0  0
 20  9  1  0  0  0  0
M  END
>  <cdx:fragmentId>
3

$$$$
