728078.cdx
  Mrv1902 05222410202D          

 28 31  0  0  0  0            999 V2000
    9.2672   -5.9676    0.0000 C   0  0  0  0  0  0  0  0  0  0  0  0
    9.2556   -7.6176    0.0000 C   0  0  0  0  0  0  0  0  0  0  0  0
    5.7729   -4.0266    0.0000 O   0  0  0  0  0  0  0  0  0  0  0  0
    4.9572   -4.1500    0.0000 C   0  0  0  0  0  0  0  0  0  0  0  0
    4.8224   -4.9639    0.0000 O   0  0  0  0  0  0  0  0  0  0  0  0
    5.0454   -6.5494    0.0000 O   0  0  0  0  0  0  0  0  0  0  0  0
    5.0424   -6.9765    0.0000 O   0  0  0  0  0  0  0  0  0  0  0  0
    4.5174   -9.1926    0.0000 C   0  0  0  0  0  0  0  0  0  0  0  0
    4.7365   -8.3973    0.0000 O   0  0  0  0  0  0  0  0  0  0  0  0
    6.4742  -10.1596    0.0000 C   0  0  0  0  0  0  0  0  0  0  0  0
    5.8950   -9.5722    0.0000 O   0  0  0  0  0  0  0  0  0  0  0  0
    5.7540   -7.3940    0.0000 C   0  0  0  0  0  0  0  0  0  0  0  0
    5.5349   -8.1893    0.0000 C   0  0  0  0  0  0  0  0  0  0  0  0
    6.1141   -8.7768    0.0000 C   0  0  0  0  0  0  0  0  0  0  0  0
    6.9125   -8.5689    0.0000 C   0  0  0  0  0  0  0  0  0  0  0  0
    6.9377   -4.9835    0.0000 C   0  0  0  0  0  0  0  0  0  0  0  0
    6.1423   -4.7643    0.0000 C   0  0  0  0  0  0  0  0  0  0  0  0
    5.5549   -5.3436    0.0000 C   0  0  0  0  0  0  0  0  0  0  0  0
    5.7628   -6.1420    0.0000 C   0  0  0  0  0  0  0  0  0  0  0  0
    8.5440   -7.2001    0.0000 C   0  0  1  0  0  0  0  0  0  0  0  0
    8.5498   -6.3751    0.0000 C   0  0  2  0  0  0  0  0  0  0  0  0
    7.9706   -5.7876    0.0000 C   0  0  0  0  0  0  0  0  0  0  0  0
    7.1456   -5.7818    0.0000 C   0  0  0  0  0  0  0  0  0  0  0  0
    6.5581   -6.3611    0.0000 C   0  0  0  0  0  0  0  0  0  0  0  0
    6.5523   -7.1861    0.0000 C   0  0  0  0  0  0  0  0  0  0  0  0
    7.1316   -7.7735    0.0000 C   0  0  0  0  0  0  0  0  0  0  0  0
    7.9566   -7.7793    0.0000 C   0  0  0  0  0  0  0  0  0  0  0  0
    4.3251   -7.3839    0.0000 C   0  0  0  0  0  0  0  0  0  0  0  0
 21  1  1  6  0  0  0
 20  2  1  6  0  0  0
  3 17  1  0  0  0  0
  4  3  1  0  0  0  0
  5  4  1  0  0  0  0
 18  5  1  0  0  0  0
 19  6  1  0  0  0  0
 12  7  1  0  0  0  0
  9  8  1  0  0  0  0
 13  9  1  0  0  0  0
 11 10  1  0  0  0  0
 14 11  1  0  0  0  0
 12 25  1  0  0  0  0
 13 12  2  0  0  0  0
 14 13  1  0  0  0  0
 15 14  2  0  0  0  0
 26 15  1  0  0  0  0
 16 23  1  0  0  0  0
 17 16  2  0  0  0  0
 18 17  1  0  0  0  0
 19 18  2  0  0  0  0
 24 19  1  0  0  0  0
 20 27  1  0  0  0  0
 21 20  1  0  0  0  0
 22 21  1  0  0  0  0
 23 22  1  0  0  0  0
 24 23  2  0  0  0  0
 25 24  1  0  0  0  0
 26 25  2  0  0  0  0
 27 26  1  0  0  0  0
  7 28  1  0  0  0  0
M  END
>  <cdx:fragmentId>
5

$$$$
