72819.cdx
  Mrv1902 05222410212D          

 18 20  0  0  0  0            999 V2000
    7.2501   -6.9607    0.0000 N   0  0  0  0  0  0  0  0  0  0  0  0
    7.9646   -6.5482    0.0000 C   0  0  0  0  0  0  0  0  0  0  0  0
    7.9646   -5.7232    0.0000 C   0  0  0  0  0  0  0  0  0  0  0  0
    7.2501   -5.3107    0.0000 C   0  0  0  0  0  0  0  0  0  0  0  0
    6.5356   -5.7232    0.0000 C   0  0  0  0  0  0  0  0  0  0  0  0
    5.8212   -5.3107    0.0000 C   0  0  0  0  0  0  0  0  0  0  0  0
    5.1067   -5.7232    0.0000 C   0  0  0  0  0  0  0  0  0  0  0  0
    5.1067   -6.5482    0.0000 C   0  0  0  0  0  0  0  0  0  0  0  0
    5.8212   -6.9607    0.0000 C   0  0  0  0  0  0  0  0  0  0  0  0
    6.5356   -6.5482    0.0000 C   0  0  0  0  0  0  0  0  0  0  0  0
    8.6791   -5.3107    0.0000 C   0  0  0  0  0  0  0  0  0  0  0  0
    8.6791   -4.4857    0.0000 C   0  0  0  0  0  0  0  0  0  0  0  0
    7.9646   -4.0732    0.0000 C   0  0  0  0  0  0  0  0  0  0  0  0
    7.2501   -4.4857    0.0000 O   0  0  0  0  0  0  0  0  0  0  0  0
    8.6791   -6.9607    0.0000 O   0  0  0  0  0  0  0  0  0  0  0  0
    7.2501   -7.7857    0.0000 C   0  0  0  0  0  0  0  0  0  0  0  0
    7.5521   -3.3587    0.0000 C   0  0  0  0  0  0  0  0  0  0  0  0
    8.3771   -3.3587    0.0000 C   0  0  0  0  0  0  0  0  0  0  0  0
  1  2  1  0  0  0  0
  2  3  1  0  0  0  0
  3  4  2  0  0  0  0
  4  5  1  0  0  0  0
  5  6  1  0  0  0  0
  6  7  2  0  0  0  0
  7  8  1  0  0  0  0
  8  9  2  0  0  0  0
  9 10  1  0  0  0  0
  1 10  1  0  0  0  0
  5 10  2  0  0  0  0
 11 12  2  0  0  0  0
 12 13  1  0  0  0  0
 13 14  1  0  0  0  0
 11  3  1  0  0  0  0
 14  4  1  0  0  0  0
  2 15  2  0  0  0  0
  1 16  1  0  0  0  0
 13 17  1  0  0  0  0
 13 18  1  0  0  0  0
M  END
>  <cdx:fragmentId>
5

$$$$
