7284.cdx
  Mrv1902 05222410222D          

  6  5  0  0  0  0            999 V2000
    7.7400   -4.1514    0.0000 C   0  0  0  0  0  0  0  0  0  0  0  0
    7.0256   -3.7389    0.0000 C   0  0  0  0  0  0  0  0  0  0  0  0
    6.3111   -4.1514    0.0000 C   0  0  0  0  0  0  0  0  0  0  0  0
    5.5966   -3.7389    0.0000 C   0  0  0  0  0  0  0  0  0  0  0  0
    8.4545   -3.7389    0.0000 O   0  0  0  0  0  0  0  0  0  0  0  0
    7.0256   -2.9139    0.0000 C   0  0  0  0  0  0  0  0  0  0  0  0
  1  2  1  0  0  0  0
  2  3  1  0  0  0  0
  3  4  1  0  0  0  0
  1  5  2  0  0  0  0
  2  6  1  0  0  0  0
M  END
>  <cdx:fragmentId>
5

$$$$
