7288.cdx
  Mrv1902 05222410242D          

  6  5  0  0  0  0            999 V2000
    8.7879   -4.6713    0.0000 C   0  0  0  0  0  0  0  0  0  0  0  0
    8.0735   -4.2588    0.0000 C   0  0  0  0  0  0  0  0  0  0  0  0
    7.3590   -4.6713    0.0000 C   0  0  0  0  0  0  0  0  0  0  0  0
    6.6445   -4.2588    0.0000 C   0  0  0  0  0  0  0  0  0  0  0  0
    5.9301   -4.6713    0.0000 C   0  0  0  0  0  0  0  0  0  0  0  0
    7.3590   -5.4963    0.0000 O   0  0  0  0  0  0  0  0  0  0  0  0
  1  2  1  0  0  0  0
  2  3  1  0  0  0  0
  3  4  1  0  0  0  0
  4  5  1  0  0  0  0
  3  6  2  0  0  0  0
M  END
>  <cdx:fragmentId>
5

$$$$
