7289.cdx
  Mrv1902 05222410242D          

 21 24  0  0  0  0            999 V2000
    8.7538   -3.4878    0.0000 C   0  0  0  0  0  0  0  0  0  0  0  0
    9.5608   -3.3163    0.0000 C   0  0  0  0  0  0  0  0  0  0  0  0
   10.1128   -3.9294    0.0000 C   0  0  0  0  0  0  0  0  0  0  0  0
    9.8579   -4.7140    0.0000 C   0  0  0  0  0  0  0  0  0  0  0  0
    9.0509   -4.8855    0.0000 C   0  0  0  0  0  0  0  0  0  0  0  0
    8.7960   -5.6701    0.0000 O   0  0  0  0  0  0  0  0  0  0  0  0
    7.9890   -5.8417    0.0000 C   0  0  0  0  0  0  0  0  0  0  0  0
    7.7341   -6.6263    0.0000 O   0  0  0  0  0  0  0  0  0  0  0  0
    7.4370   -5.2286    0.0000 C   0  0  0  0  0  0  0  0  0  0  0  0
    6.6120   -5.2286    0.0000 C   0  0  0  0  0  0  0  0  0  0  0  0
    6.0599   -5.8417    0.0000 C   0  0  0  0  0  0  0  0  0  0  0  0
    5.2530   -5.6701    0.0000 C   0  0  0  0  0  0  0  0  0  0  0  0
    4.9980   -4.8855    0.0000 C   0  0  0  0  0  0  0  0  0  0  0  0
    5.5501   -4.2724    0.0000 C   0  0  0  0  0  0  0  0  0  0  0  0
    6.3570   -4.4439    0.0000 C   0  0  0  0  0  0  0  0  0  0  0  0
    7.0245   -3.9590    0.0000 O   0  0  0  0  0  0  0  0  0  0  0  0
    7.6919   -4.4439    0.0000 C   0  0  0  0  0  0  0  0  0  0  0  0
    8.4989   -4.2724    0.0000 C   0  0  0  0  0  0  0  0  0  0  0  0
    4.1911   -4.7140    0.0000 O   0  0  0  0  0  0  0  0  0  0  0  0
    3.6077   -5.2974    0.0000 C   0  0  0  0  0  0  0  0  0  0  0  0
   10.9198   -3.7578    0.0000 O   0  0  0  0  0  0  0  0  0  0  0  0
  1  2  1  0  0  0  0
  2  3  2  0  0  0  0
  3  4  1  0  0  0  0
  4  5  2  0  0  0  0
  5  6  1  0  0  0  0
  6  7  1  0  0  0  0
  7  8  2  0  0  0  0
  7  9  1  0  0  0  0
  9 10  1  0  0  0  0
 10 11  1  0  0  0  0
 11 12  2  0  0  0  0
 12 13  1  0  0  0  0
 13 14  2  0  0  0  0
 14 15  1  0  0  0  0
 10 15  2  0  0  0  0
 15 16  1  0  0  0  0
 16 17  1  0  0  0  0
  9 17  2  0  0  0  0
 17 18  1  0  0  0  0
  5 18  1  0  0  0  0
  1 18  2  0  0  0  0
 19 20  1  0  0  0  0
 13 19  1  0  0  0  0
  3 21  1  0  0  0  0
M  END
>  <cdx:fragmentId>
14377

$$$$
