729081.cdx
  Mrv1902 05222410282D          

 40 42  0  0  0  0            999 V2000
   10.6115   -8.0580    0.0000 C   0  0  0  0  0  0  0  0  0  0  0  0
   11.3273   -7.6480    0.0000 C   0  0  0  0  0  0  0  0  0  0  0  0
    5.6018  -10.9310    0.0000 O   0  0  0  0  0  0  0  0  0  0  0  0
    5.6074   -8.4560    0.0000 O   0  0  0  0  0  0  0  0  0  0  0  0
    7.7452  -10.5233    0.0000 C   0  0  0  0  0  0  0  0  0  0  0  0
    8.4611  -10.1132    0.0000 C   0  0  0  0  0  0  0  0  0  0  0  0
    4.9013   -6.3886    0.0000 C   0  0  0  0  0  0  0  0  0  0  0  0
    8.4639   -9.2883    0.0000 C   0  0  0  0  0  0  0  0  0  0  0  0
    9.1741  -10.5282    0.0000 C   0  0  0  0  0  0  0  0  0  0  0  0
    4.8845  -11.3386    0.0000 C   0  0  0  0  0  0  0  0  0  0  0  0
    5.5976  -11.7535    0.0000 C   0  0  0  0  0  0  0  0  0  0  0  0
    6.3135  -11.3435    0.0000 N   0  0  0  0  0  0  0  0  0  0  0  0
    6.3163  -10.5185    0.0000 C   0  0  0  0  0  0  0  0  0  0  0  0
    7.0321  -10.1084    0.0000 C   0  0  0  0  0  0  0  0  0  0  0  0
    4.1771   -9.2737    0.0000 C   0  0  0  0  0  0  0  0  0  0  0  0
    4.1743  -10.0987    0.0000 C   0  0  0  0  0  0  0  0  0  0  0  0
    4.8873  -10.5136    0.0000 C   0  0  0  0  0  0  0  0  0  0  0  0
    5.6032  -10.1036    0.0000 C   0  0  0  0  0  0  0  0  0  0  0  0
    6.3303   -6.3935    0.0000 C   0  0  0  0  0  0  0  0  0  0  0  0
    5.6144   -6.8036    0.0000 C   0  0  0  0  0  0  0  0  0  0  0  0
    5.6116   -7.6286    0.0000 C   0  0  0  0  0  0  0  0  0  0  0  0
    4.8957   -8.0386    0.0000 O   0  0  0  0  0  0  0  0  0  0  0  0
    4.8929   -8.8636    0.0000 C   0  0  0  0  0  0  0  0  0  0  0  0
    5.6060   -9.2786    0.0000 C   0  0  0  0  0  0  0  0  0  0  0  0
    6.3247   -8.0435    0.0000 C   0  0  0  0  0  0  0  0  0  0  0  0
    6.3219   -8.8685    0.0000 C   0  0  0  0  0  0  0  0  0  0  0  0
    7.0349   -9.2834    0.0000 N   0  0  0  0  0  0  0  0  0  0  0  0
    7.7508   -8.8733    0.0000 O   0  0  0  0  0  0  0  0  0  0  0  0
    7.0405   -7.6334    0.0000 N   0  0  0  0  0  0  0  0  0  0  0  0
    7.7536   -8.0483    0.0000 C   0  0  0  0  0  0  0  0  0  0  0  0
   11.3301   -6.8230    0.0000 C   0  0  0  0  0  0  0  0  0  0  0  0
   10.6171   -6.4080    0.0000 C   0  0  0  0  0  0  0  0  0  0  0  0
    9.9012   -6.8181    0.0000 C   0  0  0  0  0  0  0  0  0  0  0  0
    9.8984   -7.6431    0.0000 C   0  0  0  0  0  0  0  0  0  0  0  0
    8.4723   -6.8133    0.0000 N   0  0  0  0  0  0  0  0  0  0  0  0
    8.4695   -7.6383    0.0000 C   0  0  0  0  0  0  0  0  0  0  0  0
    9.1825   -8.0532    0.0000 C   0  0  0  0  0  0  0  0  0  0  0  0
    7.7592   -6.3983    0.0000 C   0  0  0  0  0  0  0  0  0  0  0  0
    9.1881   -6.4032    0.0000 C   0  0  0  0  0  0  0  0  0  0  0  0
    7.7424  -11.3483    0.0000 O   0  0  0  0  0  0  0  0  0  0  0  0
 13  3  2  0  0  0  0
 26  4  2  0  0  0  0
 20  7  1  0  0  0  0
  5  6  1  0  0  0  0
 14  5  1  0  0  0  0
  6  8  1  0  0  0  0
  6  9  1  0  0  0  0
 10 17  1  0  0  0  0
 11 10  2  0  0  0  0
 12 11  1  0  0  0  0
 13 12  1  0  0  0  0
 14 13  1  0  0  0  0
 27 14  1  0  0  0  0
 15 23  1  0  0  0  0
 16 15  2  0  0  0  0
 17 16  1  0  0  0  0
 18 17  2  0  0  0  0
 24 18  1  0  0  0  0
 20 19  1  0  0  0  0
 21 20  1  0  0  0  0
 21 25  1  0  0  0  0
 22 21  1  0  0  0  0
 23 22  1  0  0  0  0
 24 23  2  0  0  0  0
 25 29  1  0  0  0  0
 26 25  1  0  0  0  0
 27 26  1  0  0  0  0
 30 28  2  0  0  0  0
 30 29  1  0  0  0  0
 36 30  1  0  0  0  0
  1  2  2  0  0  0  0
  2 31  1  0  0  0  0
 31 32  2  0  0  0  0
 32 33  1  0  0  0  0
 33 34  2  0  0  0  0
 34  1  1  0  0  0  0
 35 36  1  0  0  0  0
 36 37  1  0  0  0  0
 37 34  1  0  0  0  0
 35 38  1  0  0  0  0
 35 39  1  0  0  0  0
  5 40  1  0  0  0  0
M  END
>  <cdx:fragmentId>
5

$$$$
