729078.cdx
  Mrv1902 05222410272D          

 36 38  0  0  0  0            999 V2000
    4.6129   -7.3599    0.0000 O   0  0  0  0  0  0  0  0  0  0  0  0
    5.3196   -7.7861    0.0000 O   0  0  0  0  0  0  0  0  0  0  0  0
    5.3107  -10.2172    0.0000 O   0  0  0  0  0  0  0  0  0  0  0  0
    7.9941   -7.6619    0.0000 O   0  0  0  0  0  0  0  0  0  0  0  0
    6.7565   -8.5975    0.0000 N   0  0  0  0  0  0  0  0  0  0  0  0
    6.7565   -6.9473    0.0000 N   0  0  0  0  0  0  0  0  0  0  0  0
    6.0420  -10.6602    0.0000 N   0  0  0  0  0  0  0  0  0  0  0  0
    5.3274   -6.9473    0.0000 C   0  0  0  0  0  0  0  0  0  0  0  0
    6.0420   -7.3599    0.0000 C   0  0  0  0  0  0  0  0  0  0  0  0
    5.3274   -6.1222    0.0000 C   0  0  0  0  0  0  0  0  0  0  0  0
    6.7565   -9.4225    0.0000 C   0  0  0  0  0  0  0  0  0  0  0  0
    7.4710   -9.8351    0.0000 C   0  0  0  0  0  0  0  0  0  0  0  0
    8.1856   -9.4225    0.0000 C   0  0  0  0  0  0  0  0  0  0  0  0
    6.0420   -8.1850    0.0000 C   0  0  0  0  0  0  0  0  0  0  0  0
    4.6129   -5.7097    0.0000 C   0  0  0  0  0  0  0  0  0  0  0  0
    6.0420   -5.7097    0.0000 C   0  0  0  0  0  0  0  0  0  0  0  0
    6.0420   -9.8351    0.0000 C   0  0  0  0  0  0  0  0  0  0  0  0
    8.9002   -9.8351    0.0000 C   0  0  0  0  0  0  0  0  0  0  0  0
    8.1856   -8.5974    0.0000 C   0  0  0  0  0  0  0  0  0  0  0  0
    4.6129   -8.1850    0.0000 C   0  0  0  0  0  0  0  0  0  0  0  0
    7.5816   -6.9473    0.0000 C   0  0  0  0  0  0  0  0  0  0  0  0
    3.8983   -8.5975    0.0000 C   0  0  0  0  0  0  0  0  0  0  0  0
    5.3274   -8.5975    0.0000 C   0  0  0  0  0  0  0  0  0  0  0  0
    4.6129   -9.8351    0.0000 C   0  0  0  0  0  0  0  0  0  0  0  0
    5.3274  -11.0727    0.0000 C   0  0  0  0  0  0  0  0  0  0  0  0
    3.8983   -9.4225    0.0000 C   0  0  0  0  0  0  0  0  0  0  0  0
    5.3274   -9.4225    0.0000 C   0  0  0  0  0  0  0  0  0  0  0  0
    7.9941   -6.2328    0.0000 C   0  0  0  0  0  0  0  0  0  0  0  0
    4.6129  -10.6602    0.0000 C   0  0  0  0  0  0  0  0  0  0  0  0
    8.8192   -6.2328    0.0000 C   0  0  0  0  0  0  0  0  0  0  0  0
    9.2318   -5.5182    0.0000 C   0  0  0  0  0  0  0  0  0  0  0  0
   10.0568   -5.5182    0.0000 C   0  0  0  0  0  0  0  0  0  0  0  0
    8.8192   -4.8037    0.0000 C   0  0  0  0  0  0  0  0  0  0  0  0
   10.4694   -4.8037    0.0000 C   0  0  0  0  0  0  0  0  0  0  0  0
    9.2318   -4.0892    0.0000 C   0  0  0  0  0  0  0  0  0  0  0  0
   10.0568   -4.0892    0.0000 C   0  0  0  0  0  0  0  0  0  0  0  0
  1  8  1  0  0  0  0
  1 20  1  0  0  0  0
  2 14  2  0  0  0  0
  3 17  2  0  0  0  0
  4 21  2  0  0  0  0
  5 11  1  0  0  0  0
  5 14  1  0  0  0  0
  6  9  1  0  0  0  0
  6 21  1  0  0  0  0
  7 17  1  0  0  0  0
  7 25  1  0  0  0  0
  8  9  1  0  0  0  0
  8 10  1  0  0  0  0
  9 14  1  0  0  0  0
 10 15  1  0  0  0  0
 10 16  1  0  0  0  0
 11 12  1  0  0  0  0
 11 17  1  0  0  0  0
 12 13  1  0  0  0  0
 13 18  1  0  0  0  0
 13 19  1  0  0  0  0
 20 22  2  0  0  0  0
 20 23  1  0  0  0  0
 21 28  1  0  0  0  0
 22 26  1  0  0  0  0
 23 27  2  0  0  0  0
 24 26  2  0  0  0  0
 24 27  1  0  0  0  0
 24 29  1  0  0  0  0
 25 29  2  0  0  0  0
 28 30  2  0  0  0  0
 30 31  1  0  0  0  0
 31 32  2  0  0  0  0
 31 33  1  0  0  0  0
 32 34  1  0  0  0  0
 33 35  2  0  0  0  0
 34 36  2  0  0  0  0
 35 36  1  0  0  0  0
M  END
>  <cdx:fragmentId>
1

$$$$
