729927.cdx
  Mrv1902 05222410182D          

 27 30  0  0  0  0            999 V2000
    6.3059  -10.7876    0.0000 O   0  0  0  0  0  0  0  0  0  0  0  0
    5.5914  -11.2001    0.0000 C   0  0  1  0  0  0  0  0  0  0  0  0
    5.5914  -12.0251    0.0000 C   0  0  2  0  0  0  0  0  0  0  0  0
    6.3059  -12.4376    0.0000 C   0  0  1  0  0  0  0  0  0  0  0  0
    7.0204  -12.0251    0.0000 C   0  0  2  0  0  0  0  0  0  0  0  0
    7.0204  -11.2001    0.0000 C   0  0  2  0  0  0  0  0  0  0  0  0
    4.8770  -12.4376    0.0000 O   0  0  0  0  0  0  0  0  0  0  0  0
    6.3059  -13.2626    0.0000 O   0  0  0  0  0  0  0  0  0  0  0  0
    7.7348  -12.4376    0.0000 O   0  0  0  0  0  0  0  0  0  0  0  0
    7.7348  -10.7876    0.0000 O   0  0  0  0  0  0  0  0  0  0  0  0
    8.4493   -9.5501    0.0000 C   0  0  2  0  0  0  0  0  0  0  0  0
    9.2339   -9.8051    0.0000 C   0  0  1  0  0  0  0  0  0  0  0  0
   10.0544   -9.8913    0.0000 O   0  0  0  0  0  0  0  0  0  0  0  0
    9.7189   -9.1376    0.0000 C   0  0  1  0  0  0  0  0  0  0  0  0
    9.2339   -8.4702    0.0000 C   0  0  0  0  0  0  0  0  0  0  0  0
    8.4493   -8.7251    0.0000 C   0  0  2  0  0  0  0  0  0  0  0  0
    7.7348   -8.3126    0.0000 C   0  0  0  0  0  0  0  0  0  0  0  0
    7.0204   -8.7251    0.0000 C   0  0  0  0  0  0  0  0  0  0  0  0
    7.0204   -9.5501    0.0000 O   0  0  0  0  0  0  0  0  0  0  0  0
    7.7348   -9.9626    0.0000 C   0  0  1  0  0  0  0  0  0  0  0  0
    9.0624  -10.6121    0.0000 C   0  0  0  0  0  0  0  0  0  0  0  0
    9.6458  -11.1954    0.0000 O   0  0  0  0  0  0  0  0  0  0  0  0
    4.8770  -10.7876    0.0000 C   0  0  0  0  0  0  0  0  0  0  0  0
    4.1625  -11.2001    0.0000 O   0  0  0  0  0  0  0  0  0  0  0  0
    8.4493  -10.3751    0.0000 H   0  0  0  0  0  0  0  0  0  0  0  0
   10.4333   -8.7251    0.0000 H   0  0  0  0  0  0  0  0  0  0  0  0
    8.5356   -7.9047    0.0000 H   0  0  0  0  0  0  0  0  0  0  0  0
  1  2  1  0  0  0  0
  2  3  1  0  0  0  0
  3  4  1  0  0  0  0
  4  5  1  0  0  0  0
  5  6  1  0  0  0  0
  1  6  1  0  0  0  0
  3  7  1  6  0  0  0
  4  8  1  1  0  0  0
  5  9  1  6  0  0  0
 11 12  1  0  0  0  0
 12 13  1  0  0  0  0
 13 14  1  0  0  0  0
 14 15  1  0  0  0  0
 15 16  1  0  0  0  0
 16 17  1  0  0  0  0
 17 18  2  0  0  0  0
 18 19  1  0  0  0  0
 19 20  1  0  0  0  0
 11 20  1  0  0  0  0
 11 16  1  0  0  0  0
 12 14  1  0  0  0  0
 21 22  1  0  0  0  0
 12 21  1  1  0  0  0
 20 10  1  6  0  0  0
  6 10  1  1  0  0  0
 23 24  1  0  0  0  0
  2 23  1  1  0  0  0
 11 25  1  6  0  0  0
 14 26  1  1  0  0  0
 16 27  1  6  0  0  0
M  END
>  <cdx:fragmentId>
3937

$$$$
