730038.cdx
  Mrv1902 05222410232D          

 16 17  0  0  0  0            999 V2000
    9.2886   -8.7092    0.0000 C   0  0  0  0  0  0  0  0  0  0  0  0
   10.0031   -5.8217    0.0000 C   0  0  0  0  0  0  0  0  0  0  0  0
    9.2886   -7.0592    0.0000 C   0  0  0  0  0  0  0  0  0  0  0  0
   10.0031   -6.6467    0.0000 C   0  0  0  0  0  0  0  0  0  0  0  0
   10.7176   -7.0592    0.0000 C   0  0  0  0  0  0  0  0  0  0  0  0
   10.7176   -7.8842    0.0000 C   0  0  0  0  0  0  0  0  0  0  0  0
   10.0031   -8.2967    0.0000 C   0  0  0  0  0  0  0  0  0  0  0  0
    9.2886   -7.8842    0.0000 C   0  0  1  0  0  0  0  0  0  0  0  0
    8.5741   -8.2967    0.0000 C   0  0  0  0  0  0  0  0  0  0  0  0
    7.8597   -7.8842    0.0000 C   0  0  0  0  0  0  0  0  0  0  0  0
    7.8597   -7.0592    0.0000 C   0  0  2  0  0  0  0  0  0  0  0  0
    8.5741   -6.6467    0.0000 C   0  0  0  0  0  0  0  0  0  0  0  0
    5.7163   -6.6467    0.0000 O   0  0  0  0  0  0  0  0  0  0  0  0
    7.1452   -5.8217    0.0000 C   0  0  0  0  0  0  0  0  0  0  0  0
    7.1452   -6.6467    0.0000 C   0  0  0  0  0  0  0  0  0  0  0  0
    6.4307   -7.0592    0.0000 C   0  0  0  0  0  0  0  0  0  0  0  0
 11 15  1  1  0  0  0
  8  1  1  1  0  0  0
  4  2  1  0  0  0  0
  8  3  1  0  0  0  0
 12  3  1  0  0  0  0
  4  3  2  0  0  0  0
  5  4  1  0  0  0  0
  6  5  1  0  0  0  0
  7  6  1  0  0  0  0
  8  7  1  0  0  0  0
  9  8  1  0  0  0  0
 10  9  1  0  0  0  0
 11 10  1  0  0  0  0
 12 11  1  0  0  0  0
 16 13  1  0  0  0  0
 15 14  2  0  0  0  0
 16 15  1  0  0  0  0
M  END
>  <cdx:fragmentId>
216160

$$$$
