730071.cdx
  Mrv1902 05222410272D          

 23 26  0  0  0  0            999 V2000
    9.0652   -9.0491    0.0000 O   0  0  0  0  0  0  0  0  0  0  0  0
    9.5501   -8.3817    0.0000 C   0  0  0  0  0  0  0  0  0  0  0  0
    9.0652   -7.7143    0.0000 C   0  0  0  0  0  0  0  0  0  0  0  0
    8.2805   -7.9692    0.0000 C   0  0  0  0  0  0  0  0  0  0  0  0
    7.5661   -7.5567    0.0000 C   0  0  0  0  0  0  0  0  0  0  0  0
    6.8516   -7.9692    0.0000 C   0  0  0  0  0  0  0  0  0  0  0  0
    6.8516   -8.7942    0.0000 C   0  0  0  0  0  0  0  0  0  0  0  0
    7.5661   -9.2067    0.0000 C   0  0  0  0  0  0  0  0  0  0  0  0
    8.2805   -8.7942    0.0000 C   0  0  0  0  0  0  0  0  0  0  0  0
    7.5661  -10.0317    0.0000 C   0  0  0  0  0  0  0  0  0  0  0  0
    6.8516  -10.4442    0.0000 C   0  0  0  0  0  0  0  0  0  0  0  0
    6.1371  -10.0317    0.0000 C   0  0  0  0  0  0  0  0  0  0  0  0
    5.4226  -10.4442    0.0000 C   0  0  1  0  0  0  0  0  0  0  0  0
    4.7082  -10.0317    0.0000 C   0  0  0  0  0  0  0  0  0  0  0  0
    4.7082   -9.2067    0.0000 C   0  0  0  0  0  0  0  0  0  0  0  0
    5.4226   -8.7942    0.0000 C   0  0  0  0  0  0  0  0  0  0  0  0
    6.1371   -9.2067    0.0000 C   0  0  0  0  0  0  0  0  0  0  0  0
    6.1371   -7.5567    0.0000 O   0  0  0  0  0  0  0  0  0  0  0  0
    7.5661   -6.7317    0.0000 O   0  0  0  0  0  0  0  0  0  0  0  0
    9.3201   -6.9296    0.0000 C   0  0  0  0  0  0  0  0  0  0  0  0
    5.8351  -11.1587    0.0000 C   0  0  0  0  0  0  0  0  0  0  0  0
    5.4226  -11.8731    0.0000 O   0  0  0  0  0  0  0  0  0  0  0  0
    5.0101  -11.1587    0.0000 O   0  0  0  0  0  0  0  0  0  0  0  0
  1  2  1  0  0  0  0
  2  3  2  0  0  0  0
  3  4  1  0  0  0  0
  4  5  1  0  0  0  0
  5  6  1  0  0  0  0
  6  7  1  0  0  0  0
  7  8  1  0  0  0  0
  8  9  1  0  0  0  0
  4  9  2  0  0  0  0
  1  9  1  0  0  0  0
 10 11  1  0  0  0  0
 11 12  2  0  0  0  0
 12 13  1  0  0  0  0
 13 14  1  0  0  0  0
 14 15  1  0  0  0  0
 15 16  1  0  0  0  0
 16 17  1  0  0  0  0
 12 17  1  0  0  0  0
 17  7  2  0  0  0  0
 10  8  2  0  0  0  0
  6 18  2  0  0  0  0
  5 19  2  0  0  0  0
  3 20  1  0  0  0  0
 21 22  1  0  0  0  0
 13 21  1  6  0  0  0
 13 23  1  1  0  0  0
M  END
>  <cdx:fragmentId>
123343

$$$$
