7301.cdx
  Mrv1902 05222410232D          

 15 15  0  0  0  0            999 V2000
    2.6724   -7.4381    0.0000 C   0  0  0  0  0  0  0  0  0  0  0  0
    2.9300   -8.2218    0.0000 C   0  0  0  0  0  0  0  0  0  0  0  0
    3.7550   -8.2190    0.0000 C   0  0  0  0  0  0  0  0  0  0  0  0
    4.0073   -7.4336    0.0000 C   0  0  0  0  0  0  0  0  0  0  0  0
    3.3382   -6.9509    0.0000 O   0  0  0  0  0  0  0  0  0  0  0  0
    4.8042   -7.2200    0.0000 C   0  0  0  0  0  0  0  0  0  0  0  0
    5.3875   -7.8034    0.0000 C   0  0  0  0  0  0  0  0  0  0  0  0
    6.1844   -7.5899    0.0000 C   0  0  0  0  0  0  0  0  0  0  0  0
    6.9813   -7.3764    0.0000 C   0  0  0  0  0  0  0  0  0  0  0  0
    7.7782   -7.1628    0.0000 C   0  0  0  0  0  0  0  0  0  0  0  0
    8.5751   -6.9493    0.0000 C   0  0  0  0  0  0  0  0  0  0  0  0
    9.3720   -6.7358    0.0000 C   0  0  0  0  0  0  0  0  0  0  0  0
    9.9553   -7.3191    0.0000 C   0  0  0  0  0  0  0  0  0  0  0  0
   10.7522   -7.1056    0.0000 O   0  0  0  0  0  0  0  0  0  0  0  0
   11.3356   -7.6890    0.0000 C   0  0  0  0  0  0  0  0  0  0  0  0
  1  2  2  0  0  0  0
  2  3  1  0  0  0  0
  3  4  2  0  0  0  0
  4  5  1  0  0  0  0
  5  1  1  0  0  0  0
  4  6  1  0  0  0  0
  6  7  2  0  0  0  0
  7  8  1  0  0  0  0
  8  9  3  0  0  0  0
  9 10  1  0  0  0  0
 10 11  3  0  0  0  0
 11 12  1  0  0  0  0
 12 13  2  0  0  0  0
 13 14  1  0  0  0  0
 14 15  1  0  0  0  0
M  END
>  <cdx:fragmentId>
5

$$$$
