7302.cdx
  Mrv1902 05222410242D          

  6  6  0  0  0  0            999 V2000
    4.8586   -3.4429    0.0000 O   0  0  0  0  0  0  0  0  0  0  0  0
    5.5261   -3.9278    0.0000 C   0  0  0  0  0  0  0  0  0  0  0  0
    5.2711   -4.7124    0.0000 C   0  0  0  0  0  0  0  0  0  0  0  0
    4.4461   -4.7124    0.0000 C   0  0  0  0  0  0  0  0  0  0  0  0
    4.1912   -3.9278    0.0000 C   0  0  0  0  0  0  0  0  0  0  0  0
    6.3107   -3.6729    0.0000 O   0  0  0  0  0  0  0  0  0  0  0  0
  1  2  1  0  0  0  0
  2  3  1  0  0  0  0
  3  4  1  0  0  0  0
  4  5  1  0  0  0  0
  1  5  1  0  0  0  0
  2  6  2  0  0  0  0
M  END
>  <cdx:groupId>
20

>  <cdx:fragmentId>
5

$$$$
