730331.cdx
  Mrv1902 05222410182D          

 20 19  0  0  0  0            999 V2000
    6.2119   -6.7590    0.0000 Cl  0  0  0  0  0  0  0  0  0  0  0  0
    6.9264   -8.8215    0.0000 O   0  0  0  0  0  0  0  0  0  0  0  0
    7.6408   -6.7590    0.0000 O   0  0  0  0  0  0  0  0  0  0  0  0
    1.2106   -7.9965    0.0000 C   0  0  0  0  0  0  0  0  0  0  0  0
    1.9251   -7.5840    0.0000 C   0  0  0  0  0  0  0  0  0  0  0  0
    2.6395   -7.9965    0.0000 C   0  0  0  0  0  0  0  0  0  0  0  0
    3.3540   -7.5840    0.0000 C   0  0  0  0  0  0  0  0  0  0  0  0
    4.0685   -7.9965    0.0000 C   0  0  0  0  0  0  0  0  0  0  0  0
    4.7829   -7.5840    0.0000 C   0  0  0  0  0  0  0  0  0  0  0  0
    5.4974   -7.9965    0.0000 C   0  0  0  0  0  0  0  0  0  0  0  0
    6.2119   -7.5840    0.0000 C   0  0  0  0  0  0  0  0  0  0  0  0
    6.9264   -7.9965    0.0000 C   0  0  0  0  0  0  0  0  0  0  0  0
    7.6408   -7.5840    0.0000 C   0  0  0  0  0  0  0  0  0  0  0  0
    8.3553   -7.9965    0.0000 C   0  0  0  0  0  0  0  0  0  0  0  0
    9.0698   -8.4090    0.0000 C   0  0  0  0  0  0  0  0  0  0  0  0
    9.7842   -8.8215    0.0000 C   0  0  0  0  0  0  0  0  0  0  0  0
   10.4987   -9.2340    0.0000 C   0  0  0  0  0  0  0  0  0  0  0  0
   11.2132   -9.6465    0.0000 C   0  0  0  0  0  0  0  0  0  0  0  0
   11.9277   -9.2340    0.0000 C   0  0  0  0  0  0  0  0  0  0  0  0
   12.6421   -9.6465    0.0000 C   0  0  0  0  0  0  0  0  0  0  0  0
 11  1  1  0  0  0  0
 12  2  1  0  0  0  0
 13  3  1  0  0  0  0
  5  4  2  0  0  0  0
  6  5  1  0  0  0  0
  7  6  1  0  0  0  0
  8  7  1  0  0  0  0
  9  8  1  0  0  0  0
 10  9  1  0  0  0  0
 11 10  1  0  0  0  0
 12 11  1  0  0  0  0
 13 12  1  0  0  0  0
 14 13  1  0  0  0  0
 15 14  3  0  0  0  0
 16 15  1  0  0  0  0
 17 16  3  0  0  0  0
 18 17  1  0  0  0  0
 19 18  1  0  0  0  0
 20 19  1  0  0  0  0
M  END
>  <cdx:fragmentId>
116199

$$$$
