15730329.cdx
  Mrv1902 05222410282D          

 23 22  0  0  0  0            999 V2000
    5.8393  -13.6590    0.0000 C   0  0  0  0  0  0  0  0  0  0  0  0
    5.1248  -14.0715    0.0000 C   0  0  0  0  0  0  0  0  0  0  0  0
    5.8393  -12.8340    0.0000 O   0  0  0  0  0  0  0  0  0  0  0  0
    6.5538  -14.0715    0.0000 O   0  0  0  0  0  0  0  0  0  0  0  0
    1.5525  -15.3090    0.0000 C   0  0  0  0  0  0  0  0  0  0  0  0
    2.2670  -14.8965    0.0000 C   0  0  0  0  0  0  0  0  0  0  0  0
    2.9814  -15.3090    0.0000 C   0  0  0  0  0  0  0  0  0  0  0  0
    3.6959  -14.8965    0.0000 C   0  0  0  0  0  0  0  0  0  0  0  0
    4.4104  -15.3090    0.0000 C   0  0  0  0  0  0  0  0  0  0  0  0
    5.1248  -14.8965    0.0000 C   0  0  0  0  0  0  0  0  0  0  0  0
    5.8393  -15.3090    0.0000 C   0  0  0  0  0  0  0  0  0  0  0  0
    6.5538  -14.8965    0.0000 C   0  0  0  0  0  0  0  0  0  0  0  0
    7.2682  -15.3090    0.0000 C   0  0  0  0  0  0  0  0  0  0  0  0
    7.9827  -14.8965    0.0000 C   0  0  0  0  0  0  0  0  0  0  0  0
    8.6972  -15.3090    0.0000 C   0  0  0  0  0  0  0  0  0  0  0  0
    9.4117  -15.7215    0.0000 C   0  0  0  0  0  0  0  0  0  0  0  0
   10.1261  -16.1340    0.0000 C   0  0  0  0  0  0  0  0  0  0  0  0
   10.8406  -16.5465    0.0000 C   0  0  0  0  0  0  0  0  0  0  0  0
   11.5551  -16.9590    0.0000 C   0  0  0  0  0  0  0  0  0  0  0  0
   12.2695  -16.5465    0.0000 C   0  0  0  0  0  0  0  0  0  0  0  0
   12.9840  -16.9590    0.0000 C   0  0  0  0  0  0  0  0  0  0  0  0
    7.9827  -14.0715    0.0000 O   0  0  0  0  0  0  0  0  0  0  0  0
    7.2682  -16.1340    0.0000 O   0  0  0  0  0  0  0  0  0  0  0  0
  1  2  1  0  0  0  0
  1  3  2  0  0  0  0
  1  4  1  0  0  0  0
  5  6  2  0  0  0  0
  6  7  1  0  0  0  0
  7  8  1  0  0  0  0
  8  9  1  0  0  0  0
  9 10  1  0  0  0  0
 10 11  1  0  0  0  0
 11 12  1  0  0  0  0
 12 13  1  0  0  0  0
 13 14  1  0  0  0  0
 14 15  1  0  0  0  0
 15 16  3  0  0  0  0
 16 17  1  0  0  0  0
 17 18  3  0  0  0  0
 18 19  1  0  0  0  0
 19 20  1  0  0  0  0
 20 21  1  0  0  0  0
 14 22  1  0  0  0  0
 13 23  1  0  0  0  0
  4 12  1  0  0  0  0
M  END
>  <cdx:groupId>
116192

>  <cdx:fragmentId>
116135

$$$$
