7304.cdx
  Mrv1902 05222410252D          

  6  6  0  0  0  0            999 V2000
    7.0155   -7.9507    0.0000 N   0  0  0  0  0  0  0  0  0  0  0  0
    7.6839   -8.4342    0.0000 C   0  0  0  0  0  0  0  0  0  0  0  0
    7.4307   -9.2194    0.0000 C   0  0  0  0  0  0  0  0  0  0  0  0
    6.6057   -9.2212    0.0000 C   0  0  0  0  0  0  0  0  0  0  0  0
    6.3491   -8.4371    0.0000 C   0  0  0  0  0  0  0  0  0  0  0  0
    7.0137   -7.1257    0.0000 C   0  0  0  0  0  0  0  0  0  0  0  0
  1  2  1  0  0  0  0
  2  3  2  0  0  0  0
  3  4  1  0  0  0  0
  4  5  2  0  0  0  0
  1  5  1  0  0  0  0
  1  6  1  0  0  0  0
M  END
>  <cdx:fragmentId>
5

$$$$
