73078.cdx
  Mrv1902 05222410212D          

 48 54  0  0  0  0            999 V2000
    5.2669  -10.0727    0.0000 C   0  0  2  0  0  0  0  0  0  0  0  0
    5.9814  -10.4852    0.0000 C   0  0  0  0  0  0  0  0  0  0  0  0
    6.6958  -10.0727    0.0000 C   0  0  0  0  0  0  0  0  0  0  0  0
    6.6972   -9.2477    0.0000 C   0  0  0  0  0  0  0  0  0  0  0  0
    7.4116   -8.8352    0.0000 C   0  0  0  0  0  0  0  0  0  0  0  0
    8.1248   -9.2477    0.0000 C   0  0  0  0  0  0  0  0  0  0  0  0
    8.8392   -8.8352    0.0000 O   0  0  0  0  0  0  0  0  0  0  0  0
    8.8392   -8.0102    0.0000 C   0  0  0  0  0  0  0  0  0  0  0  0
    9.5542   -7.5986    0.0000 C   0  0  0  0  0  0  0  0  0  0  0  0
    9.5540   -6.7736    0.0000 C   0  0  0  0  0  0  0  0  0  0  0  0
    8.8396   -6.3609    0.0000 C   0  0  0  0  0  0  0  0  0  0  0  0
    8.1248   -6.7727    0.0000 C   0  0  0  0  0  0  0  0  0  0  0  0
    7.4103   -6.3602    0.0000 C   0  0  0  0  0  0  0  0  0  0  0  0
    7.4103   -5.5352    0.0000 C   0  0  2  0  0  0  0  0  0  0  0  0
    8.1253   -5.1236    0.0000 N   0  0  0  0  0  0  0  0  0  0  0  0
    8.1250   -4.2986    0.0000 C   0  0  0  0  0  0  0  0  0  0  0  0
    7.4107   -3.8859    0.0000 C   0  0  0  0  0  0  0  0  0  0  0  0
    6.6958   -4.2977    0.0000 C   0  0  0  0  0  0  0  0  0  0  0  0
    5.9814   -3.8852    0.0000 C   0  0  0  0  0  0  0  0  0  0  0  0
    5.2669   -4.2977    0.0000 C   0  0  0  0  0  0  0  0  0  0  0  0
    5.2669   -5.1227    0.0000 C   0  0  0  0  0  0  0  0  0  0  0  0
    5.9814   -5.5352    0.0000 C   0  0  0  0  0  0  0  0  0  0  0  0
    6.6958   -7.5977    0.0000 O   0  0  0  0  0  0  0  0  0  0  0  0
    5.9814   -8.0102    0.0000 C   0  0  0  0  0  0  0  0  0  0  0  0
    5.2682   -7.5977    0.0000 C   0  0  0  0  0  0  0  0  0  0  0  0
    4.5537   -8.0102    0.0000 C   0  0  0  0  0  0  0  0  0  0  0  0
    4.5524   -8.8352    0.0000 C   0  0  0  0  0  0  0  0  0  0  0  0
    3.8379   -9.2477    0.0000 C   0  0  0  0  0  0  0  0  0  0  0  0
    3.8379  -10.0727    0.0000 C   0  0  0  0  0  0  0  0  0  0  0  0
    4.5524  -10.4852    0.0000 N   0  0  0  0  0  0  0  0  0  0  0  0
    5.2669   -9.2477    0.0000 C   0  0  0  0  0  0  0  0  0  0  0  0
    5.9814   -8.8352    0.0000 C   0  0  0  0  0  0  0  0  0  0  0  0
    6.6958   -5.1227    0.0000 C   0  0  0  0  0  0  0  0  0  0  0  0
    8.1248   -7.5977    0.0000 C   0  0  0  0  0  0  0  0  0  0  0  0
    8.1248  -10.0727    0.0000 C   0  0  0  0  0  0  0  0  0  0  0  0
    7.4103  -10.4852    0.0000 C   0  0  0  0  0  0  0  0  0  0  0  0
    4.5524  -11.3102    0.0000 C   0  0  0  0  0  0  0  0  0  0  0  0
    8.8398   -5.5361    0.0000 C   0  0  0  0  0  0  0  0  0  0  0  0
    5.2682   -6.7727    0.0000 O   0  0  0  0  0  0  0  0  0  0  0  0
    4.5537   -6.3602    0.0000 C   0  0  0  0  0  0  0  0  0  0  0  0
    4.5524   -5.5352    0.0000 O   0  0  0  0  0  0  0  0  0  0  0  0
    3.8379   -5.1227    0.0000 C   0  0  0  0  0  0  0  0  0  0  0  0
    4.5524   -3.8852    0.0000 O   0  0  0  0  0  0  0  0  0  0  0  0
    3.8379   -4.2977    0.0000 C   0  0  0  0  0  0  0  0  0  0  0  0
   10.2687   -8.0111    0.0000 O   0  0  0  0  0  0  0  0  0  0  0  0
   10.9832   -7.5986    0.0000 C   0  0  0  0  0  0  0  0  0  0  0  0
    5.2669  -10.8977    0.0000 H   0  0  0  0  0  0  0  0  0  0  0  0
    8.1248   -5.9477    0.0000 H   0  0  0  0  0  0  0  0  0  0  0  0
  1  2  1  0  0  0  0
  2  3  1  0  0  0  0
  3  4  1  0  0  0  0
  4  5  2  0  0  0  0
  5  6  1  0  0  0  0
  6  7  1  0  0  0  0
  7  8  1  0  0  0  0
  8  9  2  0  0  0  0
  9 10  1  0  0  0  0
 10 11  2  0  0  0  0
 11 12  1  0  0  0  0
 12 13  1  0  0  0  0
 13 14  1  0  0  0  0
 14 15  1  0  0  0  0
 15 16  1  0  0  0  0
 16 17  1  0  0  0  0
 17 18  1  0  0  0  0
 18 19  2  0  0  0  0
 19 20  1  0  0  0  0
 20 21  2  0  0  0  0
 21 22  1  0  0  0  0
 22 23  1  0  0  0  0
 23 24  1  0  0  0  0
 24 25  2  0  0  0  0
 25 26  1  0  0  0  0
 26 27  2  0  0  0  0
 27 28  1  0  0  0  0
 28 29  1  0  0  0  0
 29 30  1  0  0  0  0
 31 32  2  0  0  0  0
 35 36  1  0  0  0  0
  1 30  1  0  0  0  0
  1 31  1  0  0  0  0
 32 24  1  0  0  0  0
 27 31  1  0  0  0  0
 18 33  1  0  0  0  0
 33 14  1  0  0  0  0
 12 34  2  0  0  0  0
 34  8  1  0  0  0  0
  6 35  2  0  0  0  0
 36  3  2  0  0  0  0
 22 33  2  0  0  0  0
 30 37  1  0  0  0  0
 15 38  1  0  0  0  0
 39 40  1  0  0  0  0
 25 39  1  0  0  0  0
 41 42  1  0  0  0  0
 21 41  1  0  0  0  0
 43 44  1  0  0  0  0
 20 43  1  0  0  0  0
 45 46  1  0  0  0  0
  9 45  1  0  0  0  0
  1 47  1  1  0  0  0
 14 48  1  6  0  0  0
M  END
>  <cdx:fragmentId>
5

$$$$
