14730799.cdx
  Mrv1902 05222410262D          

 19 21  0  0  0  0            999 V2000
    8.1288  -15.1027    0.0000 C   0  0  2  0  0  0  0  0  0  0  0  0
    8.1288  -14.2777    0.0000 C   0  0  2  0  0  0  0  0  0  0  0  0
    7.4143  -13.8652    0.0000 C   0  0  0  0  0  0  0  0  0  0  0  0
    6.6998  -14.2777    0.0000 C   0  0  0  0  0  0  0  0  0  0  0  0
    5.9854  -13.8652    0.0000 C   0  0  0  0  0  0  0  0  0  0  0  0
    5.2709  -14.2777    0.0000 C   0  0  0  0  0  0  0  0  0  0  0  0
    5.2709  -15.1027    0.0000 C   0  0  0  0  0  0  0  0  0  0  0  0
    5.9854  -15.5152    0.0000 C   0  0  0  0  0  0  0  0  0  0  0  0
    6.6998  -15.1027    0.0000 C   0  0  0  0  0  0  0  0  0  0  0  0
    7.4143  -15.5152    0.0000 O   0  0  0  0  0  0  0  0  0  0  0  0
    7.4143  -13.0402    0.0000 O   0  0  0  0  0  0  0  0  0  0  0  0
    8.8432  -15.5152    0.0000 C   0  0  0  0  0  0  0  0  0  0  0  0
    9.5577  -15.1027    0.0000 C   0  0  0  0  0  0  0  0  0  0  0  0
   10.2722  -15.5152    0.0000 C   0  0  0  0  0  0  0  0  0  0  0  0
   10.2722  -16.3402    0.0000 C   0  0  0  0  0  0  0  0  0  0  0  0
    9.5577  -16.7527    0.0000 C   0  0  0  0  0  0  0  0  0  0  0  0
    8.8432  -16.3402    0.0000 C   0  0  0  0  0  0  0  0  0  0  0  0
    4.5564  -15.5152    0.0000 O   0  0  0  0  0  0  0  0  0  0  0  0
    8.8432  -13.8652    0.0000 O   0  0  0  0  0  0  0  0  0  0  0  0
  1  2  1  0  0  0  0
  2  3  1  0  0  0  0
  3  4  1  0  0  0  0
  4  5  1  0  0  0  0
  5  6  2  0  0  0  0
  6  7  1  0  0  0  0
  7  8  2  0  0  0  0
  8  9  1  0  0  0  0
  4  9  2  0  0  0  0
  9 10  1  0  0  0  0
  1 10  1  0  0  0  0
  3 11  2  0  0  0  0
 12 13  1  0  0  0  0
 13 14  2  0  0  0  0
 14 15  1  0  0  0  0
 15 16  2  0  0  0  0
 16 17  1  0  0  0  0
 12 17  2  0  0  0  0
  1 12  1  1  0  0  0
  7 18  1  0  0  0  0
  2 19  1  6  0  0  0
M  END
>  <cdx:groupId>
109439

>  <cdx:fragmentId>
109383

$$$$
