73071.cdx
  Mrv1902 05222410232D          

 40 45  0  0  0  0            999 V2000
    5.8121   -5.1846    0.0000 C   0  0  0  0  0  0  0  0  0  0  0  0
    6.5266   -5.5971    0.0000 C   0  0  0  0  0  0  0  0  0  0  0  0
    6.5266   -6.4221    0.0000 C   0  0  0  0  0  0  0  0  0  0  0  0
    5.8121   -6.8346    0.0000 C   0  0  0  0  0  0  0  0  0  0  0  0
    5.0977   -6.4221    0.0000 C   0  0  0  0  0  0  0  0  0  0  0  0
    4.3832   -6.8346    0.0000 C   0  0  0  0  0  0  0  0  0  0  0  0
    3.6687   -6.4221    0.0000 C   0  0  0  0  0  0  0  0  0  0  0  0
    2.9542   -6.8346    0.0000 C   0  0  0  0  0  0  0  0  0  0  0  0
    2.2398   -6.4221    0.0000 C   0  0  0  0  0  0  0  0  0  0  0  0
    2.2398   -5.5971    0.0000 C   0  0  0  0  0  0  0  0  0  0  0  0
    2.9542   -5.1846    0.0000 C   0  0  0  0  0  0  0  0  0  0  0  0
    3.6687   -5.5971    0.0000 C   0  0  0  0  0  0  0  0  0  0  0  0
    4.3832   -5.1846    0.0000 C   0  0  0  0  0  0  0  0  0  0  0  0
    5.0977   -5.5971    0.0000 C   0  0  0  0  0  0  0  0  0  0  0  0
    4.3832   -4.3596    0.0000 O   0  0  0  0  0  0  0  0  0  0  0  0
    4.3832   -7.6596    0.0000 O   0  0  0  0  0  0  0  0  0  0  0  0
    5.8121   -3.8646    0.0000 C   0  0  0  0  0  0  0  0  0  0  0  0
    5.0977   -3.4521    0.0000 C   0  0  0  0  0  0  0  0  0  0  0  0
    5.0977   -2.6271    0.0000 C   0  0  0  0  0  0  0  0  0  0  0  0
    5.8121   -2.2146    0.0000 C   0  0  0  0  0  0  0  0  0  0  0  0
    6.5266   -2.6271    0.0000 C   0  0  0  0  0  0  0  0  0  0  0  0
    7.2411   -2.2146    0.0000 C   0  0  0  0  0  0  0  0  0  0  0  0
    7.9555   -2.6271    0.0000 C   0  0  0  0  0  0  0  0  0  0  0  0
    8.6700   -2.2146    0.0000 C   0  0  0  0  0  0  0  0  0  0  0  0
    9.3845   -2.6271    0.0000 C   0  0  0  0  0  0  0  0  0  0  0  0
    9.3845   -3.4521    0.0000 C   0  0  0  0  0  0  0  0  0  0  0  0
    8.6700   -3.8646    0.0000 C   0  0  0  0  0  0  0  0  0  0  0  0
    7.9555   -3.4521    0.0000 C   0  0  0  0  0  0  0  0  0  0  0  0
    7.2411   -3.8646    0.0000 C   0  0  0  0  0  0  0  0  0  0  0  0
    6.5266   -3.4521    0.0000 C   0  0  0  0  0  0  0  0  0  0  0  0
    7.2411   -1.3896    0.0000 O   0  0  0  0  0  0  0  0  0  0  0  0
    7.2411   -4.6896    0.0000 O   0  0  0  0  0  0  0  0  0  0  0  0
   10.0990   -3.8646    0.0000 C   0  0  0  0  0  0  0  0  0  0  0  0
    8.6700   -1.3896    0.0000 O   0  0  0  0  0  0  0  0  0  0  0  0
    5.8121   -1.3896    0.0000 O   0  0  0  0  0  0  0  0  0  0  0  0
    4.3832   -3.8646    0.0000 O   0  0  0  0  0  0  0  0  0  0  0  0
    1.5253   -5.1846    0.0000 C   0  0  0  0  0  0  0  0  0  0  0  0
    2.9542   -7.6596    0.0000 O   0  0  0  0  0  0  0  0  0  0  0  0
    5.8121   -7.6596    0.0000 O   0  0  0  0  0  0  0  0  0  0  0  0
    7.2411   -5.1846    0.0000 O   0  0  0  0  0  0  0  0  0  0  0  0
  1  2  1  0  0  0  0
  2  3  2  0  0  0  0
  3  4  1  0  0  0  0
  4  5  2  0  0  0  0
  5  6  1  0  0  0  0
  6  7  1  0  0  0  0
  7  8  1  0  0  0  0
  8  9  2  0  0  0  0
  9 10  1  0  0  0  0
 10 11  2  0  0  0  0
 11 12  1  0  0  0  0
  7 12  2  0  0  0  0
 12 13  1  0  0  0  0
 13 14  1  0  0  0  0
  5 14  1  0  0  0  0
  1 14  2  0  0  0  0
 13 15  2  0  0  0  0
  6 16  2  0  0  0  0
 17 18  1  0  0  0  0
 18 19  2  0  0  0  0
 19 20  1  0  0  0  0
 20 21  2  0  0  0  0
 21 22  1  0  0  0  0
 22 23  1  0  0  0  0
 23 24  1  0  0  0  0
 24 25  2  0  0  0  0
 25 26  1  0  0  0  0
 26 27  2  0  0  0  0
 27 28  1  0  0  0  0
 23 28  2  0  0  0  0
 28 29  1  0  0  0  0
 29 30  1  0  0  0  0
 21 30  1  0  0  0  0
 17 30  2  0  0  0  0
 22 31  2  0  0  0  0
 29 32  2  0  0  0  0
 26 33  1  0  0  0  0
 24 34  1  0  0  0  0
 20 35  1  0  0  0  0
 18 36  1  0  0  0  0
  1 17  1  0  0  0  0
 10 37  1  0  0  0  0
  8 38  1  0  0  0  0
  4 39  1  0  0  0  0
  2 40  1  0  0  0  0
M  END
>  <cdx:groupId>
127

>  <cdx:fragmentId>
37

$$$$
