7308.cdx
  Mrv1902 05222410202D          

 23 22  0  0  0  0            999 V2000
    0.8002   -8.2912    0.0000 O   0  0  0  0  0  0  0  0  0  0  0  0
    1.5147   -7.8788    0.0000 C   0  0  0  0  0  0  0  0  0  0  0  0
    2.2292   -8.2912    0.0000 C   0  0  0  0  0  0  0  0  0  0  0  0
    2.9437   -7.8788    0.0000 C   0  0  0  0  0  0  0  0  0  0  0  0
    3.6581   -8.2912    0.0000 C   0  0  0  0  0  0  0  0  0  0  0  0
    4.3726   -7.8788    0.0000 C   0  0  0  0  0  0  0  0  0  0  0  0
    5.0871   -8.2912    0.0000 C   0  0  0  0  0  0  0  0  0  0  0  0
    5.8015   -7.8788    0.0000 C   0  0  0  0  0  0  0  0  0  0  0  0
    6.5160   -8.2912    0.0000 C   0  0  0  0  0  0  0  0  0  0  0  0
    7.2305   -7.8788    0.0000 C   0  0  1  0  0  0  0  0  0  0  0  0
    7.9450   -8.2912    0.0000 C   0  0  0  0  0  0  0  0  0  0  0  0
    8.6594   -7.8788    0.0000 C   0  0  0  0  0  0  0  0  0  0  0  0
    9.3739   -8.2912    0.0000 C   0  0  1  0  0  0  0  0  0  0  0  0
   10.0884   -7.8788    0.0000 C   0  0  2  0  0  0  0  0  0  0  0  0
   10.8028   -8.2912    0.0000 C   0  0  0  0  0  0  0  0  0  0  0  0
   11.5173   -7.8788    0.0000 C   0  0  0  0  0  0  0  0  0  0  0  0
   12.2318   -8.2912    0.0000 C   0  0  0  0  0  0  0  0  0  0  0  0
   12.9463   -7.8788    0.0000 C   0  0  0  0  0  0  0  0  0  0  0  0
   13.6607   -8.2912    0.0000 C   0  0  0  0  0  0  0  0  0  0  0  0
    1.5147   -7.0537    0.0000 O   0  0  0  0  0  0  0  0  0  0  0  0
   10.0884   -7.0537    0.0000 O   0  0  0  0  0  0  0  0  0  0  0  0
    9.3739   -9.1162    0.0000 O   0  0  0  0  0  0  0  0  0  0  0  0
    7.2305   -7.0537    0.0000 O   0  0  0  0  0  0  0  0  0  0  0  0
  1  2  1  0  0  0  0
  2  3  1  0  0  0  0
  3  4  1  0  0  0  0
  4  5  1  0  0  0  0
  5  6  1  0  0  0  0
  6  7  1  0  0  0  0
  7  8  1  0  0  0  0
  8  9  1  0  0  0  0
  9 10  1  0  0  0  0
 10 11  1  0  0  0  0
 11 12  2  0  0  0  0
 12 13  1  0  0  0  0
 13 14  1  0  0  0  0
 14 15  1  0  0  0  0
 15 16  1  0  0  0  0
 16 17  1  0  0  0  0
 17 18  1  0  0  0  0
 18 19  1  0  0  0  0
  2 20  2  0  0  0  0
 14 21  1  1  0  0  0
 13 22  1  1  0  0  0
 10 23  1  6  0  0  0
M  END
>  <cdx:fragmentId>
3

$$$$
