7309.cdx
  Mrv1902 05222410212D          

 24 26  0  0  0  0            999 V2000
    8.1458   -5.3387    0.0000 C   0  0  0  0  0  0  0  0  0  0  0  0
    7.3801   -7.3828    0.0000 C   0  0  0  0  0  0  0  0  0  0  0  0
    8.1252   -6.1635    0.0000 C   0  0  0  0  0  0  0  0  0  0  0  0
    7.4007   -6.5580    0.0000 C   0  0  0  0  0  0  0  0  0  0  0  0
    6.7173   -5.3031    0.0000 O   0  0  0  0  0  0  0  0  0  0  0  0
    6.6967   -6.1278    0.0000 C   0  0  0  0  0  0  0  0  0  0  0  0
    5.2476   -6.9169    0.0000 C   0  0  0  0  0  0  0  0  0  0  0  0
    4.5231   -7.3115    0.0000 C   0  0  0  0  0  0  0  0  0  0  0  0
    5.9722   -6.5224    0.0000 O   0  0  0  0  0  0  0  0  0  0  0  0
    9.4920   -8.6734    0.0000 O   0  0  0  0  0  0  0  0  0  0  0  0
    6.6556   -7.7773    0.0000 C   0  0  0  0  0  0  0  0  0  0  0  0
    5.9516   -7.3471    0.0000 C   0  0  0  0  0  0  0  0  0  0  0  0
    5.2271   -7.7417    0.0000 C   0  0  0  0  0  0  0  0  0  0  0  0
    5.2065   -8.5664    0.0000 O   0  0  0  0  0  0  0  0  0  0  0  0
    6.6350   -8.6021    0.0000 C   0  0  0  0  0  0  0  0  0  0  0  0
    5.9104   -8.9966    0.0000 C   0  0  0  0  0  0  0  0  0  0  0  0
    5.8899   -9.8214    0.0000 C   0  0  0  0  0  0  0  0  0  0  0  0
    6.5938  -10.2516    0.0000 C   0  0  0  0  0  0  0  0  0  0  0  0
    8.0223  -10.2872    0.0000 C   0  0  0  0  0  0  0  0  0  0  0  0
    8.7469   -9.8927    0.0000 C   0  0  0  0  0  0  0  0  0  0  0  0
    8.7674   -9.0679    0.0000 C   0  0  0  0  0  0  0  0  0  0  0  0
    8.0635   -8.6377    0.0000 O   0  0  0  0  0  0  0  0  0  0  0  0
    7.3389   -9.0323    0.0000 C   0  0  0  0  0  0  0  0  0  0  0  0
    7.3184   -9.8570    0.0000 C   0  0  0  0  0  0  0  0  0  0  0  0
  3  1  1  0  0  0  0
  4  2  1  0  0  0  0
  4  3  2  0  0  0  0
  6  4  1  0  0  0  0
  6  5  2  0  0  0  0
  9  6  1  0  0  0  0
 13  7  1  0  0  0  0
 13  8  1  0  0  0  0
 12  9  1  0  0  0  0
 21 10  2  0  0  0  0
 11 15  1  0  0  0  0
 12 11  1  0  0  0  0
 13 12  1  0  0  0  0
 14 13  1  0  0  0  0
 16 14  1  0  0  0  0
 15 23  1  0  0  0  0
 16 15  2  0  0  0  0
 17 16  1  0  0  0  0
 18 17  2  0  0  0  0
 24 18  1  0  0  0  0
 19 24  1  0  0  0  0
 20 19  2  0  0  0  0
 21 20  1  0  0  0  0
 22 21  1  0  0  0  0
 23 22  1  0  0  0  0
 24 23  2  0  0  0  0
M  END
>  <cdx:fragmentId>
326

$$$$
