7310.cdx
  Mrv1902 05222410252D          

 18 17  0  0  0  0            999 V2000
    1.3159   -4.1869    0.0000 C   0  0  0  0  0  0  0  0  0  0  0  0
    1.7284   -4.9013    0.0000 C   0  0  0  0  0  0  0  0  0  0  0  0
    2.5534   -4.9013    0.0000 C   0  0  0  0  0  0  0  0  0  0  0  0
    2.9659   -5.6158    0.0000 C   0  0  0  0  0  0  0  0  0  0  0  0
    3.7909   -5.6158    0.0000 C   0  0  0  0  0  0  0  0  0  0  0  0
    4.2034   -6.3303    0.0000 C   0  0  0  0  0  0  0  0  0  0  0  0
    5.0284   -6.3303    0.0000 C   0  0  0  0  0  0  0  0  0  0  0  0
    5.4409   -7.0448    0.0000 C   0  0  0  0  0  0  0  0  0  0  0  0
    6.2659   -7.0448    0.0000 C   0  0  0  0  0  0  0  0  0  0  0  0
    6.6784   -6.3303    0.0000 C   0  0  0  0  0  0  0  0  0  0  0  0
    7.5034   -6.3303    0.0000 C   0  0  0  0  0  0  0  0  0  0  0  0
    8.3284   -6.3303    0.0000 C   0  0  0  0  0  0  0  0  0  0  0  0
    9.1534   -6.3303    0.0000 C   0  0  0  0  0  0  0  0  0  0  0  0
    9.9784   -6.3303    0.0000 C   0  0  0  0  0  0  0  0  0  0  0  0
   10.8034   -6.3303    0.0000 C   0  0  0  0  0  0  0  0  0  0  0  0
   11.2159   -7.0448    0.0000 C   0  0  0  0  0  0  0  0  0  0  0  0
   12.0409   -7.0448    0.0000 C   0  0  0  0  0  0  0  0  0  0  0  0
   12.4534   -6.3303    0.0000 O   0  0  0  0  0  0  0  0  0  0  0  0
  1  2  1  0  0  0  0
  2  3  1  0  0  0  0
  3  4  1  0  0  0  0
  4  5  1  0  0  0  0
  5  6  1  0  0  0  0
  6  7  1  0  0  0  0
  7  8  1  0  0  0  0
  8  9  2  0  0  0  0
  9 10  1  0  0  0  0
 10 11  1  0  0  0  0
 11 12  3  0  0  0  0
 12 13  1  0  0  0  0
 13 14  3  0  0  0  0
 14 15  1  0  0  0  0
 15 16  1  0  0  0  0
 16 17  1  0  0  0  0
 17 18  1  0  0  0  0
M  END
>  <cdx:fragmentId>
3

$$$$
