73117.cdx
  Mrv1902 05222410252D          

 30 33  0  0  0  0            999 V2000
    3.2749   -3.7311    0.0000 C   0  0  0  0  0  0  0  0  0  0  0  0
    3.9894   -3.3186    0.0000 C   0  0  0  0  0  0  0  0  0  0  0  0
    4.7038   -3.7311    0.0000 O   0  0  0  0  0  0  0  0  0  0  0  0
   11.0400   -9.0128    0.0000 C   0  0  0  0  0  0  0  0  0  0  0  0
   10.3255   -9.4253    0.0000 O   0  0  0  0  0  0  0  0  0  0  0  0
   11.0400   -8.1878    0.0000 C   0  0  0  0  0  0  0  0  0  0  0  0
   10.3255   -7.7753    0.0000 O   0  0  0  0  0  0  0  0  0  0  0  0
    3.2749   -4.5561    0.0000 O   0  0  0  0  0  0  0  0  0  0  0  0
    8.1821   -9.0128    0.0000 C   0  0  0  0  0  0  0  0  0  0  0  0
    8.8966   -9.4253    0.0000 C   0  0  0  0  0  0  0  0  0  0  0  0
    9.6111   -9.0128    0.0000 C   0  0  0  0  0  0  0  0  0  0  0  0
    9.6111   -8.1878    0.0000 C   0  0  0  0  0  0  0  0  0  0  0  0
    8.8966   -7.7753    0.0000 C   0  0  0  0  0  0  0  0  0  0  0  0
    5.4183   -4.9686    0.0000 C   0  0  0  0  0  0  0  0  0  0  0  0
    4.7038   -4.5561    0.0000 C   0  0  0  0  0  0  0  0  0  0  0  0
    3.9894   -4.9686    0.0000 C   0  0  0  0  0  0  0  0  0  0  0  0
    3.9894   -5.7936    0.0000 C   0  0  0  0  0  0  0  0  0  0  0  0
    4.7038   -6.2061    0.0000 C   0  0  0  0  0  0  0  0  0  0  0  0
    8.1821   -8.1878    0.0000 C   0  0  0  0  0  0  0  0  0  0  0  0
    5.4183   -5.7936    0.0000 C   0  0  0  0  0  0  0  0  0  0  0  0
    5.5627   -6.9907    0.0000 H   0  0  0  0  0  0  0  0  0  0  0  0
    8.0377   -6.9907    0.0000 H   0  0  0  0  0  0  0  0  0  0  0  0
    6.1328   -7.7753    0.0000 C   0  0  0  0  0  0  0  0  0  0  0  0
    6.8002   -8.2602    0.0000 O   0  0  0  0  0  0  0  0  0  0  0  0
    7.4676   -7.7753    0.0000 C   0  0  2  0  0  0  0  0  0  0  0  0
    7.4676   -6.2061    0.0000 C   0  0  0  0  0  0  0  0  0  0  0  0
    6.8002   -5.7212    0.0000 O   0  0  0  0  0  0  0  0  0  0  0  0
    6.1328   -6.2061    0.0000 C   0  0  2  0  0  0  0  0  0  0  0  0
    6.3877   -6.9907    0.0000 C   0  0  1  0  0  0  0  0  0  0  0  0
    7.2127   -6.9907    0.0000 C   0  0  2  0  0  0  0  0  0  0  0  0
  8  1  1  0  0  0  0
  3  2  1  0  0  0  0
 15  3  1  0  0  0  0
  5  4  1  0  0  0  0
 11  5  1  0  0  0  0
  7  6  1  0  0  0  0
 12  7  1  0  0  0  0
 16  8  1  0  0  0  0
  9 19  1  0  0  0  0
 10  9  2  0  0  0  0
 11 10  1  0  0  0  0
 12 11  2  0  0  0  0
 13 12  1  0  0  0  0
 19 13  2  0  0  0  0
 14 20  2  0  0  0  0
 15 14  1  0  0  0  0
 16 15  2  0  0  0  0
 17 16  1  0  0  0  0
 18 17  2  0  0  0  0
 20 18  1  0  0  0  0
 25 19  1  6  0  0  0
 28 20  1  6  0  0  0
 29 21  1  6  0  0  0
 30 22  1  6  0  0  0
 23 29  1  0  0  0  0
 24 23  1  0  0  0  0
 25 24  1  0  0  0  0
 30 25  1  0  0  0  0
 26 30  1  0  0  0  0
 27 26  1  0  0  0  0
 28 27  1  0  0  0  0
 29 28  1  0  0  0  0
 30 29  1  0  0  0  0
M  END
>  <cdx:fragmentId>
1206

$$$$
