7314.cdx
  Mrv1902 05222410232D          

 24 24  0  0  0  0            999 V2000
    7.6569   -4.7102    0.0000 C   0  0  0  0  0  0  0  0  0  0  0  0
    6.9424   -4.2977    0.0000 C   0  0  1  0  0  0  0  0  0  0  0  0
    6.2280   -4.7102    0.0000 C   0  0  2  0  0  0  0  0  0  0  0  0
    5.5135   -4.2977    0.0000 C   0  0  1  0  0  0  0  0  0  0  0  0
    4.7990   -4.7102    0.0000 C   0  0  1  0  0  0  0  0  0  0  0  0
    4.0845   -4.2977    0.0000 C   0  0  0  0  0  0  0  0  0  0  0  0
    7.6569   -5.5352    0.0000 O   0  0  0  0  0  0  0  0  0  0  0  0
    8.3714   -4.2977    0.0000 O   0  0  0  0  0  0  0  0  0  0  0  0
    5.5135   -3.4727    0.0000 O   0  0  0  0  0  0  0  0  0  0  0  0
    4.0845   -3.4727    0.0000 O   0  0  0  0  0  0  0  0  0  0  0  0
    4.7990   -3.0602    0.0000 C   0  0  2  0  0  0  0  0  0  0  0  0
    4.7990   -2.2352    0.0000 C   0  0  1  0  0  0  0  0  0  0  0  0
    4.0845   -1.8227    0.0000 C   0  0  2  0  0  0  0  0  0  0  0  0
    3.3701   -2.2352    0.0000 C   0  0  2  0  0  0  0  0  0  0  0  0
    3.3701   -3.0602    0.0000 C   0  0  1  0  0  0  0  0  0  0  0  0
    2.6556   -3.4727    0.0000 C   0  0  0  0  0  0  0  0  0  0  0  0
    1.9411   -3.0602    0.0000 O   0  0  0  0  0  0  0  0  0  0  0  0
    2.6556   -1.8227    0.0000 O   0  0  0  0  0  0  0  0  0  0  0  0
    4.0845   -0.9977    0.0000 O   0  0  0  0  0  0  0  0  0  0  0  0
    5.5135   -1.8227    0.0000 O   0  0  0  0  0  0  0  0  0  0  0  0
    3.3701   -4.7102    0.0000 O   0  0  0  0  0  0  0  0  0  0  0  0
    4.7990   -5.5352    0.0000 O   0  0  0  0  0  0  0  0  0  0  0  0
    6.2280   -5.5352    0.0000 O   0  0  0  0  0  0  0  0  0  0  0  0
    6.9424   -3.4727    0.0000 O   0  0  0  0  0  0  0  0  0  0  0  0
  1  2  1  0  0  0  0
  2  3  1  0  0  0  0
  3  4  1  0  0  0  0
  4  5  1  0  0  0  0
  5  6  1  0  0  0  0
  1  7  2  0  0  0  0
  1  8  1  0  0  0  0
 10 11  1  0  0  0  0
 11 12  1  0  0  0  0
 12 13  1  0  0  0  0
 13 14  1  0  0  0  0
 14 15  1  0  0  0  0
 10 15  1  0  0  0  0
 16 17  1  0  0  0  0
 15 16  1  6  0  0  0
 14 18  1  6  0  0  0
 13 19  1  6  0  0  0
 12 20  1  1  0  0  0
 11  9  1  6  0  0  0
  4  9  1  1  0  0  0
  6 21  1  0  0  0  0
  5 22  1  6  0  0  0
  3 23  1  1  0  0  0
  2 24  1  1  0  0  0
M  END
>  <cdx:groupId>
74

>  <cdx:fragmentId>
23

$$$$
