101731569.cdx
  Mrv1902 05222410272D          

 29 33  0  0  0  0            999 V2000
    7.4766   -6.2951    0.0000 C   0  0  0  0  0  0  0  0  0  0  0  0
    6.7621   -6.7076    0.0000 C   0  0  0  0  0  0  0  0  0  0  0  0
    6.0477   -6.2951    0.0000 C   0  0  0  0  0  0  0  0  0  0  0  0
    5.3332   -6.7076    0.0000 C   0  0  0  0  0  0  0  0  0  0  0  0
    4.5486   -6.4527    0.0000 O   0  0  0  0  0  0  0  0  0  0  0  0
    4.0636   -7.1201    0.0000 C   0  0  0  0  0  0  0  0  0  0  0  0
    4.5486   -7.7876    0.0000 O   0  0  0  0  0  0  0  0  0  0  0  0
    5.3332   -7.5326    0.0000 C   0  0  0  0  0  0  0  0  0  0  0  0
    6.0477   -7.9451    0.0000 C   0  0  0  0  0  0  0  0  0  0  0  0
    6.7621   -7.5326    0.0000 C   0  0  0  0  0  0  0  0  0  0  0  0
    7.4766   -7.9451    0.0000 C   0  0  0  0  0  0  0  0  0  0  0  0
    8.1911   -7.5326    0.0000 C   0  0  2  0  0  0  0  0  0  0  0  0
    8.9059   -7.9444    0.0000 N   0  3  0  0  0  0  0  0  0  0  0  0
    9.6203   -7.5317    0.0000 C   0  0  0  0  0  0  0  0  0  0  0  0
    9.6205   -6.7067    0.0000 C   0  0  0  0  0  0  0  0  0  0  0  0
    8.9055   -6.2951    0.0000 C   0  0  0  0  0  0  0  0  0  0  0  0
    8.9055   -5.4701    0.0000 C   0  0  0  0  0  0  0  0  0  0  0  0
    8.1911   -5.0576    0.0000 C   0  0  0  0  0  0  0  0  0  0  0  0
    7.4766   -5.4701    0.0000 C   0  0  0  0  0  0  0  0  0  0  0  0
    8.1911   -6.7076    0.0000 C   0  0  0  0  0  0  0  0  0  0  0  0
    8.4934   -8.6589    0.0000 C   0  0  0  0  0  0  0  0  0  0  0  0
    9.3184   -8.6589    0.0000 C   0  0  0  0  0  0  0  0  0  0  0  0
    6.7621   -5.0576    0.0000 O   0  0  0  0  0  0  0  0  0  0  0  0
    6.0477   -5.4701    0.0000 C   0  0  0  0  0  0  0  0  0  0  0  0
    8.1911   -4.2326    0.0000 O   0  0  0  0  0  0  0  0  0  0  0  0
    8.9055   -3.8201    0.0000 C   0  0  0  0  0  0  0  0  0  0  0  0
    9.6200   -5.0576    0.0000 O   0  0  0  0  0  0  0  0  0  0  0  0
   10.3345   -5.4701    0.0000 C   0  0  0  0  0  0  0  0  0  0  0  0
    8.1911   -8.3576    0.0000 H   0  0  0  0  0  0  0  0  0  0  0  0
  1  2  1  0  0  0  0
  2  3  2  0  0  0  0
  3  4  1  0  0  0  0
  4  5  1  0  0  0  0
  5  6  1  0  0  0  0
  6  7  1  0  0  0  0
  7  8  1  0  0  0  0
  8  9  1  0  0  0  0
  9 10  2  0  0  0  0
 10 11  1  0  0  0  0
 11 12  1  0  0  0  0
 12 13  1  0  0  0  0
 13 14  1  0  0  0  0
 14 15  1  0  0  0  0
 15 16  1  0  0  0  0
 16 17  1  0  0  0  0
 17 18  2  0  0  0  0
 18 19  1  0  0  0  0
  1 19  2  0  0  0  0
  1 20  1  0  0  0  0
 20 12  1  0  0  0  0
  2 10  1  0  0  0  0
  4  8  2  0  0  0  0
 16 20  2  0  0  0  0
 13 21  1  0  0  0  0
 13 22  1  0  0  0  0
 23 24  1  0  0  0  0
 19 23  1  0  0  0  0
 25 26  1  0  0  0  0
 18 25  1  0  0  0  0
 27 28  1  0  0  0  0
 17 27  1  0  0  0  0
 12 29  1  6  0  0  0
M  CHG  1  13   1
M  END
>  <cdx:groupId>
324

>  <cdx:fragmentId>
236

$$$$
