73158.cdx
  Mrv1902 05222410262D          

 39 43  0  0  0  0            999 V2000
    8.5008   -5.7618    0.0000 C   0  0  1  0  0  0  0  0  0  0  0  0
    9.2153   -5.3493    0.0000 C   0  0  1  0  0  0  0  0  0  0  0  0
    9.9298   -5.7618    0.0000 C   0  0  0  0  0  0  0  0  0  0  0  0
    9.9298   -6.5868    0.0000 C   0  0  0  0  0  0  0  0  0  0  0  0
    9.2153   -6.9993    0.0000 C   0  0  2  0  0  0  0  0  0  0  0  0
    9.2153   -7.8243    0.0000 C   0  0  0  0  0  0  0  0  0  0  0  0
    8.5008   -8.2368    0.0000 C   0  0  0  0  0  0  0  0  0  0  0  0
    7.7864   -7.8243    0.0000 C   0  0  1  0  0  0  0  0  0  0  0  0
    7.0719   -8.2368    0.0000 C   0  0  2  0  0  0  0  0  0  0  0  0
    7.0719   -9.0618    0.0000 C   0  0  0  0  0  0  0  0  0  0  0  0
    6.3574   -9.4743    0.0000 C   0  0  2  0  0  0  0  0  0  0  0  0
    5.6430   -9.0618    0.0000 C   0  0  1  0  0  0  0  0  0  0  0  0
    4.9285   -9.4743    0.0000 C   0  0  2  0  0  0  0  0  0  0  0  0
    4.2140   -9.0618    0.0000 C   0  0  2  0  0  0  0  0  0  0  0  0
    4.2140   -8.2368    0.0000 C   0  0  1  0  0  0  0  0  0  0  0  0
    4.9285   -7.8243    0.0000 C   0  0  0  0  0  0  0  0  0  0  0  0
    5.6430   -8.2368    0.0000 C   0  0  2  0  0  0  0  0  0  0  0  0
    6.3574   -7.8243    0.0000 C   0  0  1  0  0  0  0  0  0  0  0  0
    6.3574   -6.9993    0.0000 C   0  0  0  0  0  0  0  0  0  0  0  0
    7.0719   -6.5868    0.0000 C   0  0  0  0  0  0  0  0  0  0  0  0
    7.7864   -6.9993    0.0000 C   0  0  0  0  0  0  0  0  0  0  0  0
    8.5008   -6.5868    0.0000 C   0  0  2  0  0  0  0  0  0  0  0  0
    9.9298   -7.4118    0.0000 C   0  0  0  0  0  0  0  0  0  0  0  0
    9.9298   -8.2368    0.0000 O   0  0  0  0  0  0  0  0  0  0  0  0
   10.6443   -6.9993    0.0000 O   0  0  0  0  0  0  0  0  0  0  0  0
    5.6430   -7.4118    0.0000 C   0  0  0  0  0  0  0  0  0  0  0  0
    4.5160  -10.1887    0.0000 C   0  0  0  0  0  0  0  0  0  0  0  0
    9.2153   -4.5243    0.0000 C   0  0  0  0  0  0  0  0  0  0  0  0
    7.7864   -5.3493    0.0000 C   0  0  0  0  0  0  0  0  0  0  0  0
    5.3410  -10.1888    0.0000 C   0  0  0  0  0  0  0  0  0  0  0  0
    4.9285  -10.9032    0.0000 O   0  0  0  0  0  0  0  0  0  0  0  0
    3.4995   -7.8243    0.0000 O   0  0  0  0  0  0  0  0  0  0  0  0
    3.4995   -9.4743    0.0000 O   0  0  0  0  0  0  0  0  0  0  0  0
    6.3574  -10.2993    0.0000 O   0  0  0  0  0  0  0  0  0  0  0  0
    5.6430   -9.8868    0.0000 H   0  0  0  0  0  0  0  0  0  0  0  0
    8.5008   -7.4118    0.0000 H   0  0  0  0  0  0  0  0  0  0  0  0
    7.0719   -7.4118    0.0000 C   0  0  0  0  0  0  0  0  0  0  0  0
    6.3574   -8.6493    0.0000 H   0  0  0  0  0  0  0  0  0  0  0  0
    7.7864   -8.6493    0.0000 C   0  0  0  0  0  0  0  0  0  0  0  0
  1  2  1  0  0  0  0
  2  3  1  0  0  0  0
  3  4  1  0  0  0  0
  4  5  1  0  0  0  0
  5  6  1  0  0  0  0
  6  7  1  0  0  0  0
  7  8  1  0  0  0  0
  8  9  1  0  0  0  0
  9 10  1  0  0  0  0
 10 11  1  0  0  0  0
 11 12  1  0  0  0  0
 12 13  1  0  0  0  0
 13 14  1  0  0  0  0
 14 15  1  0  0  0  0
 15 16  1  0  0  0  0
 16 17  1  0  0  0  0
 12 17  1  0  0  0  0
 17 18  1  0  0  0  0
  9 18  1  0  0  0  0
 18 19  1  0  0  0  0
 19 20  1  0  0  0  0
 20 21  2  0  0  0  0
  8 21  1  0  0  0  0
 21 22  1  0  0  0  0
  5 22  1  0  0  0  0
  1 22  1  0  0  0  0
 23 24  2  0  0  0  0
 23 25  1  0  0  0  0
  5 23  1  1  0  0  0
 17 26  1  1  0  0  0
 13 27  1  1  0  0  0
  2 28  1  6  0  0  0
  1 29  1  1  0  0  0
 30 31  1  0  0  0  0
 13 30  1  6  0  0  0
 15 32  1  6  0  0  0
 14 33  1  1  0  0  0
 11 34  1  1  0  0  0
 12 35  1  6  0  0  0
 22 36  1  1  0  0  0
  9 37  1  1  0  0  0
 18 38  1  6  0  0  0
  8 39  1  6  0  0  0
M  END
>  <cdx:fragmentId>
5

$$$$
