73166.cdx
  Mrv1902 05222410262D          

 12 13  0  0  0  0            999 V2000
    6.1471   -4.0063    0.0000 N   0  0  0  0  0  0  0  0  0  0  0  0
    6.6320   -3.3388    0.0000 C   0  0  0  0  0  0  0  0  0  0  0  0
    6.1471   -2.6714    0.0000 C   0  0  0  0  0  0  0  0  0  0  0  0
    5.3624   -2.9263    0.0000 C   0  0  0  0  0  0  0  0  0  0  0  0
    4.6480   -2.5138    0.0000 C   0  0  0  0  0  0  0  0  0  0  0  0
    3.9335   -2.9263    0.0000 C   0  0  0  0  0  0  0  0  0  0  0  0
    3.9335   -3.7513    0.0000 C   0  0  0  0  0  0  0  0  0  0  0  0
    4.6480   -4.1638    0.0000 C   0  0  0  0  0  0  0  0  0  0  0  0
    5.3624   -3.7513    0.0000 C   0  0  0  0  0  0  0  0  0  0  0  0
    6.4020   -1.8868    0.0000 C   0  0  0  0  0  0  0  0  0  0  0  0
    7.2090   -1.7153    0.0000 O   0  0  0  0  0  0  0  0  0  0  0  0
    7.4570   -3.3388    0.0000 C   0  0  0  0  0  0  0  0  0  0  0  0
  1  2  1  0  0  0  0
  2  3  2  0  0  0  0
  3  4  1  0  0  0  0
  4  5  1  0  0  0  0
  5  6  2  0  0  0  0
  6  7  1  0  0  0  0
  7  8  2  0  0  0  0
  8  9  1  0  0  0  0
  1  9  1  0  0  0  0
  4  9  2  0  0  0  0
 10 11  2  0  0  0  0
  3 10  1  0  0  0  0
  2 12  1  0  0  0  0
M  END
>  <cdx:groupId>
39

>  <cdx:fragmentId>
5

$$$$
