73170.cdx
  Mrv1902 05222410262D          

 34 38  0  0  0  0            999 V2000
    5.7711   -7.0973    0.0000 C   0  0  0  0  0  0  0  0  0  0  0  0
    5.0566   -7.5098    0.0000 C   0  0  0  0  0  0  0  0  0  0  0  0
    5.0566   -8.3348    0.0000 C   0  0  1  0  0  0  0  0  0  0  0  0
    5.7711   -8.7473    0.0000 C   0  0  0  0  0  0  0  0  0  0  0  0
    6.4856   -8.3348    0.0000 C   0  0  2  0  0  0  0  0  0  0  0  0
    7.2001   -8.7473    0.0000 C   0  0  0  0  0  0  0  0  0  0  0  0
    7.9145   -8.3348    0.0000 C   0  0  0  0  0  0  0  0  0  0  0  0
    7.9145   -7.5098    0.0000 C   0  0  1  0  0  0  0  0  0  0  0  0
    8.6290   -7.0973    0.0000 C   0  0  2  0  0  0  0  0  0  0  0  0
    9.3435   -7.5098    0.0000 C   0  0  0  0  0  0  0  0  0  0  0  0
   10.0579   -7.0973    0.0000 C   0  0  0  0  0  0  0  0  0  0  0  0
   10.0579   -6.2723    0.0000 C   0  0  1  0  0  0  0  0  0  0  0  0
   10.7724   -5.8598    0.0000 C   0  0  0  0  0  0  0  0  0  0  0  0
   10.7724   -5.0348    0.0000 C   0  0  0  0  0  0  0  0  0  0  0  0
   10.0579   -4.6223    0.0000 C   0  0  2  0  0  0  0  0  0  0  0  0
    9.3435   -5.0348    0.0000 C   0  0  1  0  0  0  0  0  0  0  0  0
    9.3435   -5.8598    0.0000 C   0  0  1  0  0  0  0  0  0  0  0  0
    8.6290   -6.2723    0.0000 C   0  0  0  0  0  0  0  0  0  0  0  0
    7.9145   -5.8598    0.0000 C   0  0  0  0  0  0  0  0  0  0  0  0
    7.2001   -6.2723    0.0000 C   0  0  0  0  0  0  0  0  0  0  0  0
    7.2001   -7.0973    0.0000 C   0  0  2  0  0  0  0  0  0  0  0  0
    6.4856   -7.5098    0.0000 C   0  0  1  0  0  0  0  0  0  0  0  0
    4.3422   -8.7473    0.0000 O   0  0  0  0  0  0  0  0  0  0  0  0
    6.4856   -6.6848    0.0000 C   0  0  0  0  0  0  0  0  0  0  0  0
    8.6290   -4.6223    0.0000 C   0  0  0  0  0  0  0  0  0  0  0  0
   10.0579   -3.7973    0.0000 C   0  0  0  0  0  0  0  0  0  0  0  0
   10.7724   -6.6848    0.0000 C   0  0  0  0  0  0  0  0  0  0  0  0
    8.6290   -7.9223    0.0000 C   0  0  0  0  0  0  0  0  0  0  0  0
    7.9145   -6.6848    0.0000 C   0  0  0  0  0  0  0  0  0  0  0  0
    6.1836   -9.4618    0.0000 C   0  0  0  0  0  0  0  0  0  0  0  0
    5.3586   -9.4618    0.0000 C   0  0  0  0  0  0  0  0  0  0  0  0
    6.4856   -9.1598    0.0000 H   0  0  0  0  0  0  0  0  0  0  0  0
    9.3435   -6.6848    0.0000 H   0  0  0  0  0  0  0  0  0  0  0  0
    7.2001   -7.9223    0.0000 H   0  0  0  0  0  0  0  0  0  0  0  0
  1  2  1  0  0  0  0
  2  3  1  0  0  0  0
  3  4  1  0  0  0  0
  4  5  1  0  0  0  0
  5  6  1  0  0  0  0
  6  7  1  0  0  0  0
  7  8  1  0  0  0  0
  8  9  1  0  0  0  0
  9 10  1  0  0  0  0
 10 11  1  0  0  0  0
 11 12  1  0  0  0  0
 12 13  1  0  0  0  0
 13 14  1  0  0  0  0
 14 15  1  0  0  0  0
 15 16  1  0  0  0  0
 16 17  1  0  0  0  0
 12 17  1  0  0  0  0
 17 18  1  0  0  0  0
  9 18  1  0  0  0  0
 18 19  2  0  0  0  0
 19 20  1  0  0  0  0
 20 21  1  0  0  0  0
  8 21  1  0  0  0  0
 21 22  1  0  0  0  0
  5 22  1  0  0  0  0
  1 22  1  0  0  0  0
  3 23  1  1  0  0  0
 22 24  1  1  0  0  0
 16 25  1  1  0  0  0
 15 26  1  6  0  0  0
 12 27  1  1  0  0  0
  9 28  1  6  0  0  0
  8 29  1  1  0  0  0
  4 30  1  0  0  0  0
  4 31  1  0  0  0  0
  5 32  1  6  0  0  0
 17 33  1  1  0  0  0
 21 34  1  6  0  0  0
M  END
>  <cdx:groupId>
108

>  <cdx:fragmentId>
5

$$$$
