73192.cdx
  Mrv1902 05222410182D          

 24 26  0  0  0  0            999 V2000
    6.9292   -4.7721    0.0000 O   0  0  0  0  0  0  0  0  0  0  0  0
    6.9292   -3.9471    0.0000 C   0  0  2  0  0  0  0  0  0  0  0  0
    6.2147   -3.5346    0.0000 C   0  0  1  0  0  0  0  0  0  0  0  0
    5.5003   -3.9471    0.0000 C   0  0  0  0  0  0  0  0  0  0  0  0
    4.7858   -3.5346    0.0000 C   0  0  0  0  0  0  0  0  0  0  0  0
    4.0713   -3.9471    0.0000 C   0  0  0  0  0  0  0  0  0  0  0  0
    4.0713   -4.7721    0.0000 C   0  0  0  0  0  0  0  0  0  0  0  0
    4.7858   -5.1846    0.0000 C   0  0  0  0  0  0  0  0  0  0  0  0
    5.5003   -4.7721    0.0000 C   0  0  0  0  0  0  0  0  0  0  0  0
    6.2147   -5.1846    0.0000 C   0  0  0  0  0  0  0  0  0  0  0  0
    7.6437   -3.5346    0.0000 C   0  0  1  0  0  0  0  0  0  0  0  0
    7.6437   -2.7096    0.0000 C   0  0  2  0  0  0  0  0  0  0  0  0
    6.9292   -2.2971    0.0000 C   0  0  1  0  0  0  0  0  0  0  0  0
    6.2147   -2.7096    0.0000 O   0  0  0  0  0  0  0  0  0  0  0  0
    6.2147   -6.0096    0.0000 O   0  0  0  0  0  0  0  0  0  0  0  0
    6.9292   -1.4721    0.0000 C   0  0  0  0  0  0  0  0  0  0  0  0
    7.6437   -1.0596    0.0000 O   0  0  0  0  0  0  0  0  0  0  0  0
    4.7858   -2.7096    0.0000 O   0  0  0  0  0  0  0  0  0  0  0  0
    3.3569   -3.5346    0.0000 O   0  0  0  0  0  0  0  0  0  0  0  0
    3.3569   -5.1846    0.0000 O   0  0  0  0  0  0  0  0  0  0  0  0
    8.3581   -3.9471    0.0000 O   0  0  0  0  0  0  0  0  0  0  0  0
    8.3581   -2.2971    0.0000 O   0  0  0  0  0  0  0  0  0  0  0  0
    7.6437   -4.3596    0.0000 H   0  0  0  0  0  0  0  0  0  0  0  0
    5.5003   -3.1221    0.0000 H   0  0  0  0  0  0  0  0  0  0  0  0
  1  2  1  0  0  0  0
  2  3  1  0  0  0  0
  3  4  1  0  0  0  0
  4  5  1  0  0  0  0
  5  6  2  0  0  0  0
  6  7  1  0  0  0  0
  7  8  2  0  0  0  0
  8  9  1  0  0  0  0
  4  9  2  0  0  0  0
  9 10  1  0  0  0  0
  1 10  1  0  0  0  0
 11 12  1  0  0  0  0
 12 13  1  0  0  0  0
 13 14  1  0  0  0  0
 11  2  1  0  0  0  0
 14  3  1  0  0  0  0
 10 15  2  0  0  0  0
 16 17  1  0  0  0  0
 13 16  1  1  0  0  0
  5 18  1  0  0  0  0
  6 19  1  0  0  0  0
  7 20  1  0  0  0  0
 11 21  1  1  0  0  0
 12 22  1  6  0  0  0
  2 23  1  1  0  0  0
  3 24  1  6  0  0  0
M  END
>  <cdx:groupId>
76

>  <cdx:fragmentId>
5

$$$$
