73193.cdx
  Mrv1902 05222410192D          

 38 42  0  0  0  0            999 V2000
    6.7025   -9.6103    0.0000 H   0  0  0  0  0  0  0  0  0  0  0  0
    8.8646   -6.7236    0.0000 C   0  0  1  0  0  0  0  0  0  0  0  0
    9.5791   -6.3112    0.0000 C   0  0  1  0  0  0  0  0  0  0  0  0
   10.2935   -6.7239    0.0000 C   0  0  0  0  0  0  0  0  0  0  0  0
   10.2933   -7.5489    0.0000 C   0  0  0  0  0  0  0  0  0  0  0  0
    9.5787   -7.9612    0.0000 C   0  0  2  0  0  0  0  0  0  0  0  0
    9.5785   -8.7862    0.0000 C   0  0  0  0  0  0  0  0  0  0  0  0
    8.8639   -9.1986    0.0000 C   0  0  0  0  0  0  0  0  0  0  0  0
    8.1495   -8.7859    0.0000 C   0  0  1  0  0  0  0  0  0  0  0  0
    7.4349   -9.1982    0.0000 C   0  0  2  0  0  0  0  0  0  0  0  0
    7.4347  -10.0232    0.0000 C   0  0  0  0  0  0  0  0  0  0  0  0
    6.7201  -10.4355    0.0000 C   0  0  0  0  0  0  0  0  0  0  0  0
    6.0058  -10.0228    0.0000 C   0  0  1  0  0  0  0  0  0  0  0  0
    5.2912  -10.4351    0.0000 C   0  0  0  0  0  0  0  0  0  0  0  0
    4.5768  -10.0224    0.0000 C   0  0  2  0  0  0  0  0  0  0  0  0
    4.5770   -9.1974    0.0000 C   0  0  1  0  0  0  0  0  0  0  0  0
    5.2916   -8.7851    0.0000 C   0  0  0  0  0  0  0  0  0  0  0  0
    6.0060   -9.1978    0.0000 C   0  0  2  0  0  0  0  0  0  0  0  0
    6.7206   -8.7855    0.0000 C   0  0  1  0  0  0  0  0  0  0  0  0
    6.7208   -7.9605    0.0000 C   0  0  0  0  0  0  0  0  0  0  0  0
    7.4354   -7.5482    0.0000 C   0  0  0  0  0  0  0  0  0  0  0  0
    8.1497   -7.9609    0.0000 C   0  0  0  0  0  0  0  0  0  0  0  0
    8.8643   -7.5486    0.0000 C   0  0  2  0  0  0  0  0  0  0  0  0
   10.2930   -8.3739    0.0000 C   0  0  0  0  0  0  0  0  0  0  0  0
   10.2928   -9.1989    0.0000 O   0  0  0  0  0  0  0  0  0  0  0  0
   11.0076   -7.9616    0.0000 O   0  0  0  0  0  0  0  0  0  0  0  0
    6.0062   -8.3728    0.0000 C   0  0  0  0  0  0  0  0  0  0  0  0
    5.7035  -11.1496    0.0000 C   0  0  0  0  0  0  0  0  0  0  0  0
    4.8785  -11.1494    0.0000 C   0  0  0  0  0  0  0  0  0  0  0  0
    8.1493   -9.6109    0.0000 C   0  0  0  0  0  0  0  0  0  0  0  0
    9.5794   -5.4862    0.0000 C   0  0  0  0  0  0  0  0  0  0  0  0
    8.4523   -6.0090    0.0000 C   0  0  0  0  0  0  0  0  0  0  0  0
    3.8627   -8.7847    0.0000 O   0  0  0  0  0  0  0  0  0  0  0  0
    3.8622  -10.4347    0.0000 O   0  0  0  0  0  0  0  0  0  0  0  0
    8.0396   -6.7233    0.0000 O   0  0  0  0  0  0  0  0  0  0  0  0
    6.0055  -10.8478    0.0000 H   0  0  0  0  0  0  0  0  0  0  0  0
    8.8641   -8.3736    0.0000 H   0  0  0  0  0  0  0  0  0  0  0  0
    7.4352   -8.3732    0.0000 C   0  0  0  0  0  0  0  0  0  0  0  0
 19  1  1  6  0  0  0
  2  3  1  0  0  0  0
  3  4  1  0  0  0  0
  4  5  1  0  0  0  0
  5  6  1  0  0  0  0
  6  7  1  0  0  0  0
  7  8  1  0  0  0  0
  8  9  1  0  0  0  0
  9 10  1  0  0  0  0
 10 11  1  0  0  0  0
 11 12  1  0  0  0  0
 12 13  1  0  0  0  0
 13 14  1  0  0  0  0
 14 15  1  0  0  0  0
 15 16  1  0  0  0  0
 16 17  1  0  0  0  0
 17 18  1  0  0  0  0
 13 18  1  0  0  0  0
 18 19  1  0  0  0  0
 10 19  1  0  0  0  0
 19 20  1  0  0  0  0
 20 21  1  0  0  0  0
 21 22  2  0  0  0  0
  9 22  1  0  0  0  0
 22 23  1  0  0  0  0
  6 23  1  0  0  0  0
  2 23  1  0  0  0  0
 24 25  2  0  0  0  0
 24 26  1  0  0  0  0
  6 24  1  1  0  0  0
 18 27  1  1  0  0  0
 14 28  1  0  0  0  0
 14 29  1  0  0  0  0
  9 30  1  6  0  0  0
  3 31  1  6  0  0  0
  2 32  1  1  0  0  0
 16 33  1  6  0  0  0
 15 34  1  1  0  0  0
  2 35  1  6  0  0  0
 13 36  1  6  0  0  0
 23 37  1  1  0  0  0
 10 38  1  1  0  0  0
M  END
>  <cdx:fragmentId>
5

$$$$
