73191.cdx
  Mrv1902 05222410182D          

 30 33  0  0  0  0            999 V2000
   12.2010   -6.5519    0.0000 C   0  0  0  0  0  0  0  0  0  0  0  0
   12.2010   -7.3769    0.0000 C   0  0  0  0  0  0  0  0  0  0  0  0
   11.4865   -7.7894    0.0000 C   0  0  0  0  0  0  0  0  0  0  0  0
   10.7720   -7.3769    0.0000 C   0  0  0  0  0  0  0  0  0  0  0  0
   10.7720   -6.5519    0.0000 C   0  0  0  0  0  0  0  0  0  0  0  0
   11.4865   -6.1394    0.0000 O   0  0  0  0  0  0  0  0  0  0  0  0
   10.0576   -7.7894    0.0000 C   0  0  0  0  0  0  0  0  0  0  0  0
    9.3431   -7.3769    0.0000 C   0  0  0  0  0  0  0  0  0  0  0  0
    9.3431   -6.5519    0.0000 C   0  0  0  0  0  0  0  0  0  0  0  0
   10.0576   -6.1394    0.0000 C   0  0  0  0  0  0  0  0  0  0  0  0
    8.5585   -7.6318    0.0000 C   0  0  0  0  0  0  0  0  0  0  0  0
    8.0735   -6.9644    0.0000 C   0  0  1  0  0  0  0  0  0  0  0  0
    8.5585   -6.2969    0.0000 O   0  0  0  0  0  0  0  0  0  0  0  0
   12.9154   -6.1394    0.0000 O   0  0  0  0  0  0  0  0  0  0  0  0
    7.2485   -6.9644    0.0000 C   0  0  0  0  0  0  0  0  0  0  0  0
    6.4235   -6.9644    0.0000 O   0  0  0  0  0  0  0  0  0  0  0  0
    7.2485   -6.1394    0.0000 C   0  0  0  0  0  0  0  0  0  0  0  0
    7.2485   -7.7894    0.0000 C   0  0  0  0  0  0  0  0  0  0  0  0
    7.6610   -6.2499    0.0000 H   0  0  0  0  0  0  0  0  0  0  0  0
    5.7091   -7.3769    0.0000 C   0  0  2  0  0  0  0  0  0  0  0  0
    4.9946   -6.9644    0.0000 O   0  0  0  0  0  0  0  0  0  0  0  0
    4.2801   -7.3769    0.0000 C   0  0  1  0  0  0  0  0  0  0  0  0
    4.2801   -8.2019    0.0000 C   0  0  2  0  0  0  0  0  0  0  0  0
    4.9946   -8.6144    0.0000 C   0  0  1  0  0  0  0  0  0  0  0  0
    5.7091   -8.2019    0.0000 C   0  0  1  0  0  0  0  0  0  0  0  0
    3.5657   -6.9644    0.0000 C   0  0  0  0  0  0  0  0  0  0  0  0
    4.9946   -9.4394    0.0000 O   0  0  0  0  0  0  0  0  0  0  0  0
    6.4235   -8.6144    0.0000 O   0  0  0  0  0  0  0  0  0  0  0  0
    3.5657   -8.6144    0.0000 O   0  0  0  0  0  0  0  0  0  0  0  0
    2.8512   -7.3769    0.0000 O   0  0  0  0  0  0  0  0  0  0  0  0
  1  2  1  0  0  0  0
  2  3  2  0  0  0  0
  3  4  1  0  0  0  0
  4  5  1  0  0  0  0
  5  6  1  0  0  0  0
  6  1  1  0  0  0  0
  4  7  2  0  0  0  0
  7  8  1  0  0  0  0
  8  9  2  0  0  0  0
  9 10  1  0  0  0  0
 10  5  2  0  0  0  0
  8 11  1  0  0  0  0
 11 12  1  0  0  0  0
 12 13  1  0  0  0  0
 13  9  1  0  0  0  0
  1 14  2  0  0  0  0
 12 15  1  0  0  0  0
 15 16  1  0  0  0  0
 15 17  1  0  0  0  0
 15 18  1  0  0  0  0
 12 19  1  1  0  0  0
 20 16  1  1  0  0  0
 20 21  1  0  0  0  0
 21 22  1  0  0  0  0
 22 23  1  0  0  0  0
 23 24  1  0  0  0  0
 24 25  1  0  0  0  0
 25 20  1  0  0  0  0
 22 26  1  1  0  0  0
 24 27  1  1  0  0  0
 25 28  1  6  0  0  0
 23 29  1  6  0  0  0
 26 30  1  0  0  0  0
M  END
>  <cdx:fragmentId>
5

$$$$
