73205.cdx
  Mrv1902 05222410262D          

 26 28  0  0  0  0            999 V2000
    5.7421   -4.1533    0.0000 C   0  0  2  0  0  0  0  0  0  0  0  0
    5.7421   -3.3283    0.0000 C   0  0  0  0  0  0  0  0  0  0  0  0
    5.0277   -2.9158    0.0000 C   0  0  0  0  0  0  0  0  0  0  0  0
    4.3132   -3.3283    0.0000 C   0  0  0  0  0  0  0  0  0  0  0  0
    3.5987   -2.9158    0.0000 C   0  0  0  0  0  0  0  0  0  0  0  0
    2.8843   -3.3283    0.0000 C   0  0  0  0  0  0  0  0  0  0  0  0
    2.8843   -4.1533    0.0000 C   0  0  0  0  0  0  0  0  0  0  0  0
    3.5987   -4.5658    0.0000 C   0  0  0  0  0  0  0  0  0  0  0  0
    4.3132   -4.1533    0.0000 C   0  0  0  0  0  0  0  0  0  0  0  0
    5.0277   -4.5658    0.0000 O   0  0  0  0  0  0  0  0  0  0  0  0
    5.0277   -2.0908    0.0000 O   0  0  0  0  0  0  0  0  0  0  0  0
    2.1698   -4.5658    0.0000 O   0  0  0  0  0  0  0  0  0  0  0  0
    3.5987   -2.0908    0.0000 O   0  0  0  0  0  0  0  0  0  0  0  0
    6.4566   -4.5658    0.0000 C   0  0  0  0  0  0  0  0  0  0  0  0
    6.4566   -5.3908    0.0000 C   0  0  0  0  0  0  0  0  0  0  0  0
    7.1711   -5.8033    0.0000 C   0  0  0  0  0  0  0  0  0  0  0  0
    7.8856   -5.3908    0.0000 C   0  0  0  0  0  0  0  0  0  0  0  0
    7.8856   -4.5658    0.0000 C   0  0  0  0  0  0  0  0  0  0  0  0
    7.1711   -4.1533    0.0000 C   0  0  0  0  0  0  0  0  0  0  0  0
    8.6000   -4.1533    0.0000 C   0  0  0  0  0  0  0  0  0  0  0  0
    9.3145   -4.5658    0.0000 C   0  0  0  0  0  0  0  0  0  0  0  0
   10.0290   -4.1533    0.0000 C   0  0  0  0  0  0  0  0  0  0  0  0
   10.0290   -3.3283    0.0000 C   0  0  0  0  0  0  0  0  0  0  0  0
   10.7434   -4.5658    0.0000 C   0  0  0  0  0  0  0  0  0  0  0  0
    8.6000   -5.8033    0.0000 O   0  0  0  0  0  0  0  0  0  0  0  0
    7.1711   -6.6283    0.0000 O   0  0  0  0  0  0  0  0  0  0  0  0
  1  2  1  0  0  0  0
  2  3  1  0  0  0  0
  3  4  1  0  0  0  0
  4  5  1  0  0  0  0
  5  6  2  0  0  0  0
  6  7  1  0  0  0  0
  7  8  2  0  0  0  0
  8  9  1  0  0  0  0
  4  9  2  0  0  0  0
  9 10  1  0  0  0  0
  1 10  1  0  0  0  0
  3 11  2  0  0  0  0
  7 12  1  0  0  0  0
  5 13  1  0  0  0  0
 14 15  1  0  0  0  0
 15 16  2  0  0  0  0
 16 17  1  0  0  0  0
 17 18  2  0  0  0  0
 18 19  1  0  0  0  0
 14 19  2  0  0  0  0
 20 21  1  0  0  0  0
 21 22  2  0  0  0  0
 22 23  1  0  0  0  0
 22 24  1  0  0  0  0
 18 20  1  0  0  0  0
 17 25  1  0  0  0  0
 16 26  1  0  0  0  0
  1 14  1  1  0  0  0
M  END
>  <cdx:groupId>
82

>  <cdx:fragmentId>
5

$$$$
