7322.cdx
  Mrv1902 05222410212D          

 14 14  0  0  0  0            999 V2000
    5.8613   -5.6039    0.0000 C   0  0  0  0  0  0  0  0  0  0  0  0
    6.5758   -6.0164    0.0000 C   0  0  0  0  0  0  0  0  0  0  0  0
    6.5758   -6.8414    0.0000 C   0  0  0  0  0  0  0  0  0  0  0  0
    7.2902   -7.2539    0.0000 C   0  0  0  0  0  0  0  0  0  0  0  0
    8.0047   -6.8414    0.0000 C   0  0  0  0  0  0  0  0  0  0  0  0
    8.0047   -6.0164    0.0000 C   0  0  0  0  0  0  0  0  0  0  0  0
    7.2902   -5.6039    0.0000 C   0  0  0  0  0  0  0  0  0  0  0  0
    5.8613   -4.7789    0.0000 O   0  0  0  0  0  0  0  0  0  0  0  0
    5.1468   -6.0164    0.0000 O   0  0  0  0  0  0  0  0  0  0  0  0
    8.7192   -5.6039    0.0000 S   0  0  0  0  0  0  0  0  0  0  0  0
    9.1317   -6.3184    0.0000 O   0  0  0  0  0  0  0  0  0  0  0  0
    8.3067   -4.8895    0.0000 O   0  0  0  0  0  0  0  0  0  0  0  0
    9.4337   -5.1914    0.0000 O   0  0  0  0  0  0  0  0  0  0  0  0
    5.8613   -7.2539    0.0000 O   0  0  0  0  0  0  0  0  0  0  0  0
  1  2  1  0  0  0  0
  2  3  1  0  0  0  0
  3  4  2  0  0  0  0
  4  5  1  0  0  0  0
  5  6  2  0  0  0  0
  6  7  1  0  0  0  0
  2  7  2  0  0  0  0
  1  8  2  0  0  0  0
  1  9  1  0  0  0  0
 10 11  2  0  0  0  0
 10 12  2  0  0  0  0
 10 13  1  0  0  0  0
  6 10  1  0  0  0  0
  3 14  1  0  0  0  0
M  END
>  <cdx:fragmentId>
5

$$$$
