73253.cdx
  Mrv1902 05222410202D          

 22 24  0  0  0  0            999 V2000
    5.9627  -10.1836    0.0000 C   0  0  0  0  0  0  0  0  0  0  0  0
    5.9627  -11.0086    0.0000 C   0  0  0  0  0  0  0  0  0  0  0  0
    6.6772  -11.4211    0.0000 C   0  0  0  0  0  0  0  0  0  0  0  0
    7.3917  -11.0086    0.0000 C   0  0  0  0  0  0  0  0  0  0  0  0
    8.1061  -11.4211    0.0000 C   0  0  0  0  0  0  0  0  0  0  0  0
    8.8206  -11.0086    0.0000 C   0  0  0  0  0  0  0  0  0  0  0  0
    8.8206  -10.1836    0.0000 C   0  0  0  0  0  0  0  0  0  0  0  0
    8.1061   -9.7711    0.0000 C   0  0  0  0  0  0  0  0  0  0  0  0
    7.3917  -10.1836    0.0000 C   0  0  0  0  0  0  0  0  0  0  0  0
    6.6772   -9.7711    0.0000 O   0  0  0  0  0  0  0  0  0  0  0  0
    9.6052   -9.9286    0.0000 O   0  0  0  0  0  0  0  0  0  0  0  0
    9.6052  -11.2635    0.0000 C   0  0  0  0  0  0  0  0  0  0  0  0
   10.0902  -10.5961    0.0000 C   0  0  0  0  0  0  0  0  0  0  0  0
    5.2483   -9.7711    0.0000 O   0  0  0  0  0  0  0  0  0  0  0  0
    8.1061   -8.9461    0.0000 O   0  0  0  0  0  0  0  0  0  0  0  0
    8.8206   -8.5336    0.0000 C   0  0  0  0  0  0  0  0  0  0  0  0
    8.8206   -7.7086    0.0000 C   0  0  2  0  0  0  0  0  0  0  0  0
    9.5351   -7.2961    0.0000 C   0  0  0  0  0  0  0  0  0  0  0  0
    9.5351   -6.4711    0.0000 C   0  0  0  0  0  0  0  0  0  0  0  0
   10.2495   -7.7086    0.0000 C   0  0  0  0  0  0  0  0  0  0  0  0
   10.2495   -6.8836    0.0000 O   0  0  0  0  0  0  0  0  0  0  0  0
    8.1061   -7.2961    0.0000 O   0  0  0  0  0  0  0  0  0  0  0  0
  1  2  1  0  0  0  0
  2  3  2  0  0  0  0
  3  4  1  0  0  0  0
  4  5  2  0  0  0  0
  5  6  1  0  0  0  0
  6  7  2  0  0  0  0
  7  8  1  0  0  0  0
  8  9  2  0  0  0  0
  4  9  1  0  0  0  0
  9 10  1  0  0  0  0
  1 10  1  0  0  0  0
 12 13  2  0  0  0  0
 11 13  1  0  0  0  0
 12  6  1  0  0  0  0
 11  7  1  0  0  0  0
  1 14  2  0  0  0  0
 16 17  1  0  0  0  0
 17 18  1  0  0  0  0
 18 19  1  0  0  0  0
 15 16  1  0  0  0  0
 18 20  1  0  0  0  0
 18 21  1  0  0  0  0
 17 22  1  1  0  0  0
  8 15  1  0  0  0  0
M  END
>  <cdx:fragmentId>
5

$$$$
