73285.cdx
  Mrv1902 05222410212D          

 20 22  0  0  0  0            999 V2000
    6.6429   -2.6089    0.0000 O   0  0  0  0  0  0  0  0  0  0  0  0
    7.1278   -3.2763    0.0000 C   0  0  0  0  0  0  0  0  0  0  0  0
    6.6429   -3.9438    0.0000 C   0  0  0  0  0  0  0  0  0  0  0  0
    5.8583   -3.6888    0.0000 C   0  0  1  0  0  0  0  0  0  0  0  0
    5.1438   -4.1013    0.0000 C   0  0  0  0  0  0  0  0  0  0  0  0
    4.4294   -3.6888    0.0000 C   0  0  2  0  0  0  0  0  0  0  0  0
    4.4294   -2.8638    0.0000 C   0  0  1  0  0  0  0  0  0  0  0  0
    5.1438   -2.4513    0.0000 C   0  0  0  0  0  0  0  0  0  0  0  0
    5.8583   -2.8638    0.0000 C   0  0  1  0  0  0  0  0  0  0  0  0
    3.7149   -2.4513    0.0000 C   0  0  0  0  0  0  0  0  0  0  0  0
    3.0004   -2.8638    0.0000 C   0  0  0  0  0  0  0  0  0  0  0  0
    3.0004   -3.6888    0.0000 C   0  0  0  0  0  0  0  0  0  0  0  0
    3.7149   -4.1013    0.0000 C   0  0  0  0  0  0  0  0  0  0  0  0
    7.9528   -3.2763    0.0000 O   0  0  0  0  0  0  0  0  0  0  0  0
    3.7149   -4.9263    0.0000 C   0  0  0  0  0  0  0  0  0  0  0  0
    6.8979   -4.7284    0.0000 C   0  0  0  0  0  0  0  0  0  0  0  0
    4.4294   -2.0388    0.0000 C   0  0  0  0  0  0  0  0  0  0  0  0
    5.9445   -4.5093    0.0000 H   0  0  0  0  0  0  0  0  0  0  0  0
    4.4294   -4.5138    0.0000 H   0  0  0  0  0  0  0  0  0  0  0  0
    5.9445   -2.0433    0.0000 H   0  0  0  0  0  0  0  0  0  0  0  0
  1  2  1  0  0  0  0
  2  3  1  0  0  0  0
  3  4  1  0  0  0  0
  4  5  1  0  0  0  0
  5  6  1  0  0  0  0
  6  7  1  0  0  0  0
  7  8  1  0  0  0  0
  8  9  1  0  0  0  0
  4  9  1  0  0  0  0
  1  9  1  0  0  0  0
 10 11  1  0  0  0  0
 11 12  1  0  0  0  0
 12 13  1  0  0  0  0
 13  6  1  0  0  0  0
 10  7  1  0  0  0  0
  2 14  2  0  0  0  0
 13 15  2  0  0  0  0
  3 16  2  0  0  0  0
  7 17  1  1  0  0  0
  4 18  1  6  0  0  0
  6 19  1  6  0  0  0
  9 20  1  6  0  0  0
M  END
>  <cdx:groupId>
64

>  <cdx:fragmentId>
5

$$$$
