73299.cdx
  Mrv1902 05222410232D          

 37 41  0  0  0  0            999 V2000
    8.5679   -4.4223    0.0000 C   0  0  0  0  0  0  0  0  0  0  0  0
    9.2824   -4.0098    0.0000 C   0  0  0  0  0  0  0  0  0  0  0  0
    9.9969   -4.4223    0.0000 C   0  0  0  0  0  0  0  0  0  0  0  0
    9.9969   -5.2473    0.0000 C   0  0  0  0  0  0  0  0  0  0  0  0
    9.2824   -5.6598    0.0000 C   0  0  2  0  0  0  0  0  0  0  0  0
    9.2824   -6.4848    0.0000 C   0  0  0  0  0  0  0  0  0  0  0  0
    8.5679   -6.8973    0.0000 C   0  0  0  0  0  0  0  0  0  0  0  0
    7.8535   -6.4848    0.0000 C   0  0  1  0  0  0  0  0  0  0  0  0
    7.1390   -6.8973    0.0000 C   0  0  2  0  0  0  0  0  0  0  0  0
    7.1390   -7.7223    0.0000 C   0  0  0  0  0  0  0  0  0  0  0  0
    6.4245   -8.1348    0.0000 C   0  0  0  0  0  0  0  0  0  0  0  0
    5.7101   -7.7223    0.0000 C   0  0  1  0  0  0  0  0  0  0  0  0
    4.9956   -8.1348    0.0000 C   0  0  2  0  0  0  0  0  0  0  0  0
    4.2811   -7.7223    0.0000 C   0  0  2  0  0  0  0  0  0  0  0  0
    4.2811   -6.8973    0.0000 C   0  0  0  0  0  0  0  0  0  0  0  0
    4.9956   -6.4848    0.0000 C   0  0  0  0  0  0  0  0  0  0  0  0
    5.7101   -6.8973    0.0000 C   0  0  2  0  0  0  0  0  0  0  0  0
    6.4245   -6.4848    0.0000 C   0  0  1  0  0  0  0  0  0  0  0  0
    6.4245   -5.6598    0.0000 C   0  0  0  0  0  0  0  0  0  0  0  0
    7.1390   -5.2473    0.0000 C   0  0  0  0  0  0  0  0  0  0  0  0
    7.8535   -5.6598    0.0000 C   0  0  0  0  0  0  0  0  0  0  0  0
    8.5679   -5.2473    0.0000 C   0  0  2  0  0  0  0  0  0  0  0  0
    9.9969   -6.0723    0.0000 C   0  0  0  0  0  0  0  0  0  0  0  0
    9.9969   -6.8973    0.0000 O   0  0  0  0  0  0  0  0  0  0  0  0
   10.7114   -5.6598    0.0000 O   0  0  0  0  0  0  0  0  0  0  0  0
    5.7101   -6.0723    0.0000 C   0  0  0  0  0  0  0  0  0  0  0  0
    4.5831   -8.8492    0.0000 C   0  0  0  0  0  0  0  0  0  0  0  0
    7.8535   -7.3098    0.0000 C   0  0  0  0  0  0  0  0  0  0  0  0
    8.8699   -3.2953    0.0000 C   0  0  0  0  0  0  0  0  0  0  0  0
    9.6949   -3.2953    0.0000 C   0  0  0  0  0  0  0  0  0  0  0  0
    5.4081   -8.8492    0.0000 C   0  0  0  0  0  0  0  0  0  0  0  0
    4.9956   -9.5637    0.0000 O   0  0  0  0  0  0  0  0  0  0  0  0
    3.5666   -8.1348    0.0000 O   0  0  0  0  0  0  0  0  0  0  0  0
    5.7101   -8.5473    0.0000 H   0  0  0  0  0  0  0  0  0  0  0  0
    7.8535   -4.8348    0.0000 H   0  0  0  0  0  0  0  0  0  0  0  0
    7.1390   -6.0723    0.0000 C   0  0  0  0  0  0  0  0  0  0  0  0
    6.4245   -7.3098    0.0000 H   0  0  0  0  0  0  0  0  0  0  0  0
  1  2  1  0  0  0  0
  2  3  1  0  0  0  0
  3  4  1  0  0  0  0
  4  5  1  0  0  0  0
  5  6  1  0  0  0  0
  6  7  1  0  0  0  0
  7  8  1  0  0  0  0
  8  9  1  0  0  0  0
  9 10  1  0  0  0  0
 10 11  1  0  0  0  0
 11 12  1  0  0  0  0
 12 13  1  0  0  0  0
 13 14  1  0  0  0  0
 14 15  1  0  0  0  0
 15 16  1  0  0  0  0
 16 17  1  0  0  0  0
 12 17  1  0  0  0  0
 17 18  1  0  0  0  0
  9 18  1  0  0  0  0
 18 19  1  0  0  0  0
 19 20  1  0  0  0  0
 20 21  2  0  0  0  0
  8 21  1  0  0  0  0
 21 22  1  0  0  0  0
  5 22  1  0  0  0  0
  1 22  1  0  0  0  0
 23 24  2  0  0  0  0
 23 25  1  0  0  0  0
  5 23  1  1  0  0  0
 17 26  1  1  0  0  0
 13 27  1  1  0  0  0
  8 28  1  6  0  0  0
  2 29  1  0  0  0  0
  2 30  1  0  0  0  0
 31 32  1  0  0  0  0
 13 31  1  6  0  0  0
 14 33  1  1  0  0  0
 12 34  1  6  0  0  0
 22 35  1  1  0  0  0
  9 36  1  1  0  0  0
 18 37  1  6  0  0  0
M  END
>  <cdx:fragmentId>
5

$$$$
