733179.cdx
  Mrv1902 05222410272D          

 37 40  0  0  0  0            999 V2000
    5.7155   -6.9102    0.0000 C   0  0  0  0  0  0  0  0  0  0  0  0
    6.1297   -6.1968    0.0000 C   0  0  0  0  0  0  0  0  0  0  0  0
    5.7189   -5.4813    0.0000 C   0  0  0  0  0  0  0  0  0  0  0  0
    4.8939   -5.4793    0.0000 C   0  0  0  0  0  0  0  0  0  0  0  0
    4.4797   -6.1928    0.0000 C   0  0  0  0  0  0  0  0  0  0  0  0
    4.8905   -6.9082    0.0000 C   0  0  0  0  0  0  0  0  0  0  0  0
    4.4832   -4.7638    0.0000 O   0  0  0  0  0  0  0  0  0  0  0  0
    6.1332   -4.7678    0.0000 O   0  0  0  0  0  0  0  0  0  0  0  0
    7.3655   -6.9142    0.0000 C   0  0  0  0  0  0  0  0  0  0  0  0
    8.1905   -6.9162    0.0000 C   0  0  0  0  0  0  0  0  0  0  0  0
    9.0155   -6.9182    0.0000 C   0  0  0  0  0  0  0  0  0  0  0  0
    9.8405   -6.9202    0.0000 C   0  0  0  0  0  0  0  0  0  0  0  0
   10.2547   -6.2067    0.0000 C   0  0  0  0  0  0  0  0  0  0  0  0
   11.0797   -6.2087    0.0000 C   0  0  0  0  0  0  0  0  0  0  0  0
   11.4905   -6.9242    0.0000 C   0  0  0  0  0  0  0  0  0  0  0  0
   11.0762   -7.6376    0.0000 C   0  0  0  0  0  0  0  0  0  0  0  0
   10.2512   -7.6357    0.0000 C   0  0  0  0  0  0  0  0  0  0  0  0
   12.3155   -6.9262    0.0000 O   0  0  0  0  0  0  0  0  0  0  0  0
   11.4939   -5.4952    0.0000 O   0  0  0  0  0  0  0  0  0  0  0  0
    5.2978   -9.0526    0.0000 H   0  0  0  0  0  0  0  0  0  0  0  0
    7.7728   -9.0586    0.0000 H   0  0  0  0  0  0  0  0  0  0  0  0
    6.9409  -11.9145    0.0000 O   0  0  0  0  0  0  0  0  0  0  0  0
    7.3551  -11.2010    0.0000 C   0  0  0  0  0  0  0  0  0  0  0  0
    4.8836   -9.7661    0.0000 O   0  0  0  0  0  0  0  0  0  0  0  0
    5.7051  -11.1971    0.0000 O   0  0  0  0  0  0  0  0  0  0  0  0
    7.3586   -9.7721    0.0000 O   0  0  0  0  0  0  0  0  0  0  0  0
    6.9444  -10.4856    0.0000 C   0  0  1  0  0  0  0  0  0  0  0  0
    6.1194  -10.4836    0.0000 C   0  0  2  0  0  0  0  0  0  0  0  0
    5.7086   -9.7681    0.0000 C   0  0  1  0  0  0  0  0  0  0  0  0
    6.9513   -7.6277    0.0000 C   0  0  2  0  0  0  0  0  0  0  0  0
    6.1263   -7.6257    0.0000 C   0  0  1  0  0  0  0  0  0  0  0  0
    5.7120   -8.3392    0.0000 O   0  0  0  0  0  0  0  0  0  0  0  0
    6.1228   -9.0546    0.0000 C   0  0  1  0  0  0  0  0  0  0  0  0
    6.9478   -9.0566    0.0000 C   0  0  2  0  0  0  0  0  0  0  0  0
    7.3620   -8.3432    0.0000 O   0  0  0  0  0  0  0  0  0  0  0  0
    5.3013   -7.6257    0.0000 H   0  0  0  0  0  0  0  0  0  0  0  0
    7.7763   -7.6277    0.0000 H   0  0  0  0  0  0  0  0  0  0  0  0
 33 20  1  6  0  0  0
 34 21  1  1  0  0  0
 31  1  1  0  0  0  0
 30  9  1  0  0  0  0
 27 23  1  6  0  0  0
 23 22  1  0  0  0  0
 29 24  1  6  0  0  0
 28 25  1  1  0  0  0
 29 33  1  0  0  0  0
 26 34  1  0  0  0  0
 27 26  1  0  0  0  0
 28 27  1  0  0  0  0
 29 28  1  0  0  0  0
 35 30  1  0  0  0  0
 31 30  1  0  0  0  0
 32 31  1  0  0  0  0
 33 32  1  0  0  0  0
 34 33  1  0  0  0  0
 35 34  1  0  0  0  0
  1  2  1  0  0  0  0
  2  3  2  0  0  0  0
  3  4  1  0  0  0  0
  4  5  2  0  0  0  0
  5  6  1  0  0  0  0
  1  6  2  0  0  0  0
  4  7  1  0  0  0  0
  3  8  1  0  0  0  0
  9 10  1  0  0  0  0
 10 11  3  0  0  0  0
 12 13  1  0  0  0  0
 13 14  2  0  0  0  0
 14 15  1  0  0  0  0
 15 16  2  0  0  0  0
 16 17  1  0  0  0  0
 12 17  2  0  0  0  0
 15 18  1  0  0  0  0
 14 19  1  0  0  0  0
 11 12  1  0  0  0  0
 31 36  1  6  0  0  0
 30 37  1  6  0  0  0
M  END
>  <cdx:fragmentId>
336

$$$$
