73336.cdx
  Mrv1902 05222410222D          

 27 30  0  0  0  0            999 V2000
    8.8043   -7.6455    0.0000 N   0  3  0  0  0  0  0  0  0  0  0  0
    9.5186   -7.2328    0.0000 C   0  0  0  0  0  0  0  0  0  0  0  0
    9.5189   -6.4078    0.0000 C   0  0  0  0  0  0  0  0  0  0  0  0
    8.8048   -5.9946    0.0000 C   0  0  0  0  0  0  0  0  0  0  0  0
    8.0903   -6.4071    0.0000 C   0  0  0  0  0  0  0  0  0  0  0  0
    7.3759   -5.9946    0.0000 C   0  0  0  0  0  0  0  0  0  0  0  0
    6.6614   -6.4071    0.0000 C   0  0  0  0  0  0  0  0  0  0  0  0
    6.6614   -7.2321    0.0000 C   0  0  0  0  0  0  0  0  0  0  0  0
    7.3759   -7.6446    0.0000 C   0  0  0  0  0  0  0  0  0  0  0  0
    8.0903   -7.2321    0.0000 C   0  0  2  0  0  0  0  0  0  0  0  0
    7.3759   -5.1696    0.0000 C   0  0  0  0  0  0  0  0  0  0  0  0
    8.0903   -4.7571    0.0000 C   0  0  0  0  0  0  0  0  0  0  0  0
    8.8048   -5.1696    0.0000 C   0  0  0  0  0  0  0  0  0  0  0  0
    5.9469   -7.6446    0.0000 C   0  0  0  0  0  0  0  0  0  0  0  0
    5.2324   -7.2321    0.0000 C   0  0  0  0  0  0  0  0  0  0  0  0
    5.2324   -6.4071    0.0000 C   0  0  0  0  0  0  0  0  0  0  0  0
    5.9469   -5.9946    0.0000 C   0  0  0  0  0  0  0  0  0  0  0  0
    6.6614   -4.7571    0.0000 O   0  0  0  0  0  0  0  0  0  0  0  0
    5.9469   -5.1696    0.0000 O   0  0  0  0  0  0  0  0  0  0  0  0
    8.3918   -8.3600    0.0000 C   0  0  0  0  0  0  0  0  0  0  0  0
    9.2168   -8.3600    0.0000 C   0  0  0  0  0  0  0  0  0  0  0  0
    4.5180   -5.9946    0.0000 O   0  0  0  0  0  0  0  0  0  0  0  0
    3.8035   -6.4071    0.0000 C   0  0  0  0  0  0  0  0  0  0  0  0
    8.0903   -3.9321    0.0000 O   0  0  0  0  0  0  0  0  0  0  0  0
    8.8048   -3.5196    0.0000 C   0  0  0  0  0  0  0  0  0  0  0  0
    8.0903   -8.0571    0.0000 H   0  0  0  0  0  0  0  0  0  0  0  0
    6.6614   -3.9321    0.0000 C   0  0  0  0  0  0  0  0  0  0  0  0
  1  2  1  0  0  0  0
  2  3  1  0  0  0  0
  3  4  1  0  0  0  0
  4  5  1  0  0  0  0
  5  6  2  0  0  0  0
  6  7  1  0  0  0  0
  7  8  1  0  0  0  0
  8  9  1  0  0  0  0
  9 10  1  0  0  0  0
  1 10  1  0  0  0  0
  5 10  1  0  0  0  0
 11 12  2  0  0  0  0
 12 13  1  0  0  0  0
 13  4  2  0  0  0  0
 11  6  1  0  0  0  0
 14 15  1  0  0  0  0
 15 16  2  0  0  0  0
 16 17  1  0  0  0  0
 17  7  2  0  0  0  0
 14  8  2  0  0  0  0
 11 18  1  0  0  0  0
 17 19  1  0  0  0  0
  1 20  1  0  0  0  0
  1 21  1  0  0  0  0
 22 23  1  0  0  0  0
 16 22  1  0  0  0  0
 24 25  1  0  0  0  0
 12 24  1  0  0  0  0
 10 26  1  6  0  0  0
 18 27  1  0  0  0  0
M  CHG  1   1   1
M  END
>  <cdx:fragmentId>
5

$$$$
