73330.cdx
  Mrv1902 05222410212D          

 47 51  0  0  0  0            999 V2000
    9.3755   -3.8328    0.0000 C   0  0  0  0  0  0  0  0  0  0  0  0
   10.0863   -3.4140    0.0000 C   0  0  0  0  0  0  0  0  0  0  0  0
   10.0790   -2.5890    0.0000 C   0  0  0  0  0  0  0  0  0  0  0  0
   10.7898   -2.1702    0.0000 C   0  0  0  0  0  0  0  0  0  0  0  0
   11.5079   -2.5763    0.0000 C   0  0  0  0  0  0  0  0  0  0  0  0
   11.5152   -3.4013    0.0000 C   0  0  0  0  0  0  0  0  0  0  0  0
   10.8044   -3.8201    0.0000 C   0  0  0  0  0  0  0  0  0  0  0  0
    9.3829   -4.6578    0.0000 O   0  0  0  0  0  0  0  0  0  0  0  0
    8.6574   -3.4267    0.0000 O   0  0  0  0  0  0  0  0  0  0  0  0
   12.2333   -3.8074    0.0000 O   0  0  0  0  0  0  0  0  0  0  0  0
   12.2186   -2.1575    0.0000 O   0  0  0  0  0  0  0  0  0  0  0  0
   10.7824   -1.3452    0.0000 O   0  0  0  0  0  0  0  0  0  0  0  0
    3.6453   -5.4527    0.0000 C   0  0  0  0  0  0  0  0  0  0  0  0
    4.1342   -6.1172    0.0000 C   0  0  0  0  0  0  0  0  0  0  0  0
    3.6189   -6.7614    0.0000 C   0  0  0  0  0  0  0  0  0  0  0  0
    3.9192   -7.5299    0.0000 C   0  0  0  0  0  0  0  0  0  0  0  0
    4.7348   -7.6540    0.0000 C   0  0  0  0  0  0  0  0  0  0  0  0
    5.2501   -7.0097    0.0000 C   0  0  0  0  0  0  0  0  0  0  0  0
    4.9498   -6.2413    0.0000 C   0  0  0  0  0  0  0  0  0  0  0  0
    5.6143   -5.7524    0.0000 C   0  0  0  0  0  0  0  0  0  0  0  0
    5.7385   -4.9368    0.0000 O   0  0  0  0  0  0  0  0  0  0  0  0
    6.5215   -4.6771    0.0000 C   0  0  1  0  0  0  0  0  0  0  0  0
    7.2385   -5.0853    0.0000 C   0  0  1  0  0  0  0  0  0  0  0  0
    7.9504   -4.6685    0.0000 C   0  0  2  0  0  0  0  0  0  0  0  0
    7.9455   -3.8435    0.0000 C   0  0  1  0  0  0  0  0  0  0  0  0
    7.2285   -3.4353    0.0000 O   0  0  0  0  0  0  0  0  0  0  0  0
    6.5165   -3.8521    0.0000 C   0  0  2  0  0  0  0  0  0  0  0  0
    5.7304   -3.6019    0.0000 C   0  0  0  0  0  0  0  0  0  0  0  0
    5.2495   -4.2723    0.0000 O   0  0  0  0  0  0  0  0  0  0  0  0
    4.4339   -4.1481    0.0000 C   0  0  0  0  0  0  0  0  0  0  0  0
    3.7694   -4.6371    0.0000 C   0  0  0  0  0  0  0  0  0  0  0  0
    3.1251   -4.1218    0.0000 C   0  0  0  0  0  0  0  0  0  0  0  0
    2.3567   -4.4221    0.0000 C   0  0  0  0  0  0  0  0  0  0  0  0
    2.2326   -5.2377    0.0000 C   0  0  0  0  0  0  0  0  0  0  0  0
    2.8769   -5.7530    0.0000 C   0  0  0  0  0  0  0  0  0  0  0  0
    4.2133   -3.3532    0.0000 O   0  0  0  0  0  0  0  0  0  0  0  0
    6.3203   -6.1792    0.0000 O   0  0  0  0  0  0  0  0  0  0  0  0
    2.4812   -6.4769    0.0000 O   0  0  0  0  0  0  0  0  0  0  0  0
    1.4642   -5.5380    0.0000 O   0  0  0  0  0  0  0  0  0  0  0  0
    1.7125   -3.9067    0.0000 O   0  0  0  0  0  0  0  0  0  0  0  0
    8.6674   -5.0767    0.0000 O   0  0  0  0  0  0  0  0  0  0  0  0
    7.2434   -5.9103    0.0000 O   0  0  0  0  0  0  0  0  0  0  0  0
    5.0351   -8.4224    0.0000 O   0  0  0  0  0  0  0  0  0  0  0  0
    3.4039   -8.1741    0.0000 O   0  0  0  0  0  0  0  0  0  0  0  0
    2.8100   -6.9237    0.0000 O   0  0  0  0  0  0  0  0  0  0  0  0
    6.4402   -5.4981    0.0000 H   0  0  0  0  0  0  0  0  0  0  0  0
    6.4254   -3.0322    0.0000 H   0  0  0  0  0  0  0  0  0  0  0  0
  1  2  1  0  0  0  0
  2  3  1  0  0  0  0
  3  4  2  0  0  0  0
  4  5  1  0  0  0  0
  5  6  2  0  0  0  0
  6  7  1  0  0  0  0
  2  7  2  0  0  0  0
  1  8  2  0  0  0  0
  1  9  1  0  0  0  0
  6 10  1  0  0  0  0
  5 11  1  0  0  0  0
  4 12  1  0  0  0  0
 13 14  1  0  0  0  0
 14 15  2  0  0  0  0
 15 16  1  0  0  0  0
 16 17  2  0  0  0  0
 17 18  1  0  0  0  0
 18 19  2  0  0  0  0
 19 20  1  0  0  0  0
 20 21  1  0  0  0  0
 21 22  1  0  0  0  0
 22 23  1  0  0  0  0
 23 24  1  0  0  0  0
 24 25  1  0  0  0  0
 25 26  1  0  0  0  0
 26 27  1  0  0  0  0
 27 28  1  0  0  0  0
 28 29  1  0  0  0  0
 29 30  1  0  0  0  0
 30 31  1  0  0  0  0
 31 32  2  0  0  0  0
 32 33  1  0  0  0  0
 33 34  2  0  0  0  0
 34 35  1  0  0  0  0
 13 35  2  0  0  0  0
 13 31  1  0  0  0  0
 22 27  1  0  0  0  0
 14 19  1  0  0  0  0
 30 36  2  0  0  0  0
 20 37  2  0  0  0  0
 35 38  1  0  0  0  0
 34 39  1  0  0  0  0
 33 40  1  0  0  0  0
 24 41  1  6  0  0  0
 23 42  1  1  0  0  0
 17 43  1  0  0  0  0
 16 44  1  0  0  0  0
 15 45  1  0  0  0  0
 25  9  1  1  0  0  0
 22 46  1  1  0  0  0
 27 47  1  6  0  0  0
M  END
>  <cdx:fragmentId>
29

$$$$
