73338.cdx
  Mrv1902 05222410242D          

 26 29  0  0  0  0            999 V2000
    6.6318   -6.1605    0.0000 N   0  3  0  0  0  0  0  0  0  0  0  0
    7.3461   -5.7478    0.0000 C   0  0  0  0  0  0  0  0  0  0  0  0
    7.3464   -4.9228    0.0000 C   0  0  0  0  0  0  0  0  0  0  0  0
    6.6323   -4.5096    0.0000 C   0  0  0  0  0  0  0  0  0  0  0  0
    5.9178   -4.9221    0.0000 C   0  0  0  0  0  0  0  0  0  0  0  0
    5.2034   -4.5096    0.0000 C   0  0  0  0  0  0  0  0  0  0  0  0
    4.4889   -4.9221    0.0000 C   0  0  0  0  0  0  0  0  0  0  0  0
    4.4889   -5.7471    0.0000 C   0  0  0  0  0  0  0  0  0  0  0  0
    5.2034   -6.1596    0.0000 C   0  0  0  0  0  0  0  0  0  0  0  0
    5.9178   -5.7471    0.0000 C   0  0  2  0  0  0  0  0  0  0  0  0
    5.2034   -3.6846    0.0000 C   0  0  0  0  0  0  0  0  0  0  0  0
    5.9178   -3.2721    0.0000 C   0  0  0  0  0  0  0  0  0  0  0  0
    6.6323   -3.6846    0.0000 C   0  0  0  0  0  0  0  0  0  0  0  0
    3.7744   -6.1596    0.0000 C   0  0  0  0  0  0  0  0  0  0  0  0
    3.0599   -5.7471    0.0000 C   0  0  0  0  0  0  0  0  0  0  0  0
    3.0599   -4.9221    0.0000 C   0  0  0  0  0  0  0  0  0  0  0  0
    3.7744   -4.5096    0.0000 C   0  0  0  0  0  0  0  0  0  0  0  0
    4.4889   -3.2721    0.0000 O   0  0  0  0  0  0  0  0  0  0  0  0
    6.2193   -6.8750    0.0000 C   0  0  0  0  0  0  0  0  0  0  0  0
    7.0443   -6.8750    0.0000 C   0  0  0  0  0  0  0  0  0  0  0  0
    2.3455   -4.5096    0.0000 O   0  0  0  0  0  0  0  0  0  0  0  0
    1.6310   -4.9221    0.0000 C   0  0  0  0  0  0  0  0  0  0  0  0
    5.9178   -2.4471    0.0000 O   0  0  0  0  0  0  0  0  0  0  0  0
    6.6323   -2.0346    0.0000 C   0  0  0  0  0  0  0  0  0  0  0  0
    5.9178   -6.5721    0.0000 H   0  0  0  0  0  0  0  0  0  0  0  0
    2.3455   -6.1596    0.0000 O   0  0  0  0  0  0  0  0  0  0  0  0
  1  2  1  0  0  0  0
  2  3  1  0  0  0  0
  3  4  1  0  0  0  0
  4  5  1  0  0  0  0
  5  6  2  0  0  0  0
  6  7  1  0  0  0  0
  7  8  1  0  0  0  0
  8  9  1  0  0  0  0
  9 10  1  0  0  0  0
  1 10  1  0  0  0  0
  5 10  1  0  0  0  0
 11 12  2  0  0  0  0
 12 13  1  0  0  0  0
 13  4  2  0  0  0  0
 11  6  1  0  0  0  0
 14 15  1  0  0  0  0
 15 16  2  0  0  0  0
 16 17  1  0  0  0  0
 17  7  2  0  0  0  0
 14  8  2  0  0  0  0
 11 18  1  0  0  0  0
  1 19  1  0  0  0  0
  1 20  1  0  0  0  0
 21 22  1  0  0  0  0
 16 21  1  0  0  0  0
 23 24  1  0  0  0  0
 12 23  1  0  0  0  0
 10 25  1  6  0  0  0
 15 26  1  0  0  0  0
M  CHG  1   1   1
M  END
>  <cdx:fragmentId>
5

$$$$
