7334.cdx
  Mrv1902 05222410212D          

 14 14  0  0  0  0            999 V2000
    5.4549   -3.3235    0.0000 C   0  0  0  0  0  0  0  0  0  0  0  0
    5.0424   -2.6091    0.0000 C   0  0  0  0  0  0  0  0  0  0  0  0
    4.6299   -3.3235    0.0000 C   0  0  0  0  0  0  0  0  0  0  0  0
    6.1694   -3.7360    0.0000 C   0  0  0  0  0  0  0  0  0  0  0  0
    6.1694   -4.5610    0.0000 O   0  0  0  0  0  0  0  0  0  0  0  0
    6.8838   -3.3235    0.0000 O   0  0  0  0  0  0  0  0  0  0  0  0
    3.9154   -3.7360    0.0000 C   0  0  0  0  0  0  0  0  0  0  0  0
    3.2009   -3.3235    0.0000 C   0  0  0  0  0  0  0  0  0  0  0  0
    3.2009   -2.4985    0.0000 C   0  0  0  0  0  0  0  0  0  0  0  0
    2.4865   -3.7360    0.0000 C   0  0  0  0  0  0  0  0  0  0  0  0
    5.4549   -1.8946    0.0000 C   0  0  0  0  0  0  0  0  0  0  0  0
    4.6299   -1.8946    0.0000 C   0  0  0  0  0  0  0  0  0  0  0  0
    7.5983   -3.7360    0.0000 C   0  0  0  0  0  0  0  0  0  0  0  0
    8.3128   -3.3235    0.0000 C   0  0  0  0  0  0  0  0  0  0  0  0
  1  2  1  0  0  0  0
  2  3  1  0  0  0  0
  1  3  1  0  0  0  0
  4  5  2  0  0  0  0
  4  6  1  0  0  0  0
  1  4  1  0  0  0  0
  7  8  2  0  0  0  0
  8  9  1  0  0  0  0
  8 10  1  0  0  0  0
  3  7  1  0  0  0  0
  2 11  1  0  0  0  0
  2 12  1  0  0  0  0
 13 14  1  0  0  0  0
  6 13  1  0  0  0  0
M  END
>  <cdx:groupId>
44

>  <cdx:fragmentId>
5

$$$$
