73391.cdx
  Mrv1902 05222410192D          

 28 32  0  0  0  0            999 V2000
    7.2672   -6.4185    0.0000 C   0  0  0  0  0  0  0  0  0  0  0  0
    7.9817   -6.0060    0.0000 C   0  0  0  0  0  0  0  0  0  0  0  0
    8.1532   -5.1990    0.0000 N   0  0  0  0  0  0  0  0  0  0  0  0
    8.9737   -5.1128    0.0000 C   0  0  0  0  0  0  0  0  0  0  0  0
    9.4586   -4.4454    0.0000 C   0  0  0  0  0  0  0  0  0  0  0  0
   10.2791   -4.5316    0.0000 C   0  0  0  0  0  0  0  0  0  0  0  0
   10.6146   -5.2853    0.0000 C   0  0  0  0  0  0  0  0  0  0  0  0
   10.1297   -5.9527    0.0000 C   0  0  0  0  0  0  0  0  0  0  0  0
    9.3092   -5.8665    0.0000 C   0  0  0  0  0  0  0  0  0  0  0  0
    8.6961   -6.4185    0.0000 C   0  0  0  0  0  0  0  0  0  0  0  0
    8.6961   -7.2435    0.0000 C   0  0  0  0  0  0  0  0  0  0  0  0
    7.9817   -7.6560    0.0000 C   0  0  0  0  0  0  0  0  0  0  0  0
    7.2672   -7.2435    0.0000 N   0  3  0  0  0  0  0  0  0  0  0  0
    6.5527   -7.6560    0.0000 C   0  0  0  0  0  0  0  0  0  0  0  0
    5.8383   -7.2435    0.0000 C   0  0  2  0  0  0  0  0  0  0  0  0
    5.1238   -7.6560    0.0000 C   0  0  1  0  0  0  0  0  0  0  0  0
    4.4093   -7.2435    0.0000 O   0  0  0  0  0  0  0  0  0  0  0  0
    4.4093   -6.4185    0.0000 C   0  0  0  0  0  0  0  0  0  0  0  0
    5.1238   -6.0060    0.0000 C   0  0  0  0  0  0  0  0  0  0  0  0
    5.8383   -6.4185    0.0000 C   0  0  1  0  0  0  0  0  0  0  0  0
    6.5527   -6.0060    0.0000 C   0  0  0  0  0  0  0  0  0  0  0  0
    5.1238   -5.1810    0.0000 C   0  0  0  0  0  0  0  0  0  0  0  0
    5.8383   -4.7685    0.0000 O   0  0  0  0  0  0  0  0  0  0  0  0
    4.4093   -4.7685    0.0000 O   0  0  0  0  0  0  0  0  0  0  0  0
    5.1238   -8.4810    0.0000 C   0  0  0  0  0  0  0  0  0  0  0  0
    5.8383   -8.0685    0.0000 H   0  0  0  0  0  0  0  0  0  0  0  0
    5.8383   -5.5935    0.0000 H   0  0  0  0  0  0  0  0  0  0  0  0
    4.4093   -3.9435    0.0000 C   0  0  0  0  0  0  0  0  0  0  0  0
  1  2  1  0  0  0  0
  2  3  1  0  0  0  0
  3  4  1  0  0  0  0
  4  5  2  0  0  0  0
  5  6  1  0  0  0  0
  6  7  2  0  0  0  0
  7  8  1  0  0  0  0
  8  9  2  0  0  0  0
  9 10  1  0  0  0  0
 10 11  1  0  0  0  0
 11 12  2  0  0  0  0
 12 13  1  0  0  0  0
 13 14  1  0  0  0  0
 14 15  1  0  0  0  0
 15 16  1  0  0  0  0
 16 17  1  0  0  0  0
 17 18  1  0  0  0  0
 18 19  2  0  0  0  0
 19 20  1  0  0  0  0
 20 21  1  0  0  0  0
  1 21  1  0  0  0  0
  1 13  2  0  0  0  0
 15 20  1  0  0  0  0
  2 10  2  0  0  0  0
  4  9  1  0  0  0  0
 22 23  2  0  0  0  0
 22 24  1  0  0  0  0
 19 22  1  0  0  0  0
 16 25  1  6  0  0  0
 15 26  1  1  0  0  0
 20 27  1  6  0  0  0
 24 28  1  0  0  0  0
M  CHG  1  13   1
M  END
>  <cdx:groupId>
327

>  <cdx:fragmentId>
242

$$$$
