73402.cdx
  Mrv1902 05222410262D          

 28 31  0  0  0  0            999 V2000
    5.4744   -8.3709    0.0000 C   0  0  0  0  0  0  0  0  0  0  0  0
    4.9223   -7.7578    0.0000 C   0  0  0  0  0  0  0  0  0  0  0  0
    5.1773   -6.9731    0.0000 C   0  0  0  0  0  0  0  0  0  0  0  0
    5.9842   -6.8016    0.0000 C   0  0  0  0  0  0  0  0  0  0  0  0
    6.5363   -7.4147    0.0000 C   0  0  0  0  0  0  0  0  0  0  0  0
    6.2813   -8.1993    0.0000 C   0  0  0  0  0  0  0  0  0  0  0  0
    5.2194   -9.1555    0.0000 O   0  0  0  0  0  0  0  0  0  0  0  0
    4.1153   -7.9293    0.0000 O   0  0  0  0  0  0  0  0  0  0  0  0
    3.5320   -7.3459    0.0000 C   0  0  0  0  0  0  0  0  0  0  0  0
    5.7542   -5.3496    0.0000 O   0  0  0  0  0  0  0  0  0  0  0  0
    6.2392   -4.6821    0.0000 C   0  0  0  0  0  0  0  0  0  0  0  0
    7.0238   -4.9371    0.0000 C   0  0  2  0  0  0  0  0  0  0  0  0
    7.0238   -5.7621    0.0000 C   0  0  2  0  0  0  0  0  0  0  0  0
    6.2392   -6.0170    0.0000 C   0  0  1  0  0  0  0  0  0  0  0  0
    8.2933   -5.3496    0.0000 O   0  0  0  0  0  0  0  0  0  0  0  0
    7.8084   -4.6821    0.0000 C   0  0  1  0  0  0  0  0  0  0  0  0
    7.8084   -6.0170    0.0000 C   0  0  0  0  0  0  0  0  0  0  0  0
    8.0634   -3.8975    0.0000 C   0  0  0  0  0  0  0  0  0  0  0  0
    8.8703   -3.7260    0.0000 C   0  0  0  0  0  0  0  0  0  0  0  0
    9.1253   -2.9413    0.0000 C   0  0  0  0  0  0  0  0  0  0  0  0
    8.5732   -2.3282    0.0000 C   0  0  0  0  0  0  0  0  0  0  0  0
    7.7663   -2.4998    0.0000 C   0  0  0  0  0  0  0  0  0  0  0  0
    7.5113   -3.2844    0.0000 C   0  0  0  0  0  0  0  0  0  0  0  0
    9.9322   -2.7698    0.0000 O   0  0  0  0  0  0  0  0  0  0  0  0
   10.4843   -3.3829    0.0000 C   0  0  0  0  0  0  0  0  0  0  0  0
    8.8282   -1.5436    0.0000 O   0  0  0  0  0  0  0  0  0  0  0  0
    7.0238   -6.5871    0.0000 H   0  0  0  0  0  0  0  0  0  0  0  0
    7.0238   -4.1121    0.0000 H   0  0  0  0  0  0  0  0  0  0  0  0
  1  2  1  0  0  0  0
  2  3  2  0  0  0  0
  3  4  1  0  0  0  0
  4  5  2  0  0  0  0
  5  6  1  0  0  0  0
  1  6  2  0  0  0  0
  1  7  1  0  0  0  0
  8  9  1  0  0  0  0
  2  8  1  0  0  0  0
 10 11  1  0  0  0  0
 11 12  1  0  0  0  0
 12 13  1  0  0  0  0
 13 14  1  0  0  0  0
 10 14  1  0  0  0  0
 15 16  1  0  0  0  0
 15 17  1  0  0  0  0
 16 12  1  0  0  0  0
 17 13  1  0  0  0  0
 18 19  1  0  0  0  0
 19 20  2  0  0  0  0
 20 21  1  0  0  0  0
 21 22  2  0  0  0  0
 22 23  1  0  0  0  0
 18 23  2  0  0  0  0
 24 25  1  0  0  0  0
 20 24  1  0  0  0  0
 21 26  1  0  0  0  0
 16 18  1  6  0  0  0
 14  4  1  1  0  0  0
 13 27  1  6  0  0  0
 12 28  1  6  0  0  0
M  END
>  <cdx:fragmentId>
39

$$$$
