73401.cdx
  Mrv1902 05222410272D          

 28 31  0  0  0  0            999 V2000
    5.4744  -10.7634    0.0000 C   0  0  0  0  0  0  0  0  0  0  0  0
    4.9223  -10.1503    0.0000 C   0  0  0  0  0  0  0  0  0  0  0  0
    5.1773   -9.3656    0.0000 C   0  0  0  0  0  0  0  0  0  0  0  0
    5.9842   -9.1941    0.0000 C   0  0  0  0  0  0  0  0  0  0  0  0
    6.5363   -9.8072    0.0000 C   0  0  0  0  0  0  0  0  0  0  0  0
    6.2813  -10.5918    0.0000 C   0  0  0  0  0  0  0  0  0  0  0  0
    5.2194  -11.5480    0.0000 O   0  0  0  0  0  0  0  0  0  0  0  0
    4.1153  -10.3218    0.0000 O   0  0  0  0  0  0  0  0  0  0  0  0
    3.5320   -9.7384    0.0000 C   0  0  0  0  0  0  0  0  0  0  0  0
    5.7542   -7.7421    0.0000 O   0  0  0  0  0  0  0  0  0  0  0  0
    6.2392   -7.0746    0.0000 C   0  0  0  0  0  0  0  0  0  0  0  0
    7.0238   -7.3296    0.0000 C   0  0  1  0  0  0  0  0  0  0  0  0
    7.0238   -8.1546    0.0000 C   0  0  1  0  0  0  0  0  0  0  0  0
    6.2392   -8.4095    0.0000 C   0  0  1  0  0  0  0  0  0  0  0  0
    8.2933   -7.7421    0.0000 O   0  0  0  0  0  0  0  0  0  0  0  0
    7.8084   -7.0746    0.0000 C   0  0  1  0  0  0  0  0  0  0  0  0
    7.8084   -8.4095    0.0000 C   0  0  0  0  0  0  0  0  0  0  0  0
    8.0634   -6.2900    0.0000 C   0  0  0  0  0  0  0  0  0  0  0  0
    8.8703   -6.1185    0.0000 C   0  0  0  0  0  0  0  0  0  0  0  0
    9.1253   -5.3338    0.0000 C   0  0  0  0  0  0  0  0  0  0  0  0
    8.5732   -4.7207    0.0000 C   0  0  0  0  0  0  0  0  0  0  0  0
    7.7663   -4.8923    0.0000 C   0  0  0  0  0  0  0  0  0  0  0  0
    7.5113   -5.6769    0.0000 C   0  0  0  0  0  0  0  0  0  0  0  0
    9.9322   -5.1623    0.0000 O   0  0  0  0  0  0  0  0  0  0  0  0
   10.4843   -5.7754    0.0000 C   0  0  0  0  0  0  0  0  0  0  0  0
    8.8282   -3.9361    0.0000 O   0  0  0  0  0  0  0  0  0  0  0  0
    7.0238   -8.9796    0.0000 H   0  0  0  0  0  0  0  0  0  0  0  0
    7.0238   -6.5046    0.0000 H   0  0  0  0  0  0  0  0  0  0  0  0
  1  2  1  0  0  0  0
  2  3  2  0  0  0  0
  3  4  1  0  0  0  0
  4  5  2  0  0  0  0
  5  6  1  0  0  0  0
  1  6  2  0  0  0  0
  1  7  1  0  0  0  0
  8  9  1  0  0  0  0
  2  8  1  0  0  0  0
 10 11  1  0  0  0  0
 11 12  1  0  0  0  0
 12 13  1  0  0  0  0
 13 14  1  0  0  0  0
 10 14  1  0  0  0  0
 15 16  1  0  0  0  0
 15 17  1  0  0  0  0
 16 12  1  0  0  0  0
 17 13  1  0  0  0  0
 18 19  1  0  0  0  0
 19 20  2  0  0  0  0
 20 21  1  0  0  0  0
 21 22  2  0  0  0  0
 22 23  1  0  0  0  0
 18 23  2  0  0  0  0
 24 25  1  0  0  0  0
 20 24  1  0  0  0  0
 21 26  1  0  0  0  0
 16 18  1  6  0  0  0
 14  4  1  1  0  0  0
 13 27  1  1  0  0  0
 12 28  1  1  0  0  0
M  END
>  <cdx:fragmentId>
39

$$$$
