73400.cdx
  Mrv1902 05222410262D          

 28 31  0  0  0  0            999 V2000
    5.9694  -10.4059    0.0000 C   0  0  0  0  0  0  0  0  0  0  0  0
    5.4173   -9.7928    0.0000 C   0  0  0  0  0  0  0  0  0  0  0  0
    5.6723   -9.0081    0.0000 C   0  0  0  0  0  0  0  0  0  0  0  0
    6.4792   -8.8366    0.0000 C   0  0  0  0  0  0  0  0  0  0  0  0
    7.0313   -9.4497    0.0000 C   0  0  0  0  0  0  0  0  0  0  0  0
    6.7763  -10.2343    0.0000 C   0  0  0  0  0  0  0  0  0  0  0  0
    5.7144  -11.1905    0.0000 O   0  0  0  0  0  0  0  0  0  0  0  0
    4.6103   -9.9643    0.0000 O   0  0  0  0  0  0  0  0  0  0  0  0
    4.0270   -9.3809    0.0000 C   0  0  0  0  0  0  0  0  0  0  0  0
    6.2492   -7.3846    0.0000 O   0  0  0  0  0  0  0  0  0  0  0  0
    6.7342   -6.7171    0.0000 C   0  0  0  0  0  0  0  0  0  0  0  0
    7.5188   -6.9721    0.0000 C   0  0  1  0  0  0  0  0  0  0  0  0
    7.5188   -7.7971    0.0000 C   0  0  1  0  0  0  0  0  0  0  0  0
    6.7342   -8.0520    0.0000 C   0  0  1  0  0  0  0  0  0  0  0  0
    8.7883   -7.3846    0.0000 O   0  0  0  0  0  0  0  0  0  0  0  0
    8.3034   -6.7171    0.0000 C   0  0  2  0  0  0  0  0  0  0  0  0
    8.3034   -8.0520    0.0000 C   0  0  0  0  0  0  0  0  0  0  0  0
    8.5584   -5.9325    0.0000 C   0  0  0  0  0  0  0  0  0  0  0  0
    9.3653   -5.7610    0.0000 C   0  0  0  0  0  0  0  0  0  0  0  0
    9.6203   -4.9763    0.0000 C   0  0  0  0  0  0  0  0  0  0  0  0
    9.0682   -4.3632    0.0000 C   0  0  0  0  0  0  0  0  0  0  0  0
    8.2613   -4.5348    0.0000 C   0  0  0  0  0  0  0  0  0  0  0  0
    8.0063   -5.3194    0.0000 C   0  0  0  0  0  0  0  0  0  0  0  0
   10.4272   -4.8048    0.0000 O   0  0  0  0  0  0  0  0  0  0  0  0
   10.9793   -5.4179    0.0000 C   0  0  0  0  0  0  0  0  0  0  0  0
    9.3232   -3.5786    0.0000 O   0  0  0  0  0  0  0  0  0  0  0  0
    7.5188   -8.6221    0.0000 H   0  0  0  0  0  0  0  0  0  0  0  0
    7.5188   -6.1471    0.0000 H   0  0  0  0  0  0  0  0  0  0  0  0
  1  2  1  0  0  0  0
  2  3  2  0  0  0  0
  3  4  1  0  0  0  0
  4  5  2  0  0  0  0
  5  6  1  0  0  0  0
  1  6  2  0  0  0  0
  1  7  1  0  0  0  0
  8  9  1  0  0  0  0
  2  8  1  0  0  0  0
 10 11  1  0  0  0  0
 11 12  1  0  0  0  0
 12 13  1  0  0  0  0
 13 14  1  0  0  0  0
 10 14  1  0  0  0  0
 15 16  1  0  0  0  0
 15 17  1  0  0  0  0
 16 12  1  0  0  0  0
 17 13  1  0  0  0  0
 18 19  1  0  0  0  0
 19 20  2  0  0  0  0
 20 21  1  0  0  0  0
 21 22  2  0  0  0  0
 22 23  1  0  0  0  0
 18 23  2  0  0  0  0
 24 25  1  0  0  0  0
 20 24  1  0  0  0  0
 21 26  1  0  0  0  0
 16 18  1  1  0  0  0
 14  4  1  1  0  0  0
 13 27  1  1  0  0  0
 12 28  1  1  0  0  0
M  END
>  <cdx:fragmentId>
39

$$$$
