7342.cdx
  Mrv1902 05222410182D          

  8  7  0  0  0  0            999 V2000
    5.1249   -4.3321    0.0000 C   0  0  0  0  0  0  0  0  0  0  0  0
    4.4104   -4.7446    0.0000 C   0  0  0  0  0  0  0  0  0  0  0  0
    4.4104   -5.5696    0.0000 C   0  0  0  0  0  0  0  0  0  0  0  0
    5.1249   -3.5071    0.0000 O   0  0  0  0  0  0  0  0  0  0  0  0
    5.8394   -4.7446    0.0000 O   0  0  0  0  0  0  0  0  0  0  0  0
    3.6959   -4.3321    0.0000 C   0  0  0  0  0  0  0  0  0  0  0  0
    6.5538   -4.3321    0.0000 C   0  0  0  0  0  0  0  0  0  0  0  0
    7.2683   -4.7446    0.0000 C   0  0  0  0  0  0  0  0  0  0  0  0
  1  2  1  0  0  0  0
  2  3  1  0  0  0  0
  1  4  2  0  0  0  0
  1  5  1  0  0  0  0
  2  6  1  0  0  0  0
  7  8  1  0  0  0  0
  5  7  1  0  0  0  0
M  END
>  <cdx:groupId>
25

>  <cdx:fragmentId>
5

$$$$
