73442.cdx
  Mrv1902 05222410212D          

 27 29  0  0  0  0            999 V2000
    6.6553   -6.6894    0.0000 C   0  0  0  0  0  0  0  0  0  0  0  0
    7.3697   -6.2769    0.0000 N   0  3  0  0  0  0  0  0  0  0  0  0
    7.3697   -5.4519    0.0000 C   0  0  0  0  0  0  0  0  0  0  0  0
    6.6553   -5.0394    0.0000 C   0  0  0  0  0  0  0  0  0  0  0  0
    5.9408   -5.4519    0.0000 C   0  0  0  0  0  0  0  0  0  0  0  0
    5.2263   -5.0394    0.0000 C   0  0  0  0  0  0  0  0  0  0  0  0
    4.5119   -5.4519    0.0000 C   0  0  0  0  0  0  0  0  0  0  0  0
    4.5119   -6.2769    0.0000 C   0  0  0  0  0  0  0  0  0  0  0  0
    5.2263   -6.6894    0.0000 C   0  0  0  0  0  0  0  0  0  0  0  0
    5.9408   -6.2769    0.0000 C   0  0  0  0  0  0  0  0  0  0  0  0
    8.0842   -6.6894    0.0000 C   0  0  0  0  0  0  0  0  0  0  0  0
    8.7987   -6.2769    0.0000 C   0  0  0  0  0  0  0  0  0  0  0  0
    8.7987   -5.4519    0.0000 C   0  0  0  0  0  0  0  0  0  0  0  0
    9.5131   -5.0394    0.0000 C   0  0  0  0  0  0  0  0  0  0  0  0
    9.5131   -4.2144    0.0000 C   0  0  0  0  0  0  0  0  0  0  0  0
    8.7987   -3.8019    0.0000 C   0  0  0  0  0  0  0  0  0  0  0  0
    8.0842   -4.2144    0.0000 C   0  0  0  0  0  0  0  0  0  0  0  0
    8.0842   -5.0394    0.0000 C   0  0  0  0  0  0  0  0  0  0  0  0
    3.7974   -6.6894    0.0000 O   0  0  0  0  0  0  0  0  0  0  0  0
    3.0829   -6.2769    0.0000 C   0  0  0  0  0  0  0  0  0  0  0  0
    5.2263   -7.5144    0.0000 O   0  0  0  0  0  0  0  0  0  0  0  0
    4.5119   -7.9269    0.0000 C   0  0  0  0  0  0  0  0  0  0  0  0
   10.2276   -3.8019    0.0000 O   0  0  0  0  0  0  0  0  0  0  0  0
   10.9421   -4.2144    0.0000 C   0  0  0  0  0  0  0  0  0  0  0  0
    8.7987   -2.9769    0.0000 O   0  0  0  0  0  0  0  0  0  0  0  0
    9.5131   -2.5644    0.0000 C   0  0  0  0  0  0  0  0  0  0  0  0
    7.3697   -7.1019    0.0000 Cl  0  5  0  0  0  0  0  0  0  0  0  0
  1  2  1  0  0  0  0
  2  3  2  0  0  0  0
  3  4  1  0  0  0  0
  4  5  2  0  0  0  0
  5  6  1  0  0  0  0
  6  7  2  0  0  0  0
  7  8  1  0  0  0  0
  8  9  2  0  0  0  0
  9 10  1  0  0  0  0
  1 10  2  0  0  0  0
  5 10  1  0  0  0  0
 11 12  1  0  0  0  0
 12 13  1  0  0  0  0
 13 14  1  0  0  0  0
 14 15  2  0  0  0  0
 15 16  1  0  0  0  0
 16 17  2  0  0  0  0
 17 18  1  0  0  0  0
 13 18  2  0  0  0  0
 11  2  1  0  0  0  0
 18  3  1  0  0  0  0
 19 20  1  0  0  0  0
  8 19  1  0  0  0  0
 21 22  1  0  0  0  0
  9 21  1  0  0  0  0
 23 24  1  0  0  0  0
 15 23  1  0  0  0  0
 25 26  1  0  0  0  0
 16 25  1  0  0  0  0
M  CHG  2   2   1  27  -1
M  END
>  <cdx:groupId>
85

>  <cdx:fragmentId>
55

$$$$
