7344.cdx
  Mrv1902 05222410192D          

  8  7  0  0  0  0            999 V2000
    7.7740   -6.3491    0.0000 C   0  0  0  0  0  0  0  0  0  0  0  0
    8.4885   -5.9366    0.0000 C   0  0  1  0  0  0  0  0  0  0  0  0
    9.2029   -6.3491    0.0000 O   0  0  0  0  0  0  0  0  0  0  0  0
    7.7740   -7.1741    0.0000 O   0  0  0  0  0  0  0  0  0  0  0  0
    7.0595   -5.9366    0.0000 O   0  0  0  0  0  0  0  0  0  0  0  0
    8.4885   -5.1116    0.0000 C   0  0  0  0  0  0  0  0  0  0  0  0
    6.3450   -6.3491    0.0000 C   0  0  0  0  0  0  0  0  0  0  0  0
    5.6306   -5.9366    0.0000 C   0  0  0  0  0  0  0  0  0  0  0  0
  1  2  1  0  0  0  0
  2  3  1  6  0  0  0
  1  4  2  0  0  0  0
  1  5  1  0  0  0  0
  2  6  1  0  0  0  0
  7  8  1  0  0  0  0
  5  7  1  0  0  0  0
M  END
>  <cdx:groupId>
25

>  <cdx:fragmentId>
5

$$$$
