734518.cdx
  Mrv1902 05222410212D          

 40 42  0  0  0  0            999 V2000
    7.3544   -4.3261    0.0000 C   0  0  0  0  0  0  0  0  0  0  0  0
    7.8335   -3.6545    0.0000 C   0  0  0  0  0  0  0  0  0  0  0  0
    8.6547   -3.7336    0.0000 C   0  0  0  0  0  0  0  0  0  0  0  0
    7.6964   -5.0768    0.0000 O   0  0  0  0  0  0  0  0  0  0  0  0
    6.5332   -4.2469    0.0000 O   0  0  0  0  0  0  0  0  0  0  0  0
    9.1339   -3.0620    0.0000 C   0  0  0  0  0  0  0  0  0  0  0  0
    8.7918   -2.3113    0.0000 C   0  0  0  0  0  0  0  0  0  0  0  0
    9.2710   -1.6397    0.0000 C   0  0  0  0  0  0  0  0  0  0  0  0
   10.0922   -1.7188    0.0000 C   0  0  0  0  0  0  0  0  0  0  0  0
   10.4342   -2.4696    0.0000 C   0  0  0  0  0  0  0  0  0  0  0  0
    9.9551   -3.1412    0.0000 C   0  0  0  0  0  0  0  0  0  0  0  0
   10.5713   -1.0472    0.0000 O   0  0  0  0  0  0  0  0  0  0  0  0
    5.6525   -6.1916    0.0000 O   0  0  0  0  0  0  0  0  0  0  0  0
    6.3158   -5.7009    0.0000 C   0  0  1  0  0  0  0  0  0  0  0  0
    6.0541   -4.9185    0.0000 C   0  0  2  0  0  0  0  0  0  0  0  0
    5.2291   -4.9257    0.0000 C   0  0  1  0  0  0  0  0  0  0  0  0
    4.9809   -5.7125    0.0000 C   0  0  1  0  0  0  0  0  0  0  0  0
    4.1985   -5.9742    0.0000 C   0  0  0  0  0  0  0  0  0  0  0  0
    3.6152   -5.3908    0.0000 O   0  0  0  0  0  0  0  0  0  0  0  0
    4.7384   -4.2624    0.0000 O   0  0  0  0  0  0  0  0  0  0  0  0
    7.1295   -5.5649    0.0000 C   0  0  0  0  0  0  0  0  0  0  0  0
    6.8991   -6.2843    0.0000 O   0  0  0  0  0  0  0  0  0  0  0  0
    6.8991   -7.1093    0.0000 C   0  0  1  0  0  0  0  0  0  0  0  0
    6.1847   -7.5218    0.0000 O   0  0  0  0  0  0  0  0  0  0  0  0
    6.1847   -8.3468    0.0000 C   0  0  1  0  0  0  0  0  0  0  0  0
    6.8991   -8.7593    0.0000 C   0  0  2  0  0  0  0  0  0  0  0  0
    7.6136   -8.3468    0.0000 C   0  0  1  0  0  0  0  0  0  0  0  0
    7.6136   -7.5218    0.0000 C   0  0  1  0  0  0  0  0  0  0  0  0
    5.4702   -8.7593    0.0000 C   0  0  0  0  0  0  0  0  0  0  0  0
    8.3281   -8.7593    0.0000 O   0  0  0  0  0  0  0  0  0  0  0  0
    8.3281   -7.1093    0.0000 O   0  0  0  0  0  0  0  0  0  0  0  0
    6.8991   -9.5843    0.0000 O   0  0  0  0  0  0  0  0  0  0  0  0
    5.4702   -9.5843    0.0000 O   0  0  0  0  0  0  0  0  0  0  0  0
    7.6542   -6.2015    0.0000 O   0  0  0  0  0  0  0  0  0  0  0  0
    4.7557   -9.9968    0.0000 C   0  0  0  0  0  0  0  0  0  0  0  0
    4.7557  -10.8218    0.0000 O   0  0  0  0  0  0  0  0  0  0  0  0
    4.0412   -9.5843    0.0000 C   0  0  0  0  0  0  0  0  0  0  0  0
    9.0425   -8.3468    0.0000 C   0  0  0  0  0  0  0  0  0  0  0  0
    9.7570   -8.7593    0.0000 C   0  0  0  0  0  0  0  0  0  0  0  0
    9.0425   -7.5218    0.0000 O   0  0  0  0  0  0  0  0  0  0  0  0
  1  2  1  0  0  0  0
  2  3  2  0  0  0  0
  1  4  2  0  0  0  0
  1  5  1  0  0  0  0
  6  7  1  0  0  0  0
  7  8  2  0  0  0  0
  8  9  1  0  0  0  0
  9 10  2  0  0  0  0
 10 11  1  0  0  0  0
  6 11  2  0  0  0  0
  9 12  1  0  0  0  0
  3  6  1  0  0  0  0
 13 14  1  0  0  0  0
 14 15  1  0  0  0  0
 15 16  1  0  0  0  0
 16 17  1  0  0  0  0
 13 17  1  0  0  0  0
 18 19  1  0  0  0  0
 17 18  1  6  0  0  0
 16 20  1  1  0  0  0
 15  5  1  6  0  0  0
 14 21  1  0  0  0  0
 14 22  1  6  0  0  0
 23 22  1  6  0  0  0
 23 24  1  0  0  0  0
 24 25  1  0  0  0  0
 25 26  1  0  0  0  0
 26 27  1  0  0  0  0
 27 28  1  0  0  0  0
 28 23  1  0  0  0  0
 25 29  1  1  0  0  0
 27 30  1  1  0  0  0
 28 31  1  6  0  0  0
 26 32  1  6  0  0  0
 29 33  1  0  0  0  0
 21 34  1  0  0  0  0
 33 35  1  0  0  0  0
 35 36  2  0  0  0  0
 35 37  1  0  0  0  0
 30 38  1  0  0  0  0
 38 39  1  0  0  0  0
 38 40  2  0  0  0  0
M  END
>  <cdx:fragmentId>
204591

$$$$
