734604.cdx
  Mrv1902 05222410262D          

 49 51  0  0  0  0            999 V2000
    7.3544   -4.1061    0.0000 C   0  0  0  0  0  0  0  0  0  0  0  0
    7.8335   -3.4345    0.0000 C   0  0  0  0  0  0  0  0  0  0  0  0
    8.6547   -3.5136    0.0000 C   0  0  0  0  0  0  0  0  0  0  0  0
    7.6964   -4.8568    0.0000 O   0  0  0  0  0  0  0  0  0  0  0  0
    6.5332   -4.0269    0.0000 O   0  0  0  0  0  0  0  0  0  0  0  0
    9.1339   -2.8420    0.0000 C   0  0  0  0  0  0  0  0  0  0  0  0
    8.7918   -2.0913    0.0000 C   0  0  0  0  0  0  0  0  0  0  0  0
    9.2710   -1.4197    0.0000 C   0  0  0  0  0  0  0  0  0  0  0  0
   10.0922   -1.4988    0.0000 C   0  0  0  0  0  0  0  0  0  0  0  0
   10.4342   -2.2496    0.0000 C   0  0  0  0  0  0  0  0  0  0  0  0
    9.9551   -2.9212    0.0000 C   0  0  0  0  0  0  0  0  0  0  0  0
   10.5713   -0.8272    0.0000 O   0  0  0  0  0  0  0  0  0  0  0  0
    5.6525   -5.9716    0.0000 O   0  0  0  0  0  0  0  0  0  0  0  0
    6.3158   -5.4809    0.0000 C   0  0  1  0  0  0  0  0  0  0  0  0
    6.0541   -4.6985    0.0000 C   0  0  2  0  0  0  0  0  0  0  0  0
    5.2291   -4.7057    0.0000 C   0  0  1  0  0  0  0  0  0  0  0  0
    4.9809   -5.4925    0.0000 C   0  0  1  0  0  0  0  0  0  0  0  0
    4.1985   -5.7542    0.0000 C   0  0  0  0  0  0  0  0  0  0  0  0
    3.6152   -5.1708    0.0000 O   0  0  0  0  0  0  0  0  0  0  0  0
    4.7384   -4.0424    0.0000 O   0  0  0  0  0  0  0  0  0  0  0  0
    7.1295   -5.3449    0.0000 C   0  0  0  0  0  0  0  0  0  0  0  0
    6.8991   -6.0643    0.0000 O   0  0  0  0  0  0  0  0  0  0  0  0
    6.8991   -6.8893    0.0000 C   0  0  1  0  0  0  0  0  0  0  0  0
    6.1847   -7.3018    0.0000 O   0  0  0  0  0  0  0  0  0  0  0  0
    6.1847   -8.1268    0.0000 C   0  0  1  0  0  0  0  0  0  0  0  0
    6.8991   -8.5393    0.0000 C   0  0  2  0  0  0  0  0  0  0  0  0
    7.6136   -8.1268    0.0000 C   0  0  1  0  0  0  0  0  0  0  0  0
    7.6136   -7.3018    0.0000 C   0  0  1  0  0  0  0  0  0  0  0  0
    8.3281   -6.8893    0.0000 O   0  0  0  0  0  0  0  0  0  0  0  0
    6.8991   -9.3643    0.0000 O   0  0  0  0  0  0  0  0  0  0  0  0
    4.0412   -9.3643    0.0000 C   0  0  0  0  0  0  0  0  0  0  0  0
    7.6542   -5.9815    0.0000 O   0  0  0  0  0  0  0  0  0  0  0  0
    3.3268   -8.1268    0.0000 O   0  0  0  0  0  0  0  0  0  0  0  0
    4.0412   -8.5393    0.0000 C   0  0  0  0  0  0  0  0  0  0  0  0
    4.7557   -8.1268    0.0000 O   0  0  0  0  0  0  0  0  0  0  0  0
    5.4702   -8.5393    0.0000 C   0  0  0  0  0  0  0  0  0  0  0  0
    7.6136   -9.7768    0.0000 O   0  0  0  0  0  0  0  0  0  0  0  0
    9.0425   -9.7768    0.0000 C   0  0  0  0  0  0  0  0  0  0  0  0
    8.3281   -9.3643    0.0000 C   0  0  0  0  0  0  0  0  0  0  0  0
    8.3281   -8.5393    0.0000 O   0  0  0  0  0  0  0  0  0  0  0  0
    9.0425   -7.3018    0.0000 C   0  0  0  0  0  0  0  0  0  0  0  0
    9.7570   -6.8893    0.0000 C   0  0  0  0  0  0  0  0  0  0  0  0
    9.0425   -8.1268    0.0000 O   0  0  0  0  0  0  0  0  0  0  0  0
    6.1847   -9.7768    0.0000 C   0  0  0  0  0  0  0  0  0  0  0  0
    6.1847  -10.6018    0.0000 O   0  0  0  0  0  0  0  0  0  0  0  0
    5.4702   -9.3643    0.0000 C   0  0  0  0  0  0  0  0  0  0  0  0
    8.4679   -5.8454    0.0000 C   0  0  0  0  0  0  0  0  0  0  0  0
    8.9926   -6.4820    0.0000 C   0  0  0  0  0  0  0  0  0  0  0  0
    8.7569   -5.0727    0.0000 O   0  0  0  0  0  0  0  0  0  0  0  0
  1  2  1  0  0  0  0
  2  3  2  0  0  0  0
  1  4  2  0  0  0  0
  1  5  1  0  0  0  0
  6  7  1  0  0  0  0
  7  8  2  0  0  0  0
  8  9  1  0  0  0  0
  9 10  2  0  0  0  0
 10 11  1  0  0  0  0
  6 11  2  0  0  0  0
  9 12  1  0  0  0  0
  3  6  1  0  0  0  0
 13 14  1  0  0  0  0
 14 15  1  0  0  0  0
 15 16  1  0  0  0  0
 16 17  1  0  0  0  0
 13 17  1  0  0  0  0
 18 19  1  0  0  0  0
 17 18  1  6  0  0  0
 16 20  1  1  0  0  0
 15  5  1  6  0  0  0
 14 21  1  0  0  0  0
 14 22  1  6  0  0  0
 23 22  1  6  0  0  0
 23 24  1  0  0  0  0
 24 25  1  0  0  0  0
 25 26  1  0  0  0  0
 26 27  1  0  0  0  0
 27 28  1  0  0  0  0
 28 23  1  0  0  0  0
 34 31  1  0  0  0  0
 25 36  1  1  0  0  0
 39 37  2  0  0  0  0
 27 40  1  1  0  0  0
 28 29  1  6  0  0  0
 26 30  1  6  0  0  0
 34 33  2  0  0  0  0
 21 32  1  0  0  0  0
 35 34  1  0  0  0  0
 36 35  1  0  0  0  0
 39 38  1  0  0  0  0
 40 39  1  0  0  0  0
 29 41  1  0  0  0  0
 41 42  1  0  0  0  0
 41 43  2  0  0  0  0
 30 44  1  0  0  0  0
 44 45  2  0  0  0  0
 44 46  1  0  0  0  0
 32 47  1  0  0  0  0
 47 48  1  0  0  0  0
 47 49  2  0  0  0  0
M  END
>  <cdx:fragmentId>
204591

$$$$
