73466.cdx
  Mrv1902 05222410242D          

 29 31  0  0  0  0            999 V2000
    7.3943   -6.1883    0.0000 C   0  0  1  0  0  0  0  0  0  0  0  0
    8.1087   -5.7758    0.0000 C   0  0  1  0  0  0  0  0  0  0  0  0
    8.1087   -4.9508    0.0000 C   0  0  1  0  0  0  0  0  0  0  0  0
    7.3943   -4.5383    0.0000 C   0  0  0  0  0  0  0  0  0  0  0  0
    6.6798   -4.9508    0.0000 C   0  0  0  0  0  0  0  0  0  0  0  0
    6.6798   -5.7758    0.0000 O   0  0  0  0  0  0  0  0  0  0  0  0
    8.8934   -4.6959    0.0000 C   0  0  0  0  0  0  0  0  0  0  0  0
    9.3783   -5.3633    0.0000 C   0  0  0  0  0  0  0  0  0  0  0  0
    8.8934   -6.0307    0.0000 C   0  0  2  0  0  0  0  0  0  0  0  0
    7.3943   -3.7133    0.0000 C   0  0  0  0  0  0  0  0  0  0  0  0
    8.1087   -3.3008    0.0000 O   0  0  0  0  0  0  0  0  0  0  0  0
    6.6798   -3.3008    0.0000 O   0  0  0  0  0  0  0  0  0  0  0  0
    7.3943   -7.0133    0.0000 O   0  0  0  0  0  0  0  0  0  0  0  0
    5.9653   -7.0133    0.0000 O   0  0  0  0  0  0  0  0  0  0  0  0
    6.6798   -7.4258    0.0000 C   0  0  2  0  0  0  0  0  0  0  0  0
    6.6798   -8.2508    0.0000 C   0  0  1  0  0  0  0  0  0  0  0  0
    5.9653   -8.6633    0.0000 C   0  0  2  0  0  0  0  0  0  0  0  0
    5.2509   -8.2508    0.0000 C   0  0  1  0  0  0  0  0  0  0  0  0
    5.2509   -7.4258    0.0000 C   0  0  1  0  0  0  0  0  0  0  0  0
    4.5364   -7.0133    0.0000 C   0  0  0  0  0  0  0  0  0  0  0  0
    3.8219   -7.4258    0.0000 O   0  0  0  0  0  0  0  0  0  0  0  0
    4.5364   -8.6633    0.0000 O   0  0  0  0  0  0  0  0  0  0  0  0
    5.9653   -9.4883    0.0000 O   0  0  0  0  0  0  0  0  0  0  0  0
    7.3943   -8.6633    0.0000 O   0  0  0  0  0  0  0  0  0  0  0  0
    9.5065   -6.5828    0.0000 C   0  0  0  0  0  0  0  0  0  0  0  0
   10.2911   -6.3278    0.0000 O   0  0  0  0  0  0  0  0  0  0  0  0
    8.7218   -6.8377    0.0000 O   0  0  0  0  0  0  0  0  0  0  0  0
    8.1087   -4.1258    0.0000 H   0  0  0  0  0  0  0  0  0  0  0  0
    8.1087   -6.6008    0.0000 H   0  0  0  0  0  0  0  0  0  0  0  0
  1  2  1  0  0  0  0
  2  3  1  0  0  0  0
  3  4  1  0  0  0  0
  4  5  2  0  0  0  0
  5  6  1  0  0  0  0
  1  6  1  0  0  0  0
  7  8  2  0  0  0  0
  8  9  1  0  0  0  0
  9  2  1  0  0  0  0
  7  3  1  0  0  0  0
 10 11  2  0  0  0  0
 10 12  1  0  0  0  0
  4 10  1  0  0  0  0
 14 15  1  0  0  0  0
 15 16  1  0  0  0  0
 16 17  1  0  0  0  0
 17 18  1  0  0  0  0
 18 19  1  0  0  0  0
 14 19  1  0  0  0  0
 20 21  1  0  0  0  0
 19 20  1  1  0  0  0
 18 22  1  6  0  0  0
 17 23  1  1  0  0  0
 16 24  1  6  0  0  0
 15 13  1  1  0  0  0
  1 13  1  6  0  0  0
 25 26  1  0  0  0  0
  9 25  1  0  0  0  0
  9 27  1  1  0  0  0
  3 28  1  6  0  0  0
  2 29  1  6  0  0  0
M  END
>  <cdx:fragmentId>
5

$$$$
