7348.cdx
  Mrv1902 05222410272D          

 23 24  0  0  0  0            999 V2000
    3.2414   -7.8994    0.0000 C   0  0  0  0  0  0  0  0  0  0  0  0
    3.2414   -8.7244    0.0000 C   0  0  0  0  0  0  0  0  0  0  0  0
    3.9559   -9.1369    0.0000 C   0  0  0  0  0  0  0  0  0  0  0  0
    4.6703   -8.7244    0.0000 C   0  0  0  0  0  0  0  0  0  0  0  0
    4.6703   -7.8994    0.0000 C   0  0  0  0  0  0  0  0  0  0  0  0
    3.9559   -7.4869    0.0000 C   0  0  0  0  0  0  0  0  0  0  0  0
    2.5269   -9.1369    0.0000 O   0  0  0  0  0  0  0  0  0  0  0  0
    6.0993   -7.8994    0.0000 C   0  0  0  0  0  0  0  0  0  0  0  0
    5.3848   -7.4869    0.0000 C   0  0  0  0  0  0  0  0  0  0  0  0
    7.5282   -7.8994    0.0000 C   0  0  0  0  0  0  0  0  0  0  0  0
    6.8138   -7.4869    0.0000 C   0  0  0  0  0  0  0  0  0  0  0  0
    8.9572   -7.8994    0.0000 C   0  0  0  0  0  0  0  0  0  0  0  0
    8.2427   -7.4869    0.0000 C   0  0  0  0  0  0  0  0  0  0  0  0
    9.6716   -7.4869    0.0000 C   0  0  0  0  0  0  0  0  0  0  0  0
    6.8138   -6.6619    0.0000 O   0  0  0  0  0  0  0  0  0  0  0  0
    7.5282   -6.2494    0.0000 C   0  0  0  0  0  0  0  0  0  0  0  0
    8.2427   -6.6619    0.0000 O   0  0  0  0  0  0  0  0  0  0  0  0
    7.5282   -5.4244    0.0000 C   0  0  0  0  0  0  0  0  0  0  0  0
   10.3861   -7.8994    0.0000 C   0  0  0  0  0  0  0  0  0  0  0  0
   11.1006   -7.4869    0.0000 C   0  0  0  0  0  0  0  0  0  0  0  0
   11.8151   -7.8994    0.0000 C   0  0  0  0  0  0  0  0  0  0  0  0
    2.5269   -7.4869    0.0000 O   0  0  0  0  0  0  0  0  0  0  0  0
    1.8125   -7.8994    0.0000 C   0  0  0  0  0  0  0  0  0  0  0  0
  1  2  2  0  0  0  0
  2  3  1  0  0  0  0
  3  4  2  0  0  0  0
  4  5  1  0  0  0  0
  5  6  2  0  0  0  0
  6  1  1  0  0  0  0
  2  7  1  0  0  0  0
  8  9  1  0  0  0  0
  9  5  1  0  0  0  0
 10 11  1  0  0  0  0
 11  8  1  0  0  0  0
 12 13  1  0  0  0  0
 13 10  1  0  0  0  0
 14 12  1  0  0  0  0
 11 15  1  0  0  0  0
 15 16  1  0  0  0  0
 16 17  1  0  0  0  0
 17 13  1  0  0  0  0
 16 18  1  0  0  0  0
 14 19  1  0  0  0  0
 19 20  1  0  0  0  0
 20 21  1  0  0  0  0
  1 22  1  0  0  0  0
 22 23  1  0  0  0  0
M  END
>  <cdx:fragmentId>
5

$$$$
