7351.cdx
  Mrv1902 05222410192D          

 10  9  0  0  0  0            999 V2000
    4.5614   -3.5689    0.0000 C   0  0  0  0  0  0  0  0  0  0  0  0
    3.8469   -3.9814    0.0000 C   0  0  0  0  0  0  0  0  0  0  0  0
    3.8469   -4.8064    0.0000 C   0  0  0  0  0  0  0  0  0  0  0  0
    4.5614   -2.7439    0.0000 O   0  0  0  0  0  0  0  0  0  0  0  0
    5.2759   -3.9814    0.0000 O   0  0  0  0  0  0  0  0  0  0  0  0
    3.1325   -3.5689    0.0000 C   0  0  0  0  0  0  0  0  0  0  0  0
    5.9903   -3.5689    0.0000 C   0  0  0  0  0  0  0  0  0  0  0  0
    6.7048   -3.9814    0.0000 C   0  0  0  0  0  0  0  0  0  0  0  0
    7.4193   -3.5689    0.0000 C   0  0  0  0  0  0  0  0  0  0  0  0
    6.7048   -4.8064    0.0000 C   0  0  0  0  0  0  0  0  0  0  0  0
  1  2  1  0  0  0  0
  2  3  1  0  0  0  0
  1  4  2  0  0  0  0
  1  5  1  0  0  0  0
  2  6  1  0  0  0  0
  7  8  1  0  0  0  0
  8  9  1  0  0  0  0
  8 10  1  0  0  0  0
  5  7  1  0  0  0  0
M  END
>  <cdx:groupId>
31

>  <cdx:fragmentId>
5

$$$$
