73527.cdx
  Mrv1902 05222410222D          

 28 33  0  0  0  0            999 V2000
    6.8113   -7.1134    0.0000 C   0  0  0  0  0  0  0  0  0  0  0  0
    7.1714   -7.8557    0.0000 C   0  0  1  0  0  0  0  0  0  0  0  0
    6.8156   -8.6000    0.0000 C   0  0  0  0  0  0  0  0  0  0  0  0
    6.0118   -8.7860    0.0000 C   0  0  2  0  0  0  0  0  0  0  0  0
    5.3653   -8.2735    0.0000 C   0  0  0  0  0  0  0  0  0  0  0  0
    5.3629   -7.4485    0.0000 C   0  0  0  0  0  0  0  0  0  0  0  0
    6.0064   -6.9322    0.0000 C   0  0  0  0  0  0  0  0  0  0  0  0
    4.6521   -8.6880    0.0000 C   0  0  2  0  0  0  0  0  0  0  0  0
    3.9364   -8.2776    0.0000 C   0  0  0  0  0  0  0  0  0  0  0  0
    3.9340   -7.4526    0.0000 C   0  0  0  0  0  0  0  0  0  0  0  0
    4.6472   -7.0380    0.0000 C   0  0  2  0  0  0  0  0  0  0  0  0
    4.6448   -6.2131    0.0000 O   0  0  0  0  0  0  0  0  0  0  0  0
    3.9337   -5.7949    0.0000 C   0  0  0  0  0  0  0  0  0  0  0  0
    4.6545   -9.5130    0.0000 C   0  0  0  0  0  0  0  0  0  0  0  0
    5.3625   -6.7925    0.0000 C   0  0  0  0  0  0  0  0  0  0  0  0
    4.6475   -7.8100    0.0000 N   0  0  0  0  0  0  0  0  0  0  0  0
    3.9325   -8.9925    0.0000 C   0  0  0  0  0  0  0  0  0  0  0  0
    8.6075   -7.2875    0.0000 C   0  0  0  0  0  0  0  0  0  0  0  0
    7.3849   -8.6526    0.0000 O   0  0  0  0  0  0  0  0  0  0  0  0
    3.4650   -7.8100    0.0000 C   0  0  0  0  0  0  0  0  0  0  0  0
    2.8816   -7.2266    0.0000 C   0  0  0  0  0  0  0  0  0  0  0  0
    6.0118   -9.6110    0.0000 O   0  0  0  0  0  0  0  0  0  0  0  0
    7.3706   -6.5070    0.0000 C   0  0  0  0  0  0  0  0  0  0  0  0
    7.1252   -5.7194    0.0000 O   0  0  0  0  0  0  0  0  0  0  0  0
    6.3203   -5.5382    0.0000 C   0  0  0  0  0  0  0  0  0  0  0  0
    5.7609   -6.1446    0.0000 C   0  0  0  0  0  0  0  0  0  0  0  0
    8.1755   -6.6883    0.0000 O   0  0  0  0  0  0  0  0  0  0  0  0
    8.0025   -5.2250    0.0000 C   0  0  0  0  0  0  0  0  0  0  0  0
  1  2  1  0  0  0  0
  2  3  1  0  0  0  0
  3  4  1  0  0  0  0
  4  5  1  0  0  0  0
  5  6  1  0  0  0  0
  6  7  1  0  0  0  0
  7  1  1  0  0  0  0
  5  8  1  0  0  0  0
  8  9  1  0  0  0  0
  9 10  1  0  0  0  0
 10 11  1  0  0  0  0
 11  6  1  0  0  0  0
 11 12  1  6  0  0  0
 12 13  1  0  0  0  0
  8 14  1  1  0  0  0
  6 15  1  0  0  0  0
  3 15  1  0  0  0  0
 15 16  1  0  0  0  0
 16 17  1  0  0  0  0
  8 17  1  0  0  0  0
  2 19  1  1  0  0  0
 16 20  1  0  0  0  0
 20 21  1  0  0  0  0
  4 22  1  1  0  0  0
  1 23  1  0  0  0  0
 23 24  1  0  0  0  0
 24 25  1  0  0  0  0
 25 26  1  0  0  0  0
 26  7  1  0  0  0  0
 23 27  2  0  0  0  0
 25 28  1  0  0  0  0
 28 18  1  0  0  0  0
 18  2  1  0  0  0  0
M  END
>  <cdx:fragmentId>
168

$$$$
