7352.cdx
  Mrv1902 05222410202D          

 17 18  0  0  0  0            999 V2000
    9.0324   -5.5289    0.0000 C   0  0  0  0  0  0  0  0  0  0  0  0
    8.3180   -5.9414    0.0000 C   0  0  0  0  0  0  0  0  0  0  0  0
    7.6035   -5.5289    0.0000 C   0  0  0  0  0  0  0  0  0  0  0  0
    7.6035   -4.7039    0.0000 C   0  0  0  0  0  0  0  0  0  0  0  0
    8.3180   -4.2914    0.0000 C   0  0  0  0  0  0  0  0  0  0  0  0
    9.0324   -4.7039    0.0000 C   0  0  0  0  0  0  0  0  0  0  0  0
    9.7469   -5.1164    0.0000 C   0  0  0  0  0  0  0  0  0  0  0  0
   10.4614   -4.7039    0.0000 C   0  0  0  0  0  0  0  0  0  0  0  0
   10.4614   -5.5289    0.0000 C   0  0  0  0  0  0  0  0  0  0  0  0
    6.8890   -5.9414    0.0000 C   0  0  0  0  0  0  0  0  0  0  0  0
    6.1745   -4.7039    0.0000 C   0  0  0  0  0  0  0  0  0  0  0  0
    5.4601   -4.2914    0.0000 C   0  0  0  0  0  0  0  0  0  0  0  0
    4.7456   -4.7039    0.0000 C   0  0  0  0  0  0  0  0  0  0  0  0
    4.7456   -5.5289    0.0000 O   0  0  0  0  0  0  0  0  0  0  0  0
    4.0311   -4.2914    0.0000 C   0  0  0  0  0  0  0  0  0  0  0  0
    6.1745   -5.5289    0.0000 O   0  0  0  0  0  0  0  0  0  0  0  0
    6.8890   -4.2914    0.0000 O   0  0  0  0  0  0  0  0  0  0  0  0
  1  2  1  0  0  0  0
  2  3  1  0  0  0  0
  3  4  1  0  0  0  0
  4  5  1  0  0  0  0
  5  6  1  0  0  0  0
  1  6  1  0  0  0  0
  6  7  1  0  0  0  0
  1  7  1  0  0  0  0
  7  8  1  0  0  0  0
  7  9  1  0  0  0  0
  3 10  2  0  0  0  0
 11 12  1  0  0  0  0
 12 13  1  0  0  0  0
 13 14  2  0  0  0  0
 13 15  1  0  0  0  0
 11 16  2  0  0  0  0
 11 17  1  0  0  0  0
  4 17  1  0  0  0  0
M  END
>  <cdx:fragmentId>
31857

$$$$
