91735354.cdx
  Mrv1902 05222410242D          

 17 18  0  0  0  0            999 V2000
    8.4451  -15.8378    0.0000 C   0  0  0  0  0  0  0  0  0  0  0  0
    8.9300  -15.1704    0.0000 C   0  0  0  0  0  0  0  0  0  0  0  0
    8.4451  -14.5029    0.0000 C   0  0  0  0  0  0  0  0  0  0  0  0
    7.6605  -14.7579    0.0000 C   0  0  0  0  0  0  0  0  0  0  0  0
    7.0154  -14.2435    0.0000 C   0  0  0  0  0  0  0  0  0  0  0  0
    6.2111  -14.4271    0.0000 C   0  0  0  0  0  0  0  0  0  0  0  0
    5.8532  -15.1704    0.0000 C   0  0  0  0  0  0  0  0  0  0  0  0
    6.2111  -15.9137    0.0000 C   0  0  0  0  0  0  0  0  0  0  0  0
    7.0154  -16.0972    0.0000 C   0  0  1  0  0  0  0  0  0  0  0  0
    7.6605  -15.5829    0.0000 C   0  0  2  0  0  0  0  0  0  0  0  0
    5.6968  -13.7821    0.0000 O   0  0  0  0  0  0  0  0  0  0  0  0
    6.6157  -12.8558    0.0000 C   0  0  0  0  0  0  0  0  0  0  0  0
    7.1990  -13.4392    0.0000 C   0  0  0  0  0  0  0  0  0  0  0  0
    7.9874  -13.1960    0.0000 C   0  0  0  0  0  0  0  0  0  0  0  0
    7.1990  -16.9016    0.0000 C   0  0  0  0  0  0  0  0  0  0  0  0
    8.7000  -13.7183    0.0000 C   0  0  0  0  0  0  0  0  0  0  0  0
    7.8078  -16.3946    0.0000 H   0  0  0  0  0  0  0  0  0  0  0  0
  1  2  1  0  0  0  0
  2  3  1  0  0  0  0
  3  4  2  0  0  0  0
  4  5  1  0  0  0  0
  5  6  1  0  0  0  0
  6  7  1  0  0  0  0
  7  8  1  0  0  0  0
  8  9  1  0  0  0  0
  9 10  1  0  0  0  0
  1 10  1  0  0  0  0
  4 10  1  0  0  0  0
  6 11  2  0  0  0  0
 12 13  1  0  0  0  0
 13 14  1  0  0  0  0
  5 13  2  0  0  0  0
  9 15  1  1  0  0  0
  3 16  1  0  0  0  0
 10 17  1  6  0  0  0
M  END
>  <cdx:groupId>
216255

>  <cdx:fragmentId>
216206

$$$$
