735755.cdx
  Mrv1902 05222410252D          

 17 17  0  0  0  0            999 V2000
   17.2979   -7.5250    0.0000 C   0  0  0  0  0  0  0  0  0  0  0  0
   16.5834   -7.9375    0.0000 C   0  0  0  0  0  0  0  0  0  0  0  0
   15.8689   -7.5250    0.0000 C   0  0  0  0  0  0  0  0  0  0  0  0
   15.1545   -7.9375    0.0000 C   0  0  0  0  0  0  0  0  0  0  0  0
   14.4400   -7.5250    0.0000 C   0  0  0  0  0  0  0  0  0  0  0  0
   13.7255   -7.9375    0.0000 C   0  0  0  0  0  0  0  0  0  0  0  0
   13.7255   -8.7625    0.0000 C   0  0  0  0  0  0  0  0  0  0  0  0
   14.4400   -9.1750    0.0000 C   0  0  0  0  0  0  0  0  0  0  0  0
   15.1545   -8.7625    0.0000 C   0  0  0  0  0  0  0  0  0  0  0  0
   17.2979   -6.7000    0.0000 O   0  0  0  0  0  0  0  0  0  0  0  0
   18.0123   -7.9375    0.0000 O   0  0  0  0  0  0  0  0  0  0  0  0
   14.4400  -10.0000    0.0000 O   0  0  0  0  0  0  0  0  0  0  0  0
   13.7255  -10.4125    0.0000 C   0  0  0  0  0  0  0  0  0  0  0  0
   13.0111   -9.1750    0.0000 O   0  0  0  0  0  0  0  0  0  0  0  0
   12.2966   -8.7625    0.0000 C   0  0  0  0  0  0  0  0  0  0  0  0
   13.0111   -7.5250    0.0000 O   0  0  0  0  0  0  0  0  0  0  0  0
   12.2966   -7.9375    0.0000 C   0  0  0  0  0  0  0  0  0  0  0  0
  1  2  1  0  0  0  0
  2  3  2  0  0  0  0
  3  4  1  0  0  0  0
  4  5  1  0  0  0  0
  5  6  2  0  0  0  0
  6  7  1  0  0  0  0
  7  8  2  0  0  0  0
  8  9  1  0  0  0  0
  4  9  2  0  0  0  0
  1 10  2  0  0  0  0
  1 11  1  0  0  0  0
 12 13  1  0  0  0  0
  8 12  1  0  0  0  0
 14 15  1  0  0  0  0
  7 14  1  0  0  0  0
 16 17  1  0  0  0  0
  6 16  1  0  0  0  0
M  END
>  <cdx:groupId>
14504

>  <cdx:fragmentId>
14456

$$$$
