735731.cdx
  Mrv1902 05222410262D          

 14 14  0  0  0  0            999 V2000
    6.3409   -6.2179    0.0000 C   0  0  0  0  0  0  0  0  0  0  0  0
    5.6264   -6.6304    0.0000 C   0  0  0  0  0  0  0  0  0  0  0  0
    6.3409   -5.3929    0.0000 O   0  0  0  0  0  0  0  0  0  0  0  0
    7.0554   -6.6304    0.0000 O   0  0  0  0  0  0  0  0  0  0  0  0
    7.7699   -6.2179    0.0000 C   0  0  2  0  0  0  0  0  0  0  0  0
    8.4843   -6.6304    0.0000 C   0  0  2  0  0  0  0  0  0  0  0  0
    9.1988   -6.2179    0.0000 C   0  0  0  0  0  0  0  0  0  0  0  0
    9.1988   -5.3929    0.0000 C   0  0  0  0  0  0  0  0  0  0  0  0
    8.4843   -4.9804    0.0000 C   0  0  1  0  0  0  0  0  0  0  0  0
    7.7699   -5.3929    0.0000 C   0  0  0  0  0  0  0  0  0  0  0  0
    9.1988   -7.8679    0.0000 C   0  0  0  0  0  0  0  0  0  0  0  0
    8.4843   -7.4554    0.0000 C   0  0  0  0  0  0  0  0  0  0  0  0
    7.7699   -7.8679    0.0000 C   0  0  0  0  0  0  0  0  0  0  0  0
    8.4843   -4.1554    0.0000 C   0  0  0  0  0  0  0  0  0  0  0  0
  1  2  1  0  0  0  0
  1  3  2  0  0  0  0
  1  4  1  0  0  0  0
  5  6  1  0  0  0  0
  6  7  1  0  0  0  0
  7  8  1  0  0  0  0
  8  9  1  0  0  0  0
  9 10  1  0  0  0  0
  5 10  1  0  0  0  0
 11 12  2  0  0  0  0
 12 13  1  0  0  0  0
  6 12  1  6  0  0  0
  9 14  1  1  0  0  0
  5  4  1  1  0  0  0
M  END
>  <cdx:fragmentId>
947

$$$$
