735841.cdx
  Mrv1902 05222410192D          

 17 17  0  0  0  0            999 V2000
   16.9406   -9.3555    0.0000 C   0  0  0  0  0  0  0  0  0  0  0  0
   16.9406   -8.5305    0.0000 C   0  0  0  0  0  0  0  0  0  0  0  0
   16.2262   -8.1180    0.0000 C   0  0  0  0  0  0  0  0  0  0  0  0
   16.2262   -9.7680    0.0000 O   0  0  0  0  0  0  0  0  0  0  0  0
   17.6551   -9.7680    0.0000 O   0  0  0  0  0  0  0  0  0  0  0  0
   15.5117   -8.5305    0.0000 C   0  0  0  0  0  0  0  0  0  0  0  0
   14.7972   -8.1180    0.0000 C   0  0  0  0  0  0  0  0  0  0  0  0
   14.0828   -8.5305    0.0000 C   0  0  0  0  0  0  0  0  0  0  0  0
   14.0828   -9.3555    0.0000 C   0  0  0  0  0  0  0  0  0  0  0  0
   14.7972   -9.7680    0.0000 C   0  0  0  0  0  0  0  0  0  0  0  0
   15.5117   -9.3555    0.0000 C   0  0  0  0  0  0  0  0  0  0  0  0
   13.3683   -9.7680    0.0000 O   0  0  0  0  0  0  0  0  0  0  0  0
   12.6538   -9.3555    0.0000 C   0  0  0  0  0  0  0  0  0  0  0  0
   13.3683   -8.1180    0.0000 O   0  0  0  0  0  0  0  0  0  0  0  0
   12.6538   -8.5305    0.0000 C   0  0  0  0  0  0  0  0  0  0  0  0
   14.7972   -7.2930    0.0000 O   0  0  0  0  0  0  0  0  0  0  0  0
   14.0828   -6.8805    0.0000 C   0  0  0  0  0  0  0  0  0  0  0  0
  1  2  1  0  0  0  0
  2  3  2  0  0  0  0
  1  4  2  0  0  0  0
  1  5  1  0  0  0  0
  6  7  1  0  0  0  0
  7  8  2  0  0  0  0
  8  9  1  0  0  0  0
  9 10  2  0  0  0  0
 10 11  1  0  0  0  0
  6 11  2  0  0  0  0
 12 13  1  0  0  0  0
  9 12  1  0  0  0  0
 14 15  1  0  0  0  0
  8 14  1  0  0  0  0
 16 17  1  0  0  0  0
  7 16  1  0  0  0  0
  3  6  1  0  0  0  0
M  END
>  <cdx:groupId>
14561

>  <cdx:fragmentId>
14523

$$$$
