73609.cdx
  Mrv1902 05222410182D          

 11 12  0  0  0  0            999 V2000
    5.0330   -9.4875    0.0000 C   0  0  0  0  0  0  0  0  0  0  0  0
    5.0330  -10.3125    0.0000 C   0  0  0  0  0  0  0  0  0  0  0  0
    5.7475  -10.7250    0.0000 C   0  0  0  0  0  0  0  0  0  0  0  0
    6.4620  -10.3125    0.0000 C   0  0  0  0  0  0  0  0  0  0  0  0
    6.4620   -9.4875    0.0000 C   0  0  0  0  0  0  0  0  0  0  0  0
    5.7475   -9.0750    0.0000 C   0  0  0  0  0  0  0  0  0  0  0  0
    7.2466  -10.5674    0.0000 N   0  0  0  0  0  0  0  0  0  0  0  0
    7.7315   -9.9000    0.0000 C   0  0  0  0  0  0  0  0  0  0  0  0
    7.2466   -9.2326    0.0000 C   0  0  0  0  0  0  0  0  0  0  0  0
    7.5015   -8.4479    0.0000 C   0  0  0  0  0  0  0  0  0  0  0  0
    8.3085   -8.2764    0.0000 O   0  0  0  0  0  0  0  0  0  0  0  0
  1  2  2  0  0  0  0
  2  3  1  0  0  0  0
  3  4  2  0  0  0  0
  4  5  1  0  0  0  0
  5  6  2  0  0  0  0
  6  1  1  0  0  0  0
  4  7  1  0  0  0  0
  7  8  1  0  0  0  0
  8  9  2  0  0  0  0
  9  5  1  0  0  0  0
  9 10  1  0  0  0  0
 10 11  1  0  0  0  0
M  END
>  <cdx:fragmentId>
847

$$$$
