73604.cdx
  Mrv1902 05222410282D          

 12 11  0  0  0  0            999 V2000
    3.6025   -8.6075    0.0000 O   0  0  0  0  0  0  0  0  0  0  0  0
    4.3170   -8.1950    0.0000 C   0  0  0  0  0  0  0  0  0  0  0  0
    5.0314   -8.6075    0.0000 C   0  0  0  0  0  0  0  0  0  0  0  0
    5.7459   -8.1950    0.0000 C   0  0  0  0  0  0  0  0  0  0  0  0
    6.4604   -8.6075    0.0000 C   0  0  0  0  0  0  0  0  0  0  0  0
    7.1749   -8.1950    0.0000 C   0  0  0  0  0  0  0  0  0  0  0  0
    7.8893   -8.6075    0.0000 C   0  0  0  0  0  0  0  0  0  0  0  0
    8.6038   -8.1950    0.0000 C   0  0  0  0  0  0  0  0  0  0  0  0
    9.3183   -8.6075    0.0000 C   0  0  0  0  0  0  0  0  0  0  0  0
   10.0327   -8.1950    0.0000 C   0  0  0  0  0  0  0  0  0  0  0  0
    4.3170   -7.3700    0.0000 O   0  0  0  0  0  0  0  0  0  0  0  0
    6.4604   -9.4325    0.0000 O   0  0  0  0  0  0  0  0  0  0  0  0
  1  2  1  0  0  0  0
  2  3  1  0  0  0  0
  3  4  2  0  0  0  0
  4  5  1  0  0  0  0
  5  6  1  0  0  0  0
  6  7  1  0  0  0  0
  7  8  1  0  0  0  0
  8  9  1  0  0  0  0
  9 10  1  0  0  0  0
  2 11  2  0  0  0  0
  5 12  1  0  0  0  0
M  END
>  <cdx:fragmentId>
235

$$$$
