73605.cdx
  Mrv1902 05222410282D          

 23 24  0  0  0  0            999 V2000
    2.5580   -9.7075    0.0000 C   0  0  0  0  0  0  0  0  0  0  0  0
    2.5580  -10.5325    0.0000 C   0  0  0  0  0  0  0  0  0  0  0  0
    3.2725  -10.9450    0.0000 C   0  0  0  0  0  0  0  0  0  0  0  0
    3.9870  -10.5325    0.0000 C   0  0  0  0  0  0  0  0  0  0  0  0
    3.9870   -9.7075    0.0000 C   0  0  0  0  0  0  0  0  0  0  0  0
    3.2725   -9.2950    0.0000 C   0  0  0  0  0  0  0  0  0  0  0  0
    4.7014   -9.2950    0.0000 C   0  0  0  0  0  0  0  0  0  0  0  0
    5.4159   -9.7075    0.0000 C   0  0  0  0  0  0  0  0  0  0  0  0
    6.1304   -9.2950    0.0000 C   0  0  0  0  0  0  0  0  0  0  0  0
    6.8449   -9.7075    0.0000 C   0  0  0  0  0  0  0  0  0  0  0  0
    7.5593   -9.2950    0.0000 C   0  0  0  0  0  0  0  0  0  0  0  0
    8.2738   -9.7075    0.0000 C   0  0  0  0  0  0  0  0  0  0  0  0
    8.9883   -9.2950    0.0000 C   0  0  0  0  0  0  0  0  0  0  0  0
    9.7027   -9.7075    0.0000 C   0  0  0  0  0  0  0  0  0  0  0  0
    9.7027  -10.5325    0.0000 C   0  0  0  0  0  0  0  0  0  0  0  0
   10.4172  -10.9450    0.0000 C   0  0  0  0  0  0  0  0  0  0  0  0
   11.1317  -10.5325    0.0000 C   0  0  0  0  0  0  0  0  0  0  0  0
   11.1317   -9.7075    0.0000 C   0  0  0  0  0  0  0  0  0  0  0  0
   10.4172   -9.2950    0.0000 C   0  0  0  0  0  0  0  0  0  0  0  0
    6.1304   -8.4700    0.0000 O   0  0  0  0  0  0  0  0  0  0  0  0
    7.5593   -8.4700    0.0000 O   0  0  0  0  0  0  0  0  0  0  0  0
    1.8436  -10.9450    0.0000 O   0  0  0  0  0  0  0  0  0  0  0  0
   11.8462  -10.9450    0.0000 O   0  0  0  0  0  0  0  0  0  0  0  0
  1  2  2  0  0  0  0
  2  3  1  0  0  0  0
  3  4  2  0  0  0  0
  4  5  1  0  0  0  0
  5  6  2  0  0  0  0
  6  1  1  0  0  0  0
  5  7  1  0  0  0  0
  7  8  1  0  0  0  0
  8  9  1  0  0  0  0
  9 10  1  0  0  0  0
 10 11  1  0  0  0  0
 11 12  1  0  0  0  0
 12 13  1  0  0  0  0
 13 14  1  0  0  0  0
 14 15  2  0  0  0  0
 15 16  1  0  0  0  0
 16 17  2  0  0  0  0
 17 18  1  0  0  0  0
 18 19  2  0  0  0  0
 19 14  1  0  0  0  0
  9 20  1  0  0  0  0
 11 21  1  0  0  0  0
  2 22  1  0  0  0  0
 17 23  1  0  0  0  0
M  END
>  <cdx:fragmentId>
294

$$$$
