73600.cdx
  Mrv1902 05222410262D          

 28 30  0  0  0  0            999 V2000
    7.0130  -11.4400    0.0000 C   0  0  1  0  0  0  0  0  0  0  0  0
    7.0130  -12.2650    0.0000 C   0  0  0  0  0  0  0  0  0  0  0  0
    7.7275  -12.6775    0.0000 C   0  0  1  0  0  0  0  0  0  0  0  0
    8.4419  -12.2650    0.0000 C   0  0  1  0  0  0  0  0  0  0  0  0
    8.4419  -11.4400    0.0000 C   0  0  2  0  0  0  0  0  0  0  0  0
    7.7275  -11.0275    0.0000 O   0  0  0  0  0  0  0  0  0  0  0  0
    9.1564  -11.0275    0.0000 C   0  0  0  0  0  0  0  0  0  0  0  0
    9.8708  -11.4400    0.0000 C   0  0  0  0  0  0  0  0  0  0  0  0
   10.5853  -11.0275    0.0000 C   0  0  0  0  0  0  0  0  0  0  0  0
   10.5853  -10.2025    0.0000 C   0  0  0  0  0  0  0  0  0  0  0  0
    9.8708   -9.7900    0.0000 C   0  0  0  0  0  0  0  0  0  0  0  0
    9.1564  -10.2025    0.0000 C   0  0  0  0  0  0  0  0  0  0  0  0
    6.2986  -11.0275    0.0000 C   0  0  0  0  0  0  0  0  0  0  0  0
    5.5841  -11.4400    0.0000 C   0  0  0  0  0  0  0  0  0  0  0  0
    4.8697  -11.0275    0.0000 C   0  0  0  0  0  0  0  0  0  0  0  0
    4.8697  -10.2025    0.0000 C   0  0  0  0  0  0  0  0  0  0  0  0
    4.1552   -9.7900    0.0000 C   0  0  0  0  0  0  0  0  0  0  0  0
    3.4408  -10.2025    0.0000 C   0  0  0  0  0  0  0  0  0  0  0  0
    3.4408  -11.0275    0.0000 C   0  0  0  0  0  0  0  0  0  0  0  0
    4.1552  -11.4400    0.0000 C   0  0  0  0  0  0  0  0  0  0  0  0
    7.7275  -13.5025    0.0000 O   0  0  0  0  0  0  0  0  0  0  0  0
    9.1564  -12.6775    0.0000 O   0  0  0  0  0  0  0  0  0  0  0  0
    2.7261   -9.7900    0.0000 O   0  0  0  0  0  0  0  0  0  0  0  0
    4.1552   -8.9650    0.0000 O   0  0  0  0  0  0  0  0  0  0  0  0
    9.8708   -8.9650    0.0000 O   0  0  0  0  0  0  0  0  0  0  0  0
   11.2997   -9.7900    0.0000 O   0  0  0  0  0  0  0  0  0  0  0  0
    9.1564   -8.5525    0.0000 C   0  0  0  0  0  0  0  0  0  0  0  0
    3.4408   -8.5525    0.0000 C   0  0  0  0  0  0  0  0  0  0  0  0
  1  2  1  0  0  0  0
  2  3  1  0  0  0  0
  3  4  1  0  0  0  0
  4  5  1  0  0  0  0
  5  6  1  0  0  0  0
  6  1  1  0  0  0  0
  5  7  1  6  0  0  0
  7  8  2  0  0  0  0
  8  9  1  0  0  0  0
  9 10  2  0  0  0  0
 10 11  1  0  0  0  0
 11 12  2  0  0  0  0
 12  7  1  0  0  0  0
  1 13  1  6  0  0  0
 13 14  1  0  0  0  0
 14 15  1  0  0  0  0
 15 16  1  0  0  0  0
 16 17  2  0  0  0  0
 17 18  1  0  0  0  0
 18 19  2  0  0  0  0
 19 20  1  0  0  0  0
 20 15  2  0  0  0  0
  3 21  1  1  0  0  0
  4 22  1  1  0  0  0
 18 23  1  0  0  0  0
 17 24  1  0  0  0  0
 11 25  1  0  0  0  0
 10 26  1  0  0  0  0
 25 27  1  0  0  0  0
 24 28  1  0  0  0  0
M  END
>  <cdx:fragmentId>
5

$$$$
