7360.cdx
  Mrv1902 05222410272D          

  7  7  0  0  0  0            999 V2000
    4.0311   -2.8883    0.0000 C   0  0  0  0  0  0  0  0  0  0  0  0
    4.7456   -2.4758    0.0000 O   0  0  0  0  0  0  0  0  0  0  0  0
    3.2304   -1.6553    0.0000 O   0  0  0  0  0  0  0  0  0  0  0  0
    3.3167   -2.4758    0.0000 C   0  0  0  0  0  0  0  0  0  0  0  0
    2.5630   -2.8114    0.0000 C   0  0  0  0  0  0  0  0  0  0  0  0
    2.0110   -2.1983    0.0000 C   0  0  0  0  0  0  0  0  0  0  0  0
    2.4235   -1.4838    0.0000 C   0  0  0  0  0  0  0  0  0  0  0  0
  1  2  1  0  0  0  0
  3  4  1  0  0  0  0
  4  5  1  0  0  0  0
  5  6  1  0  0  0  0
  6  7  1  0  0  0  0
  3  7  1  0  0  0  0
  1  4  1  0  0  0  0
M  END
>  <cdx:groupId>
23

>  <cdx:fragmentId>
9

$$$$
