73603.cdx
  Mrv1902 05222410272D          

 14 13  0  0  0  0            999 V2000
    2.2825   -8.3600    0.0000 O   0  0  0  0  0  0  0  0  0  0  0  0
    2.9970   -7.9475    0.0000 C   0  0  0  0  0  0  0  0  0  0  0  0
    3.7114   -8.3600    0.0000 C   0  0  0  0  0  0  0  0  0  0  0  0
    4.4259   -7.9475    0.0000 C   0  0  0  0  0  0  0  0  0  0  0  0
    5.1404   -8.3600    0.0000 C   0  0  0  0  0  0  0  0  0  0  0  0
    5.8549   -7.9475    0.0000 C   0  0  0  0  0  0  0  0  0  0  0  0
    6.5693   -8.3600    0.0000 C   0  0  0  0  0  0  0  0  0  0  0  0
    7.2838   -7.9475    0.0000 C   0  0  0  0  0  0  0  0  0  0  0  0
    7.9983   -8.3600    0.0000 C   0  0  0  0  0  0  0  0  0  0  0  0
    8.7127   -7.9475    0.0000 C   0  0  0  0  0  0  0  0  0  0  0  0
    2.9970   -7.1225    0.0000 O   0  0  0  0  0  0  0  0  0  0  0  0
    9.4272   -8.3600    0.0000 C   0  0  0  0  0  0  0  0  0  0  0  0
   10.1417   -7.9475    0.0000 O   0  0  0  0  0  0  0  0  0  0  0  0
    9.4272   -9.1850    0.0000 O   0  0  0  0  0  0  0  0  0  0  0  0
  1  2  1  0  0  0  0
  2  3  1  0  0  0  0
  3  4  2  0  0  0  0
  4  5  1  0  0  0  0
  5  6  1  0  0  0  0
  6  7  1  0  0  0  0
  7  8  1  0  0  0  0
  8  9  1  0  0  0  0
  9 10  1  0  0  0  0
  2 11  2  0  0  0  0
 10 12  1  0  0  0  0
 12 13  1  0  0  0  0
 12 14  2  0  0  0  0
M  END
>  <cdx:fragmentId>
235

$$$$
