73602.cdx
  Mrv1902 05222410262D          

 24 26  0  0  0  0            999 V2000
    7.2055   -9.6525    0.0000 C   0  0  1  0  0  0  0  0  0  0  0  0
    7.2055  -10.4775    0.0000 C   0  0  0  0  0  0  0  0  0  0  0  0
    7.9200  -10.8900    0.0000 C   0  0  1  0  0  0  0  0  0  0  0  0
    8.6344  -10.4775    0.0000 C   0  0  1  0  0  0  0  0  0  0  0  0
    8.6344   -9.6525    0.0000 C   0  0  2  0  0  0  0  0  0  0  0  0
    7.9200   -9.2400    0.0000 O   0  0  0  0  0  0  0  0  0  0  0  0
    9.3489   -9.2400    0.0000 C   0  0  0  0  0  0  0  0  0  0  0  0
   10.0633   -9.6525    0.0000 C   0  0  0  0  0  0  0  0  0  0  0  0
   10.7778   -9.2400    0.0000 C   0  0  0  0  0  0  0  0  0  0  0  0
   10.7778   -8.4150    0.0000 C   0  0  0  0  0  0  0  0  0  0  0  0
   10.0633   -8.0025    0.0000 C   0  0  0  0  0  0  0  0  0  0  0  0
    9.3489   -8.4150    0.0000 C   0  0  0  0  0  0  0  0  0  0  0  0
    6.4911   -9.2400    0.0000 C   0  0  0  0  0  0  0  0  0  0  0  0
    5.7766   -9.6525    0.0000 C   0  0  0  0  0  0  0  0  0  0  0  0
    5.0622   -9.2400    0.0000 C   0  0  0  0  0  0  0  0  0  0  0  0
    5.0622   -8.4150    0.0000 C   0  0  0  0  0  0  0  0  0  0  0  0
    4.3477   -8.0025    0.0000 C   0  0  0  0  0  0  0  0  0  0  0  0
    3.6333   -8.4150    0.0000 C   0  0  0  0  0  0  0  0  0  0  0  0
    3.6333   -9.2400    0.0000 C   0  0  0  0  0  0  0  0  0  0  0  0
    4.3477   -9.6525    0.0000 C   0  0  0  0  0  0  0  0  0  0  0  0
    7.9200  -11.7150    0.0000 O   0  0  0  0  0  0  0  0  0  0  0  0
    9.3489  -10.8900    0.0000 O   0  0  0  0  0  0  0  0  0  0  0  0
    2.9186   -8.0025    0.0000 O   0  0  0  0  0  0  0  0  0  0  0  0
   11.4922   -8.0025    0.0000 O   0  0  0  0  0  0  0  0  0  0  0  0
  1  2  1  0  0  0  0
  2  3  1  0  0  0  0
  3  4  1  0  0  0  0
  4  5  1  0  0  0  0
  5  6  1  0  0  0  0
  6  1  1  0  0  0  0
  5  7  1  6  0  0  0
  7  8  2  0  0  0  0
  8  9  1  0  0  0  0
  9 10  2  0  0  0  0
 10 11  1  0  0  0  0
 11 12  2  0  0  0  0
 12  7  1  0  0  0  0
  1 13  1  6  0  0  0
 13 14  1  0  0  0  0
 14 15  1  0  0  0  0
 15 16  1  0  0  0  0
 16 17  2  0  0  0  0
 17 18  1  0  0  0  0
 18 19  2  0  0  0  0
 19 20  1  0  0  0  0
 20 15  2  0  0  0  0
  3 21  1  1  0  0  0
  4 22  1  1  0  0  0
 18 23  1  0  0  0  0
 10 24  1  0  0  0  0
M  END
>  <cdx:fragmentId>
5

$$$$
