73601.cdx
  Mrv1902 05222410262D          

 18 18  0  0  0  0            999 V2000
    7.6180   -8.4425    0.0000 C   0  0  1  0  0  0  0  0  0  0  0  0
    7.6180   -9.2675    0.0000 C   0  0  0  0  0  0  0  0  0  0  0  0
    8.3325   -9.6800    0.0000 C   0  0  0  0  0  0  0  0  0  0  0  0
    9.0470   -9.2675    0.0000 C   0  0  0  0  0  0  0  0  0  0  0  0
    9.0470   -8.4425    0.0000 C   0  0  0  0  0  0  0  0  0  0  0  0
    8.3325   -8.0300    0.0000 C   0  0  0  0  0  0  0  0  0  0  0  0
    6.9036   -8.0300    0.0000 C   0  0  2  0  0  0  0  0  0  0  0  0
    6.1891   -8.4425    0.0000 C   0  0  0  0  0  0  0  0  0  0  0  0
    6.1891   -9.2675    0.0000 C   0  0  0  0  0  0  0  0  0  0  0  0
    6.9036   -9.6800    0.0000 C   0  0  0  0  0  0  0  0  0  0  0  0
    6.9036  -10.5050    0.0000 C   0  0  0  0  0  0  0  0  0  0  0  0
    7.6180  -10.9175    0.0000 C   0  0  0  0  0  0  0  0  0  0  0  0
    6.1891  -10.9175    0.0000 C   0  0  0  0  0  0  0  0  0  0  0  0
    5.4746  -10.5050    0.0000 O   0  0  0  0  0  0  0  0  0  0  0  0
    8.3325  -10.5050    0.0000 O   0  0  0  0  0  0  0  0  0  0  0  0
    7.6180   -7.6175    0.0000 O   0  0  0  0  0  0  0  0  0  0  0  0
    6.9036   -7.2050    0.0000 C   0  0  0  0  0  0  0  0  0  0  0  0
    9.7614   -9.6800    0.0000 C   0  0  0  0  0  0  0  0  0  0  0  0
  1  2  1  0  0  0  0
  2  3  1  0  0  0  0
  3  4  1  0  0  0  0
  4  5  2  0  0  0  0
  5  6  1  0  0  0  0
  6  1  1  0  0  0  0
  1  7  1  0  0  0  0
  7  8  1  0  0  0  0
  8  9  1  0  0  0  0
  9 10  1  0  0  0  0
 10 11  2  0  0  0  0
 11 12  1  0  0  0  0
 11 13  1  0  0  0  0
 13 14  1  0  0  0  0
 12 15  1  0  0  0  0
  1 16  1  1  0  0  0
  7 17  1  6  0  0  0
  4 18  1  0  0  0  0
M  END
>  <cdx:fragmentId>
116

$$$$
