73608.cdx
  Mrv1902 05222410182D          

 25 27  0  0  0  0            999 V2000
    4.1805  -10.4775    0.0000 C   0  0  0  0  0  0  0  0  0  0  0  0
    4.1805  -11.3025    0.0000 C   0  0  0  0  0  0  0  0  0  0  0  0
    4.8950  -11.7150    0.0000 C   0  0  0  0  0  0  0  0  0  0  0  0
    5.6095  -11.3025    0.0000 C   0  0  0  0  0  0  0  0  0  0  0  0
    5.6095  -10.4775    0.0000 C   0  0  0  0  0  0  0  0  0  0  0  0
    4.8950  -10.0650    0.0000 C   0  0  0  0  0  0  0  0  0  0  0  0
    6.3239  -11.7150    0.0000 C   0  0  0  0  0  0  0  0  0  0  0  0
    7.0384  -11.3025    0.0000 C   0  0  0  0  0  0  0  0  0  0  0  0
    7.0384  -10.4775    0.0000 C   0  0  0  0  0  0  0  0  0  0  0  0
    6.3239  -10.0650    0.0000 O   0  0  0  0  0  0  0  0  0  0  0  0
    7.7529  -10.0650    0.0000 C   0  0  0  0  0  0  0  0  0  0  0  0
    8.4674  -10.4775    0.0000 C   0  0  0  0  0  0  0  0  0  0  0  0
    9.1818  -10.0650    0.0000 C   0  0  0  0  0  0  0  0  0  0  0  0
    9.1818   -9.2400    0.0000 C   0  0  0  0  0  0  0  0  0  0  0  0
    8.4674   -8.8275    0.0000 C   0  0  0  0  0  0  0  0  0  0  0  0
    7.7529   -9.2400    0.0000 C   0  0  0  0  0  0  0  0  0  0  0  0
    9.8963   -8.8275    0.0000 O   0  0  0  0  0  0  0  0  0  0  0  0
    4.8950  -12.5400    0.0000 O   0  0  0  0  0  0  0  0  0  0  0  0
    3.4661  -10.0650    0.0000 O   0  0  0  0  0  0  0  0  0  0  0  0
    6.3239  -12.5400    0.0000 O   0  0  0  0  0  0  0  0  0  0  0  0
    9.8963  -10.4775    0.0000 O   0  0  0  0  0  0  0  0  0  0  0  0
   10.6108  -10.0650    0.0000 C   0  0  0  0  0  0  0  0  0  0  0  0
    2.7516  -10.4775    0.0000 C   0  0  0  0  0  0  0  0  0  0  0  0
    7.7529  -11.7150    0.0000 O   0  0  0  0  0  0  0  0  0  0  0  0
    8.4674  -11.3025    0.0000 C   0  0  0  0  0  0  0  0  0  0  0  0
  1  2  2  0  0  0  0
  2  3  1  0  0  0  0
  3  4  2  0  0  0  0
  4  5  1  0  0  0  0
  5  6  2  0  0  0  0
  6  1  1  0  0  0  0
  4  7  1  0  0  0  0
  7  8  1  0  0  0  0
  8  9  1  0  0  0  0
  9 10  1  0  0  0  0
 10  5  1  0  0  0  0
  9 11  1  0  0  0  0
 11 12  2  0  0  0  0
 12 13  1  0  0  0  0
 13 14  2  0  0  0  0
 14 15  1  0  0  0  0
 15 16  2  0  0  0  0
 16 11  1  0  0  0  0
 14 17  1  0  0  0  0
  3 18  1  0  0  0  0
  1 19  1  0  0  0  0
  7 20  2  0  0  0  0
 13 21  1  0  0  0  0
 21 22  1  0  0  0  0
 19 23  1  0  0  0  0
  8 24  1  0  0  0  0
 24 25  1  0  0  0  0
M  END
>  <cdx:fragmentId>
372

$$$$
