7361.cdx
  Mrv1902 05222410272D          

  7  7  0  0  0  0            999 V2000
    4.3818   -3.0740    0.0000 C   0  0  0  0  0  0  0  0  0  0  0  0
    5.0962   -2.6615    0.0000 O   0  0  0  0  0  0  0  0  0  0  0  0
    3.5811   -1.8410    0.0000 O   0  0  0  0  0  0  0  0  0  0  0  0
    3.6673   -2.6615    0.0000 C   0  0  0  0  0  0  0  0  0  0  0  0
    2.9136   -2.9970    0.0000 C   0  0  0  0  0  0  0  0  0  0  0  0
    2.3616   -2.3839    0.0000 C   0  0  0  0  0  0  0  0  0  0  0  0
    2.7741   -1.6694    0.0000 C   0  0  0  0  0  0  0  0  0  0  0  0
  1  2  1  0  0  0  0
  3  4  1  0  0  0  0
  4  5  2  0  0  0  0
  5  6  1  0  0  0  0
  6  7  2  0  0  0  0
  3  7  1  0  0  0  0
  1  4  1  0  0  0  0
M  END
>  <cdx:groupId>
23

>  <cdx:fragmentId>
9

$$$$
