73610.cdx
  Mrv1902 05222410282D          

 13 13  0  0  0  0            999 V2000
    5.7480   -9.4050    0.0000 C   0  0  0  0  0  0  0  0  0  0  0  0
    5.7480  -10.2300    0.0000 C   0  0  0  0  0  0  0  0  0  0  0  0
    6.4625  -10.6425    0.0000 C   0  0  0  0  0  0  0  0  0  0  0  0
    7.1770  -10.2300    0.0000 C   0  0  0  0  0  0  0  0  0  0  0  0
    7.1770   -9.4050    0.0000 C   0  0  0  0  0  0  0  0  0  0  0  0
    6.4625   -8.9925    0.0000 C   0  0  0  0  0  0  0  0  0  0  0  0
    6.4625   -8.1675    0.0000 O   0  0  0  0  0  0  0  0  0  0  0  0
    7.8914   -8.9925    0.0000 O   0  0  0  0  0  0  0  0  0  0  0  0
    5.0336   -8.9925    0.0000 O   0  0  0  0  0  0  0  0  0  0  0  0
    6.4625  -11.4675    0.0000 C   0  0  0  0  0  0  0  0  0  0  0  0
    7.8914   -8.1675    0.0000 C   0  0  0  0  0  0  0  0  0  0  0  0
    5.0336   -8.1675    0.0000 C   0  0  0  0  0  0  0  0  0  0  0  0
    5.7480  -11.8800    0.0000 O   0  0  0  0  0  0  0  0  0  0  0  0
  1  2  2  0  0  0  0
  2  3  1  0  0  0  0
  3  4  2  0  0  0  0
  4  5  1  0  0  0  0
  5  6  2  0  0  0  0
  6  1  1  0  0  0  0
  6  7  1  0  0  0  0
  5  8  1  0  0  0  0
  1  9  1  0  0  0  0
  3 10  1  0  0  0  0
  8 11  1  0  0  0  0
  9 12  1  0  0  0  0
 10 13  1  0  0  0  0
M  END
>  <cdx:fragmentId>
890

$$$$
