15736266.cdx
  Mrv1902 05222410232D          

 20 19  0  0  0  0            999 V2000
   12.9840  -13.6119    0.0000 C   0  0  0  0  0  0  0  0  0  0  0  0
   12.2695  -14.0244    0.0000 C   0  0  0  0  0  0  0  0  0  0  0  0
   11.5551  -13.6119    0.0000 C   0  0  0  0  0  0  0  0  0  0  0  0
   10.8406  -14.0244    0.0000 C   0  0  0  0  0  0  0  0  0  0  0  0
   10.1261  -14.4369    0.0000 C   0  0  0  0  0  0  0  0  0  0  0  0
    9.4117  -14.8494    0.0000 C   0  0  0  0  0  0  0  0  0  0  0  0
    8.6972  -15.2619    0.0000 C   0  0  0  0  0  0  0  0  0  0  0  0
    7.9827  -15.6744    0.0000 C   0  0  0  0  0  0  0  0  0  0  0  0
    7.2682  -15.2619    0.0000 C   0  0  0  0  0  0  0  0  0  0  0  0
    6.5538  -15.6744    0.0000 C   0  0  0  0  0  0  0  0  0  0  0  0
    5.8393  -15.2619    0.0000 C   0  0  0  0  0  0  0  0  0  0  0  0
    5.1248  -15.6744    0.0000 C   0  0  0  0  0  0  0  0  0  0  0  0
    4.4104  -15.2619    0.0000 C   0  0  0  0  0  0  0  0  0  0  0  0
    3.6959  -15.6744    0.0000 C   0  0  0  0  0  0  0  0  0  0  0  0
    2.9814  -15.2619    0.0000 C   0  0  0  0  0  0  0  0  0  0  0  0
    2.2670  -15.6744    0.0000 C   0  0  0  0  0  0  0  0  0  0  0  0
    1.5525  -15.2619    0.0000 C   0  0  0  0  0  0  0  0  0  0  0  0
   11.5551  -12.7869    0.0000 O   0  0  0  0  0  0  0  0  0  0  0  0
    6.5538  -16.4994    0.0000 O   0  0  0  0  0  0  0  0  0  0  0  0
    5.8393  -16.9119    0.0000 O   0  0  0  0  0  0  0  0  0  0  0  0
  1  2  2  0  0  0  0
  2  3  1  0  0  0  0
  3  4  1  0  0  0  0
  4  5  3  0  0  0  0
  5  6  1  0  0  0  0
  6  7  3  0  0  0  0
  7  8  1  0  0  0  0
  8  9  2  0  0  0  0
  9 10  1  0  0  0  0
 10 11  1  0  0  0  0
 11 12  1  0  0  0  0
 12 13  1  0  0  0  0
 13 14  1  0  0  0  0
 14 15  1  0  0  0  0
 15 16  1  0  0  0  0
 16 17  1  0  0  0  0
  3 18  1  0  0  0  0
 19 20  1  0  0  0  0
 10 19  1  0  0  0  0
M  END
>  <cdx:groupId>
116319

>  <cdx:fragmentId>
116263

$$$$
