73635.cdx
  Mrv1902 05222410182D          

 22 24  0  0  0  0            999 V2000
    4.4830   -9.5975    0.0000 C   0  0  0  0  0  0  0  0  0  0  0  0
    4.4830  -10.4225    0.0000 C   0  0  0  0  0  0  0  0  0  0  0  0
    5.1975  -10.8350    0.0000 C   0  0  0  0  0  0  0  0  0  0  0  0
    5.9120  -10.4225    0.0000 C   0  0  0  0  0  0  0  0  0  0  0  0
    5.9120   -9.5975    0.0000 C   0  0  0  0  0  0  0  0  0  0  0  0
    5.1975   -9.1850    0.0000 C   0  0  0  0  0  0  0  0  0  0  0  0
    6.6264  -10.8350    0.0000 C   0  0  0  0  0  0  0  0  0  0  0  0
    7.3409  -10.4225    0.0000 C   0  0  0  0  0  0  0  0  0  0  0  0
    7.3409   -9.5975    0.0000 C   0  0  0  0  0  0  0  0  0  0  0  0
    6.6264   -9.1850    0.0000 O   0  0  0  0  0  0  0  0  0  0  0  0
    8.0554   -9.1850    0.0000 C   0  0  0  0  0  0  0  0  0  0  0  0
    8.7699   -9.5975    0.0000 C   0  0  0  0  0  0  0  0  0  0  0  0
    9.4843   -9.1850    0.0000 C   0  0  0  0  0  0  0  0  0  0  0  0
    9.4843   -8.3600    0.0000 C   0  0  0  0  0  0  0  0  0  0  0  0
    8.7699   -7.9475    0.0000 C   0  0  0  0  0  0  0  0  0  0  0  0
    8.0554   -8.3600    0.0000 C   0  0  0  0  0  0  0  0  0  0  0  0
   10.1988   -7.9475    0.0000 O   0  0  0  0  0  0  0  0  0  0  0  0
    5.1975  -11.6600    0.0000 O   0  0  0  0  0  0  0  0  0  0  0  0
    3.7686   -9.1850    0.0000 O   0  0  0  0  0  0  0  0  0  0  0  0
    6.6264  -11.6600    0.0000 O   0  0  0  0  0  0  0  0  0  0  0  0
   10.1988   -9.5975    0.0000 O   0  0  0  0  0  0  0  0  0  0  0  0
   10.9133   -9.1850    0.0000 C   0  0  0  0  0  0  0  0  0  0  0  0
  1  2  2  0  0  0  0
  2  3  1  0  0  0  0
  3  4  2  0  0  0  0
  4  5  1  0  0  0  0
  5  6  2  0  0  0  0
  6  1  1  0  0  0  0
  4  7  1  0  0  0  0
  7  8  1  0  0  0  0
  8  9  1  0  0  0  0
  9 10  1  0  0  0  0
 10  5  1  0  0  0  0
  9 11  1  0  0  0  0
 11 12  2  0  0  0  0
 12 13  1  0  0  0  0
 13 14  2  0  0  0  0
 14 15  1  0  0  0  0
 15 16  2  0  0  0  0
 16 11  1  0  0  0  0
 14 17  1  0  0  0  0
  3 18  1  0  0  0  0
  1 19  1  0  0  0  0
  7 20  2  0  0  0  0
 13 21  1  0  0  0  0
 21 22  1  0  0  0  0
M  END
>  <cdx:fragmentId>
372

$$$$
