736458.cdx
  Mrv1902 05222410252D          

 36 38  0  0  0  0            999 V2000
    5.6705  -13.7696    0.0000 C   0  0  0  0  0  0  0  0  0  0  0  0
    5.6566  -12.9448    0.0000 C   0  0  0  0  0  0  0  0  0  0  0  0
    8.9321   -8.7614    0.0000 C   0  0  0  0  0  0  0  0  0  0  0  0
    9.2148   -7.9863    0.0000 O   0  0  0  0  0  0  0  0  0  0  0  0
    3.4927  -11.7435    0.0000 O   0  0  0  0  0  0  0  0  0  0  0  0
    4.1862  -10.4941    0.0000 O   0  0  0  0  0  0  0  0  0  0  0  0
    4.2001  -11.3190    0.0000 C   0  0  0  0  0  0  0  0  0  0  0  0
    4.9214  -11.7194    0.0000 C   0  0  0  0  0  0  0  0  0  0  0  0
    5.6288  -11.2950    0.0000 C   0  0  0  0  0  0  0  0  0  0  0  0
    8.4724   -9.5970    0.0000 C   0  0  0  0  0  0  0  0  0  0  0  0
    6.3363  -10.8705    0.0000 C   0  0  0  0  0  0  0  0  0  0  0  0
    8.4863  -12.0719    0.0000 C   0  0  0  0  0  0  0  0  0  0  0  0
    4.9353  -12.5443    0.0000 C   0  0  0  0  0  0  0  0  0  0  0  0
    9.2751  -11.4886    0.0000 C   0  0  0  0  0  0  0  0  0  0  0  0
    9.7487  -10.8131    0.0000 C   0  0  0  0  0  0  0  0  0  0  0  0
    9.2527  -10.1539    0.0000 C   0  0  1  0  0  0  0  0  0  0  0  0
    7.7789  -11.6714    0.0000 C   0  0  0  0  0  0  0  0  0  0  0  0
    7.7928  -12.4963    0.0000 C   0  0  0  0  0  0  0  0  0  0  0  0
    7.0853  -12.9207    0.0000 C   0  0  0  0  0  0  0  0  0  0  0  0
    6.3640  -12.5203    0.0000 C   0  0  2  0  0  0  0  0  0  0  0  0
    6.3502  -11.6954    0.0000 C   0  0  1  0  0  0  0  0  0  0  0  0
    7.0576  -11.2709    0.0000 C   0  0  0  0  0  0  0  0  0  0  0  0
    7.0437  -10.4461    0.0000 C   0  0  0  0  0  0  0  0  0  0  0  0
    7.7511  -10.0216    0.0000 C   0  0  0  0  0  0  0  0  0  0  0  0
    8.4724  -10.4220    0.0000 C   0  0  2  0  0  0  0  0  0  0  0  0
    8.4863  -11.2469    0.0000 C   0  0  2  0  0  0  0  0  0  0  0  0
    8.1195   -8.9042    0.0000 O   0  0  0  0  0  0  0  0  0  0  0  0
   10.2876   -9.1382    0.0000 C   0  0  0  0  0  0  0  0  0  0  0  0
    9.4944   -9.3651    0.0000 C   0  0  1  0  0  0  0  0  0  0  0  0
   10.0496   -9.9404    0.0000 H   0  0  0  0  0  0  0  0  0  0  0  0
   10.4876   -8.3379    0.0000 C   0  0  0  0  0  0  0  0  0  0  0  0
   11.2808   -8.1110    0.0000 C   0  0  0  0  0  0  0  0  0  0  0  0
   11.4809   -7.3106    0.0000 C   0  0  0  0  0  0  0  0  0  0  0  0
   10.8878   -6.7371    0.0000 C   0  0  0  0  0  0  0  0  0  0  0  0
   12.2741   -7.0837    0.0000 C   0  0  0  0  0  0  0  0  0  0  0  0
    6.3779  -13.3452    0.0000 H   0  0  0  0  0  0  0  0  0  0  0  0
 29 16  1  0  0  0  0
 21  9  1  0  0  0  0
  8  7  1  0  0  0  0
  7  5  1  0  0  0  0
  7  6  2  0  0  0  0
  9  8  1  0  0  0  0
 25 10  1  1  0  0  0
 21 11  1  1  0  0  0
 26 12  1  6  0  0  0
 20  2  1  1  0  0  0
 16 25  1  0  0  0  0
 14 26  1  0  0  0  0
 15 14  1  0  0  0  0
 16 15  1  0  0  0  0
 22 17  1  0  0  0  0
 26 17  1  0  0  0  0
 18 17  2  0  0  0  0
 19 18  1  0  0  0  0
 20 19  1  0  0  0  0
 21 20  1  0  0  0  0
 22 21  1  0  0  0  0
 23 22  2  0  0  0  0
 24 23  1  0  0  0  0
 25 24  1  0  0  0  0
 26 25  1  0  0  0  0
 29 28  1  6  0  0  0
  3 29  1  0  0  0  0
  1  2  2  0  0  0  0
  2 13  1  0  0  0  0
  3  4  2  0  0  0  0
  3 27  1  0  0  0  0
 16 30  1  6  0  0  0
 28 31  1  0  0  0  0
 31 32  1  0  0  0  0
 32 33  2  0  0  0  0
 33 34  1  0  0  0  0
 33 35  1  0  0  0  0
 20 36  1  6  0  0  0
M  END
>  <cdx:fragmentId>
123564

$$$$
