7364.cdx
  Mrv1902 05222410272D          

 23 23  0  0  0  0            999 V2000
    3.1314   -6.3662    0.0000 C   0  0  0  0  0  0  0  0  0  0  0  0
    3.1314   -7.1913    0.0000 C   0  0  0  0  0  0  0  0  0  0  0  0
    3.8459   -7.6037    0.0000 C   0  0  0  0  0  0  0  0  0  0  0  0
    4.5603   -7.1913    0.0000 C   0  0  0  0  0  0  0  0  0  0  0  0
    4.5603   -6.3662    0.0000 C   0  0  0  0  0  0  0  0  0  0  0  0
    3.8459   -5.9538    0.0000 C   0  0  0  0  0  0  0  0  0  0  0  0
    2.4169   -7.6037    0.0000 O   0  0  0  0  0  0  0  0  0  0  0  0
    5.2748   -5.9538    0.0000 C   0  0  0  0  0  0  0  0  0  0  0  0
    5.9893   -6.3662    0.0000 C   0  0  0  0  0  0  0  0  0  0  0  0
    6.7038   -5.9538    0.0000 C   0  0  0  0  0  0  0  0  0  0  0  0
    7.4182   -6.3662    0.0000 C   0  0  0  0  0  0  0  0  0  0  0  0
    8.1327   -5.9538    0.0000 C   0  0  0  0  0  0  0  0  0  0  0  0
    6.7038   -5.1287    0.0000 O   0  0  0  0  0  0  0  0  0  0  0  0
    5.9893   -4.7162    0.0000 C   0  0  0  0  0  0  0  0  0  0  0  0
    5.9893   -3.8912    0.0000 C   0  0  0  0  0  0  0  0  0  0  0  0
    5.2748   -5.1287    0.0000 O   0  0  0  0  0  0  0  0  0  0  0  0
    8.8472   -6.3662    0.0000 C   0  0  0  0  0  0  0  0  0  0  0  0
    9.5616   -5.9537    0.0000 C   0  0  0  0  0  0  0  0  0  0  0  0
   10.2761   -6.3662    0.0000 C   0  0  0  0  0  0  0  0  0  0  0  0
   10.9906   -5.9537    0.0000 C   0  0  0  0  0  0  0  0  0  0  0  0
   11.7051   -6.3662    0.0000 C   0  0  0  0  0  0  0  0  0  0  0  0
    2.4169   -5.9538    0.0000 O   0  0  0  0  0  0  0  0  0  0  0  0
    1.7025   -6.3662    0.0000 C   0  0  0  0  0  0  0  0  0  0  0  0
  1  2  2  0  0  0  0
  2  3  1  0  0  0  0
  3  4  2  0  0  0  0
  4  5  1  0  0  0  0
  5  6  2  0  0  0  0
  6  1  1  0  0  0  0
  2  7  1  0  0  0  0
  5  8  1  0  0  0  0
  8  9  1  0  0  0  0
  9 10  1  0  0  0  0
 10 11  1  0  0  0  0
 11 12  1  0  0  0  0
 10 13  1  0  0  0  0
 13 14  1  0  0  0  0
 14 15  1  0  0  0  0
 14 16  2  0  0  0  0
 12 17  1  0  0  0  0
 17 18  1  0  0  0  0
 18 19  1  0  0  0  0
 19 20  1  0  0  0  0
 20 21  1  0  0  0  0
  1 22  1  0  0  0  0
 22 23  1  0  0  0  0
M  END
>  <cdx:fragmentId>
98

$$$$
