7365.cdx
  Mrv1902 05222410272D          

 24 24  0  0  0  0            999 V2000
    2.8083   -7.4456    0.0000 C   0  0  0  0  0  0  0  0  0  0  0  0
    2.8083   -8.2706    0.0000 C   0  0  0  0  0  0  0  0  0  0  0  0
    3.5227   -8.6831    0.0000 C   0  0  0  0  0  0  0  0  0  0  0  0
    4.2372   -8.2706    0.0000 C   0  0  0  0  0  0  0  0  0  0  0  0
    4.2372   -7.4456    0.0000 C   0  0  0  0  0  0  0  0  0  0  0  0
    3.5227   -7.0331    0.0000 C   0  0  0  0  0  0  0  0  0  0  0  0
    4.9517   -7.0331    0.0000 C   0  0  0  0  0  0  0  0  0  0  0  0
    5.6662   -7.4456    0.0000 C   0  0  0  0  0  0  0  0  0  0  0  0
    6.3806   -7.0331    0.0000 C   0  0  0  0  0  0  0  0  0  0  0  0
    7.0951   -7.4456    0.0000 C   0  0  0  0  0  0  0  0  0  0  0  0
    7.8096   -7.0331    0.0000 C   0  0  2  0  0  0  0  0  0  0  0  0
    8.5240   -7.4456    0.0000 C   0  0  0  0  0  0  0  0  0  0  0  0
    9.2385   -7.0331    0.0000 C   0  0  0  0  0  0  0  0  0  0  0  0
    2.0938   -7.0331    0.0000 O   0  0  0  0  0  0  0  0  0  0  0  0
    2.0938   -8.6831    0.0000 O   0  0  0  0  0  0  0  0  0  0  0  0
    6.3806   -6.2081    0.0000 O   0  0  0  0  0  0  0  0  0  0  0  0
    7.8096   -6.2081    0.0000 O   0  0  0  0  0  0  0  0  0  0  0  0
    8.5240   -5.7956    0.0000 C   0  0  0  0  0  0  0  0  0  0  0  0
    9.2385   -6.2081    0.0000 C   0  0  0  0  0  0  0  0  0  0  0  0
    8.5240   -4.9706    0.0000 O   0  0  0  0  0  0  0  0  0  0  0  0
    9.9530   -7.4456    0.0000 C   0  0  0  0  0  0  0  0  0  0  0  0
   10.6675   -7.0331    0.0000 C   0  0  0  0  0  0  0  0  0  0  0  0
   11.3819   -7.4456    0.0000 C   0  0  0  0  0  0  0  0  0  0  0  0
    1.3793   -7.4456    0.0000 C   0  0  0  0  0  0  0  0  0  0  0  0
  1  2  2  0  0  0  0
  2  3  1  0  0  0  0
  3  4  2  0  0  0  0
  4  5  1  0  0  0  0
  5  6  2  0  0  0  0
  6  1  1  0  0  0  0
  5  7  1  0  0  0  0
  7  8  1  0  0  0  0
  8  9  1  0  0  0  0
  9 10  1  0  0  0  0
 10 11  1  0  0  0  0
 11 12  1  0  0  0  0
 12 13  1  0  0  0  0
  1 14  1  0  0  0  0
  2 15  1  0  0  0  0
  9 16  2  0  0  0  0
 11 17  1  1  0  0  0
 17 18  1  0  0  0  0
 18 19  1  0  0  0  0
 18 20  2  0  0  0  0
 13 21  1  0  0  0  0
 21 22  1  0  0  0  0
 22 23  1  0  0  0  0
 14 24  1  0  0  0  0
M  END
>  <cdx:fragmentId>
5

$$$$
