15736564.cdx
  Mrv1902 05222410272D          

 29 32  0  0  0  0            999 V2000
    5.8282  -14.4597    0.0000 C   0  0  1  0  0  0  0  0  0  0  0  0
    6.2511  -13.6457    0.0000 O   0  0  0  0  0  0  0  0  0  0  0  0
    7.0232  -13.3549    0.0000 C   0  0  0  0  0  0  0  0  0  0  0  0
    7.6611  -13.8781    0.0000 C   0  0  0  0  0  0  0  0  0  0  0  0
    8.3624  -13.4433    0.0000 C   0  0  0  0  0  0  0  0  0  0  0  0
    9.0717  -13.8644    0.0000 O   0  0  0  0  0  0  0  0  0  0  0  0
    9.0282  -14.6883    0.0000 C   0  0  0  0  0  0  0  0  0  0  0  0
    8.2784  -15.0324    0.0000 C   0  0  0  0  0  0  0  0  0  0  0  0
    9.0924  -15.1666    0.0000 O   0  0  0  0  0  0  0  0  0  0  0  0
    8.5692  -15.8044    0.0000 C   0  0  0  0  0  0  0  0  0  0  0  0
    8.2289  -16.5560    0.0000 C   0  0  0  0  0  0  0  0  0  0  0  0
    7.4569  -16.8468    0.0000 O   0  0  0  0  0  0  0  0  0  0  0  0
    6.7031  -16.5825    0.0000 C   0  0  0  0  0  0  0  0  0  0  0  0
    6.3114  -15.9820    0.0000 C   0  0  0  0  0  0  0  0  0  0  0  0
    7.6713  -14.6715    0.0000 C   0  0  0  0  0  0  0  0  0  0  0  0
    7.1574  -12.5409    0.0000 O   0  0  0  0  0  0  0  0  0  0  0  0
    8.7931  -17.1580    0.0000 O   0  0  0  0  0  0  0  0  0  0  0  0
    9.2837  -16.2169    0.0000 C   0  0  0  0  0  0  0  0  0  0  0  0
    8.3624  -12.6183    0.0000 C   0  0  0  0  0  0  0  0  0  0  0  0
    7.6611  -13.0531    0.0000 O   0  0  0  0  0  0  0  0  0  0  0  0
    5.0216  -15.5512    0.0000 N   0  0  0  0  0  0  0  0  0  0  0  0
    5.0216  -16.3763    0.0000 C   0  0  0  0  0  0  0  0  0  0  0  0
    5.8062  -16.6312    0.0000 C   0  0  0  0  0  0  0  0  0  0  0  0
    6.2912  -15.9637    0.0000 C   0  0  0  0  0  0  0  0  0  0  0  0
    5.8062  -15.2963    0.0000 C   0  0  2  0  0  0  0  0  0  0  0  0
    5.0216  -14.2164    0.0000 C   0  0  0  0  0  0  0  0  0  0  0  0
    4.5367  -14.8838    0.0000 C   0  0  0  0  0  0  0  0  0  0  0  0
    6.6251  -14.5495    0.0000 H   0  0  0  0  0  0  0  0  0  0  0  0
    6.6312  -15.2963    0.0000 H   0  0  0  0  0  0  0  0  0  0  0  0
  1  2  1  0  0  0  0
  2  3  1  0  0  0  0
  3  4  1  0  0  0  0
  4  5  1  0  0  0  0
  5  6  1  0  0  0  0
  6  7  1  0  0  0  0
  7  8  1  0  0  0  0
  8  9  1  0  0  0  0
  9 10  1  0  0  0  0
 10 11  1  0  0  0  0
 11 12  1  0  0  0  0
 12 13  1  0  0  0  0
 13 14  1  0  0  0  0
  8 10  1  0  0  0  0
  8 15  1  0  0  0  0
 15  4  1  0  0  0  0
  3 16  2  0  0  0  0
 11 17  2  0  0  0  0
 10 18  1  0  0  0  0
  5 19  1  0  0  0  0
  4 20  1  0  0  0  0
 21 22  1  0  0  0  0
 22 23  1  0  0  0  0
 23 24  2  0  0  0  0
 24 25  1  0  0  0  0
 25 21  1  0  0  0  0
 26 27  1  0  0  0  0
 27 21  1  0  0  0  0
  1 28  1  6  0  0  0
 25 29  1  6  0  0  0
  1 25  1  0  0  0  0
  1 26  1  0  0  0  0
M  END
>  <cdx:fragmentId>
116329

$$$$
