7366.cdx
  Mrv1902 05222410282D          

 10 10  0  0  0  0            999 V2000
    7.3883   -5.4655    0.0000 C   0  0  0  0  0  0  0  0  0  0  0  0
    8.0997   -5.8832    0.0000 C   0  0  0  0  0  0  0  0  0  0  0  0
    8.0937   -6.7082    0.0000 C   0  0  0  0  0  0  0  0  0  0  0  0
    7.3762   -7.1155    0.0000 C   0  0  0  0  0  0  0  0  0  0  0  0
    6.6648   -6.6978    0.0000 C   0  0  0  0  0  0  0  0  0  0  0  0
    6.6708   -5.8728    0.0000 C   0  0  0  0  0  0  0  0  0  0  0  0
    7.3943   -4.6405    0.0000 C   0  0  0  0  0  0  0  0  0  0  0  0
    6.5693   -4.6405    0.0000 C   0  0  0  0  0  0  0  0  0  0  0  0
    7.4003   -3.8156    0.0000 C   0  0  0  0  0  0  0  0  0  0  0  0
    8.2193   -4.6405    0.0000 C   0  0  0  0  0  0  0  0  0  0  0  0
  1  2  1  0  0  0  0
  2  3  2  0  0  0  0
  3  4  1  0  0  0  0
  4  5  2  0  0  0  0
  5  6  1  0  0  0  0
  1  6  2  0  0  0  0
  7  8  1  0  0  0  0
  7 10  1  0  0  0  0
  7  9  1  0  0  0  0
  1  7  1  0  0  0  0
M  END
>  <cdx:fragmentId>
5

$$$$
