736681.cdx
  Mrv1902 05222410202D          

 16 16  0  0  0  0            999 V2000
   16.8977   -8.0366    0.0000 C   0  0  0  0  0  0  0  0  0  0  0  0
   16.1832   -8.4491    0.0000 C   0  0  0  0  0  0  0  0  0  0  0  0
   15.4688   -8.0366    0.0000 C   0  0  0  0  0  0  0  0  0  0  0  0
   14.7543   -8.4491    0.0000 C   0  0  0  0  0  0  0  0  0  0  0  0
   14.0398   -8.0366    0.0000 C   0  0  0  0  0  0  0  0  0  0  0  0
   13.3253   -8.4491    0.0000 C   0  0  0  0  0  0  0  0  0  0  0  0
   12.6109   -8.0366    0.0000 O   0  0  0  0  0  0  0  0  0  0  0  0
   11.8964   -8.4491    0.0000 C   0  0  0  0  0  0  0  0  0  0  0  0
   13.3253   -9.2741    0.0000 C   0  0  0  0  0  0  0  0  0  0  0  0
   12.6109   -9.6866    0.0000 O   0  0  0  0  0  0  0  0  0  0  0  0
   14.0398   -9.6866    0.0000 C   0  0  0  0  0  0  0  0  0  0  0  0
   14.7543   -9.2741    0.0000 C   0  0  0  0  0  0  0  0  0  0  0  0
   16.8977   -7.2116    0.0000 O   0  0  0  0  0  0  0  0  0  0  0  0
   17.6122   -8.4491    0.0000 O   0  0  0  0  0  0  0  0  0  0  0  0
   18.3266   -8.0366    0.0000 C   0  0  0  0  0  0  0  0  0  0  0  0
   19.0411   -8.4491    0.0000 C   0  0  0  0  0  0  0  0  0  0  0  0
  1  2  1  0  0  0  0
  2  3  2  0  0  0  0
  3  4  1  0  0  0  0
  4  5  1  0  0  0  0
  5  6  2  0  0  0  0
  6  7  1  0  0  0  0
  7  8  1  0  0  0  0
  6  9  1  0  0  0  0
  9 10  1  0  0  0  0
  9 11  2  0  0  0  0
 11 12  1  0  0  0  0
  4 12  2  0  0  0  0
  1 13  2  0  0  0  0
  1 14  1  0  0  0  0
 15 16  1  0  0  0  0
 14 15  1  0  0  0  0
M  END
>  <cdx:groupId>
14613

>  <cdx:fragmentId>
14568

$$$$
