15736732.cdx
  Mrv1902 05222410232D          

 26 28  0  0  0  0            999 V2000
    7.0933  -14.7892    0.0000 C   0  0  0  0  0  0  0  0  0  0  0  0
    7.0933  -15.6142    0.0000 C   0  0  0  0  0  0  0  0  0  0  0  0
    7.8078  -16.0267    0.0000 C   0  0  1  0  0  0  0  0  0  0  0  0
    8.5222  -15.6142    0.0000 C   0  0  2  0  0  0  0  0  0  0  0  0
    8.5222  -14.7892    0.0000 C   0  0  1  0  0  0  0  0  0  0  0  0
    7.8078  -14.3767    0.0000 C   0  0  0  0  0  0  0  0  0  0  0  0
    9.2367  -16.0267    0.0000 C   0  0  0  0  0  0  0  0  0  0  0  0
    9.9512  -15.6142    0.0000 C   0  0  0  0  0  0  0  0  0  0  0  0
    9.9512  -14.7892    0.0000 C   0  0  0  0  0  0  0  0  0  0  0  0
    9.2367  -14.3767    0.0000 C   0  0  1  0  0  0  0  0  0  0  0  0
   10.6657  -14.3767    0.0000 C   0  0  0  0  0  0  0  0  0  0  0  0
   10.6657  -13.5517    0.0000 C   0  0  1  0  0  0  0  0  0  0  0  0
    9.9512  -13.1392    0.0000 C   0  0  0  0  0  0  0  0  0  0  0  0
    9.2367  -13.5517    0.0000 C   0  0  0  0  0  0  0  0  0  0  0  0
    6.3788  -14.3767    0.0000 O   0  0  0  0  0  0  0  0  0  0  0  0
    7.3953  -16.7411    0.0000 C   0  0  0  0  0  0  0  0  0  0  0  0
    8.7358  -16.4111    0.0000 H   0  0  0  0  0  0  0  0  0  0  0  0
    8.8242  -13.6622    0.0000 H   0  0  0  0  0  0  0  0  0  0  0  0
   11.0782  -12.8372    0.0000 C   0  0  0  0  0  0  0  0  0  0  0  0
    8.2203  -16.7411    0.0000 C   0  0  0  0  0  0  0  0  0  0  0  0
    8.3087  -13.9923    0.0000 C   0  0  0  0  0  0  0  0  0  0  0  0
   11.4907  -13.5517    0.0000 C   0  0  0  0  0  0  0  0  0  0  0  0
   11.9032  -12.8372    0.0000 C   0  0  0  0  0  0  0  0  0  0  0  0
   11.9032  -14.2661    0.0000 O   0  0  0  0  0  0  0  0  0  0  0  0
   12.7282  -12.8372    0.0000 O   0  0  0  0  0  0  0  0  0  0  0  0
    7.8078  -17.4556    0.0000 O   0  0  0  0  0  0  0  0  0  0  0  0
  1  2  1  0  0  0  0
  2  3  1  0  0  0  0
  3  4  1  0  0  0  0
  4  5  1  0  0  0  0
  5  6  1  0  0  0  0
  6  1  1  0  0  0  0
  4  7  1  0  0  0  0
  7  8  1  0  0  0  0
  8  9  1  0  0  0  0
  9 10  1  0  0  0  0
 10  5  1  0  0  0  0
  9 11  2  0  0  0  0
 11 12  1  0  0  0  0
 12 13  1  0  0  0  0
 13 14  1  0  0  0  0
 14 10  1  0  0  0  0
  1 15  1  0  0  0  0
  3 16  1  1  0  0  0
  4 17  1  1  0  0  0
 10 18  1  1  0  0  0
 12 19  1  1  0  0  0
  3 20  1  6  0  0  0
  5 21  1  6  0  0  0
 12 22  1  6  0  0  0
 22 23  1  0  0  0  0
 22 24  1  0  0  0  0
 23 25  1  0  0  0  0
 20 26  1  0  0  0  0
M  END
>  <cdx:fragmentId>
47531

$$$$
