736715.cdx
  Mrv1902 05222410242D          

 10 10  0  0  0  0            999 V2000
    8.5631   -6.1580    0.0000 C   0  0  0  0  0  0  0  0  0  0  0  0
    7.8486   -6.5705    0.0000 C   0  0  0  0  0  0  0  0  0  0  0  0
    7.1342   -6.1580    0.0000 C   0  0  0  0  0  0  0  0  0  0  0  0
    8.5631   -5.3330    0.0000 O   0  0  0  0  0  0  0  0  0  0  0  0
    9.2776   -6.5705    0.0000 O   0  0  0  0  0  0  0  0  0  0  0  0
    5.5265   -7.5625    0.0000 C   0  0  0  0  0  0  0  0  0  0  0  0
    5.1140   -6.8480    0.0000 N   0  0  0  0  0  0  0  0  0  0  0  0
    5.6660   -6.2349    0.0000 C   0  0  0  0  0  0  0  0  0  0  0  0
    6.4197   -6.5705    0.0000 C   0  0  0  0  0  0  0  0  0  0  0  0
    6.3335   -7.3909    0.0000 N   0  0  0  0  0  0  0  0  0  0  0  0
  1  2  1  0  0  0  0
  2  3  2  0  0  0  0
  1  4  2  0  0  0  0
  1  5  1  0  0  0  0
  6  7  2  0  0  0  0
  7  8  1  0  0  0  0
  8  9  2  0  0  0  0
  9 10  1  0  0  0  0
  6 10  1  0  0  0  0
  3  9  1  0  0  0  0
M  END
>  <cdx:fragmentId>
14631

$$$$
