736756.cdx
  Mrv1902 05222410182D          

 16 18  0  0  0  0            999 V2000
    6.7105   -7.0532    0.0000 N   0  0  0  0  0  0  0  0  0  0  0  0
    7.4250   -7.4657    0.0000 C   0  0  0  0  0  0  0  0  0  0  0  0
    8.1395   -7.0532    0.0000 C   0  0  2  0  0  0  0  0  0  0  0  0
    8.9241   -7.3081    0.0000 C   0  0  0  0  0  0  0  0  0  0  0  0
    9.4090   -6.6407    0.0000 C   0  0  0  0  0  0  0  0  0  0  0  0
    8.9241   -5.9732    0.0000 C   0  0  0  0  0  0  0  0  0  0  0  0
    8.1395   -6.2282    0.0000 N   0  0  0  0  0  0  0  0  0  0  0  0
    7.4250   -5.8157    0.0000 C   0  0  0  0  0  0  0  0  0  0  0  0
    6.7105   -6.2282    0.0000 C   0  0  2  0  0  0  0  0  0  0  0  0
    5.9259   -5.9732    0.0000 C   0  0  0  0  0  0  0  0  0  0  0  0
    5.4410   -6.6407    0.0000 C   0  0  0  0  0  0  0  0  0  0  0  0
    5.9259   -7.3081    0.0000 C   0  0  0  0  0  0  0  0  0  0  0  0
    7.4250   -8.2907    0.0000 O   0  0  0  0  0  0  0  0  0  0  0  0
    7.4250   -4.9907    0.0000 O   0  0  0  0  0  0  0  0  0  0  0  0
    8.2257   -7.8737    0.0000 H   0  0  0  0  0  0  0  0  0  0  0  0
    6.6243   -5.4077    0.0000 H   0  0  0  0  0  0  0  0  0  0  0  0
  1  2  1  0  0  0  0
  2  3  1  0  0  0  0
  3  4  1  0  0  0  0
  4  5  1  0  0  0  0
  5  6  1  0  0  0  0
  6  7  1  0  0  0  0
  7  8  1  0  0  0  0
  8  9  1  0  0  0  0
  9 10  1  0  0  0  0
 10 11  1  0  0  0  0
 11 12  1  0  0  0  0
  1 12  1  0  0  0  0
  1  9  1  0  0  0  0
  3  7  1  0  0  0  0
  2 13  2  0  0  0  0
  8 14  2  0  0  0  0
  3 15  1  6  0  0  0
  9 16  1  6  0  0  0
M  END
>  <cdx:groupId>
56

>  <cdx:fragmentId>
9

$$$$
