73690.cdx
  Mrv1902 05222410232D          

 10 10  0  0  0  0            999 V2000
    6.6679   -6.8705    0.0000 C   0  0  0  0  0  0  0  0  0  0  0  0
    7.3879   -6.4678    0.0000 C   0  0  0  0  0  0  0  0  0  0  0  0
    8.1529   -2.7654    0.0000 C   0  0  0  0  0  0  0  0  0  0  0  0
    7.4329   -3.1681    0.0000 O   0  0  0  0  0  0  0  0  0  0  0  0
    6.6904   -5.2207    0.0000 C   0  0  0  0  0  0  0  0  0  0  0  0
    6.7016   -4.3957    0.0000 C   0  0  0  0  0  0  0  0  0  0  0  0
    7.4217   -3.9930    0.0000 C   0  0  0  0  0  0  0  0  0  0  0  0
    8.1304   -4.4152    0.0000 C   0  0  0  0  0  0  0  0  0  0  0  0
    8.1192   -5.2401    0.0000 C   0  0  0  0  0  0  0  0  0  0  0  0
    7.3992   -5.6429    0.0000 C   0  0  0  0  0  0  0  0  0  0  0  0
 10  2  1  0  0  0  0
  2  1  1  0  0  0  0
  7  4  1  0  0  0  0
  4  3  1  0  0  0  0
 10  5  2  0  0  0  0
  6  5  1  0  0  0  0
  7  6  2  0  0  0  0
  8  7  1  0  0  0  0
  9  8  2  0  0  0  0
 10  9  1  0  0  0  0
M  END
>  <cdx:fragmentId>
5

$$$$
