73771.cdx
  Mrv1902 05222410282D          

  8  8  0  0  0  0            999 V2000
    6.2490   -4.1907    0.0000 C   0  0  0  0  0  0  0  0  0  0  0  0
    5.5010   -4.5387    0.0000 C   0  0  0  0  0  0  0  0  0  0  0  0
    4.9389   -3.9348    0.0000 C   0  0  0  0  0  0  0  0  0  0  0  0
    5.3395   -3.2136    0.0000 C   0  0  0  0  0  0  0  0  0  0  0  0
    6.1492   -3.3717    0.0000 S   0  0  0  0  0  0  0  0  0  0  0  0
    6.9702   -4.5913    0.0000 C   0  0  0  0  0  0  0  0  0  0  0  0
    7.6778   -4.1671    0.0000 C   0  0  0  0  0  0  0  0  0  0  0  0
    8.3990   -4.5677    0.0000 C   0  0  0  0  0  0  0  0  0  0  0  0
  1  2  2  0  0  0  0
  2  3  1  0  0  0  0
  3  4  2  0  0  0  0
  4  5  1  0  0  0  0
  1  5  1  0  0  0  0
  6  7  1  0  0  0  0
  1  6  1  0  0  0  0
  7  8  1  0  0  0  0
M  END
>  <cdx:fragmentId>
5

$$$$
