738011.cdx
  Mrv1902 05222410272D          

 22 23  0  0  0  0            999 V2000
   10.9653  -12.4899    0.0000 C   0  0  0  0  0  0  0  0  0  0  0  0
   10.9653  -13.3149    0.0000 C   0  0  0  0  0  0  0  0  0  0  0  0
   10.2509  -13.7274    0.0000 C   0  0  0  0  0  0  0  0  0  0  0  0
    9.5364  -13.3149    0.0000 C   0  0  0  0  0  0  0  0  0  0  0  0
    9.5364  -12.4899    0.0000 C   0  0  0  0  0  0  0  0  0  0  0  0
   10.2509  -12.0774    0.0000 C   0  0  0  0  0  0  0  0  0  0  0  0
   11.6798  -12.0774    0.0000 O   0  0  0  0  0  0  0  0  0  0  0  0
   11.6798  -13.7274    0.0000 O   0  0  0  0  0  0  0  0  0  0  0  0
   12.3943  -13.3149    0.0000 C   0  0  0  0  0  0  0  0  0  0  0  0
    8.8219  -13.7274    0.0000 C   0  0  0  0  0  0  0  0  0  0  0  0
    8.1075  -14.1399    0.0000 C   0  0  0  0  0  0  0  0  0  0  0  0
    7.3930  -14.5524    0.0000 C   0  0  0  0  0  0  0  0  0  0  0  0
    6.6785  -14.1399    0.0000 C   0  0  0  0  0  0  0  0  0  0  0  0
    5.9640  -14.5524    0.0000 C   0  0  0  0  0  0  0  0  0  0  0  0
    5.2496  -14.1399    0.0000 O   0  0  0  0  0  0  0  0  0  0  0  0
    4.5351  -14.5524    0.0000 C   0  0  0  0  0  0  0  0  0  0  0  0
    4.5351  -15.3774    0.0000 C   0  0  0  0  0  0  0  0  0  0  0  0
    3.8206  -15.7899    0.0000 C   0  0  0  0  0  0  0  0  0  0  0  0
    3.1062  -15.3774    0.0000 C   0  0  0  0  0  0  0  0  0  0  0  0
    3.1062  -14.5524    0.0000 C   0  0  0  0  0  0  0  0  0  0  0  0
    3.8206  -14.1399    0.0000 C   0  0  0  0  0  0  0  0  0  0  0  0
    2.3917  -15.7899    0.0000 O   0  0  0  0  0  0  0  0  0  0  0  0
  1  2  1  0  0  0  0
  2  3  2  0  0  0  0
  3  4  1  0  0  0  0
  4  5  2  0  0  0  0
  5  6  1  0  0  0  0
  1  6  2  0  0  0  0
  1  7  1  0  0  0  0
  8  9  1  0  0  0  0
  2  8  1  0  0  0  0
 10 11  3  0  0  0  0
 11 12  1  0  0  0  0
 12 13  2  0  0  0  0
 13 14  1  0  0  0  0
 16 17  1  0  0  0  0
 17 18  2  0  0  0  0
 18 19  1  0  0  0  0
 19 20  2  0  0  0  0
 20 21  1  0  0  0  0
 16 21  2  0  0  0  0
 15 16  1  0  0  0  0
 19 22  1  0  0  0  0
 14 15  1  0  0  0  0
  4 10  1  0  0  0  0
M  END
>  <cdx:groupId>
80222

>  <cdx:fragmentId>
80188

$$$$
