7380.cdx
  Mrv1902 05222410182D          

 31 36  0  0  0  0            999 V2000
    6.8009   -7.0875    0.0000 C   0  0  2  0  0  0  0  0  0  0  0  0
    7.5134   -6.6717    0.0000 C   0  0  0  0  0  0  0  0  0  0  0  0
    8.2298   -7.0808    0.0000 C   0  0  0  0  0  0  0  0  0  0  0  0
    8.2337   -7.9058    0.0000 C   0  0  0  0  0  0  0  0  0  0  0  0
    7.5212   -8.3216    0.0000 C   0  0  1  0  0  0  0  0  0  0  0  0
    6.8048   -7.9125    0.0000 C   0  0  2  0  0  0  0  0  0  0  0  0
    7.5251   -9.1466    0.0000 N   0  0  0  0  0  0  0  0  0  0  0  0
    6.8126   -9.5625    0.0000 C   0  0  0  0  0  0  0  0  0  0  0  0
    6.0962   -9.1534    0.0000 C   0  0  0  0  0  0  0  0  0  0  0  0
    6.0923   -8.3284    0.0000 C   0  0  0  0  0  0  0  0  0  0  0  0
    5.3837   -9.5692    0.0000 C   0  0  0  0  0  0  0  0  0  0  0  0
    4.6672   -9.1601    0.0000 C   0  0  0  0  0  0  0  0  0  0  0  0
    4.6633   -8.3351    0.0000 C   0  0  0  0  0  0  0  0  0  0  0  0
    5.3759   -7.9193    0.0000 C   0  0  0  0  0  0  0  0  0  0  0  0
    8.9423   -6.6649    0.0000 C   0  0  0  0  0  0  0  0  0  0  0  0
    9.6587   -7.0740    0.0000 C   0  0  0  0  0  0  0  0  0  0  0  0
    9.6626   -7.8990    0.0000 C   0  0  0  0  0  0  0  0  0  0  0  0
    8.9501   -8.3149    0.0000 C   0  0  0  0  0  0  0  0  0  0  0  0
   10.4421   -6.8154    0.0000 O   0  0  0  0  0  0  0  0  0  0  0  0
   10.9302   -7.4805    0.0000 C   0  0  0  0  0  0  0  0  0  0  0  0
   10.4485   -8.1502    0.0000 O   0  0  0  0  0  0  0  0  0  0  0  0
    5.2159  -10.3770    0.0000 O   0  0  0  0  0  0  0  0  0  0  0  0
    4.3959  -10.4671    0.0000 C   0  0  0  0  0  0  0  0  0  0  0  0
    4.0568   -9.7151    0.0000 O   0  0  0  0  0  0  0  0  0  0  0  0
    8.2415   -9.5557    0.0000 C   0  0  0  0  0  0  0  0  0  0  0  0
    6.0845   -6.6784    0.0000 O   0  0  0  0  0  0  0  0  0  0  0  0
    6.0806   -5.8534    0.0000 C   0  0  0  0  0  0  0  0  0  0  0  0
    5.3642   -5.4443    0.0000 C   0  0  0  0  0  0  0  0  0  0  0  0
    6.7931   -5.4375    0.0000 O   0  0  0  0  0  0  0  0  0  0  0  0
    6.0884   -7.5034    0.0000 C   0  0  0  0  0  0  0  0  0  0  0  0
    8.2376   -8.7308    0.0000 H   0  0  0  0  0  0  0  0  0  0  0  0
  1  2  1  0  0  0  0
  2  3  1  0  0  0  0
  3  4  1  0  0  0  0
  4  5  1  0  0  0  0
  5  6  1  0  0  0  0
  6  1  1  0  0  0  0
  5  7  1  0  0  0  0
  7  8  1  0  0  0  0
  8  9  1  0  0  0  0
  9 10  2  0  0  0  0
 10  6  1  0  0  0  0
  9 11  1  0  0  0  0
 11 12  2  0  0  0  0
 12 13  1  0  0  0  0
 13 14  2  0  0  0  0
 14 10  1  0  0  0  0
  3 15  2  0  0  0  0
 15 16  1  0  0  0  0
 16 17  2  0  0  0  0
 17 18  1  0  0  0  0
 18  4  2  0  0  0  0
 16 19  1  0  0  0  0
 19 20  1  0  0  0  0
 20 21  1  0  0  0  0
 21 17  1  0  0  0  0
 11 22  1  0  0  0  0
 22 23  1  0  0  0  0
 23 24  1  0  0  0  0
 24 12  1  0  0  0  0
  7 25  1  0  0  0  0
  1 26  1  6  0  0  0
 26 27  1  0  0  0  0
 27 28  1  0  0  0  0
 27 29  2  0  0  0  0
  6 30  1  1  0  0  0
  5 31  1  1  0  0  0
M  END
>  <cdx:fragmentId>
5

$$$$
