73990.cdx
  Mrv1902 05222410262D          

 23 26  0  0  0  0            999 V2000
    7.4767   -7.6044    0.0000 C   0  0  2  0  0  0  0  0  0  0  0  0
    6.6517   -7.6062    0.0000 C   0  0  0  0  0  0  0  0  0  0  0  0
    6.1466   -8.2585    0.0000 C   0  0  0  0  0  0  0  0  0  0  0  0
    6.3514   -9.0577    0.0000 C   0  0  2  0  0  0  0  0  0  0  0  0
    5.6378   -9.4717    0.0000 C   0  0  2  0  0  0  0  0  0  0  0  0
    5.6396  -10.2967    0.0000 C   0  0  0  0  0  0  0  0  0  0  0  0
    6.3550  -10.7077    0.0000 C   0  0  0  0  0  0  0  0  0  0  0  0
    7.0685  -10.2936    0.0000 C   0  0  2  0  0  0  0  0  0  0  0  0
    7.7839  -10.7046    0.0000 C   0  0  1  0  0  0  0  0  0  0  0  0
    8.4975  -10.2905    0.0000 C   0  0  1  0  0  0  0  0  0  0  0  0
    8.4957   -9.4655    0.0000 O   0  0  0  0  0  0  0  0  0  0  0  0
    7.7803   -9.0546    0.0000 C   0  0  2  0  0  0  0  0  0  0  0  0
    7.0668   -9.4686    0.0000 C   0  0  2  0  0  0  0  0  0  0  0  0
    6.7430   -8.8004    0.0000 O   0  0  0  0  0  0  0  0  0  0  0  0
    6.9025   -8.0752    0.0000 O   0  0  0  0  0  0  0  0  0  0  0  0
    7.9846   -8.2545    0.0000 O   0  0  0  0  0  0  0  0  0  0  0  0
    9.2128  -10.7015    0.0000 O   0  0  0  0  0  0  0  0  0  0  0  0
    7.7857  -11.5296    0.0000 C   0  0  0  0  0  0  0  0  0  0  0  0
    4.9225   -9.0607    0.0000 C   0  0  0  0  0  0  0  0  0  0  0  0
    7.8877   -6.8890    0.0000 C   0  0  0  0  0  0  0  0  0  0  0  0
    5.5906   -8.7386    0.0000 H   0  0  0  0  0  0  0  0  0  0  0  0
    7.0703  -11.1186    0.0000 H   0  0  0  0  0  0  0  0  0  0  0  0
    8.5403   -8.7335    0.0000 H   0  0  0  0  0  0  0  0  0  0  0  0
  1  2  1  0  0  0  0
  2  3  1  0  0  0  0
  3  4  1  0  0  0  0
  4  5  1  0  0  0  0
  5  6  1  0  0  0  0
  6  7  1  0  0  0  0
  7  8  1  0  0  0  0
  8  9  1  0  0  0  0
  9 10  1  0  0  0  0
 10 11  1  0  0  0  0
 11 12  1  0  0  0  0
 12 13  1  0  0  0  0
 13 14  1  6  0  0  0
 14 15  1  0  0  0  0
  1 15  1  0  0  0  0
  1 16  1  0  0  0  0
 16 12  1  0  0  0  0
  8 13  1  0  0  0  0
  4 13  1  0  0  0  0
 10 17  1  1  0  0  0
  9 18  1  1  0  0  0
  5 19  1  6  0  0  0
  1 20  1  6  0  0  0
  4 21  1  6  0  0  0
  8 22  1  6  0  0  0
 12 23  1  1  0  0  0
M  END
>  <cdx:fragmentId>
5

$$$$
