740054.cdx
  Mrv1902 05222410252D          

 41 45  0  0  0  0            999 V2000
    5.9728   -7.6637    0.0000 C   0  0  0  0  0  0  0  0  0  0  0  0
    6.6873   -8.0762    0.0000 C   0  0  0  0  0  0  0  0  0  0  0  0
    7.4017   -7.6637    0.0000 C   0  0  0  0  0  0  0  0  0  0  0  0
    8.1162   -8.0762    0.0000 C   0  0  0  0  0  0  0  0  0  0  0  0
    8.1162   -8.9012    0.0000 C   0  0  0  0  0  0  0  0  0  0  0  0
    7.4017   -9.3137    0.0000 C   0  0  0  0  0  0  0  0  0  0  0  0
    6.6873   -8.9012    0.0000 C   0  0  0  0  0  0  0  0  0  0  0  0
    5.9728   -9.3137    0.0000 O   0  0  0  0  0  0  0  0  0  0  0  0
    5.2583   -8.9012    0.0000 C   0  0  0  0  0  0  0  0  0  0  0  0
    4.5439   -9.3137    0.0000 C   0  0  0  0  0  0  0  0  0  0  0  0
    3.8294   -8.9012    0.0000 C   0  0  0  0  0  0  0  0  0  0  0  0
    3.8294   -8.0762    0.0000 C   0  0  0  0  0  0  0  0  0  0  0  0
    4.5439   -7.6637    0.0000 C   0  0  0  0  0  0  0  0  0  0  0  0
    5.2583   -8.0762    0.0000 C   0  0  0  0  0  0  0  0  0  0  0  0
    5.9728   -6.8387    0.0000 O   0  0  0  0  0  0  0  0  0  0  0  0
    3.1149   -7.6637    0.0000 O   0  0  0  0  0  0  0  0  0  0  0  0
    2.4005   -8.0762    0.0000 C   0  0  0  0  0  0  0  0  0  0  0  0
    3.1149   -9.3137    0.0000 O   0  0  0  0  0  0  0  0  0  0  0  0
    8.8307   -9.3137    0.0000 O   0  0  0  0  0  0  0  0  0  0  0  0
    7.4017   -6.8387    0.0000 O   0  0  0  0  0  0  0  0  0  0  0  0
    9.5452   -8.0762    0.0000 O   0  0  0  0  0  0  0  0  0  0  0  0
    8.8307   -7.6637    0.0000 C   0  0  2  0  0  0  0  0  0  0  0  0
    8.8307   -6.8387    0.0000 C   0  0  1  0  0  0  0  0  0  0  0  0
    9.5452   -6.4262    0.0000 C   0  0  2  0  0  0  0  0  0  0  0  0
   10.2596   -6.8387    0.0000 C   0  0  1  0  0  0  0  0  0  0  0  0
   10.2596   -7.6637    0.0000 C   0  0  1  0  0  0  0  0  0  0  0  0
   10.9741   -8.0762    0.0000 C   0  0  0  0  0  0  0  0  0  0  0  0
   11.6886   -7.6637    0.0000 O   0  0  0  0  0  0  0  0  0  0  0  0
   10.9741   -6.4262    0.0000 O   0  0  0  0  0  0  0  0  0  0  0  0
    9.5452   -5.6012    0.0000 O   0  0  0  0  0  0  0  0  0  0  0  0
    8.1162   -6.4262    0.0000 O   0  0  0  0  0  0  0  0  0  0  0  0
    8.7837   -5.1163    0.0000 O   0  0  0  0  0  0  0  0  0  0  0  0
    8.1162   -5.6012    0.0000 C   0  0  2  0  0  0  0  0  0  0  0  0
    7.4488   -5.1163    0.0000 C   0  0  1  0  0  0  0  0  0  0  0  0
    7.7037   -4.3317    0.0000 C   0  0  2  0  0  0  0  0  0  0  0  0
    8.5287   -4.3317    0.0000 C   0  0  0  0  0  0  0  0  0  0  0  0
    7.6175   -3.5112    0.0000 C   0  0  0  0  0  0  0  0  0  0  0  0
    6.8638   -3.1756    0.0000 O   0  0  0  0  0  0  0  0  0  0  0  0
    6.9500   -3.9961    0.0000 O   0  0  0  0  0  0  0  0  0  0  0  0
    6.6642   -5.3712    0.0000 O   0  0  0  0  0  0  0  0  0  0  0  0
    8.8307   -8.4887    0.0000 H   0  0  0  0  0  0  0  0  0  0  0  0
  1  2  1  0  0  0  0
  2  3  1  0  0  0  0
  3  4  2  0  0  0  0
  4  5  1  0  0  0  0
  5  6  2  0  0  0  0
  6  7  1  0  0  0  0
  2  7  2  0  0  0  0
  7  8  1  0  0  0  0
  8  9  1  0  0  0  0
  9 10  1  0  0  0  0
 10 11  2  0  0  0  0
 11 12  1  0  0  0  0
 12 13  2  0  0  0  0
 13 14  1  0  0  0  0
  9 14  2  0  0  0  0
  1 14  1  0  0  0  0
  1 15  2  0  0  0  0
 16 17  1  0  0  0  0
 12 16  1  0  0  0  0
 11 18  1  0  0  0  0
  5 19  1  0  0  0  0
  3 20  1  0  0  0  0
 21 22  1  0  0  0  0
 22 23  1  0  0  0  0
 23 24  1  0  0  0  0
 24 25  1  0  0  0  0
 25 26  1  0  0  0  0
 21 26  1  0  0  0  0
 27 28  1  0  0  0  0
 26 27  1  1  0  0  0
 25 29  1  6  0  0  0
 24 30  1  1  0  0  0
 32 33  1  0  0  0  0
 33 34  1  0  0  0  0
 34 35  1  0  0  0  0
 35 36  1  0  0  0  0
 32 36  1  0  0  0  0
 37 38  1  0  0  0  0
 35 37  1  1  0  0  0
 35 39  1  6  0  0  0
 34 40  1  6  0  0  0
 33 31  1  1  0  0  0
 23 31  1  6  0  0  0
 22  4  1  0  0  0  0
 22 41  1  6  0  0  0
M  END
>  <cdx:fragmentId>
452

$$$$
