7405.cdx
  Mrv1902 05222410262D          

  9  9  0  0  0  0            999 V2000
    6.6484   -3.5890    0.0000 N   0  0  0  0  0  0  0  0  0  0  0  0
    7.4021   -3.9245    0.0000 C   0  0  1  0  0  0  0  0  0  0  0  0
    7.3158   -4.7450    0.0000 C   0  0  0  0  0  0  0  0  0  0  0  0
    6.5089   -4.9165    0.0000 C   0  0  0  0  0  0  0  0  0  0  0  0
    6.0964   -4.2021    0.0000 C   0  0  0  0  0  0  0  0  0  0  0  0
    8.1165   -3.5120    0.0000 C   0  0  0  0  0  0  0  0  0  0  0  0
    8.1165   -2.6870    0.0000 O   0  0  0  0  0  0  0  0  0  0  0  0
    8.8310   -3.9245    0.0000 O   0  0  0  0  0  0  0  0  0  0  0  0
    5.2759   -4.1158    0.0000 O   0  0  0  0  0  0  0  0  0  0  0  0
  1  2  1  0  0  0  0
  2  3  1  0  0  0  0
  3  4  1  0  0  0  0
  4  5  1  0  0  0  0
  1  5  1  0  0  0  0
  6  7  2  0  0  0  0
  6  8  1  0  0  0  0
  2  6  1  6  0  0  0
  5  9  2  0  0  0  0
M  END
>  <cdx:fragmentId>
5

$$$$
