7409.cdx
  Mrv1902 05222410202D          

  9  9  0  0  0  0            999 V2000
    5.4575   -4.4904    0.0000 C   0  0  0  0  0  0  0  0  0  0  0  0
    6.1720   -4.0779    0.0000 C   0  0  0  0  0  0  0  0  0  0  0  0
    4.7431   -4.0779    0.0000 C   0  0  0  0  0  0  0  0  0  0  0  0
    4.0286   -4.4904    0.0000 C   0  0  0  0  0  0  0  0  0  0  0  0
    3.3141   -4.0779    0.0000 C   0  0  0  0  0  0  0  0  0  0  0  0
    3.3141   -3.2529    0.0000 C   0  0  0  0  0  0  0  0  0  0  0  0
    4.0286   -2.8404    0.0000 C   0  0  0  0  0  0  0  0  0  0  0  0
    4.7431   -3.2529    0.0000 C   0  0  0  0  0  0  0  0  0  0  0  0
    5.4575   -5.3154    0.0000 O   0  0  0  0  0  0  0  0  0  0  0  0
  1  2  1  0  0  0  0
  3  4  1  0  0  0  0
  4  5  2  0  0  0  0
  5  6  1  0  0  0  0
  6  7  2  0  0  0  0
  7  8  1  0  0  0  0
  3  8  2  0  0  0  0
  1  3  1  0  0  0  0
  1  9  1  0  0  0  0
M  END
>  <cdx:groupId>
29

>  <cdx:fragmentId>
9

$$$$
