7410.cdx
  Mrv1902 05222410262D          

  9  9  0  0  0  0            999 V2000
    7.3825   -2.9216    0.0000 C   0  0  0  0  0  0  0  0  0  0  0  0
    8.0970   -3.3341    0.0000 C   0  0  0  0  0  0  0  0  0  0  0  0
    6.6681   -3.3341    0.0000 C   0  0  0  0  0  0  0  0  0  0  0  0
    5.9536   -2.9216    0.0000 C   0  0  0  0  0  0  0  0  0  0  0  0
    5.2391   -3.3341    0.0000 C   0  0  0  0  0  0  0  0  0  0  0  0
    5.2391   -4.1591    0.0000 C   0  0  0  0  0  0  0  0  0  0  0  0
    5.9536   -4.5716    0.0000 C   0  0  0  0  0  0  0  0  0  0  0  0
    6.6681   -4.1591    0.0000 C   0  0  0  0  0  0  0  0  0  0  0  0
    7.3825   -2.0966    0.0000 O   0  0  0  0  0  0  0  0  0  0  0  0
  1  2  1  0  0  0  0
  3  4  1  0  0  0  0
  4  5  2  0  0  0  0
  5  6  1  0  0  0  0
  6  7  2  0  0  0  0
  7  8  1  0  0  0  0
  3  8  2  0  0  0  0
  1  3  1  0  0  0  0
  1  9  2  0  0  0  0
M  END
>  <cdx:fragmentId>
9

$$$$
