74112.cdx
  Mrv1902 05222410212D          

 16 15  0  0  0  0            999 V2000
    8.5817   -5.3075    0.0000 C   0  0  0  0  0  0  0  0  0  0  0  0
    7.8672   -5.7200    0.0000 C   0  0  0  0  0  0  0  0  0  0  0  0
    7.1527   -5.3075    0.0000 C   0  0  0  0  0  0  0  0  0  0  0  0
    7.1527   -6.1325    0.0000 O   0  0  0  0  0  0  0  0  0  0  0  0
    7.1527   -4.4825    0.0000 C   0  0  0  0  0  0  0  0  0  0  0  0
    6.4383   -5.7200    0.0000 C   0  0  0  0  0  0  0  0  0  0  0  0
    5.7238   -5.3075    0.0000 C   0  0  0  0  0  0  0  0  0  0  0  0
    8.5817   -4.4825    0.0000 O   0  0  0  0  0  0  0  0  0  0  0  0
    9.2962   -5.7200    0.0000 O   0  0  0  0  0  0  0  0  0  0  0  0
    6.4383   -4.0700    0.0000 O   0  0  0  0  0  0  0  0  0  0  0  0
    7.8672   -4.0700    0.0000 O   0  0  0  0  0  0  0  0  0  0  0  0
    5.7238   -4.4825    0.0000 O   0  0  0  0  0  0  0  0  0  0  0  0
    5.0093   -5.7200    0.0000 O   0  0  0  0  0  0  0  0  0  0  0  0
   10.0106   -5.3075    0.0000 C   0  0  0  0  0  0  0  0  0  0  0  0
    7.8672   -3.2450    0.0000 C   0  0  0  0  0  0  0  0  0  0  0  0
    4.2949   -5.3075    0.0000 C   0  0  0  0  0  0  0  0  0  0  0  0
  1  2  1  0  0  0  0
  2  3  1  0  0  0  0
  3  4  1  0  0  0  0
  3  5  1  0  0  0  0
  3  6  1  0  0  0  0
  6  7  1  0  0  0  0
  1  8  2  0  0  0  0
  1  9  1  0  0  0  0
  5 10  2  0  0  0  0
  5 11  1  0  0  0  0
  7 12  2  0  0  0  0
  7 13  1  0  0  0  0
  9 14  1  0  0  0  0
 11 15  1  0  0  0  0
 13 16  1  0  0  0  0
M  END
>  <cdx:fragmentId>
5

$$$$
