74138.cdx
  Mrv1902 05222410202D          

 22 21  0  0  0  0            999 V2000
    0.3727   -3.4035    0.0000 C   0  0  0  0  0  0  0  0  0  0  0  0
    1.0872   -2.9910    0.0000 C   0  0  0  0  0  0  0  0  0  0  0  0
    1.8016   -3.4035    0.0000 C   0  0  0  0  0  0  0  0  0  0  0  0
    2.5161   -2.9910    0.0000 C   0  0  0  0  0  0  0  0  0  0  0  0
    3.2306   -3.4035    0.0000 C   0  0  0  0  0  0  0  0  0  0  0  0
    3.9450   -2.9910    0.0000 C   0  0  0  0  0  0  0  0  0  0  0  0
    4.6595   -3.4035    0.0000 C   0  0  0  0  0  0  0  0  0  0  0  0
    5.3740   -2.9910    0.0000 C   0  0  0  0  0  0  0  0  0  0  0  0
    6.0884   -3.4035    0.0000 C   0  0  0  0  0  0  0  0  0  0  0  0
    6.8029   -2.9910    0.0000 C   0  0  0  0  0  0  0  0  0  0  0  0
    7.5174   -3.4035    0.0000 C   0  0  0  0  0  0  0  0  0  0  0  0
    8.2319   -2.9910    0.0000 C   0  0  0  0  0  0  0  0  0  0  0  0
    8.9463   -3.4035    0.0000 C   0  0  0  0  0  0  0  0  0  0  0  0
    9.6608   -2.9910    0.0000 C   0  0  0  0  0  0  0  0  0  0  0  0
   10.3753   -3.4035    0.0000 C   0  0  0  0  0  0  0  0  0  0  0  0
   11.0897   -2.9910    0.0000 C   0  0  0  0  0  0  0  0  0  0  0  0
   11.8042   -3.4035    0.0000 C   0  0  0  0  0  0  0  0  0  0  0  0
   12.5187   -2.9910    0.0000 C   0  0  0  0  0  0  0  0  0  0  0  0
   13.2332   -3.4035    0.0000 C   0  0  0  0  0  0  0  0  0  0  0  0
   13.9476   -2.9910    0.0000 C   0  0  0  0  0  0  0  0  0  0  0  0
   14.6621   -3.4035    0.0000 C   0  0  0  0  0  0  0  0  0  0  0  0
   15.3766   -2.9910    0.0000 C   0  0  0  0  0  0  0  0  0  0  0  0
  1  2  2  0  0  0  0
  2  3  1  0  0  0  0
  3  4  1  0  0  0  0
  4  5  1  0  0  0  0
  5  6  1  0  0  0  0
  6  7  1  0  0  0  0
  7  8  1  0  0  0  0
  8  9  1  0  0  0  0
  9 10  1  0  0  0  0
 10 11  1  0  0  0  0
 11 12  1  0  0  0  0
 12 13  1  0  0  0  0
 13 14  1  0  0  0  0
 14 15  1  0  0  0  0
 15 16  1  0  0  0  0
 16 17  1  0  0  0  0
 17 18  1  0  0  0  0
 18 19  1  0  0  0  0
 19 20  1  0  0  0  0
 20 21  1  0  0  0  0
 21 22  1  0  0  0  0
M  END
>  <cdx:groupId>
67

>  <cdx:fragmentId>
5

$$$$
