741544.cdx
  Mrv1902 05222410222D          

 27 30  0  0  0  0            999 V2000
    7.3953   -9.4024    0.0000 C   0  0  1  0  0  0  0  0  0  0  0  0
    7.8092  -10.1161    0.0000 C   0  0  0  0  0  0  0  0  0  0  0  0
    7.3981  -10.8314    0.0000 C   0  0  0  0  0  0  0  0  0  0  0  0
    6.5731  -10.8330    0.0000 C   0  0  0  0  0  0  0  0  0  0  0  0
    6.1592  -10.1193    0.0000 C   0  0  0  0  0  0  0  0  0  0  0  0
    6.5703   -9.4040    0.0000 C   0  0  1  0  0  0  0  0  0  0  0  0
    5.7207   -8.5900    0.0000 N   0  0  0  0  0  0  0  0  0  0  0  0
    6.2828   -8.1372    0.0000 C   0  0  0  0  0  0  0  0  0  0  0  0
    7.3382   -8.7978    0.0000 C   0  0  0  0  0  0  0  0  0  0  0  0
    7.6486   -8.6173    0.0000 C   0  0  2  0  0  0  0  0  0  0  0  0
    6.9803   -8.1337    0.0000 C   0  0  2  0  0  0  0  0  0  0  0  0
    6.3138   -8.6199    0.0000 C   0  0  0  0  0  0  0  0  0  0  0  0
    7.9020   -7.8322    0.0000 C   0  0  0  0  0  0  0  0  0  0  0  0
    8.7270   -7.8306    0.0000 C   0  0  0  0  0  0  0  0  0  0  0  0
    8.9835   -8.6147    0.0000 C   0  0  0  0  0  0  0  0  0  0  0  0
    8.3170   -9.1009    0.0000 C   0  0  2  0  0  0  0  0  0  0  0  0
    7.4158   -7.1657    0.0000 O   0  0  0  0  0  0  0  0  0  0  0  0
    7.8120  -11.5450    0.0000 O   0  0  0  0  0  0  0  0  0  0  0  0
    4.8960   -8.5682    0.0000 C   0  0  0  0  0  0  0  0  0  0  0  0
    5.3342  -10.1209    0.0000 O   0  0  0  0  0  0  0  0  0  0  0  0
    4.9231  -10.8362    0.0000 C   0  0  0  0  0  0  0  0  0  0  0  0
    6.1620  -11.5483    0.0000 O   0  0  0  0  0  0  0  0  0  0  0  0
    6.5759  -12.2619    0.0000 C   0  0  0  0  0  0  0  0  0  0  0  0
    9.7686   -8.8681    0.0000 O   0  0  0  0  0  0  0  0  0  0  0  0
   10.3520   -8.2847    0.0000 C   0  0  0  0  0  0  0  0  0  0  0  0
    8.3187   -9.9259    0.0000 O   0  0  0  0  0  0  0  0  0  0  0  0
    6.9786   -7.3087    0.0000 Cl  0  0  0  0  0  0  0  0  0  0  0  0
  1  2  1  0  0  0  0
  2  3  1  0  0  0  0
  3  4  1  0  0  0  0
  4  5  2  0  0  0  0
  5  6  1  0  0  0  0
  6  7  1  1  0  0  0
  7  8  1  0  0  0  0
  8  9  1  0  0  0  0
 10 11  1  0  0  0  0
 11 12  1  0  0  0  0
  1  9  1  1  0  0  0
  1 10  1  0  0  0  0
  6 12  1  6  0  0  0
  1  6  1  0  0  0  0
 13 14  1  0  0  0  0
 14 15  2  0  0  0  0
 15 16  1  0  0  0  0
 10 13  1  6  0  0  0
 16 10  1  0  0  0  0
 13 17  2  0  0  0  0
  3 18  2  0  0  0  0
  7 19  1  0  0  0  0
 20 21  1  0  0  0  0
  5 20  1  0  0  0  0
 22 23  1  0  0  0  0
  4 22  1  0  0  0  0
 24 25  1  0  0  0  0
 15 24  1  0  0  0  0
 16 26  1  6  0  0  0
 11 27  1  6  0  0  0
M  END
>  <cdx:fragmentId>
1074

$$$$
