74152.cdx
  Mrv1902 05222410262D          

  7  6  0  0  0  0            999 V2000
    5.9211   -2.8471    0.0000 C   0  0  0  0  0  0  0  0  0  0  0  0
    5.2066   -3.2596    0.0000 C   0  0  0  0  0  0  0  0  0  0  0  0
    4.4921   -2.8471    0.0000 C   0  0  0  0  0  0  0  0  0  0  0  0
    3.7777   -3.2596    0.0000 C   0  0  0  0  0  0  0  0  0  0  0  0
    3.7777   -4.0846    0.0000 C   0  0  0  0  0  0  0  0  0  0  0  0
    4.4921   -2.0221    0.0000 O   0  0  0  0  0  0  0  0  0  0  0  0
    3.0632   -2.8471    0.0000 C   0  0  0  0  0  0  0  0  0  0  0  0
  1  2  2  0  0  0  0
  2  3  1  0  0  0  0
  3  4  1  0  0  0  0
  4  5  1  0  0  0  0
  3  6  2  0  0  0  0
  4  7  1  0  0  0  0
M  END
>  <cdx:groupId>
22

>  <cdx:fragmentId>
5

$$$$
