7420.cdx
  Mrv1902 05222410202D          

 10 10  0  0  0  0            999 V2000
    7.9563   -4.6404    0.0000 C   0  0  0  0  0  0  0  0  0  0  0  0
    7.2419   -5.0529    0.0000 C   0  0  0  0  0  0  0  0  0  0  0  0
    6.5274   -4.6404    0.0000 C   0  0  0  0  0  0  0  0  0  0  0  0
    5.8129   -5.0529    0.0000 C   0  0  0  0  0  0  0  0  0  0  0  0
    5.8129   -5.8779    0.0000 C   0  0  0  0  0  0  0  0  0  0  0  0
    6.5274   -6.2904    0.0000 C   0  0  0  0  0  0  0  0  0  0  0  0
    7.2419   -5.8779    0.0000 C   0  0  0  0  0  0  0  0  0  0  0  0
    7.9563   -3.8154    0.0000 O   0  0  0  0  0  0  0  0  0  0  0  0
    8.6708   -5.0529    0.0000 O   0  0  0  0  0  0  0  0  0  0  0  0
    5.0984   -4.6404    0.0000 O   0  0  0  0  0  0  0  0  0  0  0  0
  1  2  1  0  0  0  0
  2  3  1  0  0  0  0
  3  4  2  0  0  0  0
  4  5  1  0  0  0  0
  5  6  2  0  0  0  0
  6  7  1  0  0  0  0
  2  7  2  0  0  0  0
  1  8  2  0  0  0  0
  1  9  1  0  0  0  0
  4 10  1  0  0  0  0
M  END
>  <cdx:groupId>
32

>  <cdx:fragmentId>
5

$$$$
