15742117.cdx
  Mrv1902 05222410212D          

 25 26  0  0  0  0            999 V2000
    7.6410   -8.5794    0.0000 C   0  0  0  0  0  0  0  0  0  0  0  0
    8.3555   -8.9919    0.0000 C   0  0  0  0  0  0  0  0  0  0  0  0
    9.0699   -8.5794    0.0000 C   0  0  0  0  0  0  0  0  0  0  0  0
    7.6410   -7.7544    0.0000 O   0  0  0  0  0  0  0  0  0  0  0  0
    9.0699   -7.7544    0.0000 O   0  0  0  0  0  0  0  0  0  0  0  0
    9.7844   -8.9919    0.0000 C   0  0  0  0  0  0  0  0  0  0  0  0
   10.4989   -8.5794    0.0000 C   0  0  0  0  0  0  0  0  0  0  0  0
   11.2134   -8.9919    0.0000 C   0  0  0  0  0  0  0  0  0  0  0  0
   11.2134   -9.8169    0.0000 C   0  0  0  0  0  0  0  0  0  0  0  0
   10.4989  -10.2294    0.0000 C   0  0  0  0  0  0  0  0  0  0  0  0
    9.7844   -9.8169    0.0000 C   0  0  0  0  0  0  0  0  0  0  0  0
   11.9278  -10.2294    0.0000 O   0  0  0  0  0  0  0  0  0  0  0  0
    6.9265   -8.9919    0.0000 C   0  0  0  0  0  0  0  0  0  0  0  0
    6.9265   -9.8169    0.0000 C   0  0  0  0  0  0  0  0  0  0  0  0
    6.2121  -10.2294    0.0000 C   0  0  0  0  0  0  0  0  0  0  0  0
    5.4976   -9.8169    0.0000 C   0  0  0  0  0  0  0  0  0  0  0  0
    5.4976   -8.9919    0.0000 C   0  0  0  0  0  0  0  0  0  0  0  0
    6.2121   -8.5794    0.0000 C   0  0  0  0  0  0  0  0  0  0  0  0
    4.7831   -8.5794    0.0000 C   0  0  0  0  0  0  0  0  0  0  0  0
    4.0686   -8.9919    0.0000 C   0  0  0  0  0  0  0  0  0  0  0  0
    3.3542   -8.5794    0.0000 C   0  0  0  0  0  0  0  0  0  0  0  0
    3.3542   -7.7544    0.0000 C   0  0  0  0  0  0  0  0  0  0  0  0
    2.6397   -8.9919    0.0000 C   0  0  0  0  0  0  0  0  0  0  0  0
    4.7831  -10.2294    0.0000 O   0  0  0  0  0  0  0  0  0  0  0  0
    7.6410  -10.2294    0.0000 O   0  0  0  0  0  0  0  0  0  0  0  0
  1  2  1  0  0  0  0
  2  3  1  0  0  0  0
  1  4  2  0  0  0  0
  3  5  2  0  0  0  0
  6  7  1  0  0  0  0
  7  8  2  0  0  0  0
  8  9  1  0  0  0  0
  9 10  2  0  0  0  0
 10 11  1  0  0  0  0
  6 11  2  0  0  0  0
  9 12  1  0  0  0  0
  3  6  1  0  0  0  0
 13 14  1  0  0  0  0
 14 15  2  0  0  0  0
 15 16  1  0  0  0  0
 16 17  2  0  0  0  0
 17 18  1  0  0  0  0
 13 18  2  0  0  0  0
 19 20  1  0  0  0  0
 20 21  2  0  0  0  0
 21 22  1  0  0  0  0
 21 23  1  0  0  0  0
 17 19  1  0  0  0  0
 16 24  1  0  0  0  0
 14 25  1  0  0  0  0
  1 13  1  0  0  0  0
M  END
>  <cdx:fragmentId>
116447

$$$$
