15742118.cdx
  Mrv1902 05222410252D          

 30 31  0  0  0  0            999 V2000
    6.5538   -7.3144    0.0000 C   0  0  0  0  0  0  0  0  0  0  0  0
    7.2682   -7.7269    0.0000 C   0  0  0  0  0  0  0  0  0  0  0  0
    7.9827   -7.3144    0.0000 C   0  0  0  0  0  0  0  0  0  0  0  0
    6.5538   -6.4894    0.0000 O   0  0  0  0  0  0  0  0  0  0  0  0
    7.9827   -6.4894    0.0000 O   0  0  0  0  0  0  0  0  0  0  0  0
    8.6972   -7.7269    0.0000 C   0  0  0  0  0  0  0  0  0  0  0  0
    9.4117   -7.3144    0.0000 C   0  0  0  0  0  0  0  0  0  0  0  0
   10.1261   -7.7269    0.0000 C   0  0  0  0  0  0  0  0  0  0  0  0
   10.1261   -8.5519    0.0000 C   0  0  0  0  0  0  0  0  0  0  0  0
    9.4117   -8.9644    0.0000 C   0  0  0  0  0  0  0  0  0  0  0  0
    8.6972   -8.5519    0.0000 C   0  0  0  0  0  0  0  0  0  0  0  0
   10.8406   -7.3144    0.0000 C   0  0  0  0  0  0  0  0  0  0  0  0
   11.5551   -7.7269    0.0000 C   0  0  0  0  0  0  0  0  0  0  0  0
   12.2695   -7.3144    0.0000 C   0  0  0  0  0  0  0  0  0  0  0  0
   12.2695   -6.4894    0.0000 C   0  0  0  0  0  0  0  0  0  0  0  0
   12.9840   -7.7269    0.0000 C   0  0  0  0  0  0  0  0  0  0  0  0
   10.8406   -8.9644    0.0000 O   0  0  0  0  0  0  0  0  0  0  0  0
    5.8393   -7.7269    0.0000 C   0  0  0  0  0  0  0  0  0  0  0  0
    5.8393   -8.5519    0.0000 C   0  0  0  0  0  0  0  0  0  0  0  0
    5.1248   -8.9644    0.0000 C   0  0  0  0  0  0  0  0  0  0  0  0
    4.4104   -8.5519    0.0000 C   0  0  0  0  0  0  0  0  0  0  0  0
    4.4104   -7.7269    0.0000 C   0  0  0  0  0  0  0  0  0  0  0  0
    5.1248   -7.3144    0.0000 C   0  0  0  0  0  0  0  0  0  0  0  0
    3.6959   -7.3144    0.0000 C   0  0  0  0  0  0  0  0  0  0  0  0
    2.9814   -7.7269    0.0000 C   0  0  0  0  0  0  0  0  0  0  0  0
    2.2670   -7.3144    0.0000 C   0  0  0  0  0  0  0  0  0  0  0  0
    2.2670   -6.4894    0.0000 C   0  0  0  0  0  0  0  0  0  0  0  0
    1.5525   -7.7269    0.0000 C   0  0  0  0  0  0  0  0  0  0  0  0
    3.6959   -8.9644    0.0000 O   0  0  0  0  0  0  0  0  0  0  0  0
    6.5538   -8.9644    0.0000 O   0  0  0  0  0  0  0  0  0  0  0  0
  1  2  1  0  0  0  0
  2  3  1  0  0  0  0
  1  4  2  0  0  0  0
  3  5  2  0  0  0  0
  6  7  1  0  0  0  0
  7  8  2  0  0  0  0
  8  9  1  0  0  0  0
  9 10  2  0  0  0  0
 10 11  1  0  0  0  0
  6 11  2  0  0  0  0
 12 13  1  0  0  0  0
 13 14  2  0  0  0  0
 14 15  1  0  0  0  0
 14 16  1  0  0  0  0
  8 12  1  0  0  0  0
  9 17  1  0  0  0  0
  3  6  1  0  0  0  0
 18 19  1  0  0  0  0
 19 20  2  0  0  0  0
 20 21  1  0  0  0  0
 21 22  2  0  0  0  0
 22 23  1  0  0  0  0
 18 23  2  0  0  0  0
 24 25  1  0  0  0  0
 25 26  2  0  0  0  0
 26 27  1  0  0  0  0
 26 28  1  0  0  0  0
 22 24  1  0  0  0  0
 21 29  1  0  0  0  0
 19 30  1  0  0  0  0
  1 18  1  0  0  0  0
M  END
>  <cdx:fragmentId>
116514

$$$$
