10742453.cdx
  Mrv1902 05222410242D          

 33 35  0  0  0  0            999 V2000
    5.8146   -7.1220    0.0000 C   0  0  2  0  0  0  0  0  0  0  0  0
    5.8146   -6.2970    0.0000 C   0  0  0  0  0  0  0  0  0  0  0  0
    6.5290   -5.8845    0.0000 C   0  0  0  0  0  0  0  0  0  0  0  0
    7.2435   -6.2970    0.0000 C   0  0  0  0  0  0  0  0  0  0  0  0
    7.9580   -5.8845    0.0000 C   0  0  0  0  0  0  0  0  0  0  0  0
    8.6724   -6.2970    0.0000 C   0  0  0  0  0  0  0  0  0  0  0  0
    8.6724   -7.1220    0.0000 C   0  0  0  0  0  0  0  0  0  0  0  0
    7.9580   -7.5345    0.0000 C   0  0  0  0  0  0  0  0  0  0  0  0
    7.2435   -7.1220    0.0000 C   0  0  0  0  0  0  0  0  0  0  0  0
    6.5290   -7.5345    0.0000 O   0  0  0  0  0  0  0  0  0  0  0  0
    6.5290   -5.0595    0.0000 O   0  0  0  0  0  0  0  0  0  0  0  0
    7.9580   -8.3595    0.0000 C   0  0  0  0  0  0  0  0  0  0  0  0
    8.6724   -8.7720    0.0000 C   0  0  0  0  0  0  0  0  0  0  0  0
    9.3869   -8.3595    0.0000 C   0  0  0  0  0  0  0  0  0  0  0  0
   10.1014   -8.7720    0.0000 C   0  0  0  0  0  0  0  0  0  0  0  0
   10.8159   -8.3595    0.0000 C   0  0  0  0  0  0  0  0  0  0  0  0
   10.8159   -7.5345    0.0000 C   0  0  0  0  0  0  0  0  0  0  0  0
    9.3869  -10.0095    0.0000 C   0  0  0  0  0  0  0  0  0  0  0  0
    8.6724   -9.5970    0.0000 C   0  0  0  0  0  0  0  0  0  0  0  0
    7.9580  -10.0095    0.0000 C   0  0  0  0  0  0  0  0  0  0  0  0
   11.5303   -8.7720    0.0000 C   0  0  0  0  0  0  0  0  0  0  0  0
   11.5303   -7.9470    0.0000 O   0  0  0  0  0  0  0  0  0  0  0  0
    5.1001   -7.5345    0.0000 C   0  0  0  0  0  0  0  0  0  0  0  0
    5.1001   -8.3595    0.0000 C   0  0  0  0  0  0  0  0  0  0  0  0
    4.3856   -8.7720    0.0000 C   0  0  0  0  0  0  0  0  0  0  0  0
    3.6711   -8.3595    0.0000 C   0  0  0  0  0  0  0  0  0  0  0  0
    3.6711   -7.5345    0.0000 C   0  0  0  0  0  0  0  0  0  0  0  0
    4.3856   -7.1220    0.0000 C   0  0  0  0  0  0  0  0  0  0  0  0
    5.8146   -8.7720    0.0000 O   0  0  0  0  0  0  0  0  0  0  0  0
    6.5290   -8.3595    0.0000 C   0  0  0  0  0  0  0  0  0  0  0  0
    2.9567   -8.7720    0.0000 O   0  0  0  0  0  0  0  0  0  0  0  0
    9.3869   -7.5345    0.0000 O   0  0  0  0  0  0  0  0  0  0  0  0
    7.9580   -5.0595    0.0000 O   0  0  0  0  0  0  0  0  0  0  0  0
  1  2  1  0  0  0  0
  2  3  1  0  0  0  0
  3  4  1  0  0  0  0
  4  5  1  0  0  0  0
  5  6  2  0  0  0  0
  6  7  1  0  0  0  0
  7  8  2  0  0  0  0
  8  9  1  0  0  0  0
  4  9  2  0  0  0  0
  9 10  1  0  0  0  0
  1 10  1  0  0  0  0
  3 11  2  0  0  0  0
 12 13  1  0  0  0  0
 13 14  1  0  0  0  0
 14 15  1  0  0  0  0
 15 16  1  0  0  0  0
 16 17  1  0  0  0  0
 18 19  2  0  0  0  0
 19 20  1  0  0  0  0
 13 19  1  0  0  0  0
 16 21  1  0  0  0  0
 16 22  1  0  0  0  0
  8 12  1  0  0  0  0
 23 24  1  0  0  0  0
 24 25  2  0  0  0  0
 25 26  1  0  0  0  0
 26 27  2  0  0  0  0
 27 28  1  0  0  0  0
 23 28  2  0  0  0  0
 29 30  1  0  0  0  0
 24 29  1  0  0  0  0
 26 31  1  0  0  0  0
  1 23  1  6  0  0  0
  7 32  1  0  0  0  0
  5 33  1  0  0  0  0
M  END
>  <cdx:groupId>
58797

>  <cdx:fragmentId>
58699

$$$$
