74247.cdx
  Mrv1902 05222410232D          

 22 21  0  0  0  0            999 V2000
    9.1537   -9.3989    0.0000 C   0  0  0  0  0  0  0  0  0  0  0  0
    8.4392   -9.8114    0.0000 C   0  0  0  0  0  0  0  0  0  0  0  0
    7.7248   -9.3989    0.0000 C   0  0  0  0  0  0  0  0  0  0  0  0
    7.0103   -9.8114    0.0000 C   0  0  0  0  0  0  0  0  0  0  0  0
    6.2958   -9.3989    0.0000 C   0  0  0  0  0  0  0  0  0  0  0  0
    5.5813   -9.8114    0.0000 C   0  0  0  0  0  0  0  0  0  0  0  0
    4.8669   -9.3989    0.0000 C   0  0  0  0  0  0  0  0  0  0  0  0
    4.1524   -9.8114    0.0000 C   0  0  0  0  0  0  0  0  0  0  0  0
    3.4379   -9.3989    0.0000 C   0  0  0  0  0  0  0  0  0  0  0  0
    2.7235   -9.8114    0.0000 C   0  0  0  0  0  0  0  0  0  0  0  0
    9.1537   -8.5739    0.0000 O   0  0  0  0  0  0  0  0  0  0  0  0
    9.8682   -9.8114    0.0000 O   0  0  0  0  0  0  0  0  0  0  0  0
   10.5826   -9.3989    0.0000 C   0  0  0  0  0  0  0  0  0  0  0  0
   11.2971   -9.8114    0.0000 C   0  0  0  0  0  0  0  0  0  0  0  0
   12.0116   -9.3989    0.0000 C   0  0  0  0  0  0  0  0  0  0  0  0
   12.7260   -9.8114    0.0000 C   0  0  0  0  0  0  0  0  0  0  0  0
   13.4405   -9.3989    0.0000 C   0  0  0  0  0  0  0  0  0  0  0  0
   14.1550   -9.8114    0.0000 C   0  0  0  0  0  0  0  0  0  0  0  0
   14.8695   -9.3989    0.0000 C   0  0  0  0  0  0  0  0  0  0  0  0
   15.5839   -9.8114    0.0000 C   0  0  0  0  0  0  0  0  0  0  0  0
   16.2984   -9.3989    0.0000 C   0  0  0  0  0  0  0  0  0  0  0  0
   17.0129   -9.8114    0.0000 C   0  0  0  0  0  0  0  0  0  0  0  0
  1  2  1  0  0  0  0
  2  3  1  0  0  0  0
  3  4  1  0  0  0  0
  4  5  1  0  0  0  0
  5  6  1  0  0  0  0
  6  7  1  0  0  0  0
  7  8  1  0  0  0  0
  8  9  1  0  0  0  0
  9 10  1  0  0  0  0
  1 11  2  0  0  0  0
  1 12  1  0  0  0  0
 13 14  1  0  0  0  0
 14 15  1  0  0  0  0
 15 16  1  0  0  0  0
 16 17  1  0  0  0  0
 17 18  1  0  0  0  0
 18 19  1  0  0  0  0
 19 20  1  0  0  0  0
 20 21  1  0  0  0  0
 21 22  1  0  0  0  0
 12 13  1  0  0  0  0
M  END
>  <cdx:groupId>
67

>  <cdx:fragmentId>
5

$$$$
