7424.cdx
  Mrv1902 05222410182D          

 11 11  0  0  0  0            999 V2000
    8.1351   -5.1571    0.0000 C   0  0  0  0  0  0  0  0  0  0  0  0
    7.4206   -5.5696    0.0000 C   0  0  0  0  0  0  0  0  0  0  0  0
    7.4206   -6.3946    0.0000 C   0  0  0  0  0  0  0  0  0  0  0  0
    6.7061   -6.8071    0.0000 C   0  0  0  0  0  0  0  0  0  0  0  0
    5.9917   -6.3946    0.0000 C   0  0  0  0  0  0  0  0  0  0  0  0
    5.9917   -5.5696    0.0000 C   0  0  0  0  0  0  0  0  0  0  0  0
    6.7061   -5.1571    0.0000 C   0  0  0  0  0  0  0  0  0  0  0  0
    8.1351   -4.3321    0.0000 O   0  0  0  0  0  0  0  0  0  0  0  0
    8.8496   -5.5696    0.0000 O   0  0  0  0  0  0  0  0  0  0  0  0
    5.2772   -5.1571    0.0000 O   0  0  0  0  0  0  0  0  0  0  0  0
    6.7061   -7.6321    0.0000 O   0  0  0  0  0  0  0  0  0  0  0  0
  1  2  1  0  0  0  0
  2  3  1  0  0  0  0
  3  4  2  0  0  0  0
  4  5  1  0  0  0  0
  5  6  2  0  0  0  0
  6  7  1  0  0  0  0
  2  7  2  0  0  0  0
  1  8  2  0  0  0  0
  1  9  1  0  0  0  0
  6 10  1  0  0  0  0
  4 11  1  0  0  0  0
M  END
>  <cdx:fragmentId>
5

$$$$
