742799.cdx
  Mrv1902 05222410182D          

 21 22  0  0  0  0            999 V2000
    9.5668   -7.6353    0.0000 C   0  0  2  0  0  0  0  0  0  0  0  0
   10.0433   -8.3088    0.0000 C   0  0  0  0  0  0  0  0  0  0  0  0
    9.5501   -8.9701    0.0000 C   0  0  0  0  0  0  0  0  0  0  0  0
    8.7687   -8.7053    0.0000 C   0  0  1  0  0  0  0  0  0  0  0  0
    8.1173   -9.2116    0.0000 C   0  0  2  0  0  0  0  0  0  0  0  0
    7.3154   -9.0180    0.0000 C   0  0  0  0  0  0  0  0  0  0  0  0
    6.9668   -8.2702    0.0000 C   0  0  0  0  0  0  0  0  0  0  0  0
    7.3340   -7.5315    0.0000 C   0  0  1  0  0  0  0  0  0  0  0  0
    8.1406   -7.3580    0.0000 C   0  0  2  0  0  0  0  0  0  0  0  0
    8.7791   -7.8804    0.0000 C   0  0  1  0  0  0  0  0  0  0  0  0
   10.1502   -7.0520    0.0000 O   0  0  0  0  0  0  0  0  0  0  0  0
    7.9038  -10.0085    0.0000 O   0  0  0  0  0  0  0  0  0  0  0  0
    7.2213   -6.7142    0.0000 O   0  0  0  0  0  0  0  0  0  0  0  0
    8.3342   -6.5560    0.0000 O   0  0  0  0  0  0  0  0  0  0  0  0
    6.4572   -6.4032    0.0000 C   0  0  0  0  0  0  0  0  0  0  0  0
    6.5699   -7.2205    0.0000 C   0  0  0  0  0  0  0  0  0  0  0  0
    5.9185   -7.7267    0.0000 C   0  0  0  0  0  0  0  0  0  0  0  0
    8.5298   -9.9261    0.0000 C   0  0  0  0  0  0  0  0  0  0  0  0
    9.5668   -6.8103    0.0000 C   0  0  0  0  0  0  0  0  0  0  0  0
    8.7687   -9.5303    0.0000 H   0  0  0  0  0  0  0  0  0  0  0  0
    8.7791   -7.0554    0.0000 H   0  0  0  0  0  0  0  0  0  0  0  0
  1  2  1  0  0  0  0
  2  3  1  0  0  0  0
  3  4  1  0  0  0  0
  4  5  1  0  0  0  0
  5  6  1  0  0  0  0
  6  7  1  0  0  0  0
  7  8  1  0  0  0  0
  8  9  1  0  0  0  0
  9 10  1  0  0  0  0
  1 10  1  0  0  0  0
  4 10  1  0  0  0  0
  1 11  1  6  0  0  0
  5 12  1  1  0  0  0
  8 13  1  6  0  0  0
  9 14  1  1  0  0  0
 15 16  1  0  0  0  0
 16 17  1  0  0  0  0
  8 16  1  0  0  0  0
  5 18  1  0  0  0  0
  1 19  1  0  0  0  0
  4 20  1  6  0  0  0
 10 21  1  6  0  0  0
M  END
>  <cdx:fragmentId>
123781

$$$$
