74280.cdx
  Mrv1902 05222410252D          

 12 13  0  0  0  0            999 V2000
    6.6072   -2.1589    0.0000 N   0  0  0  0  0  0  0  0  0  0  0  0
    7.0921   -2.8264    0.0000 C   0  0  0  0  0  0  0  0  0  0  0  0
    6.6072   -3.4938    0.0000 C   0  0  0  0  0  0  0  0  0  0  0  0
    5.8226   -3.2389    0.0000 C   0  0  0  0  0  0  0  0  0  0  0  0
    5.1081   -3.6514    0.0000 C   0  0  0  0  0  0  0  0  0  0  0  0
    4.3937   -3.2389    0.0000 C   0  0  0  0  0  0  0  0  0  0  0  0
    4.3937   -2.4139    0.0000 C   0  0  0  0  0  0  0  0  0  0  0  0
    5.1081   -2.0014    0.0000 C   0  0  0  0  0  0  0  0  0  0  0  0
    5.8226   -2.4139    0.0000 C   0  0  0  0  0  0  0  0  0  0  0  0
    3.6792   -3.6514    0.0000 C   0  0  0  0  0  0  0  0  0  0  0  0
    3.6792   -4.4764    0.0000 O   0  0  0  0  0  0  0  0  0  0  0  0
    2.9647   -3.2389    0.0000 O   0  0  0  0  0  0  0  0  0  0  0  0
  1  2  1  0  0  0  0
  2  3  2  0  0  0  0
  3  4  1  0  0  0  0
  4  5  1  0  0  0  0
  5  6  2  0  0  0  0
  6  7  1  0  0  0  0
  7  8  2  0  0  0  0
  8  9  1  0  0  0  0
  1  9  1  0  0  0  0
  4  9  2  0  0  0  0
 10 11  2  0  0  0  0
 10 12  1  0  0  0  0
  6 10  1  0  0  0  0
M  END
>  <cdx:groupId>
39

>  <cdx:fragmentId>
5

$$$$
