74318.cdx
  Mrv1902 05222410242D          

 14 16  0  0  0  0            999 V2000
    4.9459   -2.8263    0.0000 C   0  0  0  0  0  0  0  0  0  0  0  0
    5.6133   -3.3112    0.0000 C   0  0  0  0  0  0  0  0  0  0  0  0
    6.4203   -3.1397    0.0000 C   0  0  0  0  0  0  0  0  0  0  0  0
    6.9723   -3.7528    0.0000 C   0  0  0  0  0  0  0  0  0  0  0  0
    6.7174   -4.5374    0.0000 C   0  0  0  0  0  0  0  0  0  0  0  0
    5.9104   -4.7089    0.0000 C   0  0  0  0  0  0  0  0  0  0  0  0
    5.3584   -4.0959    0.0000 C   0  0  0  0  0  0  0  0  0  0  0  0
    4.5334   -4.0959    0.0000 C   0  0  0  0  0  0  0  0  0  0  0  0
    3.9813   -4.7089    0.0000 C   0  0  0  0  0  0  0  0  0  0  0  0
    3.1744   -4.5374    0.0000 C   0  0  0  0  0  0  0  0  0  0  0  0
    2.9194   -3.7528    0.0000 C   0  0  0  0  0  0  0  0  0  0  0  0
    3.4715   -3.1397    0.0000 C   0  0  0  0  0  0  0  0  0  0  0  0
    4.2784   -3.3112    0.0000 C   0  0  0  0  0  0  0  0  0  0  0  0
    4.9459   -2.0013    0.0000 O   0  0  0  0  0  0  0  0  0  0  0  0
  1  2  1  0  0  0  0
  2  3  1  0  0  0  0
  3  4  2  0  0  0  0
  4  5  1  0  0  0  0
  5  6  2  0  0  0  0
  6  7  1  0  0  0  0
  2  7  2  0  0  0  0
  7  8  1  0  0  0  0
  8  9  1  0  0  0  0
  9 10  2  0  0  0  0
 10 11  1  0  0  0  0
 11 12  2  0  0  0  0
 12 13  1  0  0  0  0
  8 13  2  0  0  0  0
  1 13  1  0  0  0  0
  1 14  1  0  0  0  0
M  END
>  <cdx:groupId>
46

>  <cdx:fragmentId>
5

$$$$
