7431.cdx
  Mrv1902 05222410182D          

 13 13  0  0  0  0            999 V2000
    7.5510   -4.9164    0.0000 C   0  0  0  0  0  0  0  0  0  0  0  0
    7.5510   -4.0914    0.0000 C   0  0  0  0  0  0  0  0  0  0  0  0
    6.8365   -3.6789    0.0000 C   0  0  0  0  0  0  0  0  0  0  0  0
    6.1220   -4.0914    0.0000 C   0  0  0  0  0  0  0  0  0  0  0  0
    6.1220   -4.9164    0.0000 C   0  0  0  0  0  0  0  0  0  0  0  0
    6.8365   -5.3289    0.0000 O   0  0  0  0  0  0  0  0  0  0  0  0
    8.2654   -5.3289    0.0000 C   0  0  0  0  0  0  0  0  0  0  0  0
    8.2654   -6.1539    0.0000 O   0  0  0  0  0  0  0  0  0  0  0  0
    8.9799   -4.9164    0.0000 O   0  0  0  0  0  0  0  0  0  0  0  0
    5.4076   -5.3289    0.0000 C   0  0  0  0  0  0  0  0  0  0  0  0
    5.4076   -6.1539    0.0000 O   0  0  0  0  0  0  0  0  0  0  0  0
    4.6931   -4.9164    0.0000 O   0  0  0  0  0  0  0  0  0  0  0  0
    6.8365   -2.8539    0.0000 O   0  0  0  0  0  0  0  0  0  0  0  0
  1  2  2  0  0  0  0
  2  3  1  0  0  0  0
  3  4  1  0  0  0  0
  4  5  2  0  0  0  0
  5  6  1  0  0  0  0
  1  6  1  0  0  0  0
  7  8  2  0  0  0  0
  7  9  1  0  0  0  0
  1  7  1  0  0  0  0
 10 11  2  0  0  0  0
 10 12  1  0  0  0  0
  5 10  1  0  0  0  0
  3 13  2  0  0  0  0
M  END
>  <cdx:groupId>
41

>  <cdx:fragmentId>
5

$$$$
