743460.cdx
  Mrv1902 05222410272D          

 24 23  0  0  0  0            999 V2000
    1.4413   -8.5794    0.0000 C   0  0  0  0  0  0  0  0  0  0  0  0
    2.1558   -8.1669    0.0000 C   0  0  0  0  0  0  0  0  0  0  0  0
    2.8703   -8.5794    0.0000 C   0  0  0  0  0  0  0  0  0  0  0  0
    3.5847   -8.1669    0.0000 C   0  0  0  0  0  0  0  0  0  0  0  0
    4.2992   -8.5794    0.0000 O   0  0  0  0  0  0  0  0  0  0  0  0
    5.0137   -7.3419    0.0000 O   0  0  0  0  0  0  0  0  0  0  0  0
   17.1597   -8.5794    0.0000 C   0  0  0  0  0  0  0  0  0  0  0  0
   16.4452   -8.1669    0.0000 C   0  0  0  0  0  0  0  0  0  0  0  0
   15.7307   -8.5794    0.0000 C   0  0  0  0  0  0  0  0  0  0  0  0
   15.0163   -8.1669    0.0000 C   0  0  0  0  0  0  0  0  0  0  0  0
   14.3018   -8.5794    0.0000 C   0  0  0  0  0  0  0  0  0  0  0  0
   13.5873   -8.1669    0.0000 C   0  0  0  0  0  0  0  0  0  0  0  0
   12.8729   -8.5794    0.0000 C   0  0  0  0  0  0  0  0  0  0  0  0
   12.1584   -8.1669    0.0000 C   0  0  0  0  0  0  0  0  0  0  0  0
   11.4439   -8.5794    0.0000 C   0  0  0  0  0  0  0  0  0  0  0  0
   10.7294   -8.1669    0.0000 C   0  0  0  0  0  0  0  0  0  0  0  0
   10.0150   -8.5794    0.0000 C   0  0  0  0  0  0  0  0  0  0  0  0
    9.3005   -8.1669    0.0000 C   0  0  0  0  0  0  0  0  0  0  0  0
    8.5860   -8.5794    0.0000 C   0  0  0  0  0  0  0  0  0  0  0  0
    7.8716   -8.1669    0.0000 C   0  0  0  0  0  0  0  0  0  0  0  0
    7.1571   -8.5794    0.0000 C   0  0  0  0  0  0  0  0  0  0  0  0
    6.4426   -8.1669    0.0000 C   0  0  0  0  0  0  0  0  0  0  0  0
    5.7281   -8.5794    0.0000 C   0  0  0  0  0  0  0  0  0  0  0  0
    5.0137   -8.1669    0.0000 C   0  0  0  0  0  0  0  0  0  0  0  0
  5  4  1  0  0  0  0
  2  1  1  0  0  0  0
  3  2  1  0  0  0  0
  4  3  1  0  0  0  0
 24  5  1  0  0  0  0
 24  6  2  0  0  0  0
  8  7  1  0  0  0  0
  9  8  1  0  0  0  0
 10  9  2  0  0  0  0
 11 10  1  0  0  0  0
 12 11  1  0  0  0  0
 13 12  2  0  0  0  0
 14 13  1  0  0  0  0
 15 14  1  0  0  0  0
 16 15  2  0  0  0  0
 17 16  1  0  0  0  0
 18 17  1  0  0  0  0
 19 18  1  0  0  0  0
 20 19  1  0  0  0  0
 21 20  1  0  0  0  0
 22 21  1  0  0  0  0
 23 22  1  0  0  0  0
 24 23  1  0  0  0  0
M  END
>  <cdx:fragmentId>
5

$$$$
