7435.cdx
  Mrv1902 05222410202D          

 39 43  0  0  0  0            999 V2000
    5.6064   -8.1881    0.0000 C   0  0  0  0  0  0  0  0  0  0  0  0
    5.6064   -9.0131    0.0000 C   0  0  2  0  0  0  0  0  0  0  0  0
    6.3209   -9.4256    0.0000 C   0  0  2  0  0  0  0  0  0  0  0  0
    7.0353   -9.0131    0.0000 C   0  0  1  0  0  0  0  0  0  0  0  0
    7.0353   -8.1881    0.0000 C   0  0  2  0  0  0  0  0  0  0  0  0
    6.3209   -7.7756    0.0000 C   0  0  0  0  0  0  0  0  0  0  0  0
    7.7498   -9.4256    0.0000 C   0  0  0  0  0  0  0  0  0  0  0  0
    8.4643   -9.0131    0.0000 C   0  0  0  0  0  0  0  0  0  0  0  0
    8.4643   -8.1881    0.0000 C   0  0  2  0  0  0  0  0  0  0  0  0
    7.7498   -7.7756    0.0000 C   0  0  2  0  0  0  0  0  0  0  0  0
    9.1788   -7.7756    0.0000 C   0  0  1  0  0  0  0  0  0  0  0  0
    9.1788   -6.9506    0.0000 C   0  0  0  0  0  0  0  0  0  0  0  0
    8.4643   -6.5381    0.0000 C   0  0  0  0  0  0  0  0  0  0  0  0
    7.7498   -6.9506    0.0000 C   0  0  0  0  0  0  0  0  0  0  0  0
    9.8932   -8.1881    0.0000 C   0  0  0  0  0  0  0  0  0  0  0  0
   10.6077   -7.7756    0.0000 C   0  0  0  0  0  0  0  0  0  0  0  0
   10.6077   -6.9506    0.0000 C   0  0  2  0  0  0  0  0  0  0  0  0
    9.8932   -6.5381    0.0000 C   0  0  1  0  0  0  0  0  0  0  0  0
   11.3222   -6.5381    0.0000 C   0  0  0  0  0  0  0  0  0  0  0  0
   11.3222   -5.7131    0.0000 C   0  0  0  0  0  0  0  0  0  0  0  0
   10.6077   -5.3006    0.0000 C   0  0  2  0  0  0  0  0  0  0  0  0
    9.8932   -5.7131    0.0000 C   0  0  2  0  0  0  0  0  0  0  0  0
    7.0353   -7.3631    0.0000 C   0  0  0  0  0  0  0  0  0  0  0  0
    8.4643   -7.3631    0.0000 C   0  0  0  0  0  0  0  0  0  0  0  0
    9.1788   -6.1256    0.0000 H   0  0  0  0  0  0  0  0  0  0  0  0
   11.3222   -7.3631    0.0000 C   0  0  0  0  0  0  0  0  0  0  0  0
    9.1788   -5.3006    0.0000 C   0  0  0  0  0  0  0  0  0  0  0  0
    4.8919   -9.4256    0.0000 O   0  0  0  0  0  0  0  0  0  0  0  0
    6.7334  -10.1401    0.0000 C   0  0  0  0  0  0  0  0  0  0  0  0
    7.0353   -9.8381    0.0000 H   0  0  0  0  0  0  0  0  0  0  0  0
    7.7498   -8.6006    0.0000 H   0  0  0  0  0  0  0  0  0  0  0  0
    9.1788   -8.6006    0.0000 C   0  0  0  0  0  0  0  0  0  0  0  0
   10.6077   -4.4756    0.0000 C   0  0  0  0  0  0  0  0  0  0  0  0
    5.9084  -10.1401    0.0000 C   0  0  0  0  0  0  0  0  0  0  0  0
    5.0834  -10.1401    0.0000 O   0  0  0  0  0  0  0  0  0  0  0  0
    6.3209  -10.8546    0.0000 O   0  0  0  0  0  0  0  0  0  0  0  0
    4.1775   -9.0131    0.0000 C   0  0  0  0  0  0  0  0  0  0  0  0
    3.4630   -9.4256    0.0000 C   0  0  0  0  0  0  0  0  0  0  0  0
    4.1775   -8.1881    0.0000 O   0  0  0  0  0  0  0  0  0  0  0  0
  1  2  1  0  0  0  0
  2  3  1  0  0  0  0
  3  4  1  0  0  0  0
  4  5  1  0  0  0  0
  5  6  1  0  0  0  0
  6  1  1  0  0  0  0
  4  7  1  0  0  0  0
  7  8  1  0  0  0  0
  8  9  1  0  0  0  0
  9 10  1  0  0  0  0
 10  5  1  0  0  0  0
  9 11  1  0  0  0  0
 11 12  1  0  0  0  0
 12 13  2  0  0  0  0
 13 14  1  0  0  0  0
 14 10  1  0  0  0  0
 11 15  1  0  0  0  0
 15 16  1  0  0  0  0
 16 17  1  0  0  0  0
 17 18  1  0  0  0  0
 18 12  1  0  0  0  0
 17 19  1  0  0  0  0
 19 20  1  0  0  0  0
 20 21  1  0  0  0  0
 21 22  1  0  0  0  0
 22 18  1  0  0  0  0
  5 23  1  1  0  0  0
  9 24  1  1  0  0  0
 18 25  1  1  0  0  0
 17 26  1  1  0  0  0
 22 27  1  1  0  0  0
  2 28  1  6  0  0  0
  3 29  1  6  0  0  0
  4 30  1  6  0  0  0
 10 31  1  6  0  0  0
 11 32  1  6  0  0  0
 21 33  1  6  0  0  0
  3 34  1  1  0  0  0
 34 35  2  0  0  0  0
 34 36  1  0  0  0  0
 28 37  1  0  0  0  0
 37 38  1  0  0  0  0
 37 39  2  0  0  0  0
M  END
>  <cdx:fragmentId>
146

$$$$
