101743839.cdx
  Mrv1902 05222410232D          

 55 61  0  0  0  0            999 V2000
   10.2023   -4.7932    0.0000 C   0  0  0  0  0  0  0  0  0  0  0  0
   10.2023   -3.9682    0.0000 C   0  0  0  0  0  0  0  0  0  0  0  0
    9.4879   -3.5557    0.0000 C   0  0  0  0  0  0  0  0  0  0  0  0
    9.4879   -2.7307    0.0000 C   0  0  0  0  0  0  0  0  0  0  0  0
    9.4879   -5.2057    0.0000 O   0  0  0  0  0  0  0  0  0  0  0  0
   10.9168   -5.2057    0.0000 O   0  0  0  0  0  0  0  0  0  0  0  0
   10.9168   -3.5557    0.0000 C   0  0  0  0  0  0  0  0  0  0  0  0
   10.9168   -7.6807    0.0000 C   0  0  2  0  0  0  0  0  0  0  0  0
   11.6313   -8.0932    0.0000 O   0  0  0  0  0  0  0  0  0  0  0  0
   11.6313   -7.2682    0.0000 C   0  0  1  0  0  0  0  0  0  0  0  0
   12.4159   -7.5232    0.0000 C   0  0  0  0  0  0  0  0  0  0  0  0
   12.9008   -6.8557    0.0000 C   0  0  0  0  0  0  0  0  0  0  0  0
   12.4159   -6.1883    0.0000 C   0  0  2  0  0  0  0  0  0  0  0  0
   11.6313   -6.4432    0.0000 C   0  0  1  0  0  0  0  0  0  0  0  0
   10.9168   -6.0307    0.0000 C   0  0  1  0  0  0  0  0  0  0  0  0
   10.2023   -6.4432    0.0000 C   0  0  2  0  0  0  0  0  0  0  0  0
   10.2023   -7.2682    0.0000 C   0  0  2  0  0  0  0  0  0  0  0  0
    9.4879   -7.6807    0.0000 C   0  0  1  0  0  0  0  0  0  0  0  0
    8.7734   -7.2682    0.0000 C   0  0  0  0  0  0  0  0  0  0  0  0
    8.0589   -7.6807    0.0000 C   0  0  0  0  0  0  0  0  0  0  0  0
    8.0589   -8.5057    0.0000 C   0  0  1  0  0  0  0  0  0  0  0  0
    8.7734   -8.9182    0.0000 C   0  0  0  0  0  0  0  0  0  0  0  0
    9.4879   -8.5057    0.0000 C   0  0  2  0  0  0  0  0  0  0  0  0
   10.2023   -8.9182    0.0000 C   0  0  0  0  0  0  0  0  0  0  0  0
   10.9168   -8.5057    0.0000 C   0  0  0  0  0  0  0  0  0  0  0  0
    9.4879   -6.8557    0.0000 C   0  0  0  0  0  0  0  0  0  0  0  0
   11.7175   -5.6228    0.0000 C   0  0  0  0  0  0  0  0  0  0  0  0
    9.4879   -6.0307    0.0000 O   0  0  0  0  0  0  0  0  0  0  0  0
    7.3444   -8.9182    0.0000 O   0  0  0  0  0  0  0  0  0  0  0  0
    6.6300   -7.6807    0.0000 O   0  0  0  0  0  0  0  0  0  0  0  0
    6.6300   -8.5057    0.0000 C   0  0  2  0  0  0  0  0  0  0  0  0
    5.9155   -8.9182    0.0000 C   0  0  0  0  0  0  0  0  0  0  0  0
    5.2010   -8.5057    0.0000 C   0  0  2  0  0  0  0  0  0  0  0  0
    5.2010   -7.6807    0.0000 C   0  0  1  0  0  0  0  0  0  0  0  0
    5.9155   -7.2682    0.0000 C   0  0  1  0  0  0  0  0  0  0  0  0
    5.9155   -6.4432    0.0000 C   0  0  0  0  0  0  0  0  0  0  0  0
    4.4866   -8.9182    0.0000 O   0  0  0  0  0  0  0  0  0  0  0  0
    4.4866   -9.7432    0.0000 C   0  0  0  0  0  0  0  0  0  0  0  0
    4.4866   -7.2682    0.0000 O   0  0  0  0  0  0  0  0  0  0  0  0
    3.7721   -8.5057    0.0000 O   0  0  0  0  0  0  0  0  0  0  0  0
    3.7721   -7.6807    0.0000 C   0  0  2  0  0  0  0  0  0  0  0  0
    3.0576   -7.2682    0.0000 C   0  0  1  0  0  0  0  0  0  0  0  0
    2.3432   -7.6807    0.0000 C   0  0  1  0  0  0  0  0  0  0  0  0
    2.3432   -8.5057    0.0000 C   0  0  1  0  0  0  0  0  0  0  0  0
    3.0576   -8.9182    0.0000 C   0  0  1  0  0  0  0  0  0  0  0  0
    3.0576   -9.7432    0.0000 C   0  0  0  0  0  0  0  0  0  0  0  0
    1.6287   -7.2682    0.0000 O   0  0  0  0  0  0  0  0  0  0  0  0
    0.9142   -7.6807    0.0000 C   0  0  0  0  0  0  0  0  0  0  0  0
    1.6287   -8.9182    0.0000 O   0  0  0  0  0  0  0  0  0  0  0  0
    3.0576   -6.4432    0.0000 O   0  0  0  0  0  0  0  0  0  0  0  0
   12.6708   -5.4037    0.0000 C   0  0  0  0  0  0  0  0  0  0  0  0
   12.1188   -4.7906    0.0000 O   0  0  0  0  0  0  0  0  0  0  0  0
   13.4778   -5.2322    0.0000 C   0  0  0  0  0  0  0  0  0  0  0  0
   10.2023   -8.0932    0.0000 H   0  0  0  0  0  0  0  0  0  0  0  0
    9.4879   -9.3307    0.0000 H   0  0  0  0  0  0  0  0  0  0  0  0
  1  2  1  0  0  0  0
  2  3  1  0  0  0  0
  3  4  1  0  0  0  0
  1  5  2  0  0  0  0
  1  6  1  0  0  0  0
  2  7  1  0  0  0  0
  8  9  1  1  0  0  0
 10  9  1  1  0  0  0
 10 11  1  0  0  0  0
 11 12  1  0  0  0  0
 12 13  1  0  0  0  0
 13 14  1  0  0  0  0
 14 15  1  0  0  0  0
 15 16  1  0  0  0  0
 16 17  1  0  0  0  0
 17 18  1  0  0  0  0
 18 19  1  0  0  0  0
 19 20  1  0  0  0  0
 20 21  1  0  0  0  0
 21 22  1  0  0  0  0
 22 23  1  0  0  0  0
 23 24  1  0  0  0  0
 24 25  1  0  0  0  0
  8 25  1  0  0  0  0
  8 17  1  0  0  0  0
 18 23  1  0  0  0  0
 10 14  1  0  0  0  0
  8 10  1  0  0  0  0
 18 26  1  1  0  0  0
 14 27  1  1  0  0  0
 16 28  1  6  0  0  0
 30 31  1  0  0  0  0
 31 32  1  0  0  0  0
 32 33  1  0  0  0  0
 33 34  1  0  0  0  0
 34 35  1  0  0  0  0
 30 35  1  0  0  0  0
 35 36  1  1  0  0  0
 37 38  1  0  0  0  0
 33 37  1  1  0  0  0
 40 41  1  0  0  0  0
 41 42  1  0  0  0  0
 42 43  1  0  0  0  0
 43 44  1  0  0  0  0
 44 45  1  0  0  0  0
 40 45  1  0  0  0  0
 45 46  1  6  0  0  0
 47 48  1  0  0  0  0
 43 47  1  1  0  0  0
 44 49  1  1  0  0  0
 42 50  1  1  0  0  0
 41 39  1  6  0  0  0
 34 39  1  6  0  0  0
 31 29  1  1  0  0  0
 21 29  1  1  0  0  0
 51 52  2  0  0  0  0
 51 53  1  0  0  0  0
 13 51  1  6  0  0  0
 15  6  1  1  0  0  0
 17 54  1  6  0  0  0
 23 55  1  6  0  0  0
M  END
>  <cdx:groupId>
963

>  <cdx:fragmentId>
809

$$$$
