101743841.cdx
  Mrv1902 05222410272D          

 69 76  0  0  0  0            999 V2000
    8.8514   -4.3472    0.0000 C   0  0  0  0  0  0  0  0  0  0  0  0
    8.1370   -3.9347    0.0000 C   0  0  0  0  0  0  0  0  0  0  0  0
    7.4225   -4.3472    0.0000 C   0  0  0  0  0  0  0  0  0  0  0  0
    6.7080   -3.9347    0.0000 C   0  0  0  0  0  0  0  0  0  0  0  0
    8.8514   -5.1722    0.0000 O   0  0  0  0  0  0  0  0  0  0  0  0
    9.5659   -3.9347    0.0000 O   0  0  0  0  0  0  0  0  0  0  0  0
    8.1370   -3.1097    0.0000 C   0  0  0  0  0  0  0  0  0  0  0  0
   11.4235   -5.8322    0.0000 C   0  0  2  0  0  0  0  0  0  0  0  0
   12.1380   -6.2447    0.0000 O   0  0  0  0  0  0  0  0  0  0  0  0
   12.1380   -5.4197    0.0000 C   0  0  1  0  0  0  0  0  0  0  0  0
   12.9226   -5.6746    0.0000 C   0  0  0  0  0  0  0  0  0  0  0  0
   13.4075   -5.0072    0.0000 C   0  0  0  0  0  0  0  0  0  0  0  0
   12.9226   -4.3397    0.0000 C   0  0  2  0  0  0  0  0  0  0  0  0
   12.1380   -4.5947    0.0000 C   0  0  1  0  0  0  0  0  0  0  0  0
   11.4235   -4.1822    0.0000 C   0  0  1  0  0  0  0  0  0  0  0  0
   10.7091   -4.5947    0.0000 C   0  0  2  0  0  0  0  0  0  0  0  0
   10.7091   -5.4197    0.0000 C   0  0  2  0  0  0  0  0  0  0  0  0
    9.9946   -5.8322    0.0000 C   0  0  1  0  0  0  0  0  0  0  0  0
    9.2801   -5.4197    0.0000 C   0  0  0  0  0  0  0  0  0  0  0  0
    8.5656   -5.8322    0.0000 C   0  0  0  0  0  0  0  0  0  0  0  0
    8.5656   -6.6572    0.0000 C   0  0  1  0  0  0  0  0  0  0  0  0
    9.2801   -7.0697    0.0000 C   0  0  0  0  0  0  0  0  0  0  0  0
    9.9946   -6.6572    0.0000 C   0  0  2  0  0  0  0  0  0  0  0  0
   10.7091   -7.0697    0.0000 C   0  0  0  0  0  0  0  0  0  0  0  0
   11.4235   -6.6572    0.0000 C   0  0  0  0  0  0  0  0  0  0  0  0
    9.9946   -5.0072    0.0000 C   0  0  0  0  0  0  0  0  0  0  0  0
   12.2242   -3.7742    0.0000 C   0  0  0  0  0  0  0  0  0  0  0  0
    7.8512   -7.0697    0.0000 O   0  0  0  0  0  0  0  0  0  0  0  0
    7.1367   -5.8322    0.0000 O   0  0  0  0  0  0  0  0  0  0  0  0
    7.1367   -6.6572    0.0000 C   0  0  2  0  0  0  0  0  0  0  0  0
    6.4222   -7.0697    0.0000 C   0  0  0  0  0  0  0  0  0  0  0  0
    5.7078   -6.6572    0.0000 C   0  0  2  0  0  0  0  0  0  0  0  0
    5.7078   -5.8322    0.0000 C   0  0  1  0  0  0  0  0  0  0  0  0
    6.4222   -5.4197    0.0000 C   0  0  1  0  0  0  0  0  0  0  0  0
    6.4222   -4.5947    0.0000 C   0  0  0  0  0  0  0  0  0  0  0  0
    4.9933   -7.0697    0.0000 O   0  0  0  0  0  0  0  0  0  0  0  0
    4.9933   -7.8947    0.0000 C   0  0  0  0  0  0  0  0  0  0  0  0
    4.9933   -5.4197    0.0000 O   0  0  0  0  0  0  0  0  0  0  0  0
    4.2788   -6.6572    0.0000 O   0  0  0  0  0  0  0  0  0  0  0  0
    4.2788   -5.8322    0.0000 C   0  0  2  0  0  0  0  0  0  0  0  0
    3.5643   -5.4197    0.0000 C   0  0  1  0  0  0  0  0  0  0  0  0
    2.8499   -5.8322    0.0000 C   0  0  1  0  0  0  0  0  0  0  0  0
    2.8499   -6.6572    0.0000 C   0  0  1  0  0  0  0  0  0  0  0  0
    3.5643   -7.0697    0.0000 C   0  0  1  0  0  0  0  0  0  0  0  0
    2.1354   -7.0697    0.0000 O   0  0  0  0  0  0  0  0  0  0  0  0
    2.8499   -8.3072    0.0000 O   0  0  0  0  0  0  0  0  0  0  0  0
    2.1354   -7.8947    0.0000 C   0  0  2  0  0  0  0  0  0  0  0  0
    1.4209   -8.3072    0.0000 C   0  0  1  0  0  0  0  0  0  0  0  0
    1.4209   -9.1322    0.0000 C   0  0  2  0  0  0  0  0  0  0  0  0
    2.1354   -9.5447    0.0000 C   0  0  1  0  0  0  0  0  0  0  0  0
    2.8499   -9.1322    0.0000 C   0  0  1  0  0  0  0  0  0  0  0  0
    3.5643   -9.5447    0.0000 C   0  0  0  0  0  0  0  0  0  0  0  0
    4.2788   -9.1322    0.0000 O   0  0  0  0  0  0  0  0  0  0  0  0
    2.1354  -10.3697    0.0000 O   0  0  0  0  0  0  0  0  0  0  0  0
    0.7065   -9.5447    0.0000 O   0  0  0  0  0  0  0  0  0  0  0  0
    0.7065   -7.8947    0.0000 O   0  0  0  0  0  0  0  0  0  0  0  0
    3.5643   -7.8947    0.0000 C   0  0  0  0  0  0  0  0  0  0  0  0
    2.1354   -5.4197    0.0000 O   0  0  0  0  0  0  0  0  0  0  0  0
    1.4209   -5.8322    0.0000 C   0  0  0  0  0  0  0  0  0  0  0  0
    3.5643   -4.5947    0.0000 O   0  0  0  0  0  0  0  0  0  0  0  0
   11.4235   -3.3572    0.0000 O   0  0  0  0  0  0  0  0  0  0  0  0
   10.7091   -2.9447    0.0000 C   0  0  0  0  0  0  0  0  0  0  0  0
   10.7091   -2.1197    0.0000 O   0  0  0  0  0  0  0  0  0  0  0  0
    9.9946   -3.3572    0.0000 C   0  0  0  0  0  0  0  0  0  0  0  0
   13.1776   -3.5551    0.0000 C   0  0  0  0  0  0  0  0  0  0  0  0
   12.6255   -2.9420    0.0000 O   0  0  0  0  0  0  0  0  0  0  0  0
   13.9845   -3.3836    0.0000 C   0  0  0  0  0  0  0  0  0  0  0  0
   10.7091   -6.2447    0.0000 H   0  0  0  0  0  0  0  0  0  0  0  0
    9.9946   -7.4822    0.0000 H   0  0  0  0  0  0  0  0  0  0  0  0
  1  2  1  0  0  0  0
  2  3  1  0  0  0  0
  3  4  1  0  0  0  0
  1  5  2  0  0  0  0
  1  6  1  0  0  0  0
  2  7  1  0  0  0  0
  8  9  1  1  0  0  0
 10  9  1  1  0  0  0
 10 11  1  0  0  0  0
 11 12  1  0  0  0  0
 12 13  1  0  0  0  0
 13 14  1  0  0  0  0
 14 15  1  0  0  0  0
 15 16  1  0  0  0  0
 16 17  1  0  0  0  0
 17 18  1  0  0  0  0
 18 19  1  0  0  0  0
 19 20  1  0  0  0  0
 20 21  1  0  0  0  0
 21 22  1  0  0  0  0
 22 23  1  0  0  0  0
 23 24  1  0  0  0  0
 24 25  1  0  0  0  0
  8 25  1  0  0  0  0
  8 17  1  0  0  0  0
 18 23  1  0  0  0  0
 10 14  1  0  0  0  0
  8 10  1  0  0  0  0
 18 26  1  1  0  0  0
 14 27  1  1  0  0  0
 29 30  1  0  0  0  0
 30 31  1  0  0  0  0
 31 32  1  0  0  0  0
 32 33  1  0  0  0  0
 33 34  1  0  0  0  0
 29 34  1  0  0  0  0
 34 35  1  1  0  0  0
 36 37  1  0  0  0  0
 32 36  1  1  0  0  0
 39 40  1  0  0  0  0
 40 41  1  0  0  0  0
 41 42  1  0  0  0  0
 42 43  1  0  0  0  0
 43 44  1  0  0  0  0
 39 44  1  0  0  0  0
 46 47  1  0  0  0  0
 47 48  1  0  0  0  0
 48 49  1  0  0  0  0
 49 50  1  0  0  0  0
 50 51  1  0  0  0  0
 46 51  1  0  0  0  0
 52 53  1  0  0  0  0
 51 52  1  6  0  0  0
 50 54  1  1  0  0  0
 49 55  1  6  0  0  0
 48 56  1  1  0  0  0
 47 45  1  6  0  0  0
 43 45  1  1  0  0  0
 44 57  1  6  0  0  0
 58 59  1  0  0  0  0
 42 58  1  1  0  0  0
 41 60  1  1  0  0  0
 40 38  1  6  0  0  0
 33 38  1  6  0  0  0
 30 28  1  1  0  0  0
 21 28  1  1  0  0  0
 62 63  2  0  0  0  0
 62 64  1  0  0  0  0
 61 62  1  0  0  0  0
 15 61  1  1  0  0  0
 65 66  2  0  0  0  0
 65 67  1  0  0  0  0
 13 65  1  6  0  0  0
 16  6  1  6  0  0  0
 17 68  1  6  0  0  0
 23 69  1  6  0  0  0
M  END
>  <cdx:groupId>
1187

>  <cdx:fragmentId>
1066

$$$$
