101743838.cdx
  Mrv1902 05222410222D          

 61 67  0  0  0  0            999 V2000
    8.3447   -6.1957    0.0000 C   0  0  0  0  0  0  0  0  0  0  0  0
    7.6302   -5.7832    0.0000 C   0  0  0  0  0  0  0  0  0  0  0  0
    6.9158   -6.1957    0.0000 C   0  0  0  0  0  0  0  0  0  0  0  0
    6.2013   -5.7832    0.0000 C   0  0  0  0  0  0  0  0  0  0  0  0
    8.3447   -7.0207    0.0000 O   0  0  0  0  0  0  0  0  0  0  0  0
    9.0592   -5.7832    0.0000 O   0  0  0  0  0  0  0  0  0  0  0  0
    7.6302   -4.9582    0.0000 C   0  0  0  0  0  0  0  0  0  0  0  0
   10.9168   -7.6807    0.0000 C   0  0  2  0  0  0  0  0  0  0  0  0
   11.6313   -8.0932    0.0000 O   0  0  0  0  0  0  0  0  0  0  0  0
   11.6313   -7.2682    0.0000 C   0  0  1  0  0  0  0  0  0  0  0  0
   12.4159   -7.5232    0.0000 C   0  0  0  0  0  0  0  0  0  0  0  0
   12.9008   -6.8557    0.0000 C   0  0  0  0  0  0  0  0  0  0  0  0
   12.4159   -6.1883    0.0000 C   0  0  2  0  0  0  0  0  0  0  0  0
   11.6313   -6.4432    0.0000 C   0  0  1  0  0  0  0  0  0  0  0  0
   10.9168   -6.0307    0.0000 C   0  0  1  0  0  0  0  0  0  0  0  0
   10.2023   -6.4432    0.0000 C   0  0  2  0  0  0  0  0  0  0  0  0
   10.2023   -7.2682    0.0000 C   0  0  2  0  0  0  0  0  0  0  0  0
    9.4879   -7.6807    0.0000 C   0  0  1  0  0  0  0  0  0  0  0  0
    8.7734   -7.2682    0.0000 C   0  0  0  0  0  0  0  0  0  0  0  0
    8.0589   -7.6807    0.0000 C   0  0  0  0  0  0  0  0  0  0  0  0
    8.0589   -8.5057    0.0000 C   0  0  1  0  0  0  0  0  0  0  0  0
    8.7734   -8.9182    0.0000 C   0  0  0  0  0  0  0  0  0  0  0  0
    9.4879   -8.5057    0.0000 C   0  0  2  0  0  0  0  0  0  0  0  0
   10.2023   -8.9182    0.0000 C   0  0  0  0  0  0  0  0  0  0  0  0
   10.9168   -8.5057    0.0000 C   0  0  0  0  0  0  0  0  0  0  0  0
   10.9168   -5.2057    0.0000 O   0  0  0  0  0  0  0  0  0  0  0  0
   10.2023   -4.7932    0.0000 C   0  0  0  0  0  0  0  0  0  0  0  0
   10.2023   -3.9682    0.0000 C   0  0  0  0  0  0  0  0  0  0  0  0
    9.4879   -3.5557    0.0000 C   0  0  0  0  0  0  0  0  0  0  0  0
    9.4879   -2.7307    0.0000 C   0  0  0  0  0  0  0  0  0  0  0  0
    9.4879   -5.2057    0.0000 O   0  0  0  0  0  0  0  0  0  0  0  0
   10.9168   -3.5557    0.0000 C   0  0  0  0  0  0  0  0  0  0  0  0
    9.4879   -6.8557    0.0000 C   0  0  0  0  0  0  0  0  0  0  0  0
   11.7175   -5.6228    0.0000 C   0  0  0  0  0  0  0  0  0  0  0  0
    7.3444   -8.9182    0.0000 O   0  0  0  0  0  0  0  0  0  0  0  0
    6.6300   -7.6807    0.0000 O   0  0  0  0  0  0  0  0  0  0  0  0
    6.6300   -8.5057    0.0000 C   0  0  2  0  0  0  0  0  0  0  0  0
    5.9155   -8.9182    0.0000 C   0  0  0  0  0  0  0  0  0  0  0  0
    5.2010   -8.5057    0.0000 C   0  0  2  0  0  0  0  0  0  0  0  0
    5.2010   -7.6807    0.0000 C   0  0  1  0  0  0  0  0  0  0  0  0
    5.9155   -7.2682    0.0000 C   0  0  1  0  0  0  0  0  0  0  0  0
    5.9155   -6.4432    0.0000 C   0  0  0  0  0  0  0  0  0  0  0  0
    4.4866   -8.9182    0.0000 O   0  0  0  0  0  0  0  0  0  0  0  0
    4.4866   -9.7432    0.0000 C   0  0  0  0  0  0  0  0  0  0  0  0
    4.4866   -7.2682    0.0000 O   0  0  0  0  0  0  0  0  0  0  0  0
    3.7721   -8.5057    0.0000 O   0  0  0  0  0  0  0  0  0  0  0  0
    3.7721   -7.6807    0.0000 C   0  0  2  0  0  0  0  0  0  0  0  0
    3.0576   -7.2682    0.0000 C   0  0  1  0  0  0  0  0  0  0  0  0
    2.3432   -7.6807    0.0000 C   0  0  1  0  0  0  0  0  0  0  0  0
    2.3432   -8.5057    0.0000 C   0  0  1  0  0  0  0  0  0  0  0  0
    3.0576   -8.9182    0.0000 C   0  0  1  0  0  0  0  0  0  0  0  0
    3.0576   -9.7432    0.0000 C   0  0  0  0  0  0  0  0  0  0  0  0
    1.6287   -7.2682    0.0000 O   0  0  0  0  0  0  0  0  0  0  0  0
    0.9142   -7.6807    0.0000 C   0  0  0  0  0  0  0  0  0  0  0  0
    1.6287   -8.9182    0.0000 O   0  0  0  0  0  0  0  0  0  0  0  0
    3.0576   -6.4432    0.0000 O   0  0  0  0  0  0  0  0  0  0  0  0
   12.6708   -5.4037    0.0000 C   0  0  0  0  0  0  0  0  0  0  0  0
   12.1188   -4.7906    0.0000 O   0  0  0  0  0  0  0  0  0  0  0  0
   13.4778   -5.2322    0.0000 C   0  0  0  0  0  0  0  0  0  0  0  0
   10.2023   -8.0932    0.0000 H   0  0  0  0  0  0  0  0  0  0  0  0
    9.4879   -9.3307    0.0000 H   0  0  0  0  0  0  0  0  0  0  0  0
  1  2  1  0  0  0  0
  2  3  2  0  0  0  0
  3  4  1  0  0  0  0
  1  5  2  0  0  0  0
  1  6  1  0  0  0  0
  2  7  1  0  0  0  0
  8  9  1  1  0  0  0
 10  9  1  1  0  0  0
 10 11  1  0  0  0  0
 11 12  1  0  0  0  0
 12 13  1  0  0  0  0
 13 14  1  0  0  0  0
 14 15  1  0  0  0  0
 15 16  1  0  0  0  0
 16 17  1  0  0  0  0
 17 18  1  0  0  0  0
 18 19  1  0  0  0  0
 19 20  1  0  0  0  0
 20 21  1  0  0  0  0
 21 22  1  0  0  0  0
 22 23  1  0  0  0  0
 23 24  1  0  0  0  0
 24 25  1  0  0  0  0
  8 25  1  0  0  0  0
  8 17  1  0  0  0  0
 18 23  1  0  0  0  0
 10 14  1  0  0  0  0
  8 10  1  0  0  0  0
 27 28  1  0  0  0  0
 28 29  2  0  0  0  0
 29 30  1  0  0  0  0
 27 31  2  0  0  0  0
 28 32  1  0  0  0  0
 26 27  1  0  0  0  0
 15 26  1  1  0  0  0
 18 33  1  1  0  0  0
 14 34  1  1  0  0  0
 36 37  1  0  0  0  0
 37 38  1  0  0  0  0
 38 39  1  0  0  0  0
 39 40  1  0  0  0  0
 40 41  1  0  0  0  0
 36 41  1  0  0  0  0
 41 42  1  1  0  0  0
 43 44  1  0  0  0  0
 39 43  1  1  0  0  0
 46 47  1  0  0  0  0
 47 48  1  0  0  0  0
 48 49  1  0  0  0  0
 49 50  1  0  0  0  0
 50 51  1  0  0  0  0
 46 51  1  0  0  0  0
 51 52  1  6  0  0  0
 53 54  1  0  0  0  0
 49 53  1  1  0  0  0
 50 55  1  1  0  0  0
 48 56  1  1  0  0  0
 47 45  1  6  0  0  0
 40 45  1  6  0  0  0
 37 35  1  1  0  0  0
 21 35  1  1  0  0  0
 57 58  2  0  0  0  0
 57 59  1  0  0  0  0
 13 57  1  6  0  0  0
 16  6  1  6  0  0  0
 17 60  1  6  0  0  0
 23 61  1  6  0  0  0
M  END
>  <cdx:groupId>
775

>  <cdx:fragmentId>
603

$$$$
