92912.cdx
  Mrv1902 05222410262D          

 11 11  0  0  0  0            999 V2000
    6.2543   -6.8200    0.0000 C   0  0  0  0  0  0  0  0  0  0  0  0
    6.2543   -7.6450    0.0000 C   0  0  0  0  0  0  0  0  0  0  0  0
    6.9688   -8.0575    0.0000 C   0  0  0  0  0  0  0  0  0  0  0  0
    7.6832   -7.6450    0.0000 C   0  0  0  0  0  0  0  0  0  0  0  0
    7.6832   -6.8200    0.0000 C   0  0  0  0  0  0  0  0  0  0  0  0
    6.9688   -6.4075    0.0000 C   0  0  0  0  0  0  0  0  0  0  0  0
    6.9688   -8.8825    0.0000 C   0  0  0  0  0  0  0  0  0  0  0  0
    5.5398   -8.0575    0.0000 O   0  0  0  0  0  0  0  0  0  0  0  0
    6.9688   -5.5825    0.0000 C   0  0  0  0  0  0  0  0  0  0  0  0
    6.2543   -5.1700    0.0000 C   0  0  0  0  0  0  0  0  0  0  0  0
    7.6832   -5.1700    0.0000 C   0  0  0  0  0  0  0  0  0  0  0  0
  1  2  1  0  0  0  0
  2  3  1  0  0  0  0
  3  4  2  0  0  0  0
  4  5  1  0  0  0  0
  5  6  1  0  0  0  0
  6  1  1  0  0  0  0
  3  7  1  0  0  0  0
  2  8  2  0  0  0  0
  6  9  1  0  0  0  0
  9 10  2  0  0  0  0
  9 11  1  0  0  0  0
M  END
>  <cdx:fragmentId>
5

$$$$
