74477.cdx
  Mrv1902 05222410212D          

 17 19  0  0  0  0            999 V2000
    5.2053   -8.7796    0.0000 C   0  0  0  0  0  0  0  0  0  0  0  0
    5.2053   -9.6046    0.0000 C   0  0  0  0  0  0  0  0  0  0  0  0
    5.9197  -10.0171    0.0000 C   0  0  0  0  0  0  0  0  0  0  0  0
    6.6342   -9.6046    0.0000 C   0  0  0  0  0  0  0  0  0  0  0  0
    7.3487  -10.0171    0.0000 C   0  0  0  0  0  0  0  0  0  0  0  0
    8.0632   -9.6046    0.0000 C   0  0  0  0  0  0  0  0  0  0  0  0
    8.0632   -8.7796    0.0000 C   0  0  0  0  0  0  0  0  0  0  0  0
    7.3487   -8.3671    0.0000 C   0  0  0  0  0  0  0  0  0  0  0  0
    6.6342   -8.7796    0.0000 C   0  0  0  0  0  0  0  0  0  0  0  0
    5.9197   -8.3671    0.0000 O   0  0  0  0  0  0  0  0  0  0  0  0
    8.6763   -8.2275    0.0000 O   0  0  0  0  0  0  0  0  0  0  0  0
    7.5202   -7.5601    0.0000 C   0  0  0  0  0  0  0  0  0  0  0  0
    8.3407   -7.4739    0.0000 C   0  0  0  0  0  0  0  0  0  0  0  0
    4.4908   -8.3671    0.0000 O   0  0  0  0  0  0  0  0  0  0  0  0
    8.3407   -6.0449    0.0000 C   0  0  0  0  0  0  0  0  0  0  0  0
    8.7532   -6.7594    0.0000 C   0  0  0  0  0  0  0  0  0  0  0  0
    9.5782   -6.7594    0.0000 C   0  0  0  0  0  0  0  0  0  0  0  0
  1  2  1  0  0  0  0
  2  3  2  0  0  0  0
  3  4  1  0  0  0  0
  4  5  1  0  0  0  0
  5  6  2  0  0  0  0
  6  7  1  0  0  0  0
  7  8  2  0  0  0  0
  8  9  1  0  0  0  0
  4  9  2  0  0  0  0
  9 10  1  0  0  0  0
  1 10  1  0  0  0  0
 12 13  2  0  0  0  0
 11 13  1  0  0  0  0
 11  7  1  0  0  0  0
 12  8  1  0  0  0  0
  1 14  2  0  0  0  0
 15 16  2  0  0  0  0
 16 17  1  0  0  0  0
 13 16  1  0  0  0  0
M  END
>  <cdx:fragmentId>
11

$$$$
