7450.cdx
  Mrv1902 05222410212D          

 12 12  0  0  0  0            999 V2000
    2.8083   -2.5036    0.0000 C   0  0  0  0  0  0  0  0  0  0  0  0
    3.5227   -2.9161    0.0000 C   0  0  0  0  0  0  0  0  0  0  0  0
    4.2372   -2.5036    0.0000 C   0  0  0  0  0  0  0  0  0  0  0  0
    4.2372   -1.6786    0.0000 C   0  0  0  0  0  0  0  0  0  0  0  0
    3.5227   -1.2661    0.0000 C   0  0  0  0  0  0  0  0  0  0  0  0
    2.8083   -1.6786    0.0000 C   0  0  0  0  0  0  0  0  0  0  0  0
    4.9517   -3.7411    0.0000 C   0  0  0  0  0  0  0  0  0  0  0  0
    4.9517   -2.9161    0.0000 C   0  0  0  0  0  0  0  0  0  0  0  0
    5.6662   -2.5036    0.0000 C   0  0  0  0  0  0  0  0  0  0  0  0
    2.0938   -3.7411    0.0000 C   0  0  0  0  0  0  0  0  0  0  0  0
    2.0938   -2.9161    0.0000 C   0  0  0  0  0  0  0  0  0  0  0  0
    1.3793   -2.5036    0.0000 C   0  0  0  0  0  0  0  0  0  0  0  0
  1  2  1  0  0  0  0
  2  3  2  0  0  0  0
  3  4  1  0  0  0  0
  4  5  2  0  0  0  0
  5  6  1  0  0  0  0
  1  6  2  0  0  0  0
  7  8  1  0  0  0  0
  8  9  1  0  0  0  0
  3  8  1  0  0  0  0
 10 11  1  0  0  0  0
 11 12  1  0  0  0  0
  1 11  1  0  0  0  0
M  END
>  <cdx:groupId>
38

>  <cdx:fragmentId>
5

$$$$
