7451.cdx
  Mrv1902 05222410212D          

 32 34  0  0  0  0            999 V2000
    4.5136  -10.1812    0.0000 C   0  0  0  0  0  0  0  0  0  0  0  0
    4.7324  -10.9767    0.0000 C   0  0  0  0  0  0  0  0  0  0  0  0
    5.5307  -11.1850    0.0000 C   0  0  0  0  0  0  0  0  0  0  0  0
    6.1102  -10.5978    0.0000 C   0  0  0  0  0  0  0  0  0  0  0  0
    5.8914   -9.8023    0.0000 C   0  0  0  0  0  0  0  0  0  0  0  0
    5.0932   -9.5940    0.0000 C   0  0  0  0  0  0  0  0  0  0  0  0
    4.1529  -11.5639    0.0000 O   0  0  0  0  0  0  0  0  0  0  0  0
    3.7154   -9.9729    0.0000 O   0  0  0  0  0  0  0  0  0  0  0  0
    6.9085  -10.8061    0.0000 O   0  0  0  0  0  0  0  0  0  0  0  0
    6.4709   -9.2151    0.0000 C   0  0  2  0  0  0  0  0  0  0  0  0
    7.2692   -9.4234    0.0000 O   0  0  0  0  0  0  0  0  0  0  0  0
    7.8487   -8.8362    0.0000 C   0  0  2  0  0  0  0  0  0  0  0  0
    7.6300   -8.0408    0.0000 C   0  0  2  0  0  0  0  0  0  0  0  0
    6.8317   -7.8325    0.0000 O   0  0  0  0  0  0  0  0  0  0  0  0
    6.2522   -8.4197    0.0000 C   0  0  1  0  0  0  0  0  0  0  0  0
    5.4539   -8.2114    0.0000 C   0  0  0  0  0  0  0  0  0  0  0  0
    8.6470   -9.0445    0.0000 C   0  0  0  0  0  0  0  0  0  0  0  0
    8.2095   -7.4536    0.0000 C   0  0  0  0  0  0  0  0  0  0  0  0
    9.0078   -7.6618    0.0000 C   0  0  0  0  0  0  0  0  0  0  0  0
    9.5873   -7.0747    0.0000 C   0  0  0  0  0  0  0  0  0  0  0  0
    9.3685   -6.2792    0.0000 C   0  0  0  0  0  0  0  0  0  0  0  0
    8.5702   -6.0709    0.0000 C   0  0  0  0  0  0  0  0  0  0  0  0
    7.9907   -6.6581    0.0000 C   0  0  0  0  0  0  0  0  0  0  0  0
    7.1925   -6.4498    0.0000 O   0  0  0  0  0  0  0  0  0  0  0  0
   10.3856   -7.2829    0.0000 O   0  0  0  0  0  0  0  0  0  0  0  0
    9.9480   -5.6920    0.0000 O   0  0  0  0  0  0  0  0  0  0  0  0
    9.7293   -4.8965    0.0000 C   0  0  0  0  0  0  0  0  0  0  0  0
   10.9651   -6.6958    0.0000 C   0  0  0  0  0  0  0  0  0  0  0  0
    6.6129   -7.0370    0.0000 C   0  0  0  0  0  0  0  0  0  0  0  0
    7.4880  -10.2189    0.0000 C   0  0  0  0  0  0  0  0  0  0  0  0
    4.3716  -12.3593    0.0000 C   0  0  0  0  0  0  0  0  0  0  0  0
    3.1359  -10.5601    0.0000 C   0  0  0  0  0  0  0  0  0  0  0  0
  1  2  2  0  0  0  0
  2  3  1  0  0  0  0
  3  4  2  0  0  0  0
  4  5  1  0  0  0  0
  5  6  2  0  0  0  0
  6  1  1  0  0  0  0
  2  7  1  0  0  0  0
  1  8  1  0  0  0  0
  4  9  1  0  0  0  0
 10  5  1  1  0  0  0
 10 11  1  0  0  0  0
 11 12  1  0  0  0  0
 12 13  1  0  0  0  0
 13 14  1  0  0  0  0
 14 15  1  0  0  0  0
 15 10  1  0  0  0  0
 15 16  1  6  0  0  0
 12 17  1  6  0  0  0
 13 18  1  6  0  0  0
 18 19  2  0  0  0  0
 19 20  1  0  0  0  0
 20 21  2  0  0  0  0
 21 22  1  0  0  0  0
 22 23  2  0  0  0  0
 23 18  1  0  0  0  0
 23 24  1  0  0  0  0
 20 25  1  0  0  0  0
 21 26  1  0  0  0  0
 26 27  1  0  0  0  0
 25 28  1  0  0  0  0
 24 29  1  0  0  0  0
  9 30  1  0  0  0  0
  7 31  1  0  0  0  0
  8 32  1  0  0  0  0
M  END
>  <cdx:fragmentId>
5

$$$$
