4745115.cdx
  Mrv1902 05222410232D          

 10  9  0  0  0  0            999 V2000
    8.4967   -6.4344    0.0000 C   0  0  0  0  0  0  0  0  0  0  0  0
    7.7822   -6.8469    0.0000 C   0  0  0  0  0  0  0  0  0  0  0  0
    7.0678   -6.4344    0.0000 C   0  0  0  0  0  0  0  0  0  0  0  0
    6.3533   -6.8469    0.0000 C   0  0  0  0  0  0  0  0  0  0  0  0
    8.4967   -5.6094    0.0000 O   0  0  0  0  0  0  0  0  0  0  0  0
    9.2112   -6.8469    0.0000 O   0  0  0  0  0  0  0  0  0  0  0  0
    6.3533   -7.6719    0.0000 O   0  0  0  0  0  0  0  0  0  0  0  0
    5.6388   -6.4344    0.0000 O   0  0  0  0  0  0  0  0  0  0  0  0
    9.9256   -6.4344    0.0000 C   0  0  0  0  0  0  0  0  0  0  0  0
    4.9244   -6.8469    0.0000 C   0  0  0  0  0  0  0  0  0  0  0  0
  1  2  1  0  0  0  0
  2  3  1  0  0  0  0
  3  4  1  0  0  0  0
  1  5  2  0  0  0  0
  1  6  1  0  0  0  0
  4  7  2  0  0  0  0
  4  8  1  0  0  0  0
  6  9  1  0  0  0  0
  8 10  1  0  0  0  0
M  END
>  <cdx:groupId>
28

>  <cdx:fragmentId>
5

$$$$
