7452.cdx
  Mrv1902 05222410212D          

 28 30  0  0  0  0            999 V2000
    5.2077   -7.4800    0.0000 C   0  0  0  0  0  0  0  0  0  0  0  0
    5.2077   -8.3050    0.0000 C   0  0  0  0  0  0  0  0  0  0  0  0
    5.9221   -8.7175    0.0000 C   0  0  0  0  0  0  0  0  0  0  0  0
    6.6366   -8.3050    0.0000 C   0  0  0  0  0  0  0  0  0  0  0  0
    6.6366   -7.4800    0.0000 C   0  0  0  0  0  0  0  0  0  0  0  0
    5.9221   -7.0675    0.0000 C   0  0  0  0  0  0  0  0  0  0  0  0
    7.3511   -8.7175    0.0000 C   0  0  2  0  0  0  0  0  0  0  0  0
    8.0655   -8.3050    0.0000 C   0  0  1  0  0  0  0  0  0  0  0  0
    8.0655   -7.4800    0.0000 C   0  0  0  0  0  0  0  0  0  0  0  0
    7.3511   -7.0675    0.0000 C   0  0  0  0  0  0  0  0  0  0  0  0
    7.3511   -9.5425    0.0000 C   0  0  0  0  0  0  0  0  0  0  0  0
    8.0655   -9.9550    0.0000 C   0  0  0  0  0  0  0  0  0  0  0  0
    8.7800   -9.5425    0.0000 O   0  0  0  0  0  0  0  0  0  0  0  0
    8.7800   -8.7175    0.0000 C   0  0  0  0  0  0  0  0  0  0  0  0
    6.6366   -9.9550    0.0000 C   0  0  0  0  0  0  0  0  0  0  0  0
    6.6366  -10.7800    0.0000 C   0  0  0  0  0  0  0  0  0  0  0  0
    7.3511  -11.1925    0.0000 C   0  0  0  0  0  0  0  0  0  0  0  0
    8.0655  -10.7800    0.0000 C   0  0  0  0  0  0  0  0  0  0  0  0
    5.9221   -6.2425    0.0000 O   0  0  0  0  0  0  0  0  0  0  0  0
    5.9221   -9.5425    0.0000 O   0  0  0  0  0  0  0  0  0  0  0  0
    4.4932   -8.7175    0.0000 O   0  0  0  0  0  0  0  0  0  0  0  0
    8.7800   -7.0675    0.0000 C   0  0  0  0  0  0  0  0  0  0  0  0
    5.9221  -11.1925    0.0000 O   0  0  0  0  0  0  0  0  0  0  0  0
    7.3511  -12.0175    0.0000 O   0  0  0  0  0  0  0  0  0  0  0  0
    3.7787   -8.3050    0.0000 C   0  0  0  0  0  0  0  0  0  0  0  0
    5.2077  -10.7800    0.0000 C   0  0  0  0  0  0  0  0  0  0  0  0
    6.6366  -12.4300    0.0000 C   0  0  0  0  0  0  0  0  0  0  0  0
    9.4945   -9.9550    0.0000 C   0  0  0  0  0  0  0  0  0  0  0  0
  1  2  2  0  0  0  0
  2  3  1  0  0  0  0
  3  4  1  0  0  0  0
  4  5  2  0  0  0  0
  5  6  1  0  0  0  0
  6  1  1  0  0  0  0
  4  7  1  0  0  0  0
  7  8  1  0  0  0  0
  8  9  1  0  0  0  0
  9 10  2  0  0  0  0
 10  5  1  0  0  0  0
  7 11  1  6  0  0  0
 11 12  1  0  0  0  0
 12 13  1  0  0  0  0
  8 14  1  1  0  0  0
 11 15  2  0  0  0  0
 15 16  1  0  0  0  0
 16 17  2  0  0  0  0
 17 18  1  0  0  0  0
 18 12  2  0  0  0  0
  6 19  2  0  0  0  0
  3 20  2  0  0  0  0
  2 21  1  0  0  0  0
  9 22  1  0  0  0  0
 16 23  1  0  0  0  0
 17 24  1  0  0  0  0
 21 25  1  0  0  0  0
 23 26  1  0  0  0  0
 24 27  1  0  0  0  0
 13 28  1  0  0  0  0
M  END
>  <cdx:fragmentId>
5

$$$$
