745274.cdx
  Mrv1902 05222410242D          

 49 52  0  0  0  0            999 V2000
    7.5932   -9.7157    0.0000 C   0  0  0  0  0  0  0  0  0  0  0  0
    8.2306  -10.2395    0.0000 C   0  0  0  0  0  0  0  0  0  0  0  0
    9.0029   -9.9493    0.0000 C   0  0  0  0  0  0  0  0  0  0  0  0
    7.7280   -8.9018    0.0000 O   0  0  0  0  0  0  0  0  0  0  0  0
    6.8209  -10.0059    0.0000 O   0  0  0  0  0  0  0  0  0  0  0  0
    9.6403  -10.4730    0.0000 C   0  0  0  0  0  0  0  0  0  0  0  0
   10.4126  -10.1828    0.0000 C   0  0  0  0  0  0  0  0  0  0  0  0
   11.0501  -10.7065    0.0000 C   0  0  0  0  0  0  0  0  0  0  0  0
   10.9152  -11.5204    0.0000 C   0  0  0  0  0  0  0  0  0  0  0  0
   10.1430  -11.8106    0.0000 C   0  0  0  0  0  0  0  0  0  0  0  0
    9.5055  -11.2869    0.0000 C   0  0  0  0  0  0  0  0  0  0  0  0
   11.8224  -10.4164    0.0000 O   0  0  0  0  0  0  0  0  0  0  0  0
   12.4598  -10.9401    0.0000 C   0  0  0  0  0  0  0  0  0  0  0  0
   11.5527  -12.0442    0.0000 O   0  0  0  0  0  0  0  0  0  0  0  0
    6.1834   -9.4822    0.0000 C   0  0  0  0  0  0  0  0  0  0  0  0
    4.7225   -9.3182    0.0000 O   0  0  0  0  0  0  0  0  0  0  0  0
    5.4112   -9.7724    0.0000 C   0  0  1  0  0  0  0  0  0  0  0  0
    5.1920  -10.5677    0.0000 C   0  0  2  0  0  0  0  0  0  0  0  0
    4.3678  -10.6051    0.0000 C   0  0  1  0  0  0  0  0  0  0  0  0
    4.0776   -9.8328    0.0000 C   0  0  1  0  0  0  0  0  0  0  0  0
    3.2793  -10.0407    0.0000 C   0  0  0  0  0  0  0  0  0  0  0  0
    3.0601  -10.8360    0.0000 O   0  0  0  0  0  0  0  0  0  0  0  0
    3.9136  -11.2938    0.0000 O   0  0  0  0  0  0  0  0  0  0  0  0
    4.2829  -12.0315    0.0000 C   0  0  0  0  0  0  0  0  0  0  0  0
    5.1065  -12.0805    0.0000 C   0  0  0  0  0  0  0  0  0  0  0  0
    5.4758  -12.8182    0.0000 C   0  0  0  0  0  0  0  0  0  0  0  0
    3.8287  -12.7202    0.0000 O   0  0  0  0  0  0  0  0  0  0  0  0
    6.2993  -12.8672    0.0000 C   0  0  0  0  0  0  0  0  0  0  0  0
    6.7536  -12.1785    0.0000 C   0  0  0  0  0  0  0  0  0  0  0  0
    7.5771  -12.2276    0.0000 C   0  0  0  0  0  0  0  0  0  0  0  0
    7.9464  -12.9653    0.0000 C   0  0  0  0  0  0  0  0  0  0  0  0
    7.4922  -13.6540    0.0000 C   0  0  0  0  0  0  0  0  0  0  0  0
    6.6686  -13.6050    0.0000 C   0  0  0  0  0  0  0  0  0  0  0  0
    8.0313  -11.5389    0.0000 O   0  0  0  0  0  0  0  0  0  0  0  0
    8.8549  -11.5879    0.0000 C   0  0  0  0  0  0  0  0  0  0  0  0
    8.7700  -13.0143    0.0000 O   0  0  0  0  0  0  0  0  0  0  0  0
    5.7066  -11.2125    0.0000 O   0  0  0  0  0  0  0  0  0  0  0  0
    2.2385   -8.1799    0.0000 O   0  0  0  0  0  0  0  0  0  0  0  0
    2.5312   -6.5561    0.0000 O   0  0  0  0  0  0  0  0  0  0  0  0
    4.0838   -5.9976    0.0000 O   0  0  0  0  0  0  0  0  0  0  0  0
    5.4786   -6.2491    0.0000 O   0  0  0  0  0  0  0  0  0  0  0  0
    5.3438   -7.0630    0.0000 C   0  0  0  0  0  0  0  0  0  0  0  0
    4.5674   -7.3422    0.0000 C   0  0  2  0  0  0  0  0  0  0  0  0
    3.9375   -6.8095    0.0000 C   0  0  2  0  0  0  0  0  0  0  0  0
    3.1612   -7.0888    0.0000 C   0  0  1  0  0  0  0  0  0  0  0  0
    3.0148   -7.9007    0.0000 C   0  0  2  0  0  0  0  0  0  0  0  0
    3.6448   -8.4334    0.0000 C   0  0  2  0  0  0  0  0  0  0  0  0
    4.4211   -8.1542    0.0000 O   0  0  0  0  0  0  0  0  0  0  0  0
    3.4984   -9.2453    0.0000 O   0  0  0  0  0  0  0  0  0  0  0  0
 47 49  1  6  0  0  0
 46 38  1  6  0  0  0
 45 39  1  1  0  0  0
 44 40  1  6  0  0  0
 43 42  1  1  0  0  0
 42 41  1  0  0  0  0
 48 43  1  0  0  0  0
 44 43  1  0  0  0  0
 45 44  1  0  0  0  0
 46 45  1  0  0  0  0
 47 46  1  0  0  0  0
 48 47  1  0  0  0  0
  1  2  1  0  0  0  0
  2  3  2  0  0  0  0
  1  4  2  0  0  0  0
  1  5  1  0  0  0  0
  6  7  1  0  0  0  0
  7  8  2  0  0  0  0
  8  9  1  0  0  0  0
  9 10  2  0  0  0  0
 10 11  1  0  0  0  0
  6 11  2  0  0  0  0
 12 13  1  0  0  0  0
  8 12  1  0  0  0  0
  9 14  1  0  0  0  0
  3  6  1  0  0  0  0
 16 17  1  0  0  0  0
 17 18  1  0  0  0  0
 18 19  1  0  0  0  0
 19 20  1  0  0  0  0
 16 20  1  0  0  0  0
 20 49  1  6  0  0  0
 21 22  1  0  0  0  0
 20 21  1  1  0  0  0
 24 25  1  0  0  0  0
 25 26  2  0  0  0  0
 24 27  2  0  0  0  0
 28 29  1  0  0  0  0
 29 30  2  0  0  0  0
 30 31  1  0  0  0  0
 31 32  2  0  0  0  0
 32 33  1  0  0  0  0
 28 33  2  0  0  0  0
 34 35  1  0  0  0  0
 30 34  1  0  0  0  0
 31 36  1  0  0  0  0
 26 28  1  0  0  0  0
 23 24  1  0  0  0  0
 19 23  1  6  0  0  0
 18 37  1  1  0  0  0
 17 15  1  6  0  0  0
  5 15  1  0  0  0  0
M  END
>  <cdx:fragmentId>
123892

$$$$
