7453.cdx
  Mrv1902 05222410212D          

 11 11  0  0  0  0            999 V2000
    6.6641   -9.9237    0.0000 C   0  0  0  0  0  0  0  0  0  0  0  0
    5.9500   -9.5104    0.0000 C   0  0  0  0  0  0  0  0  0  0  0  0
    5.9510   -8.6854    0.0000 C   0  0  0  0  0  0  0  0  0  0  0  0
    6.6659   -8.2737    0.0000 C   0  0  0  0  0  0  0  0  0  0  0  0
    7.3799   -8.6870    0.0000 C   0  0  0  0  0  0  0  0  0  0  0  0
    7.3790   -9.5120    0.0000 C   0  0  0  0  0  0  0  0  0  0  0  0
    6.6632  -10.7487    0.0000 O   0  0  0  0  0  0  0  0  0  0  0  0
    7.3817   -7.0370    0.0000 C   0  0  0  0  0  0  0  0  0  0  0  0
    6.6668   -7.4487    0.0000 C   0  0  0  0  0  0  0  0  0  0  0  0
    5.9528   -7.0354    0.0000 C   0  0  0  0  0  0  0  0  0  0  0  0
    5.9537   -6.2104    0.0000 C   0  0  0  0  0  0  0  0  0  0  0  0
  1  2  1  0  0  0  0
  2  3  2  0  0  0  0
  3  4  1  0  0  0  0
  4  5  2  0  0  0  0
  5  6  1  0  0  0  0
  1  6  2  0  0  0  0
  1  7  1  0  0  0  0
  8  9  1  0  0  0  0
  9 10  1  0  0  0  0
 10 11  1  0  0  0  0
  4  9  1  0  0  0  0
M  END
>  <cdx:fragmentId>
5

$$$$
