745470.cdx
  Mrv1902 05222410232D          

 38 41  0  0  0  0            999 V2000
   10.0536   -8.2863    0.0000 O   0  0  0  0  0  0  0  0  0  0  0  0
    7.1850   -9.0733    0.0000 O   0  0  0  0  0  0  0  0  0  0  0  0
   12.9440   -5.8494    0.0000 C   0  0  0  0  0  0  0  0  0  0  0  0
   12.2350   -5.4274    0.0000 O   0  0  0  0  0  0  0  0  0  0  0  0
   10.0863   -5.8115    0.0000 C   0  0  0  0  0  0  0  0  0  0  0  0
   10.8062   -5.4085    0.0000 C   0  0  0  0  0  0  0  0  0  0  0  0
   11.5152   -5.8304    0.0000 C   0  0  0  0  0  0  0  0  0  0  0  0
   11.5042   -6.6553    0.0000 C   0  0  0  0  0  0  0  0  0  0  0  0
   10.7844   -7.0583    0.0000 C   0  0  0  0  0  0  0  0  0  0  0  0
   10.0754   -6.6364    0.0000 C   0  0  0  0  0  0  0  0  0  0  0  0
    5.8218   -4.1049    0.0000 C   0  0  0  0  0  0  0  0  0  0  0  0
    7.2506   -4.1238    0.0000 C   0  0  0  0  0  0  0  0  0  0  0  0
    6.5307   -4.5268    0.0000 C   0  0  0  0  0  0  0  0  0  0  0  0
    6.5198   -5.3517    0.0000 C   0  0  0  0  0  0  0  0  0  0  0  0
    7.2287   -5.7736    0.0000 C   0  0  0  0  0  0  0  0  0  0  0  0
    5.7671   -8.2295    0.0000 O   0  0  0  0  0  0  0  0  0  0  0  0
    4.3274   -9.0355    0.0000 O   0  0  0  0  0  0  0  0  0  0  0  0
    2.9095   -8.1916    0.0000 O   0  0  0  0  0  0  0  0  0  0  0  0
    2.2115   -6.9448    0.0000 O   0  0  0  0  0  0  0  0  0  0  0  0
    2.9313   -6.5418    0.0000 C   0  0  0  0  0  0  0  0  0  0  0  0
    3.6403   -6.9637    0.0000 C   0  0  2  0  0  0  0  0  0  0  0  0
    3.6294   -7.7886    0.0000 C   0  0  2  0  0  0  0  0  0  0  0  0
    4.3383   -8.2106    0.0000 C   0  0  1  0  0  0  0  0  0  0  0  0
    5.0582   -7.8076    0.0000 C   0  0  2  0  0  0  0  0  0  0  0  0
    5.0691   -6.9826    0.0000 C   0  0  1  0  0  0  0  0  0  0  0  0
    4.3602   -6.5607    0.0000 O   0  0  0  0  0  0  0  0  0  0  0  0
    5.7890   -6.5796    0.0000 O   0  0  0  0  0  0  0  0  0  0  0  0
    8.6138   -9.0923    0.0000 O   0  0  0  0  0  0  0  0  0  0  0  0
    8.6466   -6.6175    0.0000 O   0  0  0  0  0  0  0  0  0  0  0  0
    7.9267   -7.0205    0.0000 C   0  0  0  0  0  0  0  0  0  0  0  0
    7.2178   -6.5986    0.0000 C   0  0  0  0  0  0  0  0  0  0  0  0
    6.4979   -7.0016    0.0000 C   0  0  0  0  0  0  0  0  0  0  0  0
    6.4870   -7.8265    0.0000 C   0  0  0  0  0  0  0  0  0  0  0  0
    7.1959   -8.2484    0.0000 C   0  0  0  0  0  0  0  0  0  0  0  0
    7.9158   -7.8454    0.0000 C   0  0  0  0  0  0  0  0  0  0  0  0
    8.6247   -8.2673    0.0000 C   0  0  0  0  0  0  0  0  0  0  0  0
    9.3446   -7.8643    0.0000 C   0  0  0  0  0  0  0  0  0  0  0  0
    9.3555   -7.0394    0.0000 C   0  0  0  0  0  0  0  0  0  0  0  0
 37  1  1  0  0  0  0
 34  2  1  0  0  0  0
 38 10  1  0  0  0  0
  7  4  1  0  0  0  0
  4  3  1  0  0  0  0
 10  5  2  0  0  0  0
  6  5  1  0  0  0  0
  7  6  2  0  0  0  0
  8  7  1  0  0  0  0
  9  8  2  0  0  0  0
 10  9  1  0  0  0  0
 31 15  1  0  0  0  0
 13 11  1  0  0  0  0
 13 12  1  0  0  0  0
 14 13  2  0  0  0  0
 15 14  1  0  0  0  0
 32 27  1  0  0  0  0
 25 27  1  1  0  0  0
 24 16  1  6  0  0  0
 23 17  1  1  0  0  0
 22 18  1  6  0  0  0
 21 20  1  1  0  0  0
 20 19  1  0  0  0  0
 26 21  1  0  0  0  0
 22 21  1  0  0  0  0
 23 22  1  0  0  0  0
 24 23  1  0  0  0  0
 25 24  1  0  0  0  0
 26 25  1  0  0  0  0
 36 28  2  0  0  0  0
 38 29  1  0  0  0  0
 30 29  1  0  0  0  0
 35 30  2  0  0  0  0
 31 30  1  0  0  0  0
 32 31  2  0  0  0  0
 33 32  1  0  0  0  0
 34 33  2  0  0  0  0
 35 34  1  0  0  0  0
 36 35  1  0  0  0  0
 37 36  1  0  0  0  0
 38 37  2  0  0  0  0
M  END
>  <cdx:groupId>
119

>  <cdx:fragmentId>
29

$$$$
