7456.cdx
  Mrv1902 05222410232D          

 11 11  0  0  0  0            999 V2000
    5.2530   -2.3383    0.0000 C   0  0  0  0  0  0  0  0  0  0  0  0
    4.5385   -2.7508    0.0000 C   0  0  0  0  0  0  0  0  0  0  0  0
    3.8240   -2.3383    0.0000 C   0  0  0  0  0  0  0  0  0  0  0  0
    3.1095   -2.7508    0.0000 C   0  0  0  0  0  0  0  0  0  0  0  0
    3.1095   -3.5758    0.0000 C   0  0  0  0  0  0  0  0  0  0  0  0
    3.8240   -3.9883    0.0000 C   0  0  0  0  0  0  0  0  0  0  0  0
    4.5385   -3.5758    0.0000 C   0  0  0  0  0  0  0  0  0  0  0  0
    5.2530   -1.5133    0.0000 O   0  0  0  0  0  0  0  0  0  0  0  0
    5.9674   -2.7508    0.0000 O   0  0  0  0  0  0  0  0  0  0  0  0
    2.3951   -3.9883    0.0000 O   0  0  0  0  0  0  0  0  0  0  0  0
    6.6819   -2.3383    0.0000 C   0  0  0  0  0  0  0  0  0  0  0  0
  1  2  1  0  0  0  0
  2  3  1  0  0  0  0
  3  4  2  0  0  0  0
  4  5  1  0  0  0  0
  5  6  2  0  0  0  0
  6  7  1  0  0  0  0
  2  7  2  0  0  0  0
  1  8  2  0  0  0  0
  1  9  1  0  0  0  0
  5 10  1  0  0  0  0
  9 11  1  0  0  0  0
M  END
>  <cdx:groupId>
35

>  <cdx:fragmentId>
5

$$$$
