7461.cdx
  Mrv1902 05222410252D          

 10 10  0  0  0  0            999 V2000
    7.8940   -7.1163    0.0000 C   0  0  0  0  0  0  0  0  0  0  0  0
    7.9061   -6.2913    0.0000 C   0  0  0  0  0  0  0  0  0  0  0  0
    7.1978   -5.8684    0.0000 C   0  0  0  0  0  0  0  0  0  0  0  0
    6.4773   -6.2703    0.0000 C   0  0  0  0  0  0  0  0  0  0  0  0
    6.4652   -7.0952    0.0000 C   0  0  0  0  0  0  0  0  0  0  0  0
    7.1735   -7.5182    0.0000 C   0  0  0  0  0  0  0  0  0  0  0  0
    7.1614   -8.3431    0.0000 C   0  0  0  0  0  0  0  0  0  0  0  0
    7.2099   -5.0435    0.0000 C   0  0  0  0  0  0  0  0  0  0  0  0
    6.5016   -4.6205    0.0000 C   0  0  0  0  0  0  0  0  0  0  0  0
    7.9304   -4.6415    0.0000 C   0  0  0  0  0  0  0  0  0  0  0  0
  1  2  1  0  0  0  0
  2  3  2  0  0  0  0
  3  4  1  0  0  0  0
  4  5  1  0  0  0  0
  5  6  2  0  0  0  0
  6  1  1  0  0  0  0
  6  7  1  0  0  0  0
  3  8  1  0  0  0  0
  8  9  1  0  0  0  0
  8 10  1  0  0  0  0
M  END
>  <cdx:fragmentId>
48

$$$$
