746259.cdx
  Mrv1902 05222410182D          

 21 20  0  0  0  0            999 V2000
   12.8895   -8.5519    0.0000 C   0  0  0  0  0  0  0  0  0  0  0  0
   12.1751   -8.9644    0.0000 C   0  0  0  0  0  0  0  0  0  0  0  0
   11.4606   -8.5519    0.0000 C   0  0  0  0  0  0  0  0  0  0  0  0
   10.7461   -8.9644    0.0000 C   0  0  0  0  0  0  0  0  0  0  0  0
   10.0316   -8.5519    0.0000 C   0  0  0  0  0  0  0  0  0  0  0  0
    9.3172   -8.9644    0.0000 C   0  0  0  0  0  0  0  0  0  0  0  0
    8.6027   -8.5519    0.0000 C   0  0  0  0  0  0  0  0  0  0  0  0
    7.8882   -8.9644    0.0000 C   0  0  0  0  0  0  0  0  0  0  0  0
    7.1738   -8.5519    0.0000 C   0  0  0  0  0  0  0  0  0  0  0  0
    6.4593   -8.9644    0.0000 C   0  0  0  0  0  0  0  0  0  0  0  0
    5.7448   -8.5519    0.0000 C   0  0  0  0  0  0  0  0  0  0  0  0
    5.0304   -8.9644    0.0000 C   0  0  0  0  0  0  0  0  0  0  0  0
    4.3159   -8.5519    0.0000 C   0  0  0  0  0  0  0  0  0  0  0  0
    3.6014   -8.9644    0.0000 C   0  0  0  0  0  0  0  0  0  0  0  0
    2.8869   -8.5519    0.0000 C   0  0  0  0  0  0  0  0  0  0  0  0
    2.1725   -8.9644    0.0000 C   0  0  0  0  0  0  0  0  0  0  0  0
    1.4580   -8.5519    0.0000 C   0  0  0  0  0  0  0  0  0  0  0  0
    0.7435   -8.9644    0.0000 C   0  0  0  0  0  0  0  0  0  0  0  0
   12.8895   -7.7269    0.0000 O   0  0  0  0  0  0  0  0  0  0  0  0
   13.6040   -8.9644    0.0000 O   0  0  0  0  0  0  0  0  0  0  0  0
   12.1751   -9.7894    0.0000 O   0  0  0  0  0  0  0  0  0  0  0  0
  1  2  1  0  0  0  0
  2  3  2  0  0  0  0
  3  4  1  0  0  0  0
  4  5  2  0  0  0  0
  5  6  1  0  0  0  0
  6  7  1  0  0  0  0
  7  8  1  0  0  0  0
  8  9  1  0  0  0  0
  9 10  1  0  0  0  0
 10 11  1  0  0  0  0
 11 12  1  0  0  0  0
 12 13  1  0  0  0  0
 13 14  1  0  0  0  0
 14 15  1  0  0  0  0
 15 16  1  0  0  0  0
 16 17  1  0  0  0  0
 17 18  1  0  0  0  0
  1 19  2  0  0  0  0
  1 20  1  0  0  0  0
  2 21  1  0  0  0  0
M  END
>  <cdx:fragmentId>
206413

$$$$
