7463.cdx
  Mrv1902 05222410252D          

 10 10  0  0  0  0            999 V2000
    6.4589   -4.4481    0.0000 C   0  0  0  0  0  0  0  0  0  0  0  0
    6.4589   -5.2731    0.0000 C   0  0  0  0  0  0  0  0  0  0  0  0
    7.1734   -5.6856    0.0000 C   0  0  0  0  0  0  0  0  0  0  0  0
    7.8878   -5.2731    0.0000 C   0  0  0  0  0  0  0  0  0  0  0  0
    7.8878   -4.4481    0.0000 C   0  0  0  0  0  0  0  0  0  0  0  0
    7.1734   -4.0356    0.0000 C   0  0  0  0  0  0  0  0  0  0  0  0
    7.1734   -3.2106    0.0000 C   0  0  0  0  0  0  0  0  0  0  0  0
    7.1734   -6.5106    0.0000 C   0  0  0  0  0  0  0  0  0  0  0  0
    6.4589   -6.9231    0.0000 C   0  0  0  0  0  0  0  0  0  0  0  0
    7.8878   -6.9231    0.0000 C   0  0  0  0  0  0  0  0  0  0  0  0
  1  2  2  0  0  0  0
  2  3  1  0  0  0  0
  3  4  2  0  0  0  0
  4  5  1  0  0  0  0
  5  6  2  0  0  0  0
  6  1  1  0  0  0  0
  6  7  1  0  0  0  0
  3  8  1  0  0  0  0
  8  9  1  0  0  0  0
  8 10  1  0  0  0  0
M  END
>  <cdx:fragmentId>
44

$$$$
