746535.cdx
  Mrv1902 05222410262D          

 15 16  0  0  0  0            999 V2000
    7.1468   -6.8397    0.0000 C   0  0  0  0  0  0  0  0  0  0  0  0
    6.4324   -6.4272    0.0000 C   0  0  0  0  0  0  0  0  0  0  0  0
    6.4324   -5.6022    0.0000 C   0  0  0  0  0  0  0  0  0  0  0  0
    7.1468   -5.1897    0.0000 C   0  0  0  0  0  0  0  0  0  0  0  0
    7.8613   -5.6022    0.0000 C   0  0  0  0  0  0  0  0  0  0  0  0
    8.5758   -5.1897    0.0000 C   0  0  0  0  0  0  0  0  0  0  0  0
    9.2902   -5.6022    0.0000 C   0  0  0  0  0  0  0  0  0  0  0  0
    9.2902   -6.4272    0.0000 C   0  0  0  0  0  0  0  0  0  0  0  0
    8.5758   -6.8397    0.0000 C   0  0  0  0  0  0  0  0  0  0  0  0
    7.8613   -6.4272    0.0000 C   0  0  0  0  0  0  0  0  0  0  0  0
    7.8613   -3.9522    0.0000 C   0  0  0  0  0  0  0  0  0  0  0  0
    8.5758   -4.3647    0.0000 C   0  0  0  0  0  0  0  0  0  0  0  0
    9.2902   -3.9522    0.0000 C   0  0  0  0  0  0  0  0  0  0  0  0
    8.5758   -7.6647    0.0000 C   0  0  0  0  0  0  0  0  0  0  0  0
    5.7179   -6.8397    0.0000 O   0  0  0  0  0  0  0  0  0  0  0  0
  1  2  1  0  0  0  0
  2  3  1  0  0  0  0
  3  4  2  0  0  0  0
  4  5  1  0  0  0  0
  5  6  1  0  0  0  0
  6  7  1  0  0  0  0
  7  8  1  0  0  0  0
  8  9  1  0  0  0  0
  9 10  1  0  0  0  0
  1 10  1  0  0  0  0
  5 10  1  0  0  0  0
 11 12  1  0  0  0  0
 12 13  1  0  0  0  0
  6 12  1  0  0  0  0
  9 14  2  0  0  0  0
  2 15  1  0  0  0  0
M  END
>  <cdx:groupId>
51

>  <cdx:fragmentId>
5

$$$$
