746681.cdx
  Mrv1902 05222410272D          

 18 19  0  0  0  0            999 V2000
    4.8656   -8.6476    0.0000 C   0  0  0  0  0  0  0  0  0  0  0  0
    4.8656   -9.4726    0.0000 C   0  0  0  0  0  0  0  0  0  0  0  0
    5.5800   -9.8851    0.0000 C   0  0  2  0  0  0  0  0  0  0  0  0
    6.2945   -9.4726    0.0000 C   0  0  1  0  0  0  0  0  0  0  0  0
    6.2945   -8.6476    0.0000 C   0  0  1  0  0  0  0  0  0  0  0  0
    5.5800   -8.2351    0.0000 C   0  0  0  0  0  0  0  0  0  0  0  0
    7.0090   -9.8851    0.0000 C   0  0  0  0  0  0  0  0  0  0  0  0
    7.7234   -9.4726    0.0000 C   0  0  0  0  0  0  0  0  0  0  0  0
    7.7234   -8.6476    0.0000 C   0  0  0  0  0  0  0  0  0  0  0  0
    7.0090   -8.2351    0.0000 C   0  0  0  0  0  0  0  0  0  0  0  0
    5.5800   -7.4101    0.0000 C   0  0  0  0  0  0  0  0  0  0  0  0
    8.4379   -9.8851    0.0000 C   0  0  0  0  0  0  0  0  0  0  0  0
    5.5800  -10.7101    0.0000 C   0  0  0  0  0  0  0  0  0  0  0  0
    6.2945  -11.1226    0.0000 C   0  0  0  0  0  0  0  0  0  0  0  0
    4.8656  -11.1226    0.0000 C   0  0  0  0  0  0  0  0  0  0  0  0
    6.2945  -10.2976    0.0000 H   0  0  0  0  0  0  0  0  0  0  0  0
    6.2945   -7.8226    0.0000 H   0  0  0  0  0  0  0  0  0  0  0  0
    4.8656   -6.9976    0.0000 O   0  0  0  0  0  0  0  0  0  0  0  0
  1  2  1  0  0  0  0
  2  3  1  0  0  0  0
  3  4  1  0  0  0  0
  4  5  1  0  0  0  0
  5  6  1  0  0  0  0
  6  1  2  0  0  0  0
  4  7  1  0  0  0  0
  7  8  2  0  0  0  0
  8  9  1  0  0  0  0
  9 10  1  0  0  0  0
 10  5  1  0  0  0  0
  6 11  1  0  0  0  0
  8 12  1  0  0  0  0
  3 13  1  6  0  0  0
 13 14  1  0  0  0  0
 13 15  1  0  0  0  0
  4 16  1  6  0  0  0
  5 17  1  6  0  0  0
 11 18  2  0  0  0  0
M  END
>  <cdx:fragmentId>
5

$$$$
