7469.cdx
  Mrv1902 05222410222D          

 10 10  0  0  0  0            999 V2000
    5.4864   -2.4208    0.0000 C   0  0  0  0  0  0  0  0  0  0  0  0
    6.2009   -2.8333    0.0000 C   0  0  0  0  0  0  0  0  0  0  0  0
    4.7720   -2.8333    0.0000 C   0  0  0  0  0  0  0  0  0  0  0  0
    4.0575   -2.4208    0.0000 C   0  0  0  0  0  0  0  0  0  0  0  0
    3.3430   -2.8333    0.0000 C   0  0  0  0  0  0  0  0  0  0  0  0
    3.3430   -3.6583    0.0000 C   0  0  0  0  0  0  0  0  0  0  0  0
    4.0575   -4.0708    0.0000 C   0  0  0  0  0  0  0  0  0  0  0  0
    4.7720   -3.6583    0.0000 C   0  0  0  0  0  0  0  0  0  0  0  0
    2.6286   -4.0708    0.0000 O   0  0  0  0  0  0  0  0  0  0  0  0
    5.4864   -1.5958    0.0000 O   0  0  0  0  0  0  0  0  0  0  0  0
  1  2  1  0  0  0  0
  3  4  1  0  0  0  0
  4  5  2  0  0  0  0
  5  6  1  0  0  0  0
  6  7  2  0  0  0  0
  7  8  1  0  0  0  0
  3  8  2  0  0  0  0
  6  9  1  0  0  0  0
  1  3  1  0  0  0  0
  1 10  2  0  0  0  0
M  END
>  <cdx:groupId>
32

>  <cdx:fragmentId>
9

$$$$
