7470.cdx
  Mrv1902 05222410242D          

 10 10  0  0  0  0            999 V2000
    4.7750   -2.2410    0.0000 C   0  0  0  0  0  0  0  0  0  0  0  0
    4.0605   -2.6535    0.0000 C   0  0  0  0  0  0  0  0  0  0  0  0
    3.3460   -2.2410    0.0000 C   0  0  0  0  0  0  0  0  0  0  0  0
    2.6316   -2.6535    0.0000 C   0  0  0  0  0  0  0  0  0  0  0  0
    2.6316   -3.4785    0.0000 C   0  0  0  0  0  0  0  0  0  0  0  0
    3.3460   -3.8910    0.0000 C   0  0  0  0  0  0  0  0  0  0  0  0
    4.0605   -3.4785    0.0000 C   0  0  0  0  0  0  0  0  0  0  0  0
    4.7750   -1.4160    0.0000 O   0  0  0  0  0  0  0  0  0  0  0  0
    5.4894   -2.6535    0.0000 O   0  0  0  0  0  0  0  0  0  0  0  0
    1.9171   -3.8910    0.0000 C   0  0  0  0  0  0  0  0  0  0  0  0
  1  2  1  0  0  0  0
  2  3  1  0  0  0  0
  3  4  2  0  0  0  0
  4  5  1  0  0  0  0
  5  6  2  0  0  0  0
  6  7  1  0  0  0  0
  2  7  2  0  0  0  0
  1  8  2  0  0  0  0
  1  9  1  0  0  0  0
  5 10  1  0  0  0  0
M  END
>  <cdx:groupId>
32

>  <cdx:fragmentId>
5

$$$$
