74706.cdx
  Mrv1902 05222410232D          

 14 15  0  0  0  0            999 V2000
    7.2333   -7.5441    0.0000 N   0  0  0  0  0  0  0  0  0  0  0  0
    7.7182   -6.8766    0.0000 C   0  0  0  0  0  0  0  0  0  0  0  0
    7.2333   -6.2092    0.0000 C   0  0  0  0  0  0  0  0  0  0  0  0
    6.4486   -6.4641    0.0000 C   0  0  0  0  0  0  0  0  0  0  0  0
    5.7342   -6.0516    0.0000 C   0  0  0  0  0  0  0  0  0  0  0  0
    5.0197   -6.4641    0.0000 C   0  0  0  0  0  0  0  0  0  0  0  0
    5.0197   -7.2891    0.0000 C   0  0  0  0  0  0  0  0  0  0  0  0
    5.7342   -7.7016    0.0000 C   0  0  0  0  0  0  0  0  0  0  0  0
    6.4486   -7.2891    0.0000 C   0  0  0  0  0  0  0  0  0  0  0  0
    7.4882   -5.4246    0.0000 C   0  0  0  0  0  0  0  0  0  0  0  0
    9.3571   -4.2969    0.0000 C   0  0  0  0  0  0  0  0  0  0  0  0
    8.5501   -4.4684    0.0000 O   0  0  0  0  0  0  0  0  0  0  0  0
    8.8472   -5.8661    0.0000 O   0  0  0  0  0  0  0  0  0  0  0  0
    8.2952   -5.2530    0.0000 C   0  0  0  0  0  0  0  0  0  0  0  0
 12 11  1  0  0  0  0
 14 12  1  0  0  0  0
 14 13  2  0  0  0  0
  1  2  1  0  0  0  0
  2  3  2  0  0  0  0
  3  4  1  0  0  0  0
  4  5  1  0  0  0  0
  5  6  2  0  0  0  0
  6  7  1  0  0  0  0
  7  8  2  0  0  0  0
  8  9  1  0  0  0  0
  1  9  1  0  0  0  0
  4  9  2  0  0  0  0
 14 10  1  0  0  0  0
  3 10  1  0  0  0  0
M  END
>  <cdx:groupId>
45

>  <cdx:fragmentId>
5

$$$$
