74709.cdx
  Mrv1902 05222410242D          

 14 14  0  0  0  0            999 V2000
    6.8753   -9.2500    0.0000 C   0  0  0  0  0  0  0  0  0  0  0  0
    6.8758   -8.4250    0.0000 C   0  0  0  0  0  0  0  0  0  0  0  0
    6.1616   -8.0121    0.0000 C   0  0  0  0  0  0  0  0  0  0  0  0
    6.1620   -7.1871    0.0000 C   0  0  0  0  0  0  0  0  0  0  0  0
    6.8767   -6.7750    0.0000 C   0  0  0  0  0  0  0  0  0  0  0  0
    7.5909   -7.1879    0.0000 C   0  0  0  0  0  0  0  0  0  0  0  0
    7.5905   -8.0129    0.0000 C   0  0  0  0  0  0  0  0  0  0  0  0
    7.5896   -9.6629    0.0000 O   0  0  0  0  0  0  0  0  0  0  0  0
    6.1606   -9.6621    0.0000 O   0  0  0  0  0  0  0  0  0  0  0  0
    8.3056   -6.7758    0.0000 O   0  0  0  0  0  0  0  0  0  0  0  0
    6.8772   -5.9500    0.0000 O   0  0  0  0  0  0  0  0  0  0  0  0
    7.5919   -5.5379    0.0000 C   0  0  0  0  0  0  0  0  0  0  0  0
    5.4478   -6.7743    0.0000 O   0  0  0  0  0  0  0  0  0  0  0  0
    9.0201   -7.1883    0.0000 C   0  0  0  0  0  0  0  0  0  0  0  0
  1  2  1  0  0  0  0
  2  3  1  0  0  0  0
  3  4  2  0  0  0  0
  4  5  1  0  0  0  0
  5  6  2  0  0  0  0
  6  7  1  0  0  0  0
  2  7  2  0  0  0  0
  1  8  2  0  0  0  0
  1  9  1  0  0  0  0
  6 10  1  0  0  0  0
 11 12  1  0  0  0  0
  5 11  1  0  0  0  0
  4 13  1  0  0  0  0
 10 14  1  0  0  0  0
M  END
>  <cdx:fragmentId>
5

$$$$
