91747158.cdx
  Mrv1902 05222410272D          

 16 17  0  0  0  0            999 V2000
    5.7361  -15.3279    0.0000 C   0  0  0  0  0  0  0  0  0  0  0  0
    5.2512  -14.6604    0.0000 C   0  0  0  0  0  0  0  0  0  0  0  0
    5.7361  -13.9930    0.0000 C   0  0  0  0  0  0  0  0  0  0  0  0
    6.5207  -14.2479    0.0000 C   0  0  0  0  0  0  0  0  0  0  0  0
    7.1658  -13.7336    0.0000 C   0  0  0  0  0  0  0  0  0  0  0  0
    7.9701  -13.9171    0.0000 C   0  0  0  0  0  0  0  0  0  0  0  0
    8.3280  -14.6604    0.0000 C   0  0  0  0  0  0  0  0  0  0  0  0
    7.9701  -15.4037    0.0000 C   0  0  0  0  0  0  0  0  0  0  0  0
    7.1658  -15.5873    0.0000 C   0  0  0  0  0  0  0  0  0  0  0  0
    6.5207  -15.0729    0.0000 C   0  0  0  0  0  0  0  0  0  0  0  0
    6.3734  -13.4362    0.0000 O   0  0  0  0  0  0  0  0  0  0  0  0
    8.1830  -16.8167    0.0000 C   0  0  0  0  0  0  0  0  0  0  0  0
    8.4845  -16.0487    0.0000 C   0  0  0  0  0  0  0  0  0  0  0  0
    9.3002  -15.9258    0.0000 C   0  0  0  0  0  0  0  0  0  0  0  0
    6.9822  -12.9292    0.0000 C   0  0  0  0  0  0  0  0  0  0  0  0
    5.4812  -16.1125    0.0000 C   0  0  0  0  0  0  0  0  0  0  0  0
  1  2  1  0  0  0  0
  2  3  1  0  0  0  0
  3  4  1  0  0  0  0
  4  5  1  0  0  0  0
  5  6  1  0  0  0  0
  6  7  1  0  0  0  0
  7  8  1  0  0  0  0
  8  9  1  0  0  0  0
  9 10  1  0  0  0  0
  1 10  1  0  0  0  0
  4 10  1  0  0  0  0
  4 11  1  0  0  0  0
 12 13  2  0  0  0  0
 13 14  1  0  0  0  0
  8 13  1  0  0  0  0
  5 15  1  0  0  0  0
  1 16  1  0  0  0  0
M  END
>  <cdx:groupId>
216522

>  <cdx:fragmentId>
216476

$$$$
