7471.cdx
  Mrv1902 05222410242D          

 36 37  0  0  0  0            999 V2000
    7.7634   -9.3435    0.0000 C   0  0  1  0  0  0  0  0  0  0  0  0
    8.4060   -9.0273    0.0000 C   0  0  0  0  0  0  0  0  0  0  0  0
    8.1071   -8.1987    0.0000 C   0  0  0  0  0  0  0  0  0  0  0  0
    6.9473   -8.0630    0.0000 C   0  0  1  0  0  0  0  0  0  0  0  0
    5.7315   -8.0578    0.0000 C   0  0  0  0  0  0  0  0  0  0  0  0
    4.9789   -8.7277    0.0000 C   0  0  0  0  0  0  0  0  0  0  0  0
    5.7093   -9.1598    0.0000 C   0  0  0  0  0  0  0  0  0  0  0  0
    6.6225   -8.8554    0.0000 C   0  0  1  0  0  0  0  0  0  0  0  0
    6.6225   -7.1243    0.0000 C   0  0  0  0  0  0  0  0  0  0  0  0
    7.3598   -7.3485    0.0000 C   0  0  0  0  0  0  0  0  0  0  0  0
    6.4089   -9.6523    0.0000 C   0  0  0  0  0  0  0  0  0  0  0  0
    8.1567   -7.1350    0.0000 C   0  0  0  0  0  0  0  0  0  0  0  0
    8.3702   -6.3381    0.0000 C   0  0  0  0  0  0  0  0  0  0  0  0
    7.7868   -5.7547    0.0000 C   0  0  0  0  0  0  0  0  0  0  0  0
    9.1671   -6.1246    0.0000 C   0  0  0  0  0  0  0  0  0  0  0  0
    6.4089   -6.3274    0.0000 O   0  0  0  0  0  0  0  0  0  0  0  0
    5.5180   -7.2609    0.0000 O   0  0  0  0  0  0  0  0  0  0  0  0
    4.1820   -8.9412    0.0000 C   0  0  0  0  0  0  0  0  0  0  0  0
    3.5986   -8.3578    0.0000 C   0  0  0  0  0  0  0  0  0  0  0  0
    2.8017   -8.5713    0.0000 C   0  0  0  0  0  0  0  0  0  0  0  0
    2.2184   -7.9880    0.0000 C   0  0  0  0  0  0  0  0  0  0  0  0
    2.5882   -9.3682    0.0000 C   0  0  0  0  0  0  0  0  0  0  0  0
    5.2968   -9.8743    0.0000 O   0  0  0  0  0  0  0  0  0  0  0  0
    5.9964  -10.3668    0.0000 O   0  0  0  0  0  0  0  0  0  0  0  0
    6.9923  -10.2357    0.0000 C   0  0  0  0  0  0  0  0  0  0  0  0
    6.7788  -11.0326    0.0000 C   0  0  0  0  0  0  0  0  0  0  0  0
    7.3621  -11.6159    0.0000 C   0  0  0  0  0  0  0  0  0  0  0  0
    7.7761  -10.6482    0.0000 C   0  0  0  0  0  0  0  0  0  0  0  0
    8.3468   -9.9269    0.0000 C   0  0  0  0  0  0  0  0  0  0  0  0
    9.1718   -9.9269    0.0000 C   0  0  0  0  0  0  0  0  0  0  0  0
    9.7551  -10.5102    0.0000 C   0  0  0  0  0  0  0  0  0  0  0  0
   10.5801  -10.5102    0.0000 C   0  0  0  0  0  0  0  0  0  0  0  0
   10.9926   -9.7958    0.0000 C   0  0  0  0  0  0  0  0  0  0  0  0
   10.9926  -11.2247    0.0000 C   0  0  0  0  0  0  0  0  0  0  0  0
    7.3509  -10.0580    0.0000 C   0  0  0  0  0  0  0  0  0  0  0  0
    7.0821   -9.9132    0.0000 H   0  0  0  0  0  0  0  0  0  0  0  0
  8  1  1  0  0  0  0
  1  2  1  0  0  0  0
  2  3  1  0  0  0  0
  3  4  1  0  0  0  0
  4  9  1  0  0  0  0
  4  5  1  0  0  0  0
  5  6  2  0  0  0  0
  7  6  1  0  0  0  0
  8  7  1  0  0  0  0
  8  9  1  0  0  0  0
  4 10  1  6  0  0  0
  8 11  1  6  0  0  0
 10 12  1  0  0  0  0
 12 13  2  0  0  0  0
 13 14  1  0  0  0  0
 13 15  1  0  0  0  0
  9 16  2  0  0  0  0
  5 17  1  0  0  0  0
  6 18  1  0  0  0  0
 18 19  1  0  0  0  0
 19 20  2  0  0  0  0
 20 21  1  0  0  0  0
 20 22  1  0  0  0  0
  7 23  2  0  0  0  0
 11 24  2  0  0  0  0
 11 25  1  0  0  0  0
 25 26  1  0  0  0  0
 26 27  1  0  0  0  0
 25 28  1  0  0  0  0
  1 29  1  0  0  0  0
 29 30  1  0  0  0  0
 30 31  1  0  0  0  0
 31 32  2  0  0  0  0
 32 33  1  0  0  0  0
 32 34  1  0  0  0  0
  1 35  1  1  0  0  0
 25 36  1  0  0  0  0
M  END
>  <cdx:groupId>
819

>  <cdx:fragmentId>
820

$$$$
