91747202.cdx
  Mrv1902 05222410272D          

 16 18  0  0  0  0            999 V2000
    7.0002  -14.4839    0.0000 C   0  0  0  0  0  0  0  0  0  0  0  0
    7.0002  -15.3089    0.0000 C   0  0  0  0  0  0  0  0  0  0  0  0
    7.6453  -15.8233    0.0000 C   0  0  0  0  0  0  0  0  0  0  0  0
    8.4496  -15.6397    0.0000 C   0  0  0  0  0  0  0  0  0  0  0  0
    8.8075  -14.8964    0.0000 C   0  0  0  0  0  0  0  0  0  0  0  0
    8.4496  -14.1531    0.0000 C   0  0  0  0  0  0  0  0  0  0  0  0
    7.6453  -13.9695    0.0000 C   0  0  0  0  0  0  0  0  0  0  0  0
    6.5430  -14.5691    0.0000 C   0  0  0  0  0  0  0  0  0  0  0  0
    6.2156  -15.5638    0.0000 C   0  0  0  0  0  0  0  0  0  0  0  0
    5.7307  -14.8964    0.0000 C   0  0  0  0  0  0  0  0  0  0  0  0
    6.2156  -14.2289    0.0000 C   0  0  0  0  0  0  0  0  0  0  0  0
    5.8273  -14.1586    0.0000 O   0  0  0  0  0  0  0  0  0  0  0  0
    7.5327  -13.1522    0.0000 C   0  0  0  0  0  0  0  0  0  0  0  0
    7.8884  -16.6116    0.0000 C   0  0  0  0  0  0  0  0  0  0  0  0
    7.0841  -16.4280    0.0000 C   0  0  0  0  0  0  0  0  0  0  0  0
    6.7142  -16.0827    0.0000 C   0  0  0  0  0  0  0  0  0  0  0  0
  1  2  1  0  0  0  0
  2  3  1  0  0  0  0
  3  4  1  0  0  0  0
  4  5  1  0  0  0  0
  5  6  1  0  0  0  0
  6  7  1  0  0  0  0
  7  8  1  0  0  0  0
  8  9  1  0  0  0  0
  9 10  1  0  0  0  0
 10 11  1  0  0  0  0
  1 11  1  0  0  0  0
  1  7  1  0  0  0  0
  2  9  1  0  0  0  0
  8 12  2  0  0  0  0
  7 13  1  0  0  0  0
  3 14  1  0  0  0  0
  3 15  1  0  0  0  0
  2 16  1  0  0  0  0
M  END
>  <cdx:groupId>
216576

>  <cdx:fragmentId>
216529

$$$$
