91747331.cdx
  Mrv1902 05222410212D          

 17 19  0  0  0  0            999 V2000
    7.4811  -14.7115    0.0000 C   0  0  0  0  0  0  0  0  0  0  0  0
    6.6965  -14.4566    0.0000 C   0  0  0  0  0  0  0  0  0  0  0  0
    6.2116  -15.1240    0.0000 C   0  0  0  0  0  0  0  0  0  0  0  0
    6.6965  -15.7915    0.0000 C   0  0  0  0  0  0  0  0  0  0  0  0
    7.4811  -15.5365    0.0000 C   0  0  2  0  0  0  0  0  0  0  0  0
    8.2657  -15.7915    0.0000 C   0  0  1  0  0  0  0  0  0  0  0  0
    8.7506  -15.1240    0.0000 C   0  0  0  0  0  0  0  0  0  0  0  0
    8.2657  -14.4566    0.0000 C   0  0  1  0  0  0  0  0  0  0  0  0
    8.2657  -13.6316    0.0000 C   0  0  1  0  0  0  0  0  0  0  0  0
    7.4811  -13.3766    0.0000 C   0  0  0  0  0  0  0  0  0  0  0  0
    6.9962  -14.0441    0.0000 C   0  0  0  0  0  0  0  0  0  0  0  0
    8.5207  -16.5761    0.0000 O   0  0  0  0  0  0  0  0  0  0  0  0
    8.9332  -13.1467    0.0000 C   0  0  0  0  0  0  0  0  0  0  0  0
    7.4811  -16.3615    0.0000 C   0  0  0  0  0  0  0  0  0  0  0  0
    5.3866  -15.1240    0.0000 C   0  0  0  0  0  0  0  0  0  0  0  0
    6.4415  -13.6720    0.0000 C   0  0  0  0  0  0  0  0  0  0  0  0
    9.0503  -14.2016    0.0000 H   0  0  0  0  0  0  0  0  0  0  0  0
  1  2  1  0  0  0  0
  2  3  1  0  0  0  0
  3  4  2  0  0  0  0
  4  5  1  0  0  0  0
  5  6  1  0  0  0  0
  6  7  1  0  0  0  0
  7  8  1  0  0  0  0
  8  9  1  0  0  0  0
  9 10  1  0  0  0  0
 10 11  1  0  0  0  0
  1 11  1  0  0  0  0
  1  8  1  0  0  0  0
  1  5  1  0  0  0  0
  6 12  1  1  0  0  0
  9 13  1  1  0  0  0
  5 14  1  6  0  0  0
  3 15  1  0  0  0  0
  2 16  1  0  0  0  0
  8 17  1  1  0  0  0
M  END
>  <cdx:groupId>
216631

>  <cdx:fragmentId>
216581

$$$$
