91747362.cdx
  Mrv1902 05222410272D          

 16 18  0  0  0  0            999 V2000
    7.1354   -7.7165    0.0000 C   0  0  0  0  0  0  0  0  0  0  0  0
    6.4209   -7.3040    0.0000 C   0  0  0  0  0  0  0  0  0  0  0  0
    5.7065   -7.7165    0.0000 C   0  0  0  0  0  0  0  0  0  0  0  0
    6.4209   -8.1290    0.0000 O   0  0  0  0  0  0  0  0  0  0  0  0
    7.1354   -5.2415    0.0000 C   0  0  0  0  0  0  0  0  0  0  0  0
    7.3069   -4.4345    0.0000 C   0  0  0  0  0  0  0  0  0  0  0  0
    8.1274   -4.3483    0.0000 C   0  0  0  0  0  0  0  0  0  0  0  0
    8.4630   -5.1020    0.0000 C   0  0  0  0  0  0  0  0  0  0  0  0
    7.8499   -5.6540    0.0000 C   0  0  0  0  0  0  0  0  0  0  0  0
    7.1354   -6.0665    0.0000 C   0  0  0  0  0  0  0  0  0  0  0  0
    6.4209   -6.4790    0.0000 C   0  0  1  0  0  0  0  0  0  0  0  0
    5.7065   -6.0665    0.0000 C   0  0  0  0  0  0  0  0  0  0  0  0
    5.7065   -5.2415    0.0000 C   0  0  0  0  0  0  0  0  0  0  0  0
    6.4209   -4.8290    0.0000 C   0  0  1  0  0  0  0  0  0  0  0  0
    6.4209   -4.0040    0.0000 C   0  0  0  0  0  0  0  0  0  0  0  0
    9.2699   -5.2735    0.0000 C   0  0  0  0  0  0  0  0  0  0  0  0
  1  2  1  0  0  0  0
  2  3  1  0  0  0  0
  2  4  1  0  0  0  0
  5  6  1  0  0  0  0
  6  7  1  0  0  0  0
  7  8  1  0  0  0  0
  8  9  1  0  0  0  0
  9 10  1  0  0  0  0
 10 11  1  0  0  0  0
 11 12  1  0  0  0  0
 12 13  1  0  0  0  0
 13 14  1  0  0  0  0
  5 14  1  0  0  0  0
  5 10  1  0  0  0  0
  5  9  1  0  0  0  0
 14 15  1  1  0  0  0
  8 16  1  0  0  0  0
 11  2  1  6  0  0  0
M  END
>  <cdx:groupId>
103

>  <cdx:fragmentId>
64

$$$$
