7074739.cdx
  Mrv1902 05222410222D          

 16 17  0  0  0  0            999 V2000
    6.3282   -5.7662    0.0000 C   0  0  1  0  0  0  0  0  0  0  0  0
    7.0426   -5.3537    0.0000 C   0  0  0  0  0  0  0  0  0  0  0  0
    6.3282   -6.5912    0.0000 N   0  0  0  0  0  0  0  0  0  0  0  0
    7.7571   -5.7662    0.0000 N   0  0  0  0  0  0  0  0  0  0  0  0
    7.7571   -6.5912    0.0000 C   0  0  2  0  0  0  0  0  0  0  0  0
    7.0426   -7.0037    0.0000 C   0  0  0  0  0  0  0  0  0  0  0  0
    5.5435   -5.5112    0.0000 C   0  0  0  0  0  0  0  0  0  0  0  0
    5.0586   -6.1787    0.0000 C   0  0  0  0  0  0  0  0  0  0  0  0
    5.5435   -6.8461    0.0000 C   0  0  0  0  0  0  0  0  0  0  0  0
    7.0426   -4.5287    0.0000 O   0  0  0  0  0  0  0  0  0  0  0  0
    7.0426   -7.8287    0.0000 O   0  0  0  0  0  0  0  0  0  0  0  0
    8.4716   -7.0037    0.0000 C   0  0  0  0  0  0  0  0  0  0  0  0
    9.1860   -6.5912    0.0000 C   0  0  0  0  0  0  0  0  0  0  0  0
    9.1860   -5.7662    0.0000 C   0  0  0  0  0  0  0  0  0  0  0  0
    9.9005   -7.0037    0.0000 C   0  0  0  0  0  0  0  0  0  0  0  0
    6.2419   -4.9457    0.0000 H   0  0  0  0  0  0  0  0  0  0  0  0
  1  2  1  0  0  0  0
  1  3  1  0  0  0  0
  2  4  1  0  0  0  0
  4  5  1  0  0  0  0
  5  6  1  0  0  0  0
  3  6  1  0  0  0  0
  7  8  1  0  0  0  0
  8  9  1  0  0  0  0
  9  3  1  0  0  0  0
  7  1  1  0  0  0  0
  2 10  2  0  0  0  0
  6 11  2  0  0  0  0
 12 13  1  0  0  0  0
 13 14  1  0  0  0  0
 13 15  1  0  0  0  0
  5 12  1  1  0  0  0
  1 16  1  6  0  0  0
M  END
>  <cdx:groupId>
51

>  <cdx:fragmentId>
5

$$$$
