747487.cdx
  Mrv1902 05222410232D          

 16 17  0  0  0  0            999 V2000
    9.7508  -10.1705    0.0000 C   0  0  0  0  0  0  0  0  0  0  0  0
   10.5979   -8.7546    0.0000 O   0  0  0  0  0  0  0  0  0  0  0  0
    7.2983   -8.7033    0.0000 C   0  0  0  0  0  0  0  0  0  0  0  0
    8.1232   -8.7161    0.0000 C   0  0  0  0  0  0  0  0  0  0  0  0
    8.5245   -9.4369    0.0000 C   0  0  0  0  0  0  0  0  0  0  0  0
    9.3494   -9.4497    0.0000 C   0  0  0  0  0  0  0  0  0  0  0  0
    9.7730   -8.7418    0.0000 C   0  0  0  0  0  0  0  0  0  0  0  0
    6.9141   -8.0054    0.0000 C   0  0  2  0  0  0  0  0  0  0  0  0
    6.4071   -7.2731    0.0000 C   0  0  0  0  0  0  0  0  0  0  0  0
    5.1342   -8.0889    0.0000 C   0  0  0  0  0  0  0  0  0  0  0  0
    4.6352   -7.5028    0.0000 C   0  0  0  0  0  0  0  0  0  0  0  0
    5.2120   -7.1655    0.0000 C   0  0  0  0  0  0  0  0  0  0  0  0
    5.9578   -7.7748    0.0000 C   0  0  0  0  0  0  0  0  0  0  0  0
    6.0600   -6.5264    0.0000 C   0  0  0  0  0  0  0  0  0  0  0  0
    5.0030   -8.9034    0.0000 C   0  0  0  0  0  0  0  0  0  0  0  0
    7.6155   -7.5711    0.0000 C   0  0  0  0  0  0  0  0  0  0  0  0
  6  1  1  0  0  0  0
  7  2  1  0  0  0  0
  4  3  1  0  0  0  0
  5  4  1  0  0  0  0
  6  5  2  0  0  0  0
  7  6  1  0  0  0  0
 13  8  1  0  0  0  0
  8  9  1  0  0  0  0
  9 14  1  0  0  0  0
 13 10  1  0  0  0  0
 10 11  2  0  0  0  0
 11 12  1  0  0  0  0
  9 12  1  0  0  0  0
 13 14  1  0  0  0  0
 10 15  1  0  0  0  0
  3  8  1  0  0  0  0
  8 16  1  6  0  0  0
M  END
>  <cdx:fragmentId>
814

$$$$
