91747494.cdx
  Mrv1902 05222410212D          

 16 17  0  0  0  0            999 V2000
    8.3583  -14.4626    0.0000 C   0  0  0  0  0  0  0  0  0  0  0  0
    9.0727  -14.8751    0.0000 C   0  0  1  0  0  0  0  0  0  0  0  0
    9.0727  -15.7001    0.0000 C   0  0  0  0  0  0  0  0  0  0  0  0
    8.3583  -16.1126    0.0000 C   0  0  0  0  0  0  0  0  0  0  0  0
    7.6438  -15.7001    0.0000 C   0  0  0  0  0  0  0  0  0  0  0  0
    7.6438  -14.8751    0.0000 C   0  0  0  0  0  0  0  0  0  0  0  0
    8.0227  -15.2879    0.0000 C   0  0  0  0  0  0  0  0  0  0  0  0
    9.7872  -14.4626    0.0000 O   0  0  0  0  0  0  0  0  0  0  0  0
    7.3082  -15.7004    0.0000 C   0  0  0  0  0  0  0  0  0  0  0  0
    6.5937  -15.2879    0.0000 C   0  0  0  0  0  0  0  0  0  0  0  0
    5.8793  -15.7004    0.0000 C   0  0  0  0  0  0  0  0  0  0  0  0
    5.1648  -15.2879    0.0000 C   0  0  0  0  0  0  0  0  0  0  0  0
    4.4503  -15.7004    0.0000 C   0  0  0  0  0  0  0  0  0  0  0  0
    5.1648  -14.4629    0.0000 C   0  0  0  0  0  0  0  0  0  0  0  0
    7.3082  -14.8754    0.0000 C   0  0  0  0  0  0  0  0  0  0  0  0
    8.3583  -13.6376    0.0000 C   0  0  0  0  0  0  0  0  0  0  0  0
  1  2  1  0  0  0  0
  2  3  1  0  0  0  0
  3  4  1  0  0  0  0
  4  5  1  0  0  0  0
  5  6  1  0  0  0  0
  1  6  1  0  0  0  0
  1  7  1  0  0  0  0
  7  4  1  0  0  0  0
  2  8  1  6  0  0  0
  9 10  1  0  0  0  0
 10 11  1  0  0  0  0
 11 12  2  0  0  0  0
 12 13  1  0  0  0  0
 12 14  1  0  0  0  0
  7  9  1  0  0  0  0
  7 15  1  0  0  0  0
  1 16  1  0  0  0  0
M  END
>  <cdx:groupId>
216736

>  <cdx:fragmentId>
216690

$$$$
