adhyperforine.cdx
  Mrv1902 05222410252D          

 40 41  0  0  0  0            999 V2000
    5.7164   -7.2394    0.0000 C   0  0  0  0  0  0  0  0  0  0  0  0
    5.7164   -8.0644    0.0000 C   0  0  0  0  0  0  0  0  0  0  0  0
    6.4309   -8.4769    0.0000 C   0  0  0  0  0  0  0  0  0  0  0  0
    7.1453   -8.0644    0.0000 C   0  0  0  0  0  0  0  0  0  0  0  0
    7.1453   -7.2394    0.0000 C   0  0  0  0  0  0  0  0  0  0  0  0
    6.4309   -6.8269    0.0000 C   0  0  0  0  0  0  0  0  0  0  0  0
    6.4309   -6.0019    0.0000 C   0  0  0  0  0  0  0  0  0  0  0  0
    7.1453   -5.5894    0.0000 C   0  0  0  0  0  0  0  0  0  0  0  0
    7.1453   -4.7644    0.0000 C   0  0  0  0  0  0  0  0  0  0  0  0
    6.4309   -4.3519    0.0000 C   0  0  0  0  0  0  0  0  0  0  0  0
    7.8598   -4.3519    0.0000 C   0  0  0  0  0  0  0  0  0  0  0  0
    7.8598   -6.8269    0.0000 O   0  0  0  0  0  0  0  0  0  0  0  0
    5.0019   -6.8269    0.0000 O   0  0  0  0  0  0  0  0  0  0  0  0
    6.4309   -9.3019    0.0000 O   0  0  0  0  0  0  0  0  0  0  0  0
    7.8598   -8.4769    0.0000 C   0  0  0  0  0  0  0  0  0  0  0  0
    8.5743   -8.0644    0.0000 C   0  0  0  0  0  0  0  0  0  0  0  0
    9.2888   -8.4769    0.0000 C   0  0  0  0  0  0  0  0  0  0  0  0
   10.0032   -8.0644    0.0000 C   0  0  0  0  0  0  0  0  0  0  0  0
    9.2888   -9.3019    0.0000 C   0  0  0  0  0  0  0  0  0  0  0  0
    5.0019   -8.4769    0.0000 C   0  0  0  0  0  0  0  0  0  0  0  0
    5.0019   -9.3019    0.0000 O   0  0  0  0  0  0  0  0  0  0  0  0
    4.2875   -8.0644    0.0000 C   0  0  0  0  0  0  0  0  0  0  0  0
    3.8750   -7.3499    0.0000 C   0  0  0  0  0  0  0  0  0  0  0  0
    3.7041   -8.6477    0.0000 C   0  0  0  0  0  0  0  0  0  0  0  0
    4.1166   -9.3622    0.0000 C   0  0  0  0  0  0  0  0  0  0  0  0
    5.7164   -9.2813    0.0000 C   0  0  0  0  0  0  0  0  0  0  0  0
    7.1660   -9.2813    0.0000 C   0  0  0  0  0  0  0  0  0  0  0  0
    6.4309   -9.8588    0.0000 C   0  0  0  0  0  0  0  0  0  0  0  0
    5.7164  -10.1063    0.0000 C   0  0  0  0  0  0  0  0  0  0  0  0
    5.0918   -9.8852    0.0000 C   0  0  0  0  0  0  0  0  0  0  0  0
    6.4309  -10.6837    0.0000 C   0  0  0  0  0  0  0  0  0  0  0  0
    5.0918  -10.7102    0.0000 C   0  0  0  0  0  0  0  0  0  0  0  0
    4.3773  -11.1227    0.0000 C   0  0  0  0  0  0  0  0  0  0  0  0
    5.7164  -11.0962    0.0000 C   0  0  0  0  0  0  0  0  0  0  0  0
    5.7164  -11.9213    0.0000 C   0  0  0  0  0  0  0  0  0  0  0  0
    5.0019  -12.3338    0.0000 C   0  0  0  0  0  0  0  0  0  0  0  0
    6.4309  -12.3338    0.0000 C   0  0  0  0  0  0  0  0  0  0  0  0
    4.3773  -11.9477    0.0000 C   0  0  0  0  0  0  0  0  0  0  0  0
    3.6628  -12.3602    0.0000 C   0  0  0  0  0  0  0  0  0  0  0  0
    4.7898  -12.6622    0.0000 C   0  0  0  0  0  0  0  0  0  0  0  0
  1  2  1  0  0  0  0
  2  3  1  0  0  0  0
  3  4  1  0  0  0  0
  4  5  1  0  0  0  0
  5  6  2  0  0  0  0
  6  1  1  0  0  0  0
  6  7  1  0  0  0  0
  7  8  1  0  0  0  0
  8  9  2  0  0  0  0
  9 10  1  0  0  0  0
  9 11  1  0  0  0  0
  5 12  1  0  0  0  0
  1 13  2  0  0  0  0
  3 14  2  0  0  0  0
  4 15  1  0  0  0  0
 15 16  1  0  0  0  0
 16 17  2  0  0  0  0
 17 18  1  0  0  0  0
 17 19  1  0  0  0  0
  2 20  1  0  0  0  0
 20 21  2  0  0  0  0
 20 22  1  0  0  0  0
 22 23  1  0  0  0  0
 22 24  1  0  0  0  0
 24 25  1  0  0  0  0
  2 26  1  0  0  0  0
  4 27  1  0  0  0  0
 26 28  1  0  0  0  0
 27 28  1  0  0  0  0
 26 29  1  0  0  0  0
 26 30  1  0  0  0  0
 28 31  1  0  0  0  0
 30 32  1  0  0  0  0
 32 33  1  0  0  0  0
 31 34  1  0  0  0  0
 34 35  2  0  0  0  0
 35 36  1  0  0  0  0
 35 37  1  0  0  0  0
 33 38  2  0  0  0  0
 38 39  1  0  0  0  0
 38 40  1  0  0  0  0
M  END
>  <cdx:fragmentId>
5

$$$$
