7476.cdx
  Mrv1902 05222410252D          

 11 11  0  0  0  0            999 V2000
    8.7879   -5.2671    0.0000 C   0  0  0  0  0  0  0  0  0  0  0  0
    9.5024   -5.6796    0.0000 C   0  0  0  0  0  0  0  0  0  0  0  0
    8.0735   -5.6796    0.0000 C   0  0  0  0  0  0  0  0  0  0  0  0
    7.3590   -5.2671    0.0000 C   0  0  0  0  0  0  0  0  0  0  0  0
    6.6445   -5.6796    0.0000 C   0  0  0  0  0  0  0  0  0  0  0  0
    6.6445   -6.5046    0.0000 C   0  0  0  0  0  0  0  0  0  0  0  0
    7.3590   -6.9171    0.0000 C   0  0  0  0  0  0  0  0  0  0  0  0
    8.0735   -6.5046    0.0000 C   0  0  0  0  0  0  0  0  0  0  0  0
    5.9301   -6.9171    0.0000 O   0  0  0  0  0  0  0  0  0  0  0  0
    5.2156   -6.5046    0.0000 C   0  0  0  0  0  0  0  0  0  0  0  0
    8.7879   -4.4421    0.0000 O   0  0  0  0  0  0  0  0  0  0  0  0
  1  2  1  0  0  0  0
  3  4  1  0  0  0  0
  4  5  2  0  0  0  0
  5  6  1  0  0  0  0
  6  7  2  0  0  0  0
  7  8  1  0  0  0  0
  3  8  2  0  0  0  0
  9 10  1  0  0  0  0
  6  9  1  0  0  0  0
  1  3  1  0  0  0  0
  1 11  2  0  0  0  0
M  END
>  <cdx:fragmentId>
9

$$$$
