747827.cdx
  Mrv1902 05222410262D          

 17 18  0  0  0  0            999 V2000
    6.7899   -4.3862    0.0000 C   0  0  0  0  0  0  0  0  0  0  0  0
    9.2352   -6.7506    0.0000 C   0  0  0  0  0  0  0  0  0  0  0  0
    5.6629   -7.9881    0.0000 C   0  0  0  0  0  0  0  0  0  0  0  0
    6.3774   -7.5756    0.0000 C   0  0  0  0  0  0  0  0  0  0  0  0
    7.0918   -7.9881    0.0000 C   0  0  0  0  0  0  0  0  0  0  0  0
    7.0918   -7.1631    0.0000 O   0  0  0  0  0  0  0  0  0  0  0  0
    5.9649   -4.3862    0.0000 O   0  0  0  0  0  0  0  0  0  0  0  0
    7.0918   -5.5131    0.0000 C   0  0  0  0  0  0  0  0  0  0  0  0
    7.8063   -5.1006    0.0000 C   0  0  0  0  0  0  0  0  0  0  0  0
    8.5208   -5.5131    0.0000 C   0  0  0  0  0  0  0  0  0  0  0  0
    8.5208   -6.3381    0.0000 C   0  0  0  0  0  0  0  0  0  0  0  0
    7.8063   -6.7506    0.0000 C   0  0  0  0  0  0  0  0  0  0  0  0
    7.0918   -6.3381    0.0000 C   0  0  1  0  0  0  0  0  0  0  0  0
    6.3774   -6.7506    0.0000 C   0  0  2  0  0  0  0  0  0  0  0  0
    5.6629   -6.3381    0.0000 C   0  0  0  0  0  0  0  0  0  0  0  0
    5.6629   -5.5131    0.0000 C   0  0  0  0  0  0  0  0  0  0  0  0
    6.3774   -5.1006    0.0000 C   0  0  1  0  0  0  0  0  0  0  0  0
 17  1  1  0  0  0  0
 11  2  2  0  0  0  0
 14  4  1  1  0  0  0
  4  3  1  0  0  0  0
  5  4  1  0  0  0  0
 13  6  1  1  0  0  0
 17  7  1  6  0  0  0
 13  8  1  0  0  0  0
 17  8  1  0  0  0  0
  9  8  1  0  0  0  0
 10  9  1  0  0  0  0
 11 10  1  0  0  0  0
 12 11  1  0  0  0  0
 13 12  1  0  0  0  0
 14 13  1  0  0  0  0
 15 14  1  0  0  0  0
 16 15  1  0  0  0  0
 17 16  1  0  0  0  0
M  END
>  <cdx:fragmentId>
5

$$$$
