91747869.cdx
  Mrv1902 05222410252D          

 16 17  0  0  0  0            999 V2000
    6.9076  -15.8652    0.0000 C   0  0  0  0  0  0  0  0  0  0  0  0
    6.1931  -15.4527    0.0000 C   0  0  0  0  0  0  0  0  0  0  0  0
    6.1931  -14.6277    0.0000 C   0  0  0  0  0  0  0  0  0  0  0  0
    6.9076  -14.2152    0.0000 C   0  0  0  0  0  0  0  0  0  0  0  0
    7.6220  -14.6277    0.0000 C   0  0  0  0  0  0  0  0  0  0  0  0
    8.3365  -14.2152    0.0000 C   0  0  2  0  0  0  0  0  0  0  0  0
    9.0510  -14.6277    0.0000 C   0  0  0  0  0  0  0  0  0  0  0  0
    9.0510  -15.4527    0.0000 C   0  0  0  0  0  0  0  0  0  0  0  0
    8.3365  -15.8652    0.0000 C   0  0  0  0  0  0  0  0  0  0  0  0
    7.6220  -15.4527    0.0000 C   0  0  0  0  0  0  0  0  0  0  0  0
    6.9076  -16.6902    0.0000 O   0  0  0  0  0  0  0  0  0  0  0  0
    7.6220  -12.9777    0.0000 C   0  0  0  0  0  0  0  0  0  0  0  0
    8.3365  -13.3902    0.0000 C   0  0  0  0  0  0  0  0  0  0  0  0
    9.0510  -12.9777    0.0000 C   0  0  0  0  0  0  0  0  0  0  0  0
    8.3365  -16.6902    0.0000 C   0  0  0  0  0  0  0  0  0  0  0  0
    5.4786  -14.2152    0.0000 C   0  0  0  0  0  0  0  0  0  0  0  0
  1  2  1  0  0  0  0
  2  3  1  0  0  0  0
  3  4  2  0  0  0  0
  4  5  1  0  0  0  0
  5  6  1  0  0  0  0
  6  7  1  0  0  0  0
  7  8  1  0  0  0  0
  8  9  2  0  0  0  0
  9 10  1  0  0  0  0
  1 10  1  0  0  0  0
  5 10  1  0  0  0  0
  1 11  1  0  0  0  0
 12 13  1  0  0  0  0
 13 14  1  0  0  0  0
  6 13  1  1  0  0  0
  9 15  1  0  0  0  0
  3 16  1  0  0  0  0
M  END
>  <cdx:groupId>
216788

>  <cdx:fragmentId>
216742

$$$$
