7479.cdx
  Mrv1902 05222410212D          

 11 11  0  0  0  0            999 V2000
    8.8161   -7.8626    0.0000 C   0  0  0  0  0  0  0  0  0  0  0  0
    8.1017   -7.4501    0.0000 C   0  0  0  0  0  0  0  0  0  0  0  0
    7.3872   -7.8626    0.0000 C   0  0  0  0  0  0  0  0  0  0  0  0
    6.6727   -7.4501    0.0000 C   0  0  0  0  0  0  0  0  0  0  0  0
    6.6727   -6.6251    0.0000 C   0  0  0  0  0  0  0  0  0  0  0  0
    7.3872   -6.2126    0.0000 C   0  0  0  0  0  0  0  0  0  0  0  0
    8.1017   -6.6251    0.0000 C   0  0  0  0  0  0  0  0  0  0  0  0
    9.5306   -7.4501    0.0000 O   0  0  0  0  0  0  0  0  0  0  0  0
    5.9582   -6.2126    0.0000 N   0  0  0  0  0  0  0  0  0  0  0  0
    5.9582   -5.3876    0.0000 C   0  0  0  0  0  0  0  0  0  0  0  0
    5.2438   -6.6251    0.0000 C   0  0  0  0  0  0  0  0  0  0  0  0
  1  2  1  0  0  0  0
  2  3  1  0  0  0  0
  3  4  2  0  0  0  0
  4  5  1  0  0  0  0
  5  6  2  0  0  0  0
  6  7  1  0  0  0  0
  2  7  2  0  0  0  0
  1  8  2  0  0  0  0
  9 10  1  0  0  0  0
  9 11  1  0  0  0  0
  5  9  1  0  0  0  0
M  END
>  <cdx:groupId>
35

>  <cdx:fragmentId>
5

$$$$
