74822.cdx
  Mrv1902 05222410202D          

 28 27  0  0  0  0            999 V2000
    2.2695   -9.0279    0.0000 C   0  0  0  0  0  0  0  0  0  0  0  0
    2.9839   -9.4404    0.0000 C   0  0  0  0  0  0  0  0  0  0  0  0
    3.6984   -9.0279    0.0000 C   0  0  0  0  0  0  0  0  0  0  0  0
    4.4129   -9.4404    0.0000 C   0  0  0  0  0  0  0  0  0  0  0  0
    5.1274   -9.0279    0.0000 C   0  0  0  0  0  0  0  0  0  0  0  0
    5.8418   -9.4404    0.0000 C   0  0  0  0  0  0  0  0  0  0  0  0
    6.5563   -9.0279    0.0000 C   0  0  0  0  0  0  0  0  0  0  0  0
    7.2708   -9.4404    0.0000 C   0  0  0  0  0  0  0  0  0  0  0  0
    7.9852   -9.0279    0.0000 C   0  0  0  0  0  0  0  0  0  0  0  0
    8.6997   -9.4404    0.0000 C   0  0  0  0  0  0  0  0  0  0  0  0
    9.4142   -9.0279    0.0000 C   0  0  0  0  0  0  0  0  0  0  0  0
   10.1287   -9.4404    0.0000 C   0  0  0  0  0  0  0  0  0  0  0  0
   10.8431   -9.0279    0.0000 C   0  0  0  0  0  0  0  0  0  0  0  0
   11.5576   -9.4404    0.0000 C   0  0  0  0  0  0  0  0  0  0  0  0
   12.2721   -9.0279    0.0000 C   0  0  0  0  0  0  0  0  0  0  0  0
   12.9865   -9.4404    0.0000 C   0  0  0  0  0  0  0  0  0  0  0  0
   13.7010   -9.0279    0.0000 C   0  0  0  0  0  0  0  0  0  0  0  0
   14.4155   -9.4404    0.0000 C   0  0  0  0  0  0  0  0  0  0  0  0
   15.1300   -9.0279    0.0000 C   0  0  0  0  0  0  0  0  0  0  0  0
   15.8444   -9.4404    0.0000 C   0  0  0  0  0  0  0  0  0  0  0  0
   16.5589   -9.0279    0.0000 C   0  0  0  0  0  0  0  0  0  0  0  0
   17.2734   -9.4404    0.0000 C   0  0  0  0  0  0  0  0  0  0  0  0
   17.9878   -9.0279    0.0000 C   0  0  0  0  0  0  0  0  0  0  0  0
   18.7023   -9.4404    0.0000 C   0  0  0  0  0  0  0  0  0  0  0  0
   19.4168   -9.0279    0.0000 C   0  0  0  0  0  0  0  0  0  0  0  0
   20.1312   -9.4404    0.0000 C   0  0  0  0  0  0  0  0  0  0  0  0
   20.8457   -9.0279    0.0000 C   0  0  0  0  0  0  0  0  0  0  0  0
    1.5550   -9.4404    0.0000 O   0  0  0  0  0  0  0  0  0  0  0  0
  1  2  1  0  0  0  0
  2  3  1  0  0  0  0
  3  4  1  0  0  0  0
  4  5  1  0  0  0  0
  5  6  1  0  0  0  0
  6  7  1  0  0  0  0
  7  8  1  0  0  0  0
  8  9  1  0  0  0  0
  9 10  1  0  0  0  0
 10 11  1  0  0  0  0
 11 12  1  0  0  0  0
 12 13  1  0  0  0  0
 13 14  1  0  0  0  0
 14 15  1  0  0  0  0
 15 16  1  0  0  0  0
 16 17  1  0  0  0  0
 17 18  1  0  0  0  0
 18 19  1  0  0  0  0
 19 20  1  0  0  0  0
 20 21  1  0  0  0  0
 21 22  1  0  0  0  0
 22 23  1  0  0  0  0
 23 24  1  0  0  0  0
 24 25  1  0  0  0  0
 25 26  1  0  0  0  0
 26 27  1  0  0  0  0
  1 28  1  0  0  0  0
M  END
>  <cdx:fragmentId>
5

$$$$
