748394.cdx
  Mrv1902 05222410242D          

 58 63  0  0  0  0            999 V2000
   11.7658   -6.1601    0.0000 C   0  0  0  0  0  0  0  0  0  0  0  0
   11.0512   -5.7478    0.0000 O   0  0  0  0  0  0  0  0  0  0  0  0
    6.0500   -6.1614    0.0000 C   0  0  0  0  0  0  0  0  0  0  0  0
    5.3355   -5.7491    0.0000 C   0  0  0  0  0  0  0  0  0  0  0  0
    6.0508   -9.4614    0.0000 O   0  0  0  0  0  0  0  0  0  0  0  0
    2.4652   -8.2021    0.0000 C   0  0  1  0  0  0  0  0  0  0  0  0
    3.1754   -8.6220    0.0000 C   0  0  1  0  0  0  0  0  0  0  0  0
   13.1955   -9.4598    0.0000 O   0  0  0  0  0  0  0  0  0  0  0  0
   11.7671  -11.9351    0.0000 C   0  0  0  0  0  0  0  0  0  0  0  0
    8.9092  -11.9358    0.0000 O   0  0  0  0  0  0  0  0  0  0  0  0
    3.8941   -8.2168    0.0000 C   0  0  2  0  0  0  0  0  0  0  0  0
    3.9026   -7.3919    0.0000 C   0  0  1  0  0  0  0  0  0  0  0  0
    3.1924   -6.9721    0.0000 O   0  0  0  0  0  0  0  0  0  0  0  0
    2.4737   -7.3772    0.0000 C   0  0  2  0  0  0  0  0  0  0  0  0
   13.1958  -11.1098    0.0000 O   0  0  0  0  0  0  0  0  0  0  0  0
   11.7663   -8.6351    0.0000 O   0  0  0  0  0  0  0  0  0  0  0  0
    7.4801  -11.1111    0.0000 C   0  0  0  0  0  0  0  0  0  0  0  0
    6.0497   -4.5114    0.0000 C   0  0  0  0  0  0  0  0  0  0  0  0
    5.3353   -4.9241    0.0000 C   0  0  0  0  0  0  0  0  0  0  0  0
    4.6207   -4.5118    0.0000 C   0  0  0  0  0  0  0  0  0  0  0  0
   11.7669  -11.1101    0.0000 C   0  0  1  0  0  0  0  0  0  0  0  0
   12.4813  -10.6975    0.0000 C   0  0  1  0  0  0  0  0  0  0  0  0
   12.4811   -9.8725    0.0000 C   0  0  2  0  0  0  0  0  0  0  0  0
   11.7665   -9.4601    0.0000 C   0  0  2  0  0  0  0  0  0  0  0  0
   10.3380  -11.1105    0.0000 O   0  0  0  0  0  0  0  0  0  0  0  0
   11.0523  -10.6978    0.0000 O   0  0  0  0  0  0  0  0  0  0  0  0
   11.0522   -9.8728    0.0000 C   0  0  1  0  0  0  0  0  0  0  0  0
   10.3376   -9.4605    0.0000 O   0  0  0  0  0  0  0  0  0  0  0  0
    8.1945  -10.6985    0.0000 C   0  0  1  0  0  0  0  0  0  0  0  0
    8.9090  -11.1108    0.0000 C   0  0  1  0  0  0  0  0  0  0  0  0
    9.6234  -10.6981    0.0000 C   0  0  2  0  0  0  0  0  0  0  0  0
    9.6232   -9.8731    0.0000 C   0  0  2  0  0  0  0  0  0  0  0  0
    7.4797   -9.4611    0.0000 O   0  0  0  0  0  0  0  0  0  0  0  0
    8.1943   -9.8735    0.0000 O   0  0  0  0  0  0  0  0  0  0  0  0
    8.9087   -9.4608    0.0000 C   0  0  1  0  0  0  0  0  0  0  0  0
   10.3370   -6.9855    0.0000 C   0  0  0  0  0  0  0  0  0  0  0  0
   10.3368   -6.1605    0.0000 C   0  0  0  0  0  0  0  0  0  0  0  0
    9.6223   -5.7481    0.0000 C   0  0  0  0  0  0  0  0  0  0  0  0
    8.9079   -6.1608    0.0000 C   0  0  0  0  0  0  0  0  0  0  0  0
    8.9085   -8.6358    0.0000 O   0  0  0  0  0  0  0  0  0  0  0  0
    9.6227   -7.3981    0.0000 C   0  0  0  0  0  0  0  0  0  0  0  0
    8.9081   -6.9858    0.0000 C   0  0  0  0  0  0  0  0  0  0  0  0
    7.4795   -8.6361    0.0000 C   0  0  0  0  0  0  0  0  0  0  0  0
    8.1939   -8.2235    0.0000 C   0  0  0  0  0  0  0  0  0  0  0  0
    8.1937   -7.3985    0.0000 C   0  0  0  0  0  0  0  0  0  0  0  0
    7.4792   -6.9861    0.0000 O   0  0  0  0  0  0  0  0  0  0  0  0
    6.0506   -8.6364    0.0000 C   0  0  0  0  0  0  0  0  0  0  0  0
    6.7650   -8.2238    0.0000 C   0  0  0  0  0  0  0  0  0  0  0  0
    6.7648   -7.3988    0.0000 C   0  0  0  0  0  0  0  0  0  0  0  0
    6.0502   -6.9864    0.0000 C   0  0  0  0  0  0  0  0  0  0  0  0
    5.3360   -8.2241    0.0000 C   0  0  0  0  0  0  0  0  0  0  0  0
    5.3358   -7.3991    0.0000 C   0  0  0  0  0  0  0  0  0  0  0  0
    4.6213   -6.9868    0.0000 O   0  0  0  0  0  0  0  0  0  0  0  0
    1.7635   -6.9573    0.0000 C   0  0  0  0  0  0  0  0  0  0  0  0
    3.1669   -9.4469    0.0000 O   0  0  0  0  0  0  0  0  0  0  0  0
    1.7466   -8.6073    0.0000 O   0  0  0  0  0  0  0  0  0  0  0  0
    4.6043   -8.6367    0.0000 O   0  0  0  0  0  0  0  0  0  0  0  0
    1.0491   -7.3698    0.0000 O   0  0  0  0  0  0  0  0  0  0  0  0
  2  1  1  0  0  0  0
 37  2  1  0  0  0  0
 47  5  1  0  0  0  0
 23  8  1  6  0  0  0
 21  9  1  6  0  0  0
 30 10  1  1  0  0  0
 22 15  1  1  0  0  0
 24 16  1  6  0  0  0
 29 17  1  6  0  0  0
  6  7  1  0  0  0  0
  7 11  1  0  0  0  0
 11 12  1  0  0  0  0
 12 13  1  0  0  0  0
  3  4  1  0  0  0  0
 18 19  1  0  0  0  0
 19  4  2  0  0  0  0
 50  3  1  0  0  0  0
 19 20  1  0  0  0  0
 21 26  1  0  0  0  0
 22 21  1  0  0  0  0
 23 22  1  0  0  0  0
 24 23  1  0  0  0  0
 27 24  1  0  0  0  0
 31 25  1  6  0  0  0
 27 26  1  0  0  0  0
 27 28  1  1  0  0  0
 32 28  1  6  0  0  0
 29 34  1  0  0  0  0
 30 29  1  0  0  0  0
 31 30  1  0  0  0  0
 32 31  1  0  0  0  0
 35 32  1  0  0  0  0
 33 43  2  0  0  0  0
 35 34  1  0  0  0  0
 35 40  1  1  0  0  0
 36 41  2  0  0  0  0
 37 36  1  0  0  0  0
 38 37  2  0  0  0  0
 39 38  1  0  0  0  0
 42 39  2  0  0  0  0
 40 44  1  0  0  0  0
 42 41  1  0  0  0  0
 45 42  1  0  0  0  0
 43 48  1  0  0  0  0
 44 43  1  0  0  0  0
 45 44  2  0  0  0  0
 46 45  1  0  0  0  0
 49 46  1  0  0  0  0
 47 51  2  0  0  0  0
 48 47  1  0  0  0  0
 49 48  2  0  0  0  0
 50 49  1  0  0  0  0
 52 50  2  0  0  0  0
 52 51  1  0  0  0  0
 53 52  1  0  0  0  0
 13 14  1  0  0  0  0
 14  6  1  0  0  0  0
 12 53  1  1  0  0  0
 14 54  1  1  0  0  0
  7 55  1  1  0  0  0
  6 56  1  6  0  0  0
 11 57  1  6  0  0  0
 54 58  1  0  0  0  0
M  END
>  <cdx:fragmentId>
5

$$$$
