5748375.cdx
  Mrv1902 05222410212D          

 33 36  0  0  0  0            999 V2000
    7.6007   -8.9678    0.0000 C   0  0  0  0  0  0  0  0  0  0  0  0
    7.6007   -8.1428    0.0000 C   0  0  0  0  0  0  0  0  0  0  0  0
    6.8863   -7.7303    0.0000 C   0  0  0  0  0  0  0  0  0  0  0  0
    6.1718   -8.1428    0.0000 C   0  0  0  0  0  0  0  0  0  0  0  0
    5.4573   -7.7303    0.0000 C   0  0  0  0  0  0  0  0  0  0  0  0
    4.7429   -8.1428    0.0000 C   0  0  0  0  0  0  0  0  0  0  0  0
    4.7429   -8.9678    0.0000 C   0  0  0  0  0  0  0  0  0  0  0  0
    5.4573   -9.3803    0.0000 C   0  0  0  0  0  0  0  0  0  0  0  0
    6.1718   -8.9678    0.0000 C   0  0  0  0  0  0  0  0  0  0  0  0
    6.8863   -9.3803    0.0000 O   0  0  0  0  0  0  0  0  0  0  0  0
    6.8863   -6.9053    0.0000 O   0  0  0  0  0  0  0  0  0  0  0  0
    4.0284   -9.3803    0.0000 O   0  0  0  0  0  0  0  0  0  0  0  0
    5.4573   -6.9053    0.0000 O   0  0  0  0  0  0  0  0  0  0  0  0
    8.3152   -9.3803    0.0000 C   0  0  0  0  0  0  0  0  0  0  0  0
    8.3152  -10.2053    0.0000 C   0  0  0  0  0  0  0  0  0  0  0  0
    9.0297  -10.6178    0.0000 C   0  0  0  0  0  0  0  0  0  0  0  0
    9.7441  -10.2053    0.0000 C   0  0  0  0  0  0  0  0  0  0  0  0
    9.7441   -9.3803    0.0000 C   0  0  0  0  0  0  0  0  0  0  0  0
    9.0297   -8.9678    0.0000 C   0  0  0  0  0  0  0  0  0  0  0  0
   10.4586  -10.6178    0.0000 O   0  0  0  0  0  0  0  0  0  0  0  0
    9.0297  -11.4428    0.0000 O   0  0  0  0  0  0  0  0  0  0  0  0
    8.3152   -7.7303    0.0000 O   0  0  0  0  0  0  0  0  0  0  0  0
    7.6478   -6.4203    0.0000 O   0  0  0  0  0  0  0  0  0  0  0  0
    8.3152   -6.9053    0.0000 C   0  0  2  0  0  0  0  0  0  0  0  0
    8.9826   -6.4203    0.0000 C   0  0  1  0  0  0  0  0  0  0  0  0
    8.7277   -5.6357    0.0000 C   0  0  2  0  0  0  0  0  0  0  0  0
    7.9027   -5.6357    0.0000 C   0  0  2  0  0  0  0  0  0  0  0  0
    9.2126   -4.9683    0.0000 O   0  0  0  0  0  0  0  0  0  0  0  0
    9.7673   -6.6753    0.0000 O   0  0  0  0  0  0  0  0  0  0  0  0
    7.4178   -4.9683    0.0000 C   0  0  1  0  0  0  0  0  0  0  0  0
    6.5973   -5.0545    0.0000 C   0  0  0  0  0  0  0  0  0  0  0  0
    6.1124   -4.3871    0.0000 O   0  0  0  0  0  0  0  0  0  0  0  0
    7.7533   -4.2146    0.0000 O   0  0  0  0  0  0  0  0  0  0  0  0
  1  2  2  0  0  0  0
  2  3  1  0  0  0  0
  3  4  1  0  0  0  0
  4  5  1  0  0  0  0
  5  6  2  0  0  0  0
  6  7  1  0  0  0  0
  7  8  2  0  0  0  0
  8  9  1  0  0  0  0
  4  9  2  0  0  0  0
  9 10  1  0  0  0  0
  1 10  1  0  0  0  0
  3 11  2  0  0  0  0
  7 12  1  0  0  0  0
  5 13  1  0  0  0  0
 14 15  1  0  0  0  0
 15 16  2  0  0  0  0
 16 17  1  0  0  0  0
 17 18  2  0  0  0  0
 18 19  1  0  0  0  0
 14 19  2  0  0  0  0
 17 20  1  0  0  0  0
 16 21  1  0  0  0  0
  1 14  1  0  0  0  0
 23 24  1  0  0  0  0
 24 25  1  0  0  0  0
 25 26  1  0  0  0  0
 26 27  1  0  0  0  0
 27 23  1  1  0  0  0
 26 28  1  6  0  0  0
 25 29  1  1  0  0  0
 30 31  1  0  0  0  0
 31 32  1  0  0  0  0
 30 33  1  1  0  0  0
 27 30  1  0  0  0  0
 24 22  1  6  0  0  0
  2 22  1  0  0  0  0
M  END
>  <cdx:groupId>
8031

>  <cdx:fragmentId>
7932

$$$$
