748481.cdx
  Mrv1902 05222410282D          

 37 40  0  0  0  0            999 V2000
    8.7876   -6.2392    0.0000 C   0  0  1  0  0  0  0  0  0  0  0  0
    9.5021   -5.8267    0.0000 C   0  0  1  0  0  0  0  0  0  0  0  0
    9.5021   -5.0017    0.0000 C   0  0  1  0  0  0  0  0  0  0  0  0
    8.7876   -4.5892    0.0000 C   0  0  0  0  0  0  0  0  0  0  0  0
    8.0731   -5.0017    0.0000 C   0  0  0  0  0  0  0  0  0  0  0  0
    8.0731   -5.8267    0.0000 O   0  0  0  0  0  0  0  0  0  0  0  0
   10.2867   -4.7468    0.0000 C   0  0  1  0  0  0  0  0  0  0  0  0
   10.7716   -5.4142    0.0000 C   0  0  0  0  0  0  0  0  0  0  0  0
   10.2867   -6.0816    0.0000 C   0  0  2  0  0  0  0  0  0  0  0  0
    9.5883   -4.1812    0.0000 O   0  0  0  0  0  0  0  0  0  0  0  0
   10.5416   -3.9621    0.0000 O   0  0  0  0  0  0  0  0  0  0  0  0
   10.8998   -6.6337    0.0000 O   0  0  0  0  0  0  0  0  0  0  0  0
    8.7876   -7.0642    0.0000 O   0  0  0  0  0  0  0  0  0  0  0  0
    7.3586   -7.0642    0.0000 O   0  0  0  0  0  0  0  0  0  0  0  0
    8.0731   -7.4767    0.0000 C   0  0  2  0  0  0  0  0  0  0  0  0
    8.0731   -8.3017    0.0000 C   0  0  1  0  0  0  0  0  0  0  0  0
    7.3586   -8.7142    0.0000 C   0  0  2  0  0  0  0  0  0  0  0  0
    6.6442   -8.3017    0.0000 C   0  0  1  0  0  0  0  0  0  0  0  0
    6.6442   -7.4767    0.0000 C   0  0  1  0  0  0  0  0  0  0  0  0
    5.9297   -7.0642    0.0000 C   0  0  0  0  0  0  0  0  0  0  0  0
    5.2152   -7.4767    0.0000 O   0  0  0  0  0  0  0  0  0  0  0  0
    5.9297   -8.7142    0.0000 O   0  0  0  0  0  0  0  0  0  0  0  0
    7.3586   -9.5392    0.0000 O   0  0  0  0  0  0  0  0  0  0  0  0
    8.7876   -8.7142    0.0000 O   0  0  0  0  0  0  0  0  0  0  0  0
   10.1151   -6.8886    0.0000 C   0  0  0  0  0  0  0  0  0  0  0  0
    9.5883   -6.6472    0.0000 H   0  0  0  0  0  0  0  0  0  0  0  0
    4.5008   -7.0642    0.0000 C   0  0  2  0  0  0  0  0  0  0  0  0
    4.5008   -6.2392    0.0000 O   0  0  0  0  0  0  0  0  0  0  0  0
    3.7863   -5.8267    0.0000 C   0  0  1  0  0  0  0  0  0  0  0  0
    3.0718   -6.2392    0.0000 C   0  0  2  0  0  0  0  0  0  0  0  0
    3.0718   -7.0642    0.0000 C   0  0  1  0  0  0  0  0  0  0  0  0
    3.7863   -7.4767    0.0000 C   0  0  1  0  0  0  0  0  0  0  0  0
    3.7863   -5.0017    0.0000 C   0  0  0  0  0  0  0  0  0  0  0  0
    2.3573   -7.4767    0.0000 O   0  0  0  0  0  0  0  0  0  0  0  0
    3.7863   -8.3017    0.0000 O   0  0  0  0  0  0  0  0  0  0  0  0
    2.3573   -5.8267    0.0000 O   0  0  0  0  0  0  0  0  0  0  0  0
    3.0718   -4.5892    0.0000 O   0  0  0  0  0  0  0  0  0  0  0  0
  1  2  1  0  0  0  0
  2  3  1  0  0  0  0
  3  4  1  0  0  0  0
  4  5  2  0  0  0  0
  5  6  1  0  0  0  0
  1  6  1  0  0  0  0
  7  8  1  0  0  0  0
  8  9  1  0  0  0  0
  9  2  1  0  0  0  0
  7  3  1  0  0  0  0
  3 10  1  6  0  0  0
  7 11  1  6  0  0  0
  9 12  1  6  0  0  0
 14 15  1  0  0  0  0
 15 16  1  0  0  0  0
 16 17  1  0  0  0  0
 17 18  1  0  0  0  0
 18 19  1  0  0  0  0
 14 19  1  0  0  0  0
 20 21  1  0  0  0  0
 19 20  1  1  0  0  0
 18 22  1  6  0  0  0
 17 23  1  1  0  0  0
 16 24  1  6  0  0  0
 15 13  1  1  0  0  0
  1 13  1  6  0  0  0
  9 25  1  0  0  0  0
  2 26  1  6  0  0  0
 27 21  1  1  0  0  0
 27 28  1  0  0  0  0
 28 29  1  0  0  0  0
 29 30  1  0  0  0  0
 30 31  1  0  0  0  0
 31 32  1  0  0  0  0
 32 27  1  0  0  0  0
 29 33  1  1  0  0  0
 31 34  1  1  0  0  0
 32 35  1  6  0  0  0
 30 36  1  6  0  0  0
 33 37  1  0  0  0  0
M  END
>  <cdx:fragmentId>
5

$$$$
