748448.cdx
  Mrv1902 05222410192D          

 59 64  0  0  0  0            999 V2000
   10.4474  -10.6892    0.0000 O   0  0  0  0  0  0  0  0  0  0  0  0
    9.7282  -11.9239    0.0000 O   0  0  0  0  0  0  0  0  0  0  0  0
   10.4442  -11.5142    0.0000 C   0  0  2  0  0  0  0  0  0  0  0  0
   11.1571  -11.9294    0.0000 C   0  0  1  0  0  0  0  0  0  0  0  0
   11.1540  -12.7544    0.0000 C   0  0  2  0  0  0  0  0  0  0  0  0
   10.4379  -13.1641    0.0000 C   0  0  2  0  0  0  0  0  0  0  0  0
    9.7250  -12.7489    0.0000 C   0  0  1  0  0  0  0  0  0  0  0  0
    9.0090  -13.1587    0.0000 C   0  0  0  0  0  0  0  0  0  0  0  0
    9.0059  -13.9837    0.0000 O   0  0  0  0  0  0  0  0  0  0  0  0
   10.4348  -13.9891    0.0000 O   0  0  0  0  0  0  0  0  0  0  0  0
   11.8669  -13.1696    0.0000 O   0  0  0  0  0  0  0  0  0  0  0  0
   11.8732  -11.5196    0.0000 O   0  0  0  0  0  0  0  0  0  0  0  0
   10.4537   -9.0392    0.0000 O   0  0  0  0  0  0  0  0  0  0  0  0
    9.0153  -11.5087    0.0000 O   0  0  0  0  0  0  0  0  0  0  0  0
    7.5895  -10.6783    0.0000 C   0  0  0  0  0  0  0  0  0  0  0  0
    8.3055  -10.2685    0.0000 C   0  0  1  0  0  0  0  0  0  0  0  0
    9.0184  -10.6837    0.0000 C   0  0  1  0  0  0  0  0  0  0  0  0
    9.7345  -10.2739    0.0000 C   0  0  2  0  0  0  0  0  0  0  0  0
    9.7376   -9.4489    0.0000 C   0  0  2  0  0  0  0  0  0  0  0  0
    9.0247   -9.0337    0.0000 C   0  0  1  0  0  0  0  0  0  0  0  0
    8.3087   -9.4435    0.0000 O   0  0  0  0  0  0  0  0  0  0  0  0
    9.0279   -8.2087    0.0000 O   0  0  0  0  0  0  0  0  0  0  0  0
    6.1669   -9.0228    0.0000 O   0  0  0  0  0  0  0  0  0  0  0  0
   11.8952   -5.7446    0.0000 C   0  0  0  0  0  0  0  0  0  0  0  0
   11.1823   -5.3294    0.0000 O   0  0  0  0  0  0  0  0  0  0  0  0
    9.0373   -5.7337    0.0000 C   0  0  0  0  0  0  0  0  0  0  0  0
    9.7533   -5.3240    0.0000 C   0  0  0  0  0  0  0  0  0  0  0  0
   10.4662   -5.7392    0.0000 C   0  0  0  0  0  0  0  0  0  0  0  0
   10.4631   -6.5642    0.0000 C   0  0  0  0  0  0  0  0  0  0  0  0
    9.7471   -6.9740    0.0000 C   0  0  0  0  0  0  0  0  0  0  0  0
    9.0342   -6.5587    0.0000 C   0  0  0  0  0  0  0  0  0  0  0  0
    4.7568   -4.0674    0.0000 C   0  0  0  0  0  0  0  0  0  0  0  0
    6.1857   -4.0729    0.0000 C   0  0  0  0  0  0  0  0  0  0  0  0
    5.4697   -4.4826    0.0000 C   0  0  0  0  0  0  0  0  0  0  0  0
    5.4666   -5.3076    0.0000 C   0  0  0  0  0  0  0  0  0  0  0  0
    6.1794   -5.7229    0.0000 C   0  0  0  0  0  0  0  0  0  0  0  0
    4.7411   -8.1924    0.0000 O   0  0  0  0  0  0  0  0  0  0  0  0
    3.3090   -9.0119    0.0000 O   0  0  0  0  0  0  0  0  0  0  0  0
    1.8832   -8.1815    0.0000 O   0  0  0  0  0  0  0  0  0  0  0  0
    1.1735   -6.9413    0.0000 O   0  0  0  0  0  0  0  0  0  0  0  0
    1.8895   -6.5315    0.0000 C   0  0  0  0  0  0  0  0  0  0  0  0
    2.6024   -6.9467    0.0000 C   0  0  2  0  0  0  0  0  0  0  0  0
    2.5993   -7.7717    0.0000 C   0  0  2  0  0  0  0  0  0  0  0  0
    3.3121   -8.1869    0.0000 C   0  0  1  0  0  0  0  0  0  0  0  0
    4.0282   -7.7772    0.0000 C   0  0  2  0  0  0  0  0  0  0  0  0
    4.0313   -6.9522    0.0000 C   0  0  1  0  0  0  0  0  0  0  0  0
    3.3184   -6.5370    0.0000 O   0  0  0  0  0  0  0  0  0  0  0  0
    4.7474   -6.5424    0.0000 O   0  0  0  0  0  0  0  0  0  0  0  0
    7.5958   -9.0283    0.0000 O   0  0  0  0  0  0  0  0  0  0  0  0
    7.6052   -6.5533    0.0000 O   0  0  0  0  0  0  0  0  0  0  0  0
    6.8892   -6.9631    0.0000 C   0  0  0  0  0  0  0  0  0  0  0  0
    6.1763   -6.5478    0.0000 C   0  0  0  0  0  0  0  0  0  0  0  0
    5.4603   -6.9576    0.0000 C   0  0  0  0  0  0  0  0  0  0  0  0
    5.4571   -7.7826    0.0000 C   0  0  0  0  0  0  0  0  0  0  0  0
    6.1700   -8.1978    0.0000 C   0  0  0  0  0  0  0  0  0  0  0  0
    6.8861   -7.7881    0.0000 C   0  0  0  0  0  0  0  0  0  0  0  0
    7.5989   -8.2033    0.0000 C   0  0  0  0  0  0  0  0  0  0  0  0
    8.3150   -7.7935    0.0000 C   0  0  0  0  0  0  0  0  0  0  0  0
    8.3181   -6.9685    0.0000 C   0  0  0  0  0  0  0  0  0  0  0  0
 58 22  1  0  0  0  0
 20 22  1  1  0  0  0
 19 13  1  6  0  0  0
 17 14  1  1  0  0  0
 16 15  1  6  0  0  0
 18  1  1  6  0  0  0
 21 16  1  0  0  0  0
 17 16  1  0  0  0  0
 18 17  1  0  0  0  0
 19 18  1  0  0  0  0
 20 19  1  0  0  0  0
 21 20  1  0  0  0  0
 55 23  1  0  0  0  0
 59 31  1  0  0  0  0
 28 25  1  0  0  0  0
 25 24  1  0  0  0  0
 31 26  2  0  0  0  0
 27 26  1  0  0  0  0
 28 27  2  0  0  0  0
 29 28  1  0  0  0  0
 30 29  2  0  0  0  0
 31 30  1  0  0  0  0
 52 36  1  0  0  0  0
 34 32  1  0  0  0  0
 34 33  1  0  0  0  0
 35 34  2  0  0  0  0
 36 35  1  0  0  0  0
 53 48  1  0  0  0  0
 46 48  1  1  0  0  0
 45 37  1  6  0  0  0
 44 38  1  1  0  0  0
 43 39  1  6  0  0  0
 42 41  1  1  0  0  0
 41 40  1  0  0  0  0
 47 42  1  0  0  0  0
 43 42  1  0  0  0  0
 44 43  1  0  0  0  0
 45 44  1  0  0  0  0
 46 45  1  0  0  0  0
 47 46  1  0  0  0  0
 57 49  2  0  0  0  0
 59 50  1  0  0  0  0
 51 50  1  0  0  0  0
 56 51  2  0  0  0  0
 52 51  1  0  0  0  0
 53 52  2  0  0  0  0
 54 53  1  0  0  0  0
 55 54  2  0  0  0  0
 56 55  1  0  0  0  0
 57 56  1  0  0  0  0
 58 57  1  0  0  0  0
 59 58  2  0  0  0  0
  2  3  1  0  0  0  0
  3  4  1  0  0  0  0
  4  5  1  0  0  0  0
  5  6  1  0  0  0  0
  6  7  1  0  0  0  0
  2  7  1  0  0  0  0
  8  9  1  0  0  0  0
  7  8  1  1  0  0  0
  6 10  1  1  0  0  0
  5 11  1  1  0  0  0
  4 12  1  6  0  0  0
  3  1  1  1  0  0  0
M  END
>  <cdx:groupId>
8752

>  <cdx:fragmentId>
8597

$$$$
