748480.cdx
  Mrv1902 05222410282D          

 26 28  0  0  0  0            999 V2000
    8.1551   -6.1292    0.0000 C   0  0  1  0  0  0  0  0  0  0  0  0
    8.8696   -5.7167    0.0000 C   0  0  1  0  0  0  0  0  0  0  0  0
    8.8696   -4.8917    0.0000 C   0  0  1  0  0  0  0  0  0  0  0  0
    8.1551   -4.4792    0.0000 C   0  0  0  0  0  0  0  0  0  0  0  0
    7.4406   -4.8917    0.0000 C   0  0  0  0  0  0  0  0  0  0  0  0
    7.4406   -5.7167    0.0000 O   0  0  0  0  0  0  0  0  0  0  0  0
    9.6542   -4.6368    0.0000 C   0  0  1  0  0  0  0  0  0  0  0  0
   10.1391   -5.3042    0.0000 C   0  0  0  0  0  0  0  0  0  0  0  0
    9.6542   -5.9716    0.0000 C   0  0  2  0  0  0  0  0  0  0  0  0
    8.9558   -4.0712    0.0000 O   0  0  0  0  0  0  0  0  0  0  0  0
    9.9091   -3.8521    0.0000 O   0  0  0  0  0  0  0  0  0  0  0  0
   10.2673   -6.5237    0.0000 O   0  0  0  0  0  0  0  0  0  0  0  0
    8.1551   -6.9542    0.0000 O   0  0  0  0  0  0  0  0  0  0  0  0
    6.7261   -6.9542    0.0000 O   0  0  0  0  0  0  0  0  0  0  0  0
    7.4406   -7.3667    0.0000 C   0  0  2  0  0  0  0  0  0  0  0  0
    7.4406   -8.1917    0.0000 C   0  0  1  0  0  0  0  0  0  0  0  0
    6.7261   -8.6042    0.0000 C   0  0  2  0  0  0  0  0  0  0  0  0
    6.0117   -8.1917    0.0000 C   0  0  1  0  0  0  0  0  0  0  0  0
    6.0117   -7.3667    0.0000 C   0  0  1  0  0  0  0  0  0  0  0  0
    5.2972   -6.9542    0.0000 C   0  0  0  0  0  0  0  0  0  0  0  0
    4.5827   -7.3667    0.0000 O   0  0  0  0  0  0  0  0  0  0  0  0
    5.2972   -8.6042    0.0000 O   0  0  0  0  0  0  0  0  0  0  0  0
    6.7261   -9.4292    0.0000 O   0  0  0  0  0  0  0  0  0  0  0  0
    8.1551   -8.6042    0.0000 O   0  0  0  0  0  0  0  0  0  0  0  0
    9.4826   -6.7786    0.0000 C   0  0  0  0  0  0  0  0  0  0  0  0
    8.9558   -6.5372    0.0000 H   0  0  0  0  0  0  0  0  0  0  0  0
  1  2  1  0  0  0  0
  2  3  1  0  0  0  0
  3  4  1  0  0  0  0
  4  5  2  0  0  0  0
  5  6  1  0  0  0  0
  1  6  1  0  0  0  0
  7  8  1  0  0  0  0
  8  9  1  0  0  0  0
  9  2  1  0  0  0  0
  7  3  1  0  0  0  0
  3 10  1  6  0  0  0
  7 11  1  6  0  0  0
  9 12  1  6  0  0  0
 14 15  1  0  0  0  0
 15 16  1  0  0  0  0
 16 17  1  0  0  0  0
 17 18  1  0  0  0  0
 18 19  1  0  0  0  0
 14 19  1  0  0  0  0
 20 21  1  0  0  0  0
 19 20  1  1  0  0  0
 18 22  1  6  0  0  0
 17 23  1  1  0  0  0
 16 24  1  6  0  0  0
 15 13  1  1  0  0  0
  1 13  1  6  0  0  0
  9 25  1  0  0  0  0
  2 26  1  6  0  0  0
M  END
>  <cdx:groupId>
79

>  <cdx:fragmentId>
5

$$$$
