7485.cdx
  Mrv1902 05222410202D          

 25 26  0  0  0  0            999 V2000
    5.0152   -8.9100    0.0000 C   0  0  0  0  0  0  0  0  0  0  0  0
    5.0152   -9.7350    0.0000 C   0  0  0  0  0  0  0  0  0  0  0  0
    5.7296  -10.1475    0.0000 C   0  0  1  0  0  0  0  0  0  0  0  0
    6.4441   -9.7350    0.0000 C   0  0  1  0  0  0  0  0  0  0  0  0
    6.4441   -8.9100    0.0000 C   0  0  2  0  0  0  0  0  0  0  0  0
    5.7296   -8.4975    0.0000 C   0  0  0  0  0  0  0  0  0  0  0  0
    7.1586  -10.1475    0.0000 C   0  0  0  0  0  0  0  0  0  0  0  0
    7.8730   -9.7350    0.0000 C   0  0  0  0  0  0  0  0  0  0  0  0
    7.8730   -8.9100    0.0000 C   0  0  0  0  0  0  0  0  0  0  0  0
    7.1586   -8.4975    0.0000 C   0  0  2  0  0  0  0  0  0  0  0  0
    8.5875   -8.4975    0.0000 C   0  0  0  0  0  0  0  0  0  0  0  0
    7.1586   -7.6725    0.0000 C   0  0  0  0  0  0  0  0  0  0  0  0
    7.8730   -7.2600    0.0000 C   0  0  0  0  0  0  0  0  0  0  0  0
    7.8730   -4.7850    0.0000 O   0  0  0  0  0  0  0  0  0  0  0  0
    9.3020   -4.7850    0.0000 O   0  0  0  0  0  0  0  0  0  0  0  0
    8.5875   -5.1975    0.0000 C   0  0  0  0  0  0  0  0  0  0  0  0
    7.1586   -6.0225    0.0000 C   0  0  0  0  0  0  0  0  0  0  0  0
    8.5875   -6.0225    0.0000 C   0  0  0  0  0  0  0  0  0  0  0  0
    7.8730   -6.4350    0.0000 C   0  0  0  0  0  0  0  0  0  0  0  0
    6.4441   -8.0850    0.0000 C   0  0  0  0  0  0  0  0  0  0  0  0
    5.3171  -10.8620    0.0000 C   0  0  0  0  0  0  0  0  0  0  0  0
    6.1421  -10.8620    0.0000 C   0  0  0  0  0  0  0  0  0  0  0  0
    6.4441  -10.5600    0.0000 H   0  0  0  0  0  0  0  0  0  0  0  0
    7.8730   -8.0850    0.0000 H   0  0  0  0  0  0  0  0  0  0  0  0
    5.7296  -11.5764    0.0000 O   0  0  0  0  0  0  0  0  0  0  0  0
  1  2  1  0  0  0  0
  2  3  1  0  0  0  0
  3  4  1  0  0  0  0
  4  5  1  0  0  0  0
  5  6  1  0  0  0  0
  6  1  1  0  0  0  0
  4  7  1  0  0  0  0
  7  8  1  0  0  0  0
  8  9  1  0  0  0  0
  9 10  1  0  0  0  0
 10  5  1  0  0  0  0
  9 11  2  0  0  0  0
 10 12  1  0  0  0  0
 12 13  1  0  0  0  0
 16 14  2  0  0  0  0
 13 19  1  0  0  0  0
 16 15  1  0  0  0  0
 18 16  1  0  0  0  0
 19 17  1  0  0  0  0
 19 18  2  0  0  0  0
  5 20  1  1  0  0  0
  3 21  1  1  0  0  0
  3 22  1  6  0  0  0
  4 23  1  6  0  0  0
 10 24  1  6  0  0  0
 21 25  1  0  0  0  0
M  END
>  <cdx:fragmentId>
5

$$$$
