91748679.cdx
  Mrv1902 05222410262D          

 14 14  0  0  0  0            999 V2000
    5.4821  -14.8909    0.0000 C   0  0  0  0  0  0  0  0  0  0  0  0
    4.7676  -15.3034    0.0000 C   0  0  0  0  0  0  0  0  0  0  0  0
    5.4821  -14.0659    0.0000 O   0  0  0  0  0  0  0  0  0  0  0  0
    6.1965  -15.3034    0.0000 O   0  0  0  0  0  0  0  0  0  0  0  0
    6.9110  -14.8909    0.0000 C   0  0  0  0  0  0  0  0  0  0  0  0
    7.6255  -15.3034    0.0000 C   0  0  0  0  0  0  0  0  0  0  0  0
    8.3400  -14.8909    0.0000 C   0  0  0  0  0  0  0  0  0  0  0  0
    8.3400  -14.0659    0.0000 C   0  0  0  0  0  0  0  0  0  0  0  0
    7.6255  -13.6534    0.0000 C   0  0  0  0  0  0  0  0  0  0  0  0
    6.9110  -14.0659    0.0000 C   0  0  0  0  0  0  0  0  0  0  0  0
    9.0544  -16.1284    0.0000 C   0  0  0  0  0  0  0  0  0  0  0  0
    9.0544  -15.3034    0.0000 C   0  0  0  0  0  0  0  0  0  0  0  0
    9.7689  -14.8909    0.0000 C   0  0  0  0  0  0  0  0  0  0  0  0
    6.1965  -13.6534    0.0000 C   0  0  0  0  0  0  0  0  0  0  0  0
  1  2  1  0  0  0  0
  1  3  2  0  0  0  0
  1  4  1  0  0  0  0
  5  6  1  0  0  0  0
  6  7  2  0  0  0  0
  7  8  1  0  0  0  0
  8  9  1  0  0  0  0
  9 10  1  0  0  0  0
  5 10  1  0  0  0  0
 11 12  1  0  0  0  0
 12 13  1  0  0  0  0
  7 12  1  0  0  0  0
 10 14  1  0  0  0  0
  4  5  1  0  0  0  0
M  END
>  <cdx:groupId>
216997

>  <cdx:fragmentId>
216966

$$$$
