5748605.cdx
  Mrv1902 05222410212D          

 22 24  0  0  0  0            999 V2000
    7.3930   -8.8599    0.0000 C   0  0  0  0  0  0  0  0  0  0  0  0
    7.3930   -8.0349    0.0000 C   0  0  0  0  0  0  0  0  0  0  0  0
    6.6785   -7.6224    0.0000 C   0  0  0  0  0  0  0  0  0  0  0  0
    5.9640   -8.0349    0.0000 C   0  0  0  0  0  0  0  0  0  0  0  0
    5.2496   -7.6224    0.0000 C   0  0  0  0  0  0  0  0  0  0  0  0
    4.5351   -8.0349    0.0000 C   0  0  0  0  0  0  0  0  0  0  0  0
    4.5351   -8.8599    0.0000 C   0  0  0  0  0  0  0  0  0  0  0  0
    5.2496   -9.2724    0.0000 C   0  0  0  0  0  0  0  0  0  0  0  0
    5.9640   -8.8599    0.0000 C   0  0  0  0  0  0  0  0  0  0  0  0
    6.6785   -9.2724    0.0000 O   0  0  0  0  0  0  0  0  0  0  0  0
    6.6785   -6.7974    0.0000 O   0  0  0  0  0  0  0  0  0  0  0  0
    3.8206   -9.2724    0.0000 O   0  0  0  0  0  0  0  0  0  0  0  0
    8.1075   -7.6224    0.0000 C   0  0  0  0  0  0  0  0  0  0  0  0
    8.8219   -8.0349    0.0000 C   0  0  0  0  0  0  0  0  0  0  0  0
    9.5364   -7.6224    0.0000 C   0  0  0  0  0  0  0  0  0  0  0  0
    9.5364   -6.7974    0.0000 C   0  0  0  0  0  0  0  0  0  0  0  0
    8.8219   -6.3849    0.0000 C   0  0  0  0  0  0  0  0  0  0  0  0
    8.1075   -6.7974    0.0000 C   0  0  0  0  0  0  0  0  0  0  0  0
   10.2509   -6.3849    0.0000 O   0  0  0  0  0  0  0  0  0  0  0  0
   10.9653   -6.7974    0.0000 C   0  0  0  0  0  0  0  0  0  0  0  0
   10.2509   -8.0349    0.0000 O   0  0  0  0  0  0  0  0  0  0  0  0
   10.9653   -7.6224    0.0000 C   0  0  0  0  0  0  0  0  0  0  0  0
  1  2  2  0  0  0  0
  2  3  1  0  0  0  0
  3  4  1  0  0  0  0
  4  5  1  0  0  0  0
  5  6  2  0  0  0  0
  6  7  1  0  0  0  0
  7  8  2  0  0  0  0
  8  9  1  0  0  0  0
  4  9  2  0  0  0  0
  9 10  1  0  0  0  0
  1 10  1  0  0  0  0
  3 11  2  0  0  0  0
  7 12  1  0  0  0  0
 13 14  1  0  0  0  0
 14 15  2  0  0  0  0
 15 16  1  0  0  0  0
 16 17  2  0  0  0  0
 17 18  1  0  0  0  0
 13 18  2  0  0  0  0
 19 20  1  0  0  0  0
 16 19  1  0  0  0  0
 21 22  1  0  0  0  0
 15 21  1  0  0  0  0
  2 13  1  0  0  0  0
M  END
>  <cdx:groupId>
8963

>  <cdx:fragmentId>
8898

$$$$
