91748781.cdx
  Mrv1902 05222410252D          

 17 19  0  0  0  0            999 V2000
    6.6663   -7.2484    0.0000 C   0  0  0  0  0  0  0  0  0  0  0  0
    7.3807   -6.8359    0.0000 C   0  0  0  0  0  0  0  0  0  0  0  0
    8.0257   -7.3503    0.0000 C   0  0  0  0  0  0  0  0  0  0  0  0
    8.8301   -7.1667    0.0000 C   0  0  0  0  0  0  0  0  0  0  0  0
    9.1880   -6.4234    0.0000 C   0  0  0  0  0  0  0  0  0  0  0  0
    8.8301   -5.6801    0.0000 C   0  0  0  0  0  0  0  0  0  0  0  0
    8.0257   -5.4965    0.0000 C   0  0  0  0  0  0  0  0  0  0  0  0
    7.3807   -6.0109    0.0000 C   0  0  2  0  0  0  0  0  0  0  0  0
    6.6663   -5.5984    0.0000 C   0  0  0  0  0  0  0  0  0  0  0  0
    5.9518   -6.0109    0.0000 C   0  0  0  0  0  0  0  0  0  0  0  0
    5.9518   -6.8359    0.0000 C   0  0  0  0  0  0  0  0  0  0  0  0
    6.6663   -4.7734    0.0000 O   0  0  0  0  0  0  0  0  0  0  0  0
    5.2373   -7.2484    0.0000 C   0  0  0  0  0  0  0  0  0  0  0  0
    8.9530   -4.8643    0.0000 C   0  0  0  0  0  0  0  0  0  0  0  0
    9.5980   -5.3787    0.0000 C   0  0  0  0  0  0  0  0  0  0  0  0
    7.3807   -7.6609    0.0000 C   0  0  0  0  0  0  0  0  0  0  0  0
    7.3807   -5.1859    0.0000 H   0  0  0  0  0  0  0  0  0  0  0  0
  1  2  1  0  0  0  0
  2  3  1  0  0  0  0
  3  4  1  0  0  0  0
  4  5  1  0  0  0  0
  5  6  1  0  0  0  0
  6  7  1  0  0  0  0
  7  8  1  0  0  0  0
  8  9  1  0  0  0  0
  9 10  1  0  0  0  0
 10 11  2  0  0  0  0
  1 11  1  0  0  0  0
  1  7  1  0  0  0  0
  2  8  1  0  0  0  0
  9 12  1  0  0  0  0
 11 13  1  0  0  0  0
  6 14  1  0  0  0  0
  6 15  1  0  0  0  0
  2 16  1  0  0  0  0
  8 17  1  6  0  0  0
M  END
>  <cdx:groupId>
55

>  <cdx:fragmentId>
5

$$$$
