91748735.cdx
  Mrv1902 05222410282D          

 14 15  0  0  0  0            999 V2000
    6.9594  -15.8627    0.0000 C   0  0  0  0  0  0  0  0  0  0  0  0
    6.2449  -15.4502    0.0000 C   0  0  1  0  0  0  0  0  0  0  0  0
    6.2449  -14.6252    0.0000 C   0  0  0  0  0  0  0  0  0  0  0  0
    6.9594  -14.2127    0.0000 C   0  0  0  0  0  0  0  0  0  0  0  0
    7.6739  -14.6252    0.0000 C   0  0  0  0  0  0  0  0  0  0  0  0
    8.3883  -14.2127    0.0000 C   0  0  0  0  0  0  0  0  0  0  0  0
    9.1028  -14.6252    0.0000 C   0  0  0  0  0  0  0  0  0  0  0  0
    9.1028  -15.4502    0.0000 C   0  0  0  0  0  0  0  0  0  0  0  0
    8.3883  -15.8627    0.0000 C   0  0  0  0  0  0  0  0  0  0  0  0
    7.6739  -15.4502    0.0000 C   0  0  0  0  0  0  0  0  0  0  0  0
    5.8324  -16.1647    0.0000 O   0  0  0  0  0  0  0  0  0  0  0  0
    7.9758  -13.4982    0.0000 C   0  0  0  0  0  0  0  0  0  0  0  0
    8.8008  -13.4982    0.0000 C   0  0  0  0  0  0  0  0  0  0  0  0
    5.4199  -15.4502    0.0000 C   0  0  0  0  0  0  0  0  0  0  0  0
  1  2  1  0  0  0  0
  2  3  1  0  0  0  0
  3  4  1  0  0  0  0
  4  5  1  0  0  0  0
  5  6  1  0  0  0  0
  6  7  1  0  0  0  0
  7  8  1  0  0  0  0
  8  9  1  0  0  0  0
  9 10  2  0  0  0  0
  1 10  1  0  0  0  0
  5 10  1  0  0  0  0
  2 11  1  6  0  0  0
  6 12  1  0  0  0  0
  6 13  1  0  0  0  0
  2 14  1  1  0  0  0
M  END
>  <cdx:groupId>
217093

>  <cdx:fragmentId>
217053

$$$$
