748773.cdx
  Mrv1902 05222410212D          

 17 18  0  0  0  0            999 V2000
    5.7977  -10.0740    0.0000 C   0  0  0  0  0  0  0  0  0  0  0  0
    5.3962   -9.3533    0.0000 C   0  0  0  0  0  0  0  0  0  0  0  0
    5.8196   -8.6453    0.0000 C   0  0  0  0  0  0  0  0  0  0  0  0
    5.4181   -7.9246    0.0000 C   0  0  0  0  0  0  0  0  0  0  0  0
    8.9311  -10.1451    0.0000 C   0  0  0  0  0  0  0  0  0  0  0  0
    7.8949   -9.9147    0.0000 C   0  0  0  0  0  0  0  0  0  0  0  0
    6.5350   -7.4366    0.0000 C   0  0  0  0  0  0  0  0  0  0  0  0
    7.3234   -7.1937    0.0000 C   0  0  0  0  0  0  0  0  0  0  0  0
    7.9328   -7.4400    0.0000 C   0  0  0  0  0  0  0  0  0  0  0  0
    7.9202   -8.2649    0.0000 C   0  0  2  0  0  0  0  0  0  0  0  0
    7.1396   -7.9979    0.0000 C   0  0  0  0  0  0  0  0  0  0  0  0
    6.6445   -8.6579    0.0000 C   0  0  0  0  0  0  0  0  0  0  0  0
    7.1191   -9.3327    0.0000 C   0  0  0  0  0  0  0  0  0  0  0  0
    7.9076   -9.0898    0.0000 C   0  0  0  0  0  0  0  0  0  0  0  0
    8.6882   -9.3567    0.0000 C   0  0  1  0  0  0  0  0  0  0  0  0
    9.1833   -8.6967    0.0000 C   0  0  0  0  0  0  0  0  0  0  0  0
    8.7086   -8.0220    0.0000 C   0  0  0  0  0  0  0  0  0  0  0  0
 12  3  1  0  0  0  0
  2  1  1  0  0  0  0
  3  2  2  0  0  0  0
  4  3  1  0  0  0  0
 15  5  1  1  0  0  0
 14  6  1  0  0  0  0
 11  7  1  0  0  0  0
 11  8  1  0  0  0  0
 10  9  1  1  0  0  0
 14 10  1  0  0  0  0
 17 10  1  0  0  0  0
 11 10  1  0  0  0  0
 12 11  1  0  0  0  0
 13 12  1  0  0  0  0
 14 13  1  0  0  0  0
 15 14  1  0  0  0  0
 16 15  1  0  0  0  0
 17 16  1  0  0  0  0
M  END
>  <cdx:fragmentId>
217100

$$$$
