748715.cdx
  Mrv1902 05222410202D          

 15 16  0  0  0  0            999 V2000
    7.5720   -9.2725    0.0000 C   0  0  0  0  0  0  0  0  0  0  0  0
    7.5648  -10.0975    0.0000 C   0  0  0  0  0  0  0  0  0  0  0  0
    6.8467  -10.5037    0.0000 C   0  0  0  0  0  0  0  0  0  0  0  0
    6.1359  -10.0850    0.0000 C   0  0  0  0  0  0  0  0  0  0  0  0
    6.1431   -9.2600    0.0000 C   0  0  0  0  0  0  0  0  0  0  0  0
    6.8612   -8.8538    0.0000 C   0  0  0  0  0  0  0  0  0  0  0  0
    6.8684   -8.0288    0.0000 C   0  0  2  0  0  0  0  0  0  0  0  0
    6.5394   -7.2722    0.0000 C   0  0  0  0  0  0  0  0  0  0  0  0
    7.1573   -6.7256    0.0000 C   0  0  0  0  0  0  0  0  0  0  0  0
    7.8682   -7.1443    0.0000 C   0  0  0  0  0  0  0  0  0  0  0  0
    7.6896   -7.9497    0.0000 C   0  0  0  0  0  0  0  0  0  0  0  0
    6.1503   -8.4350    0.0000 C   0  0  0  0  0  0  0  0  0  0  0  0
    6.8395  -11.3287    0.0000 C   0  0  0  0  0  0  0  0  0  0  0  0
    7.9031   -8.7466    0.0000 C   0  0  0  0  0  0  0  0  0  0  0  0
    8.4865   -8.1633    0.0000 C   0  0  0  0  0  0  0  0  0  0  0  0
  1  2  2  0  0  0  0
  2  3  1  0  0  0  0
  3  4  1  0  0  0  0
  4  5  1  0  0  0  0
  5  6  1  0  0  0  0
  1  6  1  0  0  0  0
  7  8  1  0  0  0  0
  8  9  1  0  0  0  0
  9 10  1  0  0  0  0
 10 11  1  0  0  0  0
  7 11  1  0  0  0  0
  7 12  1  1  0  0  0
  6  7  1  0  0  0  0
  3 13  2  0  0  0  0
 11 14  1  0  0  0  0
 11 15  1  0  0  0  0
M  END
>  <cdx:fragmentId>
17

$$$$
