91748750.cdx
  Mrv1902 05222410242D          

 17 19  0  0  0  0            999 V2000
    8.4770   -6.6163    0.0000 C   0  0  0  0  0  0  0  0  0  0  0  0
    8.9619   -5.9489    0.0000 C   0  0  0  0  0  0  0  0  0  0  0  0
    8.4770   -5.2814    0.0000 C   0  0  2  0  0  0  0  0  0  0  0  0
    7.6924   -5.5364    0.0000 C   0  0  0  0  0  0  0  0  0  0  0  0
    7.0474   -5.0220    0.0000 C   0  0  2  0  0  0  0  0  0  0  0  0
    6.2431   -5.2056    0.0000 C   0  0  2  0  0  0  0  0  0  0  0  0
    5.8851   -5.9489    0.0000 C   0  0  0  0  0  0  0  0  0  0  0  0
    6.2431   -6.6922    0.0000 C   0  0  0  0  0  0  0  0  0  0  0  0
    7.0474   -6.8758    0.0000 C   0  0  0  0  0  0  0  0  0  0  0  0
    7.6924   -6.3614    0.0000 C   0  0  0  0  0  0  0  0  0  0  0  0
    6.4862   -4.4172    0.0000 C   0  0  0  0  0  0  0  0  0  0  0  0
    7.2309   -7.6801    0.0000 C   0  0  0  0  0  0  0  0  0  0  0  0
    8.7319   -4.4968    0.0000 C   0  0  0  0  0  0  0  0  0  0  0  0
    5.9251   -3.8125    0.0000 C   0  0  0  0  0  0  0  0  0  0  0  0
    6.7294   -3.6289    0.0000 C   0  0  0  0  0  0  0  0  0  0  0  0
    5.4751   -4.9042    0.0000 H   0  0  0  0  0  0  0  0  0  0  0  0
    7.6085   -4.4172    0.0000 H   0  0  0  0  0  0  0  0  0  0  0  0
  1  2  1  0  0  0  0
  2  3  1  0  0  0  0
  3  4  1  0  0  0  0
  4  5  1  0  0  0  0
  5  6  1  0  0  0  0
  6  7  1  0  0  0  0
  7  8  1  0  0  0  0
  8  9  1  0  0  0  0
  9 10  1  0  0  0  0
  1 10  1  0  0  0  0
  4 10  1  0  0  0  0
 11  5  1  0  0  0  0
 11  6  1  0  0  0  0
  9 12  2  0  0  0  0
  3 13  1  6  0  0  0
 11 14  1  0  0  0  0
 11 15  1  0  0  0  0
  6 16  1  1  0  0  0
  5 17  1  1  0  0  0
M  END
>  <cdx:groupId>
55

>  <cdx:fragmentId>
5

$$$$
