748785.cdx
  Mrv1902 05222410232D          

 16 17  0  0  0  0            999 V2000
    6.5853   -5.0127    0.0000 C   0  0  0  0  0  0  0  0  0  0  0  0
    5.8708   -5.4252    0.0000 C   0  0  2  0  0  0  0  0  0  0  0  0
    5.8708   -6.2502    0.0000 C   0  0  0  0  0  0  0  0  0  0  0  0
    6.5853   -6.6627    0.0000 C   0  0  2  0  0  0  0  0  0  0  0  0
    7.2997   -6.2502    0.0000 C   0  0  2  0  0  0  0  0  0  0  0  0
    8.0142   -6.6627    0.0000 C   0  0  0  0  0  0  0  0  0  0  0  0
    8.7287   -6.2502    0.0000 C   0  0  1  0  0  0  0  0  0  0  0  0
    8.7287   -5.4252    0.0000 C   0  0  0  0  0  0  0  0  0  0  0  0
    8.0142   -5.0127    0.0000 C   0  0  0  0  0  0  0  0  0  0  0  0
    7.2997   -5.4252    0.0000 C   0  0  0  0  0  0  0  0  0  0  0  0
    5.1563   -5.0127    0.0000 O   0  0  0  0  0  0  0  0  0  0  0  0
    9.4432   -7.4877    0.0000 C   0  0  0  0  0  0  0  0  0  0  0  0
    9.4432   -6.6627    0.0000 C   0  0  0  0  0  0  0  0  0  0  0  0
   10.1576   -6.2502    0.0000 C   0  0  0  0  0  0  0  0  0  0  0  0
    7.2997   -7.0752    0.0000 C   0  0  0  0  0  0  0  0  0  0  0  0
    6.5853   -7.4877    0.0000 C   0  0  0  0  0  0  0  0  0  0  0  0
  1  2  1  0  0  0  0
  2  3  1  0  0  0  0
  3  4  1  0  0  0  0
  4  5  1  0  0  0  0
  5  6  1  0  0  0  0
  6  7  1  0  0  0  0
  7  8  1  0  0  0  0
  8  9  1  0  0  0  0
  9 10  1  0  0  0  0
  1 10  2  0  0  0  0
  5 10  1  0  0  0  0
  2 11  1  6  0  0  0
 12 13  2  0  0  0  0
 13 14  1  0  0  0  0
  7 13  1  1  0  0  0
  5 15  1  6  0  0  0
  4 16  1  6  0  0  0
M  END
>  <cdx:groupId>
51

>  <cdx:fragmentId>
5

$$$$
