748860.cdx
  Mrv1902 05222410272D          

 15 16  0  0  0  0            999 V2000
    8.4865   -8.8993    0.0000 C   0  0  1  0  0  0  0  0  0  0  0  0
    9.2711   -9.1542    0.0000 C   0  0  0  0  0  0  0  0  0  0  0  0
    9.2711   -9.9792    0.0000 C   0  0  0  0  0  0  0  0  0  0  0  0
    8.4865  -10.2341    0.0000 C   0  0  2  0  0  0  0  0  0  0  0  0
    8.0016   -9.5667    0.0000 C   0  0  0  0  0  0  0  0  0  0  0  0
    7.5891  -10.2812    0.0000 C   0  0  0  0  0  0  0  0  0  0  0  0
    6.7641  -10.2812    0.0000 C   0  0  0  0  0  0  0  0  0  0  0  0
    6.3516   -9.5667    0.0000 C   0  0  0  0  0  0  0  0  0  0  0  0
    6.7641   -8.8522    0.0000 C   0  0  0  0  0  0  0  0  0  0  0  0
    7.5891   -8.8522    0.0000 C   0  0  0  0  0  0  0  0  0  0  0  0
    8.2316  -11.0188    0.0000 C   0  0  0  0  0  0  0  0  0  0  0  0
    5.5266   -9.5667    0.0000 C   0  0  0  0  0  0  0  0  0  0  0  0
    8.2316   -8.1146    0.0000 C   0  0  0  0  0  0  0  0  0  0  0  0
    8.7836   -7.5015    0.0000 C   0  0  0  0  0  0  0  0  0  0  0  0
    7.4246   -7.9431    0.0000 C   0  0  0  0  0  0  0  0  0  0  0  0
  1  2  1  0  0  0  0
  2  3  1  0  0  0  0
  3  4  1  0  0  0  0
  4  5  1  0  0  0  0
  5  6  1  0  0  0  0
  6  7  1  0  0  0  0
  7  8  1  0  0  0  0
  8  9  2  0  0  0  0
  9 10  1  0  0  0  0
  1  5  1  0  0  0  0
 10  5  1  0  0  0  0
  4 11  1  1  0  0  0
  8 12  1  0  0  0  0
  1 13  1  1  0  0  0
 13 14  1  0  0  0  0
 13 15  1  0  0  0  0
M  END
>  <cdx:groupId>
217200

>  <cdx:fragmentId>
217157

$$$$
