748865.cdx
  Mrv1902 05222410272D          

 15 15  0  0  0  0            999 V2000
    6.6173   -6.4073    0.0000 C   0  0  1  0  0  0  0  0  0  0  0  0
    7.3318   -6.8198    0.0000 C   0  0  2  0  0  0  0  0  0  0  0  0
    8.0463   -6.4073    0.0000 C   0  0  1  0  0  0  0  0  0  0  0  0
    8.0463   -5.5823    0.0000 C   0  0  0  0  0  0  0  0  0  0  0  0
    7.3318   -5.1698    0.0000 C   0  0  0  0  0  0  0  0  0  0  0  0
    6.6173   -5.5823    0.0000 C   0  0  0  0  0  0  0  0  0  0  0  0
    8.7607   -7.6448    0.0000 C   0  0  0  0  0  0  0  0  0  0  0  0
    8.7607   -6.8198    0.0000 C   0  0  0  0  0  0  0  0  0  0  0  0
    9.4752   -6.4073    0.0000 C   0  0  0  0  0  0  0  0  0  0  0  0
    8.0463   -8.0573    0.0000 C   0  0  0  0  0  0  0  0  0  0  0  0
    7.3318   -7.6448    0.0000 C   0  0  0  0  0  0  0  0  0  0  0  0
    6.6173   -8.0573    0.0000 C   0  0  0  0  0  0  0  0  0  0  0  0
    6.2048   -7.1218    0.0000 C   0  0  0  0  0  0  0  0  0  0  0  0
    5.7923   -6.4073    0.0000 C   0  0  0  0  0  0  0  0  0  0  0  0
    5.3798   -7.1218    0.0000 C   0  0  0  0  0  0  0  0  0  0  0  0
  1  2  1  0  0  0  0
  2  3  1  0  0  0  0
  3  4  1  0  0  0  0
  4  5  1  0  0  0  0
  5  6  1  0  0  0  0
  1  6  1  0  0  0  0
  7  8  2  0  0  0  0
  8  9  1  0  0  0  0
  3  8  1  1  0  0  0
 10 11  2  0  0  0  0
 11 12  1  0  0  0  0
  2 11  1  6  0  0  0
  1 13  1  6  0  0  0
 14 15  2  0  0  0  0
  1 14  1  0  0  0  0
M  END
>  <cdx:fragmentId>
5

$$$$
