74883.cdx
  Mrv1902 05222410222D          

 42 45  0  0  0  0            999 V2000
    6.8003   -5.2079    0.0000 H   0  0  0  0  0  0  0  0  0  0  0  0
    8.5509   -6.7124    0.0000 H   0  0  0  0  0  0  0  0  0  0  0  0
    8.4751   -7.3773    0.0000 H   0  0  0  0  0  0  0  0  0  0  0  0
    6.0680   -9.4987    0.0000 O   0  0  0  0  0  0  0  0  0  0  0  0
    6.6767  -10.0056    0.0000 O   0  0  0  0  0  0  0  0  0  0  0  0
    8.9948   -9.5398    0.0000 O   0  0  0  0  0  0  0  0  0  0  0  0
    8.1790   -9.6628    0.0000 C   0  0  0  0  0  0  0  0  0  0  0  0
    4.1207   -8.2744    0.0000 C   0  0  0  0  0  0  0  0  0  0  0  0
    8.0576   -4.8827    0.0000 C   0  0  0  0  0  0  0  0  0  0  0  0
    8.6833   -5.4204    0.0000 C   0  0  0  0  0  0  0  0  0  0  0  0
    4.9273   -7.0575    0.0000 C   0  0  0  0  0  0  0  0  0  0  0  0
    6.6767   -6.5433    0.0000 O   0  0  0  0  0  0  0  0  0  0  0  0
    6.8603   -7.3476    0.0000 C   0  0  0  0  0  0  0  0  0  0  0  0
    5.7523   -7.0575    0.0000 C   0  0  2  0  0  0  0  0  0  0  0  0
    6.1241   -6.2071    0.0000 C   0  0  0  0  0  0  0  0  0  0  0  0
    7.0289   -6.0006    0.0000 C   0  0  1  0  0  0  0  0  0  0  0  0
    7.9048   -5.6934    0.0000 C   0  0  0  0  0  0  0  0  0  0  0  0
    7.7329   -6.6055    0.0000 C   0  0  1  0  0  0  0  0  0  0  0  0
    7.6646   -7.5311    0.0000 C   0  0  2  0  0  0  0  0  0  0  0  0
    8.0225   -8.2744    0.0000 C   0  0  0  0  0  0  0  0  0  0  0  0
    7.6646   -9.0177    0.0000 C   0  0  0  0  0  0  0  0  0  0  0  0
    6.8603   -9.2013    0.0000 C   0  0  2  0  0  0  0  0  0  0  0  0
    6.2153   -8.6869    0.0000 C   0  0  1  0  0  0  0  0  0  0  0  0
    5.4306   -8.9419    0.0000 C   0  0  2  0  0  0  0  0  0  0  0  0
    4.9457   -8.2744    0.0000 C   0  0  0  0  0  0  0  0  0  0  0  0
    5.4306   -7.6070    0.0000 C   0  0  0  0  0  0  0  0  0  0  0  0
    6.2153   -7.8619    0.0000 C   0  0  0  0  0  0  0  0  0  0  0  0
    5.1757   -9.7265    0.0000 O   0  0  0  0  0  0  0  0  0  0  0  0
    9.5091  -10.1848    0.0000 C   0  0  0  0  0  0  0  0  0  0  0  0
   10.3249  -10.0618    0.0000 C   0  0  0  0  0  0  0  0  0  0  0  0
    9.2077  -10.9528    0.0000 O   0  0  0  0  0  0  0  0  0  0  0  0
    7.2815  -10.5668    0.0000 C   0  0  0  0  0  0  0  0  0  0  0  0
    7.0979  -11.3711    0.0000 C   0  0  0  0  0  0  0  0  0  0  0  0
    8.0698  -10.3236    0.0000 O   0  0  0  0  0  0  0  0  0  0  0  0
    7.7027  -11.9322    0.0000 C   0  0  0  0  0  0  0  0  0  0  0  0
    7.5191  -12.7366    0.0000 C   0  0  0  0  0  0  0  0  0  0  0  0
   11.6984  -13.6905    0.0000 C   0  0  0  0  0  0  0  0  0  0  0  0
   10.9101  -13.9336    0.0000 C   0  0  0  0  0  0  0  0  0  0  0  0
   10.3053  -13.3725    0.0000 C   0  0  0  0  0  0  0  0  0  0  0  0
    9.5170  -13.6157    0.0000 C   0  0  0  0  0  0  0  0  0  0  0  0
    8.9122  -13.0545    0.0000 C   0  0  0  0  0  0  0  0  0  0  0  0
    8.1238  -13.2977    0.0000 C   0  0  0  0  0  0  0  0  0  0  0  0
 16  1  1  6  0  0  0
 18  2  1  6  0  0  0
 19  3  1  1  0  0  0
 24 28  1  1  0  0  0
 23  4  1  1  0  0  0
 22  5  1  1  0  0  0
 21  7  1  0  0  0  0
  7  6  1  0  0  0  0
 25  8  1  0  0  0  0
 17  9  1  0  0  0  0
 17 10  1  0  0  0  0
 14 11  1  6  0  0  0
 13 12  2  0  0  0  0
 27 23  1  0  0  0  0
 18 16  1  0  0  0  0
 19 13  1  0  0  0  0
 27 13  1  0  0  0  0
 27 14  1  0  0  0  0
 15 14  1  0  0  0  0
 16 15  1  0  0  0  0
 17 16  1  0  0  0  0
 18 17  1  0  0  0  0
 19 18  1  0  0  0  0
 20 19  1  0  0  0  0
 21 20  2  0  0  0  0
 22 21  1  0  0  0  0
 23 22  1  0  0  0  0
 24 23  1  0  0  0  0
 25 24  1  0  0  0  0
 26 25  2  0  0  0  0
 27 26  1  0  0  0  0
  6 29  1  0  0  0  0
 29 30  1  0  0  0  0
 29 31  2  0  0  0  0
  5 32  1  0  0  0  0
 32 33  1  0  0  0  0
 32 34  2  0  0  0  0
 33 35  2  0  0  0  0
 35 36  1  0  0  0  0
 38 37  1  0  0  0  0
 36 42  2  0  0  0  0
 39 38  1  0  0  0  0
 40 39  1  0  0  0  0
 41 40  1  0  0  0  0
 42 41  1  0  0  0  0
M  END
>  <cdx:groupId>
947

>  <cdx:fragmentId>
854

$$$$
