748908.cdx
  Mrv1902 05222410192D          

 16 16  0  0  0  0            999 V2000
    6.1263   -9.3083    0.0000 C   0  0  0  0  0  0  0  0  0  0  0  0
    6.1263   -8.4833    0.0000 C   0  0  0  0  0  0  0  0  0  0  0  0
    6.8408   -8.0708    0.0000 C   0  0  0  0  0  0  0  0  0  0  0  0
    7.5552   -8.4833    0.0000 C   0  0  0  0  0  0  0  0  0  0  0  0
    8.2697   -8.0708    0.0000 C   0  0  0  0  0  0  0  0  0  0  0  0
    8.9842   -8.4833    0.0000 C   0  0  0  0  0  0  0  0  0  0  0  0
    8.9842   -9.3083    0.0000 C   0  0  0  0  0  0  0  0  0  0  0  0
    8.2697   -9.7208    0.0000 C   0  0  0  0  0  0  0  0  0  0  0  0
    7.5552   -9.3083    0.0000 C   0  0  0  0  0  0  0  0  0  0  0  0
    6.8408   -9.7208    0.0000 C   0  0  0  0  0  0  0  0  0  0  0  0
    5.4118   -9.7208    0.0000 O   0  0  0  0  0  0  0  0  0  0  0  0
    7.5552  -10.9583    0.0000 C   0  0  0  0  0  0  0  0  0  0  0  0
    6.8408  -10.5458    0.0000 C   0  0  0  0  0  0  0  0  0  0  0  0
    6.1263  -10.9583    0.0000 C   0  0  0  0  0  0  0  0  0  0  0  0
    9.6986   -9.7208    0.0000 C   0  0  0  0  0  0  0  0  0  0  0  0
    6.8408   -7.2458    0.0000 C   0  0  0  0  0  0  0  0  0  0  0  0
  1  2  1  0  0  0  0
  2  3  2  0  0  0  0
  3  4  1  0  0  0  0
  4  5  1  0  0  0  0
  5  6  1  0  0  0  0
  6  7  1  0  0  0  0
  7  8  2  0  0  0  0
  8  9  1  0  0  0  0
  9 10  1  0  0  0  0
  1 10  1  0  0  0  0
  1 11  1  0  0  0  0
 12 13  1  0  0  0  0
 13 14  1  0  0  0  0
 10 13  1  0  0  0  0
  7 15  1  0  0  0  0
  3 16  1  0  0  0  0
M  END
>  <cdx:fragmentId>
217208

$$$$
