74901.cdx
  Mrv1902 05222410252D          

 12 11  0  0  0  0            999 V2000
    9.7153   -9.6739    0.0000 C   0  0  0  0  0  0  0  0  0  0  0  0
   10.4297   -8.4364    0.0000 C   0  0  0  0  0  0  0  0  0  0  0  0
    9.7153   -8.8489    0.0000 C   0  0  0  0  0  0  0  0  0  0  0  0
    9.0008   -8.4364    0.0000 C   0  0  0  0  0  0  0  0  0  0  0  0
    8.2863   -8.8489    0.0000 C   0  0  0  0  0  0  0  0  0  0  0  0
    7.5719   -8.4364    0.0000 O   0  0  0  0  0  0  0  0  0  0  0  0
    6.8574   -9.6739    0.0000 O   0  0  0  0  0  0  0  0  0  0  0  0
    3.9995   -8.8489    0.0000 C   0  0  0  0  0  0  0  0  0  0  0  0
    4.7140   -8.4364    0.0000 C   0  0  0  0  0  0  0  0  0  0  0  0
    5.4284   -8.8489    0.0000 C   0  0  0  0  0  0  0  0  0  0  0  0
    6.1429   -8.4364    0.0000 C   0  0  0  0  0  0  0  0  0  0  0  0
    6.8574   -8.8489    0.0000 C   0  0  0  0  0  0  0  0  0  0  0  0
  6  5  1  0  0  0  0
  3  1  1  0  0  0  0
  3  2  1  0  0  0  0
  4  3  1  0  0  0  0
  5  4  1  0  0  0  0
 12  6  1  0  0  0  0
 12  7  2  0  0  0  0
  9  8  1  0  0  0  0
 10  9  1  0  0  0  0
 11 10  1  0  0  0  0
 12 11  1  0  0  0  0
M  END
>  <cdx:fragmentId>
5

$$$$
