74926.cdx
  Mrv1902 05222410212D          

 18 21  0  0  0  0            999 V2000
    6.3601   -8.5998    0.0000 C   0  0  0  0  0  0  0  0  0  0  0  0
    7.0105   -8.0921    0.0000 C   0  0  1  0  0  0  0  0  0  0  0  0
    7.0190   -7.2672    0.0000 C   0  0  1  0  0  0  0  0  0  0  0  0
    6.3794   -6.7461    0.0000 C   0  0  0  0  0  0  0  0  0  0  0  0
    5.5732   -6.9213    0.0000 C   0  0  0  0  0  0  0  0  0  0  0  0
    5.2076   -7.6609    0.0000 C   0  0  0  0  0  0  0  0  0  0  0  0
    5.5578   -8.4079    0.0000 C   0  0  2  0  0  0  0  0  0  0  0  0
    4.3905   -7.7754    0.0000 C   0  0  0  0  0  0  0  0  0  0  0  0
    6.0508   -9.3646    0.0000 C   0  0  0  0  0  0  0  0  0  0  0  0
    7.0188   -9.0965    0.0000 C   0  0  0  0  0  0  0  0  0  0  0  0
    7.7924   -8.3552    0.0000 C   0  0  0  0  0  0  0  0  0  0  0  0
    8.2842   -7.6928    0.0000 C   0  0  0  0  0  0  0  0  0  0  0  0
    7.8062   -7.0204    0.0000 C   0  0  1  0  0  0  0  0  0  0  0  0
    6.1537   -7.5410    0.0000 C   0  0  0  0  0  0  0  0  0  0  0  0
    8.1156   -6.2556    0.0000 C   0  0  0  0  0  0  0  0  0  0  0  0
    4.6999   -7.0106    0.0000 O   0  0  0  0  0  0  0  0  0  0  0  0
    4.9075   -8.9155    0.0000 H   0  0  0  0  0  0  0  0  0  0  0  0
    7.1249   -8.9091    0.0000 H   0  0  0  0  0  0  0  0  0  0  0  0
  1  2  1  0  0  0  0
  2  3  1  0  0  0  0
  3  4  1  1  0  0  0
  4  5  1  0  0  0  0
  5  6  1  0  0  0  0
  6  7  1  0  0  0  0
  7  1  1  0  0  0  0
  6  8  1  0  0  0  0
  1  9  1  0  0  0  0
  1 10  1  0  0  0  0
  2 11  1  0  0  0  0
 11 12  1  0  0  0  0
 12 13  1  0  0  0  0
 13  3  1  0  0  0  0
  7 14  1  0  0  0  0
  3 14  1  0  0  0  0
 13 15  1  6  0  0  0
  6 16  1  0  0  0  0
 16  5  1  0  0  0  0
  7 17  1  1  0  0  0
  2 18  1  6  0  0  0
M  END
>  <cdx:fragmentId>
54

$$$$
