749656.cdx
  Mrv1902 05222410222D          

 16 17  0  0  0  0            999 V2000
    9.0268  -17.1187    0.0000 C   0  0  0  0  0  0  0  0  0  0  0  0
    8.5838  -16.4227    0.0000 C   0  0  0  0  0  0  0  0  0  0  0  0
    7.7596  -16.4583    0.0000 C   0  0  0  0  0  0  0  0  0  0  0  0
    7.3166  -15.7624    0.0000 C   0  0  0  0  0  0  0  0  0  0  0  0
    6.4924  -15.7980    0.0000 C   0  0  0  0  0  0  0  0  0  0  0  0
    9.8510  -17.0830    0.0000 O   0  0  0  0  0  0  0  0  0  0  0  0
    8.9650  -15.6911    0.0000 C   0  0  0  0  0  0  0  0  0  0  0  0
    5.0919  -15.3636    0.0000 C   0  0  0  0  0  0  0  0  0  0  0  0
    4.3354  -15.9413    0.0000 C   0  0  0  0  0  0  0  0  0  0  0  0
    3.7714  -15.5286    0.0000 C   0  0  0  0  0  0  0  0  0  0  0  0
    3.9915  -14.9372    0.0000 C   0  0  0  0  0  0  0  0  0  0  0  0
    5.2982  -14.6759    0.0000 C   0  0  0  0  0  0  0  0  0  0  0  0
    6.0494  -15.1020    0.0000 C   0  0  1  0  0  0  0  0  0  0  0  0
    4.7342  -14.2082    0.0000 C   0  0  0  0  0  0  0  0  0  0  0  0
    6.4619  -14.3876    0.0000 C   0  0  0  0  0  0  0  0  0  0  0  0
    4.3354  -16.7663    0.0000 C   0  0  0  0  0  0  0  0  0  0  0  0
  1  2  1  0  0  0  0
  2  3  2  0  0  0  0
  3  4  1  0  0  0  0
  4  5  1  0  0  0  0
  1  6  1  0  0  0  0
  2  7  1  0  0  0  0
  8  9  1  0  0  0  0
  9 10  2  0  0  0  0
 10 11  1  0  0  0  0
 11 12  1  0  0  0  0
 12 13  1  0  0  0  0
  8 13  1  0  0  0  0
  8 14  1  0  0  0  0
 14 12  1  0  0  0  0
 13 15  1  6  0  0  0
  9 16  1  0  0  0  0
  5 13  1  0  0  0  0
M  END
>  <cdx:groupId>
217306

>  <cdx:fragmentId>
217274

$$$$
