74977.cdx
  Mrv1902 05222410282D          

 14 14  0  0  0  0            999 V2000
    3.5820   -2.4885    0.0000 C   0  0  0  0  0  0  0  0  0  0  0  0
    2.8675   -2.9010    0.0000 C   0  0  0  0  0  0  0  0  0  0  0  0
    2.8675   -3.7260    0.0000 C   0  0  0  0  0  0  0  0  0  0  0  0
    2.1530   -3.3135    0.0000 C   0  0  0  0  0  0  0  0  0  0  0  0
    2.1530   -2.4885    0.0000 C   0  0  0  0  0  0  0  0  0  0  0  0
    3.5820   -1.6635    0.0000 O   0  0  0  0  0  0  0  0  0  0  0  0
    4.2965   -2.9010    0.0000 O   0  0  0  0  0  0  0  0  0  0  0  0
    5.0109   -2.4885    0.0000 C   0  0  0  0  0  0  0  0  0  0  0  0
    5.7254   -2.9010    0.0000 C   0  0  0  0  0  0  0  0  0  0  0  0
    6.4399   -2.4885    0.0000 C   0  0  0  0  0  0  0  0  0  0  0  0
    7.1543   -2.9010    0.0000 C   0  0  0  0  0  0  0  0  0  0  0  0
    7.1543   -3.7260    0.0000 C   0  0  0  0  0  0  0  0  0  0  0  0
    6.4399   -4.1385    0.0000 C   0  0  0  0  0  0  0  0  0  0  0  0
    5.7254   -3.7260    0.0000 C   0  0  0  0  0  0  0  0  0  0  0  0
  1  2  1  0  0  0  0
  2  3  1  0  0  0  0
  2  4  1  0  0  0  0
  2  5  1  0  0  0  0
  1  6  2  0  0  0  0
  1  7  1  0  0  0  0
  8  9  1  0  0  0  0
  9 10  1  0  0  0  0
 10 11  2  0  0  0  0
 11 12  1  0  0  0  0
 12 13  2  0  0  0  0
 13 14  1  0  0  0  0
  9 14  2  0  0  0  0
  7  8  1  0  0  0  0
M  END
>  <cdx:groupId>
44

>  <cdx:fragmentId>
19

$$$$
