75.cdx
  Mrv1902 05222410232D          

 52 56  0  0  0  0            999 V2000
   14.3954   -9.4649    0.0000 C   0  0  0  0  0  0  0  0  0  0  0  0
   14.3954  -10.2899    0.0000 C   0  0  1  0  0  0  0  0  0  0  0  0
   15.1099  -10.7024    0.0000 C   0  0  0  0  0  0  0  0  0  0  0  0
   15.8243  -10.2899    0.0000 C   0  0  2  0  0  0  0  0  0  0  0  0
   15.8243   -9.4649    0.0000 C   0  0  2  0  0  0  0  0  0  0  0  0
   15.1099   -9.0524    0.0000 C   0  0  1  0  0  0  0  0  0  0  0  0
   16.5388  -10.7024    0.0000 C   0  0  0  0  0  0  0  0  0  0  0  0
   17.2533  -10.2899    0.0000 C   0  0  0  0  0  0  0  0  0  0  0  0
   17.2533   -9.4649    0.0000 C   0  0  2  0  0  0  0  0  0  0  0  0
   16.5388   -9.0524    0.0000 C   0  0  2  0  0  0  0  0  0  0  0  0
   17.9677   -9.0524    0.0000 C   0  0  2  0  0  0  0  0  0  0  0  0
   17.9677   -8.2274    0.0000 C   0  0  2  0  0  0  0  0  0  0  0  0
   17.2533   -7.8149    0.0000 C   0  0  0  0  0  0  0  0  0  0  0  0
   16.5388   -8.2274    0.0000 C   0  0  1  0  0  0  0  0  0  0  0  0
   18.7524   -9.3073    0.0000 C   0  0  0  0  0  0  0  0  0  0  0  0
   19.2373   -8.6399    0.0000 C   0  0  2  0  0  0  0  0  0  0  0  0
   18.7524   -7.9725    0.0000 C   0  0  2  0  0  0  0  0  0  0  0  0
   19.0073   -7.1878    0.0000 C   0  0  0  0  0  0  0  0  0  0  0  0
   19.8143   -7.0163    0.0000 C   0  0  0  0  0  0  0  0  0  0  0  0
   18.4553   -6.5747    0.0000 C   0  0  0  0  0  0  0  0  0  0  0  0
   20.0692   -6.2317    0.0000 C   0  0  0  0  0  0  0  0  0  0  0  0
   18.7102   -5.7901    0.0000 O   0  0  0  0  0  0  0  0  0  0  0  0
   19.5172   -5.6186    0.0000 C   0  0  0  0  0  0  0  0  0  0  0  0
   19.7721   -4.8340    0.0000 O   0  0  0  0  0  0  0  0  0  0  0  0
   13.6809  -10.7024    0.0000 O   0  0  0  0  0  0  0  0  0  0  0  0
   15.8243   -8.6399    0.0000 C   0  0  0  0  0  0  0  0  0  0  0  0
   15.8243  -11.1149    0.0000 H   0  0  0  0  0  0  0  0  0  0  0  0
   18.0540   -7.4069    0.0000 C   0  0  0  0  0  0  0  0  0  0  0  0
   20.0623   -8.6399    0.0000 H   0  0  0  0  0  0  0  0  0  0  0  0
   18.0540   -9.8729    0.0000 O   0  0  0  0  0  0  0  0  0  0  0  0
   15.8243   -7.8149    0.0000 O   0  0  0  0  0  0  0  0  0  0  0  0
   15.1099   -8.2274    0.0000 H   0  0  0  0  0  0  0  0  0  0  0  0
   12.9664  -10.2899    0.0000 C   0  0  0  0  0  0  0  0  0  0  0  0
   12.2520  -10.7024    0.0000 C   0  0  0  0  0  0  0  0  0  0  0  0
   12.9664   -9.4649    0.0000 O   0  0  0  0  0  0  0  0  0  0  0  0
   11.5375  -10.2899    0.0000 C   0  0  0  0  0  0  0  0  0  0  0  0
   10.8241  -10.7024    0.0000 C   0  0  0  0  0  0  0  0  0  0  0  0
   10.1096  -10.2899    0.0000 N   0  0  0  0  0  0  0  0  0  0  0  0
   10.8241  -11.5274    0.0000 O   0  0  0  0  0  0  0  0  0  0  0  0
    9.3951  -10.7024    0.0000 C   0  0  2  0  0  0  0  0  0  0  0  0
    8.6807  -10.2899    0.0000 C   0  0  0  0  0  0  0  0  0  0  0  0
    9.3951  -11.5274    0.0000 C   0  0  0  0  0  0  0  0  0  0  0  0
    7.9662  -10.7024    0.0000 O   0  0  0  0  0  0  0  0  0  0  0  0
    8.6807   -9.4649    0.0000 O   0  0  0  0  0  0  0  0  0  0  0  0
    8.6807  -11.9399    0.0000 C   0  0  0  0  0  0  0  0  0  0  0  0
    8.6807  -12.7649    0.0000 C   0  0  0  0  0  0  0  0  0  0  0  0
    7.9662  -13.1774    0.0000 N   0  0  0  0  0  0  0  0  0  0  0  0
    7.9662  -14.0024    0.0000 C   0  0  0  0  0  0  0  0  0  0  0  0
    8.6807  -14.4149    0.0000 N   0  0  0  0  0  0  0  0  0  0  0  0
    7.2517  -14.4149    0.0000 N   0  0  0  0  0  0  0  0  0  0  0  0
   16.5388   -9.8774    0.0000 H   0  0  0  0  0  0  0  0  0  0  0  0
   17.2533   -8.6399    0.0000 H   0  0  0  0  0  0  0  0  0  0  0  0
  1  2  1  0  0  0  0
  2  3  1  0  0  0  0
  3  4  1  0  0  0  0
  4  5  1  0  0  0  0
  5  6  1  0  0  0  0
  6  1  1  0  0  0  0
  4  7  1  0  0  0  0
  7  8  1  0  0  0  0
  8  9  1  0  0  0  0
  9 10  1  0  0  0  0
 10  5  1  0  0  0  0
  9 11  1  0  0  0  0
 11 12  1  0  0  0  0
 12 13  1  0  0  0  0
 13 14  1  0  0  0  0
 14 10  1  0  0  0  0
 11 15  1  0  0  0  0
 15 16  1  0  0  0  0
 16 17  1  0  0  0  0
 17 12  1  0  0  0  0
 17 18  1  1  0  0  0
 18 19  1  0  0  0  0
 18 20  2  0  0  0  0
 19 21  2  0  0  0  0
 20 22  1  0  0  0  0
 21 23  1  0  0  0  0
 22 23  1  0  0  0  0
 23 24  2  0  0  0  0
  2 25  1  1  0  0  0
  5 26  1  1  0  0  0
  4 27  1  1  0  0  0
 12 28  1  1  0  0  0
 16 29  1  1  0  0  0
 11 30  1  1  0  0  0
 14 31  1  6  0  0  0
  6 32  1  1  0  0  0
 25 33  1  0  0  0  0
 33 34  1  0  0  0  0
 33 35  2  0  0  0  0
 34 36  1  0  0  0  0
 37 38  1  0  0  0  0
 37 39  2  0  0  0  0
 40 38  1  1  0  0  0
 40 41  1  0  0  0  0
 40 42  1  0  0  0  0
 41 43  1  0  0  0  0
 41 44  2  0  0  0  0
 42 45  1  0  0  0  0
 45 46  1  0  0  0  0
 46 47  1  0  0  0  0
 47 48  2  0  0  0  0
 48 49  1  0  0  0  0
 48 50  1  0  0  0  0
 36 37  1  0  0  0  0
 10 51  1  6  0  0  0
  9 52  1  1  0  0  0
M  END
>  <cdx:fragmentId>
5

$$$$
