750068.cdx
  Mrv1902 05222410242D          

 24 26  0  0  0  0            999 V2000
    7.1251   -7.8705    0.0000 C   0  0  0  0  0  0  0  0  0  0  0  0
    6.3001   -7.8705    0.0000 C   0  0  0  0  0  0  0  0  0  0  0  0
    5.8876   -7.1560    0.0000 C   0  0  0  0  0  0  0  0  0  0  0  0
    7.5376   -7.1560    0.0000 O   0  0  0  0  0  0  0  0  0  0  0  0
    7.5376   -8.5849    0.0000 O   0  0  0  0  0  0  0  0  0  0  0  0
    5.8876   -8.5849    0.0000 C   0  0  0  0  0  0  0  0  0  0  0  0
    6.3001   -9.2994    0.0000 C   0  0  0  0  0  0  0  0  0  0  0  0
    5.8876  -10.0139    0.0000 C   0  0  0  0  0  0  0  0  0  0  0  0
    5.0626  -10.0139    0.0000 C   0  0  0  0  0  0  0  0  0  0  0  0
    4.6501   -9.2994    0.0000 C   0  0  0  0  0  0  0  0  0  0  0  0
    5.0626   -8.5849    0.0000 C   0  0  0  0  0  0  0  0  0  0  0  0
    5.0626   -7.1560    0.0000 O   0  0  0  0  0  0  0  0  0  0  0  0
    6.7126   -7.1560    0.0000 O   0  0  0  0  0  0  0  0  0  0  0  0
    9.5249   -9.5118    0.0000 C   0  0  2  0  0  0  0  0  0  0  0  0
    8.7206   -9.3282    0.0000 C   0  0  0  0  0  0  0  0  0  0  0  0
    8.3626   -8.5849    0.0000 C   0  0  0  0  0  0  0  0  0  0  0  0
    8.7206   -7.8416    0.0000 C   0  0  0  0  0  0  0  0  0  0  0  0
    9.5249   -7.6580    0.0000 C   0  0  1  0  0  0  0  0  0  0  0  0
   10.1699   -8.1724    0.0000 C   0  0  0  0  0  0  0  0  0  0  0  0
   10.1699   -8.9974    0.0000 C   0  0  0  0  0  0  0  0  0  0  0  0
    8.9474   -8.5925    0.0000 N   0  0  0  0  0  0  0  0  0  0  0  0
    8.1093   -8.2690    0.0000 C   0  0  0  0  0  0  0  0  0  0  0  0
    9.7085   -6.8537    0.0000 H   0  0  0  0  0  0  0  0  0  0  0  0
    9.7085  -10.3161    0.0000 H   0  0  0  0  0  0  0  0  0  0  0  0
  1  2  1  0  0  0  0
  2  3  1  0  0  0  0
  1  4  2  0  0  0  0
  1  5  1  0  0  0  0
  6  7  1  0  0  0  0
  7  8  2  0  0  0  0
  8  9  1  0  0  0  0
  9 10  2  0  0  0  0
 10 11  1  0  0  0  0
  6 11  2  0  0  0  0
  2  6  1  0  0  0  0
  3 12  1  0  0  0  0
  2 13  1  0  0  0  0
 14 15  1  0  0  0  0
 15 16  1  0  0  0  0
 16 17  1  0  0  0  0
 17 18  1  0  0  0  0
 18 19  1  0  0  0  0
 19 20  1  0  0  0  0
 14 20  1  0  0  0  0
  5 16  1  0  0  0  0
 18 21  1  0  0  0  0
 14 21  1  0  0  0  0
 21 22  1  0  0  0  0
 18 23  1  6  0  0  0
 14 24  1  6  0  0  0
M  END
>  <cdx:fragmentId>
15

$$$$
