750025.cdx
  Mrv1902 05222410272D          

 31 34  0  0  0  0            999 V2000
   12.2551  -10.8401    0.0000 C   0  0  0  0  0  0  0  0  0  0  0  0
   11.5406  -11.2526    0.0000 C   0  0  0  0  0  0  0  0  0  0  0  0
   11.5406  -12.0776    0.0000 C   0  0  1  0  0  0  0  0  0  0  0  0
   12.2551  -12.4901    0.0000 C   0  0  0  0  0  0  0  0  0  0  0  0
   12.9696  -12.0776    0.0000 C   0  0  0  0  0  0  0  0  0  0  0  0
   13.6840  -12.4901    0.0000 C   0  0  0  0  0  0  0  0  0  0  0  0
   14.3985  -12.0776    0.0000 C   0  0  0  0  0  0  0  0  0  0  0  0
   14.3985  -11.2526    0.0000 C   0  0  0  0  0  0  0  0  0  0  0  0
   15.1130  -10.8401    0.0000 C   0  0  0  0  0  0  0  0  0  0  0  0
   15.8976  -11.0950    0.0000 C   0  0  0  0  0  0  0  0  0  0  0  0
   16.3825  -10.4276    0.0000 C   0  0  0  0  0  0  0  0  0  0  0  0
   15.8976   -9.7601    0.0000 C   0  0  1  0  0  0  0  0  0  0  0  0
   15.1130  -10.0151    0.0000 C   0  0  1  0  0  0  0  0  0  0  0  0
   14.3985   -9.6026    0.0000 C   0  0  0  0  0  0  0  0  0  0  0  0
   13.6840  -10.0151    0.0000 C   0  0  0  0  0  0  0  0  0  0  0  0
   13.6840  -10.8401    0.0000 C   0  0  0  0  0  0  0  0  0  0  0  0
   12.9696  -11.2526    0.0000 C   0  0  1  0  0  0  0  0  0  0  0  0
   10.8262  -12.4901    0.0000 O   0  0  0  0  0  0  0  0  0  0  0  0
   15.1992   -9.1946    0.0000 C   0  0  0  0  0  0  0  0  0  0  0  0
   12.9696  -10.4276    0.0000 C   0  0  0  0  0  0  0  0  0  0  0  0
   15.6005   -8.3624    0.0000 C   0  0  0  0  0  0  0  0  0  0  0  0
   16.1525   -8.9755    0.0000 C   0  0  2  0  0  0  0  0  0  0  0  0
   16.9595   -8.8040    0.0000 C   0  0  0  0  0  0  0  0  0  0  0  0
   17.2145   -8.0194    0.0000 C   0  0  2  0  0  0  0  0  0  0  0  0
   18.0214   -7.8478    0.0000 C   0  0  0  0  0  0  0  0  0  0  0  0
   18.2764   -7.0632    0.0000 C   0  0  0  0  0  0  0  0  0  0  0  0
   17.7243   -6.4501    0.0000 C   0  0  0  0  0  0  0  0  0  0  0  0
   19.0833   -6.8917    0.0000 C   0  0  0  0  0  0  0  0  0  0  0  0
   16.6624   -7.4063    0.0000 C   0  0  0  0  0  0  0  0  0  0  0  0
   16.7124   -9.6311    0.0000 H   0  0  0  0  0  0  0  0  0  0  0  0
   16.9174   -6.6217    0.0000 C   0  0  0  0  0  0  0  0  0  0  0  0
  1  2  1  0  0  0  0
  2  3  1  0  0  0  0
  3  4  1  0  0  0  0
  4  5  1  0  0  0  0
  5  6  2  0  0  0  0
  6  7  1  0  0  0  0
  7  8  1  0  0  0  0
  8  9  1  0  0  0  0
  9 10  1  0  0  0  0
 10 11  1  0  0  0  0
 12 11  1  0  0  0  0
 12 13  1  0  0  0  0
  9 13  1  0  0  0  0
 13 14  1  0  0  0  0
 14 15  1  0  0  0  0
 15 16  1  0  0  0  0
  8 16  1  0  0  0  0
 16 17  1  0  0  0  0
  5 17  1  0  0  0  0
  1 17  1  0  0  0  0
  3 18  1  1  0  0  0
 13 19  1  1  0  0  0
 17 20  1  1  0  0  0
 22 21  1  6  0  0  0
 22 23  1  0  0  0  0
 24 23  1  0  0  0  0
 24 25  1  1  0  0  0
 25 26  1  0  0  0  0
 26 27  1  0  0  0  0
 26 28  1  0  0  0  0
 24 29  1  0  0  0  0
 12 22  1  0  0  0  0
 12 30  1  6  0  0  0
 29 31  1  0  0  0  0
M  END
>  <cdx:fragmentId>
217313

$$$$
