7500.cdx
  Mrv1902 05222410252D          

  8  8  0  0  0  0            999 V2000
    8.2745   -3.3605    0.0000 C   0  0  0  0  0  0  0  0  0  0  0  0
    7.5582   -3.7698    0.0000 C   0  0  0  0  0  0  0  0  0  0  0  0
    8.2670   -5.0105    0.0000 C   0  0  0  0  0  0  0  0  0  0  0  0
    8.2633   -5.8355    0.0000 C   0  0  0  0  0  0  0  0  0  0  0  0
    7.5469   -6.2448    0.0000 C   0  0  0  0  0  0  0  0  0  0  0  0
    6.8343   -5.8290    0.0000 C   0  0  0  0  0  0  0  0  0  0  0  0
    6.8381   -5.0040    0.0000 C   0  0  0  0  0  0  0  0  0  0  0  0
    7.5544   -4.5948    0.0000 C   0  0  0  0  0  0  0  0  0  0  0  0
  8  2  1  0  0  0  0
  2  1  1  0  0  0  0
  8  3  2  0  0  0  0
  4  3  1  0  0  0  0
  5  4  2  0  0  0  0
  6  5  1  0  0  0  0
  7  6  2  0  0  0  0
  8  7  1  0  0  0  0
M  END
>  <cdx:fragmentId>
5

$$$$
