750079.cdx
  Mrv1902 05222410262D          

 19 20  0  0  0  0            999 V2000
    7.2632   -9.0408    0.0000 C   0  0  0  0  0  0  0  0  0  0  0  0
    8.0677   -9.2235    0.0000 C   0  0  2  0  0  0  0  0  0  0  0  0
    8.7122   -8.7085    0.0000 C   0  0  0  0  0  0  0  0  0  0  0  0
    8.7113   -7.8835    0.0000 C   0  0  1  0  0  0  0  0  0  0  0  0
    8.0657   -7.3698    0.0000 C   0  0  2  0  0  0  0  0  0  0  0  0
    7.2616   -7.5542    0.0000 C   0  0  0  0  0  0  0  0  0  0  0  0
    6.9045   -8.2979    0.0000 C   0  0  2  0  0  0  0  0  0  0  0  0
    6.0779   -6.8699    0.0000 O   0  0  0  0  0  0  0  0  0  0  0  0
    6.0795   -8.2988    0.0000 O   0  0  0  0  0  0  0  0  0  0  0  0
    4.4295   -8.3006    0.0000 C   0  0  0  0  0  0  0  0  0  0  0  0
    5.6662   -7.5848    0.0000 C   0  0  0  0  0  0  0  0  0  0  0  0
    4.8412   -7.5857    0.0000 C   0  0  0  0  0  0  0  0  0  0  0  0
    4.4279   -6.8716    0.0000 C   0  0  0  0  0  0  0  0  0  0  0  0
    7.4431   -8.2363    0.0000 N   0  0  0  0  0  0  0  0  0  0  0  0
    6.6639   -8.0082    0.0000 C   0  0  0  0  0  0  0  0  0  0  0  0
    8.2485   -6.5653    0.0000 H   0  0  0  0  0  0  0  0  0  0  0  0
    8.2522  -10.0277    0.0000 H   0  0  0  0  0  0  0  0  0  0  0  0
    9.4542   -7.5247    0.0000 O   0  0  0  0  0  0  0  0  0  0  0  0
    3.6029   -6.8716    0.0000 C   0  0  0  0  0  0  0  0  0  0  0  0
  1  7  1  0  0  0  0
  2  1  1  0  0  0  0
  3  2  1  0  0  0  0
  4  3  1  0  0  0  0
  5  4  1  0  0  0  0
  6  5  1  0  0  0  0
  7  6  1  0  0  0  0
  7  9  1  1  0  0  0
 11  8  2  0  0  0  0
 11  9  1  0  0  0  0
 12 11  1  0  0  0  0
 10 12  1  0  0  0  0
 12 13  2  0  0  0  0
  5 14  1  0  0  0  0
  2 14  1  0  0  0  0
 14 15  1  0  0  0  0
  5 16  1  6  0  0  0
  2 17  1  6  0  0  0
  4 18  1  1  0  0  0
 13 19  1  0  0  0  0
M  END
>  <cdx:fragmentId>
5

$$$$
