91750055.cdx
  Mrv1902 05222410232D          

 16 18  0  0  0  0            999 V2000
    5.9685  -15.5638    0.0000 C   0  0  0  0  0  0  0  0  0  0  0  0
    5.4835  -14.8963    0.0000 C   0  0  0  0  0  0  0  0  0  0  0  0
    5.9685  -14.2289    0.0000 C   0  0  0  0  0  0  0  0  0  0  0  0
    6.7531  -14.4838    0.0000 C   0  0  0  0  0  0  0  0  0  0  0  0
    7.3981  -13.9694    0.0000 C   0  0  1  0  0  0  0  0  0  0  0  0
    8.2024  -14.1530    0.0000 C   0  0  1  0  0  0  0  0  0  0  0  0
    8.5604  -14.8963    0.0000 C   0  0  0  0  0  0  0  0  0  0  0  0
    8.2024  -15.6396    0.0000 C   0  0  0  0  0  0  0  0  0  0  0  0
    7.3981  -15.8232    0.0000 C   0  0  0  0  0  0  0  0  0  0  0  0
    6.7531  -15.3088    0.0000 C   0  0  0  0  0  0  0  0  0  0  0  0
    7.9592  -13.3647    0.0000 C   0  0  0  0  0  0  0  0  0  0  0  0
    6.8369  -13.3647    0.0000 C   0  0  0  0  0  0  0  0  0  0  0  0
    5.7135  -16.3484    0.0000 C   0  0  0  0  0  0  0  0  0  0  0  0
    8.9704  -15.9410    0.0000 C   0  0  0  0  0  0  0  0  0  0  0  0
    8.3254  -16.4554    0.0000 C   0  0  0  0  0  0  0  0  0  0  0  0
    8.9704  -13.8516    0.0000 H   0  0  0  0  0  0  0  0  0  0  0  0
  1  2  1  0  0  0  0
  2  3  1  0  0  0  0
  3  4  1  0  0  0  0
  4  5  1  0  0  0  0
  5  6  1  0  0  0  0
  6  7  1  0  0  0  0
  7  8  1  0  0  0  0
  8  9  1  0  0  0  0
  9 10  2  0  0  0  0
  1 10  1  0  0  0  0
  4 10  1  0  0  0  0
 11  5  1  0  0  0  0
 11  6  1  0  0  0  0
  5 12  1  1  0  0  0
  1 13  1  0  0  0  0
  8 14  1  0  0  0  0
  8 15  1  0  0  0  0
  6 16  1  1  0  0  0
M  END
>  <cdx:groupId>
217523

>  <cdx:fragmentId>
217476

$$$$
