750097.cdx
  Mrv1902 05222410242D          

 16 18  0  0  0  0            999 V2000
    7.5920   -7.0720    0.0000 C   0  0  1  0  0  0  0  0  0  0  0  0
    7.4923   -7.8910    0.0000 C   0  0  1  0  0  0  0  0  0  0  0  0
    6.6827   -8.0493    0.0000 C   0  0  0  0  0  0  0  0  0  0  0  0
    6.2819   -7.3282    0.0000 C   0  0  0  0  0  0  0  0  0  0  0  0
    6.8439   -6.7242    0.0000 C   0  0  0  0  0  0  0  0  0  0  0  0
    6.6494   -5.9224    0.0000 C   0  0  0  0  0  0  0  0  0  0  0  0
    7.1550   -5.2705    0.0000 C   0  0  1  0  0  0  0  0  0  0  0  0
    7.9799   -5.2593    0.0000 C   0  0  1  0  0  0  0  0  0  0  0  0
    8.5030   -5.8973    0.0000 C   0  0  0  0  0  0  0  0  0  0  0  0
    8.3303   -6.7040    0.0000 C   0  0  0  0  0  0  0  0  0  0  0  0
    7.2633   -6.0529    0.0000 C   0  0  0  0  0  0  0  0  0  0  0  0
    6.7869   -4.5321    0.0000 O   0  0  0  0  0  0  0  0  0  0  0  0
    8.3277   -4.5112    0.0000 C   0  0  0  0  0  0  0  0  0  0  0  0
    5.8644   -6.1763    0.0000 C   0  0  0  0  0  0  0  0  0  0  0  0
    6.0370   -5.3696    0.0000 C   0  0  0  0  0  0  0  0  0  0  0  0
    8.0963   -8.4530    0.0000 C   0  0  0  0  0  0  0  0  0  0  0  0
  1  2  1  0  0  0  0
  2  3  1  0  0  0  0
  3  4  1  0  0  0  0
  4  5  1  0  0  0  0
  5  6  1  0  0  0  0
  6  7  1  0  0  0  0
  7  8  1  0  0  0  0
  8  9  1  0  0  0  0
  9 10  1  0  0  0  0
  1 10  1  0  0  0  0
  1 11  1  6  0  0  0
  8 11  1  6  0  0  0
  1  5  1  0  0  0  0
  7 12  1  6  0  0  0
  8 13  1  0  0  0  0
  6 14  1  0  0  0  0
  6 15  1  0  0  0  0
  2 16  1  6  0  0  0
M  END
>  <cdx:fragmentId>
5

$$$$
