7501.cdx
  Mrv1902 05222410242D          

  8  8  0  0  0  0            999 V2000
    5.2233   -3.8156    0.0000 C   0  0  0  0  0  0  0  0  0  0  0  0
    4.5088   -4.2281    0.0000 C   0  0  0  0  0  0  0  0  0  0  0  0
    3.7943   -3.8156    0.0000 C   0  0  0  0  0  0  0  0  0  0  0  0
    3.0798   -4.2281    0.0000 C   0  0  0  0  0  0  0  0  0  0  0  0
    2.3654   -3.8156    0.0000 C   0  0  0  0  0  0  0  0  0  0  0  0
    2.3654   -2.9906    0.0000 C   0  0  0  0  0  0  0  0  0  0  0  0
    3.0798   -2.5781    0.0000 C   0  0  0  0  0  0  0  0  0  0  0  0
    3.7943   -2.9906    0.0000 C   0  0  0  0  0  0  0  0  0  0  0  0
  1  2  2  0  0  0  0
  2  3  1  0  0  0  0
  3  4  1  0  0  0  0
  4  5  2  0  0  0  0
  5  6  1  0  0  0  0
  6  7  2  0  0  0  0
  7  8  1  0  0  0  0
  3  8  2  0  0  0  0
M  END
>  <cdx:groupId>
26

>  <cdx:fragmentId>
5

$$$$
