91750207.cdx
  Mrv1902 05222410192D          

 17 18  0  0  0  0            999 V2000
    8.3365  -15.4958    0.0000 C   0  0  1  0  0  0  0  0  0  0  0  0
    9.0510  -15.0833    0.0000 C   0  0  0  0  0  0  0  0  0  0  0  0
    9.0510  -14.2583    0.0000 C   0  0  0  0  0  0  0  0  0  0  0  0
    8.3365  -13.8458    0.0000 C   0  0  0  0  0  0  0  0  0  0  0  0
    7.6220  -14.2583    0.0000 C   0  0  0  0  0  0  0  0  0  0  0  0
    6.9076  -13.8458    0.0000 C   0  0  0  0  0  0  0  0  0  0  0  0
    6.1931  -14.2583    0.0000 C   0  0  0  0  0  0  0  0  0  0  0  0
    6.1931  -15.0833    0.0000 C   0  0  0  0  0  0  0  0  0  0  0  0
    6.9076  -15.4958    0.0000 C   0  0  0  0  0  0  0  0  0  0  0  0
    7.6220  -15.0833    0.0000 C   0  0  1  0  0  0  0  0  0  0  0  0
    7.6220  -13.4333    0.0000 O   0  0  0  0  0  0  0  0  0  0  0  0
    7.6220  -16.7333    0.0000 C   0  0  0  0  0  0  0  0  0  0  0  0
    8.3365  -16.3208    0.0000 C   0  0  0  0  0  0  0  0  0  0  0  0
    9.0510  -16.7333    0.0000 C   0  0  0  0  0  0  0  0  0  0  0  0
    5.4786  -15.4958    0.0000 C   0  0  0  0  0  0  0  0  0  0  0  0
    8.3365  -13.0208    0.0000 C   0  0  0  0  0  0  0  0  0  0  0  0
    7.6220  -15.9083    0.0000 H   0  0  0  0  0  0  0  0  0  0  0  0
  1  2  1  0  0  0  0
  2  3  1  0  0  0  0
  3  4  2  0  0  0  0
  4  5  1  0  0  0  0
  5  6  1  0  0  0  0
  6  7  1  0  0  0  0
  7  8  1  0  0  0  0
  8  9  2  0  0  0  0
  9 10  1  0  0  0  0
  1 10  1  0  0  0  0
  5 10  1  0  0  0  0
  5 11  1  0  0  0  0
 12 13  1  0  0  0  0
 13 14  1  0  0  0  0
  1 13  1  6  0  0  0
  8 15  1  0  0  0  0
  4 16  1  0  0  0  0
 10 17  1  1  0  0  0
M  END
>  <cdx:groupId>
217722

>  <cdx:fragmentId>
217673

$$$$
