91750202.cdx
  Mrv1902 05222410182D          

 15 16  0  0  0  0            999 V2000
    8.5058   -5.4095    0.0000 C   0  0  2  0  0  0  0  0  0  0  0  0
    9.2904   -5.6645    0.0000 C   0  0  0  0  0  0  0  0  0  0  0  0
    9.2904   -6.4895    0.0000 C   0  0  0  0  0  0  0  0  0  0  0  0
    8.5058   -6.7444    0.0000 C   0  0  0  0  0  0  0  0  0  0  0  0
    8.0209   -6.0770    0.0000 C   0  0  2  0  0  0  0  0  0  0  0  0
    7.6084   -6.7914    0.0000 C   0  0  0  0  0  0  0  0  0  0  0  0
    6.7834   -6.7914    0.0000 C   0  0  0  0  0  0  0  0  0  0  0  0
    6.3709   -6.0770    0.0000 C   0  0  0  0  0  0  0  0  0  0  0  0
    6.7834   -5.3625    0.0000 C   0  0  0  0  0  0  0  0  0  0  0  0
    7.6084   -5.3625    0.0000 C   0  0  0  0  0  0  0  0  0  0  0  0
    8.8342   -8.1124    0.0000 C   0  0  0  0  0  0  0  0  0  0  0  0
    8.2508   -7.5290    0.0000 C   0  0  0  0  0  0  0  0  0  0  0  0
    7.4439   -7.7005    0.0000 C   0  0  0  0  0  0  0  0  0  0  0  0
    5.5459   -6.0770    0.0000 C   0  0  0  0  0  0  0  0  0  0  0  0
    8.2508   -4.6249    0.0000 C   0  0  0  0  0  0  0  0  0  0  0  0
  1  2  1  0  0  0  0
  2  3  1  0  0  0  0
  3  4  1  0  0  0  0
  4  5  1  0  0  0  0
  5  6  1  6  0  0  0
  6  7  1  0  0  0  0
  7  8  1  0  0  0  0
  8  9  2  0  0  0  0
  9 10  1  0  0  0  0
  1  5  1  0  0  0  0
  5 10  1  1  0  0  0
 11 12  1  0  0  0  0
 12 13  1  0  0  0  0
  4 12  2  0  0  0  0
  8 14  1  0  0  0  0
  1 15  1  6  0  0  0
M  END
>  <cdx:groupId>
48

>  <cdx:fragmentId>
5

$$$$
