7505.cdx
  Mrv1902 05222410242D          

  8  8  0  0  0  0            999 V2000
    3.2222   -3.3987    0.0000 C   0  0  0  0  0  0  0  0  0  0  0  0
    3.9366   -2.9862    0.0000 C   0  0  0  0  0  0  0  0  0  0  0  0
    3.9366   -2.1612    0.0000 C   0  0  0  0  0  0  0  0  0  0  0  0
    4.6511   -1.7487    0.0000 C   0  0  0  0  0  0  0  0  0  0  0  0
    5.3656   -2.1612    0.0000 C   0  0  0  0  0  0  0  0  0  0  0  0
    5.3656   -2.9862    0.0000 C   0  0  0  0  0  0  0  0  0  0  0  0
    4.6511   -3.3987    0.0000 C   0  0  0  0  0  0  0  0  0  0  0  0
    2.5077   -3.8112    0.0000 N   0  0  0  0  0  0  0  0  0  0  0  0
  1  2  1  0  0  0  0
  2  3  1  0  0  0  0
  3  4  2  0  0  0  0
  4  5  1  0  0  0  0
  5  6  2  0  0  0  0
  6  7  1  0  0  0  0
  2  7  2  0  0  0  0
  1  8  3  0  0  0  0
M  END
>  <cdx:groupId>
26

>  <cdx:fragmentId>
5

$$$$
