750742.cdx
  Mrv1902 05222410272D          

 19 21  0  0  0  0            999 V2000
    7.8801   -7.1291    0.0000 C   0  0  0  0  0  0  0  0  0  0  0  0
    7.2351   -7.6434    0.0000 C   0  0  0  0  0  0  0  0  0  0  0  0
    6.5207   -7.2309    0.0000 C   0  0  0  0  0  0  0  0  0  0  0  0
    5.8062   -7.6434    0.0000 C   0  0  2  0  0  0  0  0  0  0  0  0
    5.0917   -8.0559    0.0000 O   0  0  0  0  0  0  0  0  0  0  0  0
    5.8062   -8.4684    0.0000 C   0  0  0  0  0  0  0  0  0  0  0  0
    6.5207   -8.8809    0.0000 C   0  0  0  0  0  0  0  0  0  0  0  0
    7.2351   -8.4684    0.0000 C   0  0  0  0  0  0  0  0  0  0  0  0
    7.8801   -8.9828    0.0000 C   0  0  0  0  0  0  0  0  0  0  0  0
    8.6845   -8.7992    0.0000 C   0  0  0  0  0  0  0  0  0  0  0  0
    9.0424   -8.0559    0.0000 C   0  0  0  0  0  0  0  0  0  0  0  0
    8.6845   -7.3126    0.0000 C   0  0  1  0  0  0  0  0  0  0  0  0
    8.4413   -6.5243    0.0000 O   0  0  0  0  0  0  0  0  0  0  0  0
    9.4524   -9.1006    0.0000 C   0  0  0  0  0  0  0  0  0  0  0  0
    8.8074   -9.6150    0.0000 C   0  0  0  0  0  0  0  0  0  0  0  0
    5.3937   -9.1829    0.0000 C   0  0  0  0  0  0  0  0  0  0  0  0
    7.3190   -6.5243    0.0000 C   0  0  0  0  0  0  0  0  0  0  0  0
    5.3937   -6.9290    0.0000 H   0  0  0  0  0  0  0  0  0  0  0  0
    9.4524   -7.0112    0.0000 H   0  0  0  0  0  0  0  0  0  0  0  0
  1  2  1  0  0  0  0
  2  3  1  0  0  0  0
  3  4  1  0  0  0  0
  4  5  1  0  0  0  0
  5  6  1  0  0  0  0
  6  7  1  0  0  0  0
  7  8  1  0  0  0  0
  8  9  2  0  0  0  0
  9 10  1  0  0  0  0
 10 11  1  0  0  0  0
 11 12  1  0  0  0  0
 12 13  1  0  0  0  0
  1 13  1  0  0  0  0
  1 12  1  0  0  0  0
  4  6  1  0  0  0  0
 10 14  1  0  0  0  0
 10 15  1  0  0  0  0
  6 16  1  0  0  0  0
  1 17  1  0  0  0  0
  4 18  1  6  0  0  0
 12 19  1  1  0  0  0
M  END
>  <cdx:fragmentId>
217730

$$$$
