750979.cdx
  Mrv1902 05222410202D          

 35 38  0  0  0  0            999 V2000
    9.2280   -8.8022    0.0000 C   0  0  0  0  0  0  0  0  0  0  0  0
   10.0350   -8.9737    0.0000 C   0  0  0  0  0  0  0  0  0  0  0  0
   10.5870   -8.3606    0.0000 C   0  0  0  0  0  0  0  0  0  0  0  0
   11.3940   -8.5322    0.0000 C   0  0  0  0  0  0  0  0  0  0  0  0
   11.6490   -9.3168    0.0000 C   0  0  0  0  0  0  0  0  0  0  0  0
   11.0969   -9.9299    0.0000 C   0  0  0  0  0  0  0  0  0  0  0  0
   10.2899   -9.7584    0.0000 C   0  0  0  0  0  0  0  0  0  0  0  0
    8.6760   -9.4153    0.0000 O   0  0  0  0  0  0  0  0  0  0  0  0
    8.9731   -8.0176    0.0000 O   0  0  0  0  0  0  0  0  0  0  0  0
   12.4559   -9.4883    0.0000 O   0  0  0  0  0  0  0  0  0  0  0  0
    8.1661   -7.8461    0.0000 C   0  0  0  0  0  0  0  0  0  0  0  0
    6.4121   -7.2190    0.0000 C   0  0  1  0  0  0  0  0  0  0  0  0
    7.1266   -6.8065    0.0000 C   0  0  1  0  0  0  0  0  0  0  0  0
    7.1266   -5.9815    0.0000 C   0  0  1  0  0  0  0  0  0  0  0  0
    6.4121   -5.5690    0.0000 C   0  0  0  0  0  0  0  0  0  0  0  0
    5.6976   -5.9815    0.0000 C   0  0  0  0  0  0  0  0  0  0  0  0
    5.6976   -6.8065    0.0000 O   0  0  0  0  0  0  0  0  0  0  0  0
    7.9112   -5.7266    0.0000 C   0  0  1  0  0  0  0  0  0  0  0  0
    8.3961   -6.3940    0.0000 C   0  0  0  0  0  0  0  0  0  0  0  0
    7.9112   -7.0614    0.0000 C   0  0  0  0  0  0  0  0  0  0  0  0
    6.4121   -8.0440    0.0000 O   0  0  0  0  0  0  0  0  0  0  0  0
    4.9831   -8.0440    0.0000 O   0  0  0  0  0  0  0  0  0  0  0  0
    5.6976   -8.4565    0.0000 C   0  0  2  0  0  0  0  0  0  0  0  0
    5.6976   -9.2815    0.0000 C   0  0  1  0  0  0  0  0  0  0  0  0
    4.9831   -9.6940    0.0000 C   0  0  2  0  0  0  0  0  0  0  0  0
    4.2687   -9.2815    0.0000 C   0  0  1  0  0  0  0  0  0  0  0  0
    4.2687   -8.4565    0.0000 C   0  0  1  0  0  0  0  0  0  0  0  0
    3.5542   -8.0440    0.0000 C   0  0  0  0  0  0  0  0  0  0  0  0
    2.8397   -8.4565    0.0000 O   0  0  0  0  0  0  0  0  0  0  0  0
    3.5542   -9.6940    0.0000 O   0  0  0  0  0  0  0  0  0  0  0  0
    4.9831  -10.5190    0.0000 O   0  0  0  0  0  0  0  0  0  0  0  0
    6.4121   -9.6940    0.0000 O   0  0  0  0  0  0  0  0  0  0  0  0
    8.1661   -4.9419    0.0000 O   0  0  0  0  0  0  0  0  0  0  0  0
    7.2128   -5.1610    0.0000 H   0  0  0  0  0  0  0  0  0  0  0  0
    7.2128   -7.6270    0.0000 H   0  0  0  0  0  0  0  0  0  0  0  0
  1  2  1  0  0  0  0
  2  3  1  0  0  0  0
  3  4  2  0  0  0  0
  4  5  1  0  0  0  0
  5  6  2  0  0  0  0
  6  7  1  0  0  0  0
  2  7  2  0  0  0  0
  1  8  2  0  0  0  0
  1  9  1  0  0  0  0
  5 10  1  0  0  0  0
 12 13  1  0  0  0  0
 13 14  1  0  0  0  0
 14 15  1  0  0  0  0
 15 16  2  0  0  0  0
 16 17  1  0  0  0  0
 12 17  1  0  0  0  0
 18 19  1  0  0  0  0
 19 20  2  0  0  0  0
 13 20  1  0  0  0  0
 14 18  1  0  0  0  0
 22 23  1  0  0  0  0
 23 24  1  0  0  0  0
 24 25  1  0  0  0  0
 25 26  1  0  0  0  0
 26 27  1  0  0  0  0
 22 27  1  0  0  0  0
 28 29  1  0  0  0  0
 27 28  1  1  0  0  0
 26 30  1  6  0  0  0
 25 31  1  1  0  0  0
 24 32  1  6  0  0  0
 23 21  1  1  0  0  0
 12 21  1  6  0  0  0
 18 33  1  6  0  0  0
 11 20  1  0  0  0  0
  9 11  1  0  0  0  0
 14 34  1  6  0  0  0
 13 35  1  6  0  0  0
M  END
>  <cdx:fragmentId>
35637

$$$$
