751.cdx
  Mrv1902 05222410242D          

  6  5  0  0  0  0            999 V2000
    6.7102   -4.9482    0.0000 C   0  0  0  0  0  0  0  0  0  0  0  0
    7.4315   -5.3485    0.0000 C   0  0  0  0  0  0  0  0  0  0  0  0
    8.1389   -4.9240    0.0000 C   0  0  0  0  0  0  0  0  0  0  0  0
    6.0028   -5.3728    0.0000 O   0  0  0  0  0  0  0  0  0  0  0  0
    8.8603   -5.3243    0.0000 O   0  0  0  0  0  0  0  0  0  0  0  0
    7.4455   -6.1734    0.0000 O   0  0  0  0  0  0  0  0  0  0  0  0
  1  2  1  0  0  0  0
  2  3  1  0  0  0  0
  1  4  2  0  0  0  0
  3  5  1  0  0  0  0
  2  6  1  0  0  0  0
M  END
>  <cdx:fragmentId>
5

$$$$
