75103.cdx
  Mrv1902 05222410282D          

  6  5  0  0  0  0            999 V2000
    5.1653   -3.3127    0.0000 C   0  0  0  0  0  0  0  0  0  0  0  0
    4.4509   -2.9002    0.0000 C   0  0  0  0  0  0  0  0  0  0  0  0
    3.7364   -3.3127    0.0000 C   0  0  0  0  0  0  0  0  0  0  0  0
    5.8798   -2.9002    0.0000 O   0  0  0  0  0  0  0  0  0  0  0  0
    3.0219   -2.9002    0.0000 O   0  0  0  0  0  0  0  0  0  0  0  0
    4.4509   -2.0752    0.0000 C   0  0  0  0  0  0  0  0  0  0  0  0
  1  2  1  0  0  0  0
  2  3  1  0  0  0  0
  1  4  1  0  0  0  0
  3  5  1  0  0  0  0
  2  6  1  0  0  0  0
M  END
>  <cdx:groupId>
19

>  <cdx:fragmentId>
5

$$$$
