131751049.cdx
  Mrv1902 05222410262D          

 28 30  0  0  0  0            999 V2000
   16.5149  -10.5264    0.0000 O   0  0  0  0  0  0  0  0  0  0  0  0
   15.8004  -10.1139    0.0000 C   0  0  0  0  0  0  0  0  0  0  0  0
   15.8004   -9.2889    0.0000 C   0  0  0  0  0  0  0  0  0  0  0  0
   16.5149   -8.8764    0.0000 C   0  0  0  0  0  0  0  0  0  0  0  0
   17.2294   -9.2889    0.0000 C   0  0  0  0  0  0  0  0  0  0  0  0
   17.2294  -10.1139    0.0000 C   0  0  0  0  0  0  0  0  0  0  0  0
   15.0860   -8.8764    0.0000 O   0  0  0  0  0  0  0  0  0  0  0  0
   16.5149   -8.0514    0.0000 O   0  0  0  0  0  0  0  0  0  0  0  0
   17.9439   -8.8764    0.0000 O   0  0  0  0  0  0  0  0  0  0  0  0
   17.9439  -10.5264    0.0000 C   0  0  0  0  0  0  0  0  0  0  0  0
   18.6583  -10.1139    0.0000 O   0  0  0  0  0  0  0  0  0  0  0  0
   15.0860  -10.5264    0.0000 O   0  0  0  0  0  0  0  0  0  0  0  0
   14.3715  -10.1139    0.0000 C   0  0  0  0  0  0  0  0  0  0  0  0
   13.6570  -10.5264    0.0000 C   0  0  0  0  0  0  0  0  0  0  0  0
   12.9426  -10.1139    0.0000 C   0  0  0  0  0  0  0  0  0  0  0  0
   12.9426   -9.2889    0.0000 C   0  0  0  0  0  0  0  0  0  0  0  0
   13.6570   -8.8764    0.0000 C   0  0  0  0  0  0  0  0  0  0  0  0
   14.3715   -9.2889    0.0000 C   0  0  0  0  0  0  0  0  0  0  0  0
   12.2281   -8.8764    0.0000 C   0  0  0  0  0  0  0  0  0  0  0  0
   11.5136   -9.2889    0.0000 C   0  0  0  0  0  0  0  0  0  0  0  0
   11.5136  -10.1139    0.0000 C   0  0  0  0  0  0  0  0  0  0  0  0
   10.7991  -10.5264    0.0000 C   0  0  0  0  0  0  0  0  0  0  0  0
   10.7991  -11.3514    0.0000 C   0  0  0  0  0  0  0  0  0  0  0  0
   11.5136  -11.7639    0.0000 C   0  0  0  0  0  0  0  0  0  0  0  0
   12.2281  -11.3514    0.0000 C   0  0  0  0  0  0  0  0  0  0  0  0
   12.2281  -10.5264    0.0000 C   0  0  0  0  0  0  0  0  0  0  0  0
   12.9426  -11.7639    0.0000 O   0  0  0  0  0  0  0  0  0  0  0  0
   10.0847  -11.7639    0.0000 O   0  0  0  0  0  0  0  0  0  0  0  0
  1  2  1  0  0  0  0
  2  3  1  0  0  0  0
  3  4  1  0  0  0  0
  4  5  1  0  0  0  0
  5  6  1  0  0  0  0
  1  6  1  0  0  0  0
  3  7  1  0  0  0  0
  4  8  1  0  0  0  0
  5  9  1  0  0  0  0
 10 11  1  0  0  0  0
  6 10  1  0  0  0  0
 13 14  1  0  0  0  0
 14 15  2  0  0  0  0
 15 16  1  0  0  0  0
 16 17  2  0  0  0  0
 17 18  1  0  0  0  0
 13 18  2  0  0  0  0
 12 13  1  0  0  0  0
 19 20  2  0  0  0  0
 21 22  1  0  0  0  0
 22 23  2  0  0  0  0
 23 24  1  0  0  0  0
 24 25  2  0  0  0  0
 25 26  1  0  0  0  0
 21 26  2  0  0  0  0
 25 27  1  0  0  0  0
 23 28  1  0  0  0  0
 20 21  1  0  0  0  0
 16 19  1  0  0  0  0
  2 12  1  0  0  0  0
M  END
>  <cdx:groupId>
58736

>  <cdx:fragmentId>
58693

$$$$
