75110.cdx
  Mrv1902 05222410272D          

  8  8  0  0  0  0            999 V2000
    8.0532   -4.6425    0.0000 C   0  0  0  0  0  0  0  0  0  0  0  0
    7.8046   -5.4291    0.0000 C   0  0  0  0  0  0  0  0  0  0  0  0
    8.2950   -6.0926    0.0000 C   0  0  0  0  0  0  0  0  0  0  0  0
    6.9797   -5.4358    0.0000 C   0  0  0  0  0  0  0  0  0  0  0  0
    6.7184   -4.6533    0.0000 C   0  0  0  0  0  0  0  0  0  0  0  0
    8.8357   -4.3812    0.0000 O   0  0  0  0  0  0  0  0  0  0  0  0
    5.9317   -4.4047    0.0000 O   0  0  0  0  0  0  0  0  0  0  0  0
    7.3818   -4.1630    0.0000 O   0  0  0  0  0  0  0  0  0  0  0  0
  1  2  1  0  0  0  0
  2  3  2  0  0  0  0
  2  4  1  0  0  0  0
  4  5  1  0  0  0  0
  1  6  2  0  0  0  0
  5  7  2  0  0  0  0
  1  8  1  0  0  0  0
  5  8  1  0  0  0  0
M  END
>  <cdx:fragmentId>
5

$$$$
