751357.cdx
  Mrv1902 05222410212D          

 16 18  0  0  0  0            999 V2000
    6.2375   -4.7657    0.0000 C   0  0  0  0  0  0  0  0  0  0  0  0
    7.6664   -4.7718    0.0000 C   0  0  0  0  0  0  0  0  0  0  0  0
    5.5073   -8.4751    0.0000 C   0  0  0  0  0  0  0  0  0  0  0  0
    6.2235   -8.0657    0.0000 C   0  0  0  0  0  0  0  0  0  0  0  0
    6.9362   -8.4812    0.0000 C   0  0  0  0  0  0  0  0  0  0  0  0
    9.0918   -5.6028    0.0000 O   0  0  0  0  0  0  0  0  0  0  0  0
    5.5178   -6.0002    0.0000 C   0  0  0  0  0  0  0  0  0  0  0  0
    5.5143   -6.8251    0.0000 C   0  0  0  0  0  0  0  0  0  0  0  0
    6.2270   -7.2407    0.0000 C   0  0  1  0  0  0  0  0  0  0  0  0
    6.9432   -6.8312    0.0000 C   0  0  0  0  0  0  0  0  0  0  0  0
    7.6559   -7.2467    0.0000 C   0  0  0  0  0  0  0  0  0  0  0  0
    8.3721   -6.8373    0.0000 C   0  0  0  0  0  0  0  0  0  0  0  0
    8.3756   -6.0123    0.0000 C   0  0  2  0  0  0  0  0  0  0  0  0
    7.6629   -5.5967    0.0000 C   0  0  0  0  0  0  0  0  0  0  0  0
    6.9467   -6.0062    0.0000 C   0  0  0  0  0  0  0  0  0  0  0  0
    6.2340   -5.5907    0.0000 C   0  0  0  0  0  0  0  0  0  0  0  0
 16  1  1  0  0  0  0
 14  2  2  0  0  0  0
  9  4  1  1  0  0  0
  4  3  1  0  0  0  0
  5  4  1  0  0  0  0
 13  6  1  6  0  0  0
 15 10  1  0  0  0  0
 16 11  1  0  0  0  0
 16  7  1  0  0  0  0
  8  7  1  0  0  0  0
  9  8  1  0  0  0  0
 10  9  1  0  0  0  0
 11 10  1  0  0  0  0
 12 11  1  0  0  0  0
 13 12  1  0  0  0  0
 14 13  1  0  0  0  0
 15 14  1  0  0  0  0
 16 15  1  0  0  0  0
M  END
>  <cdx:fragmentId>
111

$$$$
