751478.cdx
  Mrv1902 05222410182D          

 22 21  0  0  0  0            999 V2000
    1.4161  -11.7749    0.0000 O   0  0  0  0  0  0  0  0  0  0  0  0
    2.1306  -13.0124    0.0000 O   0  0  0  0  0  0  0  0  0  0  0  0
    4.9885  -12.1874    0.0000 C   0  0  0  0  0  0  0  0  0  0  0  0
    4.2740  -11.7749    0.0000 C   0  0  0  0  0  0  0  0  0  0  0  0
    3.5595  -12.1874    0.0000 C   0  0  0  0  0  0  0  0  0  0  0  0
    2.8451  -11.7749    0.0000 C   0  0  0  0  0  0  0  0  0  0  0  0
    2.1306  -12.1874    0.0000 C   0  0  0  0  0  0  0  0  0  0  0  0
    5.7029  -11.7749    0.0000 C   0  0  0  0  0  0  0  0  0  0  0  0
    5.7029  -10.9499    0.0000 C   0  0  0  0  0  0  0  0  0  0  0  0
    6.4174  -10.5374    0.0000 C   0  0  0  0  0  0  0  0  0  0  0  0
    6.4174   -9.7124    0.0000 C   0  0  0  0  0  0  0  0  0  0  0  0
    7.1319   -9.2999    0.0000 C   0  0  0  0  0  0  0  0  0  0  0  0
    7.8463   -8.0624    0.0000 C   0  0  0  0  0  0  0  0  0  0  0  0
    8.5608   -8.4749    0.0000 C   0  0  0  0  0  0  0  0  0  0  0  0
    9.2753   -8.0624    0.0000 C   0  0  0  0  0  0  0  0  0  0  0  0
    9.9898   -8.4749    0.0000 C   0  0  0  0  0  0  0  0  0  0  0  0
   10.7042   -8.0624    0.0000 C   0  0  0  0  0  0  0  0  0  0  0  0
   11.4187   -8.4749    0.0000 C   0  0  0  0  0  0  0  0  0  0  0  0
   12.1332   -8.0624    0.0000 C   0  0  0  0  0  0  0  0  0  0  0  0
   12.8476   -8.4749    0.0000 C   0  0  0  0  0  0  0  0  0  0  0  0
   13.5621   -8.0624    0.0000 C   0  0  0  0  0  0  0  0  0  0  0  0
    7.1319   -8.4749    0.0000 C   0  0  0  0  0  0  0  0  0  0  0  0
  7  1  1  0  0  0  0
  7  2  2  0  0  0  0
  4  3  1  0  0  0  0
  5  4  1  0  0  0  0
  6  5  1  0  0  0  0
  7  6  1  0  0  0  0
  3  8  2  0  0  0  0
  8  9  1  0  0  0  0
  9 10  1  0  0  0  0
 10 11  1  0  0  0  0
 11 12  1  0  0  0  0
 12 22  1  0  0  0  0
 13 14  1  0  0  0  0
 14 15  1  0  0  0  0
 15 16  1  0  0  0  0
 16 17  1  0  0  0  0
 17 18  1  0  0  0  0
 18 19  1  0  0  0  0
 19 20  1  0  0  0  0
 22 13  2  0  0  0  0
 20 21  1  0  0  0  0
M  END
>  <cdx:groupId>
95600

>  <cdx:fragmentId>
95538

$$$$
