7515.cdx
  Mrv1902 05222410242D          

  8  8  0  0  0  0            999 V2000
    4.8594   -3.2427    0.0000 N   0  0  0  0  0  0  0  0  0  0  0  0
    4.1449   -2.8302    0.0000 C   0  0  0  0  0  0  0  0  0  0  0  0
    3.4305   -3.2427    0.0000 C   0  0  0  0  0  0  0  0  0  0  0  0
    2.7160   -2.8302    0.0000 C   0  0  0  0  0  0  0  0  0  0  0  0
    2.7160   -2.0052    0.0000 C   0  0  0  0  0  0  0  0  0  0  0  0
    3.4305   -1.5927    0.0000 C   0  0  0  0  0  0  0  0  0  0  0  0
    4.1449   -2.0052    0.0000 C   0  0  0  0  0  0  0  0  0  0  0  0
    5.5739   -2.8302    0.0000 C   0  0  0  0  0  0  0  0  0  0  0  0
  1  2  1  0  0  0  0
  2  3  1  0  0  0  0
  3  4  2  0  0  0  0
  4  5  1  0  0  0  0
  5  6  2  0  0  0  0
  6  7  1  0  0  0  0
  2  7  2  0  0  0  0
  1  8  1  0  0  0  0
M  END
>  <cdx:groupId>
26

>  <cdx:fragmentId>
5

$$$$
