131751571.cdx
  Mrv1902 05222410232D          

 38 43  0  0  0  0            999 V2000
    9.5008   -9.9733    0.0000 C   0  0  2  0  0  0  0  0  0  0  0  0
    8.7864  -10.3858    0.0000 C   0  0  0  0  0  0  0  0  0  0  0  0
    8.0719   -9.9733    0.0000 C   0  0  1  0  0  0  0  0  0  0  0  0
    7.3574  -10.3858    0.0000 C   0  0  2  0  0  0  0  0  0  0  0  0
    7.3574  -11.2108    0.0000 C   0  0  0  0  0  0  0  0  0  0  0  0
    6.6429  -11.6233    0.0000 C   0  0  0  0  0  0  0  0  0  0  0  0
    5.9285  -11.2108    0.0000 C   0  0  0  0  0  0  0  0  0  0  0  0
    5.2140  -11.6233    0.0000 C   0  0  0  0  0  0  0  0  0  0  0  0
    4.4995  -11.2108    0.0000 C   0  0  2  0  0  0  0  0  0  0  0  0
    4.4995  -10.3858    0.0000 C   0  0  0  0  0  0  0  0  0  0  0  0
    5.2140   -9.9733    0.0000 C   0  0  0  0  0  0  0  0  0  0  0  0
    5.9285  -10.3858    0.0000 C   0  0  2  0  0  0  0  0  0  0  0  0
    6.6429   -9.9733    0.0000 C   0  0  0  0  0  0  0  0  0  0  0  0
    6.6429   -9.1483    0.0000 C   0  0  0  0  0  0  0  0  0  0  0  0
    7.3574   -8.7358    0.0000 C   0  0  0  0  0  0  0  0  0  0  0  0
    8.0719   -9.1483    0.0000 C   0  0  0  0  0  0  0  0  0  0  0  0
    8.7864   -8.7358    0.0000 C   0  0  2  0  0  0  0  0  0  0  0  0
    8.7864   -7.9108    0.0000 C   0  0  0  0  0  0  0  0  0  0  0  0
    9.5008   -7.4983    0.0000 C   0  0  2  0  0  0  0  0  0  0  0  0
   10.2153   -7.9108    0.0000 C   0  0  1  0  0  0  0  0  0  0  0  0
   10.2153   -8.7358    0.0000 C   0  0  0  0  0  0  0  0  0  0  0  0
    9.5008   -9.1483    0.0000 C   0  0  2  0  0  0  0  0  0  0  0  0
   10.5303   -8.9899    0.0000 O   0  0  0  0  0  0  0  0  0  0  0  0
    9.5008   -6.6733    0.0000 C   0  0  0  0  0  0  0  0  0  0  0  0
    8.7864   -6.2608    0.0000 O   0  0  0  0  0  0  0  0  0  0  0  0
   10.2153   -6.2608    0.0000 O   0  0  0  0  0  0  0  0  0  0  0  0
    5.9285   -8.7358    0.0000 O   0  0  0  0  0  0  0  0  0  0  0  0
    9.5008   -8.3233    0.0000 C   0  0  0  0  0  0  0  0  0  0  0  0
   10.2153   -7.0858    0.0000 C   0  0  0  0  0  0  0  0  0  0  0  0
    5.9285   -9.5608    0.0000 C   0  0  0  0  0  0  0  0  0  0  0  0
    5.6265  -12.3377    0.0000 C   0  0  0  0  0  0  0  0  0  0  0  0
    4.8015  -12.3377    0.0000 C   0  0  0  0  0  0  0  0  0  0  0  0
    7.3574   -9.5608    0.0000 C   0  0  0  0  0  0  0  0  0  0  0  0
    8.0719  -10.7983    0.0000 C   0  0  0  0  0  0  0  0  0  0  0  0
    3.7851  -11.6233    0.0000 O   0  0  0  0  0  0  0  0  0  0  0  0
    9.9955  -10.6335    0.0000 H   0  0  0  0  0  0  0  0  0  0  0  0
    8.7864   -9.5608    0.0000 H   0  0  0  0  0  0  0  0  0  0  0  0
   10.8642   -7.4013    0.0000 H   0  0  0  0  0  0  0  0  0  0  0  0
  1  2  1  0  0  0  0
  2  3  1  0  0  0  0
  3  4  1  0  0  0  0
  4  5  1  0  0  0  0
  5  6  1  0  0  0  0
  6  7  1  0  0  0  0
  7  8  1  0  0  0  0
  8  9  1  0  0  0  0
  9 10  1  0  0  0  0
 10 11  1  0  0  0  0
 11 12  1  0  0  0  0
 12 13  1  0  0  0  0
 13 14  1  0  0  0  0
 14 15  1  0  0  0  0
 15 16  2  0  0  0  0
 16 17  1  0  0  0  0
 17 18  1  0  0  0  0
 18 19  1  0  0  0  0
 19 20  1  0  0  0  0
 20 21  1  1  0  0  0
 21 22  1  0  0  0  0
  1 22  1  0  0  0  0
  1 23  1  0  0  0  0
 23 20  1  0  0  0  0
 17 22  1  0  0  0  0
  3 16  1  0  0  0  0
  4 13  1  0  0  0  0
  7 12  1  0  0  0  0
 24 25  2  0  0  0  0
 24 26  1  0  0  0  0
 19 24  1  0  0  0  0
 14 27  2  0  0  0  0
 22 28  1  1  0  0  0
 19 29  1  6  0  0  0
 12 30  1  1  0  0  0
  8 31  1  0  0  0  0
  8 32  1  0  0  0  0
  4 33  1  1  0  0  0
  3 34  1  6  0  0  0
  9 35  1  1  0  0  0
  1 36  1  1  0  0  0
 17 37  1  1  0  0  0
 20 38  1  0  0  0  0
M  END
>  <cdx:fragmentId>
59015

$$$$
