751863.cdx
  Mrv1902 05222410182D          

 40 44  0  0  0  0            999 V2000
    4.6413   -7.1896    0.0000 H   0  0  0  0  0  0  0  0  0  0  0  0
    7.9137   -8.7249    0.0000 H   0  0  0  0  0  0  0  0  0  0  0  0
    9.3451  -10.6205    0.0000 C   0  0  0  0  0  0  0  0  0  0  0  0
   10.0580   -9.3821    0.0000 O   0  0  0  0  0  0  0  0  0  0  0  0
    9.3440   -9.7955    0.0000 C   0  0  0  0  0  0  0  0  0  0  0  0
    8.6290   -9.3840    0.0000 O   0  0  0  0  0  0  0  0  0  0  0  0
    4.6471  -11.6486    0.0000 C   0  0  0  0  0  0  0  0  0  0  0  0
    4.3911  -10.8643    0.0000 C   0  0  0  0  0  0  0  0  0  0  0  0
    5.0579  -10.3786    0.0000 C   0  0  0  0  0  0  0  0  0  0  0  0
    5.7260  -10.8626    0.0000 C   0  0  0  0  0  0  0  0  0  0  0  0
    5.4721  -11.6476    0.0000 O   0  0  0  0  0  0  0  0  0  0  0  0
    9.3395   -6.2480    0.0000 O   0  0  0  0  0  0  0  0  0  0  0  0
    8.6245   -5.8365    0.0000 C   0  0  0  0  0  0  0  0  0  0  0  0
    8.6255   -6.6615    0.0000 C   0  0  0  0  0  0  0  0  0  0  0  0
    9.3405   -7.0730    0.0000 C   0  0  0  0  0  0  0  0  0  0  0  0
    6.4848   -8.7267    0.0000 C   0  0  0  0  0  0  0  0  0  0  0  0
    8.6266   -7.4865    0.0000 C   0  0  0  0  0  0  0  0  0  0  0  0
    5.7719   -9.9651    0.0000 C   0  0  0  0  0  0  0  0  0  0  0  0
    5.8500   -6.5472    0.0000 O   0  0  0  0  0  0  0  0  0  0  0  0
    3.6258   -7.9054    0.0000 O   0  0  0  0  0  0  0  0  0  0  0  0
    5.7687   -7.4901    0.0000 O   0  0  0  0  0  0  0  0  0  0  0  0
    5.0548   -7.9036    0.0000 C   0  0  2  0  0  0  0  0  0  0  0  0
    4.3408   -8.3170    0.0000 C   0  0  0  0  0  0  0  0  0  0  0  0
    4.3419   -9.1420    0.0000 O   0  0  0  0  0  0  0  0  0  0  0  0
    5.0569   -9.5536    0.0000 C   0  0  1  0  0  0  0  0  0  0  0  0
    5.7708   -9.1401    0.0000 C   0  0  1  0  0  0  0  0  0  0  0  0
    6.4858   -9.5517    0.0000 C   0  0  0  0  0  0  0  0  0  0  0  0
    7.1998   -9.1383    0.0000 C   0  0  0  0  0  0  0  0  0  0  0  0
    7.1987   -8.3133    0.0000 C   0  0  2  0  0  0  0  0  0  0  0  0
    7.9126   -7.8999    0.0000 C   0  0  1  0  0  0  0  0  0  0  0  0
    7.9116   -7.0749    0.0000 C   0  0  1  0  0  0  0  0  0  0  0  0
    7.1966   -6.6633    0.0000 C   0  0  0  0  0  0  0  0  0  0  0  0
    6.4826   -7.0767    0.0000 C   0  0  0  0  0  0  0  0  0  0  0  0
    6.4837   -7.9017    0.0000 C   0  0  2  0  0  0  0  0  0  0  0  0
    5.7698   -8.3151    0.0000 C   0  0  2  0  0  0  0  0  0  0  0  0
   10.9847   -7.7722    0.0000 O   0  0  0  0  0  0  0  0  0  0  0  0
   10.2718   -9.0106    0.0000 O   0  0  0  0  0  0  0  0  0  0  0  0
    8.6276   -8.3115    0.0000 C   0  0  1  0  0  0  0  0  0  0  0  0
    9.5558   -7.7740    0.0000 C   0  0  0  0  0  0  0  0  0  0  0  0
   10.2708   -8.1856    0.0000 C   0  0  0  0  0  0  0  0  0  0  0  0
 22  1  1  6  0  0  0
 29  2  1  6  0  0  0
 38  6  1  1  0  0  0
  6  5  1  0  0  0  0
  5  3  1  0  0  0  0
  5  4  2  0  0  0  0
 38 30  1  0  0  0  0
 25  9  1  1  0  0  0
 11  7  1  0  0  0  0
  8  7  2  0  0  0  0
  9  8  1  0  0  0  0
 10  9  2  0  0  0  0
 11 10  1  0  0  0  0
 31 14  1  1  0  0  0
 14 12  1  0  0  0  0
 14 13  1  0  0  0  0
 15 14  1  0  0  0  0
 34 16  1  1  0  0  0
 30 17  1  1  0  0  0
 26 18  1  6  0  0  0
 33 19  2  0  0  0  0
 23 20  2  0  0  0  0
 34 29  1  0  0  0  0
 35 22  1  0  0  0  0
 35 26  1  0  0  0  0
 35 21  1  1  0  0  0
 22 21  1  0  0  0  0
 23 22  1  0  0  0  0
 24 23  1  0  0  0  0
 25 24  1  0  0  0  0
 26 25  1  0  0  0  0
 27 26  1  0  0  0  0
 28 27  1  0  0  0  0
 29 28  1  0  0  0  0
 30 29  1  0  0  0  0
 31 30  1  0  0  0  0
 32 31  1  0  0  0  0
 33 32  1  0  0  0  0
 34 33  1  0  0  0  0
 35 34  1  0  0  0  0
 40 36  1  0  0  0  0
 40 37  2  0  0  0  0
 39 38  1  0  0  0  0
 40 39  1  0  0  0  0
M  END
>  <cdx:fragmentId>
15

$$$$
