7519.cdx
  Mrv1902 05222410212D          

  8  8  0  0  0  0            999 V2000
    5.8785   -6.3528    0.0000 C   0  0  0  0  0  0  0  0  0  0  0  0
    6.5934   -6.7646    0.0000 O   0  0  0  0  0  0  0  0  0  0  0  0
    6.5942   -7.5896    0.0000 C   0  0  0  0  0  0  0  0  0  0  0  0
    7.3091   -8.0014    0.0000 C   0  0  0  0  0  0  0  0  0  0  0  0
    7.3099   -8.8264    0.0000 C   0  0  0  0  0  0  0  0  0  0  0  0
    6.5958   -9.2396    0.0000 C   0  0  0  0  0  0  0  0  0  0  0  0
    5.8809   -8.8278    0.0000 C   0  0  0  0  0  0  0  0  0  0  0  0
    5.8801   -8.0028    0.0000 C   0  0  0  0  0  0  0  0  0  0  0  0
  1  2  1  0  0  0  0
  2  3  1  0  0  0  0
  3  4  1  0  0  0  0
  4  5  2  0  0  0  0
  5  6  1  0  0  0  0
  6  7  2  0  0  0  0
  7  8  1  0  0  0  0
  3  8  2  0  0  0  0
M  END
>  <cdx:fragmentId>
5

$$$$
