752.cdx
  Mrv1902 05222410252D          

  7  6  0  0  0  0            999 V2000
    7.6678   -4.2564    0.0000 C   0  0  0  0  0  0  0  0  0  0  0  0
    6.9534   -4.6689    0.0000 C   0  0  0  0  0  0  0  0  0  0  0  0
    6.2389   -4.2564    0.0000 C   0  0  0  0  0  0  0  0  0  0  0  0
    7.6678   -3.4314    0.0000 O   0  0  0  0  0  0  0  0  0  0  0  0
    8.3823   -4.6689    0.0000 O   0  0  0  0  0  0  0  0  0  0  0  0
    5.5244   -4.6689    0.0000 O   0  0  0  0  0  0  0  0  0  0  0  0
    6.9534   -5.4939    0.0000 O   0  0  0  0  0  0  0  0  0  0  0  0
  1  2  1  0  0  0  0
  2  3  1  0  0  0  0
  1  4  2  0  0  0  0
  1  5  1  0  0  0  0
  3  6  1  0  0  0  0
  2  7  1  0  0  0  0
M  END
>  <cdx:fragmentId>
5

$$$$
