7522.cdx
  Mrv1902 05222410232D          

 40 43  0  0  0  0            999 V2000
    4.8958   -9.6745    0.0000 C   0  0  0  0  0  0  0  0  0  0  0  0
    4.1813  -10.0870    0.0000 C   0  0  0  0  0  0  0  0  0  0  0  0
    4.1813  -10.9120    0.0000 C   0  0  0  0  0  0  0  0  0  0  0  0
    4.8958  -11.3245    0.0000 C   0  0  0  0  0  0  0  0  0  0  0  0
    5.6103  -10.9120    0.0000 C   0  0  2  0  0  0  0  0  0  0  0  0
    6.3247  -11.3245    0.0000 C   0  0  0  0  0  0  0  0  0  0  0  0
    7.0392  -10.9120    0.0000 C   0  0  0  0  0  0  0  0  0  0  0  0
    7.0392  -10.0870    0.0000 C   0  0  2  0  0  0  0  0  0  0  0  0
    7.7537   -9.6745    0.0000 C   0  0  1  0  0  0  0  0  0  0  0  0
    8.5383   -9.9294    0.0000 C   0  0  0  0  0  0  0  0  0  0  0  0
    9.0232   -9.2620    0.0000 C   0  0  0  0  0  0  0  0  0  0  0  0
    8.5383   -8.5946    0.0000 C   0  0  0  0  0  0  0  0  0  0  0  0
    7.7537   -8.8495    0.0000 C   0  0  0  0  0  0  0  0  0  0  0  0
    7.0392   -8.4370    0.0000 C   0  0  0  0  0  0  0  0  0  0  0  0
    6.3247   -8.8495    0.0000 C   0  0  1  0  0  0  0  0  0  0  0  0
    6.3247   -9.6745    0.0000 C   0  0  1  0  0  0  0  0  0  0  0  0
    5.6103  -10.0870    0.0000 C   0  0  1  0  0  0  0  0  0  0  0  0
    3.4669  -11.3245    0.0000 O   0  0  0  0  0  0  0  0  0  0  0  0
    8.2412   -7.1968    0.0000 C   0  0  0  0  0  0  0  0  0  0  0  0
    8.7932   -7.8099    0.0000 C   0  0  2  0  0  0  0  0  0  0  0  0
    9.6002   -7.6384    0.0000 C   0  0  0  0  0  0  0  0  0  0  0  0
    9.8552   -6.8538    0.0000 C   0  0  2  0  0  0  0  0  0  0  0  0
   10.9171   -5.8976    0.0000 O   0  0  0  0  0  0  0  0  0  0  0  0
    9.3031   -6.2407    0.0000 O   0  0  0  0  0  0  0  0  0  0  0  0
    7.7537  -10.4995    0.0000 C   0  0  0  0  0  0  0  0  0  0  0  0
    5.6103   -9.2620    0.0000 C   0  0  0  0  0  0  0  0  0  0  0  0
    7.0392   -9.2620    0.0000 C   0  0  0  0  0  0  0  0  0  0  0  0
    5.3083  -12.0390    0.0000 C   0  0  0  0  0  0  0  0  0  0  0  0
    4.4833  -12.0390    0.0000 C   0  0  0  0  0  0  0  0  0  0  0  0
    5.6103   -8.4370    0.0000 O   0  0  0  0  0  0  0  0  0  0  0  0
    5.6103  -11.7370    0.0000 H   0  0  0  0  0  0  0  0  0  0  0  0
    6.3247  -10.4995    0.0000 H   0  0  0  0  0  0  0  0  0  0  0  0
   11.7662   -7.9084    0.0000 O   0  0  0  0  0  0  0  0  0  0  0  0
   11.8553   -6.7762    0.0000 C   0  0  0  0  0  0  0  0  0  0  0  0
   10.5730   -7.8145    0.0000 C   0  0  0  0  0  0  0  0  0  0  0  0
   11.2142   -7.2954    0.0000 C   0  0  0  0  0  0  0  0  0  0  0  0
   10.6621   -6.6823    0.0000 C   0  0  1  0  0  0  0  0  0  0  0  0
    9.5581   -5.4561    0.0000 C   0  0  0  0  0  0  0  0  0  0  0  0
    9.0060   -4.8430    0.0000 O   0  0  0  0  0  0  0  0  0  0  0  0
   10.3650   -5.2845    0.0000 C   0  0  0  0  0  0  0  0  0  0  0  0
 37 23  1  1  0  0  0
 36 33  1  0  0  0  0
 36 34  1  0  0  0  0
 36 35  1  0  0  0  0
 37 36  1  0  0  0  0
  1  2  1  0  0  0  0
  2  3  1  0  0  0  0
  3  4  1  0  0  0  0
  4  5  1  0  0  0  0
  5  6  1  0  0  0  0
  6  7  1  0  0  0  0
  7  8  1  0  0  0  0
  8  9  1  0  0  0  0
  9 10  1  0  0  0  0
 10 11  1  0  0  0  0
 11 12  1  0  0  0  0
 12 13  2  0  0  0  0
  9 13  1  0  0  0  0
 13 14  1  0  0  0  0
 14 15  1  0  0  0  0
 15 16  1  0  0  0  0
  8 16  1  0  0  0  0
 16 17  1  0  0  0  0
  5 17  1  0  0  0  0
  1 17  1  0  0  0  0
  3 18  2  0  0  0  0
 20 19  1  6  0  0  0
 20 21  1  0  0  0  0
 21 22  1  0  0  0  0
 22 37  1  0  0  0  0
 22 24  1  6  0  0  0
 12 20  1  0  0  0  0
  9 25  1  1  0  0  0
 17 26  1  1  0  0  0
  8 27  1  6  0  0  0
  4 28  1  0  0  0  0
  4 29  1  0  0  0  0
 15 30  1  1  0  0  0
  5 31  1  6  0  0  0
 16 32  1  1  0  0  0
 24 38  1  0  0  0  0
 38 39  2  0  0  0  0
 38 40  1  0  0  0  0
M  END
>  <cdx:fragmentId>
114263

$$$$
