752348.cdx
  Mrv1902 05222410202D          

 64 72  0  0  0  0            999 V2000
    2.9631   -4.2075    0.0000 C   0  0  0  0  0  0  0  0  0  0  0  0
    2.9631   -5.0325    0.0000 C   0  0  0  0  0  0  0  0  0  0  0  0
    3.6776   -5.4450    0.0000 C   0  0  0  0  0  0  0  0  0  0  0  0
    4.3921   -5.0325    0.0000 C   0  0  0  0  0  0  0  0  0  0  0  0
    4.3921   -4.2075    0.0000 C   0  0  0  0  0  0  0  0  0  0  0  0
    3.6776   -3.7950    0.0000 C   0  0  0  0  0  0  0  0  0  0  0  0
    5.1065   -5.4450    0.0000 C   0  0  2  0  0  0  0  0  0  0  0  0
    5.8210   -5.0325    0.0000 C   0  0  1  0  0  0  0  0  0  0  0  0
    5.8210   -4.2075    0.0000 C   0  0  2  0  0  0  0  0  0  0  0  0
    5.1065   -3.7950    0.0000 O   0  0  0  0  0  0  0  0  0  0  0  0
    2.2487   -3.7950    0.0000 O   0  0  0  0  0  0  0  0  0  0  0  0
    3.6776   -6.2700    0.0000 O   0  0  0  0  0  0  0  0  0  0  0  0
    6.5355   -5.4450    0.0000 O   0  0  0  0  0  0  0  0  0  0  0  0
    6.5355   -3.7950    0.0000 C   0  0  0  0  0  0  0  0  0  0  0  0
    7.2500   -4.2075    0.0000 C   0  0  0  0  0  0  0  0  0  0  0  0
    7.9644   -3.7950    0.0000 C   0  0  0  0  0  0  0  0  0  0  0  0
    7.9644   -2.9700    0.0000 C   0  0  0  0  0  0  0  0  0  0  0  0
    7.2500   -2.5575    0.0000 C   0  0  0  0  0  0  0  0  0  0  0  0
    6.5355   -2.9700    0.0000 C   0  0  0  0  0  0  0  0  0  0  0  0
    7.2500   -1.7325    0.0000 O   0  0  0  0  0  0  0  0  0  0  0  0
    8.6789   -2.5575    0.0000 O   0  0  0  0  0  0  0  0  0  0  0  0
    4.3931   -7.0263    0.0000 C   0  0  0  0  0  0  0  0  0  0  0  0
    4.3931   -7.8513    0.0000 C   0  0  0  0  0  0  0  0  0  0  0  0
    5.1076   -8.2637    0.0000 C   0  0  0  0  0  0  0  0  0  0  0  0
    5.8221   -7.8513    0.0000 C   0  0  0  0  0  0  0  0  0  0  0  0
    5.8221   -7.0263    0.0000 C   0  0  0  0  0  0  0  0  0  0  0  0
    5.1076   -6.6137    0.0000 C   0  0  0  0  0  0  0  0  0  0  0  0
    6.5365   -8.2637    0.0000 C   0  0  2  0  0  0  0  0  0  0  0  0
    7.2510   -7.8513    0.0000 C   0  0  1  0  0  0  0  0  0  0  0  0
    7.2510   -7.0263    0.0000 C   0  0  2  0  0  0  0  0  0  0  0  0
    6.5365   -6.6137    0.0000 O   0  0  0  0  0  0  0  0  0  0  0  0
    3.6787   -6.6137    0.0000 O   0  0  0  0  0  0  0  0  0  0  0  0
    5.1076   -9.0887    0.0000 O   0  0  0  0  0  0  0  0  0  0  0  0
    7.9655   -8.2637    0.0000 O   0  0  0  0  0  0  0  0  0  0  0  0
    7.9655   -6.6137    0.0000 C   0  0  0  0  0  0  0  0  0  0  0  0
    8.6800   -7.0263    0.0000 C   0  0  0  0  0  0  0  0  0  0  0  0
    9.3944   -6.6137    0.0000 C   0  0  0  0  0  0  0  0  0  0  0  0
    9.3944   -5.7887    0.0000 C   0  0  0  0  0  0  0  0  0  0  0  0
    8.6800   -5.3763    0.0000 C   0  0  0  0  0  0  0  0  0  0  0  0
    7.9655   -5.7887    0.0000 C   0  0  0  0  0  0  0  0  0  0  0  0
    8.6800   -4.5512    0.0000 O   0  0  0  0  0  0  0  0  0  0  0  0
   10.1089   -5.3762    0.0000 O   0  0  0  0  0  0  0  0  0  0  0  0
    5.8369   -9.7763    0.0000 C   0  0  0  0  0  0  0  0  0  0  0  0
    5.8369  -10.6013    0.0000 C   0  0  0  0  0  0  0  0  0  0  0  0
    6.5513  -11.0137    0.0000 C   0  0  0  0  0  0  0  0  0  0  0  0
    7.2658  -10.6013    0.0000 C   0  0  0  0  0  0  0  0  0  0  0  0
    7.2658   -9.7763    0.0000 C   0  0  0  0  0  0  0  0  0  0  0  0
    6.5513   -9.3637    0.0000 C   0  0  0  0  0  0  0  0  0  0  0  0
    7.9803  -11.0137    0.0000 C   0  0  0  0  0  0  0  0  0  0  0  0
    8.6948  -10.6013    0.0000 C   0  0  1  0  0  0  0  0  0  0  0  0
    8.6948   -9.7763    0.0000 C   0  0  2  0  0  0  0  0  0  0  0  0
    7.9803   -9.3637    0.0000 O   0  0  0  0  0  0  0  0  0  0  0  0
    5.1224   -9.3637    0.0000 O   0  0  0  0  0  0  0  0  0  0  0  0
    6.5513  -11.8387    0.0000 O   0  0  0  0  0  0  0  0  0  0  0  0
    9.4092  -11.0137    0.0000 O   0  0  0  0  0  0  0  0  0  0  0  0
    9.4092   -9.3637    0.0000 C   0  0  0  0  0  0  0  0  0  0  0  0
   10.1237   -9.7763    0.0000 C   0  0  0  0  0  0  0  0  0  0  0  0
   10.8382   -9.3637    0.0000 C   0  0  0  0  0  0  0  0  0  0  0  0
   10.8382   -8.5387    0.0000 C   0  0  0  0  0  0  0  0  0  0  0  0
   10.1237   -8.1263    0.0000 C   0  0  0  0  0  0  0  0  0  0  0  0
    9.4092   -8.5387    0.0000 C   0  0  0  0  0  0  0  0  0  0  0  0
   10.1237   -7.3012    0.0000 O   0  0  0  0  0  0  0  0  0  0  0  0
   11.5526   -8.1262    0.0000 O   0  0  0  0  0  0  0  0  0  0  0  0
   10.1089   -7.0262    0.0000 O   0  0  0  0  0  0  0  0  0  0  0  0
  1  2  2  0  0  0  0
  2  3  1  0  0  0  0
  3  4  2  0  0  0  0
  4  5  1  0  0  0  0
  5  6  2  0  0  0  0
  6  1  1  0  0  0  0
  4  7  1  0  0  0  0
  7  8  1  0  0  0  0
  8  9  1  0  0  0  0
  9 10  1  0  0  0  0
 10  5  1  0  0  0  0
  1 11  1  0  0  0  0
  3 12  1  0  0  0  0
  8 13  1  1  0  0  0
  9 14  1  6  0  0  0
 14 15  2  0  0  0  0
 15 16  1  0  0  0  0
 16 17  2  0  0  0  0
 17 18  1  0  0  0  0
 18 19  2  0  0  0  0
 19 14  1  0  0  0  0
 18 20  1  0  0  0  0
 17 21  1  0  0  0  0
 22 23  2  0  0  0  0
 23 24  1  0  0  0  0
 24 25  2  0  0  0  0
 25 26  1  0  0  0  0
 26 27  2  0  0  0  0
 27 22  1  0  0  0  0
 25 28  1  0  0  0  0
 28 29  1  0  0  0  0
 29 30  1  0  0  0  0
 30 31  1  0  0  0  0
 31 26  1  0  0  0  0
 22 32  1  0  0  0  0
 24 33  1  0  0  0  0
 29 34  1  1  0  0  0
 30 35  1  6  0  0  0
 35 36  2  0  0  0  0
 36 37  1  0  0  0  0
 37 38  2  0  0  0  0
 38 39  1  0  0  0  0
 39 40  2  0  0  0  0
 40 35  1  0  0  0  0
 39 41  1  0  0  0  0
 38 42  1  0  0  0  0
 43 44  2  0  0  0  0
 44 45  1  0  0  0  0
 45 46  2  0  0  0  0
 46 47  1  0  0  0  0
 47 48  2  0  0  0  0
 48 43  1  0  0  0  0
 46 49  1  0  0  0  0
 49 50  1  0  0  0  0
 50 51  1  0  0  0  0
 51 52  1  0  0  0  0
 52 47  1  0  0  0  0
 43 53  1  0  0  0  0
 45 54  1  0  0  0  0
 51 56  1  6  0  0  0
 56 57  2  0  0  0  0
 57 58  1  0  0  0  0
 58 59  2  0  0  0  0
 59 60  1  0  0  0  0
 60 61  2  0  0  0  0
 61 56  1  0  0  0  0
 60 62  1  0  0  0  0
 59 63  1  0  0  0  0
  7 27  1  6  0  0  0
 28 48  1  6  0  0  0
 50 55  1  1  0  0  0
 37 64  1  0  0  0  0
M  END
>  <cdx:fragmentId>
4326

$$$$
