131752447.cdx
  Mrv1902 05222410252D          

 39 44  0  0  0  0            999 V2000
    5.4852  -11.5653    0.0000 C   0  0  1  0  0  0  0  0  0  0  0  0
    6.1302  -11.0510    0.0000 C   0  0  2  0  0  0  0  0  0  0  0  0
    6.8447  -11.4635    0.0000 C   0  0  0  0  0  0  0  0  0  0  0  0
    7.5591  -11.0510    0.0000 C   0  0  0  0  0  0  0  0  0  0  0  0
    7.5591  -10.2260    0.0000 C   0  0  1  0  0  0  0  0  0  0  0  0
    8.2736   -9.8135    0.0000 C   0  0  2  0  0  0  0  0  0  0  0  0
    8.9881  -10.2260    0.0000 C   0  0  0  0  0  0  0  0  0  0  0  0
    9.7025   -9.8135    0.0000 C   0  0  0  0  0  0  0  0  0  0  0  0
    9.7025   -8.9885    0.0000 C   0  0  0  0  0  0  0  0  0  0  0  0
   10.4170   -8.5760    0.0000 C   0  0  0  0  0  0  0  0  0  0  0  0
   10.4170   -7.7510    0.0000 C   0  0  2  0  0  0  0  0  0  0  0  0
    9.7025   -7.3385    0.0000 C   0  0  0  0  0  0  0  0  0  0  0  0
    8.9881   -7.7510    0.0000 C   0  0  0  0  0  0  0  0  0  0  0  0
    8.9881   -8.5760    0.0000 C   0  0  2  0  0  0  0  0  0  0  0  0
    8.2736   -8.9885    0.0000 C   0  0  0  0  0  0  0  0  0  0  0  0
    7.5591   -8.5760    0.0000 C   0  0  0  0  0  0  0  0  0  0  0  0
    6.8447   -8.9885    0.0000 C   0  0  0  0  0  0  0  0  0  0  0  0
    6.8447   -9.8135    0.0000 C   0  0  0  0  0  0  0  0  0  0  0  0
    6.1302  -10.2260    0.0000 C   0  0  2  0  0  0  0  0  0  0  0  0
    5.4852   -9.7116    0.0000 C   0  0  0  0  0  0  0  0  0  0  0  0
    4.6809   -9.8952    0.0000 C   0  0  2  0  0  0  0  0  0  0  0  0
    4.3229  -10.6385    0.0000 C   0  0  0  0  0  0  0  0  0  0  0  0
    4.6809  -11.3818    0.0000 O   0  0  0  0  0  0  0  0  0  0  0  0
    5.5643  -10.4974    0.0000 C   0  0  0  0  0  0  0  0  0  0  0  0
    8.3807  -10.9153    0.0000 C   0  0  0  0  0  0  0  0  0  0  0  0
    8.2375  -11.7278    0.0000 O   0  0  0  0  0  0  0  0  0  0  0  0
    9.1560  -10.6332    0.0000 O   0  0  0  0  0  0  0  0  0  0  0  0
    3.4979  -10.6385    0.0000 O   0  0  0  0  0  0  0  0  0  0  0  0
    7.5591   -7.7510    0.0000 O   0  0  0  0  0  0  0  0  0  0  0  0
    4.1665   -9.2501    0.0000 C   0  0  0  0  0  0  0  0  0  0  0  0
    8.9881   -9.4010    0.0000 C   0  0  0  0  0  0  0  0  0  0  0  0
   11.2420   -8.5760    0.0000 C   0  0  0  0  0  0  0  0  0  0  0  0
   10.8295   -9.2904    0.0000 C   0  0  0  0  0  0  0  0  0  0  0  0
    7.5591   -9.4010    0.0000 C   0  0  0  0  0  0  0  0  0  0  0  0
    6.1302  -11.8760    0.0000 C   0  0  0  0  0  0  0  0  0  0  0  0
   11.1315   -7.3385    0.0000 O   0  0  0  0  0  0  0  0  0  0  0  0
    5.6688  -12.3696    0.0000 H   0  0  0  0  0  0  0  0  0  0  0  0
    6.1302   -9.4010    0.0000 H   0  0  0  0  0  0  0  0  0  0  0  0
    9.7880  -11.1635    0.0000 C   0  0  0  0  0  0  0  0  0  0  0  0
  1  2  1  0  0  0  0
  2  3  1  0  0  0  0
  3  4  1  0  0  0  0
  4  5  1  0  0  0  0
  5  6  1  0  0  0  0
  6  7  1  0  0  0  0
  7  8  1  0  0  0  0
  8  9  1  0  0  0  0
  9 10  1  0  0  0  0
 10 11  1  0  0  0  0
 11 12  1  0  0  0  0
 12 13  1  0  0  0  0
 13 14  1  0  0  0  0
 14 15  1  0  0  0  0
 15 16  1  0  0  0  0
 16 17  1  0  0  0  0
 17 18  2  0  0  0  0
 18 19  1  0  0  0  0
 19 20  1  0  0  0  0
 20 21  1  0  0  0  0
 21 22  1  0  0  0  0
 22 23  1  0  0  0  0
  1 23  1  0  0  0  0
  1 24  1  6  0  0  0
 21 24  1  6  0  0  0
  2 19  1  0  0  0  0
  5 18  1  0  0  0  0
  6 15  1  0  0  0  0
  9 14  1  0  0  0  0
 25 26  2  0  0  0  0
 25 27  1  0  0  0  0
  5 25  1  1  0  0  0
 22 28  2  0  0  0  0
 16 29  2  0  0  0  0
 21 30  1  0  0  0  0
 14 31  1  6  0  0  0
 10 32  1  0  0  0  0
 10 33  1  0  0  0  0
  6 34  1  6  0  0  0
  2 35  1  6  0  0  0
 11 36  1  6  0  0  0
  1 37  1  0  0  0  0
 19 38  1  6  0  0  0
 27 39  1  0  0  0  0
M  END
>  <cdx:fragmentId>
59847

$$$$
