752784.cdx
  Mrv1902 05222410272D          

 16 18  0  0  0  0            999 V2000
    6.8281   -5.6808    0.0000 C   0  0  2  0  0  0  0  0  0  0  0  0
    6.0364   -5.4486    0.0000 C   0  0  0  0  0  0  0  0  0  0  0  0
    5.5709   -6.1297    0.0000 C   0  0  0  0  0  0  0  0  0  0  0  0
    6.0749   -6.7829    0.0000 C   0  0  0  0  0  0  0  0  0  0  0  0
    6.8518   -6.5054    0.0000 C   0  0  0  0  0  0  0  0  0  0  0  0
    7.5114   -7.0010    0.0000 C   0  0  0  0  0  0  0  0  0  0  0  0
    8.3101   -6.7943    0.0000 C   0  0  2  0  0  0  0  0  0  0  0  0
    8.6465   -6.0410    0.0000 C   0  0  0  0  0  0  0  0  0  0  0  0
    8.2672   -5.3083    0.0000 C   0  0  0  0  0  0  0  0  0  0  0  0
    7.4580   -5.1480    0.0000 C   0  0  2  0  0  0  0  0  0  0  0  0
    7.8895   -5.8095    0.0000 C   0  0  0  0  0  0  0  0  0  0  0  0
    7.9885   -4.9905    0.0000 C   0  0  0  0  0  0  0  0  0  0  0  0
    8.6483   -5.4858    0.0000 C   0  0  0  0  0  0  0  0  0  0  0  0
    7.2513   -4.3493    0.0000 C   0  0  0  0  0  0  0  0  0  0  0  0
    5.8427   -7.5745    0.0000 C   0  0  0  0  0  0  0  0  0  0  0  0
    8.8429   -7.4242    0.0000 H   0  0  0  0  0  0  0  0  0  0  0  0
  1  2  1  6  0  0  0
  2  3  2  0  0  0  0
  3  4  1  0  0  0  0
  4  5  2  0  0  0  0
  5  6  1  0  0  0  0
  6  7  1  0  0  0  0
  7  8  1  0  0  0  0
  8  9  1  0  0  0  0
  9 10  1  0  0  0  0
  1 10  1  0  0  0  0
  1 11  1  0  0  0  0
  7 11  1  0  0  0  0
  1  5  1  0  0  0  0
 11 12  1  0  0  0  0
 11 13  1  0  0  0  0
 10 14  1  1  0  0  0
  4 15  1  0  0  0  0
  7 16  1  6  0  0  0
M  END
>  <cdx:fragmentId>
5

$$$$
