752786.cdx
  Mrv1902 05222410282D          

 14 16  0  0  0  0            999 V2000
    8.3209   -8.5141    0.0000 C   0  0  0  0  0  0  0  0  0  0  0  0
    8.8058   -7.8466    0.0000 C   0  0  0  0  0  0  0  0  0  0  0  0
    8.3209   -7.1792    0.0000 C   0  0  0  0  0  0  0  0  0  0  0  0
    7.5363   -7.4341    0.0000 C   0  0  0  0  0  0  0  0  0  0  0  0
    6.8912   -6.9198    0.0000 C   0  0  0  0  0  0  0  0  0  0  0  0
    6.0869   -7.1033    0.0000 C   0  0  0  0  0  0  0  0  0  0  0  0
    5.7290   -7.8466    0.0000 C   0  0  0  0  0  0  0  0  0  0  0  0
    6.0869   -8.5899    0.0000 C   0  0  0  0  0  0  0  0  0  0  0  0
    6.8912   -8.7735    0.0000 C   0  0  0  0  0  0  0  0  0  0  0  0
    7.5363   -8.2591    0.0000 C   0  0  0  0  0  0  0  0  0  0  0  0
    6.3301   -6.3150    0.0000 C   0  0  0  0  0  0  0  0  0  0  0  0
    8.5758   -6.3946    0.0000 C   0  0  0  0  0  0  0  0  0  0  0  0
    5.7690   -5.7102    0.0000 C   0  0  0  0  0  0  0  0  0  0  0  0
    6.5733   -5.5267    0.0000 C   0  0  0  0  0  0  0  0  0  0  0  0
  1  2  1  0  0  0  0
  2  3  1  0  0  0  0
  3  4  1  0  0  0  0
  4  5  1  0  0  0  0
  5  6  1  0  0  0  0
  6  7  1  0  0  0  0
  7  8  1  0  0  0  0
  8  9  2  0  0  0  0
  9 10  1  0  0  0  0
  1 10  1  0  0  0  0
  4 10  1  0  0  0  0
 11  5  1  0  0  0  0
 11  6  1  0  0  0  0
  3 12  1  0  0  0  0
 11 13  1  0  0  0  0
 11 14  1  0  0  0  0
M  END
>  <cdx:fragmentId>
217897

$$$$
