752790.cdx
  Mrv1902 05222410272D          

 16 17  0  0  0  0            999 V2000
    5.8929   -7.0946    0.0000 C   0  0  1  0  0  0  0  0  0  0  0  0
    5.4080   -6.4271    0.0000 C   0  0  0  0  0  0  0  0  0  0  0  0
    5.8929   -5.7597    0.0000 C   0  0  0  0  0  0  0  0  0  0  0  0
    6.6775   -6.0146    0.0000 C   0  0  0  0  0  0  0  0  0  0  0  0
    7.3225   -5.5002    0.0000 C   0  0  2  0  0  0  0  0  0  0  0  0
    8.1268   -5.6838    0.0000 C   0  0  0  0  0  0  0  0  0  0  0  0
    8.4848   -6.4271    0.0000 C   0  0  0  0  0  0  0  0  0  0  0  0
    8.1268   -7.1704    0.0000 C   0  0  0  0  0  0  0  0  0  0  0  0
    7.3225   -7.3540    0.0000 C   0  0  0  0  0  0  0  0  0  0  0  0
    6.6775   -6.8396    0.0000 C   0  0  0  0  0  0  0  0  0  0  0  0
    9.3098   -6.4271    0.0000 O   0  0  0  0  0  0  0  0  0  0  0  0
    8.3398   -8.5834    0.0000 C   0  0  0  0  0  0  0  0  0  0  0  0
    8.6412   -7.8154    0.0000 C   0  0  0  0  0  0  0  0  0  0  0  0
    9.4570   -7.6925    0.0000 C   0  0  0  0  0  0  0  0  0  0  0  0
    7.1389   -4.6959    0.0000 C   0  0  0  0  0  0  0  0  0  0  0  0
    5.6379   -7.8792    0.0000 C   0  0  0  0  0  0  0  0  0  0  0  0
  1  2  1  0  0  0  0
  2  3  1  0  0  0  0
  3  4  1  0  0  0  0
  4  5  1  0  0  0  0
  5  6  1  0  0  0  0
  6  7  1  0  0  0  0
  7  8  1  0  0  0  0
  8  9  1  0  0  0  0
  9 10  1  0  0  0  0
  1 10  1  0  0  0  0
  4 10  2  0  0  0  0
  7 11  2  0  0  0  0
 12 13  1  0  0  0  0
 13 14  1  0  0  0  0
  8 13  2  0  0  0  0
  5 15  1  1  0  0  0
  1 16  1  1  0  0  0
M  END
>  <cdx:fragmentId>
5

$$$$
