752783.cdx
  Mrv1902 05222410262D          

 16 18  0  0  0  0            999 V2000
    7.0366   -6.3475    0.0000 C   0  0  1  0  0  0  0  0  0  0  0  0
    6.2520   -6.0926    0.0000 C   0  0  0  0  0  0  0  0  0  0  0  0
    5.7671   -6.7600    0.0000 C   0  0  0  0  0  0  0  0  0  0  0  0
    6.2520   -7.4274    0.0000 C   0  0  0  0  0  0  0  0  0  0  0  0
    7.0366   -7.1725    0.0000 C   0  0  2  0  0  0  0  0  0  0  0  0
    7.6816   -7.6869    0.0000 C   0  0  0  0  0  0  0  0  0  0  0  0
    8.4859   -7.5033    0.0000 C   0  0  1  0  0  0  0  0  0  0  0  0
    8.8439   -6.7600    0.0000 C   0  0  0  0  0  0  0  0  0  0  0  0
    8.4859   -6.0167    0.0000 C   0  0  0  0  0  0  0  0  0  0  0  0
    7.6816   -5.8331    0.0000 C   0  0  1  0  0  0  0  0  0  0  0  0
    8.0939   -6.5068    0.0000 C   0  0  0  0  0  0  0  0  0  0  0  0
    8.2165   -5.6910    0.0000 C   0  0  0  0  0  0  0  0  0  0  0  0
    8.8617   -6.2051    0.0000 C   0  0  0  0  0  0  0  0  0  0  0  0
    7.4981   -5.0288    0.0000 C   0  0  0  0  0  0  0  0  0  0  0  0
    5.9971   -8.2121    0.0000 C   0  0  0  0  0  0  0  0  0  0  0  0
    7.0366   -7.9975    0.0000 H   0  0  0  0  0  0  0  0  0  0  0  0
  1  2  1  0  0  0  0
  2  3  2  0  0  0  0
  3  4  1  0  0  0  0
  4  5  1  0  0  0  0
  5  6  1  0  0  0  0
  6  7  1  0  0  0  0
  7  8  1  0  0  0  0
  8  9  1  0  0  0  0
  9 10  1  0  0  0  0
  1 10  1  0  0  0  0
  1 11  1  1  0  0  0
  7 11  1  1  0  0  0
  1  5  1  0  0  0  0
 11 12  1  0  0  0  0
 11 13  1  0  0  0  0
 10 14  1  6  0  0  0
  4 15  2  0  0  0  0
  5 16  1  6  0  0  0
M  END
>  <cdx:fragmentId>
5

$$$$
