7528.cdx
  Mrv1902 05222410252D          

 41 45  0  0  0  0            999 V2000
    4.8105   -8.5594    0.0000 C   0  0  0  0  0  0  0  0  0  0  0  0
    4.0960   -8.9719    0.0000 C   0  0  0  0  0  0  0  0  0  0  0  0
    4.0960   -9.7969    0.0000 C   0  0  0  0  0  0  0  0  0  0  0  0
    4.8105  -10.2094    0.0000 C   0  0  0  0  0  0  0  0  0  0  0  0
    5.5250   -9.7969    0.0000 C   0  0  2  0  0  0  0  0  0  0  0  0
    6.2394  -10.2094    0.0000 C   0  0  0  0  0  0  0  0  0  0  0  0
    6.9539   -9.7969    0.0000 C   0  0  0  0  0  0  0  0  0  0  0  0
    6.9539   -8.9719    0.0000 C   0  0  2  0  0  0  0  0  0  0  0  0
    7.6684   -8.5594    0.0000 C   0  0  1  0  0  0  0  0  0  0  0  0
    8.4530   -8.8143    0.0000 C   0  0  0  0  0  0  0  0  0  0  0  0
    8.9379   -8.1469    0.0000 C   0  0  0  0  0  0  0  0  0  0  0  0
    8.4530   -7.4794    0.0000 C   0  0  0  0  0  0  0  0  0  0  0  0
    7.6684   -7.7344    0.0000 C   0  0  0  0  0  0  0  0  0  0  0  0
    6.9539   -7.3219    0.0000 C   0  0  0  0  0  0  0  0  0  0  0  0
    6.2394   -7.7344    0.0000 C   0  0  1  0  0  0  0  0  0  0  0  0
    6.2394   -8.5594    0.0000 C   0  0  1  0  0  0  0  0  0  0  0  0
    5.5250   -8.9719    0.0000 C   0  0  1  0  0  0  0  0  0  0  0  0
    3.3815  -10.2094    0.0000 O   0  0  0  0  0  0  0  0  0  0  0  0
    9.7629   -8.1469    0.0000 O   0  0  0  0  0  0  0  0  0  0  0  0
    7.6684   -9.3844    0.0000 C   0  0  0  0  0  0  0  0  0  0  0  0
    5.5250   -8.1469    0.0000 C   0  0  0  0  0  0  0  0  0  0  0  0
    6.9539   -8.1469    0.0000 C   0  0  0  0  0  0  0  0  0  0  0  0
    5.2230  -10.9238    0.0000 C   0  0  0  0  0  0  0  0  0  0  0  0
    4.3980  -10.9238    0.0000 C   0  0  0  0  0  0  0  0  0  0  0  0
    5.5250   -7.3219    0.0000 O   0  0  0  0  0  0  0  0  0  0  0  0
    8.1559   -6.0817    0.0000 C   0  0  0  0  0  0  0  0  0  0  0  0
    8.7079   -6.6948    0.0000 C   0  0  2  0  0  0  0  0  0  0  0  0
    9.5149   -6.5233    0.0000 C   0  0  0  0  0  0  0  0  0  0  0  0
    9.7698   -5.7387    0.0000 C   0  0  2  0  0  0  0  0  0  0  0  0
    9.2178   -5.1256    0.0000 O   0  0  0  0  0  0  0  0  0  0  0  0
   10.0576   -4.9260    0.0000 H   0  0  0  0  0  0  0  0  0  0  0  0
    5.5250  -10.6219    0.0000 H   0  0  0  0  0  0  0  0  0  0  0  0
    6.2394   -9.3844    0.0000 H   0  0  0  0  0  0  0  0  0  0  0  0
   12.1461   -6.0770    0.0000 C   0  0  0  0  0  0  0  0  0  0  0  0
   11.5330   -6.6291    0.0000 C   0  0  0  0  0  0  0  0  0  0  0  0
   11.3614   -5.8221    0.0000 C   0  0  0  0  0  0  0  0  0  0  0  0
   10.5768   -5.5671    0.0000 C   0  0  2  0  0  0  0  0  0  0  0  0
   11.1899   -5.0151    0.0000 O   0  0  0  0  0  0  0  0  0  0  0  0
    9.4727   -4.3410    0.0000 C   0  0  0  0  0  0  0  0  0  0  0  0
    8.9207   -3.7279    0.0000 O   0  0  0  0  0  0  0  0  0  0  0  0
   10.2797   -4.1694    0.0000 C   0  0  0  0  0  0  0  0  0  0  0  0
 37 31  1  6  0  0  0
 36 34  1  0  0  0  0
 36 35  1  0  0  0  0
 38 36  1  0  0  0  0
  1  2  1  0  0  0  0
  2  3  1  0  0  0  0
  3  4  1  0  0  0  0
  4  5  1  0  0  0  0
  5  6  1  0  0  0  0
  6  7  1  0  0  0  0
  7  8  1  0  0  0  0
  8  9  1  0  0  0  0
  9 10  1  0  0  0  0
 10 11  1  0  0  0  0
 11 12  1  0  0  0  0
 12 13  2  0  0  0  0
  9 13  1  0  0  0  0
 13 14  1  0  0  0  0
 14 15  1  0  0  0  0
 15 16  1  0  0  0  0
  8 16  1  0  0  0  0
 16 17  1  0  0  0  0
  5 17  1  0  0  0  0
  1 17  1  0  0  0  0
  3 18  2  0  0  0  0
 11 19  2  0  0  0  0
  9 20  1  1  0  0  0
 17 21  1  1  0  0  0
  8 22  1  6  0  0  0
  4 23  1  0  0  0  0
  4 24  1  0  0  0  0
 15 25  1  1  0  0  0
 27 26  1  6  0  0  0
 27 28  1  0  0  0  0
 28 29  1  0  0  0  0
 29 30  1  6  0  0  0
 37 36  1  0  0  0  0
 37 38  1  0  0  0  0
 29 37  1  0  0  0  0
 12 27  1  0  0  0  0
  5 32  1  6  0  0  0
 16 33  1  1  0  0  0
 30 39  1  0  0  0  0
 39 40  2  0  0  0  0
 39 41  1  0  0  0  0
M  END
>  <cdx:fragmentId>
238331

$$$$
