753.cdx
  Mrv1902 05222410252D          

  6  5  0  0  0  0            999 V2000
    7.2966   -2.8016    0.0000 C   0  0  0  0  0  0  0  0  0  0  0  0
    6.5821   -3.2141    0.0000 C   0  0  0  0  0  0  0  0  0  0  0  0
    5.8677   -2.8016    0.0000 C   0  0  0  0  0  0  0  0  0  0  0  0
    8.0111   -3.2141    0.0000 O   0  0  0  0  0  0  0  0  0  0  0  0
    6.5821   -4.0391    0.0000 O   0  0  0  0  0  0  0  0  0  0  0  0
    5.1532   -3.2141    0.0000 O   0  0  0  0  0  0  0  0  0  0  0  0
  1  2  1  0  0  0  0
  2  3  1  0  0  0  0
  1  4  1  0  0  0  0
  2  5  1  0  0  0  0
  3  6  1  0  0  0  0
M  END
>  <cdx:groupId>
19

>  <cdx:fragmentId>
5

$$$$
