7530.cdx
  Mrv1902 05222410212D          

 42 46  0  0  0  0            999 V2000
    6.4194   -8.6746    0.0000 C   0  0  2  0  0  0  0  0  0  0  0  0
    7.1338   -8.2621    0.0000 C   0  0  1  0  0  0  0  0  0  0  0  0
    7.9185   -8.5170    0.0000 C   0  0  0  0  0  0  0  0  0  0  0  0
    8.4034   -7.8496    0.0000 C   0  0  2  0  0  0  0  0  0  0  0  0
    9.2239   -7.7634    0.0000 O   0  0  0  0  0  0  0  0  0  0  0  0
    9.5594   -7.0097    0.0000 C   0  0  1  0  0  0  0  0  0  0  0  0
    9.0745   -6.3422    0.0000 C   0  0  0  0  0  0  0  0  0  0  0  0
    8.2540   -6.4285    0.0000 C   0  0  2  0  0  0  0  0  0  0  0  0
    7.9185   -7.1822    0.0000 C   0  0  0  0  0  0  0  0  0  0  0  0
    7.1338   -7.4371    0.0000 C   0  0  0  0  0  0  0  0  0  0  0  0
    6.4194   -7.0246    0.0000 C   0  0  0  0  0  0  0  0  0  0  0  0
    5.7049   -7.4371    0.0000 C   0  0  1  0  0  0  0  0  0  0  0  0
    5.7049   -8.2621    0.0000 C   0  0  1  0  0  0  0  0  0  0  0  0
    4.9904   -8.6746    0.0000 C   0  0  1  0  0  0  0  0  0  0  0  0
    4.2760   -8.2621    0.0000 C   0  0  0  0  0  0  0  0  0  0  0  0
    3.5615   -8.6746    0.0000 C   0  0  0  0  0  0  0  0  0  0  0  0
    3.5615   -9.4996    0.0000 C   0  0  0  0  0  0  0  0  0  0  0  0
    4.2760   -9.9121    0.0000 C   0  0  0  0  0  0  0  0  0  0  0  0
    4.9904   -9.4996    0.0000 C   0  0  2  0  0  0  0  0  0  0  0  0
    5.7049   -9.9121    0.0000 C   0  0  0  0  0  0  0  0  0  0  0  0
    6.4194   -9.4996    0.0000 C   0  0  0  0  0  0  0  0  0  0  0  0
    2.8470   -9.9121    0.0000 O   0  0  0  0  0  0  0  0  0  0  0  0
    4.6885  -10.6266    0.0000 C   0  0  0  0  0  0  0  0  0  0  0  0
    3.8635  -10.6266    0.0000 C   0  0  0  0  0  0  0  0  0  0  0  0
    4.9904   -7.8496    0.0000 C   0  0  0  0  0  0  0  0  0  0  0  0
    7.7691   -5.7610    0.0000 C   0  0  0  0  0  0  0  0  0  0  0  0
    7.1338   -9.0871    0.0000 C   0  0  0  0  0  0  0  0  0  0  0  0
    6.4194   -7.8496    0.0000 C   0  0  0  0  0  0  0  0  0  0  0  0
    4.9904   -7.0246    0.0000 O   0  0  0  0  0  0  0  0  0  0  0  0
   10.8648   -7.5909    0.0000 O   0  0  0  0  0  0  0  0  0  0  0  0
    8.8159   -8.5641    0.0000 H   0  0  0  0  0  0  0  0  0  0  0  0
    5.7049   -9.0871    0.0000 H   0  0  0  0  0  0  0  0  0  0  0  0
    4.9904  -10.3246    0.0000 H   0  0  0  0  0  0  0  0  0  0  0  0
   11.0510   -5.4161    0.0000 O   0  0  0  0  0  0  0  0  0  0  0  0
   11.4299   -6.5823    0.0000 C   0  0  0  0  0  0  0  0  0  0  0  0
   10.0010   -5.7573    0.0000 C   0  0  0  0  0  0  0  0  0  0  0  0
   10.7155   -6.1698    0.0000 C   0  0  0  0  0  0  0  0  0  0  0  0
   10.3799   -6.9235    0.0000 C   0  0  1  0  0  0  0  0  0  0  0  0
    9.9719   -7.7242    0.0000 H   0  0  0  0  0  0  0  0  0  0  0  0
   11.6853   -7.5047    0.0000 C   0  0  0  0  0  0  0  0  0  0  0  0
   12.1702   -8.1721    0.0000 C   0  0  0  0  0  0  0  0  0  0  0  0
   12.0209   -6.7510    0.0000 O   0  0  0  0  0  0  0  0  0  0  0  0
 38 30  1  6  0  0  0
 37 34  1  0  0  0  0
 37 35  1  0  0  0  0
 37 36  1  0  0  0  0
 38 37  1  0  0  0  0
  1  2  1  0  0  0  0
  2  3  1  0  0  0  0
  3  4  1  0  0  0  0
  4  5  1  0  0  0  0
  6  5  1  0  0  0  0
  6  7  1  0  0  0  0
  7  8  1  0  0  0  0
  8  9  1  0  0  0  0
  9 10  2  0  0  0  0
 10 11  1  0  0  0  0
 11 12  1  0  0  0  0
 12 13  1  0  0  0  0
 13 14  1  0  0  0  0
 14 15  1  0  0  0  0
 15 16  1  0  0  0  0
 16 17  1  0  0  0  0
 17 18  1  0  0  0  0
 18 19  1  0  0  0  0
 19 20  1  0  0  0  0
 20 21  1  0  0  0  0
  1 21  1  0  0  0  0
  1 13  1  0  0  0  0
 14 19  1  0  0  0  0
  2 10  1  0  0  0  0
  4  9  1  0  0  0  0
 17 22  2  0  0  0  0
 18 23  1  0  0  0  0
 18 24  1  0  0  0  0
 14 25  1  1  0  0  0
  8 26  1  6  0  0  0
  2 27  1  1  0  0  0
  1 28  1  6  0  0  0
 12 29  1  1  0  0  0
  6 38  1  0  0  0  0
  4 31  1  6  0  0  0
 13 32  1  1  0  0  0
 19 33  1  6  0  0  0
  6 39  1  6  0  0  0
 30 40  1  0  0  0  0
 40 41  1  0  0  0  0
 40 42  2  0  0  0  0
M  END
>  <cdx:fragmentId>
207735

$$$$
