7531.cdx
  Mrv1902 05222410212D          

 38 43  0  0  0  0            999 V2000
    4.6922   -7.6244    0.0000 C   0  0  0  0  0  0  0  0  0  0  0  0
    3.9778   -8.0369    0.0000 C   0  0  0  0  0  0  0  0  0  0  0  0
    3.9778   -8.8619    0.0000 C   0  0  0  0  0  0  0  0  0  0  0  0
    4.6922   -9.2744    0.0000 C   0  0  0  0  0  0  0  0  0  0  0  0
    5.4067   -8.8619    0.0000 C   0  0  2  0  0  0  0  0  0  0  0  0
    6.1212   -9.2744    0.0000 C   0  0  0  0  0  0  0  0  0  0  0  0
    6.8357   -8.8619    0.0000 C   0  0  0  0  0  0  0  0  0  0  0  0
    6.8357   -8.0369    0.0000 C   0  0  2  0  0  0  0  0  0  0  0  0
    7.5501   -7.6244    0.0000 C   0  0  1  0  0  0  0  0  0  0  0  0
    8.3347   -7.8793    0.0000 C   0  0  0  0  0  0  0  0  0  0  0  0
    8.8197   -7.2119    0.0000 C   0  0  1  0  0  0  0  0  0  0  0  0
    8.3347   -6.5444    0.0000 C   0  0  0  0  0  0  0  0  0  0  0  0
    7.5501   -6.7994    0.0000 C   0  0  0  0  0  0  0  0  0  0  0  0
    6.8357   -6.3869    0.0000 C   0  0  0  0  0  0  0  0  0  0  0  0
    6.1212   -6.7994    0.0000 C   0  0  0  0  0  0  0  0  0  0  0  0
    6.1212   -7.6244    0.0000 C   0  0  1  0  0  0  0  0  0  0  0  0
    5.4067   -8.0369    0.0000 C   0  0  1  0  0  0  0  0  0  0  0  0
    3.2633   -9.2744    0.0000 O   0  0  0  0  0  0  0  0  0  0  0  0
    7.5501   -8.4494    0.0000 C   0  0  0  0  0  0  0  0  0  0  0  0
    5.4067   -7.2119    0.0000 C   0  0  0  0  0  0  0  0  0  0  0  0
    6.8357   -7.2119    0.0000 C   0  0  0  0  0  0  0  0  0  0  0  0
    5.1047   -9.9888    0.0000 C   0  0  0  0  0  0  0  0  0  0  0  0
    4.2797   -9.9888    0.0000 C   0  0  0  0  0  0  0  0  0  0  0  0
    6.1212   -8.4494    0.0000 H   0  0  0  0  0  0  0  0  0  0  0  0
    5.4067   -9.6869    0.0000 H   0  0  0  0  0  0  0  0  0  0  0  0
    9.6401   -7.1256    0.0000 O   0  0  0  0  0  0  0  0  0  0  0  0
    9.9757   -6.3720    0.0000 C   0  0  1  0  0  0  0  0  0  0  0  0
    9.4908   -5.7045    0.0000 C   0  0  0  0  0  0  0  0  0  0  0  0
    8.6703   -5.7908    0.0000 C   0  0  1  0  0  0  0  0  0  0  0  0
    8.1854   -5.1233    0.0000 C   0  0  0  0  0  0  0  0  0  0  0  0
   10.7962   -6.2857    0.0000 C   0  0  2  0  0  0  0  0  0  0  0  0
    9.2322   -7.9263    0.0000 H   0  0  0  0  0  0  0  0  0  0  0  0
   10.3882   -7.0864    0.0000 H   0  0  0  0  0  0  0  0  0  0  0  0
   11.6875   -6.1875    0.0000 C   0  0  0  0  0  0  0  0  0  0  0  0
   11.1317   -5.5321    0.0000 O   0  0  0  0  0  0  0  0  0  0  0  0
   12.4020   -6.6000    0.0000 C   0  0  0  0  0  0  0  0  0  0  0  0
   12.4020   -5.7750    0.0000 C   0  0  0  0  0  0  0  0  0  0  0  0
   10.3837   -5.5713    0.0000 H   0  0  0  0  0  0  0  0  0  0  0  0
  1  2  1  0  0  0  0
  2  3  1  0  0  0  0
  3  4  1  0  0  0  0
  4  5  1  0  0  0  0
  5  6  1  0  0  0  0
  6  7  1  0  0  0  0
  7  8  1  0  0  0  0
  8  9  1  0  0  0  0
  9 10  1  0  0  0  0
 10 11  1  0  0  0  0
 11 12  1  0  0  0  0
 12 13  2  0  0  0  0
  9 13  1  0  0  0  0
 13 14  1  0  0  0  0
 14 15  1  0  0  0  0
 15 16  1  0  0  0  0
  8 16  1  0  0  0  0
 16 17  1  0  0  0  0
  5 17  1  0  0  0  0
  1 17  1  0  0  0  0
  3 18  2  0  0  0  0
  9 19  1  1  0  0  0
 17 20  1  1  0  0  0
  8 21  1  6  0  0  0
  4 22  1  0  0  0  0
  4 23  1  0  0  0  0
 16 24  1  1  0  0  0
  5 25  1  6  0  0  0
 11 26  1  0  0  0  0
 26 27  1  0  0  0  0
 27 28  1  0  0  0  0
 28 29  1  0  0  0  0
 29 12  1  0  0  0  0
 29 30  1  6  0  0  0
 27 31  1  0  0  0  0
 11 32  1  6  0  0  0
 27 33  1  6  0  0  0
 31 34  1  0  0  0  0
 31 35  1  0  0  0  0
 34 35  1  0  0  0  0
 34 36  1  0  0  0  0
 34 37  1  0  0  0  0
 31 38  1  6  0  0  0
M  END
>  <cdx:fragmentId>
5

$$$$
