75320.cdx
  Mrv1902 05222410202D          

 17 16  0  0  0  0            999 V2000
    2.0868   -6.8552    0.0000 C   0  0  0  0  0  0  0  0  0  0  0  0
    2.8013   -5.6177    0.0000 C   0  0  0  0  0  0  0  0  0  0  0  0
    2.8013   -6.4427    0.0000 C   0  0  0  0  0  0  0  0  0  0  0  0
    3.5158   -6.8552    0.0000 C   0  0  0  0  0  0  0  0  0  0  0  0
    4.2302   -6.4427    0.0000 C   0  0  0  0  0  0  0  0  0  0  0  0
    4.9447   -6.8552    0.0000 O   0  0  0  0  0  0  0  0  0  0  0  0
    5.6592   -5.6177    0.0000 O   0  0  0  0  0  0  0  0  0  0  0  0
   12.0894   -6.8552    0.0000 C   0  0  0  0  0  0  0  0  0  0  0  0
   11.3750   -6.4427    0.0000 C   0  0  0  0  0  0  0  0  0  0  0  0
   10.6605   -6.8552    0.0000 C   0  0  0  0  0  0  0  0  0  0  0  0
    9.9460   -6.4427    0.0000 C   0  0  0  0  0  0  0  0  0  0  0  0
    9.2315   -6.8552    0.0000 C   0  0  0  0  0  0  0  0  0  0  0  0
    8.5171   -6.4427    0.0000 C   0  0  0  0  0  0  0  0  0  0  0  0
    7.8026   -6.8552    0.0000 C   0  0  0  0  0  0  0  0  0  0  0  0
    7.0881   -6.4427    0.0000 C   0  0  0  0  0  0  0  0  0  0  0  0
    6.3737   -6.8552    0.0000 C   0  0  0  0  0  0  0  0  0  0  0  0
    5.6592   -6.4427    0.0000 C   0  0  0  0  0  0  0  0  0  0  0  0
  6  5  1  0  0  0  0
  1  3  1  0  0  0  0
  3  2  1  0  0  0  0
  4  3  1  0  0  0  0
  5  4  1  0  0  0  0
 17  6  1  0  0  0  0
 17  7  2  0  0  0  0
  9  8  1  0  0  0  0
 10  9  1  0  0  0  0
 11 10  1  0  0  0  0
 12 11  1  0  0  0  0
 13 12  1  0  0  0  0
 14 13  1  0  0  0  0
 15 14  1  0  0  0  0
 16 15  1  0  0  0  0
 17 16  1  0  0  0  0
M  END
>  <cdx:groupId>
52

>  <cdx:fragmentId>
5

$$$$
