7532.cdx
  Mrv1902 05222410202D          

 37 41  0  0  0  0            999 V2000
    4.6922   -7.6244    0.0000 C   0  0  0  0  0  0  0  0  0  0  0  0
    3.9778   -8.0369    0.0000 C   0  0  0  0  0  0  0  0  0  0  0  0
    3.9778   -8.8619    0.0000 C   0  0  0  0  0  0  0  0  0  0  0  0
    4.6922   -9.2744    0.0000 C   0  0  0  0  0  0  0  0  0  0  0  0
    5.4067   -8.8619    0.0000 C   0  0  2  0  0  0  0  0  0  0  0  0
    6.1212   -9.2744    0.0000 C   0  0  0  0  0  0  0  0  0  0  0  0
    6.8357   -8.8619    0.0000 C   0  0  0  0  0  0  0  0  0  0  0  0
    6.8357   -8.0369    0.0000 C   0  0  2  0  0  0  0  0  0  0  0  0
    7.5501   -7.6244    0.0000 C   0  0  1  0  0  0  0  0  0  0  0  0
    8.3347   -7.8793    0.0000 C   0  0  0  0  0  0  0  0  0  0  0  0
    8.8197   -7.2119    0.0000 C   0  0  0  0  0  0  0  0  0  0  0  0
    8.3347   -6.5444    0.0000 C   0  0  0  0  0  0  0  0  0  0  0  0
    7.5501   -6.7994    0.0000 C   0  0  0  0  0  0  0  0  0  0  0  0
    6.8357   -6.3869    0.0000 C   0  0  0  0  0  0  0  0  0  0  0  0
    6.1212   -6.7994    0.0000 C   0  0  0  0  0  0  0  0  0  0  0  0
    6.1212   -7.6244    0.0000 C   0  0  1  0  0  0  0  0  0  0  0  0
    5.4067   -8.0369    0.0000 C   0  0  1  0  0  0  0  0  0  0  0  0
    3.2633   -9.2744    0.0000 O   0  0  0  0  0  0  0  0  0  0  0  0
    7.5501   -8.4494    0.0000 C   0  0  0  0  0  0  0  0  0  0  0  0
    5.4067   -7.2119    0.0000 C   0  0  0  0  0  0  0  0  0  0  0  0
    6.8357   -7.2119    0.0000 C   0  0  0  0  0  0  0  0  0  0  0  0
    5.1047   -9.9888    0.0000 C   0  0  0  0  0  0  0  0  0  0  0  0
    4.2797   -9.9888    0.0000 C   0  0  0  0  0  0  0  0  0  0  0  0
    8.0376   -5.1467    0.0000 C   0  0  0  0  0  0  0  0  0  0  0  0
    8.5897   -5.7598    0.0000 C   0  0  2  0  0  0  0  0  0  0  0  0
    9.3967   -5.5883    0.0000 C   0  0  0  0  0  0  0  0  0  0  0  0
    9.6516   -4.8037    0.0000 C   0  0  2  0  0  0  0  0  0  0  0  0
    9.0996   -4.1906    0.0000 O   0  0  0  0  0  0  0  0  0  0  0  0
   11.2432   -4.8871    0.0000 O   0  0  0  0  0  0  0  0  0  0  0  0
   10.4586   -4.6321    0.0000 C   0  0  1  0  0  0  0  0  0  0  0  0
   11.0717   -4.0801    0.0000 C   0  0  0  0  0  0  0  0  0  0  0  0
   10.9001   -3.2731    0.0000 C   0  0  0  0  0  0  0  0  0  0  0  0
   11.6848   -3.5281    0.0000 C   0  0  0  0  0  0  0  0  0  0  0  0
    6.1212   -8.4494    0.0000 H   0  0  0  0  0  0  0  0  0  0  0  0
    5.4067   -9.6869    0.0000 H   0  0  0  0  0  0  0  0  0  0  0  0
   10.2450   -5.4290    0.0000 H   0  0  0  0  0  0  0  0  0  0  0  0
    9.6447   -7.2119    0.0000 O   0  0  0  0  0  0  0  0  0  0  0  0
  1  2  1  0  0  0  0
  2  3  1  0  0  0  0
  3  4  1  0  0  0  0
  4  5  1  0  0  0  0
  5  6  1  0  0  0  0
  6  7  1  0  0  0  0
  7  8  1  0  0  0  0
  8  9  1  0  0  0  0
  9 10  1  0  0  0  0
 10 11  1  0  0  0  0
 11 12  1  0  0  0  0
 12 13  2  0  0  0  0
  9 13  1  0  0  0  0
 13 14  1  0  0  0  0
 14 15  2  0  0  0  0
 15 16  1  0  0  0  0
  8 16  1  0  0  0  0
 16 17  1  0  0  0  0
  5 17  1  0  0  0  0
  1 17  1  0  0  0  0
  3 18  2  0  0  0  0
  9 19  1  1  0  0  0
 17 20  1  1  0  0  0
  8 21  1  6  0  0  0
  4 22  1  0  0  0  0
  4 23  1  0  0  0  0
 25 24  1  6  0  0  0
 25 26  1  0  0  0  0
 26 27  1  0  0  0  0
 27 28  1  6  0  0  0
 30 29  1  0  0  0  0
 30 31  1  0  0  0  0
 29 31  1  0  0  0  0
 31 32  1  0  0  0  0
 31 33  1  0  0  0  0
 27 30  1  0  0  0  0
 12 25  1  0  0  0  0
 16 34  1  1  0  0  0
  5 35  1  6  0  0  0
 30 36  1  1  0  0  0
 11 37  2  0  0  0  0
M  END
>  <cdx:fragmentId>
5

$$$$
