753231.cdx
  Mrv1902 05222410212D          

 18 19  0  0  0  0            999 V2000
    6.4900   -5.5421    0.0000 C   0  0  1  0  0  0  0  0  0  0  0  0
    7.2084   -5.9477    0.0000 C   0  0  0  0  0  0  0  0  0  0  0  0
    7.9189   -5.5283    0.0000 C   0  0  0  0  0  0  0  0  0  0  0  0
    8.6373   -5.9339    0.0000 C   0  0  0  0  0  0  0  0  0  0  0  0
    8.6452   -6.7589    0.0000 C   0  0  0  0  0  0  0  0  0  0  0  0
    7.9347   -7.1782    0.0000 C   0  0  0  0  0  0  0  0  0  0  0  0
    7.2163   -6.7726    0.0000 C   0  0  0  0  0  0  0  0  0  0  0  0
    6.5059   -7.1920    0.0000 C   0  0  0  0  0  0  0  0  0  0  0  0
    5.7874   -6.7864    0.0000 C   0  0  0  0  0  0  0  0  0  0  0  0
    5.7795   -5.9614    0.0000 C   0  0  2  0  0  0  0  0  0  0  0  0
    5.7716   -5.1364    0.0000 O   0  0  0  0  0  0  0  0  0  0  0  0
    9.3477   -5.5146    0.0000 O   0  0  0  0  0  0  0  0  0  0  0  0
    8.6214   -4.2840    0.0000 C   0  0  0  0  0  0  0  0  0  0  0  0
    7.9109   -4.7034    0.0000 C   0  0  0  0  0  0  0  0  0  0  0  0
    7.1925   -4.2977    0.0000 C   0  0  0  0  0  0  0  0  0  0  0  0
    4.9546   -5.9693    0.0000 C   0  0  0  0  0  0  0  0  0  0  0  0
    7.9427   -8.0032    0.0000 C   0  0  0  0  0  0  0  0  0  0  0  0
    6.8956   -4.8237    0.0000 H   0  0  0  0  0  0  0  0  0  0  0  0
  1  2  1  0  0  0  0
  2  3  1  0  0  0  0
  3  4  1  0  0  0  0
  4  5  1  0  0  0  0
  5  6  1  0  0  0  0
  6  7  2  0  0  0  0
  7  8  1  0  0  0  0
  8  9  1  0  0  0  0
  9 10  1  0  0  0  0
 10 11  1  0  0  0  0
  1 11  1  0  0  0  0
  1 10  1  0  0  0  0
  4 12  2  0  0  0  0
 13 14  1  0  0  0  0
 14 15  1  0  0  0  0
  3 14  2  0  0  0  0
 10 16  1  1  0  0  0
  6 17  1  0  0  0  0
  1 18  1  6  0  0  0
M  END
>  <cdx:groupId>
57

>  <cdx:fragmentId>
5

$$$$
