7534.cdx
  Mrv1902 05222410222D          

 41 45  0  0  0  0            999 V2000
    3.4064   -8.9306    0.0000 C   0  0  0  0  0  0  0  0  0  0  0  0
    3.4064   -9.7556    0.0000 C   0  0  0  0  0  0  0  0  0  0  0  0
    4.1209  -10.1681    0.0000 C   0  0  0  0  0  0  0  0  0  0  0  0
    4.8353   -9.7556    0.0000 C   0  0  1  0  0  0  0  0  0  0  0  0
    4.8353   -8.9306    0.0000 C   0  0  2  0  0  0  0  0  0  0  0  0
    4.1209   -8.5181    0.0000 C   0  0  0  0  0  0  0  0  0  0  0  0
    5.5498  -10.1681    0.0000 C   0  0  0  0  0  0  0  0  0  0  0  0
    6.2643   -9.7556    0.0000 C   0  0  0  0  0  0  0  0  0  0  0  0
    6.2643   -8.9306    0.0000 C   0  0  1  0  0  0  0  0  0  0  0  0
    5.5498   -8.5181    0.0000 C   0  0  1  0  0  0  0  0  0  0  0  0
    6.9788   -8.5181    0.0000 C   0  0  2  0  0  0  0  0  0  0  0  0
    6.9788   -7.6931    0.0000 C   0  0  0  0  0  0  0  0  0  0  0  0
    6.2643   -7.2806    0.0000 C   0  0  0  0  0  0  0  0  0  0  0  0
    5.5498   -7.6931    0.0000 C   0  0  0  0  0  0  0  0  0  0  0  0
    7.7634   -8.7731    0.0000 C   0  0  0  0  0  0  0  0  0  0  0  0
    8.2483   -8.1056    0.0000 C   0  0  1  0  0  0  0  0  0  0  0  0
    7.7634   -7.4382    0.0000 C   0  0  0  0  0  0  0  0  0  0  0  0
    2.6919  -10.1681    0.0000 O   0  0  0  0  0  0  0  0  0  0  0  0
    9.0688   -8.0194    0.0000 O   0  0  0  0  0  0  0  0  0  0  0  0
    9.4043   -7.2657    0.0000 C   0  0  1  0  0  0  0  0  0  0  0  0
    8.9194   -6.5983    0.0000 C   0  0  0  0  0  0  0  0  0  0  0  0
    8.0989   -6.6845    0.0000 C   0  0  1  0  0  0  0  0  0  0  0  0
   11.8793   -8.6947    0.0000 O   0  0  0  0  0  0  0  0  0  0  0  0
   11.8793   -7.2657    0.0000 C   0  0  0  0  0  0  0  0  0  0  0  0
   11.4668   -7.9802    0.0000 C   0  0  0  0  0  0  0  0  0  0  0  0
   10.6418   -7.9802    0.0000 O   0  0  0  0  0  0  0  0  0  0  0  0
   11.0543   -5.8368    0.0000 O   0  0  0  0  0  0  0  0  0  0  0  0
    9.9274   -6.1387    0.0000 C   0  0  0  0  0  0  0  0  0  0  0  0
   11.3563   -6.9637    0.0000 C   0  0  0  0  0  0  0  0  0  0  0  0
   10.6418   -6.5512    0.0000 C   0  0  0  0  0  0  0  0  0  0  0  0
   10.2293   -7.2657    0.0000 C   0  0  1  0  0  0  0  0  0  0  0  0
    7.6864   -5.9700    0.0000 C   0  0  0  0  0  0  0  0  0  0  0  0
    6.2643   -8.1056    0.0000 C   0  0  0  0  0  0  0  0  0  0  0  0
    4.8353  -10.5806    0.0000 H   0  0  0  0  0  0  0  0  0  0  0  0
    4.5334  -10.8826    0.0000 C   0  0  0  0  0  0  0  0  0  0  0  0
    3.7084  -10.8826    0.0000 C   0  0  0  0  0  0  0  0  0  0  0  0
    4.8353   -8.1056    0.0000 C   0  0  0  0  0  0  0  0  0  0  0  0
    5.5498   -9.3431    0.0000 H   0  0  0  0  0  0  0  0  0  0  0  0
    6.9788   -9.3431    0.0000 C   0  0  0  0  0  0  0  0  0  0  0  0
    8.6608   -8.8201    0.0000 H   0  0  0  0  0  0  0  0  0  0  0  0
    9.8168   -7.9802    0.0000 H   0  0  0  0  0  0  0  0  0  0  0  0
  1  2  1  0  0  0  0
  2  3  1  0  0  0  0
  3  4  1  0  0  0  0
  4  5  1  0  0  0  0
  5  6  1  0  0  0  0
  6  1  1  0  0  0  0
  4  7  1  0  0  0  0
  7  8  1  0  0  0  0
  8  9  1  0  0  0  0
  9 10  1  0  0  0  0
 10  5  1  0  0  0  0
  9 11  1  0  0  0  0
 11 12  1  0  0  0  0
 12 13  1  0  0  0  0
 13 14  2  0  0  0  0
 14 10  1  0  0  0  0
 11 15  1  0  0  0  0
 15 16  1  0  0  0  0
 16 17  1  0  0  0  0
 17 12  2  0  0  0  0
  2 18  2  0  0  0  0
 16 19  1  0  0  0  0
 19 20  1  0  0  0  0
 20 21  1  0  0  0  0
 21 22  1  0  0  0  0
 22 17  1  0  0  0  0
 25 23  2  0  0  0  0
 20 31  1  0  0  0  0
 25 24  1  0  0  0  0
 26 25  1  0  0  0  0
 31 26  1  6  0  0  0
 30 27  1  0  0  0  0
 30 28  1  0  0  0  0
 30 29  1  0  0  0  0
 31 30  1  0  0  0  0
 22 32  1  6  0  0  0
  9 33  1  6  0  0  0
  4 34  1  6  0  0  0
  3 35  1  0  0  0  0
  3 36  1  0  0  0  0
  5 37  1  1  0  0  0
 10 38  1  1  0  0  0
 11 39  1  1  0  0  0
 16 40  1  6  0  0  0
 20 41  1  6  0  0  0
M  END
>  <cdx:fragmentId>
5

$$$$
