91753433.cdx
  Mrv1902 05222410222D          

 17 19  0  0  0  0            999 V2000
    6.8961   -5.4555    0.0000 C   0  0  1  0  0  0  0  0  0  0  0  0
    7.0676   -4.6486    0.0000 C   0  0  0  0  0  0  0  0  0  0  0  0
    7.8881   -4.5623    0.0000 C   0  0  0  0  0  0  0  0  0  0  0  0
    8.2236   -5.3160    0.0000 C   0  0  1  0  0  0  0  0  0  0  0  0
    7.6105   -5.8680    0.0000 C   0  0  0  0  0  0  0  0  0  0  0  0
    6.8961   -6.2805    0.0000 C   0  0  2  0  0  0  0  0  0  0  0  0
    6.1816   -6.6930    0.0000 C   0  0  2  0  0  0  0  0  0  0  0  0
    5.4671   -6.2805    0.0000 C   0  0  0  0  0  0  0  0  0  0  0  0
    5.4671   -5.4555    0.0000 C   0  0  0  0  0  0  0  0  0  0  0  0
    6.1816   -5.0430    0.0000 C   0  0  2  0  0  0  0  0  0  0  0  0
    9.0083   -5.0611    0.0000 O   0  0  0  0  0  0  0  0  0  0  0  0
    6.8961   -7.9305    0.0000 C   0  0  0  0  0  0  0  0  0  0  0  0
    6.1816   -7.5180    0.0000 C   0  0  0  0  0  0  0  0  0  0  0  0
    5.4671   -7.9305    0.0000 C   0  0  0  0  0  0  0  0  0  0  0  0
    6.1816   -4.2180    0.0000 C   0  0  0  0  0  0  0  0  0  0  0  0
    8.8367   -5.8680    0.0000 C   0  0  0  0  0  0  0  0  0  0  0  0
    7.3086   -6.9950    0.0000 H   0  0  0  0  0  0  0  0  0  0  0  0
  1  2  1  1  0  0  0
  2  3  1  0  0  0  0
  3  4  1  0  0  0  0
  4  5  1  0  0  0  0
  5  6  1  0  0  0  0
  6  7  1  0  0  0  0
  7  8  1  0  0  0  0
  8  9  2  0  0  0  0
  9 10  1  0  0  0  0
  1 10  1  0  0  0  0
  1  6  1  0  0  0  0
  1  5  1  0  0  0  0
  4 11  1  6  0  0  0
 12 13  1  0  0  0  0
 13 14  1  0  0  0  0
  7 13  1  1  0  0  0
 10 15  1  6  0  0  0
  4 16  1  1  0  0  0
  6 17  1  1  0  0  0
M  END
>  <cdx:groupId>
55

>  <cdx:fragmentId>
5

$$$$
