753567.cdx
  Mrv1902 05222410252D          

 11 10  0  0  0  0            999 V2000
    8.6065   -7.3219    0.0000 C   0  0  0  0  0  0  0  0  0  0  0  0
    7.8921   -7.7344    0.0000 C   0  0  0  0  0  0  0  0  0  0  0  0
    7.1776   -7.3219    0.0000 C   0  0  0  0  0  0  0  0  0  0  0  0
    6.4631   -7.7344    0.0000 C   0  0  0  0  0  0  0  0  0  0  0  0
    5.7487   -7.3219    0.0000 C   0  0  0  0  0  0  0  0  0  0  0  0
    5.0342   -7.7344    0.0000 C   0  0  0  0  0  0  0  0  0  0  0  0
    5.0342   -8.5594    0.0000 C   0  0  0  0  0  0  0  0  0  0  0  0
    4.3197   -8.9719    0.0000 C   0  0  0  0  0  0  0  0  0  0  0  0
    7.8921   -8.5594    0.0000 C   0  0  0  0  0  0  0  0  0  0  0  0
    6.4631   -8.5594    0.0000 O   0  0  0  0  0  0  0  0  0  0  0  0
    4.3197   -7.3219    0.0000 C   0  0  0  0  0  0  0  0  0  0  0  0
  1  2  1  0  0  0  0
  2  3  2  0  0  0  0
  3  4  1  0  0  0  0
  4  5  1  0  0  0  0
  5  6  2  0  0  0  0
  6  7  1  0  0  0  0
  7  8  2  0  0  0  0
  2  9  1  0  0  0  0
  4 10  1  0  0  0  0
  6 11  1  0  0  0  0
M  END
>  <cdx:fragmentId>
3

$$$$
