753598.cdx
  Mrv1902 05222410252D          

 16 18  0  0  0  0            999 V2000
    6.6794   -9.3380    0.0000 C   0  0  1  0  0  0  0  0  0  0  0  0
    5.9649   -9.7505    0.0000 C   0  0  0  0  0  0  0  0  0  0  0  0
    5.2505   -9.3380    0.0000 C   0  0  0  0  0  0  0  0  0  0  0  0
    5.2505   -8.5130    0.0000 C   0  0  0  0  0  0  0  0  0  0  0  0
    5.9649   -8.1005    0.0000 C   0  0  0  0  0  0  0  0  0  0  0  0
    6.6794   -8.5130    0.0000 C   0  0  1  0  0  0  0  0  0  0  0  0
    7.4640   -8.2580    0.0000 C   0  0  0  0  0  0  0  0  0  0  0  0
    7.9489   -8.9255    0.0000 C   0  0  0  0  0  0  0  0  0  0  0  0
    7.4640   -9.5929    0.0000 C   0  0  0  0  0  0  0  0  0  0  0  0
    7.3425   -9.2125    0.0000 C   0  0  0  0  0  0  0  0  0  0  0  0
    7.5625   -8.8000    0.0000 C   0  0  1  0  0  0  0  0  0  0  0  0
    7.7190   -7.4734    0.0000 C   0  0  0  0  0  0  0  0  0  0  0  0
    6.7656   -7.6925    0.0000 C   0  0  0  0  0  0  0  0  0  0  0  0
    6.3774  -10.4650    0.0000 C   0  0  0  0  0  0  0  0  0  0  0  0
    5.5524  -10.4650    0.0000 C   0  0  0  0  0  0  0  0  0  0  0  0
    8.3594   -8.5865    0.0000 O   0  0  0  0  0  0  0  0  0  0  0  0
  1  2  1  6  0  0  0
  2  3  1  0  0  0  0
  3  4  1  0  0  0  0
  4  5  1  0  0  0  0
  5  6  1  0  0  0  0
  6  7  1  0  0  0  0
  7  8  1  0  0  0  0
  8  9  1  0  0  0  0
 10 11  1  0  0  0  0
  1  9  1  0  0  0  0
  1 10  1  0  0  0  0
 11  7  1  0  0  0  0
  1  6  1  0  0  0  0
  7 12  1  0  0  0  0
  6 13  1  6  0  0  0
  2 14  1  0  0  0  0
  2 15  1  0  0  0  0
 11 16  1  6  0  0  0
M  END
>  <cdx:fragmentId>
217979

$$$$
