753627.cdx
  Mrv1902 05222410232D          

 18 20  0  0  0  0            999 V2000
    6.3207   -7.5052    0.0000 C   0  0  1  0  0  0  0  0  0  0  0  0
    7.0352   -7.0927    0.0000 C   0  0  2  0  0  0  0  0  0  0  0  0
    7.6802   -7.6071    0.0000 C   0  0  0  0  0  0  0  0  0  0  0  0
    8.4845   -7.4235    0.0000 C   0  0  0  0  0  0  0  0  0  0  0  0
    8.8425   -6.6802    0.0000 C   0  0  0  0  0  0  0  0  0  0  0  0
    8.4845   -5.9369    0.0000 C   0  0  0  0  0  0  0  0  0  0  0  0
    7.6802   -5.7534    0.0000 C   0  0  1  0  0  0  0  0  0  0  0  0
    7.0352   -6.2677    0.0000 C   0  0  2  0  0  0  0  0  0  0  0  0
    6.3207   -5.8552    0.0000 C   0  0  0  0  0  0  0  0  0  0  0  0
    5.6062   -6.2677    0.0000 C   0  0  0  0  0  0  0  0  0  0  0  0
    5.6062   -7.0927    0.0000 C   0  0  0  0  0  0  0  0  0  0  0  0
    6.3207   -5.0302    0.0000 C   0  0  0  0  0  0  0  0  0  0  0  0
    8.6075   -5.1212    0.0000 C   0  0  0  0  0  0  0  0  0  0  0  0
    9.2525   -5.6355    0.0000 C   0  0  0  0  0  0  0  0  0  0  0  0
    7.0352   -7.9177    0.0000 C   0  0  0  0  0  0  0  0  0  0  0  0
    6.3207   -8.3302    0.0000 H   0  0  0  0  0  0  0  0  0  0  0  0
    7.4966   -4.9490    0.0000 H   0  0  0  0  0  0  0  0  0  0  0  0
    7.0352   -5.4427    0.0000 H   0  0  0  0  0  0  0  0  0  0  0  0
  1  2  1  0  0  0  0
  2  3  1  0  0  0  0
  3  4  1  0  0  0  0
  4  5  1  0  0  0  0
  5  6  1  0  0  0  0
  6  7  1  0  0  0  0
  7  8  1  0  0  0  0
  8  9  1  0  0  0  0
  9 10  2  0  0  0  0
 10 11  1  0  0  0  0
  1 11  1  0  0  0  0
  1  7  1  0  0  0  0
  2  8  1  0  0  0  0
  9 12  1  0  0  0  0
  6 13  1  0  0  0  0
  6 14  1  0  0  0  0
  2 15  1  6  0  0  0
  1 16  1  1  0  0  0
  7 17  1  1  0  0  0
  8 18  1  6  0  0  0
M  END
>  <cdx:fragmentId>
5

$$$$
