75364.cdx
  Mrv1902 05222410242D          

 15 14  0  0  0  0            999 V2000
    2.3775   -2.5091    0.0000 O   0  0  0  0  0  0  0  0  0  0  0  0
   10.9512   -3.3341    0.0000 C   0  0  0  0  0  0  0  0  0  0  0  0
   10.2367   -3.7466    0.0000 C   0  0  0  0  0  0  0  0  0  0  0  0
    9.5222   -3.3341    0.0000 C   0  0  0  0  0  0  0  0  0  0  0  0
    8.8078   -3.7466    0.0000 C   0  0  0  0  0  0  0  0  0  0  0  0
    8.0933   -3.3341    0.0000 C   0  0  0  0  0  0  0  0  0  0  0  0
    7.3788   -3.7466    0.0000 C   0  0  0  0  0  0  0  0  0  0  0  0
    6.6644   -3.3341    0.0000 C   0  0  0  0  0  0  0  0  0  0  0  0
    5.9499   -3.7466    0.0000 C   0  0  0  0  0  0  0  0  0  0  0  0
    5.2354   -3.3341    0.0000 C   0  0  0  0  0  0  0  0  0  0  0  0
    4.5209   -3.7466    0.0000 C   0  0  0  0  0  0  0  0  0  0  0  0
    3.8065   -3.3341    0.0000 C   0  0  0  0  0  0  0  0  0  0  0  0
    3.0920   -3.7466    0.0000 C   0  0  0  0  0  0  0  0  0  0  0  0
    2.3775   -3.3341    0.0000 C   0  0  0  0  0  0  0  0  0  0  0  0
    1.6631   -3.7466    0.0000 C   0  0  0  0  0  0  0  0  0  0  0  0
 14  1  2  0  0  0  0
  3  2  1  0  0  0  0
  4  3  1  0  0  0  0
  5  4  1  0  0  0  0
  6  5  1  0  0  0  0
  7  6  1  0  0  0  0
  8  7  1  0  0  0  0
  9  8  1  0  0  0  0
 10  9  1  0  0  0  0
 11 10  1  0  0  0  0
 12 11  1  0  0  0  0
 13 12  1  0  0  0  0
 14 13  1  0  0  0  0
 15 14  1  0  0  0  0
M  END
>  <cdx:groupId>
46

>  <cdx:fragmentId>
5

$$$$
