91753981.cdx
  Mrv1902 05222410252D          

 11 11  0  0  0  0            999 V2000
    7.6702   -7.1082    0.0000 C   0  0  0  0  0  0  0  0  0  0  0  0
    6.9557   -6.6957    0.0000 C   0  0  0  0  0  0  0  0  0  0  0  0
    6.2412   -7.1082    0.0000 C   0  0  2  0  0  0  0  0  0  0  0  0
    6.2412   -7.9332    0.0000 C   0  0  0  0  0  0  0  0  0  0  0  0
    6.9557   -8.3457    0.0000 C   0  0  0  0  0  0  0  0  0  0  0  0
    7.6702   -7.9332    0.0000 C   0  0  2  0  0  0  0  0  0  0  0  0
    8.3846   -6.6957    0.0000 O   0  0  0  0  0  0  0  0  0  0  0  0
    8.3846   -9.1707    0.0000 C   0  0  0  0  0  0  0  0  0  0  0  0
    8.3846   -8.3457    0.0000 C   0  0  0  0  0  0  0  0  0  0  0  0
    9.0991   -7.9332    0.0000 C   0  0  0  0  0  0  0  0  0  0  0  0
    5.5268   -6.6957    0.0000 C   0  0  0  0  0  0  0  0  0  0  0  0
  1  2  2  0  0  0  0
  2  3  1  0  0  0  0
  3  4  1  0  0  0  0
  4  5  1  0  0  0  0
  5  6  1  0  0  0  0
  1  6  1  0  0  0  0
  1  7  1  0  0  0  0
  8  9  2  0  0  0  0
  9 10  1  0  0  0  0
  6  9  1  1  0  0  0
  3 11  1  6  0  0  0
M  END
>  <cdx:fragmentId>
218082

$$$$
