754031.cdx
  Mrv1902 05222410232D          

 54 58  0  0  0  0            999 V2000
   10.8140  -10.7042    0.0000 C   0  0  0  0  0  0  0  0  0  0  0  0
   10.1035  -11.1236    0.0000 C   0  0  0  0  0  0  0  0  0  0  0  0
    9.3851  -10.7180    0.0000 C   0  0  0  0  0  0  0  0  0  0  0  0
   10.8060   -9.8792    0.0000 O   0  0  0  0  0  0  0  0  0  0  0  0
   11.5324  -11.1097    0.0000 O   0  0  0  0  0  0  0  0  0  0  0  0
    8.6747  -11.1374    0.0000 C   0  0  0  0  0  0  0  0  0  0  0  0
    7.9562  -10.7319    0.0000 C   0  0  0  0  0  0  0  0  0  0  0  0
    7.2458  -11.1513    0.0000 C   0  0  0  0  0  0  0  0  0  0  0  0
    7.2538  -11.9762    0.0000 C   0  0  0  0  0  0  0  0  0  0  0  0
    7.9722  -12.3818    0.0000 C   0  0  0  0  0  0  0  0  0  0  0  0
    8.6827  -11.9624    0.0000 C   0  0  0  0  0  0  0  0  0  0  0  0
    6.5274  -10.7457    0.0000 O   0  0  0  0  0  0  0  0  0  0  0  0
    5.8169  -11.1651    0.0000 C   0  0  0  0  0  0  0  0  0  0  0  0
    6.5433  -12.3956    0.0000 O   0  0  0  0  0  0  0  0  0  0  0  0
   12.2429  -10.6903    0.0000 C   0  0  0  0  0  0  0  0  0  0  0  0
   12.2468  -11.5084    0.0000 O   0  0  0  0  0  0  0  0  0  0  0  0
   13.3215  -12.5212    0.0000 O   0  0  0  0  0  0  0  0  0  0  0  0
   15.6682  -13.0622    0.0000 O   0  0  0  0  0  0  0  0  0  0  0  0
   17.0852  -13.9075    0.0000 O   0  0  0  0  0  0  0  0  0  0  0  0
   18.5258  -13.1029    0.0000 O   0  0  0  0  0  0  0  0  0  0  0  0
   22.8122  -13.1640    0.0000 O   0  0  0  0  0  0  0  0  0  0  0  0
   21.4069  -11.4938    0.0000 C   0  0  0  0  0  0  0  0  0  0  0  0
   22.1154  -11.9164    0.0000 C   0  0  0  0  0  0  0  0  0  0  0  0
   22.1037  -12.7413    0.0000 C   0  0  0  0  0  0  0  0  0  0  0  0
   21.3834  -13.1436    0.0000 C   0  0  0  0  0  0  0  0  0  0  0  0
   20.6749  -12.7210    0.0000 C   0  0  0  0  0  0  0  0  0  0  0  0
   20.6866  -11.8960    0.0000 C   0  0  0  0  0  0  0  0  0  0  0  0
   19.9781  -11.4734    0.0000 C   0  0  0  0  0  0  0  0  0  0  0  0
   19.2578  -11.8757    0.0000 C   0  0  0  0  0  0  0  0  0  0  0  0
   18.5493  -11.4531    0.0000 O   0  0  0  0  0  0  0  0  0  0  0  0
   17.8290  -11.8553    0.0000 C   0  0  1  0  0  0  0  0  0  0  0  0
   17.8173  -12.6803    0.0000 C   0  0  1  0  0  0  0  0  0  0  0  0
   17.0970  -13.0825    0.0000 C   0  0  2  0  0  0  0  0  0  0  0  0
   16.3885  -12.6599    0.0000 C   0  0  1  0  0  0  0  0  0  0  0  0
   16.4002  -11.8350    0.0000 C   0  0  2  0  0  0  0  0  0  0  0  0
   17.1205  -11.4327    0.0000 O   0  0  0  0  0  0  0  0  0  0  0  0
   15.6917  -11.4124    0.0000 C   0  0  0  0  0  0  0  0  0  0  0  0
   14.9714  -11.8146    0.0000 O   0  0  0  0  0  0  0  0  0  0  0  0
   14.2629  -11.3920    0.0000 C   0  0  1  0  0  0  0  0  0  0  0  0
   13.5045  -11.7168    0.0000 C   0  0  1  0  0  0  0  0  0  0  0  0
   12.9613  -11.0959    0.0000 C   0  0  2  0  0  0  0  0  0  0  0  0
   13.3839  -10.3874    0.0000 C   0  0  0  0  0  0  0  0  0  0  0  0
   14.1884  -10.5704    0.0000 O   0  0  0  0  0  0  0  0  0  0  0  0
    6.5513  -13.2206    0.0000 C   0  0  2  0  0  0  0  0  0  0  0  0
    5.8349  -13.6297    0.0000 O   0  0  0  0  0  0  0  0  0  0  0  0
    5.8349  -14.4547    0.0000 C   0  0  1  0  0  0  0  0  0  0  0  0
    6.5513  -14.8706    0.0000 C   0  0  2  0  0  0  0  0  0  0  0  0
    7.2677  -14.4547    0.0000 C   0  0  1  0  0  0  0  0  0  0  0  0
    7.2677  -13.6297    0.0000 C   0  0  1  0  0  0  0  0  0  0  0  0
    5.1200  -14.8664    0.0000 C   0  0  0  0  0  0  0  0  0  0  0  0
    7.9827  -14.8664    0.0000 O   0  0  0  0  0  0  0  0  0  0  0  0
    7.9812  -13.2155    0.0000 O   0  0  0  0  0  0  0  0  0  0  0  0
    6.5513  -15.6956    0.0000 O   0  0  0  0  0  0  0  0  0  0  0  0
    5.1190  -15.6914    0.0000 O   0  0  0  0  0  0  0  0  0  0  0  0
 41 15  1  1  0  0  0
 41 16  1  6  0  0  0
 40 17  1  6  0  0  0
 39 38  1  1  0  0  0
 35 37  1  1  0  0  0
 34 18  1  6  0  0  0
 33 19  1  1  0  0  0
 32 20  1  6  0  0  0
 31 30  1  1  0  0  0
 28 27  1  0  0  0  0
 24 21  1  0  0  0  0
 27 22  2  0  0  0  0
 23 22  1  0  0  0  0
 24 23  2  0  0  0  0
 25 24  1  0  0  0  0
 26 25  2  0  0  0  0
 27 26  1  0  0  0  0
 30 29  1  0  0  0  0
 29 28  1  0  0  0  0
 36 31  1  0  0  0  0
 32 31  1  0  0  0  0
 33 32  1  0  0  0  0
 34 33  1  0  0  0  0
 35 34  1  0  0  0  0
 36 35  1  0  0  0  0
 38 37  1  0  0  0  0
 43 39  1  0  0  0  0
 40 39  1  0  0  0  0
 41 40  1  0  0  0  0
 42 41  1  0  0  0  0
 43 42  1  0  0  0  0
  1  2  1  0  0  0  0
  2  3  2  0  0  0  0
  1  4  2  0  0  0  0
  1  5  1  0  0  0  0
  6  7  1  0  0  0  0
  7  8  2  0  0  0  0
  8  9  1  0  0  0  0
  9 10  2  0  0  0  0
 10 11  1  0  0  0  0
  6 11  2  0  0  0  0
 12 13  1  0  0  0  0
  8 12  1  0  0  0  0
  9 14  1  0  0  0  0
  3  6  1  0  0  0  0
  5 15  1  0  0  0  0
 44 14  1  1  0  0  0
 44 45  1  0  0  0  0
 45 46  1  0  0  0  0
 46 47  1  0  0  0  0
 47 48  1  0  0  0  0
 48 49  1  0  0  0  0
 49 44  1  0  0  0  0
 46 50  1  1  0  0  0
 48 51  1  1  0  0  0
 49 52  1  6  0  0  0
 47 53  1  6  0  0  0
 50 54  1  0  0  0  0
M  END
>  <cdx:groupId>
20993

>  <cdx:fragmentId>
20926

$$$$
