75424.cdx
  Mrv1902 05222410232D          

 10  9  0  0  0  0            999 V2000
    9.1922   -2.1843    0.0000 C   0  0  0  0  0  0  0  0  0  0  0  0
    8.4778   -2.5968    0.0000 C   0  0  0  0  0  0  0  0  0  0  0  0
    7.7633   -3.0093    0.0000 C   0  0  0  0  0  0  0  0  0  0  0  0
    7.0488   -3.4218    0.0000 C   0  0  0  0  0  0  0  0  0  0  0  0
    6.3344   -3.0093    0.0000 C   0  0  0  0  0  0  0  0  0  0  0  0
    5.6199   -3.4218    0.0000 C   0  0  0  0  0  0  0  0  0  0  0  0
    4.9054   -3.0093    0.0000 C   0  0  0  0  0  0  0  0  0  0  0  0
    4.1909   -3.4218    0.0000 C   0  0  0  0  0  0  0  0  0  0  0  0
    3.4765   -3.0093    0.0000 C   0  0  0  0  0  0  0  0  0  0  0  0
    2.7620   -3.4218    0.0000 C   0  0  0  0  0  0  0  0  0  0  0  0
  1  2  1  0  0  0  0
  2  3  3  0  0  0  0
  3  4  1  0  0  0  0
  4  5  1  0  0  0  0
  5  6  1  0  0  0  0
  6  7  1  0  0  0  0
  7  8  1  0  0  0  0
  8  9  1  0  0  0  0
  9 10  1  0  0  0  0
M  END
>  <cdx:groupId>
31

>  <cdx:fragmentId>
5

$$$$
