75458.cdx
  Mrv1902 05222410272D          

 21 20  0  0  0  0            999 V2000
    2.5442   -8.5940    0.0000 C   0  0  0  0  0  0  0  0  0  0  0  0
    3.2586   -9.0065    0.0000 C   0  0  0  0  0  0  0  0  0  0  0  0
    3.9731   -8.5940    0.0000 C   0  0  0  0  0  0  0  0  0  0  0  0
    4.6876   -9.0065    0.0000 C   0  0  0  0  0  0  0  0  0  0  0  0
    5.4021   -8.5940    0.0000 C   0  0  0  0  0  0  0  0  0  0  0  0
    6.1165   -9.0065    0.0000 C   0  0  0  0  0  0  0  0  0  0  0  0
    6.8310   -8.5940    0.0000 C   0  0  0  0  0  0  0  0  0  0  0  0
    7.5455   -9.0065    0.0000 C   0  0  0  0  0  0  0  0  0  0  0  0
    8.2599   -8.5940    0.0000 C   0  0  0  0  0  0  0  0  0  0  0  0
    8.9744   -9.0065    0.0000 C   0  0  0  0  0  0  0  0  0  0  0  0
    9.6889   -8.5940    0.0000 C   0  0  0  0  0  0  0  0  0  0  0  0
   10.4034   -9.0065    0.0000 C   0  0  0  0  0  0  0  0  0  0  0  0
   11.1178   -8.5940    0.0000 C   0  0  0  0  0  0  0  0  0  0  0  0
   11.8323   -9.0065    0.0000 C   0  0  0  0  0  0  0  0  0  0  0  0
   12.5468   -8.5940    0.0000 C   0  0  0  0  0  0  0  0  0  0  0  0
   13.2612   -9.0065    0.0000 C   0  0  0  0  0  0  0  0  0  0  0  0
   13.9757   -8.5940    0.0000 C   0  0  0  0  0  0  0  0  0  0  0  0
   14.6902   -9.0065    0.0000 C   0  0  0  0  0  0  0  0  0  0  0  0
   15.4047   -8.5940    0.0000 C   0  0  0  0  0  0  0  0  0  0  0  0
   16.1191   -9.0065    0.0000 C   0  0  0  0  0  0  0  0  0  0  0  0
    1.8297   -9.0065    0.0000 O   0  0  0  0  0  0  0  0  0  0  0  0
  1  2  1  0  0  0  0
  2  3  1  0  0  0  0
  3  4  1  0  0  0  0
  4  5  1  0  0  0  0
  5  6  1  0  0  0  0
  6  7  1  0  0  0  0
  7  8  1  0  0  0  0
  8  9  1  0  0  0  0
  9 10  1  0  0  0  0
 10 11  1  0  0  0  0
 11 12  1  0  0  0  0
 12 13  1  0  0  0  0
 13 14  1  0  0  0  0
 14 15  1  0  0  0  0
 15 16  1  0  0  0  0
 16 17  1  0  0  0  0
 17 18  1  0  0  0  0
 18 19  1  0  0  0  0
 19 20  1  0  0  0  0
  1 21  2  0  0  0  0
M  END
>  <cdx:fragmentId>
5

$$$$
