754750.cdx
  Mrv1902 05222410252D          

 24 24  0  0  0  0            999 V2000
   12.7805  -10.3507    0.0000 O   0  0  0  0  0  0  0  0  0  0  0  0
   13.4950   -9.1132    0.0000 C   0  0  0  0  0  0  0  0  0  0  0  0
   12.7805   -8.7007    0.0000 O   0  0  0  0  0  0  0  0  0  0  0  0
   10.6371   -9.9382    0.0000 C   0  0  0  0  0  0  0  0  0  0  0  0
   11.3516  -10.3507    0.0000 C   0  0  0  0  0  0  0  0  0  0  0  0
   12.0660   -9.9382    0.0000 C   0  0  0  0  0  0  0  0  0  0  0  0
   12.0660   -9.1132    0.0000 C   0  0  0  0  0  0  0  0  0  0  0  0
   11.3516   -8.7007    0.0000 C   0  0  0  0  0  0  0  0  0  0  0  0
   10.6371   -9.1132    0.0000 C   0  0  0  0  0  0  0  0  0  0  0  0
    9.9226   -8.7007    0.0000 C   0  0  0  0  0  0  0  0  0  0  0  0
    9.2081   -9.1132    0.0000 C   0  0  0  0  0  0  0  0  0  0  0  0
    8.4937   -8.7007    0.0000 C   0  0  0  0  0  0  0  0  0  0  0  0
    1.3490   -8.7007    0.0000 C   0  0  0  0  0  0  0  0  0  0  0  0
    7.7792   -9.1132    0.0000 O   0  0  0  0  0  0  0  0  0  0  0  0
    7.0647   -7.8757    0.0000 O   0  0  0  0  0  0  0  0  0  0  0  0
    2.0634   -9.9382    0.0000 C   0  0  0  0  0  0  0  0  0  0  0  0
    2.0634   -9.1132    0.0000 C   0  0  0  0  0  0  0  0  0  0  0  0
    2.7779   -8.7007    0.0000 C   0  0  0  0  0  0  0  0  0  0  0  0
    3.4924   -9.1132    0.0000 C   0  0  0  0  0  0  0  0  0  0  0  0
    4.2068   -8.7007    0.0000 C   0  0  0  0  0  0  0  0  0  0  0  0
    4.9213   -9.1132    0.0000 C   0  0  0  0  0  0  0  0  0  0  0  0
    5.6358   -8.7007    0.0000 C   0  0  0  0  0  0  0  0  0  0  0  0
    6.3503   -9.1132    0.0000 C   0  0  0  0  0  0  0  0  0  0  0  0
    7.0647   -8.7007    0.0000 C   0  0  0  0  0  0  0  0  0  0  0  0
 14 12  1  0  0  0  0
 10  9  1  0  0  0  0
  6  1  1  0  0  0  0
  7  3  1  0  0  0  0
  3  2  1  0  0  0  0
  9  4  2  0  0  0  0
  5  4  1  0  0  0  0
  6  5  2  0  0  0  0
  7  6  1  0  0  0  0
  8  7  2  0  0  0  0
  9  8  1  0  0  0  0
 11 10  2  0  0  0  0
 12 11  1  0  0  0  0
 17 13  1  0  0  0  0
 24 14  1  0  0  0  0
 24 15  2  0  0  0  0
 17 16  1  0  0  0  0
 18 17  1  0  0  0  0
 19 18  1  0  0  0  0
 20 19  1  0  0  0  0
 21 20  1  0  0  0  0
 22 21  1  0  0  0  0
 23 22  1  0  0  0  0
 24 23  1  0  0  0  0
M  END
>  <cdx:fragmentId>
124271

$$$$
