7547.cdx
  Mrv1902 05222410192D          

 12 11  0  0  0  0            999 V2000
    5.4615   -5.8988    0.0000 N   0  0  0  0  0  0  0  0  0  0  0  0
    6.1760   -6.3113    0.0000 C   0  0  0  0  0  0  0  0  0  0  0  0
    6.8904   -5.8988    0.0000 N   0  0  0  0  0  0  0  0  0  0  0  0
    7.6049   -6.3113    0.0000 C   0  0  0  0  0  0  0  0  0  0  0  0
    8.3194   -5.8988    0.0000 C   0  0  0  0  0  0  0  0  0  0  0  0
    9.0339   -6.3113    0.0000 O   0  0  0  0  0  0  0  0  0  0  0  0
    6.1760   -7.1362    0.0000 O   0  0  0  0  0  0  0  0  0  0  0  0
    8.3194   -5.0737    0.0000 O   0  0  0  0  0  0  0  0  0  0  0  0
    7.6049   -7.1362    0.0000 N   0  0  0  0  0  0  0  0  0  0  0  0
    8.3194   -7.5488    0.0000 C   0  0  0  0  0  0  0  0  0  0  0  0
    9.0339   -7.1362    0.0000 O   0  0  0  0  0  0  0  0  0  0  0  0
    8.3194   -8.3737    0.0000 N   0  0  0  0  0  0  0  0  0  0  0  0
  1  2  1  0  0  0  0
  2  3  1  0  0  0  0
  3  4  1  0  0  0  0
  4  5  1  0  0  0  0
  5  6  1  0  0  0  0
  2  7  2  0  0  0  0
  5  8  2  0  0  0  0
  4  9  1  0  0  0  0
  9 10  1  0  0  0  0
 10 11  2  0  0  0  0
 10 12  1  0  0  0  0
M  END
>  <cdx:fragmentId>
3

$$$$
