754707.cdx
  Mrv1902 05222410192D          

 24 24  0  0  0  0            999 V2000
   12.8080  -10.2820    0.0000 O   0  0  0  0  0  0  0  0  0  0  0  0
   13.5225   -9.0445    0.0000 C   0  0  0  0  0  0  0  0  0  0  0  0
   12.8080   -8.6320    0.0000 O   0  0  0  0  0  0  0  0  0  0  0  0
   10.6646   -9.8695    0.0000 C   0  0  0  0  0  0  0  0  0  0  0  0
   11.3791  -10.2820    0.0000 C   0  0  0  0  0  0  0  0  0  0  0  0
   12.0935   -9.8695    0.0000 C   0  0  0  0  0  0  0  0  0  0  0  0
   12.0935   -9.0445    0.0000 C   0  0  0  0  0  0  0  0  0  0  0  0
   11.3791   -8.6320    0.0000 C   0  0  0  0  0  0  0  0  0  0  0  0
   10.6646   -9.0445    0.0000 C   0  0  0  0  0  0  0  0  0  0  0  0
    9.9501   -8.6320    0.0000 C   0  0  0  0  0  0  0  0  0  0  0  0
    9.2357   -9.0445    0.0000 C   0  0  0  0  0  0  0  0  0  0  0  0
    8.5212   -8.6320    0.0000 C   0  0  0  0  0  0  0  0  0  0  0  0
    1.3765   -8.6320    0.0000 C   0  0  0  0  0  0  0  0  0  0  0  0
    7.8067   -9.0445    0.0000 O   0  0  0  0  0  0  0  0  0  0  0  0
    7.0922   -7.8070    0.0000 O   0  0  0  0  0  0  0  0  0  0  0  0
    2.0909   -9.8695    0.0000 C   0  0  0  0  0  0  0  0  0  0  0  0
    2.0909   -9.0445    0.0000 C   0  0  0  0  0  0  0  0  0  0  0  0
    2.8054   -8.6320    0.0000 C   0  0  0  0  0  0  0  0  0  0  0  0
    3.5199   -9.0445    0.0000 C   0  0  0  0  0  0  0  0  0  0  0  0
    4.2344   -8.6320    0.0000 C   0  0  0  0  0  0  0  0  0  0  0  0
    4.9488   -9.0445    0.0000 C   0  0  0  0  0  0  0  0  0  0  0  0
    5.6633   -8.6320    0.0000 C   0  0  0  0  0  0  0  0  0  0  0  0
    6.3778   -9.0445    0.0000 C   0  0  0  0  0  0  0  0  0  0  0  0
    7.0922   -8.6320    0.0000 C   0  0  0  0  0  0  0  0  0  0  0  0
 14 12  1  0  0  0  0
 10  9  1  0  0  0  0
  6  1  1  0  0  0  0
  7  3  1  0  0  0  0
  3  2  1  0  0  0  0
  9  4  2  0  0  0  0
  5  4  1  0  0  0  0
  6  5  2  0  0  0  0
  7  6  1  0  0  0  0
  8  7  2  0  0  0  0
  9  8  1  0  0  0  0
 11 10  2  0  0  0  0
 12 11  1  0  0  0  0
 17 13  1  0  0  0  0
 24 14  1  0  0  0  0
 24 15  2  0  0  0  0
 17 16  1  0  0  0  0
 18 17  1  0  0  0  0
 19 18  2  0  0  0  0
 20 19  1  0  0  0  0
 21 20  1  0  0  0  0
 22 21  1  0  0  0  0
 23 22  1  0  0  0  0
 24 23  1  0  0  0  0
M  END
>  <cdx:fragmentId>
124190

$$$$
