75524.cdx
  Mrv1902 05222410192D          

 16 19  0  0  0  0            999 V2000
    8.5888   -4.3391    0.0000 C   0  0  0  0  0  0  0  0  0  0  0  0
    9.3038   -4.7506    0.0000 C   0  0  0  0  0  0  0  0  0  0  0  0
    9.3038   -5.5756    0.0000 C   0  0  0  0  0  0  0  0  0  0  0  0
    8.5888   -5.9872    0.0000 C   0  0  0  0  0  0  0  0  0  0  0  0
    8.5886   -6.8122    0.0000 C   0  0  0  0  0  0  0  0  0  0  0  0
    7.8742   -7.2249    0.0000 C   0  0  0  0  0  0  0  0  0  0  0  0
    7.1593   -6.8131    0.0000 C   0  0  0  0  0  0  0  0  0  0  0  0
    6.4449   -7.2256    0.0000 C   0  0  0  0  0  0  0  0  0  0  0  0
    5.7304   -6.8131    0.0000 C   0  0  0  0  0  0  0  0  0  0  0  0
    5.7304   -5.9881    0.0000 C   0  0  0  0  0  0  0  0  0  0  0  0
    6.4449   -5.5756    0.0000 C   0  0  0  0  0  0  0  0  0  0  0  0
    6.4449   -4.7506    0.0000 C   0  0  0  0  0  0  0  0  0  0  0  0
    7.1593   -4.3381    0.0000 C   0  0  0  0  0  0  0  0  0  0  0  0
    7.8738   -4.7506    0.0000 C   0  0  0  0  0  0  0  0  0  0  0  0
    7.8738   -5.5756    0.0000 C   0  0  0  0  0  0  0  0  0  0  0  0
    7.1593   -5.9881    0.0000 C   0  0  0  0  0  0  0  0  0  0  0  0
  1  2  1  0  0  0  0
  2  3  1  0  0  0  0
  3  4  1  0  0  0  0
  4  5  1  0  0  0  0
  5  6  1  0  0  0  0
  6  7  1  0  0  0  0
  7  8  1  0  0  0  0
  8  9  1  0  0  0  0
  9 10  1  0  0  0  0
 10 11  1  0  0  0  0
 11 12  1  0  0  0  0
 12 13  1  0  0  0  0
 13 14  1  0  0  0  0
  1 14  1  0  0  0  0
 14 15  1  0  0  0  0
  4 15  1  0  0  0  0
 15 16  1  0  0  0  0
  7 16  1  0  0  0  0
 11 16  1  0  0  0  0
M  END
>  <cdx:fragmentId>
5

$$$$
