75546.cdx
  Mrv1902 05222410222D          

 27 26  0  0  0  0            999 V2000
    2.2162   -7.0958    0.0000 C   0  0  0  0  0  0  0  0  0  0  0  0
    2.9307   -6.6833    0.0000 O   0  0  0  0  0  0  0  0  0  0  0  0
    3.6452   -7.9208    0.0000 O   0  0  0  0  0  0  0  0  0  0  0  0
   20.0780   -6.6833    0.0000 C   0  0  0  0  0  0  0  0  0  0  0  0
   19.3635   -7.0958    0.0000 C   0  0  0  0  0  0  0  0  0  0  0  0
   18.6491   -6.6833    0.0000 C   0  0  0  0  0  0  0  0  0  0  0  0
   17.9346   -7.0958    0.0000 C   0  0  0  0  0  0  0  0  0  0  0  0
   17.2201   -6.6833    0.0000 C   0  0  0  0  0  0  0  0  0  0  0  0
   16.5057   -7.0958    0.0000 C   0  0  0  0  0  0  0  0  0  0  0  0
   15.7912   -6.6833    0.0000 C   0  0  0  0  0  0  0  0  0  0  0  0
   15.0767   -7.0958    0.0000 C   0  0  0  0  0  0  0  0  0  0  0  0
   14.3622   -6.6833    0.0000 C   0  0  0  0  0  0  0  0  0  0  0  0
   13.6478   -7.0958    0.0000 C   0  0  0  0  0  0  0  0  0  0  0  0
   12.9333   -6.6833    0.0000 C   0  0  0  0  0  0  0  0  0  0  0  0
   12.2188   -7.0958    0.0000 C   0  0  0  0  0  0  0  0  0  0  0  0
   11.5044   -6.6833    0.0000 C   0  0  0  0  0  0  0  0  0  0  0  0
   10.7899   -7.0958    0.0000 C   0  0  0  0  0  0  0  0  0  0  0  0
   10.0754   -6.6833    0.0000 C   0  0  0  0  0  0  0  0  0  0  0  0
    9.3609   -7.0958    0.0000 C   0  0  0  0  0  0  0  0  0  0  0  0
    8.6465   -6.6833    0.0000 C   0  0  0  0  0  0  0  0  0  0  0  0
    7.9320   -7.0958    0.0000 C   0  0  0  0  0  0  0  0  0  0  0  0
    7.2175   -6.6833    0.0000 C   0  0  0  0  0  0  0  0  0  0  0  0
    6.5031   -7.0958    0.0000 C   0  0  0  0  0  0  0  0  0  0  0  0
    5.7886   -6.6833    0.0000 C   0  0  0  0  0  0  0  0  0  0  0  0
    5.0741   -7.0958    0.0000 C   0  0  0  0  0  0  0  0  0  0  0  0
    4.3597   -6.6833    0.0000 C   0  0  0  0  0  0  0  0  0  0  0  0
    3.6452   -7.0958    0.0000 C   0  0  0  0  0  0  0  0  0  0  0  0
  2  1  1  0  0  0  0
 27  2  1  0  0  0  0
 27  3  2  0  0  0  0
  5  4  1  0  0  0  0
  6  5  1  0  0  0  0
  7  6  1  0  0  0  0
  8  7  1  0  0  0  0
  9  8  1  0  0  0  0
 10  9  1  0  0  0  0
 11 10  1  0  0  0  0
 12 11  1  0  0  0  0
 13 12  1  0  0  0  0
 14 13  1  0  0  0  0
 15 14  1  0  0  0  0
 16 15  1  0  0  0  0
 17 16  1  0  0  0  0
 18 17  1  0  0  0  0
 19 18  1  0  0  0  0
 20 19  1  0  0  0  0
 21 20  1  0  0  0  0
 22 21  1  0  0  0  0
 23 22  1  0  0  0  0
 24 23  1  0  0  0  0
 25 24  1  0  0  0  0
 26 25  1  0  0  0  0
 27 26  1  0  0  0  0
M  END
>  <cdx:fragmentId>
5

$$$$
