75550.cdx
  Mrv1902 05222410232D          

 16 16  0  0  0  0            999 V2000
    7.1184   -7.1302    0.0000 C   0  0  0  0  0  0  0  0  0  0  0  0
    7.8328   -7.5427    0.0000 C   0  0  0  0  0  0  0  0  0  0  0  0
    7.8328   -8.3677    0.0000 C   0  0  0  0  0  0  0  0  0  0  0  0
    7.1184   -8.7802    0.0000 C   0  0  0  0  0  0  0  0  0  0  0  0
    6.4039   -8.3677    0.0000 C   0  0  0  0  0  0  0  0  0  0  0  0
    6.4039   -7.5427    0.0000 C   0  0  0  0  0  0  0  0  0  0  0  0
    7.1184   -6.3052    0.0000 O   0  0  0  0  0  0  0  0  0  0  0  0
    7.1184   -9.6052    0.0000 O   0  0  0  0  0  0  0  0  0  0  0  0
    5.6894   -7.1302    0.0000 C   0  0  0  0  0  0  0  0  0  0  0  0
    4.9750   -6.7177    0.0000 C   0  0  0  0  0  0  0  0  0  0  0  0
    8.5473   -7.1302    0.0000 C   0  0  0  0  0  0  0  0  0  0  0  0
    9.2618   -6.7177    0.0000 C   0  0  0  0  0  0  0  0  0  0  0  0
    6.1019   -6.4157    0.0000 C   0  0  0  0  0  0  0  0  0  0  0  0
    5.2769   -7.8446    0.0000 C   0  0  0  0  0  0  0  0  0  0  0  0
    8.1348   -6.4157    0.0000 C   0  0  0  0  0  0  0  0  0  0  0  0
    8.9598   -7.8446    0.0000 C   0  0  0  0  0  0  0  0  0  0  0  0
  1  2  1  0  0  0  0
  2  3  2  0  0  0  0
  3  4  1  0  0  0  0
  4  5  2  0  0  0  0
  5  6  1  0  0  0  0
  1  6  2  0  0  0  0
  1  7  1  0  0  0  0
  4  8  1  0  0  0  0
  9 10  1  0  0  0  0
  6  9  1  0  0  0  0
 11 12  1  0  0  0  0
  2 11  1  0  0  0  0
  9 13  1  0  0  0  0
  9 14  1  0  0  0  0
 11 15  1  0  0  0  0
 11 16  1  0  0  0  0
M  END
>  <cdx:fragmentId>
5

$$$$
