75552.cdx
  Mrv1902 05222410222D          

 10  9  0  0  0  0            999 V2000
    7.2080   -3.2046    0.0000 S   0  0  0  0  0  0  0  0  0  0  0  0
    7.9225   -2.7921    0.0000 S   0  0  0  0  0  0  0  0  0  0  0  0
    6.4935   -2.7921    0.0000 S   0  0  0  0  0  0  0  0  0  0  0  0
    8.6370   -3.2046    0.0000 S   0  0  0  0  0  0  0  0  0  0  0  0
    5.7791   -3.2046    0.0000 C   0  0  0  0  0  0  0  0  0  0  0  0
    5.0646   -2.7921    0.0000 C   0  0  0  0  0  0  0  0  0  0  0  0
    4.3501   -3.2046    0.0000 C   0  0  0  0  0  0  0  0  0  0  0  0
    9.3514   -2.7921    0.0000 C   0  0  0  0  0  0  0  0  0  0  0  0
   10.0659   -3.2046    0.0000 C   0  0  0  0  0  0  0  0  0  0  0  0
   10.7804   -2.7921    0.0000 C   0  0  0  0  0  0  0  0  0  0  0  0
  1  2  1  0  0  0  0
  1  3  1  0  0  0  0
  2  4  1  0  0  0  0
  5  6  1  0  0  0  0
  6  7  2  0  0  0  0
  3  5  1  0  0  0  0
  8  9  1  0  0  0  0
  9 10  2  0  0  0  0
  4  8  1  0  0  0  0
M  END
>  <cdx:groupId>
31

>  <cdx:fragmentId>
5

$$$$
