75554.cdx
  Mrv1902 05222410202D          

 11 10  0  0  0  0            999 V2000
    3.3932   -3.7752    0.0000 C   0  0  0  0  0  0  0  0  0  0  0  0
    2.6787   -4.1877    0.0000 C   0  0  0  0  0  0  0  0  0  0  0  0
    2.6787   -5.0127    0.0000 C   0  0  0  0  0  0  0  0  0  0  0  0
    3.3932   -2.9502    0.0000 O   0  0  0  0  0  0  0  0  0  0  0  0
    4.1077   -4.1877    0.0000 O   0  0  0  0  0  0  0  0  0  0  0  0
    1.9642   -3.7752    0.0000 C   0  0  0  0  0  0  0  0  0  0  0  0
    4.8221   -3.7752    0.0000 C   0  0  0  0  0  0  0  0  0  0  0  0
    5.5366   -4.1877    0.0000 C   0  0  0  0  0  0  0  0  0  0  0  0
    6.2511   -3.7752    0.0000 C   0  0  0  0  0  0  0  0  0  0  0  0
    6.9655   -4.1877    0.0000 C   0  0  0  0  0  0  0  0  0  0  0  0
    7.6800   -3.7752    0.0000 C   0  0  0  0  0  0  0  0  0  0  0  0
  1  2  1  0  0  0  0
  2  3  1  0  0  0  0
  1  4  2  0  0  0  0
  1  5  1  0  0  0  0
  2  6  1  0  0  0  0
  7  8  1  0  0  0  0
  8  9  1  0  0  0  0
  9 10  1  0  0  0  0
 10 11  1  0  0  0  0
  5  7  1  0  0  0  0
M  END
>  <cdx:groupId>
34

>  <cdx:fragmentId>
5

$$$$
