75581.cdx
  Mrv1902 05222410212D          

 10 11  0  0  0  0            999 V2000
    7.8161   -5.1686    0.0000 C   0  0  0  0  0  0  0  0  0  0  0  0
    8.3010   -5.8360    0.0000 C   0  0  0  0  0  0  0  0  0  0  0  0
    7.8161   -6.5034    0.0000 C   0  0  0  0  0  0  0  0  0  0  0  0
    7.0315   -6.2485    0.0000 C   0  0  0  0  0  0  0  0  0  0  0  0
    6.3170   -6.6610    0.0000 C   0  0  0  0  0  0  0  0  0  0  0  0
    5.6025   -6.2485    0.0000 C   0  0  0  0  0  0  0  0  0  0  0  0
    5.6025   -5.4235    0.0000 C   0  0  0  0  0  0  0  0  0  0  0  0
    6.3170   -5.0110    0.0000 C   0  0  0  0  0  0  0  0  0  0  0  0
    7.0315   -5.4235    0.0000 C   0  0  0  0  0  0  0  0  0  0  0  0
    8.0710   -4.3839    0.0000 C   0  0  0  0  0  0  0  0  0  0  0  0
  1  2  1  0  0  0  0
  2  3  2  0  0  0  0
  3  4  1  0  0  0  0
  4  5  1  0  0  0  0
  5  6  2  0  0  0  0
  6  7  1  0  0  0  0
  7  8  2  0  0  0  0
  8  9  1  0  0  0  0
  1  9  1  0  0  0  0
  4  9  2  0  0  0  0
  1 10  2  0  0  0  0
M  END
>  <cdx:groupId>
33

>  <cdx:fragmentId>
5

$$$$
