7559.cdx
  Mrv1902 05222410262D          

 11 11  0  0  0  0            999 V2000
    5.4369   -3.8717    0.0000 C   0  0  0  0  0  0  0  0  0  0  0  0
    4.7224   -4.2842    0.0000 C   0  0  0  0  0  0  0  0  0  0  0  0
    5.4369   -3.0467    0.0000 O   0  0  0  0  0  0  0  0  0  0  0  0
    6.1514   -4.2842    0.0000 O   0  0  0  0  0  0  0  0  0  0  0  0
    4.0080   -3.8717    0.0000 C   0  0  0  0  0  0  0  0  0  0  0  0
    4.0080   -3.0467    0.0000 C   0  0  0  0  0  0  0  0  0  0  0  0
    3.2935   -2.6342    0.0000 C   0  0  0  0  0  0  0  0  0  0  0  0
    2.5790   -3.0467    0.0000 C   0  0  0  0  0  0  0  0  0  0  0  0
    2.5790   -3.8717    0.0000 C   0  0  0  0  0  0  0  0  0  0  0  0
    3.2935   -4.2842    0.0000 C   0  0  0  0  0  0  0  0  0  0  0  0
    6.8659   -3.8717    0.0000 C   0  0  0  0  0  0  0  0  0  0  0  0
  1  2  1  0  0  0  0
  1  3  2  0  0  0  0
  1  4  1  0  0  0  0
  5  6  1  0  0  0  0
  6  7  2  0  0  0  0
  7  8  1  0  0  0  0
  8  9  2  0  0  0  0
  9 10  1  0  0  0  0
  5 10  2  0  0  0  0
  2  5  1  0  0  0  0
  4 11  1  0  0  0  0
M  END
>  <cdx:groupId>
35

>  <cdx:fragmentId>
13

$$$$
