75644.cdx
  Mrv1902 05222410202D          

  5  5  0  0  0  0            999 V2000
    2.9766   -3.7043    0.0000 C   0  0  0  0  0  0  0  0  0  0  0  0
    2.1516   -3.7043    0.0000 C   0  0  0  0  0  0  0  0  0  0  0  0
    2.5641   -2.9898    0.0000 C   0  0  0  0  0  0  0  0  0  0  0  0
    3.6911   -4.1168    0.0000 C   0  0  0  0  0  0  0  0  0  0  0  0
    4.4056   -3.7043    0.0000 O   0  0  0  0  0  0  0  0  0  0  0  0
  1  2  1  0  0  0  0
  2  3  1  0  0  0  0
  1  3  1  0  0  0  0
  4  5  1  0  0  0  0
  1  4  1  0  0  0  0
M  END
>  <cdx:groupId>
17

>  <cdx:fragmentId>
5

$$$$
