101756733.cdx
  Mrv1902 05222410272D          

 35 39  0  0  0  0            999 V2000
    9.0131  -10.8247    0.0000 C   0  0  1  0  0  0  0  0  0  0  0  0
    9.7275  -11.2372    0.0000 C   0  0  0  0  0  0  0  0  0  0  0  0
    9.7275  -12.0622    0.0000 C   0  0  0  0  0  0  0  0  0  0  0  0
    9.0131  -12.4747    0.0000 C   0  0  0  0  0  0  0  0  0  0  0  0
    8.2986  -12.0622    0.0000 C   0  0  1  0  0  0  0  0  0  0  0  0
    7.5841  -12.4747    0.0000 C   0  0  2  0  0  0  0  0  0  0  0  0
    7.5841  -13.2997    0.0000 C   0  0  0  0  0  0  0  0  0  0  0  0
    6.8696  -13.7122    0.0000 C   0  0  0  0  0  0  0  0  0  0  0  0
    6.1552  -13.2997    0.0000 C   0  0  1  0  0  0  0  0  0  0  0  0
    5.4407  -13.7122    0.0000 C   0  0  0  0  0  0  0  0  0  0  0  0
    4.7262  -13.2997    0.0000 C   0  0  0  0  0  0  0  0  0  0  0  0
    4.7262  -12.4747    0.0000 C   0  0  0  0  0  0  0  0  0  0  0  0
    5.4407  -12.0622    0.0000 C   0  0  0  0  0  0  0  0  0  0  0  0
    6.1552  -12.4747    0.0000 C   0  0  2  0  0  0  0  0  0  0  0  0
    6.8696  -12.0622    0.0000 C   0  0  1  0  0  0  0  0  0  0  0  0
    6.8696  -11.2372    0.0000 C   0  0  0  0  0  0  0  0  0  0  0  0
    7.5841  -10.8247    0.0000 C   0  0  0  0  0  0  0  0  0  0  0  0
    8.2986  -11.2372    0.0000 C   0  0  2  0  0  0  0  0  0  0  0  0
   10.3406  -10.6852    0.0000 C   0  0  0  0  0  0  0  0  0  0  0  0
   10.0051   -9.9315    0.0000 C   0  0  0  0  0  0  0  0  0  0  0  0
    9.1846  -10.0177    0.0000 C   0  0  0  0  0  0  0  0  0  0  0  0
    4.0118  -13.7122    0.0000 O   0  0  0  0  0  0  0  0  0  0  0  0
    8.8875   -8.6200    0.0000 C   0  0  0  0  0  0  0  0  0  0  0  0
    8.6325   -9.4046    0.0000 C   0  0  0  0  0  0  0  0  0  0  0  0
    7.8256   -9.5762    0.0000 C   0  0  0  0  0  0  0  0  0  0  0  0
    6.1552  -11.6497    0.0000 C   0  0  0  0  0  0  0  0  0  0  0  0
    5.8532  -14.4267    0.0000 C   0  0  0  0  0  0  0  0  0  0  0  0
    5.0282  -14.4267    0.0000 C   0  0  0  0  0  0  0  0  0  0  0  0
    7.5841  -11.6497    0.0000 C   0  0  0  0  0  0  0  0  0  0  0  0
    8.2986  -12.8872    0.0000 C   0  0  0  0  0  0  0  0  0  0  0  0
   10.4812  -11.5728    0.0000 C   0  0  0  0  0  0  0  0  0  0  0  0
    6.1552  -14.1247    0.0000 H   0  0  0  0  0  0  0  0  0  0  0  0
    6.8696  -12.8872    0.0000 H   0  0  0  0  0  0  0  0  0  0  0  0
    8.2986  -10.4122    0.0000 H   0  0  0  0  0  0  0  0  0  0  0  0
    9.0131  -11.6497    0.0000 H   0  0  0  0  0  0  0  0  0  0  0  0
  1  2  1  0  0  0  0
  2  3  1  0  0  0  0
  3  4  1  0  0  0  0
  4  5  1  0  0  0  0
  5  6  1  0  0  0  0
  6  7  1  0  0  0  0
  7  8  1  0  0  0  0
  8  9  1  0  0  0  0
  9 10  1  0  0  0  0
 10 11  1  0  0  0  0
 11 12  1  0  0  0  0
 12 13  1  0  0  0  0
 13 14  1  0  0  0  0
  9 14  1  0  0  0  0
 14 15  1  0  0  0  0
  6 15  1  0  0  0  0
 15 16  1  0  0  0  0
 16 17  1  0  0  0  0
 17 18  1  0  0  0  0
  5 18  1  0  0  0  0
  1 18  1  0  0  0  0
 19 20  1  0  0  0  0
 20 21  1  0  0  0  0
 21  1  1  0  0  0  0
 19  2  1  0  0  0  0
 11 22  2  0  0  0  0
 23 24  2  0  0  0  0
 24 25  1  0  0  0  0
 21 24  1  0  0  0  0
 14 26  1  1  0  0  0
 10 27  1  0  0  0  0
 10 28  1  0  0  0  0
  6 29  1  1  0  0  0
  5 30  1  6  0  0  0
  2 31  1  0  0  0  0
  9 32  1  6  0  0  0
 15 33  1  6  0  0  0
 18 34  1  1  0  0  0
  1 35  1  6  0  0  0
M  END
>  <cdx:groupId>
6397

>  <cdx:fragmentId>
6291

$$$$
