756929.cdx
  Mrv1902 05222410262D          

 24 25  0  0  0  0            999 V2000
    7.5381   -6.7265    0.0000 C   0  0  0  0  0  0  0  0  0  0  0  0
    8.2590   -7.1277    0.0000 C   0  0  0  0  0  0  0  0  0  0  0  0
    8.2721   -7.9525    0.0000 C   0  0  0  0  0  0  0  0  0  0  0  0
    7.5642   -8.3763    0.0000 C   0  0  0  0  0  0  0  0  0  0  0  0
    6.8042   -5.5005    0.0000 O   0  0  0  0  0  0  0  0  0  0  0  0
    8.9669   -6.7039    0.0000 C   0  0  0  0  0  0  0  0  0  0  0  0
    7.5773   -9.2012    0.0000 C   0  0  1  0  0  0  0  0  0  0  0  0
    8.2982   -9.6023    0.0000 C   0  0  0  0  0  0  0  0  0  0  0  0
    8.3113  -10.4272    0.0000 C   0  0  0  0  0  0  0  0  0  0  0  0
    7.6034  -10.8510    0.0000 C   0  0  0  0  0  0  0  0  0  0  0  0
    6.8825  -10.4499    0.0000 C   0  0  1  0  0  0  0  0  0  0  0  0
    6.1747  -10.8736    0.0000 C   0  0  2  0  0  0  0  0  0  0  0  0
    5.4537  -10.4725    0.0000 C   0  0  0  0  0  0  0  0  0  0  0  0
    5.4407   -9.6476    0.0000 C   0  0  0  0  0  0  0  0  0  0  0  0
    6.1485   -9.2238    0.0000 C   0  0  0  0  0  0  0  0  0  0  0  0
    6.8695   -9.6250    0.0000 C   0  0  2  0  0  0  0  0  0  0  0  0
    9.0061   -9.1786    0.0000 C   0  0  0  0  0  0  0  0  0  0  0  0
    6.8564   -8.8001    0.0000 C   0  0  0  0  0  0  0  0  0  0  0  0
    5.7735  -11.5945    0.0000 C   0  0  0  0  0  0  0  0  0  0  0  0
    6.5984  -11.5815    0.0000 C   0  0  0  0  0  0  0  0  0  0  0  0
    6.8956  -11.2748    0.0000 H   0  0  0  0  0  0  0  0  0  0  0  0
    8.2329   -5.4779    0.0000 O   0  0  0  0  0  0  0  0  0  0  0  0
    7.5251   -5.9016    0.0000 C   0  0  0  0  0  0  0  0  0  0  0  0
    8.2918   -8.7887    0.0000 H   0  0  0  0  0  0  0  0  0  0  0  0
 23  5  1  0  0  0  0
 23 22  2  0  0  0  0
 23  1  1  0  0  0  0
  1  2  1  0  0  0  0
  2  3  2  0  0  0  0
  3  4  1  0  0  0  0
  2  6  1  0  0  0  0
  7  8  1  0  0  0  0
  8  9  1  0  0  0  0
  9 10  1  0  0  0  0
 10 11  1  0  0  0  0
 11 12  1  0  0  0  0
 12 13  1  0  0  0  0
 13 14  1  0  0  0  0
 14 15  1  0  0  0  0
 15 16  1  0  0  0  0
  7 16  1  0  0  0  0
 11 16  1  0  0  0  0
  8 17  2  0  0  0  0
 16 18  1  1  0  0  0
 12 19  1  1  0  0  0
 12 20  1  6  0  0  0
  7  4  1  0  0  0  0
 11 21  1  6  0  0  0
  7 24  1  6  0  0  0
M  END
>  <cdx:groupId>
59150

>  <cdx:fragmentId>
59099

$$$$
