757.cdx
  Mrv1902 05222410232D          

  5  4  0  0  0  0            999 V2000
    3.8594   -2.3383    0.0000 C   0  0  0  0  0  0  0  0  0  0  0  0
    3.1449   -2.7508    0.0000 C   0  0  0  0  0  0  0  0  0  0  0  0
    3.8594   -1.5133    0.0000 O   0  0  0  0  0  0  0  0  0  0  0  0
    4.5738   -2.7508    0.0000 O   0  0  0  0  0  0  0  0  0  0  0  0
    2.4304   -2.3383    0.0000 O   0  0  0  0  0  0  0  0  0  0  0  0
  1  2  1  0  0  0  0
  1  3  2  0  0  0  0
  1  4  1  0  0  0  0
  2  5  1  0  0  0  0
M  END
>  <cdx:groupId>
16

>  <cdx:fragmentId>
5

$$$$
