757003.cdx
  Mrv1902 05222410262D          

 14 13  0  0  0  0            999 V2000
    3.9464   -8.1054    0.0000 C   0  0  0  0  0  0  0  0  0  0  0  0
    4.6625   -8.5149    0.0000 C   0  0  0  0  0  0  0  0  0  0  0  0
    5.3753   -8.0995    0.0000 C   0  0  0  0  0  0  0  0  0  0  0  0
    6.0915   -8.5090    0.0000 C   0  0  0  0  0  0  0  0  0  0  0  0
    6.8042   -8.0936    0.0000 C   0  0  0  0  0  0  0  0  0  0  0  0
    7.5204   -8.5032    0.0000 C   0  0  0  0  0  0  0  0  0  0  0  0
    8.2332   -8.0877    0.0000 C   0  0  0  0  0  0  0  0  0  0  0  0
    8.9493   -8.4973    0.0000 C   0  0  0  0  0  0  0  0  0  0  0  0
    9.6621   -8.0818    0.0000 C   0  0  0  0  0  0  0  0  0  0  0  0
   10.3783   -8.4914    0.0000 C   0  0  0  0  0  0  0  0  0  0  0  0
   10.3817   -9.3164    0.0000 C   0  0  0  0  0  0  0  0  0  0  0  0
    4.6659   -9.3399    0.0000 O   0  0  0  0  0  0  0  0  0  0  0  0
   11.0910   -8.0759    0.0000 C   0  0  0  0  0  0  0  0  0  0  0  0
    7.5238   -9.3281    0.0000 C   0  0  0  0  0  0  0  0  0  0  0  0
  1  2  1  0  0  0  0
  2  3  1  0  0  0  0
  3  4  2  0  0  0  0
  4  5  1  0  0  0  0
  5  6  2  0  0  0  0
  6  7  1  0  0  0  0
  7  8  1  0  0  0  0
  8  9  1  0  0  0  0
  9 10  2  0  0  0  0
 10 11  1  0  0  0  0
  2 12  2  0  0  0  0
 10 13  1  0  0  0  0
  6 14  1  0  0  0  0
M  END
>  <cdx:fragmentId>
17179

$$$$
