75704.cdx
  Mrv1902 05222410282D          

 12 11  0  0  0  0            999 V2000
   10.6281   -5.9469    0.0000 O   0  0  0  0  0  0  0  0  0  0  0  0
    3.4834   -5.9469    0.0000 O   0  0  0  0  0  0  0  0  0  0  0  0
    4.1979   -4.7094    0.0000 O   0  0  0  0  0  0  0  0  0  0  0  0
    9.9137   -5.5344    0.0000 C   0  0  0  0  0  0  0  0  0  0  0  0
    9.1992   -5.9469    0.0000 C   0  0  0  0  0  0  0  0  0  0  0  0
    8.4847   -5.5344    0.0000 C   0  0  0  0  0  0  0  0  0  0  0  0
    7.7703   -5.9469    0.0000 C   0  0  0  0  0  0  0  0  0  0  0  0
    7.0558   -5.5344    0.0000 C   0  0  0  0  0  0  0  0  0  0  0  0
    6.3413   -5.9469    0.0000 C   0  0  0  0  0  0  0  0  0  0  0  0
    5.6268   -5.5344    0.0000 C   0  0  0  0  0  0  0  0  0  0  0  0
    4.9124   -5.9469    0.0000 C   0  0  0  0  0  0  0  0  0  0  0  0
    4.1979   -5.5344    0.0000 C   0  0  0  0  0  0  0  0  0  0  0  0
  4  1  2  0  0  0  0
 12  2  1  0  0  0  0
 12  3  2  0  0  0  0
  5  4  1  0  0  0  0
  6  5  1  0  0  0  0
  7  6  1  0  0  0  0
  8  7  1  0  0  0  0
  9  8  1  0  0  0  0
 10  9  1  0  0  0  0
 11 10  1  0  0  0  0
 12 11  1  0  0  0  0
M  END
>  <cdx:groupId>
37

>  <cdx:fragmentId>
5

$$$$
