757979.cdx
  Mrv1902 05222410272D          

 17 16  0  0  0  0            999 V2000
    2.1536   -7.8626    0.0000 C   0  0  0  0  0  0  0  0  0  0  0  0
   12.1562   -8.6876    0.0000 C   0  0  0  0  0  0  0  0  0  0  0  0
   11.4417   -9.1001    0.0000 C   0  0  0  0  0  0  0  0  0  0  0  0
   10.7272   -8.6876    0.0000 C   0  0  0  0  0  0  0  0  0  0  0  0
   10.0128   -9.1001    0.0000 C   0  0  0  0  0  0  0  0  0  0  0  0
    9.2983   -8.6876    0.0000 C   0  0  0  0  0  0  0  0  0  0  0  0
    8.5838   -9.1001    0.0000 C   0  0  0  0  0  0  0  0  0  0  0  0
    7.8694   -8.6876    0.0000 C   0  0  0  0  0  0  0  0  0  0  0  0
    7.1549   -9.1001    0.0000 C   0  0  0  0  0  0  0  0  0  0  0  0
    6.4404   -8.6876    0.0000 C   0  0  0  0  0  0  0  0  0  0  0  0
    5.7259   -9.1001    0.0000 C   0  0  0  0  0  0  0  0  0  0  0  0
    5.0115   -8.6876    0.0000 C   0  0  0  0  0  0  0  0  0  0  0  0
    4.2970   -9.1001    0.0000 C   0  0  0  0  0  0  0  0  0  0  0  0
    3.5825   -8.6876    0.0000 C   0  0  0  0  0  0  0  0  0  0  0  0
    2.8681   -9.1001    0.0000 C   0  0  0  0  0  0  0  0  0  0  0  0
    2.1536   -8.6876    0.0000 C   0  0  0  0  0  0  0  0  0  0  0  0
    1.4391   -9.1001    0.0000 C   0  0  0  0  0  0  0  0  0  0  0  0
 16  1  1  0  0  0  0
  3  2  1  0  0  0  0
  4  3  1  0  0  0  0
  5  4  1  0  0  0  0
  6  5  1  0  0  0  0
  7  6  1  0  0  0  0
  8  7  1  0  0  0  0
  9  8  1  0  0  0  0
 10  9  1  0  0  0  0
 11 10  1  0  0  0  0
 12 11  1  0  0  0  0
 13 12  1  0  0  0  0
 14 13  1  0  0  0  0
 15 14  1  0  0  0  0
 16 15  1  0  0  0  0
 17 16  1  0  0  0  0
M  END
>  <cdx:fragmentId>
59160

$$$$
