758.cdx
  Mrv1902 05222410222D          

 45 48  0  0  0  0            999 V2000
   13.3680   -7.6615    0.0000 O   0  0  0  0  0  0  0  0  0  0  0  0
   13.3680   -9.3115    0.0000 O   0  0  0  0  0  0  0  0  0  0  0  0
   11.2245   -8.8990    0.0000 C   0  0  0  0  0  0  0  0  0  0  0  0
   11.9390   -9.3115    0.0000 C   0  0  0  0  0  0  0  0  0  0  0  0
   12.6535   -8.8990    0.0000 C   0  0  0  0  0  0  0  0  0  0  0  0
   12.6535   -8.0740    0.0000 C   0  0  0  0  0  0  0  0  0  0  0  0
   11.9390   -7.6615    0.0000 C   0  0  0  0  0  0  0  0  0  0  0  0
   11.2245   -8.0740    0.0000 C   0  0  0  0  0  0  0  0  0  0  0  0
   10.5101   -6.8365    0.0000 O   0  0  0  0  0  0  0  0  0  0  0  0
   10.5101   -7.6615    0.0000 C   0  0  0  0  0  0  0  0  0  0  0  0
    9.7956   -8.0740    0.0000 C   0  0  0  0  0  0  0  0  0  0  0  0
    9.0811   -7.6615    0.0000 O   0  0  0  0  0  0  0  0  0  0  0  0
    9.0811   -9.3115    0.0000 O   0  0  0  0  0  0  0  0  0  0  0  0
    6.2232   -6.8365    0.0000 O   0  0  0  0  0  0  0  0  0  0  0  0
    6.2232   -7.6615    0.0000 C   0  0  0  0  0  0  0  0  0  0  0  0
    7.6522  -11.7865    0.0000 O   0  0  0  0  0  0  0  0  0  0  0  0
    6.2232  -12.6115    0.0000 O   0  0  0  0  0  0  0  0  0  0  0  0
    4.7943  -11.7865    0.0000 O   0  0  0  0  0  0  0  0  0  0  0  0
    4.7943  -10.1365    0.0000 C   0  0  0  0  0  0  0  0  0  0  0  0
    5.5088  -10.5490    0.0000 C   0  0  1  0  0  0  0  0  0  0  0  0
    5.5088  -11.3740    0.0000 C   0  0  1  0  0  0  0  0  0  0  0  0
    6.2232  -11.7865    0.0000 C   0  0  2  0  0  0  0  0  0  0  0  0
    6.9377  -11.3740    0.0000 C   0  0  2  0  0  0  0  0  0  0  0  0
    6.9377  -10.5490    0.0000 C   0  0  1  0  0  0  0  0  0  0  0  0
    6.2232  -10.1365    0.0000 O   0  0  0  0  0  0  0  0  0  0  0  0
    7.6522  -10.1365    0.0000 O   0  0  0  0  0  0  0  0  0  0  0  0
    8.3667   -8.0740    0.0000 C   0  0  1  0  0  0  0  0  0  0  0  0
    8.3667   -8.8990    0.0000 C   0  0  1  0  0  0  0  0  0  0  0  0
    7.6522   -9.3115    0.0000 C   0  0  2  0  0  0  0  0  0  0  0  0
    6.9377   -8.8990    0.0000 C   0  0  1  0  0  0  0  0  0  0  0  0
    6.9377   -8.0740    0.0000 C   0  0  2  0  0  0  0  0  0  0  0  0
    7.6522   -7.6615    0.0000 O   0  0  0  0  0  0  0  0  0  0  0  0
    1.2219   -8.8990    0.0000 O   0  0  0  0  0  0  0  0  0  0  0  0
    1.2219  -10.5490    0.0000 O   0  0  0  0  0  0  0  0  0  0  0  0
    3.3654  -10.1365    0.0000 C   0  0  0  0  0  0  0  0  0  0  0  0
    2.6509  -10.5490    0.0000 C   0  0  0  0  0  0  0  0  0  0  0  0
    1.9364  -10.1365    0.0000 C   0  0  0  0  0  0  0  0  0  0  0  0
    1.9364   -9.3115    0.0000 C   0  0  0  0  0  0  0  0  0  0  0  0
    2.6509   -8.8990    0.0000 C   0  0  0  0  0  0  0  0  0  0  0  0
    3.3654   -9.3115    0.0000 C   0  0  0  0  0  0  0  0  0  0  0  0
    6.2232   -9.3115    0.0000 O   0  0  0  0  0  0  0  0  0  0  0  0
    5.5088   -8.0740    0.0000 O   0  0  0  0  0  0  0  0  0  0  0  0
    4.0798   -8.8990    0.0000 C   0  0  0  0  0  0  0  0  0  0  0  0
    4.7943   -9.3115    0.0000 C   0  0  0  0  0  0  0  0  0  0  0  0
    5.5088   -8.8990    0.0000 C   0  0  0  0  0  0  0  0  0  0  0  0
 30 41  1  6  0  0  0
 27 12  1  1  0  0  0
 10  8  1  0  0  0  0
  6  1  1  0  0  0  0
  5  2  1  0  0  0  0
  8  3  2  0  0  0  0
  4  3  1  0  0  0  0
  5  4  2  0  0  0  0
  6  5  1  0  0  0  0
  7  6  2  0  0  0  0
  8  7  1  0  0  0  0
 10  9  1  0  0  0  0
 12 11  1  0  0  0  0
 11 10  1  0  0  0  0
 28 13  1  6  0  0  0
 31 15  1  1  0  0  0
 15 14  1  0  0  0  0
 29 26  1  1  0  0  0
 24 26  1  1  0  0  0
 23 16  1  6  0  0  0
 22 17  1  6  0  0  0
 21 18  1  1  0  0  0
 20 19  1  6  0  0  0
 25 20  1  0  0  0  0
 21 20  1  0  0  0  0
 22 21  1  0  0  0  0
 23 22  1  0  0  0  0
 24 23  1  0  0  0  0
 25 24  1  0  0  0  0
 32 27  1  0  0  0  0
 28 27  1  0  0  0  0
 29 28  1  0  0  0  0
 30 29  1  0  0  0  0
 31 30  1  0  0  0  0
 32 31  1  0  0  0  0
 43 40  1  0  0  0  0
 38 33  1  0  0  0  0
 37 34  1  0  0  0  0
 40 35  2  0  0  0  0
 36 35  1  0  0  0  0
 37 36  2  0  0  0  0
 38 37  1  0  0  0  0
 39 38  2  0  0  0  0
 40 39  1  0  0  0  0
 45 41  1  0  0  0  0
 45 42  2  0  0  0  0
 44 43  2  0  0  0  0
 45 44  1  0  0  0  0
M  END
>  <cdx:fragmentId>
45

$$$$
