7583.cdx
  Mrv1902 05222410202D          

 13 14  0  0  0  0            999 V2000
    7.1956   -7.6868    0.0000 O   0  0  0  0  0  0  0  0  0  0  0  0
    6.4812   -8.0993    0.0000 C   0  0  0  0  0  0  0  0  0  0  0  0
    6.4812   -8.9243    0.0000 C   0  0  0  0  0  0  0  0  0  0  0  0
    5.7667   -9.3368    0.0000 C   0  0  0  0  0  0  0  0  0  0  0  0
    5.0522   -8.9243    0.0000 C   0  0  0  0  0  0  0  0  0  0  0  0
    5.0522   -8.0993    0.0000 C   0  0  0  0  0  0  0  0  0  0  0  0
    5.7667   -7.6868    0.0000 C   0  0  0  0  0  0  0  0  0  0  0  0
    7.9101   -8.0993    0.0000 C   0  0  0  0  0  0  0  0  0  0  0  0
    8.6246   -7.6868    0.0000 C   0  0  0  0  0  0  0  0  0  0  0  0
    9.3391   -8.0993    0.0000 C   0  0  0  0  0  0  0  0  0  0  0  0
    9.3391   -8.9243    0.0000 C   0  0  0  0  0  0  0  0  0  0  0  0
    8.6246   -9.3368    0.0000 C   0  0  0  0  0  0  0  0  0  0  0  0
    7.9101   -8.9243    0.0000 C   0  0  0  0  0  0  0  0  0  0  0  0
  2  3  1  0  0  0  0
  3  4  2  0  0  0  0
  4  5  1  0  0  0  0
  5  6  2  0  0  0  0
  6  7  1  0  0  0  0
  2  7  2  0  0  0  0
  1  2  1  0  0  0  0
  8  9  1  0  0  0  0
  9 10  2  0  0  0  0
 10 11  1  0  0  0  0
 11 12  2  0  0  0  0
 12 13  1  0  0  0  0
  8 13  2  0  0  0  0
  1  8  1  0  0  0  0
M  END
>  <cdx:fragmentId>
7

$$$$
