19758456.cdx
  Mrv1902 05222410262D          

  9  9  0  0  0  0            999 V2000
    8.6114  -15.0639    0.0000 C   0  0  0  0  0  0  0  0  0  0  0  0
    7.8970  -15.4764    0.0000 C   0  0  0  0  0  0  0  0  0  0  0  0
    7.1825  -15.0639    0.0000 C   0  0  0  0  0  0  0  0  0  0  0  0
    6.4680  -15.4764    0.0000 C   0  0  0  0  0  0  0  0  0  0  0  0
    8.6114  -14.2389    0.0000 O   0  0  0  0  0  0  0  0  0  0  0  0
    9.3259  -15.4764    0.0000 O   0  0  0  0  0  0  0  0  0  0  0  0
    5.7536  -15.0639    0.0000 C   0  0  0  0  0  0  0  0  0  0  0  0
    4.9286  -15.0639    0.0000 C   0  0  0  0  0  0  0  0  0  0  0  0
    5.3411  -14.3495    0.0000 C   0  0  0  0  0  0  0  0  0  0  0  0
  1  2  1  0  0  0  0
  2  3  1  0  0  0  0
  3  4  1  0  0  0  0
  1  5  2  0  0  0  0
  1  6  1  0  0  0  0
  7  8  1  0  0  0  0
  8  9  1  0  0  0  0
  7  9  1  0  0  0  0
  4  7  1  0  0  0  0
M  END
>  <cdx:groupId>
124657

>  <cdx:fragmentId>
124633

$$$$
