7589.cdx
  Mrv1902 05222410272D          

 20 22  0  0  0  0            999 V2000
    4.3470   -8.3689    0.0000 C   0  0  0  0  0  0  0  0  0  0  0  0
    4.3568   -7.5439    0.0000 C   0  0  0  0  0  0  0  0  0  0  0  0
    5.0565   -8.7899    0.0000 C   0  0  0  0  0  0  0  0  0  0  0  0
    5.7758   -8.3860    0.0000 C   0  0  0  0  0  0  0  0  0  0  0  0
    5.7857   -7.5610    0.0000 C   0  0  0  0  0  0  0  0  0  0  0  0
    5.0762   -7.1400    0.0000 C   0  0  0  0  0  0  0  0  0  0  0  0
    6.4853   -8.8070    0.0000 C   0  0  0  0  0  0  0  0  0  0  0  0
    7.2047   -8.4030    0.0000 C   0  0  0  0  0  0  0  0  0  0  0  0
    7.2145   -7.5781    0.0000 C   0  0  0  0  0  0  0  0  0  0  0  0
    6.5050   -7.1571    0.0000 C   0  0  0  0  0  0  0  0  0  0  0  0
    7.9141   -8.8240    0.0000 C   0  0  0  0  0  0  0  0  0  0  0  0
    8.6335   -8.4201    0.0000 C   0  0  0  0  0  0  0  0  0  0  0  0
    8.6434   -7.5952    0.0000 C   0  0  0  0  0  0  0  0  0  0  0  0
    7.9339   -7.1742    0.0000 C   0  0  0  0  0  0  0  0  0  0  0  0
    9.3430   -8.8411    0.0000 C   0  0  0  0  0  0  0  0  0  0  0  0
    6.4754   -9.6319    0.0000 O   0  0  0  0  0  0  0  0  0  0  0  0
    6.5149   -6.3321    0.0000 O   0  0  0  0  0  0  0  0  0  0  0  0
    5.0762   -6.3150    0.0000 O   0  0  0  0  0  0  0  0  0  0  0  0
    7.9339   -6.3492    0.0000 O   0  0  0  0  0  0  0  0  0  0  0  0
   10.0575   -8.4286    0.0000 O   0  0  0  0  0  0  0  0  0  0  0  0
  1  2  2  0  0  0  0
  1  3  1  0  0  0  0
  3  4  2  0  0  0  0
  4  5  1  0  0  0  0
  5  6  2  0  0  0  0
  6  2  1  0  0  0  0
  4  7  1  0  0  0  0
  7  8  1  0  0  0  0
  8  9  2  0  0  0  0
  9 10  1  0  0  0  0
 10  5  1  0  0  0  0
  8 11  1  0  0  0  0
 11 12  2  0  0  0  0
 12 13  1  0  0  0  0
 13 14  2  0  0  0  0
 14  9  1  0  0  0  0
 12 15  1  0  0  0  0
  7 16  2  0  0  0  0
 10 17  2  0  0  0  0
  6 18  1  0  0  0  0
 14 19  1  0  0  0  0
 15 20  1  0  0  0  0
M  END
>  <cdx:fragmentId>
5

$$$$
