7590.cdx
  Mrv1902 05222410192D          

 12 12  0  0  0  0            999 V2000
    7.7403   -5.8517    0.0000 C   0  0  0  0  0  0  0  0  0  0  0  0
    7.0258   -6.2642    0.0000 C   0  0  0  0  0  0  0  0  0  0  0  0
    7.7403   -5.0267    0.0000 O   0  0  0  0  0  0  0  0  0  0  0  0
    8.4548   -6.2642    0.0000 O   0  0  0  0  0  0  0  0  0  0  0  0
    6.3114   -5.8517    0.0000 C   0  0  0  0  0  0  0  0  0  0  0  0
    6.3114   -5.0267    0.0000 C   0  0  0  0  0  0  0  0  0  0  0  0
    5.5969   -4.6142    0.0000 C   0  0  0  0  0  0  0  0  0  0  0  0
    4.8824   -5.0267    0.0000 C   0  0  0  0  0  0  0  0  0  0  0  0
    4.8824   -5.8517    0.0000 C   0  0  0  0  0  0  0  0  0  0  0  0
    5.5969   -6.2642    0.0000 C   0  0  0  0  0  0  0  0  0  0  0  0
    9.1692   -5.8517    0.0000 C   0  0  0  0  0  0  0  0  0  0  0  0
    9.8837   -6.2642    0.0000 C   0  0  0  0  0  0  0  0  0  0  0  0
  1  2  1  0  0  0  0
  1  3  2  0  0  0  0
  1  4  1  0  0  0  0
  5  6  1  0  0  0  0
  6  7  2  0  0  0  0
  7  8  1  0  0  0  0
  8  9  2  0  0  0  0
  9 10  1  0  0  0  0
  5 10  2  0  0  0  0
  2  5  1  0  0  0  0
 11 12  1  0  0  0  0
  4 11  1  0  0  0  0
M  END
>  <cdx:fragmentId>
13

$$$$
