759302.cdx
  Mrv1902 05222410252D          

 18 20  0  0  0  0            999 V2000
    9.0000   -5.5100    0.0000 C   0  0  0  0  0  0  0  0  0  0  0  0
    9.7145   -5.9225    0.0000 C   0  0  0  0  0  0  0  0  0  0  0  0
    9.7145   -6.7475    0.0000 C   0  0  0  0  0  0  0  0  0  0  0  0
    9.0000   -7.1600    0.0000 C   0  0  0  0  0  0  0  0  0  0  0  0
    9.0000   -7.9850    0.0000 C   0  0  0  0  0  0  0  0  0  0  0  0
    8.2855   -8.3975    0.0000 C   0  0  0  0  0  0  0  0  0  0  0  0
    7.5710   -7.9850    0.0000 C   0  0  0  0  0  0  0  0  0  0  0  0
    7.5710   -7.1600    0.0000 C   0  0  0  0  0  0  0  0  0  0  0  0
    8.2855   -6.7475    0.0000 C   0  0  0  0  0  0  0  0  0  0  0  0
    8.2855   -5.9225    0.0000 O   0  0  0  0  0  0  0  0  0  0  0  0
    6.8566   -6.7475    0.0000 C   0  0  0  0  0  0  0  0  0  0  0  0
    6.1421   -7.1600    0.0000 C   0  0  2  0  0  0  0  0  0  0  0  0
    6.1421   -7.9850    0.0000 C   0  0  0  0  0  0  0  0  0  0  0  0
    6.8566   -8.3975    0.0000 O   0  0  0  0  0  0  0  0  0  0  0  0
    9.0000   -4.6850    0.0000 O   0  0  0  0  0  0  0  0  0  0  0  0
    5.7296   -8.6995    0.0000 C   0  0  0  0  0  0  0  0  0  0  0  0
    5.3171   -7.9850    0.0000 C   0  0  0  0  0  0  0  0  0  0  0  0
    5.4276   -6.7475    0.0000 O   0  0  0  0  0  0  0  0  0  0  0  0
  1  2  1  0  0  0  0
  2  3  2  0  0  0  0
  3  4  1  0  0  0  0
  4  5  1  0  0  0  0
  5  6  2  0  0  0  0
  6  7  1  0  0  0  0
  7  8  2  0  0  0  0
  8  9  1  0  0  0  0
  4  9  2  0  0  0  0
  9 10  1  0  0  0  0
  1 10  1  0  0  0  0
 11 12  1  0  0  0  0
 12 13  1  0  0  0  0
 13 14  1  0  0  0  0
 14  7  1  0  0  0  0
 11  8  1  0  0  0  0
  1 15  2  0  0  0  0
 13 16  1  0  0  0  0
 13 17  1  0  0  0  0
 12 18  1  6  0  0  0
M  END
>  <cdx:groupId>
58

>  <cdx:fragmentId>
5

$$$$
