102000760.cdx
  Mrv1902 05222410212D          

 46 49  0  0  0  0            999 V2000
    5.6651  -15.8642    0.0000 C   0  0  0  0  0  0  0  0  0  0  0  0
    4.9506  -15.4517    0.0000 C   0  0  0  0  0  0  0  0  0  0  0  0
    4.2361  -15.8642    0.0000 C   0  0  0  0  0  0  0  0  0  0  0  0
    5.6651  -16.6892    0.0000 O   0  0  0  0  0  0  0  0  0  0  0  0
    6.3795  -15.4517    0.0000 O   0  0  0  0  0  0  0  0  0  0  0  0
    3.5217  -15.4517    0.0000 C   0  0  0  0  0  0  0  0  0  0  0  0
    2.8072  -15.8642    0.0000 C   0  0  0  0  0  0  0  0  0  0  0  0
    2.0927  -15.4517    0.0000 C   0  0  0  0  0  0  0  0  0  0  0  0
    2.0927  -14.6267    0.0000 C   0  0  0  0  0  0  0  0  0  0  0  0
    2.8072  -14.2142    0.0000 C   0  0  0  0  0  0  0  0  0  0  0  0
    3.5217  -14.6267    0.0000 C   0  0  0  0  0  0  0  0  0  0  0  0
    1.3782  -15.8642    0.0000 O   0  0  0  0  0  0  0  0  0  0  0  0
    0.6638  -15.4517    0.0000 C   0  0  0  0  0  0  0  0  0  0  0  0
    1.3782  -14.2142    0.0000 O   0  0  0  0  0  0  0  0  0  0  0  0
    7.8085  -17.1017    0.0000 O   0  0  0  0  0  0  0  0  0  0  0  0
    7.0940  -16.6892    0.0000 C   0  0  1  0  0  0  0  0  0  0  0  0
    7.0940  -15.8642    0.0000 C   0  0  2  0  0  0  0  0  0  0  0  0
    7.8085  -15.4517    0.0000 C   0  0  1  0  0  0  0  0  0  0  0  0
    8.5230  -15.8642    0.0000 C   0  0  2  0  0  0  0  0  0  0  0  0
    8.5230  -16.6892    0.0000 C   0  0  2  0  0  0  0  0  0  0  0  0
    7.8085  -14.6267    0.0000 O   0  0  0  0  0  0  0  0  0  0  0  0
    6.3795  -14.6267    0.0000 O   0  0  0  0  0  0  0  0  0  0  0  0
    7.0940  -14.2142    0.0000 C   0  0  2  0  0  0  0  0  0  0  0  0
    7.0940  -13.3892    0.0000 C   0  0  1  0  0  0  0  0  0  0  0  0
    6.3795  -12.9767    0.0000 C   0  0  1  0  0  0  0  0  0  0  0  0
    5.6651  -13.3892    0.0000 C   0  0  2  0  0  0  0  0  0  0  0  0
    5.6651  -14.2142    0.0000 C   0  0  2  0  0  0  0  0  0  0  0  0
    4.9506  -14.6267    0.0000 C   0  0  0  0  0  0  0  0  0  0  0  0
    4.9506  -12.9767    0.0000 O   0  0  0  0  0  0  0  0  0  0  0  0
    6.3795  -12.1517    0.0000 O   0  0  0  0  0  0  0  0  0  0  0  0
    7.8085  -12.9767    0.0000 O   0  0  0  0  0  0  0  0  0  0  0  0
    6.3795  -17.1017    0.0000 C   0  0  0  0  0  0  0  0  0  0  0  0
    6.3795  -17.9267    0.0000 O   0  0  0  0  0  0  0  0  0  0  0  0
    9.2374  -15.4517    0.0000 O   0  0  0  0  0  0  0  0  0  0  0  0
    9.2374  -17.1017    0.0000 O   0  0  0  0  0  0  0  0  0  0  0  0
    9.9519  -16.6892    0.0000 C   0  0  0  0  0  0  0  0  0  0  0  0
   10.6664  -17.1017    0.0000 C   0  0  0  0  0  0  0  0  0  0  0  0
   10.6664  -17.9267    0.0000 O   0  0  0  0  0  0  0  0  0  0  0  0
   11.3808  -16.6892    0.0000 C   0  0  0  0  0  0  0  0  0  0  0  0
   12.0953  -17.1017    0.0000 C   0  0  0  0  0  0  0  0  0  0  0  0
   12.8098  -16.6892    0.0000 C   0  0  0  0  0  0  0  0  0  0  0  0
   12.8098  -15.8642    0.0000 C   0  0  0  0  0  0  0  0  0  0  0  0
   12.0953  -15.4517    0.0000 C   0  0  0  0  0  0  0  0  0  0  0  0
   11.3808  -15.8642    0.0000 C   0  0  0  0  0  0  0  0  0  0  0  0
   13.5243  -15.4517    0.0000 O   0  0  0  0  0  0  0  0  0  0  0  0
   13.5243  -17.1017    0.0000 O   0  0  0  0  0  0  0  0  0  0  0  0
  1  2  1  0  0  0  0
  2  3  2  0  0  0  0
  1  4  2  0  0  0  0
  1  5  1  0  0  0  0
  6  7  1  0  0  0  0
  7  8  2  0  0  0  0
  8  9  1  0  0  0  0
  9 10  2  0  0  0  0
 10 11  1  0  0  0  0
  6 11  2  0  0  0  0
 12 13  1  0  0  0  0
  8 12  1  0  0  0  0
  9 14  1  0  0  0  0
  3  6  1  0  0  0  0
 15 16  1  0  0  0  0
 16 17  1  0  0  0  0
 17 18  1  0  0  0  0
 18 19  1  0  0  0  0
 19 20  1  0  0  0  0
 15 20  1  0  0  0  0
 22 23  1  0  0  0  0
 23 24  1  0  0  0  0
 24 25  1  0  0  0  0
 25 26  1  0  0  0  0
 26 27  1  0  0  0  0
 22 27  1  0  0  0  0
 27 28  1  1  0  0  0
 26 29  1  6  0  0  0
 25 30  1  1  0  0  0
 24 31  1  1  0  0  0
 23 21  1  6  0  0  0
 18 21  1  6  0  0  0
 32 33  1  0  0  0  0
 16 32  1  6  0  0  0
 19 34  1  1  0  0  0
 36 37  1  0  0  0  0
 35 36  1  0  0  0  0
 37 38  1  0  0  0  0
 39 40  1  0  0  0  0
 40 41  2  0  0  0  0
 41 42  1  0  0  0  0
 42 43  2  0  0  0  0
 43 44  1  0  0  0  0
 39 44  2  0  0  0  0
 42 45  1  0  0  0  0
 41 46  1  0  0  0  0
 37 39  1  0  0  0  0
 20 35  1  6  0  0  0
 17  5  1  1  0  0  0
M  END
>  <cdx:groupId>
10655

>  <cdx:fragmentId>
10559

$$$$
