760075.cdx
  Mrv1902 05222410192D          

 42 46  0  0  0  0            999 V2000
    8.4167  -11.6091    0.0000 O   0  0  0  0  0  0  0  0  0  0  0  0
   14.1325   -8.3091    0.0000 C   0  0  0  0  0  0  0  0  0  0  0  0
   13.4180   -7.8966    0.0000 O   0  0  0  0  0  0  0  0  0  0  0  0
   11.2746   -8.3091    0.0000 C   0  0  0  0  0  0  0  0  0  0  0  0
   11.9890   -7.8966    0.0000 C   0  0  0  0  0  0  0  0  0  0  0  0
   12.7035   -8.3091    0.0000 C   0  0  0  0  0  0  0  0  0  0  0  0
   12.7035   -9.1341    0.0000 C   0  0  0  0  0  0  0  0  0  0  0  0
   11.9890   -9.5466    0.0000 C   0  0  0  0  0  0  0  0  0  0  0  0
   11.2746   -9.1341    0.0000 C   0  0  0  0  0  0  0  0  0  0  0  0
    6.9878  -10.7841    0.0000 O   0  0  0  0  0  0  0  0  0  0  0  0
    5.5588  -11.6091    0.0000 O   0  0  0  0  0  0  0  0  0  0  0  0
    4.1299  -10.7841    0.0000 O   0  0  0  0  0  0  0  0  0  0  0  0
    3.4154   -7.8966    0.0000 O   0  0  0  0  0  0  0  0  0  0  0  0
    1.9865   -7.0716    0.0000 O   0  0  0  0  0  0  0  0  0  0  0  0
    0.5575   -7.8966    0.0000 O   0  0  0  0  0  0  0  0  0  0  0  0
    0.5575   -9.5466    0.0000 C   0  0  0  0  0  0  0  0  0  0  0  0
    1.2720   -9.1341    0.0000 C   0  0  1  0  0  0  0  0  0  0  0  0
    1.2720   -8.3091    0.0000 C   0  0  1  0  0  0  0  0  0  0  0  0
    1.9865   -7.8966    0.0000 C   0  0  2  0  0  0  0  0  0  0  0  0
    2.7009   -8.3091    0.0000 C   0  0  2  0  0  0  0  0  0  0  0  0
    2.7009   -9.1341    0.0000 C   0  0  1  0  0  0  0  0  0  0  0  0
    1.9865   -9.5466    0.0000 O   0  0  0  0  0  0  0  0  0  0  0  0
    3.4154   -9.5466    0.0000 O   0  0  0  0  0  0  0  0  0  0  0  0
    4.1299   -9.1341    0.0000 C   0  0  0  0  0  0  0  0  0  0  0  0
    4.8443   -9.5466    0.0000 C   0  0  2  0  0  0  0  0  0  0  0  0
    4.8443  -10.3716    0.0000 C   0  0  2  0  0  0  0  0  0  0  0  0
    5.5588  -10.7841    0.0000 C   0  0  1  0  0  0  0  0  0  0  0  0
    6.2733  -10.3716    0.0000 C   0  0  2  0  0  0  0  0  0  0  0  0
    6.2733   -9.5466    0.0000 C   0  0  1  0  0  0  0  0  0  0  0  0
    5.5588   -9.1341    0.0000 O   0  0  0  0  0  0  0  0  0  0  0  0
    6.9878   -9.1341    0.0000 O   0  0  0  0  0  0  0  0  0  0  0  0
    9.8456  -11.6091    0.0000 O   0  0  0  0  0  0  0  0  0  0  0  0
    9.8456   -9.1341    0.0000 O   0  0  0  0  0  0  0  0  0  0  0  0
    9.1312   -9.5466    0.0000 C   0  0  0  0  0  0  0  0  0  0  0  0
    8.4167   -9.1341    0.0000 C   0  0  0  0  0  0  0  0  0  0  0  0
    7.7022   -9.5466    0.0000 C   0  0  0  0  0  0  0  0  0  0  0  0
    7.7022  -10.3716    0.0000 C   0  0  0  0  0  0  0  0  0  0  0  0
    8.4167  -10.7841    0.0000 C   0  0  0  0  0  0  0  0  0  0  0  0
    9.1312  -10.3716    0.0000 C   0  0  0  0  0  0  0  0  0  0  0  0
    9.8456  -10.7841    0.0000 C   0  0  0  0  0  0  0  0  0  0  0  0
   10.5601  -10.3716    0.0000 C   0  0  0  0  0  0  0  0  0  0  0  0
   10.5601   -9.5466    0.0000 C   0  0  1  0  0  0  0  0  0  0  0  0
 38  1  1  0  0  0  0
 42  9  1  6  0  0  0
  6  3  1  0  0  0  0
  3  2  1  0  0  0  0
  9  4  2  0  0  0  0
  5  4  1  0  0  0  0
  6  5  2  0  0  0  0
  7  6  1  0  0  0  0
  8  7  2  0  0  0  0
  9  8  1  0  0  0  0
 36 31  1  0  0  0  0
 29 31  1  1  0  0  0
 28 10  1  6  0  0  0
 27 11  1  1  0  0  0
 26 12  1  6  0  0  0
 25 24  1  1  0  0  0
 24 23  1  0  0  0  0
 21 23  1  6  0  0  0
 20 13  1  1  0  0  0
 19 14  1  1  0  0  0
 18 15  1  6  0  0  0
 17 16  1  1  0  0  0
 22 17  1  0  0  0  0
 18 17  1  0  0  0  0
 19 18  1  0  0  0  0
 20 19  1  0  0  0  0
 21 20  1  0  0  0  0
 22 21  1  0  0  0  0
 30 25  1  0  0  0  0
 26 25  1  0  0  0  0
 27 26  1  0  0  0  0
 28 27  1  0  0  0  0
 29 28  1  0  0  0  0
 30 29  1  0  0  0  0
 40 32  2  0  0  0  0
 42 33  1  0  0  0  0
 34 33  1  0  0  0  0
 39 34  2  0  0  0  0
 35 34  1  0  0  0  0
 36 35  2  0  0  0  0
 37 36  1  0  0  0  0
 38 37  2  0  0  0  0
 39 38  1  0  0  0  0
 40 39  1  0  0  0  0
 41 40  1  0  0  0  0
 42 41  1  0  0  0  0
M  END
>  <cdx:fragmentId>
45

$$$$
