76015.cdx
  Mrv1902 05222410182D          

 12 11  0  0  0  0            999 V2000
    9.0881   -3.2790    0.0000 C   0  0  0  0  0  0  0  0  0  0  0  0
    8.3737   -2.8665    0.0000 C   0  0  0  0  0  0  0  0  0  0  0  0
    7.6592   -3.2790    0.0000 C   0  0  0  0  0  0  0  0  0  0  0  0
    6.9447   -2.8665    0.0000 C   0  0  0  0  0  0  0  0  0  0  0  0
    6.2302   -3.2790    0.0000 C   0  0  0  0  0  0  0  0  0  0  0  0
    5.5158   -2.8665    0.0000 C   0  0  0  0  0  0  0  0  0  0  0  0
    4.8013   -3.2790    0.0000 C   0  0  0  0  0  0  0  0  0  0  0  0
    4.0868   -2.8665    0.0000 C   0  0  0  0  0  0  0  0  0  0  0  0
    3.3724   -3.2790    0.0000 C   0  0  0  0  0  0  0  0  0  0  0  0
    2.6579   -2.8665    0.0000 C   0  0  0  0  0  0  0  0  0  0  0  0
    1.9434   -2.4540    0.0000 C   0  0  0  0  0  0  0  0  0  0  0  0
    9.8026   -2.8665    0.0000 O   0  0  0  0  0  0  0  0  0  0  0  0
  1  2  1  0  0  0  0
  2  3  1  0  0  0  0
  3  4  1  0  0  0  0
  4  5  1  0  0  0  0
  5  6  1  0  0  0  0
  6  7  1  0  0  0  0
  7  8  1  0  0  0  0
  8  9  1  0  0  0  0
  9 10  1  0  0  0  0
 10 11  3  0  0  0  0
  1 12  1  0  0  0  0
M  END
>  <cdx:groupId>
37

>  <cdx:fragmentId>
5

$$$$
