7601.cdx
  Mrv1902 05222410272D          

 18 19  0  0  0  0            999 V2000
    7.1120   -4.0264    0.0000 C   0  0  0  0  0  0  0  0  0  0  0  0
    6.3976   -3.6139    0.0000 C   0  0  0  0  0  0  0  0  0  0  0  0
    7.1120   -4.8514    0.0000 O   0  0  0  0  0  0  0  0  0  0  0  0
    7.8265   -3.6139    0.0000 O   0  0  0  0  0  0  0  0  0  0  0  0
    5.6831   -4.0264    0.0000 C   0  0  0  0  0  0  0  0  0  0  0  0
    5.6831   -4.8514    0.0000 C   0  0  0  0  0  0  0  0  0  0  0  0
    4.9686   -5.2639    0.0000 C   0  0  0  0  0  0  0  0  0  0  0  0
    4.2541   -4.8514    0.0000 C   0  0  0  0  0  0  0  0  0  0  0  0
    4.2541   -4.0264    0.0000 C   0  0  0  0  0  0  0  0  0  0  0  0
    4.9686   -3.6139    0.0000 C   0  0  0  0  0  0  0  0  0  0  0  0
    8.5410   -4.0264    0.0000 C   0  0  0  0  0  0  0  0  0  0  0  0
    9.2554   -3.6139    0.0000 C   0  0  0  0  0  0  0  0  0  0  0  0
    9.9699   -4.0264    0.0000 C   0  0  0  0  0  0  0  0  0  0  0  0
   10.6844   -3.6139    0.0000 C   0  0  0  0  0  0  0  0  0  0  0  0
   11.3989   -4.0264    0.0000 C   0  0  0  0  0  0  0  0  0  0  0  0
   11.3989   -4.8514    0.0000 C   0  0  0  0  0  0  0  0  0  0  0  0
   10.6844   -5.2639    0.0000 C   0  0  0  0  0  0  0  0  0  0  0  0
    9.9699   -4.8514    0.0000 C   0  0  0  0  0  0  0  0  0  0  0  0
  1  2  1  0  0  0  0
  1  3  2  0  0  0  0
  1  4  1  0  0  0  0
  5  6  1  0  0  0  0
  6  7  2  0  0  0  0
  7  8  1  0  0  0  0
  8  9  2  0  0  0  0
  9 10  1  0  0  0  0
  5 10  2  0  0  0  0
  2  5  1  0  0  0  0
 11 12  1  0  0  0  0
 13 14  1  0  0  0  0
 14 15  2  0  0  0  0
 15 16  1  0  0  0  0
 16 17  2  0  0  0  0
 17 18  1  0  0  0  0
 13 18  2  0  0  0  0
 12 13  1  0  0  0  0
  4 11  1  0  0  0  0
M  END
>  <cdx:fragmentId>
13

$$$$
