7602.cdx
  Mrv1902 05222410282D          

 34 36  0  0  0  0            999 V2000
    2.1455   -9.4325    0.0000 C   0  0  0  0  0  0  0  0  0  0  0  0
    2.1455  -10.2575    0.0000 C   0  0  0  0  0  0  0  0  0  0  0  0
    2.8600  -10.6700    0.0000 C   0  0  0  0  0  0  0  0  0  0  0  0
    3.5745  -10.2575    0.0000 C   0  0  0  0  0  0  0  0  0  0  0  0
    3.5745   -9.4325    0.0000 C   0  0  0  0  0  0  0  0  0  0  0  0
    2.8600   -9.0200    0.0000 C   0  0  0  0  0  0  0  0  0  0  0  0
    4.2889   -9.0200    0.0000 C   0  0  0  0  0  0  0  0  0  0  0  0
    5.0034   -9.4325    0.0000 O   0  0  0  0  0  0  0  0  0  0  0  0
    4.2889   -8.1950    0.0000 O   0  0  0  0  0  0  0  0  0  0  0  0
    5.7179   -9.0200    0.0000 C   0  0  0  0  0  0  0  0  0  0  0  0
    6.4324   -9.4325    0.0000 C   0  0  2  0  0  0  0  0  0  0  0  0
    6.4324  -10.2575    0.0000 C   0  0  2  0  0  0  0  0  0  0  0  0
    7.1468  -10.6700    0.0000 C   0  0  1  0  0  0  0  0  0  0  0  0
    7.8613  -10.2575    0.0000 C   0  0  2  0  0  0  0  0  0  0  0  0
    7.8613   -9.4325    0.0000 C   0  0  1  0  0  0  0  0  0  0  0  0
    7.1468   -9.0200    0.0000 O   0  0  0  0  0  0  0  0  0  0  0  0
    8.5758   -9.0200    0.0000 O   0  0  0  0  0  0  0  0  0  0  0  0
    7.1468  -11.4950    0.0000 O   0  0  0  0  0  0  0  0  0  0  0  0
    8.5758  -10.6700    0.0000 O   0  0  0  0  0  0  0  0  0  0  0  0
    5.7179  -10.6700    0.0000 O   0  0  0  0  0  0  0  0  0  0  0  0
    9.2902   -9.4325    0.0000 C   0  0  0  0  0  0  0  0  0  0  0  0
    9.2902  -10.2575    0.0000 C   0  0  0  0  0  0  0  0  0  0  0  0
   10.0047  -10.6700    0.0000 C   0  0  0  0  0  0  0  0  0  0  0  0
   10.7192  -10.2575    0.0000 C   0  0  0  0  0  0  0  0  0  0  0  0
   10.7192   -9.4325    0.0000 C   0  0  0  0  0  0  0  0  0  0  0  0
   10.0047   -9.0200    0.0000 C   0  0  0  0  0  0  0  0  0  0  0  0
   10.0047   -8.1950    0.0000 O   0  0  0  0  0  0  0  0  0  0  0  0
    9.2902   -7.7825    0.0000 C   0  0  0  0  0  0  0  0  0  0  0  0
   11.4337  -10.6700    0.0000 O   0  0  0  0  0  0  0  0  0  0  0  0
    1.4311   -9.0200    0.0000 O   0  0  0  0  0  0  0  0  0  0  0  0
    1.4311  -10.6700    0.0000 O   0  0  0  0  0  0  0  0  0  0  0  0
    2.8600  -11.4950    0.0000 O   0  0  0  0  0  0  0  0  0  0  0  0
    0.7166   -9.4325    0.0000 C   0  0  0  0  0  0  0  0  0  0  0  0
    3.5745  -11.9075    0.0000 C   0  0  0  0  0  0  0  0  0  0  0  0
  1  2  2  0  0  0  0
  2  3  1  0  0  0  0
  3  4  2  0  0  0  0
  4  5  1  0  0  0  0
  5  6  2  0  0  0  0
  6  1  1  0  0  0  0
  5  7  1  0  0  0  0
  7  8  1  0  0  0  0
  7  9  2  0  0  0  0
  8 10  1  0  0  0  0
 11 10  1  1  0  0  0
 11 12  1  0  0  0  0
 12 13  1  0  0  0  0
 13 14  1  0  0  0  0
 14 15  1  0  0  0  0
 15 16  1  0  0  0  0
 16 11  1  0  0  0  0
 15 17  1  1  0  0  0
 13 18  1  1  0  0  0
 14 19  1  6  0  0  0
 12 20  1  6  0  0  0
 17 21  1  0  0  0  0
 21 22  2  0  0  0  0
 22 23  1  0  0  0  0
 23 24  2  0  0  0  0
 24 25  1  0  0  0  0
 25 26  2  0  0  0  0
 26 21  1  0  0  0  0
 26 27  1  0  0  0  0
 27 28  1  0  0  0  0
 24 29  1  0  0  0  0
  1 30  1  0  0  0  0
  2 31  1  0  0  0  0
  3 32  1  0  0  0  0
 30 33  1  0  0  0  0
 32 34  1  0  0  0  0
M  END
>  <cdx:fragmentId>
365

$$$$
