7608.cdx
  Mrv1902 05222410192D          

 43 47  0  0  0  0            999 V2000
    5.2420   -7.4044    0.0000 C   0  0  2  0  0  0  0  0  0  0  0  0
    5.2420   -8.2294    0.0000 C   0  0  2  0  0  0  0  0  0  0  0  0
    5.9565   -8.6419    0.0000 C   0  0  1  0  0  0  0  0  0  0  0  0
    6.6710   -8.2294    0.0000 C   0  0  2  0  0  0  0  0  0  0  0  0
    6.6710   -7.4044    0.0000 C   0  0  1  0  0  0  0  0  0  0  0  0
    5.9565   -6.9919    0.0000 O   0  0  0  0  0  0  0  0  0  0  0  0
    7.3854   -6.9919    0.0000 O   0  0  0  0  0  0  0  0  0  0  0  0
    7.3854   -6.1669    0.0000 C   0  0  1  0  0  0  0  0  0  0  0  0
    6.6710   -5.7544    0.0000 C   0  0  0  0  0  0  0  0  0  0  0  0
    5.9565   -6.1669    0.0000 C   0  0  0  0  0  0  0  0  0  0  0  0
    8.0999   -5.7544    0.0000 O   0  0  0  0  0  0  0  0  0  0  0  0
    8.0999   -4.9294    0.0000 C   0  0  0  0  0  0  0  0  0  0  0  0
    7.3854   -4.5169    0.0000 C   0  0  0  0  0  0  0  0  0  0  0  0
    6.6710   -4.9294    0.0000 C   0  0  1  0  0  0  0  0  0  0  0  0
    7.3854   -3.6919    0.0000 C   0  0  0  0  0  0  0  0  0  0  0  0
    6.6710   -3.2794    0.0000 O   0  0  0  0  0  0  0  0  0  0  0  0
    5.9565   -3.6919    0.0000 C   0  0  0  0  0  0  0  0  0  0  0  0
    5.9565   -4.5169    0.0000 C   0  0  0  0  0  0  0  0  0  0  0  0
    5.9565   -9.4669    0.0000 O   0  0  0  0  0  0  0  0  0  0  0  0
    6.6710   -9.8794    0.0000 O   0  0  0  0  0  0  0  0  0  0  0  0
    7.3854   -9.4669    0.0000 C   0  0  0  0  0  0  0  0  0  0  0  0
    7.3854   -8.6419    0.0000 O   0  0  0  0  0  0  0  0  0  0  0  0
    6.6710  -10.7044    0.0000 C   0  0  0  0  0  0  0  0  0  0  0  0
    7.3854  -11.1169    0.0000 C   0  0  0  0  0  0  0  0  0  0  0  0
    8.0999  -10.7044    0.0000 C   0  0  0  0  0  0  0  0  0  0  0  0
    8.0999   -9.8794    0.0000 C   0  0  0  0  0  0  0  0  0  0  0  0
    8.8144  -11.1169    0.0000 C   0  0  0  0  0  0  0  0  0  0  0  0
    9.5289  -10.7044    0.0000 C   0  0  0  0  0  0  0  0  0  0  0  0
    9.5289   -9.8794    0.0000 C   0  0  0  0  0  0  0  0  0  0  0  0
    8.8144   -9.4669    0.0000 C   0  0  0  0  0  0  0  0  0  0  0  0
    5.9565  -11.1169    0.0000 C   0  0  0  0  0  0  0  0  0  0  0  0
    5.9565  -11.9419    0.0000 C   0  0  0  0  0  0  0  0  0  0  0  0
    6.6710  -12.3544    0.0000 C   0  0  0  0  0  0  0  0  0  0  0  0
    7.3854  -11.9419    0.0000 C   0  0  0  0  0  0  0  0  0  0  0  0
    8.0999   -3.2794    0.0000 O   0  0  0  0  0  0  0  0  0  0  0  0
    5.2420   -5.7544    0.0000 C   0  0  0  0  0  0  0  0  0  0  0  0
    4.5276   -6.9919    0.0000 C   0  0  0  0  0  0  0  0  0  0  0  0
    3.8131   -7.4044    0.0000 O   0  0  0  0  0  0  0  0  0  0  0  0
    6.6710  -13.1794    0.0000 O   0  0  0  0  0  0  0  0  0  0  0  0
    8.8144   -8.6419    0.0000 O   0  0  0  0  0  0  0  0  0  0  0  0
   10.2433  -11.1169    0.0000 O   0  0  0  0  0  0  0  0  0  0  0  0
    5.9565   -5.3419    0.0000 H   0  0  0  0  0  0  0  0  0  0  0  0
    4.5276   -8.6419    0.0000 O   0  0  0  0  0  0  0  0  0  0  0  0
  1  2  1  0  0  0  0
  2  3  1  0  0  0  0
  3  4  1  0  0  0  0
  4  5  1  0  0  0  0
  5  6  1  0  0  0  0
  6  1  1  0  0  0  0
  5  7  1  1  0  0  0
  8  7  1  1  0  0  0
  8  9  1  0  0  0  0
  9 10  1  0  0  0  0
  8 11  1  0  0  0  0
 11 12  1  0  0  0  0
 12 13  2  0  0  0  0
 13 14  1  0  0  0  0
 14  9  1  0  0  0  0
 13 15  1  0  0  0  0
 15 16  1  0  0  0  0
 16 17  1  0  0  0  0
 17 18  1  0  0  0  0
 18 14  1  0  0  0  0
  3 19  1  1  0  0  0
 20 21  2  0  0  0  0
 21 22  1  0  0  0  0
  4 22  1  6  0  0  0
 23 24  2  0  0  0  0
 24 25  1  0  0  0  0
 25 26  2  0  0  0  0
 26 21  1  0  0  0  0
 25 27  1  0  0  0  0
 27 28  2  0  0  0  0
 28 29  1  0  0  0  0
 29 30  2  0  0  0  0
 30 26  1  0  0  0  0
 23 31  1  0  0  0  0
 31 32  2  0  0  0  0
 32 33  1  0  0  0  0
 33 34  2  0  0  0  0
 34 24  1  0  0  0  0
 15 35  2  0  0  0  0
 10 36  2  0  0  0  0
  1 37  1  1  0  0  0
 37 38  1  0  0  0  0
 33 39  1  0  0  0  0
 30 40  1  0  0  0  0
 28 41  1  0  0  0  0
 14 42  1  1  0  0  0
  2 43  1  6  0  0  0
M  END
>  <cdx:fragmentId>
5

$$$$
