102000761.cdx
  Mrv1902 05222410212D          

 46 49  0  0  0  0            999 V2000
    6.0223  -17.3079    0.0000 C   0  0  0  0  0  0  0  0  0  0  0  0
    5.3078  -16.8954    0.0000 C   0  0  0  0  0  0  0  0  0  0  0  0
    4.5934  -17.3079    0.0000 C   0  0  0  0  0  0  0  0  0  0  0  0
    6.0223  -18.1329    0.0000 O   0  0  0  0  0  0  0  0  0  0  0  0
    6.7368  -16.8954    0.0000 O   0  0  0  0  0  0  0  0  0  0  0  0
    3.8789  -16.8954    0.0000 C   0  0  0  0  0  0  0  0  0  0  0  0
    3.1644  -17.3079    0.0000 C   0  0  0  0  0  0  0  0  0  0  0  0
    2.4500  -16.8954    0.0000 C   0  0  0  0  0  0  0  0  0  0  0  0
    2.4500  -16.0704    0.0000 C   0  0  0  0  0  0  0  0  0  0  0  0
    3.1644  -15.6579    0.0000 C   0  0  0  0  0  0  0  0  0  0  0  0
    3.8789  -16.0704    0.0000 C   0  0  0  0  0  0  0  0  0  0  0  0
    1.7355  -17.3079    0.0000 O   0  0  0  0  0  0  0  0  0  0  0  0
    1.0210  -16.8954    0.0000 C   0  0  0  0  0  0  0  0  0  0  0  0
    1.7355  -15.6579    0.0000 O   0  0  0  0  0  0  0  0  0  0  0  0
    7.4512  -17.3079    0.0000 C   0  0  0  0  0  0  0  0  0  0  0  0
    8.1657  -16.0704    0.0000 O   0  0  0  0  0  0  0  0  0  0  0  0
    8.1657  -16.8954    0.0000 C   0  0  1  0  0  0  0  0  0  0  0  0
    8.8802  -17.3079    0.0000 C   0  0  2  0  0  0  0  0  0  0  0  0
    9.5947  -16.8954    0.0000 C   0  0  1  0  0  0  0  0  0  0  0  0
    9.5947  -16.0704    0.0000 C   0  0  2  0  0  0  0  0  0  0  0  0
    8.8802  -15.6579    0.0000 C   0  0  2  0  0  0  0  0  0  0  0  0
   10.3091  -17.3079    0.0000 O   0  0  0  0  0  0  0  0  0  0  0  0
   11.0236  -16.0704    0.0000 O   0  0  0  0  0  0  0  0  0  0  0  0
   11.0236  -16.8954    0.0000 C   0  0  2  0  0  0  0  0  0  0  0  0
   11.7381  -17.3079    0.0000 C   0  0  1  0  0  0  0  0  0  0  0  0
   12.4525  -16.8954    0.0000 C   0  0  1  0  0  0  0  0  0  0  0  0
   12.4525  -16.0704    0.0000 C   0  0  2  0  0  0  0  0  0  0  0  0
   11.7381  -15.6579    0.0000 C   0  0  2  0  0  0  0  0  0  0  0  0
   11.7381  -14.8329    0.0000 C   0  0  0  0  0  0  0  0  0  0  0  0
   13.1670  -15.6579    0.0000 O   0  0  0  0  0  0  0  0  0  0  0  0
   13.1670  -17.3079    0.0000 O   0  0  0  0  0  0  0  0  0  0  0  0
   11.7381  -18.1329    0.0000 O   0  0  0  0  0  0  0  0  0  0  0  0
   10.3091  -15.6579    0.0000 O   0  0  0  0  0  0  0  0  0  0  0  0
    8.8802  -18.1329    0.0000 O   0  0  0  0  0  0  0  0  0  0  0  0
    8.8802  -14.8329    0.0000 O   0  0  0  0  0  0  0  0  0  0  0  0
    9.5947  -14.4204    0.0000 C   0  0  0  0  0  0  0  0  0  0  0  0
    9.5947  -13.5954    0.0000 C   0  0  2  0  0  0  0  0  0  0  0  0
    8.8802  -13.1829    0.0000 O   0  0  0  0  0  0  0  0  0  0  0  0
   10.3091  -13.1829    0.0000 C   0  0  0  0  0  0  0  0  0  0  0  0
   11.0236  -13.5954    0.0000 C   0  0  0  0  0  0  0  0  0  0  0  0
   11.7381  -13.1829    0.0000 C   0  0  0  0  0  0  0  0  0  0  0  0
   11.7381  -12.3579    0.0000 C   0  0  0  0  0  0  0  0  0  0  0  0
   11.0236  -11.9454    0.0000 C   0  0  0  0  0  0  0  0  0  0  0  0
   10.3091  -12.3579    0.0000 C   0  0  0  0  0  0  0  0  0  0  0  0
   12.4525  -11.9454    0.0000 O   0  0  0  0  0  0  0  0  0  0  0  0
   12.4525  -13.5954    0.0000 O   0  0  0  0  0  0  0  0  0  0  0  0
  1  2  1  0  0  0  0
  2  3  2  0  0  0  0
  1  4  2  0  0  0  0
  1  5  1  0  0  0  0
  6  7  1  0  0  0  0
  7  8  2  0  0  0  0
  8  9  1  0  0  0  0
  9 10  2  0  0  0  0
 10 11  1  0  0  0  0
  6 11  2  0  0  0  0
 12 13  1  0  0  0  0
  8 12  1  0  0  0  0
  9 14  1  0  0  0  0
  3  6  1  0  0  0  0
 16 17  1  0  0  0  0
 17 18  1  0  0  0  0
 18 19  1  0  0  0  0
 19 20  1  0  0  0  0
 20 21  1  0  0  0  0
 16 21  1  0  0  0  0
 23 24  1  0  0  0  0
 24 25  1  0  0  0  0
 25 26  1  0  0  0  0
 26 27  1  0  0  0  0
 27 28  1  0  0  0  0
 23 28  1  0  0  0  0
 28 29  1  1  0  0  0
 27 30  1  6  0  0  0
 26 31  1  1  0  0  0
 25 32  1  1  0  0  0
 24 22  1  6  0  0  0
 19 22  1  1  0  0  0
 20 33  1  6  0  0  0
 18 34  1  6  0  0  0
 36 37  1  0  0  0  0
 35 36  1  0  0  0  0
 37 38  1  6  0  0  0
 39 40  1  0  0  0  0
 40 41  2  0  0  0  0
 41 42  1  0  0  0  0
 42 43  2  0  0  0  0
 43 44  1  0  0  0  0
 39 44  2  0  0  0  0
 42 45  1  0  0  0  0
 41 46  1  0  0  0  0
 37 39  1  0  0  0  0
 21 35  1  1  0  0  0
 17 15  1  1  0  0  0
  5 15  1  0  0  0  0
M  END
>  <cdx:groupId>
10807

>  <cdx:fragmentId>
10713

$$$$
