76218.cdx
  Mrv1902 05222410282D          

  5  5  0  0  0  0            999 V2000
    4.0544   -4.2044    0.0000 C   0  0  0  0  0  0  0  0  0  0  0  0
    4.0544   -5.0294    0.0000 C   0  0  0  0  0  0  0  0  0  0  0  0
    3.2294   -5.0294    0.0000 C   0  0  0  0  0  0  0  0  0  0  0  0
    3.2294   -4.2044    0.0000 C   0  0  0  0  0  0  0  0  0  0  0  0
    4.6378   -3.6210    0.0000 O   0  0  0  0  0  0  0  0  0  0  0  0
  1  2  1  0  0  0  0
  2  3  1  0  0  0  0
  3  4  1  0  0  0  0
  1  4  1  0  0  0  0
  1  5  1  0  0  0  0
M  END
>  <cdx:groupId>
17

>  <cdx:fragmentId>
5

$$$$
