7625.cdx
  Mrv1902 05222410192D          

 54 56  0  0  0  0            999 V2000
    7.8435  -11.6615    0.0000 C   0  0  0  0  0  0  0  0  0  0  0  0
    8.6497  -11.4867    0.0000 O   0  0  0  0  0  0  0  0  0  0  0  0
    7.3216  -11.0225    0.0000 O   0  0  0  0  0  0  0  0  0  0  0  0
    5.3623   -8.5863    0.0000 C   0  0  0  0  0  0  0  0  0  0  0  0
    4.6495   -9.0018    0.0000 C   0  0  1  0  0  0  0  0  0  0  0  0
    3.9333   -8.5922    0.0000 C   0  0  0  0  0  0  0  0  0  0  0  0
    6.0784   -8.9959    0.0000 O   0  0  0  0  0  0  0  0  0  0  0  0
    5.3589   -7.7613    0.0000 O   0  5  0  0  0  0  0  0  0  0  0  0
    3.9299   -7.7672    0.0000 C   0  0  0  0  0  0  0  0  0  0  0  0
    4.6427   -7.3518    0.0000 C   0  0  0  0  0  0  0  0  0  0  0  0
    4.6393   -6.5268    0.0000 C   0  0  0  0  0  0  0  0  0  0  0  0
    3.9231   -6.1172    0.0000 C   0  0  0  0  0  0  0  0  0  0  0  0
    3.2104   -6.5327    0.0000 C   0  0  0  0  0  0  0  0  0  0  0  0
    3.2138   -7.3577    0.0000 C   0  0  0  0  0  0  0  0  0  0  0  0
    3.9197   -5.2922    0.0000 O   0  0  0  0  0  0  0  0  0  0  0  0
    5.3520   -6.1113    0.0000 O   0  0  0  0  0  0  0  0  0  0  0  0
    8.7209   -9.3473    0.0000 O   0  5  0  0  0  0  0  0  0  0  0  0
    9.5034   -9.0859    0.0000 N   0  3  0  0  0  0  0  0  0  0  0  0
    7.2537   -8.8376    0.0000 K   0  3  0  0  0  0  0  0  0  0  0  0
    8.9503  -10.7577    0.0000 O   0  0  0  0  0  0  0  0  0  0  0  0
    8.4284  -10.1187    0.0000 C   0  0  0  0  0  0  0  0  0  0  0  0
    9.3058   -7.8044    0.0000 O   0  0  0  0  0  0  0  0  0  0  0  0
    8.2622   -6.5264    0.0000 O   0  0  0  0  0  0  0  0  0  0  0  0
    6.8629   -8.2017    0.0000 C   0  0  0  0  0  0  0  0  0  0  0  0
    7.1554   -7.4303    0.0000 C   0  0  0  0  0  0  0  0  0  0  0  0
    7.9697   -7.2979    0.0000 C   0  0  0  0  0  0  0  0  0  0  0  0
    8.4915   -7.9369    0.0000 C   0  0  0  0  0  0  0  0  0  0  0  0
    8.1991   -8.7083    0.0000 C   0  0  0  0  0  0  0  0  0  0  0  0
    7.3848   -8.8407    0.0000 C   0  0  0  0  0  0  0  0  0  0  0  0
    7.0923   -9.6121    0.0000 C   0  0  0  0  0  0  0  0  0  0  0  0
    7.6141  -10.2511    0.0000 C   0  0  1  0  0  0  0  0  0  0  0  0
   11.3794  -13.0990    0.0000 O   0  0  0  0  0  0  0  0  0  0  0  0
    9.3199  -13.8220    0.0000 C   0  0  0  0  0  0  0  0  0  0  0  0
   10.1449  -13.8186    0.0000 C   0  0  0  0  0  0  0  0  0  0  0  0
   10.5544  -13.1024    0.0000 C   0  0  0  0  0  0  0  0  0  0  0  0
   10.1390  -12.3897    0.0000 C   0  0  0  0  0  0  0  0  0  0  0  0
    9.3140  -12.3931    0.0000 C   0  0  0  0  0  0  0  0  0  0  0  0
    8.9044  -13.1092    0.0000 C   0  0  0  0  0  0  0  0  0  0  0  0
    6.1023  -14.7708    0.0000 O   0  0  0  0  0  0  0  0  0  0  0  0
    6.8116  -13.5304    0.0000 C   0  0  0  0  0  0  0  0  0  0  0  0
    6.0989  -13.9458    0.0000 C   0  0  0  0  0  0  0  0  0  0  0  0
    5.3827  -13.5363    0.0000 C   0  0  0  0  0  0  0  0  0  0  0  0
    5.3793  -12.7113    0.0000 C   0  0  0  0  0  0  0  0  0  0  0  0
    6.0920  -12.2958    0.0000 C   0  0  0  0  0  0  0  0  0  0  0  0
    6.8082  -12.7054    0.0000 C   0  0  0  0  0  0  0  0  0  0  0  0
    7.5918  -12.4472    0.0000 C   0  0  1  0  0  0  0  0  0  0  0  0
    8.0795  -13.1126    0.0000 C   0  0  2  0  0  0  0  0  0  0  0  0
    7.5973  -13.7821    0.0000 O   0  0  0  0  0  0  0  0  0  0  0  0
    6.0818   -9.8208    0.0000 O   0  0  0  0  0  0  0  0  0  0  0  0
    6.0886  -11.4708    0.0000 C   0  0  0  0  0  0  0  0  0  0  0  0
    5.3725  -11.0613    0.0000 C   0  0  0  0  0  0  0  0  0  0  0  0
    5.3691  -10.2363    0.0000 C   0  0  0  0  0  0  0  0  0  0  0  0
    4.6529   -9.8267    0.0000 O   0  0  0  0  0  0  0  0  0  0  0  0
   10.5603  -14.5313    0.0000 O   0  0  0  0  0  0  0  0  0  0  0  0
  5 53  1  6  0  0  0
 53 52  1  0  0  0  0
 50 44  1  0  0  0  0
 46  1  1  6  0  0  0
 31 21  1  0  0  0  0
 21 17  1  0  0  0  0
 21 20  2  0  0  0  0
 30 29  1  0  0  0  0
 27 22  1  0  0  0  0
 26 23  1  0  0  0  0
 29 24  2  0  0  0  0
 25 24  1  0  0  0  0
 26 25  2  0  0  0  0
 27 26  1  0  0  0  0
 28 27  2  0  0  0  0
 29 28  1  0  0  0  0
 31 30  1  0  0  0  0
 47 38  1  1  0  0  0
 35 32  1  0  0  0  0
 38 33  2  0  0  0  0
 34 33  1  0  0  0  0
 35 34  2  0  0  0  0
 36 35  1  0  0  0  0
 37 36  2  0  0  0  0
 38 37  1  0  0  0  0
 41 39  1  0  0  0  0
 48 40  1  0  0  0  0
 45 40  2  0  0  0  0
 41 40  1  0  0  0  0
 42 41  2  0  0  0  0
 43 42  1  0  0  0  0
 44 43  2  0  0  0  0
 45 44  1  0  0  0  0
 46 45  1  0  0  0  0
 47 46  1  0  0  0  0
 48 47  1  0  0  0  0
 52 49  2  0  0  0  0
 51 50  2  0  0  0  0
 52 51  1  0  0  0  0
  1  2  2  0  0  0  0
 31  3  1  6  0  0  0
  1  3  1  0  0  0  0
  4  5  1  0  0  0  0
  5  6  1  0  0  0  0
  4  7  2  0  0  0  0
  4  8  1  0  0  0  0
  9 10  1  0  0  0  0
 10 11  2  0  0  0  0
 11 12  1  0  0  0  0
 12 13  2  0  0  0  0
 13 14  1  0  0  0  0
  9 14  2  0  0  0  0
 12 15  1  0  0  0  0
 11 16  1  0  0  0  0
  6  9  1  0  0  0  0
 34 54  1  0  0  0  0
M  CHG  4   8  -1  17  -1  18   1  19   1
M  STY  1   1 SUP
M  SAL   1  3  17  18  19
M  SBL   1  1   6
M  SMT   1 O-NH\S4+\nK\S+
M  SAP   1  1  17  21  1
M  END
>  <cdx:fragmentId>
106635

$$$$
