76269.cdx
  Mrv1902 05222410242D          

 10 10  0  0  0  0            999 V2000
    5.7362   -4.4217    0.0000 C   0  0  0  0  0  0  0  0  0  0  0  0
    5.0218   -4.8342    0.0000 C   0  0  0  0  0  0  0  0  0  0  0  0
    4.3073   -4.4217    0.0000 C   0  0  0  0  0  0  0  0  0  0  0  0
    4.3073   -3.5967    0.0000 C   0  0  0  0  0  0  0  0  0  0  0  0
    5.0218   -3.1842    0.0000 C   0  0  0  0  0  0  0  0  0  0  0  0
    5.7362   -3.5967    0.0000 C   0  0  0  0  0  0  0  0  0  0  0  0
    3.5928   -4.8342    0.0000 C   0  0  0  0  0  0  0  0  0  0  0  0
    5.0218   -5.6592    0.0000 C   0  0  0  0  0  0  0  0  0  0  0  0
    6.4507   -4.8342    0.0000 O   0  0  0  0  0  0  0  0  0  0  0  0
    7.1652   -4.4217    0.0000 C   0  0  0  0  0  0  0  0  0  0  0  0
  1  2  1  0  0  0  0
  2  3  2  0  0  0  0
  3  4  1  0  0  0  0
  4  5  2  0  0  0  0
  5  6  1  0  0  0  0
  1  6  2  0  0  0  0
  3  7  1  0  0  0  0
  2  8  1  0  0  0  0
  9 10  1  0  0  0  0
  1  9  1  0  0  0  0
M  END
>  <cdx:groupId>
65

>  <cdx:fragmentId>
38

$$$$
