762842.cdx
  Mrv1902 05222410202D          

 37 39  0  0  0  0            999 V2000
    8.7796   -9.1457    0.0000 N   0  0  0  0  0  0  0  0  0  0  0  0
    8.0651   -8.7332    0.0000 C   0  0  0  0  0  0  0  0  0  0  0  0
    8.0651   -7.9082    0.0000 C   0  0  1  0  0  0  0  0  0  0  0  0
    7.3506   -7.4957    0.0000 N   0  0  0  0  0  0  0  0  0  0  0  0
    7.3506   -6.6707    0.0000 C   0  0  0  0  0  0  0  0  0  0  0  0
    6.6361   -6.2582    0.0000 C   0  0  0  0  0  0  0  0  0  0  0  0
    5.9217   -6.6707    0.0000 C   0  0  1  0  0  0  0  0  0  0  0  0
    5.9217   -7.4957    0.0000 N   0  0  0  0  0  0  0  0  0  0  0  0
    5.2072   -7.9082    0.0000 C   0  0  0  0  0  0  0  0  0  0  0  0
    5.2072   -8.7332    0.0000 C   0  0  1  0  0  0  0  0  0  0  0  0
    5.9217   -9.1457    0.0000 N   0  0  0  0  0  0  0  0  0  0  0  0
    5.9217   -9.9707    0.0000 C   0  0  0  0  0  0  0  0  0  0  0  0
    6.6361  -10.3832    0.0000 C   0  0  1  0  0  0  0  0  0  0  0  0
    7.3506   -9.9707    0.0000 N   0  0  0  0  0  0  0  0  0  0  0  0
    8.0651  -10.3832    0.0000 C   0  0  0  0  0  0  0  0  0  0  0  0
    8.7796   -9.9707    0.0000 C   0  0  2  0  0  0  0  0  0  0  0  0
    9.5642  -10.2257    0.0000 C   0  0  0  0  0  0  0  0  0  0  0  0
   10.0491   -9.5582    0.0000 C   0  0  0  0  0  0  0  0  0  0  0  0
    9.5642   -8.8908    0.0000 C   0  0  0  0  0  0  0  0  0  0  0  0
    7.3506   -9.1457    0.0000 O   0  0  0  0  0  0  0  0  0  0  0  0
    8.0651   -6.2582    0.0000 O   0  0  0  0  0  0  0  0  0  0  0  0
    4.4927   -7.4957    0.0000 O   0  0  0  0  0  0  0  0  0  0  0  0
    5.2072  -10.3832    0.0000 O   0  0  0  0  0  0  0  0  0  0  0  0
    8.0651  -11.2082    0.0000 O   0  0  0  0  0  0  0  0  0  0  0  0
    5.2072   -6.2582    0.0000 C   0  0  0  0  0  0  0  0  0  0  0  0
    4.4927   -6.6707    0.0000 C   0  0  0  0  0  0  0  0  0  0  0  0
    3.7783   -6.2582    0.0000 C   0  0  0  0  0  0  0  0  0  0  0  0
    3.7783   -5.4332    0.0000 C   0  0  0  0  0  0  0  0  0  0  0  0
    4.4927   -5.0207    0.0000 C   0  0  0  0  0  0  0  0  0  0  0  0
    5.2072   -5.4332    0.0000 C   0  0  0  0  0  0  0  0  0  0  0  0
    4.4927   -9.1457    0.0000 C   0  0  0  0  0  0  0  0  0  0  0  0
    3.7783   -8.7332    0.0000 O   0  0  0  0  0  0  0  0  0  0  0  0
    6.6361  -11.2082    0.0000 C   0  0  0  0  0  0  0  0  0  0  0  0
    5.9217  -11.6207    0.0000 C   0  0  0  0  0  0  0  0  0  0  0  0
    8.7796   -7.4957    0.0000 C   0  0  0  0  0  0  0  0  0  0  0  0
    9.4940   -7.9082    0.0000 C   0  0  0  0  0  0  0  0  0  0  0  0
    8.8658  -10.7912    0.0000 H   0  0  0  0  0  0  0  0  0  0  0  0
  1  2  1  0  0  0  0
  2  3  1  0  0  0  0
  3  4  1  0  0  0  0
  4  5  1  0  0  0  0
  5  6  1  0  0  0  0
  6  7  1  0  0  0  0
  7  8  1  0  0  0  0
  8  9  1  0  0  0  0
  9 10  1  0  0  0  0
 10 11  1  0  0  0  0
 11 12  1  0  0  0  0
 12 13  1  0  0  0  0
 13 14  1  0  0  0  0
 14 15  1  0  0  0  0
 15 16  1  0  0  0  0
 16 17  1  0  0  0  0
 17 18  1  0  0  0  0
 18 19  1  0  0  0  0
  1 19  1  0  0  0  0
  1 16  1  0  0  0  0
  2 20  2  0  0  0  0
  5 21  2  0  0  0  0
  9 22  2  0  0  0  0
 12 23  2  0  0  0  0
 15 24  2  0  0  0  0
 25 26  1  0  0  0  0
 26 27  2  0  0  0  0
 27 28  1  0  0  0  0
 28 29  2  0  0  0  0
 29 30  1  0  0  0  0
 25 30  2  0  0  0  0
  7 25  1  1  0  0  0
 31 32  1  0  0  0  0
 10 31  1  1  0  0  0
 33 34  1  0  0  0  0
 13 33  1  1  0  0  0
 35 36  1  0  0  0  0
  3 35  1  1  0  0  0
 16 37  1  6  0  0  0
M  END
>  <cdx:fragmentId>
80341

$$$$
