7629.cdx
  Mrv1902 05222410272D          

 57 62  0  0  0  0            999 V2000
    1.4306   -9.2341    0.0000 C   0  0  1  0  0  0  0  0  0  0  0  0
    1.4306   -9.9766    0.0000 C   0  0  1  0  0  0  0  0  0  0  0  0
    2.0736  -10.3478    0.0000 C   0  0  2  0  0  0  0  0  0  0  0  0
    2.7166   -9.9766    0.0000 C   0  0  2  0  0  0  0  0  0  0  0  0
    2.7166   -9.2341    0.0000 C   0  0  1  0  0  0  0  0  0  0  0  0
    2.0736   -8.8628    0.0000 O   0  0  0  0  0  0  0  0  0  0  0  0
    0.7876   -8.8628    0.0000 C   0  0  0  0  0  0  0  0  0  0  0  0
    3.3597  -10.3478    0.0000 O   0  0  0  0  0  0  0  0  0  0  0  0
    2.0736  -11.0903    0.0000 O   0  0  0  0  0  0  0  0  0  0  0  0
    0.7876  -10.3478    0.0000 O   0  0  0  0  0  0  0  0  0  0  0  0
    3.3597   -8.8628    0.0000 O   0  0  0  0  0  0  0  0  0  0  0  0
    3.3597   -8.1203    0.0000 C   0  0  1  0  0  0  0  0  0  0  0  0
    4.0027   -7.7491    0.0000 C   0  0  1  0  0  0  0  0  0  0  0  0
    4.0027   -7.0066    0.0000 O   0  0  0  0  0  0  0  0  0  0  0  0
    3.3597   -6.6353    0.0000 C   0  0  1  0  0  0  0  0  0  0  0  0
    2.7166   -7.0066    0.0000 C   0  0  2  0  0  0  0  0  0  0  0  0
    2.7166   -7.7491    0.0000 C   0  0  2  0  0  0  0  0  0  0  0  0
    2.0736   -8.1203    0.0000 O   0  0  0  0  0  0  0  0  0  0  0  0
    4.6457   -8.1203    0.0000 O   0  0  0  0  0  0  0  0  0  0  0  0
    3.3597   -5.8928    0.0000 C   0  0  0  0  0  0  0  0  0  0  0  0
    2.0736   -6.6353    0.0000 O   0  0  0  0  0  0  0  0  0  0  0  0
    2.7166   -5.5216    0.0000 O   0  0  0  0  0  0  0  0  0  0  0  0
    5.2887   -7.7491    0.0000 C   0  0  0  0  0  0  0  0  0  0  0  0
    5.9317   -8.1203    0.0000 C   0  0  1  0  0  0  0  0  0  0  0  0
    6.5748   -7.7491    0.0000 C   0  0  2  0  0  0  0  0  0  0  0  0
    6.5748   -7.0066    0.0000 C   0  0  1  0  0  0  0  0  0  0  0  0
    5.9317   -6.6353    0.0000 C   0  0  0  0  0  0  0  0  0  0  0  0
    5.2887   -7.0066    0.0000 C   0  0  0  0  0  0  0  0  0  0  0  0
    7.2178   -8.1203    0.0000 C   0  0  0  0  0  0  0  0  0  0  0  0
    7.8608   -7.7491    0.0000 C   0  0  0  0  0  0  0  0  0  0  0  0
    7.8608   -7.0066    0.0000 C   0  0  2  0  0  0  0  0  0  0  0  0
    7.2178   -6.6353    0.0000 C   0  0  1  0  0  0  0  0  0  0  0  0
    5.4067   -8.6453    0.0000 C   0  0  0  0  0  0  0  0  0  0  0  0
    6.4568   -8.6453    0.0000 C   0  0  0  0  0  0  0  0  0  0  0  0
    6.5748   -8.4916    0.0000 H   0  0  0  0  0  0  0  0  0  0  0  0
    6.5748   -6.2641    0.0000 C   0  0  0  0  0  0  0  0  0  0  0  0
    7.2178   -7.3778    0.0000 H   0  0  0  0  0  0  0  0  0  0  0  0
    9.9143   -6.0948    0.0000 C   0  0  0  0  0  0  0  0  0  0  0  0
   10.4393   -6.6199    0.0000 O   0  0  0  0  0  0  0  0  0  0  0  0
   11.1565   -6.4277    0.0000 C   0  0  2  0  0  0  0  0  0  0  0  0
   11.6816   -6.9527    0.0000 O   0  0  0  0  0  0  0  0  0  0  0  0
   12.3988   -6.7606    0.0000 C   0  0  1  0  0  0  0  0  0  0  0  0
   12.5909   -6.0434    0.0000 C   0  0  2  0  0  0  0  0  0  0  0  0
   12.0659   -5.5183    0.0000 C   0  0  1  0  0  0  0  0  0  0  0  0
   11.3487   -5.7105    0.0000 C   0  0  1  0  0  0  0  0  0  0  0  0
   12.2581   -4.8011    0.0000 O   0  0  0  0  0  0  0  0  0  0  0  0
   12.9238   -7.2856    0.0000 C   0  0  0  0  0  0  0  0  0  0  0  0
   10.8237   -5.1855    0.0000 O   0  0  0  0  0  0  0  0  0  0  0  0
   13.3081   -5.8512    0.0000 O   0  0  0  0  0  0  0  0  0  0  0  0
   13.6663   -7.2856    0.0000 O   0  0  0  0  0  0  0  0  0  0  0  0
   12.7316   -8.0028    0.0000 O   0  0  0  0  0  0  0  0  0  0  0  0
    8.5038   -6.6353    0.0000 C   0  0  0  0  0  0  0  0  0  0  0  0
    8.5038   -5.8928    0.0000 C   0  0  2  0  0  0  0  0  0  0  0  0
    7.8608   -5.5216    0.0000 C   0  0  0  0  0  0  0  0  0  0  0  0
    7.2178   -5.8928    0.0000 C   0  0  0  0  0  0  0  0  0  0  0  0
    9.2183   -6.3053    0.0000 C   0  0  0  0  0  0  0  0  0  0  0  0
    8.5753   -7.4191    0.0000 C   0  0  0  0  0  0  0  0  0  0  0  0
  1  2  1  0  0  0  0
  2  3  1  0  0  0  0
  3  4  1  0  0  0  0
  4  5  1  0  0  0  0
  5  6  1  0  0  0  0
  6  1  1  0  0  0  0
  1  7  1  6  0  0  0
  4  8  1  6  0  0  0
  3  9  1  6  0  0  0
  2 10  1  1  0  0  0
  5 11  1  1  0  0  0
 12 11  1  6  0  0  0
 12 13  1  0  0  0  0
 13 14  1  0  0  0  0
 14 15  1  0  0  0  0
 15 16  1  0  0  0  0
 16 17  1  0  0  0  0
 17 12  1  0  0  0  0
 17 18  1  1  0  0  0
 13 19  1  1  0  0  0
 15 20  1  1  0  0  0
 16 21  1  6  0  0  0
 20 22  1  0  0  0  0
 23 19  1  6  0  0  0
 23 24  1  0  0  0  0
 24 25  1  0  0  0  0
 25 26  1  0  0  0  0
 26 27  1  0  0  0  0
 27 28  1  0  0  0  0
 25 29  1  0  0  0  0
 29 30  1  0  0  0  0
 30 31  1  0  0  0  0
 31 32  1  0  0  0  0
 32 26  1  0  0  0  0
 24 33  1  1  0  0  0
 24 34  1  6  0  0  0
 25 35  1  1  0  0  0
 26 36  1  6  0  0  0
 32 37  1  1  0  0  0
 38 39  1  0  0  0  0
 40 39  1  1  0  0  0
 40 41  1  0  0  0  0
 41 42  1  0  0  0  0
 42 43  1  0  0  0  0
 43 44  1  0  0  0  0
 44 45  1  0  0  0  0
 45 40  1  0  0  0  0
 44 46  1  1  0  0  0
 42 47  1  1  0  0  0
 45 48  1  6  0  0  0
 43 49  1  6  0  0  0
 47 50  1  0  0  0  0
 47 51  2  0  0  0  0
 31 52  1  6  0  0  0
 53 52  1  6  0  0  0
 53 54  1  0  0  0  0
 54 55  1  0  0  0  0
 55 32  1  0  0  0  0
 53 56  1  0  0  0  0
 31 57  1  0  0  0  0
 57 56  2  0  0  0  0
 38 56  1  0  0  0  0
M  END
>  <cdx:fragmentId>
5

$$$$
