7630.cdx
  Mrv1902 05222410192D          

 34 37  0  0  0  0            999 V2000
    4.4995   -9.6525    0.0000 C   0  0  0  0  0  0  0  0  0  0  0  0
    4.4995   -8.8275    0.0000 C   0  0  0  0  0  0  0  0  0  0  0  0
    5.2140   -8.4150    0.0000 C   0  0  0  0  0  0  0  0  0  0  0  0
    5.9285   -8.8275    0.0000 C   0  0  0  0  0  0  0  0  0  0  0  0
    5.9285   -9.6525    0.0000 C   0  0  0  0  0  0  0  0  0  0  0  0
    5.2140  -10.0650    0.0000 C   0  0  0  0  0  0  0  0  0  0  0  0
    6.6429   -8.4150    0.0000 O   0  0  0  0  0  0  0  0  0  0  0  0
    7.3574   -8.8275    0.0000 C   0  0  1  0  0  0  0  0  0  0  0  0
    7.3574   -9.6525    0.0000 C   0  0  2  0  0  0  0  0  0  0  0  0
    6.6429  -10.0650    0.0000 C   0  0  0  0  0  0  0  0  0  0  0  0
    8.0719   -8.4150    0.0000 C   0  0  0  0  0  0  0  0  0  0  0  0
    8.7864   -8.8275    0.0000 C   0  0  0  0  0  0  0  0  0  0  0  0
    8.0719  -10.0650    0.0000 O   0  0  0  0  0  0  0  0  0  0  0  0
    8.0719   -7.5900    0.0000 C   0  0  0  0  0  0  0  0  0  0  0  0
    8.7864   -7.1775    0.0000 C   0  0  0  0  0  0  0  0  0  0  0  0
    9.5008   -7.5900    0.0000 C   0  0  0  0  0  0  0  0  0  0  0  0
    9.5008   -8.4150    0.0000 C   0  0  0  0  0  0  0  0  0  0  0  0
    5.2140  -10.8900    0.0000 O   0  0  0  0  0  0  0  0  0  0  0  0
    3.7851   -8.4150    0.0000 O   0  0  0  0  0  0  0  0  0  0  0  0
    6.6429  -10.8900    0.0000 O   0  0  0  0  0  0  0  0  0  0  0  0
   10.2153   -8.8275    0.0000 O   0  0  0  0  0  0  0  0  0  0  0  0
   10.2153   -7.1775    0.0000 O   0  0  0  0  0  0  0  0  0  0  0  0
    8.7864   -6.3525    0.0000 O   0  0  0  0  0  0  0  0  0  0  0  0
   10.2283   -9.6524    0.0000 C   0  0  2  0  0  0  0  0  0  0  0  0
    9.5204  -10.0761    0.0000 O   0  0  0  0  0  0  0  0  0  0  0  0
    9.5334  -10.9010    0.0000 C   0  0  1  0  0  0  0  0  0  0  0  0
   10.2543  -11.3022    0.0000 C   0  0  2  0  0  0  0  0  0  0  0  0
   10.9622  -10.8785    0.0000 C   0  0  1  0  0  0  0  0  0  0  0  0
   10.9492  -10.0536    0.0000 C   0  0  1  0  0  0  0  0  0  0  0  0
    8.8255  -11.3247    0.0000 C   0  0  0  0  0  0  0  0  0  0  0  0
   11.6830  -11.2797    0.0000 O   0  0  0  0  0  0  0  0  0  0  0  0
   11.6571   -9.6299    0.0000 O   0  0  0  0  0  0  0  0  0  0  0  0
   10.2673  -12.1271    0.0000 O   0  0  0  0  0  0  0  0  0  0  0  0
    8.8385  -12.1496    0.0000 O   0  0  0  0  0  0  0  0  0  0  0  0
  1  2  1  0  0  0  0
  2  3  2  0  0  0  0
  3  4  1  0  0  0  0
  4  5  2  0  0  0  0
  5  6  1  0  0  0  0
  6  1  2  0  0  0  0
  4  7  1  0  0  0  0
  7  8  1  0  0  0  0
  8  9  1  0  0  0  0
  9 10  1  0  0  0  0
 10  5  1  0  0  0  0
  8 11  1  6  0  0  0
 11 12  2  0  0  0  0
  9 13  1  1  0  0  0
 11 14  1  0  0  0  0
 14 15  2  0  0  0  0
 15 16  1  0  0  0  0
 16 17  2  0  0  0  0
 17 12  1  0  0  0  0
 23 15  1  0  0  0  0
  6 18  1  0  0  0  0
  2 19  1  0  0  0  0
 10 20  2  0  0  0  0
 17 21  1  0  0  0  0
 16 22  1  0  0  0  0
 24 21  1  1  0  0  0
 24 25  1  0  0  0  0
 25 26  1  0  0  0  0
 26 27  1  0  0  0  0
 27 28  1  0  0  0  0
 28 29  1  0  0  0  0
 29 24  1  0  0  0  0
 26 30  1  1  0  0  0
 28 31  1  1  0  0  0
 29 32  1  6  0  0  0
 27 33  1  6  0  0  0
 30 34  1  0  0  0  0
M  END
>  <cdx:fragmentId>
5

$$$$
