7631.cdx
  Mrv1902 05222410192D          

 34 37  0  0  0  0            999 V2000
    6.5070   -8.9375    0.0000 C   0  0  0  0  0  0  0  0  0  0  0  0
    6.5070   -8.1125    0.0000 C   0  0  0  0  0  0  0  0  0  0  0  0
    7.2215   -7.7000    0.0000 C   0  0  0  0  0  0  0  0  0  0  0  0
    7.9360   -8.1125    0.0000 C   0  0  0  0  0  0  0  0  0  0  0  0
    7.9360   -8.9375    0.0000 C   0  0  0  0  0  0  0  0  0  0  0  0
    7.2215   -9.3500    0.0000 C   0  0  0  0  0  0  0  0  0  0  0  0
    8.6504   -7.7000    0.0000 O   0  0  0  0  0  0  0  0  0  0  0  0
    9.3649   -8.1125    0.0000 C   0  0  1  0  0  0  0  0  0  0  0  0
    9.3649   -8.9375    0.0000 C   0  0  2  0  0  0  0  0  0  0  0  0
    8.6504   -9.3500    0.0000 C   0  0  0  0  0  0  0  0  0  0  0  0
   10.0794   -7.7000    0.0000 C   0  0  0  0  0  0  0  0  0  0  0  0
   10.7939   -8.1125    0.0000 C   0  0  0  0  0  0  0  0  0  0  0  0
   10.0794   -9.3500    0.0000 O   0  0  0  0  0  0  0  0  0  0  0  0
   10.0794   -6.8750    0.0000 C   0  0  0  0  0  0  0  0  0  0  0  0
   10.7939   -6.4625    0.0000 C   0  0  0  0  0  0  0  0  0  0  0  0
   11.5083   -6.8750    0.0000 C   0  0  0  0  0  0  0  0  0  0  0  0
   11.5083   -7.7000    0.0000 C   0  0  0  0  0  0  0  0  0  0  0  0
    7.2215  -10.1750    0.0000 O   0  0  0  0  0  0  0  0  0  0  0  0
    5.7926   -7.7000    0.0000 O   0  0  0  0  0  0  0  0  0  0  0  0
    8.6504  -10.1750    0.0000 O   0  0  0  0  0  0  0  0  0  0  0  0
   12.2228   -8.1125    0.0000 O   0  0  0  0  0  0  0  0  0  0  0  0
   12.2228   -6.4625    0.0000 O   0  0  0  0  0  0  0  0  0  0  0  0
   10.7939   -5.6375    0.0000 O   0  0  0  0  0  0  0  0  0  0  0  0
    5.0781   -8.1125    0.0000 C   0  0  2  0  0  0  0  0  0  0  0  0
    4.3636   -7.7000    0.0000 O   0  0  0  0  0  0  0  0  0  0  0  0
    3.6491   -8.1125    0.0000 C   0  0  1  0  0  0  0  0  0  0  0  0
    3.6491   -8.9375    0.0000 C   0  0  2  0  0  0  0  0  0  0  0  0
    4.3636   -9.3500    0.0000 C   0  0  1  0  0  0  0  0  0  0  0  0
    5.0781   -8.9375    0.0000 C   0  0  1  0  0  0  0  0  0  0  0  0
    2.9347   -7.7000    0.0000 C   0  0  0  0  0  0  0  0  0  0  0  0
    4.3636  -10.1750    0.0000 O   0  0  0  0  0  0  0  0  0  0  0  0
    5.7926   -9.3500    0.0000 O   0  0  0  0  0  0  0  0  0  0  0  0
    2.9347   -9.3500    0.0000 O   0  0  0  0  0  0  0  0  0  0  0  0
    2.2202   -8.1125    0.0000 O   0  0  0  0  0  0  0  0  0  0  0  0
  1  2  1  0  0  0  0
  2  3  2  0  0  0  0
  3  4  1  0  0  0  0
  4  5  2  0  0  0  0
  5  6  1  0  0  0  0
  6  1  2  0  0  0  0
  4  7  1  0  0  0  0
  7  8  1  0  0  0  0
  8  9  1  0  0  0  0
  9 10  1  0  0  0  0
 10  5  1  0  0  0  0
  8 11  1  6  0  0  0
 11 12  2  0  0  0  0
  9 13  1  1  0  0  0
 11 14  1  0  0  0  0
 14 15  2  0  0  0  0
 15 16  1  0  0  0  0
 16 17  2  0  0  0  0
 17 12  1  0  0  0  0
 23 15  1  0  0  0  0
  6 18  1  0  0  0  0
  2 19  1  0  0  0  0
 10 20  2  0  0  0  0
 17 21  1  0  0  0  0
 16 22  1  0  0  0  0
 24 19  1  1  0  0  0
 24 25  1  0  0  0  0
 25 26  1  0  0  0  0
 26 27  1  0  0  0  0
 27 28  1  0  0  0  0
 28 29  1  0  0  0  0
 29 24  1  0  0  0  0
 26 30  1  1  0  0  0
 28 31  1  1  0  0  0
 29 32  1  6  0  0  0
 27 33  1  6  0  0  0
 30 34  1  0  0  0  0
M  END
>  <cdx:fragmentId>
174

$$$$
