76347.cdx
  Mrv1902 05222410272D          

 19 20  0  0  0  0            999 V2000
    7.2403   -6.9174    0.0000 N   0  0  0  0  0  0  0  0  0  0  0  0
    7.9548   -7.3299    0.0000 C   0  0  0  0  0  0  0  0  0  0  0  0
    7.9548   -8.1549    0.0000 C   0  0  1  0  0  0  0  0  0  0  0  0
    7.2403   -8.5674    0.0000 N   0  0  0  0  0  0  0  0  0  0  0  0
    6.5259   -8.1549    0.0000 C   0  0  0  0  0  0  0  0  0  0  0  0
    6.5259   -7.3299    0.0000 C   0  0  2  0  0  0  0  0  0  0  0  0
    8.6693   -6.9174    0.0000 O   0  0  0  0  0  0  0  0  0  0  0  0
    5.8114   -8.5674    0.0000 O   0  0  0  0  0  0  0  0  0  0  0  0
    5.8114   -6.9174    0.0000 C   0  0  0  0  0  0  0  0  0  0  0  0
    5.0969   -7.3299    0.0000 C   0  0  0  0  0  0  0  0  0  0  0  0
    5.0969   -8.1549    0.0000 C   0  0  0  0  0  0  0  0  0  0  0  0
    4.3824   -6.9174    0.0000 C   0  0  0  0  0  0  0  0  0  0  0  0
    8.6693   -8.5674    0.0000 C   0  0  0  0  0  0  0  0  0  0  0  0
    9.3837   -8.1549    0.0000 C   0  0  0  0  0  0  0  0  0  0  0  0
    9.3837   -7.3299    0.0000 C   0  0  0  0  0  0  0  0  0  0  0  0
   10.0982   -6.9174    0.0000 C   0  0  0  0  0  0  0  0  0  0  0  0
   10.8127   -7.3299    0.0000 C   0  0  0  0  0  0  0  0  0  0  0  0
   10.8127   -8.1549    0.0000 C   0  0  0  0  0  0  0  0  0  0  0  0
   10.0982   -8.5674    0.0000 C   0  0  0  0  0  0  0  0  0  0  0  0
  1  2  1  0  0  0  0
  2  3  1  0  0  0  0
  3  4  1  0  0  0  0
  4  5  1  0  0  0  0
  5  6  1  0  0  0  0
  1  6  1  0  0  0  0
  2  7  2  0  0  0  0
  5  8  2  0  0  0  0
  9 10  1  0  0  0  0
 10 11  1  0  0  0  0
 10 12  1  0  0  0  0
  6  9  1  6  0  0  0
 13 14  1  0  0  0  0
 14 15  1  0  0  0  0
 15 16  2  0  0  0  0
 16 17  1  0  0  0  0
 17 18  2  0  0  0  0
 18 19  1  0  0  0  0
 14 19  2  0  0  0  0
  3 13  1  6  0  0  0
M  END
>  <cdx:fragmentId>
27524

$$$$
