7636.cdx
  Mrv1902 05222410202D          

 34 36  0  0  0  0            999 V2000
    4.3741   -9.3109    0.0000 C   0  0  0  0  0  0  0  0  0  0  0  0
    4.3741   -8.4859    0.0000 C   0  0  0  0  0  0  0  0  0  0  0  0
    3.6597   -8.0734    0.0000 C   0  0  0  0  0  0  0  0  0  0  0  0
    2.9452   -8.4859    0.0000 C   0  0  0  0  0  0  0  0  0  0  0  0
    2.9452   -9.3109    0.0000 C   0  0  0  0  0  0  0  0  0  0  0  0
    3.6597   -9.7234    0.0000 C   0  0  0  0  0  0  0  0  0  0  0  0
    5.1588   -9.5659    0.0000 C   0  0  0  0  0  0  0  0  0  0  0  0
    5.6437   -8.8984    0.0000 C   0  0  0  0  0  0  0  0  0  0  0  0
    5.1588   -8.2310    0.0000 O   0  0  0  0  0  0  0  0  0  0  0  0
    2.2307   -8.0734    0.0000 O   0  0  0  0  0  0  0  0  0  0  0  0
    1.5163   -8.4859    0.0000 C   0  0  0  0  0  0  0  0  0  0  0  0
    1.5163   -9.3109    0.0000 C   0  0  0  0  0  0  0  0  0  0  0  0
    2.2307   -9.7234    0.0000 C   0  0  0  0  0  0  0  0  0  0  0  0
    0.8018   -8.0734    0.0000 O   0  0  0  0  0  0  0  0  0  0  0  0
    3.6614   -7.1041    0.0000 O   0  0  0  0  0  0  0  0  0  0  0  0
    2.9470   -6.6916    0.0000 C   0  0  0  0  0  0  0  0  0  0  0  0
    2.9470   -5.8666    0.0000 C   0  0  1  0  0  0  0  0  0  0  0  0
    3.6614   -5.4541    0.0000 C   0  0  0  0  0  0  0  0  0  0  0  0
    4.3759   -5.0416    0.0000 O   0  0  0  0  0  0  0  0  0  0  0  0
    4.3759   -5.8666    0.0000 C   0  0  0  0  0  0  0  0  0  0  0  0
    3.6614   -4.6291    0.0000 C   0  0  0  0  0  0  0  0  0  0  0  0
    2.2325   -5.4541    0.0000 O   0  0  0  0  0  0  0  0  0  0  0  0
    5.2215   -5.5159    0.0000 C   0  0  0  0  0  0  0  0  0  0  0  0
    5.9360   -5.1034    0.0000 C   0  0  0  0  0  0  0  0  0  0  0  0
    6.6505   -5.5159    0.0000 C   0  0  0  0  0  0  0  0  0  0  0  0
    7.3649   -5.1034    0.0000 C   0  0  0  0  0  0  0  0  0  0  0  0
    8.0794   -5.5159    0.0000 C   0  0  0  0  0  0  0  0  0  0  0  0
    8.7939   -5.1034    0.0000 C   0  0  0  0  0  0  0  0  0  0  0  0
    9.5084   -5.5159    0.0000 C   0  0  0  0  0  0  0  0  0  0  0  0
   10.2228   -5.1034    0.0000 C   0  0  0  0  0  0  0  0  0  0  0  0
   10.9373   -5.5159    0.0000 C   0  0  0  0  0  0  0  0  0  0  0  0
   11.6518   -5.1034    0.0000 C   0  0  0  0  0  0  0  0  0  0  0  0
   12.3662   -5.5159    0.0000 C   0  0  0  0  0  0  0  0  0  0  0  0
   13.0807   -5.1034    0.0000 C   0  0  0  0  0  0  0  0  0  0  0  0
  1  2  2  0  0  0  0
  2  3  1  0  0  0  0
  3  4  2  0  0  0  0
  4  5  1  0  0  0  0
  5  6  2  0  0  0  0
  6  1  1  0  0  0  0
  1  7  1  0  0  0  0
  7  8  2  0  0  0  0
  8  9  1  0  0  0  0
  9  2  1  0  0  0  0
  4 10  1  0  0  0  0
 10 11  1  0  0  0  0
 11 12  1  0  0  0  0
 12 13  2  0  0  0  0
 13  5  1  0  0  0  0
 11 14  2  0  0  0  0
 15 16  1  0  0  0  0
 16 17  1  0  0  0  0
 17 18  1  0  0  0  0
 18 19  1  0  0  0  0
 18 20  1  0  0  0  0
 18 21  1  0  0  0  0
 17 22  1  6  0  0  0
 23 24  1  0  0  0  0
 24 25  1  0  0  0  0
 25 26  1  0  0  0  0
 26 27  1  0  0  0  0
 27 28  1  0  0  0  0
 28 29  1  0  0  0  0
 29 30  1  0  0  0  0
 30 31  1  0  0  0  0
 31 32  1  0  0  0  0
 32 33  1  0  0  0  0
 33 34  1  0  0  0  0
 23 19  1  0  0  0  0
  3 15  1  0  0  0  0
M  END
>  <cdx:fragmentId>
72

$$$$
