7637.cdx
  Mrv1902 05222410202D          

 34 36  0  0  0  0            999 V2000
   11.8351   -7.6618    0.0000 C   0  0  0  0  0  0  0  0  0  0  0  0
   11.8351   -6.8368    0.0000 C   0  0  0  0  0  0  0  0  0  0  0  0
   11.1206   -6.4243    0.0000 C   0  0  0  0  0  0  0  0  0  0  0  0
   10.4061   -6.8368    0.0000 C   0  0  0  0  0  0  0  0  0  0  0  0
   10.4061   -7.6618    0.0000 C   0  0  0  0  0  0  0  0  0  0  0  0
   11.1206   -8.0743    0.0000 C   0  0  0  0  0  0  0  0  0  0  0  0
   12.6197   -7.9168    0.0000 C   0  0  0  0  0  0  0  0  0  0  0  0
   13.1046   -7.2493    0.0000 C   0  0  0  0  0  0  0  0  0  0  0  0
   12.6197   -6.5819    0.0000 O   0  0  0  0  0  0  0  0  0  0  0  0
    9.6917   -6.4243    0.0000 O   0  0  0  0  0  0  0  0  0  0  0  0
    8.9772   -6.8368    0.0000 C   0  0  0  0  0  0  0  0  0  0  0  0
    8.9772   -7.6618    0.0000 C   0  0  0  0  0  0  0  0  0  0  0  0
    9.6917   -8.0743    0.0000 C   0  0  0  0  0  0  0  0  0  0  0  0
    8.2627   -6.4243    0.0000 O   0  0  0  0  0  0  0  0  0  0  0  0
   11.8342   -9.3134    0.0000 C   0  0  0  0  0  0  0  0  0  0  0  0
   11.8342  -10.1384    0.0000 C   0  0  1  0  0  0  0  0  0  0  0  0
   11.1198  -10.5509    0.0000 C   0  0  0  0  0  0  0  0  0  0  0  0
   10.4053  -10.9634    0.0000 O   0  0  0  0  0  0  0  0  0  0  0  0
   10.4053  -10.1384    0.0000 C   0  0  0  0  0  0  0  0  0  0  0  0
   11.1198  -11.3759    0.0000 C   0  0  0  0  0  0  0  0  0  0  0  0
   12.5487  -10.5509    0.0000 O   0  0  0  0  0  0  0  0  0  0  0  0
    9.5597  -10.4891    0.0000 C   0  0  0  0  0  0  0  0  0  0  0  0
    8.8452  -10.9016    0.0000 C   0  0  0  0  0  0  0  0  0  0  0  0
    8.1307  -10.4891    0.0000 C   0  0  0  0  0  0  0  0  0  0  0  0
    7.4163  -10.9016    0.0000 C   0  0  0  0  0  0  0  0  0  0  0  0
    6.7018  -10.4891    0.0000 C   0  0  0  0  0  0  0  0  0  0  0  0
    5.9873  -10.9016    0.0000 C   0  0  0  0  0  0  0  0  0  0  0  0
    5.2728  -10.4891    0.0000 C   0  0  0  0  0  0  0  0  0  0  0  0
    4.5584  -10.9016    0.0000 C   0  0  0  0  0  0  0  0  0  0  0  0
    3.8439  -10.4891    0.0000 C   0  0  0  0  0  0  0  0  0  0  0  0
    3.1294  -10.9016    0.0000 C   0  0  0  0  0  0  0  0  0  0  0  0
    2.4150  -10.4891    0.0000 C   0  0  0  0  0  0  0  0  0  0  0  0
    1.7005  -10.9016    0.0000 C   0  0  0  0  0  0  0  0  0  0  0  0
   11.1198   -8.9009    0.0000 O   0  0  0  0  0  0  0  0  0  0  0  0
  1  2  2  0  0  0  0
  2  3  1  0  0  0  0
  3  4  2  0  0  0  0
  4  5  1  0  0  0  0
  5  6  2  0  0  0  0
  6  1  1  0  0  0  0
  1  7  1  0  0  0  0
  7  8  2  0  0  0  0
  8  9  1  0  0  0  0
  9  2  1  0  0  0  0
  4 10  1  0  0  0  0
 10 11  1  0  0  0  0
 11 12  1  0  0  0  0
 12 13  2  0  0  0  0
 13  5  1  0  0  0  0
 11 14  2  0  0  0  0
 15 16  1  0  0  0  0
 16 17  1  0  0  0  0
 17 18  1  0  0  0  0
 17 19  1  0  0  0  0
 17 20  1  0  0  0  0
 16 21  1  6  0  0  0
 22 23  1  0  0  0  0
 23 24  1  0  0  0  0
 24 25  1  0  0  0  0
 25 26  1  0  0  0  0
 26 27  1  0  0  0  0
 27 28  1  0  0  0  0
 28 29  1  0  0  0  0
 29 30  1  0  0  0  0
 30 31  1  0  0  0  0
 31 32  1  0  0  0  0
 32 33  1  0  0  0  0
 22 18  1  0  0  0  0
 15 34  1  0  0  0  0
  6 34  1  0  0  0  0
M  END
>  <cdx:fragmentId>
72

$$$$
