7638.cdx
  Mrv1902 05222410272D          

 36 38  0  0  0  0            999 V2000
   11.1751   -8.7291    0.0000 C   0  0  0  0  0  0  0  0  0  0  0  0
   11.1751   -7.9041    0.0000 C   0  0  0  0  0  0  0  0  0  0  0  0
   10.4606   -7.4916    0.0000 C   0  0  0  0  0  0  0  0  0  0  0  0
    9.7461   -7.9041    0.0000 C   0  0  0  0  0  0  0  0  0  0  0  0
    9.7461   -8.7291    0.0000 C   0  0  0  0  0  0  0  0  0  0  0  0
   10.4606   -9.1416    0.0000 C   0  0  0  0  0  0  0  0  0  0  0  0
   11.9597   -8.9840    0.0000 C   0  0  0  0  0  0  0  0  0  0  0  0
   12.4446   -8.3166    0.0000 C   0  0  0  0  0  0  0  0  0  0  0  0
   11.9597   -7.6491    0.0000 O   0  0  0  0  0  0  0  0  0  0  0  0
    9.0317   -7.4916    0.0000 O   0  0  0  0  0  0  0  0  0  0  0  0
    8.3172   -7.9041    0.0000 C   0  0  0  0  0  0  0  0  0  0  0  0
    8.3172   -8.7291    0.0000 C   0  0  0  0  0  0  0  0  0  0  0  0
    9.0317   -9.1416    0.0000 C   0  0  0  0  0  0  0  0  0  0  0  0
    7.6027   -7.4916    0.0000 O   0  0  0  0  0  0  0  0  0  0  0  0
   10.4624   -6.5222    0.0000 O   0  0  0  0  0  0  0  0  0  0  0  0
   11.1742  -10.3807    0.0000 C   0  0  0  0  0  0  0  0  0  0  0  0
   11.1742  -11.2057    0.0000 C   0  0  1  0  0  0  0  0  0  0  0  0
   10.4598  -11.6182    0.0000 C   0  0  0  0  0  0  0  0  0  0  0  0
    9.7453  -12.0307    0.0000 O   0  0  0  0  0  0  0  0  0  0  0  0
    9.7453  -11.2057    0.0000 C   0  0  0  0  0  0  0  0  0  0  0  0
   10.4598  -12.4432    0.0000 C   0  0  0  0  0  0  0  0  0  0  0  0
   11.8887  -11.6182    0.0000 O   0  0  0  0  0  0  0  0  0  0  0  0
    8.8997  -11.5563    0.0000 C   0  0  0  0  0  0  0  0  0  0  0  0
    8.1852  -11.9688    0.0000 C   0  0  0  0  0  0  0  0  0  0  0  0
    7.4707  -11.5563    0.0000 C   0  0  0  0  0  0  0  0  0  0  0  0
    6.7563  -11.9688    0.0000 C   0  0  0  0  0  0  0  0  0  0  0  0
    6.0418  -11.5563    0.0000 C   0  0  0  0  0  0  0  0  0  0  0  0
    5.3273  -11.9688    0.0000 C   0  0  0  0  0  0  0  0  0  0  0  0
    4.6128  -11.5563    0.0000 C   0  0  0  0  0  0  0  0  0  0  0  0
    3.8984  -11.9688    0.0000 C   0  0  0  0  0  0  0  0  0  0  0  0
    3.1839  -11.5563    0.0000 C   0  0  0  0  0  0  0  0  0  0  0  0
    2.4694  -11.9688    0.0000 C   0  0  0  0  0  0  0  0  0  0  0  0
    1.7550  -11.5563    0.0000 C   0  0  0  0  0  0  0  0  0  0  0  0
    1.0405  -11.9688    0.0000 C   0  0  0  0  0  0  0  0  0  0  0  0
   10.4598   -9.9682    0.0000 O   0  0  0  0  0  0  0  0  0  0  0  0
    9.7487   -6.1084    0.0000 C   0  0  0  0  0  0  0  0  0  0  0  0
  1  2  2  0  0  0  0
  2  3  1  0  0  0  0
  3  4  2  0  0  0  0
  4  5  1  0  0  0  0
  5  6  2  0  0  0  0
  6  1  1  0  0  0  0
  1  7  1  0  0  0  0
  7  8  2  0  0  0  0
  8  9  1  0  0  0  0
  9  2  1  0  0  0  0
  4 10  1  0  0  0  0
 10 11  1  0  0  0  0
 11 12  1  0  0  0  0
 12 13  2  0  0  0  0
 13  5  1  0  0  0  0
 11 14  2  0  0  0  0
 16 17  1  0  0  0  0
 17 18  1  0  0  0  0
 18 19  1  0  0  0  0
 18 20  1  0  0  0  0
 18 21  1  0  0  0  0
 17 22  1  6  0  0  0
 23 24  1  0  0  0  0
 24 25  1  0  0  0  0
 25 26  1  0  0  0  0
 26 27  1  0  0  0  0
 27 28  1  0  0  0  0
 28 29  1  0  0  0  0
 29 30  1  0  0  0  0
 30 31  1  0  0  0  0
 31 32  1  0  0  0  0
 32 33  1  0  0  0  0
 33 34  1  0  0  0  0
 23 19  1  0  0  0  0
  3 15  1  0  0  0  0
 16 35  1  0  0  0  0
  6 35  1  0  0  0  0
 15 36  1  0  0  0  0
M  END
>  <cdx:fragmentId>
72

$$$$
