7639.cdx
  Mrv1902 05222410262D          

 36 38  0  0  0  0            999 V2000
    3.8402   -9.4727    0.0000 C   0  0  0  0  0  0  0  0  0  0  0  0
    3.8402   -8.6477    0.0000 C   0  0  0  0  0  0  0  0  0  0  0  0
    3.1257   -8.2352    0.0000 C   0  0  0  0  0  0  0  0  0  0  0  0
    2.4112   -8.6477    0.0000 C   0  0  0  0  0  0  0  0  0  0  0  0
    2.4112   -9.4727    0.0000 C   0  0  0  0  0  0  0  0  0  0  0  0
    3.1257   -9.8852    0.0000 C   0  0  0  0  0  0  0  0  0  0  0  0
    4.6248   -9.7277    0.0000 C   0  0  0  0  0  0  0  0  0  0  0  0
    5.1097   -9.0602    0.0000 C   0  0  0  0  0  0  0  0  0  0  0  0
    4.6248   -8.3928    0.0000 O   0  0  0  0  0  0  0  0  0  0  0  0
    1.6968   -8.2352    0.0000 O   0  0  0  0  0  0  0  0  0  0  0  0
    0.9823   -8.6477    0.0000 C   0  0  0  0  0  0  0  0  0  0  0  0
    0.9823   -9.4727    0.0000 C   0  0  0  0  0  0  0  0  0  0  0  0
    1.6968   -9.8852    0.0000 C   0  0  0  0  0  0  0  0  0  0  0  0
    0.2678   -8.2352    0.0000 O   0  0  0  0  0  0  0  0  0  0  0  0
    2.4049   -6.8068    0.0000 C   0  0  0  0  0  0  0  0  0  0  0  0
    2.4049   -5.9818    0.0000 C   0  0  1  0  0  0  0  0  0  0  0  0
    3.1194   -5.5693    0.0000 C   0  0  0  0  0  0  0  0  0  0  0  0
    3.8338   -5.1568    0.0000 O   0  0  0  0  0  0  0  0  0  0  0  0
    3.8338   -5.9818    0.0000 C   0  0  0  0  0  0  0  0  0  0  0  0
    3.1194   -4.7443    0.0000 C   0  0  0  0  0  0  0  0  0  0  0  0
    1.6904   -5.5693    0.0000 O   0  0  0  0  0  0  0  0  0  0  0  0
    4.6795   -5.6312    0.0000 C   0  0  0  0  0  0  0  0  0  0  0  0
    5.3939   -5.2187    0.0000 C   0  0  0  0  0  0  0  0  0  0  0  0
    6.1084   -5.6312    0.0000 C   0  0  0  0  0  0  0  0  0  0  0  0
    6.8229   -5.2187    0.0000 C   0  0  0  0  0  0  0  0  0  0  0  0
    7.5373   -5.6312    0.0000 C   0  0  0  0  0  0  0  0  0  0  0  0
    8.2518   -5.2187    0.0000 C   0  0  0  0  0  0  0  0  0  0  0  0
    8.9663   -5.6312    0.0000 C   0  0  0  0  0  0  0  0  0  0  0  0
    9.6808   -5.2187    0.0000 C   0  0  0  0  0  0  0  0  0  0  0  0
   10.3952   -5.6312    0.0000 C   0  0  0  0  0  0  0  0  0  0  0  0
   11.1097   -5.2187    0.0000 C   0  0  0  0  0  0  0  0  0  0  0  0
   11.8242   -5.6312    0.0000 C   0  0  0  0  0  0  0  0  0  0  0  0
   12.5386   -5.2187    0.0000 C   0  0  0  0  0  0  0  0  0  0  0  0
   13.2531   -5.6312    0.0000 C   0  0  0  0  0  0  0  0  0  0  0  0
   13.9676   -5.2187    0.0000 C   0  0  0  0  0  0  0  0  0  0  0  0
    3.1194   -7.2193    0.0000 O   0  0  0  0  0  0  0  0  0  0  0  0
  1  2  2  0  0  0  0
  2  3  1  0  0  0  0
  3  4  2  0  0  0  0
  4  5  1  0  0  0  0
  5  6  2  0  0  0  0
  6  1  1  0  0  0  0
  1  7  1  0  0  0  0
  7  8  2  0  0  0  0
  8  9  1  0  0  0  0
  9  2  1  0  0  0  0
  4 10  1  0  0  0  0
 10 11  1  0  0  0  0
 11 12  1  0  0  0  0
 12 13  2  0  0  0  0
 13  5  1  0  0  0  0
 11 14  2  0  0  0  0
 15 16  1  0  0  0  0
 16 17  1  0  0  0  0
 17 18  1  0  0  0  0
 17 19  1  0  0  0  0
 17 20  1  0  0  0  0
 16 21  1  6  0  0  0
 22 23  1  0  0  0  0
 23 24  1  0  0  0  0
 24 25  1  0  0  0  0
 25 26  1  0  0  0  0
 26 27  1  0  0  0  0
 27 28  1  0  0  0  0
 28 29  1  0  0  0  0
 29 30  1  0  0  0  0
 30 31  1  0  0  0  0
 31 32  1  0  0  0  0
 32 33  1  0  0  0  0
 22 18  1  0  0  0  0
 33 34  1  0  0  0  0
 34 35  1  0  0  0  0
 15 36  1  0  0  0  0
  3 36  1  0  0  0  0
M  END
>  <cdx:fragmentId>
72

$$$$
