7640.cdx
  Mrv1902 05222410232D          

 36 38  0  0  0  0            999 V2000
   11.8355   -6.3921    0.0000 C   0  0  0  0  0  0  0  0  0  0  0  0
   11.8355   -5.5671    0.0000 C   0  0  0  0  0  0  0  0  0  0  0  0
   11.1210   -5.1546    0.0000 C   0  0  0  0  0  0  0  0  0  0  0  0
   10.4065   -5.5671    0.0000 C   0  0  0  0  0  0  0  0  0  0  0  0
   10.4065   -6.3921    0.0000 C   0  0  0  0  0  0  0  0  0  0  0  0
   11.1210   -6.8046    0.0000 C   0  0  0  0  0  0  0  0  0  0  0  0
   12.6201   -6.6471    0.0000 C   0  0  0  0  0  0  0  0  0  0  0  0
   13.1050   -5.9796    0.0000 C   0  0  0  0  0  0  0  0  0  0  0  0
   12.6201   -5.3122    0.0000 O   0  0  0  0  0  0  0  0  0  0  0  0
    9.6921   -5.1546    0.0000 O   0  0  0  0  0  0  0  0  0  0  0  0
    8.9776   -5.5671    0.0000 C   0  0  0  0  0  0  0  0  0  0  0  0
    8.9776   -6.3921    0.0000 C   0  0  0  0  0  0  0  0  0  0  0  0
    9.6921   -6.8046    0.0000 C   0  0  0  0  0  0  0  0  0  0  0  0
    8.2631   -5.1546    0.0000 O   0  0  0  0  0  0  0  0  0  0  0  0
   11.8126   -8.1829    0.0000 C   0  0  0  0  0  0  0  0  0  0  0  0
   11.8126   -9.0079    0.0000 C   0  0  1  0  0  0  0  0  0  0  0  0
   11.0981   -9.4204    0.0000 C   0  0  0  0  0  0  0  0  0  0  0  0
   10.3836   -9.8329    0.0000 O   0  0  0  0  0  0  0  0  0  0  0  0
   10.3836   -9.0079    0.0000 C   0  0  0  0  0  0  0  0  0  0  0  0
   11.0981  -10.2454    0.0000 C   0  0  0  0  0  0  0  0  0  0  0  0
   12.5270   -9.4204    0.0000 O   0  0  0  0  0  0  0  0  0  0  0  0
    9.5380   -9.3585    0.0000 C   0  0  0  0  0  0  0  0  0  0  0  0
    8.8235   -9.7710    0.0000 C   0  0  0  0  0  0  0  0  0  0  0  0
    8.1090   -9.3585    0.0000 C   0  0  0  0  0  0  0  0  0  0  0  0
    7.3946   -9.7710    0.0000 C   0  0  0  0  0  0  0  0  0  0  0  0
    6.6801   -9.3585    0.0000 C   0  0  0  0  0  0  0  0  0  0  0  0
    5.9656   -9.7710    0.0000 C   0  0  0  0  0  0  0  0  0  0  0  0
    5.2512   -9.3585    0.0000 C   0  0  0  0  0  0  0  0  0  0  0  0
    4.5367   -9.7710    0.0000 C   0  0  0  0  0  0  0  0  0  0  0  0
    3.8222   -9.3585    0.0000 C   0  0  0  0  0  0  0  0  0  0  0  0
    3.1077   -9.7710    0.0000 C   0  0  0  0  0  0  0  0  0  0  0  0
    2.3933   -9.3585    0.0000 C   0  0  0  0  0  0  0  0  0  0  0  0
    1.6788   -9.7710    0.0000 C   0  0  0  0  0  0  0  0  0  0  0  0
    0.9643   -9.3585    0.0000 C   0  0  0  0  0  0  0  0  0  0  0  0
    0.2499   -9.7710    0.0000 C   0  0  0  0  0  0  0  0  0  0  0  0
   11.0981   -7.7704    0.0000 O   0  0  0  0  0  0  0  0  0  0  0  0
  1  2  2  0  0  0  0
  2  3  1  0  0  0  0
  3  4  2  0  0  0  0
  4  5  1  0  0  0  0
  5  6  2  0  0  0  0
  6  1  1  0  0  0  0
  1  7  1  0  0  0  0
  7  8  2  0  0  0  0
  8  9  1  0  0  0  0
  9  2  1  0  0  0  0
  4 10  1  0  0  0  0
 10 11  1  0  0  0  0
 11 12  1  0  0  0  0
 12 13  2  0  0  0  0
 13  5  1  0  0  0  0
 11 14  2  0  0  0  0
 15 16  1  0  0  0  0
 16 17  1  0  0  0  0
 17 18  1  0  0  0  0
 17 19  1  0  0  0  0
 17 20  1  0  0  0  0
 16 21  1  6  0  0  0
 22 23  1  0  0  0  0
 23 24  1  0  0  0  0
 24 25  1  0  0  0  0
 25 26  1  0  0  0  0
 26 27  1  0  0  0  0
 27 28  1  0  0  0  0
 28 29  1  0  0  0  0
 29 30  1  0  0  0  0
 30 31  1  0  0  0  0
 31 32  1  0  0  0  0
 32 33  1  0  0  0  0
 22 18  1  0  0  0  0
 33 34  1  0  0  0  0
 34 35  1  0  0  0  0
 15 36  1  0  0  0  0
  6 36  1  0  0  0  0
M  END
>  <cdx:fragmentId>
72

$$$$
