764160.cdx
  Mrv1902 05222410192D          

 16 17  0  0  0  0            999 V2000
    8.9117   -6.9600    0.0000 C   0  0  0  0  0  0  0  0  0  0  0  0
    9.6262   -7.3725    0.0000 C   0  0  0  0  0  0  0  0  0  0  0  0
   10.3406   -6.9600    0.0000 C   0  0  0  0  0  0  0  0  0  0  0  0
   10.3406   -6.1350    0.0000 C   0  0  0  0  0  0  0  0  0  0  0  0
    9.6262   -5.7225    0.0000 C   0  0  0  0  0  0  0  0  0  0  0  0
    8.9117   -6.1350    0.0000 C   0  0  0  0  0  0  0  0  0  0  0  0
    5.3393   -5.7225    0.0000 C   0  0  0  0  0  0  0  0  0  0  0  0
    4.6249   -6.1350    0.0000 C   0  0  0  0  0  0  0  0  0  0  0  0
    4.6249   -6.9600    0.0000 C   0  0  0  0  0  0  0  0  0  0  0  0
    5.3393   -7.3725    0.0000 C   0  0  0  0  0  0  0  0  0  0  0  0
    6.0538   -6.9600    0.0000 C   0  0  0  0  0  0  0  0  0  0  0  0
    6.0538   -6.1350    0.0000 N   0  0  0  0  0  0  0  0  0  0  0  0
    6.7683   -4.8975    0.0000 O   0  0  0  0  0  0  0  0  0  0  0  0
    8.1972   -5.7225    0.0000 C   0  0  0  0  0  0  0  0  0  0  0  0
    7.4827   -6.1350    0.0000 C   0  0  0  0  0  0  0  0  0  0  0  0
    6.7683   -5.7225    0.0000 C   0  0  0  0  0  0  0  0  0  0  0  0
 14  6  1  0  0  0  0
  6  1  2  0  0  0  0
  2  1  1  0  0  0  0
  3  2  2  0  0  0  0
  4  3  1  0  0  0  0
  5  4  2  0  0  0  0
  6  5  1  0  0  0  0
 16 12  1  0  0  0  0
 12  7  1  0  0  0  0
  8  7  1  0  0  0  0
  9  8  1  0  0  0  0
 10  9  1  0  0  0  0
 11 10  1  0  0  0  0
 12 11  1  0  0  0  0
 16 13  2  0  0  0  0
 15 14  2  0  0  0  0
 16 15  1  0  0  0  0
M  END
>  <cdx:groupId>
51

>  <cdx:fragmentId>
13

$$$$
