7641.cdx
  Mrv1902 05222410222D          

 26 25  0  0  0  0            999 V2000
    5.6801   -4.0631    0.0000 C   0  0  0  0  0  0  0  0  0  0  0  0
    6.3945   -4.4756    0.0000 C   0  0  0  0  0  0  0  0  0  0  0  0
    7.1090   -4.0631    0.0000 C   0  0  0  0  0  0  0  0  0  0  0  0
    7.8235   -4.4756    0.0000 C   0  0  0  0  0  0  0  0  0  0  0  0
    8.5380   -4.0631    0.0000 C   0  0  0  0  0  0  0  0  0  0  0  0
    9.2524   -4.4756    0.0000 C   0  0  0  0  0  0  0  0  0  0  0  0
    5.6801   -3.2381    0.0000 O   0  0  0  0  0  0  0  0  0  0  0  0
    4.9656   -4.4756    0.0000 O   0  0  0  0  0  0  0  0  0  0  0  0
    9.2524   -5.3006    0.0000 O   0  0  0  0  0  0  0  0  0  0  0  0
    9.9669   -4.0631    0.0000 O   0  0  0  0  0  0  0  0  0  0  0  0
    4.2511   -4.0631    0.0000 C   0  0  0  0  0  0  0  0  0  0  0  0
    3.5367   -4.4756    0.0000 C   0  0  0  0  0  0  0  0  0  0  0  0
    2.8222   -4.0631    0.0000 C   0  0  0  0  0  0  0  0  0  0  0  0
    2.1077   -4.4756    0.0000 C   0  0  0  0  0  0  0  0  0  0  0  0
    1.3932   -4.0631    0.0000 C   0  0  0  0  0  0  0  0  0  0  0  0
    0.6788   -4.4756    0.0000 C   0  0  0  0  0  0  0  0  0  0  0  0
    3.5367   -5.3006    0.0000 C   0  0  0  0  0  0  0  0  0  0  0  0
    2.8222   -5.7131    0.0000 C   0  0  0  0  0  0  0  0  0  0  0  0
   10.6814   -4.4756    0.0000 C   0  0  0  0  0  0  0  0  0  0  0  0
   11.3958   -4.0631    0.0000 C   0  0  0  0  0  0  0  0  0  0  0  0
   12.1103   -4.4756    0.0000 C   0  0  0  0  0  0  0  0  0  0  0  0
   12.8248   -4.0631    0.0000 C   0  0  0  0  0  0  0  0  0  0  0  0
   13.5393   -4.4756    0.0000 C   0  0  0  0  0  0  0  0  0  0  0  0
   14.2537   -4.0631    0.0000 C   0  0  0  0  0  0  0  0  0  0  0  0
   11.3958   -3.2381    0.0000 C   0  0  0  0  0  0  0  0  0  0  0  0
   12.1103   -2.8256    0.0000 C   0  0  0  0  0  0  0  0  0  0  0  0
  1  2  1  0  0  0  0
  2  3  1  0  0  0  0
  3  4  1  0  0  0  0
  4  5  1  0  0  0  0
  5  6  1  0  0  0  0
  1  7  2  0  0  0  0
  1  8  1  0  0  0  0
  6  9  2  0  0  0  0
  6 10  1  0  0  0  0
 11 12  1  0  0  0  0
 12 13  1  0  0  0  0
 13 14  1  0  0  0  0
 14 15  1  0  0  0  0
 15 16  1  0  0  0  0
 17 18  1  0  0  0  0
 12 17  1  0  0  0  0
  8 11  1  0  0  0  0
 19 20  1  0  0  0  0
 20 21  1  0  0  0  0
 21 22  1  0  0  0  0
 22 23  1  0  0  0  0
 23 24  1  0  0  0  0
 25 26  1  0  0  0  0
 20 25  1  0  0  0  0
 10 19  1  0  0  0  0
M  END
>  <cdx:groupId>
79

>  <cdx:fragmentId>
5

$$$$
