7642.cdx
  Mrv1902 05222410222D          

 40 42  0  0  0  0            999 V2000
    4.0083  -14.2926    0.0000 C   0  0  0  0  0  0  0  0  0  0  0  0
    4.0083  -13.4676    0.0000 C   0  0  0  0  0  0  0  0  0  0  0  0
    3.2939  -13.0551    0.0000 C   0  0  0  0  0  0  0  0  0  0  0  0
    2.5794  -13.4676    0.0000 C   0  0  0  0  0  0  0  0  0  0  0  0
    2.5794  -14.2926    0.0000 C   0  0  0  0  0  0  0  0  0  0  0  0
    3.2939  -14.7051    0.0000 C   0  0  0  0  0  0  0  0  0  0  0  0
    4.7930  -14.5476    0.0000 C   0  0  0  0  0  0  0  0  0  0  0  0
    5.2779  -13.8801    0.0000 C   0  0  0  0  0  0  0  0  0  0  0  0
    4.7930  -13.2127    0.0000 O   0  0  0  0  0  0  0  0  0  0  0  0
    1.8649  -13.0551    0.0000 O   0  0  0  0  0  0  0  0  0  0  0  0
    1.1505  -13.4676    0.0000 C   0  0  0  0  0  0  0  0  0  0  0  0
    1.1505  -14.2926    0.0000 C   0  0  0  0  0  0  0  0  0  0  0  0
    1.8649  -14.7051    0.0000 C   0  0  0  0  0  0  0  0  0  0  0  0
    0.4360  -13.0551    0.0000 O   0  0  0  0  0  0  0  0  0  0  0  0
    2.5731  -11.6267    0.0000 C   0  0  0  0  0  0  0  0  0  0  0  0
    2.5731  -10.8017    0.0000 C   0  0  1  0  0  0  0  0  0  0  0  0
    3.2875  -10.3892    0.0000 C   0  0  0  0  0  0  0  0  0  0  0  0
    4.0020   -9.9767    0.0000 O   0  0  0  0  0  0  0  0  0  0  0  0
    4.0020  -10.8017    0.0000 C   0  0  0  0  0  0  0  0  0  0  0  0
    3.2875   -9.5642    0.0000 C   0  0  0  0  0  0  0  0  0  0  0  0
    1.8586  -10.3892    0.0000 O   0  0  0  0  0  0  0  0  0  0  0  0
    4.8476  -10.4511    0.0000 C   0  0  0  0  0  0  0  0  0  0  0  0
    5.5621  -10.0386    0.0000 C   0  0  0  0  0  0  0  0  0  0  0  0
    6.2766  -10.4511    0.0000 C   0  0  0  0  0  0  0  0  0  0  0  0
    6.9910  -10.0386    0.0000 C   0  0  0  0  0  0  0  0  0  0  0  0
    7.7055  -10.4511    0.0000 C   0  0  0  0  0  0  0  0  0  0  0  0
    8.4200  -10.0386    0.0000 C   0  0  0  0  0  0  0  0  0  0  0  0
    9.1344  -10.4511    0.0000 C   0  0  0  0  0  0  0  0  0  0  0  0
    9.8489  -10.0386    0.0000 C   0  0  0  0  0  0  0  0  0  0  0  0
   10.5634  -10.4511    0.0000 C   0  0  0  0  0  0  0  0  0  0  0  0
    3.2875  -12.0392    0.0000 O   0  0  0  0  0  0  0  0  0  0  0  0
   11.2779  -10.0386    0.0000 C   0  0  0  0  0  0  0  0  0  0  0  0
   11.2779   -9.2136    0.0000 C   0  0  0  0  0  0  0  0  0  0  0  0
   11.9923   -8.8011    0.0000 C   0  0  0  0  0  0  0  0  0  0  0  0
   11.9923   -7.9761    0.0000 C   0  0  0  0  0  0  0  0  0  0  0  0
   12.7068   -7.5636    0.0000 C   0  0  0  0  0  0  0  0  0  0  0  0
   12.7068   -6.7386    0.0000 C   0  0  0  0  0  0  0  0  0  0  0  0
   13.4213   -6.3261    0.0000 C   0  0  0  0  0  0  0  0  0  0  0  0
   13.4213   -5.5011    0.0000 C   0  0  0  0  0  0  0  0  0  0  0  0
   14.1357   -5.0886    0.0000 C   0  0  0  0  0  0  0  0  0  0  0  0
  1  2  2  0  0  0  0
  2  3  1  0  0  0  0
  3  4  2  0  0  0  0
  4  5  1  0  0  0  0
  5  6  2  0  0  0  0
  6  1  1  0  0  0  0
  1  7  1  0  0  0  0
  7  8  2  0  0  0  0
  8  9  1  0  0  0  0
  9  2  1  0  0  0  0
  4 10  1  0  0  0  0
 10 11  1  0  0  0  0
 11 12  1  0  0  0  0
 12 13  2  0  0  0  0
 13  5  1  0  0  0  0
 11 14  2  0  0  0  0
 15 16  1  0  0  0  0
 16 17  1  0  0  0  0
 17 18  1  0  0  0  0
 17 19  1  0  0  0  0
 17 20  1  0  0  0  0
 16 21  1  6  0  0  0
 22 23  1  0  0  0  0
 23 24  1  0  0  0  0
 24 25  1  0  0  0  0
 25 26  1  0  0  0  0
 26 27  1  0  0  0  0
 27 28  1  0  0  0  0
 28 29  1  0  0  0  0
 29 30  1  0  0  0  0
 22 18  1  0  0  0  0
 15 31  1  0  0  0  0
  3 31  1  0  0  0  0
 30 32  2  0  0  0  0
 32 33  1  0  0  0  0
 33 34  1  0  0  0  0
 34 35  1  0  0  0  0
 35 36  1  0  0  0  0
 36 37  1  0  0  0  0
 37 38  1  0  0  0  0
 38 39  1  0  0  0  0
 39 40  1  0  0  0  0
M  END
>  <cdx:fragmentId>
225

$$$$
