7643.cdx
  Mrv1902 05222410222D          

 12 12  0  0  0  0            999 V2000
    8.0698   -3.3616    0.0000 C   0  0  0  0  0  0  0  0  0  0  0  0
    7.3553   -3.7741    0.0000 C   0  0  0  0  0  0  0  0  0  0  0  0
    6.6408   -3.3616    0.0000 C   0  0  0  0  0  0  0  0  0  0  0  0
    8.0698   -2.5366    0.0000 O   0  0  0  0  0  0  0  0  0  0  0  0
    8.7842   -3.7741    0.0000 O   0  0  0  0  0  0  0  0  0  0  0  0
    5.9264   -3.7741    0.0000 C   0  0  0  0  0  0  0  0  0  0  0  0
    5.9264   -4.5991    0.0000 C   0  0  0  0  0  0  0  0  0  0  0  0
    5.2119   -5.0116    0.0000 C   0  0  0  0  0  0  0  0  0  0  0  0
    4.4974   -4.5991    0.0000 C   0  0  0  0  0  0  0  0  0  0  0  0
    4.4974   -3.7741    0.0000 C   0  0  0  0  0  0  0  0  0  0  0  0
    5.2119   -3.3616    0.0000 C   0  0  0  0  0  0  0  0  0  0  0  0
    9.4987   -3.3616    0.0000 C   0  0  0  0  0  0  0  0  0  0  0  0
  1  2  1  0  0  0  0
  2  3  1  0  0  0  0
  1  4  2  0  0  0  0
  1  5  1  0  0  0  0
  6  7  1  0  0  0  0
  7  8  2  0  0  0  0
  8  9  1  0  0  0  0
  9 10  2  0  0  0  0
 10 11  1  0  0  0  0
  6 11  2  0  0  0  0
  3  6  1  0  0  0  0
  5 12  1  0  0  0  0
M  END
>  <cdx:fragmentId>
15

$$$$
