7644.cdx
  Mrv1902 05222410202D          

 12 12  0  0  0  0            999 V2000
    8.3516   -4.3791    0.0000 C   0  0  0  0  0  0  0  0  0  0  0  0
    7.6372   -4.7916    0.0000 C   0  0  0  0  0  0  0  0  0  0  0  0
    6.9227   -4.3791    0.0000 C   0  0  0  0  0  0  0  0  0  0  0  0
    8.3516   -3.5541    0.0000 O   0  0  0  0  0  0  0  0  0  0  0  0
    9.0661   -4.7916    0.0000 O   0  0  0  0  0  0  0  0  0  0  0  0
    6.2082   -4.7916    0.0000 C   0  0  0  0  0  0  0  0  0  0  0  0
    6.2082   -5.6166    0.0000 C   0  0  0  0  0  0  0  0  0  0  0  0
    5.4938   -6.0291    0.0000 C   0  0  0  0  0  0  0  0  0  0  0  0
    4.7793   -5.6166    0.0000 C   0  0  0  0  0  0  0  0  0  0  0  0
    4.7793   -4.7916    0.0000 C   0  0  0  0  0  0  0  0  0  0  0  0
    5.4938   -4.3791    0.0000 C   0  0  0  0  0  0  0  0  0  0  0  0
    9.7806   -4.3791    0.0000 C   0  0  0  0  0  0  0  0  0  0  0  0
  1  2  1  0  0  0  0
  2  3  2  0  0  0  0
  1  4  2  0  0  0  0
  1  5  1  0  0  0  0
  6  7  1  0  0  0  0
  7  8  2  0  0  0  0
  8  9  1  0  0  0  0
  9 10  2  0  0  0  0
 10 11  1  0  0  0  0
  6 11  2  0  0  0  0
  3  6  1  0  0  0  0
  5 12  1  0  0  0  0
M  END
>  <cdx:fragmentId>
15

$$$$
