7645.cdx
  Mrv1902 05222410212D          

 41 43  0  0  0  0            999 V2000
    4.1256   -8.1161    0.0000 C   0  0  0  0  0  0  0  0  0  0  0  0
    4.1256   -7.2911    0.0000 C   0  0  0  0  0  0  0  0  0  0  0  0
    3.4112   -6.8786    0.0000 C   0  0  0  0  0  0  0  0  0  0  0  0
    2.6967   -7.2911    0.0000 C   0  0  0  0  0  0  0  0  0  0  0  0
    2.6967   -8.1161    0.0000 C   0  0  0  0  0  0  0  0  0  0  0  0
    3.4112   -8.5286    0.0000 C   0  0  0  0  0  0  0  0  0  0  0  0
    1.9822   -6.8786    0.0000 O   0  0  0  0  0  0  0  0  0  0  0  0
    1.2677   -7.2911    0.0000 C   0  0  0  0  0  0  0  0  0  0  0  0
    1.2677   -8.1161    0.0000 C   0  0  0  0  0  0  0  0  0  0  0  0
    1.9822   -8.5286    0.0000 C   0  0  0  0  0  0  0  0  0  0  0  0
    4.9102   -8.3710    0.0000 C   0  0  0  0  0  0  0  0  0  0  0  0
    5.3952   -7.7036    0.0000 C   0  0  0  0  0  0  0  0  0  0  0  0
    4.9102   -7.0361    0.0000 O   0  0  0  0  0  0  0  0  0  0  0  0
    3.4112   -9.3536    0.0000 O   0  0  0  0  0  0  0  0  0  0  0  0
    0.5533   -6.8786    0.0000 O   0  0  0  0  0  0  0  0  0  0  0  0
    4.1256   -9.7661    0.0000 C   0  0  0  0  0  0  0  0  0  0  0  0
    4.1256  -10.5911    0.0000 C   0  0  1  0  0  0  0  0  0  0  0  0
    3.4112  -11.0036    0.0000 C   0  0  0  0  0  0  0  0  0  0  0  0
    3.4112  -11.8286    0.0000 C   0  0  0  0  0  0  0  0  0  0  0  0
    2.6967  -11.4161    0.0000 O   0  0  0  0  0  0  0  0  0  0  0  0
    2.6967  -10.5911    0.0000 C   0  0  0  0  0  0  0  0  0  0  0  0
    4.8401  -11.0036    0.0000 O   0  0  0  0  0  0  0  0  0  0  0  0
    5.7600  -10.6088    0.0000 C   0  0  0  0  0  0  0  0  0  0  0  0
    6.4745  -11.0213    0.0000 C   0  0  0  0  0  0  0  0  0  0  0  0
    7.1889  -10.6088    0.0000 C   0  0  0  0  0  0  0  0  0  0  0  0
    7.9034  -11.0213    0.0000 C   0  0  0  0  0  0  0  0  0  0  0  0
    8.6179  -10.6088    0.0000 C   0  0  0  0  0  0  0  0  0  0  0  0
    9.3323  -11.0213    0.0000 C   0  0  0  0  0  0  0  0  0  0  0  0
   10.0468  -10.6088    0.0000 C   0  0  0  0  0  0  0  0  0  0  0  0
   10.7613  -11.0213    0.0000 C   0  0  0  0  0  0  0  0  0  0  0  0
   11.4758  -10.6088    0.0000 C   0  0  0  0  0  0  0  0  0  0  0  0
    5.7600   -9.7838    0.0000 O   0  0  0  0  0  0  0  0  0  0  0  0
   12.1902  -11.0213    0.0000 C   0  0  0  0  0  0  0  0  0  0  0  0
   12.1902  -11.8463    0.0000 C   0  0  0  0  0  0  0  0  0  0  0  0
   12.9047  -12.2588    0.0000 C   0  0  0  0  0  0  0  0  0  0  0  0
   12.9047  -13.0838    0.0000 C   0  0  0  0  0  0  0  0  0  0  0  0
   12.1902  -13.4963    0.0000 C   0  0  0  0  0  0  0  0  0  0  0  0
   12.1902  -14.3213    0.0000 C   0  0  0  0  0  0  0  0  0  0  0  0
   11.4758  -14.7338    0.0000 C   0  0  0  0  0  0  0  0  0  0  0  0
   11.4758  -15.5588    0.0000 C   0  0  0  0  0  0  0  0  0  0  0  0
   10.7613  -15.9713    0.0000 C   0  0  0  0  0  0  0  0  0  0  0  0
  1  2  2  0  0  0  0
  2  3  1  0  0  0  0
  3  4  2  0  0  0  0
  4  5  1  0  0  0  0
  5  6  2  0  0  0  0
  6  1  1  0  0  0  0
  4  7  1  0  0  0  0
  7  8  1  0  0  0  0
  8  9  1  0  0  0  0
  9 10  2  0  0  0  0
 10  5  1  0  0  0  0
  1 11  1  0  0  0  0
 11 12  2  0  0  0  0
 12 13  1  0  0  0  0
 13  2  1  0  0  0  0
  6 14  1  0  0  0  0
  8 15  2  0  0  0  0
 14 16  1  0  0  0  0
 16 17  1  0  0  0  0
 17 18  1  0  0  0  0
 18 19  1  0  0  0  0
 18 20  1  0  0  0  0
 18 21  1  0  0  0  0
 17 22  1  6  0  0  0
 23 24  1  0  0  0  0
 24 25  1  0  0  0  0
 25 26  1  0  0  0  0
 26 27  1  0  0  0  0
 27 28  1  0  0  0  0
 28 29  1  0  0  0  0
 29 30  1  0  0  0  0
 30 31  1  0  0  0  0
 23 32  2  0  0  0  0
 23 22  1  0  0  0  0
 31 33  2  0  0  0  0
 33 34  1  0  0  0  0
 34 35  1  0  0  0  0
 35 36  2  0  0  0  0
 36 37  1  0  0  0  0
 37 38  1  0  0  0  0
 38 39  1  0  0  0  0
 39 40  1  0  0  0  0
 40 41  1  0  0  0  0
M  END
>  <cdx:fragmentId>
163

$$$$
