764560.cdx
  Mrv1902 05222410192D          

 43 47  0  0  0  0            999 V2000
   11.4301   -6.7428    0.0000 C   0  0  0  0  0  0  0  0  0  0  0  0
   11.4391   -5.9178    0.0000 C   0  0  0  0  0  0  0  0  0  0  0  0
   12.1581   -5.5131    0.0000 C   0  0  0  0  0  0  0  0  0  0  0  0
   12.8680   -5.9334    0.0000 C   0  0  0  0  0  0  0  0  0  0  0  0
   12.8590   -6.7584    0.0000 C   0  0  0  0  0  0  0  0  0  0  0  0
   12.1401   -7.1630    0.0000 C   0  0  0  0  0  0  0  0  0  0  0  0
   13.5869   -5.5287    0.0000 O   0  0  0  0  0  0  0  0  0  0  0  0
   12.1670   -4.6882    0.0000 O   0  0  0  0  0  0  0  0  0  0  0  0
    3.5669   -7.0696    0.0000 O   0  0  0  0  0  0  0  0  0  0  0  0
    2.8573   -5.8293    0.0000 O   0  0  0  0  0  0  0  0  0  0  0  0
    2.8541   -6.6543    0.0000 C   0  0  2  0  0  0  0  0  0  0  0  0
    2.1380   -7.0640    0.0000 C   0  0  1  0  0  0  0  0  0  0  0  0
    1.4251   -6.6487    0.0000 C   0  0  1  0  0  0  0  0  0  0  0  0
    1.4284   -5.8237    0.0000 C   0  0  2  0  0  0  0  0  0  0  0  0
    2.1444   -5.4140    0.0000 C   0  0  2  0  0  0  0  0  0  0  0  0
    2.1476   -4.5890    0.0000 C   0  0  0  0  0  0  0  0  0  0  0  0
    0.7155   -5.4084    0.0000 O   0  0  0  0  0  0  0  0  0  0  0  0
    0.7091   -7.0584    0.0000 O   0  0  0  0  0  0  0  0  0  0  0  0
    2.1348   -7.8890    0.0000 O   0  0  0  0  0  0  0  0  0  0  0  0
   11.4121   -8.3927    0.0000 O   0  0  0  0  0  0  0  0  0  0  0  0
    8.5454   -9.1865    0.0000 O   0  0  0  0  0  0  0  0  0  0  0  0
    7.1256   -8.3459    0.0000 O   0  0  0  0  0  0  0  0  0  0  0  0
    5.6877   -9.1553    0.0000 O   0  0  0  0  0  0  0  0  0  0  0  0
    4.2679   -8.3148    0.0000 O   0  0  0  0  0  0  0  0  0  0  0  0
    4.2858   -6.6649    0.0000 C   0  0  0  0  0  0  0  0  0  0  0  0
    4.9958   -7.0851    0.0000 C   0  0  2  0  0  0  0  0  0  0  0  0
    4.9868   -7.9101    0.0000 C   0  0  2  0  0  0  0  0  0  0  0  0
    5.6967   -8.3304    0.0000 C   0  0  1  0  0  0  0  0  0  0  0  0
    6.4156   -7.9257    0.0000 C   0  0  2  0  0  0  0  0  0  0  0  0
    6.4246   -7.1007    0.0000 C   0  0  1  0  0  0  0  0  0  0  0  0
    5.7147   -6.6805    0.0000 O   0  0  0  0  0  0  0  0  0  0  0  0
    7.1436   -6.6960    0.0000 O   0  0  0  0  0  0  0  0  0  0  0  0
    9.9743   -9.2020    0.0000 O   0  0  0  0  0  0  0  0  0  0  0  0
   10.0013   -6.7272    0.0000 O   0  0  0  0  0  0  0  0  0  0  0  0
    9.2824   -7.1319    0.0000 C   0  0  0  0  0  0  0  0  0  0  0  0
    8.5724   -6.7116    0.0000 C   0  0  0  0  0  0  0  0  0  0  0  0
    7.8535   -7.1163    0.0000 C   0  0  0  0  0  0  0  0  0  0  0  0
    7.8445   -7.9413    0.0000 C   0  0  0  0  0  0  0  0  0  0  0  0
    8.5544   -8.3615    0.0000 C   0  0  0  0  0  0  0  0  0  0  0  0
    9.2734   -7.9568    0.0000 C   0  0  0  0  0  0  0  0  0  0  0  0
    9.9833   -8.3771    0.0000 C   0  0  0  0  0  0  0  0  0  0  0  0
   10.7022   -7.9724    0.0000 C   0  0  0  0  0  0  0  0  0  0  0  0
   10.7112   -7.1475    0.0000 C   0  0  0  0  0  0  0  0  0  0  0  0
 43  1  1  0  0  0  0
 42 20  1  0  0  0  0
 39 21  1  0  0  0  0
 37 32  1  0  0  0  0
 30 32  1  1  0  0  0
 29 22  1  6  0  0  0
 28 23  1  1  0  0  0
 27 24  1  6  0  0  0
 26 25  1  1  0  0  0
 25  9  1  0  0  0  0
 31 26  1  0  0  0  0
 27 26  1  0  0  0  0
 28 27  1  0  0  0  0
 29 28  1  0  0  0  0
 30 29  1  0  0  0  0
 31 30  1  0  0  0  0
 41 33  2  0  0  0  0
 43 34  1  0  0  0  0
 35 34  1  0  0  0  0
 40 35  2  0  0  0  0
 36 35  1  0  0  0  0
 37 36  2  0  0  0  0
 38 37  1  0  0  0  0
 39 38  2  0  0  0  0
 40 39  1  0  0  0  0
 41 40  1  0  0  0  0
 42 41  1  0  0  0  0
 43 42  2  0  0  0  0
  1  2  1  0  0  0  0
  2  3  2  0  0  0  0
  3  4  1  0  0  0  0
  4  5  2  0  0  0  0
  5  6  1  0  0  0  0
  1  6  2  0  0  0  0
  4  7  1  0  0  0  0
  3  8  1  0  0  0  0
 10 11  1  0  0  0  0
 11 12  1  0  0  0  0
 12 13  1  0  0  0  0
 13 14  1  0  0  0  0
 14 15  1  0  0  0  0
 10 15  1  0  0  0  0
 15 16  1  6  0  0  0
 14 17  1  1  0  0  0
 13 18  1  6  0  0  0
 12 19  1  6  0  0  0
 11  9  1  1  0  0  0
M  END
>  <cdx:groupId>
1441

>  <cdx:fragmentId>
1351

$$$$
