76451.cdx
  Mrv1902 05222410232D          

 10  9  0  0  0  0            999 V2000
    4.4709   -5.4664    0.0000 C   0  0  0  0  0  0  0  0  0  0  0  0
    5.1853   -5.0539    0.0000 C   0  0  0  0  0  0  0  0  0  0  0  0
    5.8998   -5.4664    0.0000 O   0  0  0  0  0  0  0  0  0  0  0  0
    6.6143   -4.2289    0.0000 O   0  0  0  0  0  0  0  0  0  0  0  0
   10.1866   -5.4664    0.0000 C   0  0  0  0  0  0  0  0  0  0  0  0
    9.4722   -5.0539    0.0000 C   0  0  0  0  0  0  0  0  0  0  0  0
    8.7577   -5.4664    0.0000 C   0  0  0  0  0  0  0  0  0  0  0  0
    8.0432   -5.0539    0.0000 C   0  0  0  0  0  0  0  0  0  0  0  0
    7.3287   -5.4664    0.0000 C   0  0  0  0  0  0  0  0  0  0  0  0
    6.6143   -5.0539    0.0000 C   0  0  0  0  0  0  0  0  0  0  0  0
  3  2  1  0  0  0  0
  2  1  2  0  0  0  0
 10  3  1  0  0  0  0
 10  4  2  0  0  0  0
  6  5  1  0  0  0  0
  7  6  1  0  0  0  0
  8  7  1  0  0  0  0
  9  8  1  0  0  0  0
 10  9  1  0  0  0  0
M  END
>  <cdx:fragmentId>
5

$$$$
