11765428.cdx
  Mrv1902 05222410232D          

 53 56  0  0  0  0            999 V2000
    9.2418  -14.0439    0.0000 N   0  0  0  0  0  0  0  0  0  0  0  0
    8.5273  -13.6314    0.0000 C   0  0  0  0  0  0  0  0  0  0  0  0
    8.5273  -12.8064    0.0000 C   0  0  1  0  0  0  0  0  0  0  0  0
    7.8128  -12.3939    0.0000 N   0  0  0  0  0  0  0  0  0  0  0  0
    7.8065  -11.5798    0.0000 C   0  0  0  0  0  0  0  0  0  0  0  0
    7.0921  -11.1673    0.0000 C   0  0  1  0  0  0  0  0  0  0  0  0
    6.3776  -11.5798    0.0000 N   0  0  0  0  0  0  0  0  0  0  0  0
    5.5627  -11.4508    0.0000 C   0  0  0  0  0  0  0  0  0  0  0  0
    5.1502  -12.1652    0.0000 C   0  0  1  0  0  0  0  0  0  0  0  0
    5.6694  -12.8064    0.0000 N   0  0  0  0  0  0  0  0  0  0  0  0
    5.6694  -13.6314    0.0000 C   0  0  0  0  0  0  0  0  0  0  0  0
    4.9550  -14.0439    0.0000 C   0  0  1  0  0  0  0  0  0  0  0  0
    4.9550  -14.8689    0.0000 N   0  0  0  0  0  0  0  0  0  0  0  0
    5.6694  -15.2814    0.0000 C   0  0  0  0  0  0  0  0  0  0  0  0
    5.6694  -16.1064    0.0000 C   0  0  1  0  0  0  0  0  0  0  0  0
    6.3839  -16.5189    0.0000 N   0  0  0  0  0  0  0  0  0  0  0  0
    7.0984  -16.1064    0.0000 C   0  0  0  0  0  0  0  0  0  0  0  0
    7.8128  -16.5189    0.0000 C   0  0  0  0  0  0  0  0  0  0  0  0
    8.5273  -16.1064    0.0000 N   0  0  0  0  0  0  0  0  0  0  0  0
    8.5273  -15.2814    0.0000 C   0  0  0  0  0  0  0  0  0  0  0  0
    9.2418  -14.8689    0.0000 C   0  0  2  0  0  0  0  0  0  0  0  0
   10.0264  -15.1238    0.0000 C   0  0  0  0  0  0  0  0  0  0  0  0
   10.5113  -14.4564    0.0000 C   0  0  0  0  0  0  0  0  0  0  0  0
   10.0264  -13.7889    0.0000 C   0  0  0  0  0  0  0  0  0  0  0  0
    7.8128  -14.0439    0.0000 O   0  0  0  0  0  0  0  0  0  0  0  0
    8.5210  -11.1673    0.0000 O   0  0  0  0  0  0  0  0  0  0  0  0
    5.1502  -10.7363    0.0000 O   0  0  0  0  0  0  0  0  0  0  0  0
    6.3839  -14.0439    0.0000 O   0  0  0  0  0  0  0  0  0  0  0  0
    6.3839  -14.8689    0.0000 O   0  0  0  0  0  0  0  0  0  0  0  0
    7.0984  -15.2814    0.0000 O   0  0  0  0  0  0  0  0  0  0  0  0
    7.8128  -14.8689    0.0000 O   0  0  0  0  0  0  0  0  0  0  0  0
    4.9550  -16.5189    0.0000 C   0  0  0  0  0  0  0  0  0  0  0  0
    4.2405  -16.1064    0.0000 C   0  0  0  0  0  0  0  0  0  0  0  0
    4.2405  -15.2814    0.0000 C   0  0  0  0  0  0  0  0  0  0  0  0
    3.5260  -16.5189    0.0000 C   0  0  0  0  0  0  0  0  0  0  0  0
    7.0921  -10.3423    0.0000 C   0  0  0  0  0  0  0  0  0  0  0  0
    4.2405  -13.6314    0.0000 C   0  0  0  0  0  0  0  0  0  0  0  0
    3.5260  -14.0439    0.0000 O   0  0  0  0  0  0  0  0  0  0  0  0
    4.3252  -12.1652    0.0000 C   0  0  0  0  0  0  0  0  0  0  0  0
    3.9127  -11.4508    0.0000 C   0  0  0  0  0  0  0  0  0  0  0  0
    3.0877  -11.4508    0.0000 C   0  0  0  0  0  0  0  0  0  0  0  0
    2.6752  -10.7363    0.0000 C   0  0  0  0  0  0  0  0  0  0  0  0
    3.0877  -10.0218    0.0000 C   0  0  0  0  0  0  0  0  0  0  0  0
    3.9127  -10.0218    0.0000 C   0  0  0  0  0  0  0  0  0  0  0  0
    4.3252  -10.7363    0.0000 C   0  0  0  0  0  0  0  0  0  0  0  0
    9.6705  -12.1464    0.0000 C   0  0  0  0  0  0  0  0  0  0  0  0
   10.3849  -12.5589    0.0000 C   0  0  0  0  0  0  0  0  0  0  0  0
   11.0994  -12.1464    0.0000 C   0  0  0  0  0  0  0  0  0  0  0  0
   11.8139  -12.5589    0.0000 C   0  0  0  0  0  0  0  0  0  0  0  0
   11.8139  -13.3839    0.0000 C   0  0  0  0  0  0  0  0  0  0  0  0
   11.0994  -13.7964    0.0000 C   0  0  0  0  0  0  0  0  0  0  0  0
   10.3849  -13.3839    0.0000 C   0  0  0  0  0  0  0  0  0  0  0  0
    9.3280  -15.6894    0.0000 H   0  0  0  0  0  0  0  0  0  0  0  0
  1  2  1  0  0  0  0
  2  3  1  0  0  0  0
  3  4  1  0  0  0  0
  4  5  1  0  0  0  0
  5  6  1  0  0  0  0
  6  7  1  0  0  0  0
  7  8  1  0  0  0  0
  8  9  1  0  0  0  0
  9 10  1  0  0  0  0
 10 11  1  0  0  0  0
 11 12  1  0  0  0  0
 12 13  1  0  0  0  0
 13 14  1  0  0  0  0
 14 15  1  0  0  0  0
 15 16  1  0  0  0  0
 16 17  1  0  0  0  0
 17 18  1  0  0  0  0
 18 19  1  0  0  0  0
 19 20  1  0  0  0  0
 20 21  1  0  0  0  0
 21 22  1  0  0  0  0
 22 23  1  0  0  0  0
 23 24  1  0  0  0  0
  1 24  1  0  0  0  0
  1 21  1  0  0  0  0
  2 25  2  0  0  0  0
  5 26  2  0  0  0  0
  8 27  2  0  0  0  0
 11 28  2  0  0  0  0
 14 29  2  0  0  0  0
 17 30  2  0  0  0  0
 20 31  2  0  0  0  0
 32 33  1  0  0  0  0
 33 34  1  0  0  0  0
 33 35  1  0  0  0  0
 15 32  1  1  0  0  0
  6 36  1  1  0  0  0
 37 38  1  0  0  0  0
 12 37  1  1  0  0  0
 39 40  1  0  0  0  0
 40 41  1  0  0  0  0
 41 42  2  0  0  0  0
 42 43  1  0  0  0  0
 43 44  2  0  0  0  0
 44 45  1  0  0  0  0
 40 45  2  0  0  0  0
  9 39  1  1  0  0  0
 46 47  1  0  0  0  0
 47 48  1  0  0  0  0
 48 49  2  0  0  0  0
 49 50  1  0  0  0  0
 50 51  2  0  0  0  0
 51 52  1  0  0  0  0
 47 52  2  0  0  0  0
  3 46  1  1  0  0  0
 21 53  1  6  0  0  0
M  END
>  <cdx:groupId>
80793

>  <cdx:fragmentId>
80634

$$$$
