76542.cdx
  Mrv1902 05222410282D          

 10 10  0  0  0  0            999 V2000
    7.0846   -4.2127    0.0000 O   0  0  0  0  0  0  0  0  0  0  0  0
    8.4804   -6.7065    0.0000 C   0  0  0  0  0  0  0  0  0  0  0  0
    8.5025   -5.0567    0.0000 C   0  0  0  0  0  0  0  0  0  0  0  0
    6.3427   -6.2655    0.0000 C   0  0  0  0  0  0  0  0  0  0  0  0
    6.3537   -5.4405    0.0000 C   0  0  0  0  0  0  0  0  0  0  0  0
    7.0736   -5.0376    0.0000 C   0  0  0  0  0  0  0  0  0  0  0  0
    7.7825   -5.4596    0.0000 C   0  0  0  0  0  0  0  0  0  0  0  0
    7.7715   -6.2845    0.0000 C   0  0  0  0  0  0  0  0  0  0  0  0
    7.0516   -6.6874    0.0000 C   0  0  0  0  0  0  0  0  0  0  0  0
    7.0406   -7.5124    0.0000 N   0  0  0  0  0  0  0  0  0  0  0  0
  6  1  1  0  0  0  0
  8  2  1  0  0  0  0
  7  3  1  0  0  0  0
  9  4  2  0  0  0  0
  5  4  1  0  0  0  0
  6  5  2  0  0  0  0
  7  6  1  0  0  0  0
  8  7  2  0  0  0  0
  9  8  1  0  0  0  0
 10  9  1  0  0  0  0
M  END
>  <cdx:fragmentId>
5

$$$$
