765414.cdx
  Mrv1902 05222410232D          

 52 56  0  0  0  0            999 V2000
    7.1630   -6.9448    0.0000 C   0  0  0  0  0  0  0  0  0  0  0  0
    7.8832   -7.3473    0.0000 C   0  0  0  0  0  0  0  0  0  0  0  0
    8.5918   -6.9249    0.0000 C   0  0  0  0  0  0  0  0  0  0  0  0
    7.1515   -6.1199    0.0000 O   0  0  0  0  0  0  0  0  0  0  0  0
    6.4544   -7.3673    0.0000 O   0  0  0  0  0  0  0  0  0  0  0  0
    8.5803   -6.1000    0.0000 C   0  0  0  0  0  0  0  0  0  0  0  0
    9.2890   -5.6776    0.0000 C   0  0  0  0  0  0  0  0  0  0  0  0
    9.2774   -4.8526    0.0000 C   0  0  0  0  0  0  0  0  0  0  0  0
    8.5573   -4.4501    0.0000 C   0  0  0  0  0  0  0  0  0  0  0  0
    7.8486   -4.8726    0.0000 C   0  0  0  0  0  0  0  0  0  0  0  0
    7.8602   -5.6975    0.0000 C   0  0  0  0  0  0  0  0  0  0  0  0
    8.5458   -3.6252    0.0000 O   0  0  0  0  0  0  0  0  0  0  0  0
    9.9861   -4.4302    0.0000 O   0  0  0  0  0  0  0  0  0  0  0  0
    7.8947   -8.1723    0.0000 O   0  0  0  0  0  0  0  0  0  0  0  0
    8.6149   -8.5747    0.0000 C   0  0  0  0  0  0  0  0  0  0  0  0
    9.3235   -8.1523    0.0000 O   0  0  0  0  0  0  0  0  0  0  0  0
    8.6264   -9.3997    0.0000 C   0  0  0  0  0  0  0  0  0  0  0  0
    7.9177   -9.8221    0.0000 C   0  0  0  0  0  0  0  0  0  0  0  0
    7.9292  -10.6470    0.0000 C   0  0  0  0  0  0  0  0  0  0  0  0
    8.6494  -11.0495    0.0000 C   0  0  0  0  0  0  0  0  0  0  0  0
    9.3581  -10.6271    0.0000 C   0  0  0  0  0  0  0  0  0  0  0  0
   10.0782  -11.0296    0.0000 C   0  0  0  0  0  0  0  0  0  0  0  0
   10.7869  -10.6071    0.0000 C   0  0  0  0  0  0  0  0  0  0  0  0
   10.7753   -9.7822    0.0000 C   0  0  0  0  0  0  0  0  0  0  0  0
   10.0552   -9.3797    0.0000 C   0  0  0  0  0  0  0  0  0  0  0  0
    9.3465   -9.8021    0.0000 C   0  0  0  0  0  0  0  0  0  0  0  0
   10.0437   -8.5548    0.0000 O   0  0  0  0  0  0  0  0  0  0  0  0
   11.4840   -9.3598    0.0000 O   0  0  0  0  0  0  0  0  0  0  0  0
    7.1976   -9.4196    0.0000 C   0  0  0  0  0  0  0  0  0  0  0  0
    6.4889   -9.8420    0.0000 C   0  0  0  0  0  0  0  0  0  0  0  0
    5.7688   -9.4396    0.0000 C   0  0  0  0  0  0  0  0  0  0  0  0
    5.7573   -8.6146    0.0000 C   0  0  0  0  0  0  0  0  0  0  0  0
    6.4659   -8.1922    0.0000 C   0  0  0  0  0  0  0  0  0  0  0  0
    7.1861   -8.5947    0.0000 C   0  0  0  0  0  0  0  0  0  0  0  0
    5.0371   -8.2121    0.0000 O   0  0  0  0  0  0  0  0  0  0  0  0
    5.0601   -9.8620    0.0000 O   0  0  0  0  0  0  0  0  0  0  0  0
    7.2206  -11.0694    0.0000 C   0  0  0  0  0  0  0  0  0  0  0  0
    6.5004  -10.6670    0.0000 O   0  0  0  0  0  0  0  0  0  0  0  0
    7.2321  -11.8944    0.0000 O   0  0  0  0  0  0  0  0  0  0  0  0
    6.5235  -12.3168    0.0000 C   0  0  0  0  0  0  0  0  0  0  0  0
    5.8033  -11.9143    0.0000 C   0  0  0  0  0  0  0  0  0  0  0  0
    5.0947  -12.3367    0.0000 C   0  0  0  0  0  0  0  0  0  0  0  0
    4.3745  -11.9343    0.0000 C   0  0  0  0  0  0  0  0  0  0  0  0
    3.6659  -12.3567    0.0000 C   0  0  0  0  0  0  0  0  0  0  0  0
    3.6774  -13.1816    0.0000 C   0  0  0  0  0  0  0  0  0  0  0  0
    4.3975  -13.5841    0.0000 C   0  0  0  0  0  0  0  0  0  0  0  0
    5.1062  -13.1617    0.0000 C   0  0  0  0  0  0  0  0  0  0  0  0
    2.9687  -13.6040    0.0000 O   0  0  0  0  0  0  0  0  0  0  0  0
    2.9457  -11.9542    0.0000 O   0  0  0  0  0  0  0  0  0  0  0  0
    6.5350  -13.1417    0.0000 C   0  0  0  0  0  0  0  0  0  0  0  0
    7.2552  -13.5442    0.0000 O   0  0  0  0  0  0  0  0  0  0  0  0
    5.8263  -13.5642    0.0000 O   0  0  0  0  0  0  0  0  0  0  0  0
  1  2  1  0  0  0  0
  2  3  1  0  0  0  0
  1  4  2  0  0  0  0
  1  5  1  0  0  0  0
  6  7  1  0  0  0  0
  7  8  2  0  0  0  0
  8  9  1  0  0  0  0
  9 10  2  0  0  0  0
 10 11  1  0  0  0  0
  6 11  2  0  0  0  0
  9 12  1  0  0  0  0
  8 13  1  0  0  0  0
  3  6  1  0  0  0  0
 15 16  2  0  0  0  0
 17 18  1  0  0  0  0
 18 19  1  0  0  0  0
 19 20  2  0  0  0  0
 20 21  1  0  0  0  0
 21 22  1  0  0  0  0
 22 23  2  0  0  0  0
 23 24  1  0  0  0  0
 24 25  2  0  0  0  0
 25 26  1  0  0  0  0
 17 26  1  0  0  0  0
 21 26  2  0  0  0  0
 15 17  1  0  0  0  0
 25 27  1  0  0  0  0
 24 28  1  0  0  0  0
 29 30  1  0  0  0  0
 30 31  2  0  0  0  0
 31 32  1  0  0  0  0
 32 33  2  0  0  0  0
 33 34  1  0  0  0  0
 29 34  2  0  0  0  0
 32 35  1  0  0  0  0
 31 36  1  0  0  0  0
 18 29  1  0  0  0  0
 37 38  2  0  0  0  0
 40 41  1  0  0  0  0
 39 40  1  0  0  0  0
 42 43  1  0  0  0  0
 43 44  2  0  0  0  0
 44 45  1  0  0  0  0
 45 46  2  0  0  0  0
 46 47  1  0  0  0  0
 42 47  2  0  0  0  0
 45 48  1  0  0  0  0
 44 49  1  0  0  0  0
 41 42  1  0  0  0  0
 50 51  2  0  0  0  0
 50 52  1  0  0  0  0
 40 50  1  0  0  0  0
 37 39  1  0  0  0  0
 19 37  1  0  0  0  0
 14 15  1  0  0  0  0
  2 14  1  0  0  0  0
M  END
>  <cdx:fragmentId>
80494

$$$$
