7655.cdx
  Mrv1902 05222410222D          

 14 14  0  0  0  0            999 V2000
    3.1629   -2.5242    0.0000 C   0  0  0  0  0  0  0  0  0  0  0  0
    2.4484   -2.9367    0.0000 C   0  0  0  0  0  0  0  0  0  0  0  0
    2.4484   -3.7617    0.0000 C   0  0  0  0  0  0  0  0  0  0  0  0
    3.1629   -1.6992    0.0000 O   0  0  0  0  0  0  0  0  0  0  0  0
    3.8773   -2.9367    0.0000 O   0  0  0  0  0  0  0  0  0  0  0  0
    1.7339   -2.5242    0.0000 C   0  0  0  0  0  0  0  0  0  0  0  0
    4.5918   -2.5242    0.0000 C   0  0  0  0  0  0  0  0  0  0  0  0
    5.3063   -2.9367    0.0000 C   0  0  0  0  0  0  0  0  0  0  0  0
    6.0208   -2.5242    0.0000 C   0  0  0  0  0  0  0  0  0  0  0  0
    6.0208   -1.6992    0.0000 C   0  0  0  0  0  0  0  0  0  0  0  0
    6.7352   -1.2867    0.0000 C   0  0  0  0  0  0  0  0  0  0  0  0
    7.4497   -1.6992    0.0000 C   0  0  0  0  0  0  0  0  0  0  0  0
    7.4497   -2.5242    0.0000 C   0  0  0  0  0  0  0  0  0  0  0  0
    6.7352   -2.9367    0.0000 C   0  0  0  0  0  0  0  0  0  0  0  0
  1  2  1  0  0  0  0
  2  3  1  0  0  0  0
  1  4  2  0  0  0  0
  1  5  1  0  0  0  0
  2  6  1  0  0  0  0
  7  8  1  0  0  0  0
  9 10  1  0  0  0  0
 10 11  2  0  0  0  0
 11 12  1  0  0  0  0
 12 13  2  0  0  0  0
 13 14  1  0  0  0  0
  9 14  2  0  0  0  0
  8  9  1  0  0  0  0
  5  7  1  0  0  0  0
M  END
>  <cdx:groupId>
44

>  <cdx:fragmentId>
21

$$$$
