76550.cdx
  Mrv1902 05222410262D          

 36 41  0  0  0  0            999 V2000
    5.7825   -8.3852    0.0000 C   0  0  2  0  0  0  0  0  0  0  0  0
    5.4236   -9.1281    0.0000 C   0  0  2  0  0  0  0  0  0  0  0  0
    5.7806   -9.8718    0.0000 C   0  0  1  0  0  0  0  0  0  0  0  0
    6.5847  -10.0564    0.0000 C   0  0  1  0  0  0  0  0  0  0  0  0
    7.2304   -9.5428    0.0000 C   0  0  1  0  0  0  0  0  0  0  0  0
    7.2314   -8.7178    0.0000 C   0  0  2  0  0  0  0  0  0  0  0  0
    6.5870   -8.2026    0.0000 C   0  0  2  0  0  0  0  0  0  0  0  0
    6.6620   -7.3810    0.0000 C   0  0  0  0  0  0  0  0  0  0  0  0
    5.9038   -7.0559    0.0000 C   0  0  1  0  0  0  0  0  0  0  0  0
    5.3602   -7.6765    0.0000 C   0  0  2  0  0  0  0  0  0  0  0  0
    7.9443   -9.9562    0.0000 C   0  0  2  0  0  0  0  0  0  0  0  0
    8.6593   -9.5445    0.0000 C   0  0  0  0  0  0  0  0  0  0  0  0
    8.6603   -8.7195    0.0000 C   0  0  0  0  0  0  0  0  0  0  0  0
    7.9464   -8.3062    0.0000 C   0  0  2  0  0  0  0  0  0  0  0  0
    5.7212   -6.2513    0.0000 H   0  0  0  0  0  0  0  0  0  0  0  0
    7.9474   -7.4812    0.0000 O   0  0  0  0  0  0  0  0  0  0  0  0
    8.6618   -7.0687    0.0000 C   0  0  0  0  0  0  0  0  0  0  0  0
    7.9433  -10.7812    0.0000 C   0  0  0  0  0  0  0  0  0  0  0  0
    7.2294  -10.3678    0.0000 H   0  0  0  0  0  0  0  0  0  0  0  0
    7.3839   -7.9891    0.0000 H   0  0  0  0  0  0  0  0  0  0  0  0
    4.9779   -8.5678    0.0000 H   0  0  0  0  0  0  0  0  0  0  0  0
    4.7091   -9.5406    0.0000 O   0  0  0  0  0  0  0  0  0  0  0  0
    5.2655  -10.5162    0.0000 H   0  0  0  0  0  0  0  0  0  0  0  0
    6.7673  -10.8609    0.0000 O   0  0  0  0  0  0  0  0  0  0  0  0
    6.1619  -11.4213    0.0000 C   0  0  0  0  0  0  0  0  0  0  0  0
    4.5386   -7.6015    0.0000 O   0  0  0  0  0  0  0  0  0  0  0  0
    4.8125   -7.2875    0.0000 C   0  0  2  0  0  0  0  0  0  0  0  0
    4.8675   -8.9100    0.0000 C   0  0  0  0  0  0  0  0  0  0  0  0
    4.1627   -6.7792    0.0000 O   0  0  0  0  0  0  0  0  0  0  0  0
    3.3976   -7.0877    0.0000 C   0  0  0  0  0  0  0  0  0  0  0  0
    8.0283   -8.9313    0.0000 C   0  0  2  0  0  0  0  0  0  0  0  0
    8.8533   -8.9313    0.0000 N   0  0  0  0  0  0  0  0  0  0  0  0
    8.8550   -9.9275    0.0000 C   0  0  0  0  0  0  0  0  0  0  0  0
    9.5677   -8.5188    0.0000 C   0  0  0  0  0  0  0  0  0  0  0  0
   10.2822   -8.9313    0.0000 C   0  0  0  0  0  0  0  0  0  0  0  0
    8.4408   -8.2168    0.0000 H   0  0  0  0  0  0  0  0  0  0  0  0
  1  2  1  0  0  0  0
  2  3  1  0  0  0  0
  3  4  1  0  0  0  0
  4  5  1  0  0  0  0
  5  6  1  0  0  0  0
  6  7  1  0  0  0  0
  7  1  1  0  0  0  0
  7  8  1  0  0  0  0
  8  9  1  0  0  0  0
  9 10  1  0  0  0  0
 10  1  1  0  0  0  0
  5 11  1  0  0  0  0
 11 12  1  0  0  0  0
 12 13  1  0  0  0  0
 13 14  1  0  0  0  0
  6 14  1  6  0  0  0
  9 15  1  6  0  0  0
 14 16  1  1  0  0  0
 16 17  1  0  0  0  0
 11 18  1  6  0  0  0
  5 19  1  6  0  0  0
  7 20  1  6  0  0  0
  1 21  1  6  0  0  0
  2 22  1  6  0  0  0
  3 23  1  1  0  0  0
  4 24  1  1  0  0  0
 24 25  1  0  0  0  0
 10 26  1  1  0  0  0
  9 27  1  0  0  0  0
  2 28  1  0  0  0  0
 27 28  1  0  0  0  0
 27 29  1  6  0  0  0
 29 30  1  0  0  0  0
  6 31  1  0  0  0  0
 31  3  1  0  0  0  0
 31 32  1  0  0  0  0
 32 33  1  0  0  0  0
 32 34  1  0  0  0  0
 33 11  1  0  0  0  0
 34 35  1  0  0  0  0
 31 36  1  1  0  0  0
M  END
>  <cdx:fragmentId>
229490

$$$$
