765971.cdx
  Mrv1902 05222410202D          

 17 18  0  0  0  0            999 V2000
    8.7694   -9.4205    0.0000 O   0  0  0  0  0  0  0  0  0  0  0  0
    9.2543   -8.7531    0.0000 C   0  0  0  0  0  0  0  0  0  0  0  0
    8.7694   -8.0856    0.0000 C   0  0  0  0  0  0  0  0  0  0  0  0
    7.9848   -8.3406    0.0000 C   0  0  0  0  0  0  0  0  0  0  0  0
    7.2703   -7.9281    0.0000 C   0  0  0  0  0  0  0  0  0  0  0  0
    6.5558   -8.3406    0.0000 C   0  0  1  0  0  0  0  0  0  0  0  0
    6.5558   -9.1656    0.0000 C   0  0  2  0  0  0  0  0  0  0  0  0
    7.2703   -9.5781    0.0000 C   0  0  0  0  0  0  0  0  0  0  0  0
    7.9848   -9.1656    0.0000 C   0  0  0  0  0  0  0  0  0  0  0  0
    7.2703   -7.1031    0.0000 O   0  0  0  0  0  0  0  0  0  0  0  0
    5.8413   -7.1031    0.0000 C   0  0  0  0  0  0  0  0  0  0  0  0
    5.8413   -7.9281    0.0000 C   0  0  0  0  0  0  0  0  0  0  0  0
    5.1269   -8.3406    0.0000 C   0  0  0  0  0  0  0  0  0  0  0  0
    6.1433   -9.8800    0.0000 C   0  0  0  0  0  0  0  0  0  0  0  0
    9.0243   -7.3010    0.0000 C   0  0  0  0  0  0  0  0  0  0  0  0
    5.7308   -9.1656    0.0000 C   0  0  0  0  0  0  0  0  0  0  0  0
    5.3183   -9.8800    0.0000 C   0  0  0  0  0  0  0  0  0  0  0  0
  1  2  1  0  0  0  0
  2  3  2  0  0  0  0
  3  4  1  0  0  0  0
  4  5  1  0  0  0  0
  5  6  1  0  0  0  0
  6  7  1  0  0  0  0
  7  8  1  0  0  0  0
  8  9  1  0  0  0  0
  4  9  2  0  0  0  0
  1  9  1  0  0  0  0
  5 10  2  0  0  0  0
 11 12  2  0  0  0  0
 12 13  1  0  0  0  0
  6 12  1  1  0  0  0
  7 14  1  6  0  0  0
  3 15  1  0  0  0  0
 16 17  2  0  0  0  0
  7 16  1  1  0  0  0
M  END
>  <cdx:fragmentId>
5

$$$$
