76601.cdx
  Mrv1902 05222410202D          

 16 17  0  0  0  0            999 V2000
    6.5660   -6.4872    0.0000 C   0  0  0  0  0  0  0  0  0  0  0  0
    5.8516   -6.8997    0.0000 C   0  0  1  0  0  0  0  0  0  0  0  0
    5.8516   -7.7247    0.0000 C   0  0  0  0  0  0  0  0  0  0  0  0
    6.5660   -8.1372    0.0000 C   0  0  0  0  0  0  0  0  0  0  0  0
    7.2805   -7.7247    0.0000 C   0  0  2  0  0  0  0  0  0  0  0  0
    7.9950   -8.1372    0.0000 C   0  0  0  0  0  0  0  0  0  0  0  0
    8.7094   -7.7247    0.0000 C   0  0  0  0  0  0  0  0  0  0  0  0
    8.7094   -6.8997    0.0000 C   0  0  2  0  0  0  0  0  0  0  0  0
    7.9950   -6.4872    0.0000 C   0  0  0  0  0  0  0  0  0  0  0  0
    7.2805   -6.8997    0.0000 C   0  0  0  0  0  0  0  0  0  0  0  0
    5.1371   -6.4872    0.0000 O   0  0  0  0  0  0  0  0  0  0  0  0
    9.4239   -5.6622    0.0000 C   0  0  0  0  0  0  0  0  0  0  0  0
    9.4239   -6.4872    0.0000 C   0  0  0  0  0  0  0  0  0  0  0  0
   10.1384   -6.8997    0.0000 C   0  0  0  0  0  0  0  0  0  0  0  0
    7.2805   -8.5497    0.0000 C   0  0  0  0  0  0  0  0  0  0  0  0
    6.5660   -5.6622    0.0000 C   0  0  0  0  0  0  0  0  0  0  0  0
  1  2  1  0  0  0  0
  2  3  1  0  0  0  0
  3  4  1  0  0  0  0
  4  5  1  0  0  0  0
  5  6  1  0  0  0  0
  6  7  1  0  0  0  0
  7  8  1  0  0  0  0
  8  9  1  0  0  0  0
  9 10  1  0  0  0  0
  1 10  2  0  0  0  0
  5 10  1  0  0  0  0
  2 11  1  1  0  0  0
 12 13  2  0  0  0  0
 13 14  1  0  0  0  0
  8 13  1  6  0  0  0
  5 15  1  6  0  0  0
  1 16  1  0  0  0  0
M  END
>  <cdx:fragmentId>
100648

$$$$
