76604.cdx
  Mrv1902 05222410182D          

 17 18  0  0  0  0            999 V2000
    8.4792   -5.8438    0.0000 C   0  0  0  0  0  0  0  0  0  0  0  0
    9.1937   -6.2563    0.0000 C   0  0  1  0  0  0  0  0  0  0  0  0
    9.1937   -7.0812    0.0000 C   0  0  0  0  0  0  0  0  0  0  0  0
    8.4792   -7.4937    0.0000 C   0  0  0  0  0  0  0  0  0  0  0  0
    7.7647   -7.0812    0.0000 C   0  0  2  0  0  0  0  0  0  0  0  0
    7.0503   -7.4937    0.0000 C   0  0  0  0  0  0  0  0  0  0  0  0
    6.3358   -7.0812    0.0000 C   0  0  0  0  0  0  0  0  0  0  0  0
    6.3358   -6.2563    0.0000 C   0  0  2  0  0  0  0  0  0  0  0  0
    7.0503   -5.8438    0.0000 C   0  0  0  0  0  0  0  0  0  0  0  0
    7.7647   -6.2563    0.0000 C   0  0  1  0  0  0  0  0  0  0  0  0
    9.9082   -5.8438    0.0000 O   0  0  0  0  0  0  0  0  0  0  0  0
    5.6213   -5.0187    0.0000 C   0  0  0  0  0  0  0  0  0  0  0  0
    5.6213   -5.8438    0.0000 C   0  0  0  0  0  0  0  0  0  0  0  0
    4.9069   -6.2563    0.0000 C   0  0  0  0  0  0  0  0  0  0  0  0
    8.4792   -5.0187    0.0000 C   0  0  0  0  0  0  0  0  0  0  0  0
    7.7647   -7.9063    0.0000 C   0  0  0  0  0  0  0  0  0  0  0  0
    7.7647   -5.4313    0.0000 H   0  0  0  0  0  0  0  0  0  0  0  0
  1  2  1  0  0  0  0
  2  3  1  0  0  0  0
  3  4  1  0  0  0  0
  4  5  1  0  0  0  0
  5  6  1  0  0  0  0
  6  7  1  0  0  0  0
  7  8  1  0  0  0  0
  8  9  1  0  0  0  0
  9 10  1  0  0  0  0
  1 10  1  0  0  0  0
  5 10  1  0  0  0  0
  2 11  1  6  0  0  0
 12 13  2  0  0  0  0
 13 14  1  0  0  0  0
  8 13  1  1  0  0  0
  1 15  2  0  0  0  0
  5 16  1  1  0  0  0
 10 17  1  6  0  0  0
M  END
>  <cdx:fragmentId>
110079

$$$$
