76605.cdx
  Mrv1902 05222410182D          

 16 16  0  0  0  0            999 V2000
    6.2980   -6.8200    0.0000 C   0  0  0  0  0  0  0  0  0  0  0  0
    6.2980   -7.6450    0.0000 C   0  0  0  0  0  0  0  0  0  0  0  0
    7.0125   -8.0575    0.0000 C   0  0  0  0  0  0  0  0  0  0  0  0
    7.7270   -7.6450    0.0000 C   0  0  0  0  0  0  0  0  0  0  0  0
    7.7270   -6.8200    0.0000 C   0  0  0  0  0  0  0  0  0  0  0  0
    7.0125   -6.4075    0.0000 C   0  0  0  0  0  0  0  0  0  0  0  0
    7.0125   -5.5825    0.0000 C   0  0  0  0  0  0  0  0  0  0  0  0
    7.7270   -5.1700    0.0000 C   0  0  0  0  0  0  0  0  0  0  0  0
    8.1395   -5.8845    0.0000 C   0  0  0  0  0  0  0  0  0  0  0  0
    7.3145   -4.4555    0.0000 C   0  0  0  0  0  0  0  0  0  0  0  0
    8.4414   -4.7575    0.0000 O   0  0  0  0  0  0  0  0  0  0  0  0
    8.4414   -8.0575    0.0000 C   0  0  0  0  0  0  0  0  0  0  0  0
    5.5836   -6.4075    0.0000 C   0  0  0  0  0  0  0  0  0  0  0  0
    4.8691   -6.8200    0.0000 C   0  0  0  0  0  0  0  0  0  0  0  0
    5.5836   -5.5825    0.0000 C   0  0  0  0  0  0  0  0  0  0  0  0
    7.7270   -3.7411    0.0000 C   0  0  0  0  0  0  0  0  0  0  0  0
  1  2  1  0  0  0  0
  2  3  1  0  0  0  0
  3  4  1  0  0  0  0
  4  5  2  0  0  0  0
  5  6  1  0  0  0  0
  6  1  2  0  0  0  0
  6  7  1  0  0  0  0
  7  8  1  0  0  0  0
  8  9  1  0  0  0  0
  8 10  1  0  0  0  0
  8 11  1  0  0  0  0
  4 12  1  0  0  0  0
  1 13  1  0  0  0  0
 13 14  1  0  0  0  0
 13 15  2  0  0  0  0
 10 16  2  0  0  0  0
M  END
>  <cdx:fragmentId>
110151

$$$$
