76617.cdx
  Mrv1902 05222410192D          

 23 23  0  0  0  0            999 V2000
   13.7142   -4.8958    0.0000 C   0  0  0  0  0  0  0  0  0  0  0  0
   12.9997   -4.4833    0.0000 C   0  0  0  0  0  0  0  0  0  0  0  0
   12.2853   -4.8958    0.0000 C   0  0  0  0  0  0  0  0  0  0  0  0
   11.5708   -4.4833    0.0000 C   0  0  0  0  0  0  0  0  0  0  0  0
   10.8563   -4.8958    0.0000 C   0  0  0  0  0  0  0  0  0  0  0  0
   10.1419   -4.4833    0.0000 C   0  0  0  0  0  0  0  0  0  0  0  0
    9.4274   -4.8958    0.0000 C   0  0  0  0  0  0  0  0  0  0  0  0
    8.7129   -4.4833    0.0000 C   0  0  0  0  0  0  0  0  0  0  0  0
    7.9984   -4.8958    0.0000 C   0  0  0  0  0  0  0  0  0  0  0  0
    7.2840   -4.4833    0.0000 C   0  0  0  0  0  0  0  0  0  0  0  0
    6.5695   -4.8958    0.0000 C   0  0  0  0  0  0  0  0  0  0  0  0
    5.8550   -4.4833    0.0000 C   0  0  0  0  0  0  0  0  0  0  0  0
    5.1406   -4.8958    0.0000 C   0  0  0  0  0  0  0  0  0  0  0  0
    4.4261   -4.4833    0.0000 C   0  0  0  0  0  0  0  0  0  0  0  0
    3.7116   -4.8958    0.0000 C   0  0  0  0  0  0  0  0  0  0  0  0
    2.2827   -2.4208    0.0000 O   0  0  0  0  0  0  0  0  0  0  0  0
    0.8537   -4.8958    0.0000 O   0  0  0  0  0  0  0  0  0  0  0  0
    2.2827   -4.8958    0.0000 C   0  0  0  0  0  0  0  0  0  0  0  0
    2.9971   -4.4833    0.0000 C   0  0  0  0  0  0  0  0  0  0  0  0
    2.9971   -3.6583    0.0000 C   0  0  0  0  0  0  0  0  0  0  0  0
    2.2827   -3.2458    0.0000 C   0  0  0  0  0  0  0  0  0  0  0  0
    1.5682   -3.6583    0.0000 C   0  0  0  0  0  0  0  0  0  0  0  0
    1.5682   -4.4833    0.0000 C   0  0  0  0  0  0  0  0  0  0  0  0
 19 15  1  0  0  0  0
  2  1  1  0  0  0  0
  3  2  1  0  0  0  0
  4  3  1  0  0  0  0
  5  4  1  0  0  0  0
  6  5  1  0  0  0  0
  7  6  1  0  0  0  0
  8  7  1  0  0  0  0
  9  8  1  0  0  0  0
 10  9  1  0  0  0  0
 11 10  1  0  0  0  0
 12 11  1  0  0  0  0
 13 12  1  0  0  0  0
 14 13  1  0  0  0  0
 15 14  1  0  0  0  0
 21 16  1  0  0  0  0
 23 17  1  0  0  0  0
 23 18  1  0  0  0  0
 19 18  2  0  0  0  0
 20 19  1  0  0  0  0
 21 20  2  0  0  0  0
 22 21  1  0  0  0  0
 23 22  2  0  0  0  0
M  END
>  <cdx:groupId>
71

>  <cdx:fragmentId>
21

$$$$
