76618.cdx
  Mrv1902 05222410262D          

 23 23  0  0  0  0            999 V2000
    2.2827   -2.4208    0.0000 O   0  0  0  0  0  0  0  0  0  0  0  0
    0.8537   -4.8958    0.0000 O   0  0  0  0  0  0  0  0  0  0  0  0
    2.2827   -4.8958    0.0000 C   0  0  0  0  0  0  0  0  0  0  0  0
    2.9971   -4.4833    0.0000 C   0  0  0  0  0  0  0  0  0  0  0  0
    2.9971   -3.6583    0.0000 C   0  0  0  0  0  0  0  0  0  0  0  0
    2.2827   -3.2458    0.0000 C   0  0  0  0  0  0  0  0  0  0  0  0
    1.5682   -3.6583    0.0000 C   0  0  0  0  0  0  0  0  0  0  0  0
    1.5682   -4.4833    0.0000 C   0  0  0  0  0  0  0  0  0  0  0  0
   13.8344   -4.5043    0.0000 C   0  0  0  0  0  0  0  0  0  0  0  0
   13.1199   -4.9168    0.0000 C   0  0  0  0  0  0  0  0  0  0  0  0
   12.4055   -4.5043    0.0000 C   0  0  0  0  0  0  0  0  0  0  0  0
   11.6910   -4.9168    0.0000 C   0  0  0  0  0  0  0  0  0  0  0  0
   10.9765   -4.5043    0.0000 C   0  0  0  0  0  0  0  0  0  0  0  0
   10.2621   -4.9168    0.0000 C   0  0  0  0  0  0  0  0  0  0  0  0
    9.5476   -4.5043    0.0000 C   0  0  0  0  0  0  0  0  0  0  0  0
    8.7226   -4.5043    0.0000 C   0  0  0  0  0  0  0  0  0  0  0  0
    8.0081   -4.9168    0.0000 C   0  0  0  0  0  0  0  0  0  0  0  0
    7.2936   -4.5043    0.0000 C   0  0  0  0  0  0  0  0  0  0  0  0
    6.5792   -4.9168    0.0000 C   0  0  0  0  0  0  0  0  0  0  0  0
    5.8647   -4.5043    0.0000 C   0  0  0  0  0  0  0  0  0  0  0  0
    5.1502   -4.9168    0.0000 C   0  0  0  0  0  0  0  0  0  0  0  0
    4.4358   -4.5043    0.0000 C   0  0  0  0  0  0  0  0  0  0  0  0
    3.7213   -4.9168    0.0000 C   0  0  0  0  0  0  0  0  0  0  0  0
  6  1  1  0  0  0  0
  8  2  1  0  0  0  0
  8  3  1  0  0  0  0
  4  3  2  0  0  0  0
  5  4  1  0  0  0  0
  6  5  2  0  0  0  0
  7  6  1  0  0  0  0
  8  7  2  0  0  0  0
 10  9  1  0  0  0  0
 11 10  1  0  0  0  0
 12 11  1  0  0  0  0
 13 12  1  0  0  0  0
 14 13  1  0  0  0  0
 15 14  1  0  0  0  0
 16 15  2  0  0  0  0
 17 16  1  0  0  0  0
 18 17  1  0  0  0  0
 19 18  1  0  0  0  0
 20 19  1  0  0  0  0
 21 20  1  0  0  0  0
 22 21  1  0  0  0  0
 23 22  1  0  0  0  0
  4 23  1  0  0  0  0
M  END
>  <cdx:fragmentId>
22288

$$$$
