7662.cdx
  Mrv1902 05222410252D          

 28 32  0  0  0  0            999 V2000
    6.2131   -6.2414    0.0000 C   0  0  0  0  0  0  0  0  0  0  0  0
    6.2131   -7.0664    0.0000 C   0  0  0  0  0  0  0  0  0  0  0  0
    6.9275   -7.4789    0.0000 C   0  0  0  0  0  0  0  0  0  0  0  0
    7.6420   -7.0664    0.0000 C   0  0  0  0  0  0  0  0  0  0  0  0
    7.6420   -6.2414    0.0000 C   0  0  0  0  0  0  0  0  0  0  0  0
    6.9275   -5.8289    0.0000 C   0  0  0  0  0  0  0  0  0  0  0  0
    8.4266   -7.3213    0.0000 C   0  0  0  0  0  0  0  0  0  0  0  0
    8.9115   -6.6539    0.0000 O   0  0  0  0  0  0  0  0  0  0  0  0
    8.4266   -5.9865    0.0000 C   0  0  0  0  0  0  0  0  0  0  0  0
    8.6816   -8.1060    0.0000 O   0  0  0  0  0  0  0  0  0  0  0  0
    5.8006   -7.7809    0.0000 C   0  0  0  0  0  0  0  0  0  0  0  0
    6.5150   -8.1934    0.0000 C   0  0  0  0  0  0  0  0  0  0  0  0
    5.9958   -8.8345    0.0000 O   0  0  0  0  0  0  0  0  0  0  0  0
    6.4452   -9.5264    0.0000 C   0  0  0  0  0  0  0  0  0  0  0  0
    7.2421   -9.3129    0.0000 C   0  0  0  0  0  0  0  0  0  0  0  0
    7.2852   -8.4890    0.0000 C   0  0  0  0  0  0  0  0  0  0  0  0
    7.9340   -9.7622    0.0000 C   0  0  0  0  0  0  0  0  0  0  0  0
    8.6690   -9.3877    0.0000 C   0  0  0  0  0  0  0  0  0  0  0  0
    8.7122   -8.5638    0.0000 C   0  0  0  0  0  0  0  0  0  0  0  0
    8.0203   -8.1145    0.0000 C   0  0  0  0  0  0  0  0  0  0  0  0
    4.9756   -7.7809    0.0000 C   0  0  0  0  0  0  0  0  0  0  0  0
    4.3922   -7.1975    0.0000 C   0  0  0  0  0  0  0  0  0  0  0  0
    3.5953   -7.4110    0.0000 C   0  0  0  0  0  0  0  0  0  0  0  0
    6.1495  -10.2966    0.0000 O   0  0  0  0  0  0  0  0  0  0  0  0
    8.6816   -5.2018    0.0000 C   0  0  0  0  0  0  0  0  0  0  0  0
    9.4885   -5.0303    0.0000 C   0  0  0  0  0  0  0  0  0  0  0  0
    9.7435   -4.2457    0.0000 C   0  0  0  0  0  0  0  0  0  0  0  0
   10.5504   -4.0742    0.0000 C   0  0  0  0  0  0  0  0  0  0  0  0
  1  2  1  0  0  0  0
  2  3  1  0  0  0  0
  3  4  1  0  0  0  0
  4  5  2  0  0  0  0
  5  6  1  0  0  0  0
  6  1  1  0  0  0  0
  4  7  1  0  0  0  0
  7  8  1  0  0  0  0
  8  9  1  0  0  0  0
  9  5  1  0  0  0  0
  7 10  2  0  0  0  0
  2 11  1  0  0  0  0
 11 12  1  0  0  0  0
 12  3  1  0  0  0  0
 12 13  1  0  0  0  0
 13 14  1  0  0  0  0
 14 15  1  0  0  0  0
 15 16  2  0  0  0  0
 16 12  1  0  0  0  0
 15 17  1  0  0  0  0
 17 18  2  0  0  0  0
 18 19  1  0  0  0  0
 19 20  1  0  0  0  0
 20 16  1  0  0  0  0
 11 21  1  0  0  0  0
 21 22  1  0  0  0  0
 22 23  1  0  0  0  0
 14 24  2  0  0  0  0
  9 25  2  0  0  0  0
 25 26  1  0  0  0  0
 26 27  1  0  0  0  0
 27 28  1  0  0  0  0
M  END
>  <cdx:fragmentId>
33

$$$$
