7667.cdx
  Mrv1902 05222410242D          

 27 28  0  0  0  0            999 V2000
    7.2492   -7.7912    0.0000 C   0  0  0  0  0  0  0  0  0  0  0  0
    7.2492   -6.9662    0.0000 C   0  0  0  0  0  0  0  0  0  0  0  0
    6.5348   -6.5537    0.0000 C   0  0  0  0  0  0  0  0  0  0  0  0
    5.8203   -6.9662    0.0000 C   0  0  0  0  0  0  0  0  0  0  0  0
    5.8203   -7.7912    0.0000 C   0  0  0  0  0  0  0  0  0  0  0  0
    6.5348   -8.2037    0.0000 C   0  0  0  0  0  0  0  0  0  0  0  0
    5.1058   -6.5537    0.0000 O   0  0  0  0  0  0  0  0  0  0  0  0
    4.3914   -6.9662    0.0000 C   0  0  0  0  0  0  0  0  0  0  0  0
    4.3914   -7.7912    0.0000 C   0  0  0  0  0  0  0  0  0  0  0  0
    5.1058   -8.2037    0.0000 C   0  0  0  0  0  0  0  0  0  0  0  0
    7.2492   -9.4412    0.0000 O   0  0  0  0  0  0  0  0  0  0  0  0
    7.9637   -9.0287    0.0000 C   0  0  1  0  0  0  0  0  0  0  0  0
    7.9637   -8.2037    0.0000 C   0  0  2  0  0  0  0  0  0  0  0  0
    7.2492  -10.2662    0.0000 C   0  0  0  0  0  0  0  0  0  0  0  0
    7.9637  -10.6787    0.0000 O   0  0  0  0  0  0  0  0  0  0  0  0
    8.6782  -10.2662    0.0000 C   0  0  0  0  0  0  0  0  0  0  0  0
    8.6782   -9.4412    0.0000 C   0  0  0  0  0  0  0  0  0  0  0  0
    6.5348  -10.6787    0.0000 C   0  0  0  0  0  0  0  0  0  0  0  0
    6.5348  -11.5037    0.0000 C   0  0  0  0  0  0  0  0  0  0  0  0
    7.2492  -11.9162    0.0000 C   0  0  0  0  0  0  0  0  0  0  0  0
    5.8203  -10.2662    0.0000 C   0  0  0  0  0  0  0  0  0  0  0  0
    9.3927   -9.8537    0.0000 O   0  0  0  0  0  0  0  0  0  0  0  0
    9.3927   -9.0287    0.0000 C   0  0  0  0  0  0  0  0  0  0  0  0
    7.9637   -6.5537    0.0000 O   0  0  0  0  0  0  0  0  0  0  0  0
    7.9637   -5.7287    0.0000 C   0  0  0  0  0  0  0  0  0  0  0  0
    3.6769   -6.5537    0.0000 O   0  0  0  0  0  0  0  0  0  0  0  0
    8.6782   -7.7912    0.0000 O   0  0  0  0  0  0  0  0  0  0  0  0
  1  2  2  0  0  0  0
  2  3  1  0  0  0  0
  3  4  2  0  0  0  0
  4  5  1  0  0  0  0
  5  6  2  0  0  0  0
  6  1  1  0  0  0  0
  4  7  1  0  0  0  0
  7  8  1  0  0  0  0
  8  9  1  0  0  0  0
  9 10  2  0  0  0  0
 10  5  1  0  0  0  0
 12 11  1  1  0  0  0
 12 13  1  0  0  0  0
 13  1  1  0  0  0  0
 11 14  1  0  0  0  0
 14 15  2  0  0  0  0
 16 17  1  0  0  0  0
 17 12  1  0  0  0  0
 14 18  1  0  0  0  0
 18 19  2  0  0  0  0
 19 20  1  0  0  0  0
 18 21  1  0  0  0  0
 17 22  1  0  0  0  0
 17 23  1  0  0  0  0
  2 24  1  0  0  0  0
 24 25  1  0  0  0  0
  8 26  2  0  0  0  0
 13 27  1  1  0  0  0
M  END
>  <cdx:fragmentId>
5

$$$$
