7668.cdx
  Mrv1902 05222410232D          

 36 38  0  0  0  0            999 V2000
    3.3287   -4.9179    0.0000 C   0  0  0  0  0  0  0  0  0  0  0  0
    3.8721   -7.0319    0.0000 C   0  0  0  0  0  0  0  0  0  0  0  0
    3.2612   -5.7401    0.0000 C   0  0  0  0  0  0  0  0  0  0  0  0
    4.7528   -5.0348    0.0000 O   0  0  0  0  0  0  0  0  0  0  0  0
    3.9395   -6.2097    0.0000 C   0  0  0  0  0  0  0  0  0  0  0  0
    4.9804   -4.1518    0.0000 C   0  0  0  0  0  0  0  0  0  0  0  0
    6.7518   -3.1380    0.0000 C   0  0  0  0  0  0  0  0  0  0  0  0
    5.0937   -4.9689    0.0000 O   0  0  0  0  0  0  0  0  0  0  0  0
    6.2541   -3.7959    0.0000 O   0  0  0  0  0  0  0  0  0  0  0  0
    9.6958   -6.7668    0.0000 O   0  0  0  0  0  0  0  0  0  0  0  0
    4.6934   -7.3581    0.0000 C   0  0  0  0  0  0  0  0  0  0  0  0
    5.3667   -6.8813    0.0000 O   0  0  0  0  0  0  0  0  0  0  0  0
    4.9021   -9.0398    0.0000 C   0  0  0  0  0  0  0  0  0  0  0  0
    5.1113   -8.2418    0.0000 O   0  0  0  0  0  0  0  0  0  0  0  0
    6.8708   -9.9824    0.0000 C   0  0  0  0  0  0  0  0  0  0  0  0
    6.2843   -9.4022    0.0000 O   0  0  0  0  0  0  0  0  0  0  0  0
    4.6854   -5.8570    0.0000 C   0  0  0  0  0  0  0  0  0  0  0  0
    5.3637   -6.3266    0.0000 O   0  0  0  0  0  0  0  0  0  0  0  0
    9.4994   -7.5681    0.0000 C   0  0  0  0  0  0  0  0  0  0  0  0
    9.6597   -5.8526    0.0000 C   0  0  0  0  0  0  0  0  0  0  0  0
    6.1095   -5.9739    0.0000 C   0  0  0  0  0  0  0  0  0  0  0  0
    5.8917   -5.1782    0.0000 C   0  0  0  0  0  0  0  0  0  0  0  0
    6.4719   -4.5917    0.0000 C   0  0  0  0  0  0  0  0  0  0  0  0
    7.2699   -4.8009    0.0000 C   0  0  0  0  0  0  0  0  0  0  0  0
    7.4878   -5.5966    0.0000 C   0  0  0  0  0  0  0  0  0  0  0  0
    8.3127   -5.5922    0.0000 C   0  0  0  0  0  0  0  0  0  0  0  0
    8.8992   -6.1724    0.0000 C   0  0  1  0  0  0  0  0  0  0  0  0
    8.9037   -6.9974    0.0000 C   0  0  2  0  0  0  0  0  0  0  0  0
    8.3235   -7.5839    0.0000 C   0  0  0  0  0  0  0  0  0  0  0  0
    7.4985   -7.5883    0.0000 C   0  0  0  0  0  0  0  0  0  0  0  0
    7.2892   -8.3864    0.0000 C   0  0  0  0  0  0  0  0  0  0  0  0
    6.4935   -8.6042    0.0000 C   0  0  0  0  0  0  0  0  0  0  0  0
    5.9070   -8.0240    0.0000 C   0  0  0  0  0  0  0  0  0  0  0  0
    6.1163   -7.2259    0.0000 C   0  0  0  0  0  0  0  0  0  0  0  0
    6.9120   -7.0081    0.0000 C   0  0  0  0  0  0  0  0  0  0  0  0
    6.9075   -6.1831    0.0000 C   0  0  0  0  0  0  0  0  0  0  0  0
  3  1  1  0  0  0  0
  5  2  1  0  0  0  0
  5  3  2  0  0  0  0
 17  4  2  0  0  0  0
 17  5  1  0  0  0  0
  8  6  1  0  0  0  0
  9  7  1  0  0  0  0
 22  8  1  0  0  0  0
 23  9  1  0  0  0  0
 28 10  1  1  0  0  0
 34 12  1  0  0  0  0
 12 11  1  0  0  0  0
 33 14  1  0  0  0  0
 14 13  1  0  0  0  0
 32 16  1  0  0  0  0
 16 15  1  0  0  0  0
 21 18  1  0  0  0  0
 18 17  1  0  0  0  0
 28 19  1  6  0  0  0
 27 20  1  6  0  0  0
 35 30  1  0  0  0  0
 23 22  2  0  0  0  0
 36 25  1  0  0  0  0
 36 21  2  0  0  0  0
 22 21  1  0  0  0  0
 24 23  1  0  0  0  0
 25 24  2  0  0  0  0
 26 25  1  0  0  0  0
 27 26  1  0  0  0  0
 28 27  1  0  0  0  0
 29 28  1  0  0  0  0
 30 29  1  0  0  0  0
 31 30  2  0  0  0  0
 32 31  1  0  0  0  0
 33 32  2  0  0  0  0
 34 33  1  0  0  0  0
 35 34  2  0  0  0  0
 36 35  1  0  0  0  0
M  END
>  <cdx:fragmentId>
19

$$$$
