101767367.cdx
  Mrv1902 05222410252D          

 31 34  0  0  0  0            999 V2000
    8.6462   -7.0895    0.0000 C   0  0  0  0  0  0  0  0  0  0  0  0
    8.6462   -6.2645    0.0000 C   0  0  0  0  0  0  0  0  0  0  0  0
    7.9317   -5.8520    0.0000 C   0  0  0  0  0  0  0  0  0  0  0  0
    7.2172   -6.2645    0.0000 C   0  0  0  0  0  0  0  0  0  0  0  0
    6.5028   -5.8520    0.0000 C   0  0  0  0  0  0  0  0  0  0  0  0
    5.7883   -6.2645    0.0000 C   0  0  0  0  0  0  0  0  0  0  0  0
    5.7883   -7.0895    0.0000 C   0  0  0  0  0  0  0  0  0  0  0  0
    6.5028   -7.5020    0.0000 C   0  0  0  0  0  0  0  0  0  0  0  0
    7.2172   -7.0895    0.0000 C   0  0  0  0  0  0  0  0  0  0  0  0
    7.9317   -7.5020    0.0000 O   0  0  0  0  0  0  0  0  0  0  0  0
    7.9317   -5.0270    0.0000 O   0  0  0  0  0  0  0  0  0  0  0  0
    9.3607   -7.5020    0.0000 C   0  0  0  0  0  0  0  0  0  0  0  0
   10.0751   -7.0895    0.0000 C   0  0  0  0  0  0  0  0  0  0  0  0
   10.7896   -7.5020    0.0000 C   0  0  0  0  0  0  0  0  0  0  0  0
   10.7896   -8.3270    0.0000 C   0  0  0  0  0  0  0  0  0  0  0  0
   10.0751   -8.7395    0.0000 C   0  0  0  0  0  0  0  0  0  0  0  0
    9.3607   -8.3270    0.0000 C   0  0  0  0  0  0  0  0  0  0  0  0
   11.5041   -7.0895    0.0000 O   0  0  0  0  0  0  0  0  0  0  0  0
   12.2185   -7.5020    0.0000 C   0  0  0  0  0  0  0  0  0  0  0  0
   11.5041   -8.7395    0.0000 O   0  0  0  0  0  0  0  0  0  0  0  0
    5.0738   -7.5020    0.0000 O   0  0  0  0  0  0  0  0  0  0  0  0
    6.5028   -5.0270    0.0000 O   0  0  0  0  0  0  0  0  0  0  0  0
    5.0738   -5.0270    0.0000 O   0  0  0  0  0  0  0  0  0  0  0  0
    5.0738   -5.8520    0.0000 C   0  0  1  0  0  0  0  0  0  0  0  0
    4.3594   -6.2645    0.0000 C   0  0  0  0  0  0  0  0  0  0  0  0
    3.6449   -5.8520    0.0000 C   0  0  2  0  0  0  0  0  0  0  0  0
    3.6449   -5.0270    0.0000 C   0  0  1  0  0  0  0  0  0  0  0  0
    4.3594   -4.6145    0.0000 C   0  0  2  0  0  0  0  0  0  0  0  0
    4.3594   -3.7895    0.0000 C   0  0  0  0  0  0  0  0  0  0  0  0
    2.9304   -4.6145    0.0000 O   0  0  0  0  0  0  0  0  0  0  0  0
    2.9304   -6.2645    0.0000 O   0  0  0  0  0  0  0  0  0  0  0  0
  1  2  2  0  0  0  0
  2  3  1  0  0  0  0
  3  4  1  0  0  0  0
  4  5  1  0  0  0  0
  5  6  2  0  0  0  0
  6  7  1  0  0  0  0
  7  8  2  0  0  0  0
  8  9  1  0  0  0  0
  4  9  2  0  0  0  0
  9 10  1  0  0  0  0
  1 10  1  0  0  0  0
  3 11  2  0  0  0  0
 12 13  1  0  0  0  0
 13 14  2  0  0  0  0
 14 15  1  0  0  0  0
 15 16  2  0  0  0  0
 16 17  1  0  0  0  0
 12 17  2  0  0  0  0
 18 19  1  0  0  0  0
 14 18  1  0  0  0  0
 15 20  1  0  0  0  0
  1 12  1  0  0  0  0
  7 21  1  0  0  0  0
  5 22  1  0  0  0  0
 23 24  1  0  0  0  0
 24 25  1  0  0  0  0
 25 26  1  0  0  0  0
 26 27  1  0  0  0  0
 27 28  1  0  0  0  0
 23 28  1  0  0  0  0
 28 29  1  6  0  0  0
 27 30  1  6  0  0  0
 26 31  1  1  0  0  0
 24  6  1  6  0  0  0
M  END
>  <cdx:groupId>
98

>  <cdx:fragmentId>
5

$$$$
