767761.cdx
  Mrv1902 05222410252D          

 22 24  0  0  0  0            999 V2000
    6.6310   -9.4871    0.0000 O   0  0  0  0  0  0  0  0  0  0  0  0
    7.1160   -8.8197    0.0000 C   0  0  0  0  0  0  0  0  0  0  0  0
    6.6310   -8.1523    0.0000 C   0  0  0  0  0  0  0  0  0  0  0  0
    5.8464   -8.4072    0.0000 C   0  0  0  0  0  0  0  0  0  0  0  0
    5.1319   -7.9947    0.0000 C   0  0  0  0  0  0  0  0  0  0  0  0
    4.4175   -8.4072    0.0000 C   0  0  0  0  0  0  0  0  0  0  0  0
    4.4175   -9.2322    0.0000 C   0  0  0  0  0  0  0  0  0  0  0  0
    5.1319   -9.6447    0.0000 C   0  0  0  0  0  0  0  0  0  0  0  0
    5.8464   -9.2322    0.0000 C   0  0  0  0  0  0  0  0  0  0  0  0
    6.8860   -7.3676    0.0000 O   0  0  0  0  0  0  0  0  0  0  0  0
    5.1319   -7.1697    0.0000 O   0  0  0  0  0  0  0  0  0  0  0  0
    4.4175   -6.7572    0.0000 C   0  0  0  0  0  0  0  0  0  0  0  0
    7.8304   -8.4072    0.0000 C   0  0  0  0  0  0  0  0  0  0  0  0
    8.5449   -8.8197    0.0000 C   0  0  0  0  0  0  0  0  0  0  0  0
    9.2594   -8.4072    0.0000 C   0  0  0  0  0  0  0  0  0  0  0  0
    9.9738   -8.8197    0.0000 C   0  0  0  0  0  0  0  0  0  0  0  0
    9.9738   -9.6447    0.0000 C   0  0  0  0  0  0  0  0  0  0  0  0
    9.2594  -10.0572    0.0000 C   0  0  0  0  0  0  0  0  0  0  0  0
    8.5449   -9.6447    0.0000 C   0  0  0  0  0  0  0  0  0  0  0  0
   10.6883  -10.0572    0.0000 O   0  0  0  0  0  0  0  0  0  0  0  0
    3.7030   -9.6447    0.0000 O   0  0  0  0  0  0  0  0  0  0  0  0
    7.8304   -9.2322    0.0000 O   0  0  0  0  0  0  0  0  0  0  0  0
  1  2  1  0  0  0  0
  2  3  1  0  0  0  0
  3  4  1  0  0  0  0
  4  5  1  0  0  0  0
  5  6  2  0  0  0  0
  6  7  1  0  0  0  0
  7  8  2  0  0  0  0
  8  9  1  0  0  0  0
  4  9  2  0  0  0  0
  1  9  1  0  0  0  0
  3 10  2  0  0  0  0
 11 12  1  0  0  0  0
  5 11  1  0  0  0  0
 14 15  1  0  0  0  0
 15 16  2  0  0  0  0
 16 17  1  0  0  0  0
 17 18  2  0  0  0  0
 18 19  1  0  0  0  0
 14 19  2  0  0  0  0
 17 20  1  0  0  0  0
 13 14  1  0  0  0  0
  2 13  1  0  0  0  0
  7 21  1  0  0  0  0
  2 22  1  0  0  0  0
M  END
>  <cdx:fragmentId>
5

$$$$
