76851.cdx
  Mrv1902 05222410222D          

 10 10  0  0  0  0            999 V2000
    3.3107   -2.3310    0.0000 C   0  0  0  0  0  0  0  0  0  0  0  0
    4.0252   -1.9185    0.0000 C   0  0  0  0  0  0  0  0  0  0  0  0
    4.7396   -2.3310    0.0000 C   0  0  0  0  0  0  0  0  0  0  0  0
    4.7396   -3.1560    0.0000 C   0  0  0  0  0  0  0  0  0  0  0  0
    4.0252   -3.5685    0.0000 C   0  0  0  0  0  0  0  0  0  0  0  0
    3.3107   -3.1560    0.0000 C   0  0  0  0  0  0  0  0  0  0  0  0
    5.4541   -3.5685    0.0000 C   0  0  0  0  0  0  0  0  0  0  0  0
    6.1686   -3.1560    0.0000 C   0  0  0  0  0  0  0  0  0  0  0  0
    6.8830   -3.5685    0.0000 C   0  0  0  0  0  0  0  0  0  0  0  0
    2.5962   -1.9185    0.0000 C   0  0  0  0  0  0  0  0  0  0  0  0
  1  2  1  0  0  0  0
  2  3  2  0  0  0  0
  3  4  1  0  0  0  0
  4  5  2  0  0  0  0
  5  6  1  0  0  0  0
  1  6  2  0  0  0  0
  7  8  1  0  0  0  0
  8  9  2  0  0  0  0
  4  7  1  0  0  0  0
  1 10  1  0  0  0  0
M  END
>  <cdx:groupId>
32

>  <cdx:fragmentId>
5

$$$$
