76883.cdx
  Mrv1902 05222410202D          

 11 11  0  0  0  0            999 V2000
    5.2568   -7.2330    0.0000 C   0  0  0  0  0  0  0  0  0  0  0  0
    9.5437   -7.2330    0.0000 C   0  0  0  0  0  0  0  0  0  0  0  0
    8.8292   -7.6455    0.0000 C   0  0  0  0  0  0  0  0  0  0  0  0
    8.1147   -7.2330    0.0000 C   0  0  0  0  0  0  0  0  0  0  0  0
    6.6858   -6.4080    0.0000 O   0  0  0  0  0  0  0  0  0  0  0  0
    7.4002   -7.6455    0.0000 C   0  0  0  0  0  0  0  0  0  0  0  0
    7.4002   -8.4705    0.0000 C   0  0  0  0  0  0  0  0  0  0  0  0
    6.6858   -8.8830    0.0000 C   0  0  0  0  0  0  0  0  0  0  0  0
    5.9713   -8.4705    0.0000 C   0  0  0  0  0  0  0  0  0  0  0  0
    5.9713   -7.6455    0.0000 C   0  0  0  0  0  0  0  0  0  0  0  0
    6.6858   -7.2330    0.0000 C   0  0  0  0  0  0  0  0  0  0  0  0
 10  1  1  0  0  0  0
  6  4  1  0  0  0  0
  3  2  2  0  0  0  0
  4  3  1  0  0  0  0
 11  5  1  0  0  0  0
 11  6  2  0  0  0  0
  7  6  1  0  0  0  0
  8  7  2  0  0  0  0
  9  8  1  0  0  0  0
 10  9  2  0  0  0  0
 11 10  1  0  0  0  0
M  END
>  <cdx:fragmentId>
5

$$$$
