7688.cdx
  Mrv1902 05222410242D          

 29 32  0  0  0  0            999 V2000
    7.9580   -8.1236    0.0000 C   0  0  2  0  0  0  0  0  0  0  0  0
    8.2048   -8.9109    0.0000 C   0  0  2  0  0  0  0  0  0  0  0  0
    9.0099   -9.0908    0.0000 C   0  0  0  0  0  0  0  0  0  0  0  0
    9.5683   -8.4835    0.0000 C   0  0  0  0  0  0  0  0  0  0  0  0
    9.3215   -7.6962    0.0000 C   0  0  1  0  0  0  0  0  0  0  0  0
    8.5164   -7.5163    0.0000 C   0  0  1  0  0  0  0  0  0  0  0  0
    7.1331   -8.1150    0.0000 C   0  0  2  0  0  0  0  0  0  0  0  0
    6.8699   -8.8970    0.0000 C   0  0  2  0  0  0  0  0  0  0  0  0
    7.5323   -9.3888    0.0000 C   0  0  1  0  0  0  0  0  0  0  0  0
    6.4707   -7.6232    0.0000 C   0  0  0  0  0  0  0  0  0  0  0  0
    5.7982   -8.1011    0.0000 C   0  0  0  0  0  0  0  0  0  0  0  0
    6.0450   -8.8884    0.0000 C   0  0  0  0  0  0  0  0  0  0  0  0
    6.5522   -6.8022    0.0000 C   0  0  0  0  0  0  0  0  0  0  0  0
    5.0264   -7.8099    0.0000 C   0  0  0  0  0  0  0  0  0  0  0  0
    4.8926   -6.9958    0.0000 C   0  0  0  0  0  0  0  0  0  0  0  0
    4.3882   -8.3327    0.0000 C   0  0  0  0  0  0  0  0  0  0  0  0
    7.4243   -7.3431    0.0000 O   0  0  0  0  0  0  0  0  0  0  0  0
    8.5446   -9.6626    0.0000 O   0  0  0  0  0  0  0  0  0  0  0  0
    9.9597   -7.1734    0.0000 C   0  0  0  0  0  0  0  0  0  0  0  0
    8.1765   -6.7646    0.0000 O   0  0  0  0  0  0  0  0  0  0  0  0
    7.6354   -8.8479    0.0000 O   0  0  0  0  0  0  0  0  0  0  0  0
    6.7275   -9.6420    0.0000 C   0  0  0  0  0  0  0  0  0  0  0  0
    7.1382   -9.9592    0.0000 C   0  0  0  0  0  0  0  0  0  0  0  0
    5.9134   -9.7758    0.0000 O   0  0  0  0  0  0  0  0  0  0  0  0
    7.9448  -10.1033    0.0000 C   0  0  0  0  0  0  0  0  0  0  0  0
    6.2318   -9.4198    0.0000 O   0  0  0  0  0  0  0  0  0  0  0  0
    8.6576   -6.0944    0.0000 C   0  0  0  0  0  0  0  0  0  0  0  0
    8.3178   -5.3426    0.0000 C   0  0  0  0  0  0  0  0  0  0  0  0
    9.4786   -6.1759    0.0000 O   0  0  0  0  0  0  0  0  0  0  0  0
  1  2  1  0  0  0  0
  2  3  1  0  0  0  0
  3  4  1  0  0  0  0
  4  5  1  0  0  0  0
  5  6  1  0  0  0  0
  6  1  1  0  0  0  0
  1  7  1  0  0  0  0
  7  8  1  0  0  0  0
  9  2  1  0  0  0  0
  7 10  1  0  0  0  0
 10 11  2  0  0  0  0
 11 12  1  0  0  0  0
 12  8  1  0  0  0  0
 10 13  1  0  0  0  0
 11 14  1  0  0  0  0
 14 15  1  0  0  0  0
 14 16  1  0  0  0  0
  7 17  1  1  0  0  0
  2 18  1  1  0  0  0
  5 19  1  1  0  0  0
  6 20  1  6  0  0  0
  1 21  1  6  0  0  0
 21 22  1  0  0  0  0
  9 23  1  6  0  0  0
 22 23  1  0  0  0  0
 22 24  2  0  0  0  0
  8  9  1  0  0  0  0
  9 25  1  0  0  0  0
  8 26  1  1  0  0  0
 20 27  1  0  0  0  0
 27 28  1  0  0  0  0
 27 29  2  0  0  0  0
M  END
>  <cdx:fragmentId>
5

$$$$
