769102.cdx
  Mrv1902 05222410282D          

 36 39  0  0  0  0            999 V2000
   10.6729   -9.6843    0.0000 C   0  0  0  0  0  0  0  0  0  0  0  0
    9.9738   -9.2462    0.0000 C   0  0  0  0  0  0  0  0  0  0  0  0
   10.0037   -8.4217    0.0000 C   0  0  0  0  0  0  0  0  0  0  0  0
   10.6430  -10.5088    0.0000 O   0  0  0  0  0  0  0  0  0  0  0  0
   11.4018   -9.2980    0.0000 O   0  0  0  0  0  0  0  0  0  0  0  0
    9.2449   -9.6325    0.0000 O   0  0  0  0  0  0  0  0  0  0  0  0
    8.5458   -9.1944    0.0000 C   0  0  0  0  0  0  0  0  0  0  0  0
    7.8169   -9.5807    0.0000 C   0  0  0  0  0  0  0  0  0  0  0  0
    7.1178   -9.1426    0.0000 C   0  0  0  0  0  0  0  0  0  0  0  0
    8.5757   -8.3699    0.0000 O   0  0  0  0  0  0  0  0  0  0  0  0
    4.3314  -10.8976    0.0000 O   0  0  0  0  0  0  0  0  0  0  0  0
    4.9758  -10.3825    0.0000 C   0  0  0  0  0  0  0  0  0  0  0  0
    4.9749   -9.5575    0.0000 C   0  0  0  0  0  0  0  0  0  0  0  0
    4.3293   -9.0439    0.0000 C   0  0  0  0  0  0  0  0  0  0  0  0
    3.5252   -9.2284    0.0000 C   0  0  0  0  0  0  0  0  0  0  0  0
    3.1681   -9.9721    0.0000 C   0  0  0  0  0  0  0  0  0  0  0  0
    3.5269  -10.7150    0.0000 C   0  0  0  0  0  0  0  0  0  0  0  0
    3.0629  -11.3972    0.0000 C   0  0  0  0  0  0  0  0  0  0  0  0
    2.2402  -11.3364    0.0000 C   0  0  0  0  0  0  0  0  0  0  0  0
    1.8814  -10.5936    0.0000 C   0  0  0  0  0  0  0  0  0  0  0  0
    2.3453   -9.9114    0.0000 C   0  0  0  0  0  0  0  0  0  0  0  0
    5.6889   -9.1442    0.0000 C   0  0  0  0  0  0  0  0  0  0  0  0
    6.4038   -9.5559    0.0000 C   0  0  0  0  0  0  0  0  0  0  0  0
    6.4048  -10.3809    0.0000 C   0  0  0  0  0  0  0  0  0  0  0  0
    5.6908  -10.7942    0.0000 C   0  0  0  0  0  0  0  0  0  0  0  0
    1.7762  -12.0186    0.0000 O   0  0  0  0  0  0  0  0  0  0  0  0
    1.0586  -10.5328    0.0000 O   0  0  0  0  0  0  0  0  0  0  0  0
   10.7327   -8.0354    0.0000 C   0  0  0  0  0  0  0  0  0  0  0  0
   10.7626   -7.2109    0.0000 C   0  0  0  0  0  0  0  0  0  0  0  0
   11.4916   -6.8246    0.0000 C   0  0  0  0  0  0  0  0  0  0  0  0
   12.1906   -7.2627    0.0000 C   0  0  0  0  0  0  0  0  0  0  0  0
   12.1607   -8.0872    0.0000 C   0  0  0  0  0  0  0  0  0  0  0  0
   11.4317   -8.4735    0.0000 C   0  0  0  0  0  0  0  0  0  0  0  0
   12.9196   -6.8764    0.0000 O   0  0  0  0  0  0  0  0  0  0  0  0
   11.5215   -6.0001    0.0000 O   0  0  0  0  0  0  0  0  0  0  0  0
    5.6917  -11.6192    0.0000 O   0  0  0  0  0  0  0  0  0  0  0  0
  1  2  1  0  0  0  0
  2  3  1  0  0  0  0
  1  4  2  0  0  0  0
  1  5  1  0  0  0  0
  7  8  1  0  0  0  0
  8  9  2  0  0  0  0
  7 10  2  0  0  0  0
 11 12  1  0  0  0  0
 12 13  2  0  0  0  0
 13 14  1  0  0  0  0
 14 15  2  0  0  0  0
 15 16  1  0  0  0  0
 16 17  1  0  0  0  0
 11 17  1  0  0  0  0
 18 19  1  0  0  0  0
 19 20  2  0  0  0  0
 20 21  1  0  0  0  0
 21 16  2  0  0  0  0
 18 17  2  0  0  0  0
 22 23  2  0  0  0  0
 23 24  1  0  0  0  0
 24 25  2  0  0  0  0
 25 12  1  0  0  0  0
 22 13  1  0  0  0  0
 19 26  1  0  0  0  0
 20 27  1  0  0  0  0
  9 23  1  0  0  0  0
  6  7  1  0  0  0  0
  2  6  1  0  0  0  0
 28 29  1  0  0  0  0
 29 30  2  0  0  0  0
 30 31  1  0  0  0  0
 31 32  2  0  0  0  0
 32 33  1  0  0  0  0
 28 33  2  0  0  0  0
 31 34  1  0  0  0  0
 30 35  1  0  0  0  0
  3 28  1  0  0  0  0
 25 36  1  0  0  0  0
M  END
>  <cdx:fragmentId>
179009

$$$$
