76922.cdx
  Mrv1902 05222410212D          

  7  6  0  0  0  0            999 V2000
    4.6735   -8.0949    0.0000 S   0  0  0  0  0  0  0  0  0  0  0  0
    5.3880   -8.5074    0.0000 C   0  0  0  0  0  0  0  0  0  0  0  0
    6.1024   -8.9199    0.0000 N   0  0  0  0  0  0  0  0  0  0  0  0
    8.9603   -8.9199    0.0000 C   0  0  0  0  0  0  0  0  0  0  0  0
    8.2458   -8.5074    0.0000 C   0  0  0  0  0  0  0  0  0  0  0  0
    7.5314   -8.9199    0.0000 C   0  0  0  0  0  0  0  0  0  0  0  0
    6.8169   -8.5074    0.0000 C   0  0  0  0  0  0  0  0  0  0  0  0
  7  3  1  0  0  0  0
  2  1  2  0  0  0  0
  3  2  2  0  0  0  0
  5  4  2  0  0  0  0
  6  5  1  0  0  0  0
  7  6  1  0  0  0  0
M  END
>  <cdx:fragmentId>
5

$$$$
