76955.cdx
  Mrv1902 05222410192D          

 11 12  0  0  0  0            999 V2000
    8.4392   -6.5670    0.0000 N   0  0  0  0  0  0  0  0  0  0  0  0
    8.9242   -5.8996    0.0000 C   0  0  0  0  0  0  0  0  0  0  0  0
    9.7492   -5.8996    0.0000 O   0  0  0  0  0  0  0  0  0  0  0  0
    8.4392   -5.2321    0.0000 C   0  0  0  0  0  0  0  0  0  0  0  0
    7.6546   -5.4871    0.0000 C   0  0  0  0  0  0  0  0  0  0  0  0
    6.9401   -5.0746    0.0000 C   0  0  0  0  0  0  0  0  0  0  0  0
    6.2257   -5.4871    0.0000 C   0  0  0  0  0  0  0  0  0  0  0  0
    6.2257   -6.3121    0.0000 C   0  0  0  0  0  0  0  0  0  0  0  0
    6.9401   -6.7246    0.0000 C   0  0  0  0  0  0  0  0  0  0  0  0
    7.6546   -6.3121    0.0000 C   0  0  0  0  0  0  0  0  0  0  0  0
    5.5112   -5.0746    0.0000 O   0  0  0  0  0  0  0  0  0  0  0  0
  1  2  1  0  0  0  0
  2  3  2  0  0  0  0
  2  4  1  0  0  0  0
  4  5  1  0  0  0  0
  5  6  1  0  0  0  0
  6  7  2  0  0  0  0
  7  8  1  0  0  0  0
  8  9  2  0  0  0  0
  9 10  1  0  0  0  0
  1 10  1  0  0  0  0
  5 10  2  0  0  0  0
  7 11  1  0  0  0  0
M  END
>  <cdx:fragmentId>
5

$$$$
