770262.cdx
  Mrv1902 05222410192D          

 37 40  0  0  0  0            999 V2000
    6.7737   -9.3800    0.0000 C   0  0  0  0  0  0  0  0  0  0  0  0
    7.5960   -9.4477    0.0000 C   0  0  0  0  0  0  0  0  0  0  0  0
    7.9485  -10.1935    0.0000 C   0  0  0  0  0  0  0  0  0  0  0  0
    8.7707  -10.2611    0.0000 C   0  0  0  0  0  0  0  0  0  0  0  0
    9.2404   -9.5829    0.0000 C   0  0  0  0  0  0  0  0  0  0  0  0
    8.8879   -8.8370    0.0000 C   0  0  0  0  0  0  0  0  0  0  0  0
    8.0656   -8.7694    0.0000 C   0  0  0  0  0  0  0  0  0  0  0  0
   10.0626   -9.6505    0.0000 O   0  0  0  0  0  0  0  0  0  0  0  0
   11.3545   -9.0398    0.0000 O   0  0  0  0  0  0  0  0  0  0  0  0
   10.5323   -8.9722    0.0000 C   0  0  2  0  0  0  0  0  0  0  0  0
   10.1797   -8.2263    0.0000 C   0  0  1  0  0  0  0  0  0  0  0  0
   10.6494   -7.5481    0.0000 C   0  0  2  0  0  0  0  0  0  0  0  0
   11.4716   -7.6157    0.0000 C   0  0  1  0  0  0  0  0  0  0  0  0
   11.8242   -8.3616    0.0000 C   0  0  1  0  0  0  0  0  0  0  0  0
   12.6464   -8.4292    0.0000 C   0  0  0  0  0  0  0  0  0  0  0  0
   13.0799   -7.7273    0.0000 O   0  0  0  0  0  0  0  0  0  0  0  0
   11.9413   -6.9374    0.0000 O   0  0  0  0  0  0  0  0  0  0  0  0
   10.2968   -6.8022    0.0000 O   0  0  0  0  0  0  0  0  0  0  0  0
    9.3575   -8.1587    0.0000 O   0  0  0  0  0  0  0  0  0  0  0  0
    9.1233  -11.0070    0.0000 O   0  0  0  0  0  0  0  0  0  0  0  0
    9.9479  -11.0315    0.0000 C   0  0  0  0  0  0  0  0  0  0  0  0
    6.4212   -8.6342    0.0000 O   0  0  0  0  0  0  0  0  0  0  0  0
    6.5767  -10.8369    0.0000 C   0  0  0  0  0  0  0  0  0  0  0  0
    6.3041  -10.0583    0.0000 C   0  0  0  0  0  0  0  0  0  0  0  0
    5.4793  -10.0770    0.0000 C   0  0  0  0  0  0  0  0  0  0  0  0
    5.2422  -10.8672    0.0000 C   0  0  0  0  0  0  0  0  0  0  0  0
    5.9205  -11.3369    0.0000 O   0  0  0  0  0  0  0  0  0  0  0  0
    4.9794   -9.4207    0.0000 C   0  0  0  0  0  0  0  0  0  0  0  0
    1.9091  -11.3661    0.0000 C   0  0  0  0  0  0  0  0  0  0  0  0
    2.7060  -11.1526    0.0000 O   0  0  0  0  0  0  0  0  0  0  0  0
    2.8428   -8.9741    0.0000 C   0  0  0  0  0  0  0  0  0  0  0  0
    3.6611   -8.8693    0.0000 C   0  0  0  0  0  0  0  0  0  0  0  0
    4.1610   -9.5256    0.0000 C   0  0  0  0  0  0  0  0  0  0  0  0
    3.8427  -10.2866    0.0000 C   0  0  0  0  0  0  0  0  0  0  0  0
    3.0243  -10.3915    0.0000 C   0  0  0  0  0  0  0  0  0  0  0  0
    2.5244   -9.7352    0.0000 C   0  0  0  0  0  0  0  0  0  0  0  0
    1.7061   -9.8400    0.0000 O   0  0  0  0  0  0  0  0  0  0  0  0
 33 28  1  0  0  0  0
 28 25  1  0  0  0  0
 24  1  1  0  0  0  0
  2  3  1  0  0  0  0
 27 23  1  0  0  0  0
 24 23  1  0  0  0  0
 25 24  1  0  0  0  0
 26 25  1  0  0  0  0
 27 26  1  0  0  0  0
 35 30  1  0  0  0  0
 30 29  1  0  0  0  0
 37 36  1  0  0  0  0
 36 31  2  0  0  0  0
 32 31  1  0  0  0  0
 33 32  2  0  0  0  0
 34 33  1  0  0  0  0
 35 34  2  0  0  0  0
 36 35  1  0  0  0  0
  3  4  2  0  0  0  0
  4  5  1  0  0  0  0
  5  6  2  0  0  0  0
  6  7  1  0  0  0  0
  2  7  2  0  0  0  0
  9 10  1  0  0  0  0
 10 11  1  0  0  0  0
 11 12  1  0  0  0  0
 12 13  1  0  0  0  0
 13 14  1  0  0  0  0
  9 14  1  0  0  0  0
 15 16  1  0  0  0  0
 14 15  1  1  0  0  0
 13 17  1  6  0  0  0
 12 18  1  1  0  0  0
 11 19  1  6  0  0  0
 10  8  1  1  0  0  0
  5  8  1  0  0  0  0
 20 21  1  0  0  0  0
  4 20  1  0  0  0  0
  1  2  1  0  0  0  0
  1 22  1  0  0  0  0
M  END
>  <cdx:fragmentId>
1653

$$$$
