7704.cdx
  Mrv1902 05222410232D          

 10 10  0  0  0  0            999 V2000
    9.7231   -4.2616    0.0000 C   0  0  0  0  0  0  0  0  0  0  0  0
    9.0086   -4.6741    0.0000 C   0  0  0  0  0  0  0  0  0  0  0  0
    8.2942   -4.2616    0.0000 C   0  0  0  0  0  0  0  0  0  0  0  0
    7.5797   -4.6741    0.0000 C   0  0  0  0  0  0  0  0  0  0  0  0
    4.7390   -4.0703    0.0000 O   0  0  0  0  0  0  0  0  0  0  0  0
    6.8652   -4.2616    0.0000 C   0  0  0  0  0  0  0  0  0  0  0  0
    6.7790   -3.4411    0.0000 C   0  0  0  0  0  0  0  0  0  0  0  0
    5.9720   -3.2696    0.0000 C   0  0  0  0  0  0  0  0  0  0  0  0
    5.5595   -3.9841    0.0000 C   0  0  0  0  0  0  0  0  0  0  0  0
    6.1115   -4.5972    0.0000 O   0  0  0  0  0  0  0  0  0  0  0  0
  6  4  1  0  0  0  0
  2  1  1  0  0  0  0
  3  2  1  0  0  0  0
  4  3  1  0  0  0  0
  9  5  2  0  0  0  0
 10  6  1  0  0  0  0
  7  6  1  0  0  0  0
  8  7  1  0  0  0  0
  9  8  1  0  0  0  0
 10  9  1  0  0  0  0
M  END
>  <cdx:groupId>
32

>  <cdx:fragmentId>
5

$$$$
