7705.cdx
  Mrv1902 05222410232D          

 10 10  0  0  0  0            999 V2000
    8.8530   -5.1150    0.0000 C   0  0  0  0  0  0  0  0  0  0  0  0
    8.1385   -5.5275    0.0000 C   0  0  0  0  0  0  0  0  0  0  0  0
    7.4241   -5.1150    0.0000 C   0  0  0  0  0  0  0  0  0  0  0  0
    6.7096   -5.5275    0.0000 C   0  0  0  0  0  0  0  0  0  0  0  0
    5.2806   -5.5275    0.0000 C   0  0  0  0  0  0  0  0  0  0  0  0
    4.5662   -5.1150    0.0000 C   0  0  0  0  0  0  0  0  0  0  0  0
    4.5662   -4.2900    0.0000 C   0  0  0  0  0  0  0  0  0  0  0  0
    5.2806   -3.8775    0.0000 C   0  0  0  0  0  0  0  0  0  0  0  0
    5.9951   -4.2900    0.0000 C   0  0  0  0  0  0  0  0  0  0  0  0
    5.9951   -5.1150    0.0000 C   0  0  0  0  0  0  0  0  0  0  0  0
 10  4  1  0  0  0  0
  2  1  1  0  0  0  0
  3  2  1  0  0  0  0
  4  3  1  0  0  0  0
 10  5  2  0  0  0  0
  6  5  1  0  0  0  0
  7  6  2  0  0  0  0
  8  7  1  0  0  0  0
  9  8  2  0  0  0  0
 10  9  1  0  0  0  0
M  END
>  <cdx:groupId>
32

>  <cdx:fragmentId>
5

$$$$
