770852.cdx
  Mrv1902 05222410182D          

 27 31  0  0  0  0            999 V2000
    7.0961   -8.1629    0.0000 C   0  0  2  0  0  0  0  0  0  0  0  0
    5.3934   -6.0627    0.0000 O   0  0  0  0  0  0  0  0  0  0  0  0
    5.2800   -5.2456    0.0000 C   0  0  0  0  0  0  0  0  0  0  0  0
    6.0221   -4.8852    0.0000 O   0  0  0  0  0  0  0  0  0  0  0  0
    6.5942   -5.4796    0.0000 C   0  0  0  0  0  0  0  0  0  0  0  0
    6.2057   -6.2074    0.0000 C   0  0  0  0  0  0  0  0  0  0  0  0
    7.4187   -5.4522    0.0000 C   0  0  0  0  0  0  0  0  0  0  0  0
    7.8547   -6.1526    0.0000 C   0  0  0  0  0  0  0  0  0  0  0  0
    7.4662   -6.8804    0.0000 C   0  0  0  0  0  0  0  0  0  0  0  0
    6.6417   -6.9078    0.0000 C   0  0  0  0  0  0  0  0  0  0  0  0
    6.4129   -7.7004    0.0000 C   0  0  2  0  0  0  0  0  0  0  0  0
    7.7471   -7.6561    0.0000 C   0  0  0  0  0  0  0  0  0  0  0  0
    5.6372   -7.9813    0.0000 O   0  0  0  0  0  0  0  0  0  0  0  0
    6.3806   -8.5736    0.0000 N   0  0  0  0  0  0  0  0  0  0  0  0
    6.3879   -9.3985    0.0000 C   0  0  0  0  0  0  0  0  0  0  0  0
    7.1107   -9.8127    0.0000 C   0  0  0  0  0  0  0  0  0  0  0  0
    7.8261   -9.3857    0.0000 C   0  0  0  0  0  0  0  0  0  0  0  0
    7.8188   -8.5608    0.0000 C   0  0  0  0  0  0  0  0  0  0  0  0
    8.5442   -9.7918    0.0000 C   0  0  0  0  0  0  0  0  0  0  0  0
    9.2549   -9.3730    0.0000 C   0  0  0  0  0  0  0  0  0  0  0  0
    9.2476   -8.5481    0.0000 C   0  0  0  0  0  0  0  0  0  0  0  0
    8.5295   -8.1420    0.0000 C   0  0  0  0  0  0  0  0  0  0  0  0
    9.9584   -8.1293    0.0000 O   0  0  0  0  0  0  0  0  0  0  0  0
    9.9730   -9.7792    0.0000 O   0  0  0  0  0  0  0  0  0  0  0  0
   10.6838   -9.3604    0.0000 C   0  0  0  0  0  0  0  0  0  0  0  0
   10.6765   -8.5354    0.0000 C   0  0  0  0  0  0  0  0  0  0  0  0
    5.5556   -8.5736    0.0000 C   0  0  0  0  0  0  0  0  0  0  0  0
  2  3  1  0  0  0  0
  3  4  1  0  0  0  0
  4  5  1  0  0  0  0
  5  6  1  0  0  0  0
  2  6  1  0  0  0  0
  7  8  1  0  0  0  0
  8  9  2  0  0  0  0
  9 10  1  0  0  0  0
  6 10  2  0  0  0  0
  5  7  2  0  0  0  0
  9 12  1  0  0  0  0
 10 11  1  0  0  0  0
  1 11  1  0  0  0  0
  1 12  1  0  0  0  0
 11 13  1  1  0  0  0
  1 14  1  6  0  0  0
 14 15  1  0  0  0  0
 15 16  1  0  0  0  0
 16 17  1  0  0  0  0
 17 18  1  0  0  0  0
 18  1  1  0  0  0  0
 17 19  2  0  0  0  0
 19 20  1  0  0  0  0
 20 21  2  0  0  0  0
 21 22  1  0  0  0  0
 22 18  2  0  0  0  0
 21 23  1  0  0  0  0
 20 24  1  0  0  0  0
 24 25  1  0  0  0  0
 23 26  1  0  0  0  0
 14 27  1  0  0  0  0
M  END
>  <cdx:fragmentId>
57959

$$$$
