7710.cdx
  Mrv1902 05222410232D          

 11 11  0  0  0  0            999 V2000
    9.9497   -3.5260    0.0000 C   0  0  0  0  0  0  0  0  0  0  0  0
    9.2352   -3.1135    0.0000 C   0  0  0  0  0  0  0  0  0  0  0  0
    8.5208   -3.5260    0.0000 C   0  0  0  0  0  0  0  0  0  0  0  0
    7.8063   -3.1135    0.0000 C   0  0  0  0  0  0  0  0  0  0  0  0
    7.0918   -3.5260    0.0000 C   0  0  0  0  0  0  0  0  0  0  0  0
    4.2512   -2.9222    0.0000 O   0  0  0  0  0  0  0  0  0  0  0  0
    6.3774   -3.1135    0.0000 C   0  0  0  0  0  0  0  0  0  0  0  0
    6.2911   -2.2930    0.0000 C   0  0  0  0  0  0  0  0  0  0  0  0
    5.4841   -2.1215    0.0000 C   0  0  0  0  0  0  0  0  0  0  0  0
    5.0716   -2.8360    0.0000 C   0  0  0  0  0  0  0  0  0  0  0  0
    5.6237   -3.4490    0.0000 O   0  0  0  0  0  0  0  0  0  0  0  0
  7  5  1  0  0  0  0
  2  1  1  0  0  0  0
  3  2  1  0  0  0  0
  4  3  1  0  0  0  0
  5  4  1  0  0  0  0
 10  6  2  0  0  0  0
 11  7  1  0  0  0  0
  8  7  1  0  0  0  0
  9  8  1  0  0  0  0
 10  9  1  0  0  0  0
 11 10  1  0  0  0  0
M  END
>  <cdx:fragmentId>
5

$$$$
