771320.cdx
  Mrv1902 05222410222D          

 19 18  0  0  0  0            999 V2000
    3.1382  -10.9813    0.0000 C   0  0  0  0  0  0  0  0  0  0  0  0
    3.1382  -10.1563    0.0000 C   0  0  0  0  0  0  0  0  0  0  0  0
    3.8526   -9.7438    0.0000 C   0  0  0  0  0  0  0  0  0  0  0  0
    4.5671  -10.1563    0.0000 C   0  0  0  0  0  0  0  0  0  0  0  0
    5.2816   -9.7438    0.0000 C   0  0  0  0  0  0  0  0  0  0  0  0
    5.9961  -10.1563    0.0000 C   0  0  0  0  0  0  0  0  0  0  0  0
    6.7105   -9.7438    0.0000 C   0  0  0  0  0  0  0  0  0  0  0  0
    7.4250  -10.1563    0.0000 C   0  0  0  0  0  0  0  0  0  0  0  0
    8.1395   -9.7438    0.0000 C   0  0  0  0  0  0  0  0  0  0  0  0
    8.8539  -10.1563    0.0000 C   0  0  0  0  0  0  0  0  0  0  0  0
    9.5684   -9.7438    0.0000 C   0  0  0  0  0  0  0  0  0  0  0  0
   10.2829  -10.1563    0.0000 C   0  0  0  0  0  0  0  0  0  0  0  0
   10.9974   -9.7438    0.0000 C   0  0  0  0  0  0  0  0  0  0  0  0
   11.7118  -10.1563    0.0000 C   0  0  0  0  0  0  0  0  0  0  0  0
   12.4263   -9.7438    0.0000 C   0  0  0  0  0  0  0  0  0  0  0  0
    3.8526   -8.9188    0.0000 O   0  0  0  0  0  0  0  0  0  0  0  0
    8.8539  -10.9813    0.0000 C   0  0  0  0  0  0  0  0  0  0  0  0
    5.9961  -10.9813    0.0000 C   0  0  0  0  0  0  0  0  0  0  0  0
    2.4237   -9.7438    0.0000 C   0  0  0  0  0  0  0  0  0  0  0  0
  1  2  1  0  0  0  0
  2  3  1  0  0  0  0
  3  4  1  0  0  0  0
  4  5  1  0  0  0  0
  5  6  1  0  0  0  0
  6  7  1  0  0  0  0
  7  8  1  0  0  0  0
  8  9  1  0  0  0  0
  9 10  1  0  0  0  0
 10 11  1  0  0  0  0
 11 12  1  0  0  0  0
 12 13  1  0  0  0  0
 13 14  1  0  0  0  0
 14 15  1  0  0  0  0
  3 16  2  0  0  0  0
 10 17  1  0  0  0  0
  6 18  1  0  0  0  0
  2 19  1  0  0  0  0
M  END
>  <cdx:fragmentId>
265

$$$$
