771326.cdx
  Mrv1902 05222410212D          

 39 43  0  0  0  0            999 V2000
    9.4189   -5.0348    0.0000 C   0  0  1  0  0  0  0  0  0  0  0  0
   10.1334   -4.6223    0.0000 C   0  0  1  0  0  0  0  0  0  0  0  0
   10.8479   -5.0348    0.0000 C   0  0  0  0  0  0  0  0  0  0  0  0
   10.8479   -5.8598    0.0000 C   0  0  0  0  0  0  0  0  0  0  0  0
   10.1334   -6.2723    0.0000 C   0  0  2  0  0  0  0  0  0  0  0  0
   10.1334   -7.0973    0.0000 C   0  0  0  0  0  0  0  0  0  0  0  0
    9.4189   -7.5098    0.0000 C   0  0  0  0  0  0  0  0  0  0  0  0
    8.7045   -7.0973    0.0000 C   0  0  1  0  0  0  0  0  0  0  0  0
    7.9900   -7.5098    0.0000 C   0  0  2  0  0  0  0  0  0  0  0  0
    7.9900   -8.3348    0.0000 C   0  0  0  0  0  0  0  0  0  0  0  0
    7.2755   -8.7473    0.0000 C   0  0  0  0  0  0  0  0  0  0  0  0
    6.5610   -8.3348    0.0000 C   0  0  1  0  0  0  0  0  0  0  0  0
    5.8466   -8.7473    0.0000 C   0  0  0  0  0  0  0  0  0  0  0  0
    5.1321   -8.3348    0.0000 C   0  0  2  0  0  0  0  0  0  0  0  0
    5.1321   -7.5098    0.0000 C   0  0  0  0  0  0  0  0  0  0  0  0
    5.8466   -7.0973    0.0000 C   0  0  0  0  0  0  0  0  0  0  0  0
    6.5610   -7.5098    0.0000 C   0  0  2  0  0  0  0  0  0  0  0  0
    7.2755   -7.0973    0.0000 C   0  0  1  0  0  0  0  0  0  0  0  0
    7.2755   -6.2723    0.0000 C   0  0  0  0  0  0  0  0  0  0  0  0
    7.9900   -5.8598    0.0000 C   0  0  0  0  0  0  0  0  0  0  0  0
    8.7045   -6.2723    0.0000 C   0  0  0  0  0  0  0  0  0  0  0  0
    9.4189   -5.8598    0.0000 C   0  0  2  0  0  0  0  0  0  0  0  0
   10.8479   -6.6848    0.0000 C   0  0  0  0  0  0  0  0  0  0  0  0
   10.8479   -7.5098    0.0000 O   0  0  0  0  0  0  0  0  0  0  0  0
   11.5623   -6.2723    0.0000 O   0  0  0  0  0  0  0  0  0  0  0  0
    6.5610   -6.6848    0.0000 C   0  0  0  0  0  0  0  0  0  0  0  0
    6.2591   -9.4618    0.0000 C   0  0  0  0  0  0  0  0  0  0  0  0
    5.4341   -9.4618    0.0000 C   0  0  0  0  0  0  0  0  0  0  0  0
    8.7045   -7.9223    0.0000 C   0  0  0  0  0  0  0  0  0  0  0  0
   10.1334   -3.7973    0.0000 C   0  0  0  0  0  0  0  0  0  0  0  0
    8.7045   -4.6223    0.0000 C   0  0  0  0  0  0  0  0  0  0  0  0
    4.4176   -8.7473    0.0000 O   0  0  0  0  0  0  0  0  0  0  0  0
    3.7032   -8.3348    0.0000 C   0  0  0  0  0  0  0  0  0  0  0  0
    3.7032   -7.5098    0.0000 O   0  0  0  0  0  0  0  0  0  0  0  0
    2.9887   -8.7473    0.0000 C   0  0  0  0  0  0  0  0  0  0  0  0
    7.9900   -6.6848    0.0000 C   0  0  0  0  0  0  0  0  0  0  0  0
    8.7045   -5.4473    0.0000 H   0  0  0  0  0  0  0  0  0  0  0  0
    7.2755   -7.9223    0.0000 H   0  0  0  0  0  0  0  0  0  0  0  0
    6.5610   -9.1598    0.0000 H   0  0  0  0  0  0  0  0  0  0  0  0
  1  2  1  0  0  0  0
  2  3  1  0  0  0  0
  3  4  1  0  0  0  0
  4  5  1  0  0  0  0
  5  6  1  0  0  0  0
  6  7  1  0  0  0  0
  7  8  1  0  0  0  0
  8  9  1  0  0  0  0
  9 10  1  0  0  0  0
 10 11  1  0  0  0  0
 11 12  1  0  0  0  0
 12 13  1  0  0  0  0
 13 14  1  0  0  0  0
 14 15  1  0  0  0  0
 15 16  1  0  0  0  0
 16 17  1  0  0  0  0
 12 17  1  0  0  0  0
 17 18  1  0  0  0  0
 18 19  1  0  0  0  0
 19 20  1  0  0  0  0
 20 21  2  0  0  0  0
  8 21  1  0  0  0  0
 21 22  1  0  0  0  0
  5 22  1  0  0  0  0
  1 22  1  0  0  0  0
 23 24  2  0  0  0  0
 23 25  1  0  0  0  0
  5 23  1  1  0  0  0
 17 26  1  1  0  0  0
 13 27  1  0  0  0  0
 13 28  1  0  0  0  0
  8 29  1  6  0  0  0
  2 30  1  6  0  0  0
  1 31  1  1  0  0  0
 33 34  2  0  0  0  0
 33 35  1  0  0  0  0
 32 33  1  0  0  0  0
 14 32  1  1  0  0  0
 18  9  1  0  0  0  0
  9 36  1  1  0  0  0
 22 37  1  1  0  0  0
 18 38  1  6  0  0  0
 12 39  1  6  0  0  0
M  END
>  <cdx:fragmentId>
5

$$$$
