77193.cdx
  Mrv1902 05222410222D          

 11 11  0  0  0  0            999 V2000
    4.8832   -2.9216    0.0000 C   0  0  0  0  0  0  0  0  0  0  0  0
    5.5977   -3.3341    0.0000 C   0  0  0  0  0  0  0  0  0  0  0  0
    4.1687   -3.3341    0.0000 C   0  0  0  0  0  0  0  0  0  0  0  0
    3.4543   -2.9216    0.0000 C   0  0  0  0  0  0  0  0  0  0  0  0
    2.7398   -3.3341    0.0000 C   0  0  0  0  0  0  0  0  0  0  0  0
    2.7398   -4.1591    0.0000 C   0  0  0  0  0  0  0  0  0  0  0  0
    3.4543   -4.5716    0.0000 C   0  0  0  0  0  0  0  0  0  0  0  0
    4.1687   -4.1591    0.0000 C   0  0  0  0  0  0  0  0  0  0  0  0
    2.0253   -4.5716    0.0000 C   0  0  0  0  0  0  0  0  0  0  0  0
    2.0253   -2.9216    0.0000 C   0  0  0  0  0  0  0  0  0  0  0  0
    4.8832   -2.0966    0.0000 O   0  0  0  0  0  0  0  0  0  0  0  0
  1  2  1  0  0  0  0
  3  4  1  0  0  0  0
  4  5  2  0  0  0  0
  5  6  1  0  0  0  0
  6  7  2  0  0  0  0
  7  8  1  0  0  0  0
  3  8  2  0  0  0  0
  6  9  1  0  0  0  0
  5 10  1  0  0  0  0
  1  3  1  0  0  0  0
  1 11  2  0  0  0  0
M  END
>  <cdx:groupId>
35

>  <cdx:fragmentId>
9

$$$$
