7720.cdx
  Mrv1902 05222410232D          

  9  8  0  0  0  0            999 V2000
    5.2147   -3.6280    0.0000 C   0  0  0  0  0  0  0  0  0  0  0  0
    4.5002   -3.2155    0.0000 C   0  0  0  0  0  0  0  0  0  0  0  0
    3.7858   -3.6280    0.0000 C   0  0  0  0  0  0  0  0  0  0  0  0
    3.0713   -3.2155    0.0000 C   0  0  0  0  0  0  0  0  0  0  0  0
    2.3568   -3.6280    0.0000 C   0  0  0  0  0  0  0  0  0  0  0  0
    1.6424   -3.2155    0.0000 C   0  0  0  0  0  0  0  0  0  0  0  0
    5.9292   -3.2155    0.0000 O   0  0  0  0  0  0  0  0  0  0  0  0
    4.5002   -2.3905    0.0000 C   0  0  0  0  0  0  0  0  0  0  0  0
    5.2147   -1.9780    0.0000 C   0  0  0  0  0  0  0  0  0  0  0  0
  1  2  1  0  0  0  0
  2  3  1  0  0  0  0
  3  4  1  0  0  0  0
  4  5  1  0  0  0  0
  5  6  1  0  0  0  0
  1  7  1  0  0  0  0
  8  9  1  0  0  0  0
  2  8  1  0  0  0  0
M  END
>  <cdx:groupId>
28

>  <cdx:fragmentId>
5

$$$$
