77272.cdx
  Mrv1902 05222410272D          

 42 44  0  0  0  0            999 V2000
    5.0050  -12.3376    0.0000 O   0  0  0  0  0  0  0  0  0  0  0  0
    5.7147  -12.7583    0.0000 C   0  0  2  0  0  0  0  0  0  0  0  0
    5.7051  -13.5833    0.0000 C   0  0  1  0  0  0  0  0  0  0  0  0
    4.9859  -13.9875    0.0000 C   0  0  2  0  0  0  0  0  0  0  0  0
    4.2763  -13.5667    0.0000 C   0  0  1  0  0  0  0  0  0  0  0  0
    4.2858  -12.7418    0.0000 C   0  0  1  0  0  0  0  0  0  0  0  0
    6.4148  -14.0040    0.0000 O   0  0  0  0  0  0  0  0  0  0  0  0
    4.9764  -14.8124    0.0000 O   0  0  0  0  0  0  0  0  0  0  0  0
    3.5571  -13.9709    0.0000 O   0  0  0  0  0  0  0  0  0  0  0  0
    3.5762  -12.3210    0.0000 C   0  0  0  0  0  0  0  0  0  0  0  0
    2.8570  -12.7252    0.0000 O   0  0  0  0  0  0  0  0  0  0  0  0
    6.4339  -12.3541    0.0000 O   0  0  0  0  0  0  0  0  0  0  0  0
    6.4434  -11.5292    0.0000 C   0  0  0  0  0  0  0  0  0  0  0  0
    5.7338  -11.1084    0.0000 C   0  0  0  0  0  0  0  0  0  0  0  0
    5.7433  -10.2835    0.0000 C   0  0  0  0  0  0  0  0  0  0  0  0
    6.4625   -9.8793    0.0000 C   0  0  0  0  0  0  0  0  0  0  0  0
    7.1722  -10.3000    0.0000 C   0  0  0  0  0  0  0  0  0  0  0  0
    7.1626  -11.1250    0.0000 C   0  0  0  0  0  0  0  0  0  0  0  0
    7.8723  -11.5457    0.0000 O   0  0  0  0  0  0  0  0  0  0  0  0
    8.5867  -11.1332    0.0000 C   0  0  0  0  0  0  0  0  0  0  0  0
    5.0146  -11.5126    0.0000 O   0  0  0  0  0  0  0  0  0  0  0  0
    4.3049  -11.0919    0.0000 C   0  0  0  0  0  0  0  0  0  0  0  0
    6.4721   -9.0543    0.0000 C   0  0  2  0  0  0  0  0  0  0  0  0
    7.1913   -8.6501    0.0000 C   0  0  1  0  0  0  0  0  0  0  0  0
    7.9009   -9.0709    0.0000 C   0  0  0  0  0  0  0  0  0  0  0  0
    7.2008   -7.8252    0.0000 O   0  0  0  0  0  0  0  0  0  0  0  0
    7.9200   -7.4210    0.0000 C   0  0  0  0  0  0  0  0  0  0  0  0
    7.9296   -6.5960    0.0000 C   0  0  0  0  0  0  0  0  0  0  0  0
    8.6488   -6.1918    0.0000 C   0  0  0  0  0  0  0  0  0  0  0  0
    9.3584   -6.6126    0.0000 C   0  0  0  0  0  0  0  0  0  0  0  0
    9.3489   -7.4375    0.0000 C   0  0  0  0  0  0  0  0  0  0  0  0
    8.6297   -7.8417    0.0000 C   0  0  0  0  0  0  0  0  0  0  0  0
    8.6201   -8.6667    0.0000 O   0  0  0  0  0  0  0  0  0  0  0  0
    9.3298   -9.0874    0.0000 C   0  0  0  0  0  0  0  0  0  0  0  0
    7.2200   -6.1753    0.0000 O   0  0  0  0  0  0  0  0  0  0  0  0
    7.2295   -5.3504    0.0000 C   0  0  0  0  0  0  0  0  0  0  0  0
   10.0776   -6.2084    0.0000 C   0  0  0  0  0  0  0  0  0  0  0  0
   10.0872   -5.3834    0.0000 C   0  0  0  0  0  0  0  0  0  0  0  0
   10.8064   -4.9792    0.0000 C   0  0  0  0  0  0  0  0  0  0  0  0
   10.8160   -4.1543    0.0000 O   0  0  0  0  0  0  0  0  0  0  0  0
    7.8914   -9.8958    0.0000 O   0  0  0  0  0  0  0  0  0  0  0  0
    5.7624   -8.6336    0.0000 O   0  0  0  0  0  0  0  0  0  0  0  0
  1  2  1  0  0  0  0
  2  3  1  0  0  0  0
  3  4  1  0  0  0  0
  4  5  1  0  0  0  0
  5  6  1  0  0  0  0
  1  6  1  0  0  0  0
  3  7  1  6  0  0  0
  4  8  1  1  0  0  0
  5  9  1  6  0  0  0
 10 11  1  0  0  0  0
  6 10  1  1  0  0  0
 13 14  1  0  0  0  0
 14 15  2  0  0  0  0
 15 16  1  0  0  0  0
 16 17  2  0  0  0  0
 17 18  1  0  0  0  0
 13 18  2  0  0  0  0
 12 13  1  0  0  0  0
 19 20  1  0  0  0  0
 18 19  1  0  0  0  0
 21 22  1  0  0  0  0
 14 21  1  0  0  0  0
 23 24  1  0  0  0  0
 24 25  1  0  0  0  0
 27 28  1  0  0  0  0
 28 29  2  0  0  0  0
 29 30  1  0  0  0  0
 30 31  2  0  0  0  0
 31 32  1  0  0  0  0
 27 32  2  0  0  0  0
 26 27  1  0  0  0  0
 33 34  1  0  0  0  0
 32 33  1  0  0  0  0
 35 36  1  0  0  0  0
 28 35  1  0  0  0  0
 37 38  2  0  0  0  0
 38 39  1  0  0  0  0
 39 40  1  0  0  0  0
 30 37  1  0  0  0  0
 24 26  1  6  0  0  0
 25 41  1  0  0  0  0
 23 42  1  1  0  0  0
 16 23  1  0  0  0  0
  2 12  1  1  0  0  0
M  END
>  <cdx:groupId>
39538

>  <cdx:fragmentId>
39465

$$$$
