7727.cdx
  Mrv1902 05222410212D          

 42 46  0  0  0  0            999 V2000
    8.5968   -8.8360    0.0000 C   0  0  0  0  0  0  0  0  0  0  0  0
    8.5968   -9.6610    0.0000 C   0  0  0  0  0  0  0  0  0  0  0  0
    7.8824  -10.0735    0.0000 C   0  0  0  0  0  0  0  0  0  0  0  0
    7.8824  -10.8985    0.0000 O   0  0  0  0  0  0  0  0  0  0  0  0
    7.1679   -9.6610    0.0000 C   0  0  0  0  0  0  0  0  0  0  0  0
    6.4534  -10.0735    0.0000 C   0  0  0  0  0  0  0  0  0  0  0  0
    6.4534  -10.8985    0.0000 O   0  0  0  0  0  0  0  0  0  0  0  0
    5.7389   -9.6610    0.0000 C   0  0  0  0  0  0  0  0  0  0  0  0
    5.7389   -8.8360    0.0000 C   0  0  0  0  0  0  0  0  0  0  0  0
    5.0245   -8.4235    0.0000 O   0  0  0  0  0  0  0  0  0  0  0  0
    6.4534   -8.4235    0.0000 C   0  0  0  0  0  0  0  0  0  0  0  0
    7.1679   -8.8360    0.0000 C   0  0  0  0  0  0  0  0  0  0  0  0
    7.8824   -8.4235    0.0000 O   0  0  0  0  0  0  0  0  0  0  0  0
    9.3113   -8.4235    0.0000 C   0  0  0  0  0  0  0  0  0  0  0  0
    9.3113   -7.5985    0.0000 C   0  0  0  0  0  0  0  0  0  0  0  0
   10.0258   -7.1860    0.0000 C   0  0  0  0  0  0  0  0  0  0  0  0
   10.7402   -7.5985    0.0000 C   0  0  0  0  0  0  0  0  0  0  0  0
   11.4547   -7.1860    0.0000 O   0  0  0  0  0  0  0  0  0  0  0  0
   10.7402   -8.4235    0.0000 C   0  0  0  0  0  0  0  0  0  0  0  0
   10.0258   -8.8360    0.0000 C   0  0  0  0  0  0  0  0  0  0  0  0
    5.0620  -10.0570    0.0000 C   0  0  1  0  0  0  0  0  0  0  0  0
    5.0628  -10.8820    0.0000 C   0  0  2  0  0  0  0  0  0  0  0  0
    5.7776  -11.2939    0.0000 O   0  0  0  0  0  0  0  0  0  0  0  0
    4.3487  -11.2952    0.0000 C   0  0  1  0  0  0  0  0  0  0  0  0
    4.3494  -12.1202    0.0000 O   0  0  0  0  0  0  0  0  0  0  0  0
    3.6338  -10.8833    0.0000 C   0  0  2  0  0  0  0  0  0  0  0  0
    2.9197  -11.2965    0.0000 O   0  0  0  0  0  0  0  0  0  0  0  0
    3.6331  -10.0583    0.0000 C   0  0  2  0  0  0  0  0  0  0  0  0
    4.3471   -9.6452    0.0000 O   0  0  0  0  0  0  0  0  0  0  0  0
    2.9182   -9.6465    0.0000 C   0  0  0  0  0  0  0  0  0  0  0  0
    2.2041  -10.0597    0.0000 O   0  0  0  0  0  0  0  0  0  0  0  0
    6.4319   -7.6492    0.0000 C   0  0  1  0  0  0  0  0  0  0  0  0
    5.7175   -7.2367    0.0000 C   0  0  2  0  0  0  0  0  0  0  0  0
    5.0030   -7.6492    0.0000 O   0  0  0  0  0  0  0  0  0  0  0  0
    5.7175   -6.4117    0.0000 C   0  0  1  0  0  0  0  0  0  0  0  0
    5.0030   -5.9992    0.0000 O   0  0  0  0  0  0  0  0  0  0  0  0
    6.4319   -5.9992    0.0000 C   0  0  2  0  0  0  0  0  0  0  0  0
    6.4319   -5.1742    0.0000 O   0  0  0  0  0  0  0  0  0  0  0  0
    7.1464   -6.4117    0.0000 C   0  0  0  0  0  0  0  0  0  0  0  0
    7.1464   -7.2367    0.0000 O   0  0  0  0  0  0  0  0  0  0  0  0
    7.1464   -8.0617    0.0000 H   0  0  0  0  0  0  0  0  0  0  0  0
    5.0612   -9.2320    0.0000 H   0  0  0  0  0  0  0  0  0  0  0  0
  1  2  2  0  0  0  0
  2  3  1  0  0  0  0
  3  4  2  0  0  0  0
  3  5  1  0  0  0  0
  5  6  1  0  0  0  0
  6  7  1  0  0  0  0
  6  8  2  0  0  0  0
  8  9  1  0  0  0  0
  9 10  1  0  0  0  0
  9 11  2  0  0  0  0
 11 12  1  0  0  0  0
  5 12  2  0  0  0  0
 12 13  1  0  0  0  0
  1 13  1  0  0  0  0
  1 14  1  0  0  0  0
 14 15  1  0  0  0  0
 15 16  2  0  0  0  0
 16 17  1  0  0  0  0
 17 18  1  0  0  0  0
 17 19  2  0  0  0  0
 19 20  1  0  0  0  0
 14 20  2  0  0  0  0
 21 22  1  0  0  0  0
 22 23  1  6  0  0  0
 22 24  1  0  0  0  0
 24 25  1  1  0  0  0
 24 26  1  0  0  0  0
 26 27  1  6  0  0  0
 26 28  1  0  0  0  0
 28 29  1  0  0  0  0
 28 30  1  1  0  0  0
 30 31  1  0  0  0  0
 21 29  1  0  0  0  0
 32 33  1  0  0  0  0
 33 34  1  6  0  0  0
 33 35  1  0  0  0  0
 35 36  1  1  0  0  0
 35 37  1  0  0  0  0
 37 38  1  6  0  0  0
 37 39  1  0  0  0  0
 39 40  1  0  0  0  0
 32 40  1  0  0  0  0
 32 11  1  0  0  0  0
 21  8  1  0  0  0  0
 32 41  1  6  0  0  0
 21 42  1  6  0  0  0
M  END
>  <cdx:fragmentId>
5

$$$$
