7728.cdx
  Mrv1902 05222410252D          

  9  9  0  0  0  0            999 V2000
    4.2248   -2.1656    0.0000 C   0  0  0  0  0  0  0  0  0  0  0  0
    4.9393   -1.7531    0.0000 C   0  0  0  0  0  0  0  0  0  0  0  0
    5.6537   -2.1656    0.0000 C   0  0  0  0  0  0  0  0  0  0  0  0
    5.6537   -2.9906    0.0000 C   0  0  0  0  0  0  0  0  0  0  0  0
    4.9393   -3.4031    0.0000 C   0  0  0  0  0  0  0  0  0  0  0  0
    4.2248   -2.9906    0.0000 N   0  0  0  0  0  0  0  0  0  0  0  0
    3.5103   -1.7531    0.0000 C   0  0  0  0  0  0  0  0  0  0  0  0
    6.3682   -3.4031    0.0000 C   0  0  0  0  0  0  0  0  0  0  0  0
    7.0827   -2.9906    0.0000 C   0  0  0  0  0  0  0  0  0  0  0  0
  1  2  1  0  0  0  0
  2  3  2  0  0  0  0
  3  4  1  0  0  0  0
  4  5  2  0  0  0  0
  5  6  1  0  0  0  0
  1  6  2  0  0  0  0
  1  7  1  0  0  0  0
  8  9  1  0  0  0  0
  4  8  1  0  0  0  0
M  END
>  <cdx:groupId>
29

>  <cdx:fragmentId>
5

$$$$
