772948.cdx
  Mrv1902 05222410232D          

 23 25  0  0  0  0            999 V2000
    3.7726   -6.6811    0.0000 O   0  0  0  0  0  0  0  0  0  0  0  0
    8.7739  -10.3936    0.0000 O   0  0  0  0  0  0  0  0  0  0  0  0
    7.3450  -10.3936    0.0000 C   0  0  0  0  0  0  0  0  0  0  0  0
    7.3450   -9.5686    0.0000 O   0  0  0  0  0  0  0  0  0  0  0  0
   10.9173   -9.1561    0.0000 C   0  0  0  0  0  0  0  0  0  0  0  0
   10.2029   -9.5686    0.0000 O   0  0  0  0  0  0  0  0  0  0  0  0
    8.7739   -7.9186    0.0000 C   0  0  0  0  0  0  0  0  0  0  0  0
    9.4884   -8.3311    0.0000 C   0  0  0  0  0  0  0  0  0  0  0  0
    9.4884   -9.1561    0.0000 C   0  0  0  0  0  0  0  0  0  0  0  0
    8.7739   -9.5686    0.0000 C   0  0  0  0  0  0  0  0  0  0  0  0
    8.0595   -9.1561    0.0000 C   0  0  0  0  0  0  0  0  0  0  0  0
    8.0595   -8.3311    0.0000 C   0  0  0  0  0  0  0  0  0  0  0  0
    6.6305   -9.1561    0.0000 O   0  0  0  0  0  0  0  0  0  0  0  0
    6.6305   -6.6811    0.0000 O   0  0  0  0  0  0  0  0  0  0  0  0
    5.9160   -7.0936    0.0000 C   0  0  0  0  0  0  0  0  0  0  0  0
    5.2016   -6.6811    0.0000 C   0  0  0  0  0  0  0  0  0  0  0  0
    4.4871   -7.0936    0.0000 C   0  0  0  0  0  0  0  0  0  0  0  0
    4.4871   -7.9186    0.0000 C   0  0  0  0  0  0  0  0  0  0  0  0
    5.2016   -8.3311    0.0000 C   0  0  0  0  0  0  0  0  0  0  0  0
    5.9160   -7.9186    0.0000 C   0  0  0  0  0  0  0  0  0  0  0  0
    6.6305   -8.3311    0.0000 C   0  0  0  0  0  0  0  0  0  0  0  0
    7.3450   -7.9186    0.0000 C   0  0  0  0  0  0  0  0  0  0  0  0
    7.3450   -7.0936    0.0000 C   0  0  0  0  0  0  0  0  0  0  0  0
 17  1  1  0  0  0  0
 22 12  1  0  0  0  0
 10  2  1  0  0  0  0
 11  4  1  0  0  0  0
  4  3  1  0  0  0  0
  9  6  1  0  0  0  0
  6  5  1  0  0  0  0
 12  7  2  0  0  0  0
  8  7  1  0  0  0  0
  9  8  2  0  0  0  0
 10  9  1  0  0  0  0
 11 10  2  0  0  0  0
 12 11  1  0  0  0  0
 21 13  2  0  0  0  0
 23 14  1  0  0  0  0
 15 14  1  0  0  0  0
 20 15  2  0  0  0  0
 16 15  1  0  0  0  0
 17 16  2  0  0  0  0
 18 17  1  0  0  0  0
 19 18  2  0  0  0  0
 20 19  1  0  0  0  0
 21 20  1  0  0  0  0
 22 21  1  0  0  0  0
 23 22  1  0  0  0  0
M  END
>  <cdx:fragmentId>
5

$$$$
