7733.cdx
  Mrv1902 05222410212D          

 34 37  0  0  0  0            999 V2000
    6.7064   -8.7244    0.0000 C   0  0  0  0  0  0  0  0  0  0  0  0
    6.7064   -9.5494    0.0000 C   0  0  0  0  0  0  0  0  0  0  0  0
    7.4209   -9.9619    0.0000 C   0  0  0  0  0  0  0  0  0  0  0  0
    8.1353   -9.5494    0.0000 C   0  0  0  0  0  0  0  0  0  0  0  0
    8.1353   -8.7244    0.0000 C   0  0  0  0  0  0  0  0  0  0  0  0
    7.4209   -8.3119    0.0000 C   0  0  0  0  0  0  0  0  0  0  0  0
    8.8498   -9.9619    0.0000 C   0  0  0  0  0  0  0  0  0  0  0  0
    9.5643   -9.5494    0.0000 C   0  0  0  0  0  0  0  0  0  0  0  0
    9.5643   -8.7244    0.0000 C   0  0  0  0  0  0  0  0  0  0  0  0
    8.8498   -8.3119    0.0000 O   0  0  0  0  0  0  0  0  0  0  0  0
   10.2788   -8.3119    0.0000 C   0  0  0  0  0  0  0  0  0  0  0  0
   10.2788   -7.4869    0.0000 C   0  0  0  0  0  0  0  0  0  0  0  0
   10.9932   -8.7244    0.0000 C   0  0  0  0  0  0  0  0  0  0  0  0
   11.7077   -8.3119    0.0000 C   0  0  0  0  0  0  0  0  0  0  0  0
   11.7077   -7.4869    0.0000 C   0  0  0  0  0  0  0  0  0  0  0  0
   10.9932   -7.0744    0.0000 C   0  0  0  0  0  0  0  0  0  0  0  0
    7.4209  -10.7869    0.0000 O   0  0  0  0  0  0  0  0  0  0  0  0
    8.8498  -10.7869    0.0000 O   0  0  0  0  0  0  0  0  0  0  0  0
   12.4222   -7.0744    0.0000 O   0  0  0  0  0  0  0  0  0  0  0  0
    5.9919   -8.3119    0.0000 O   0  0  0  0  0  0  0  0  0  0  0  0
    5.2775   -8.7244    0.0000 C   0  0  2  0  0  0  0  0  0  0  0  0
    4.5630   -8.3119    0.0000 O   0  0  0  0  0  0  0  0  0  0  0  0
    3.8485   -8.7244    0.0000 C   0  0  1  0  0  0  0  0  0  0  0  0
    3.8485   -9.5494    0.0000 C   0  0  2  0  0  0  0  0  0  0  0  0
    4.5630   -9.9619    0.0000 C   0  0  1  0  0  0  0  0  0  0  0  0
    5.2775   -9.5494    0.0000 C   0  0  1  0  0  0  0  0  0  0  0  0
    3.1340   -8.3119    0.0000 C   0  0  0  0  0  0  0  0  0  0  0  0
    4.5630  -10.7869    0.0000 O   0  0  0  0  0  0  0  0  0  0  0  0
    5.9919   -9.9619    0.0000 O   0  0  0  0  0  0  0  0  0  0  0  0
    3.1340   -9.9619    0.0000 O   0  0  0  0  0  0  0  0  0  0  0  0
    2.4196   -8.7244    0.0000 O   0  0  0  0  0  0  0  0  0  0  0  0
    1.7051   -8.3119    0.0000 C   0  0  0  0  0  0  0  0  0  0  0  0
    0.9906   -8.7244    0.0000 C   0  0  0  0  0  0  0  0  0  0  0  0
    1.7051   -7.4869    0.0000 O   0  0  0  0  0  0  0  0  0  0  0  0
  1  2  2  0  0  0  0
  2  3  1  0  0  0  0
  3  4  2  0  0  0  0
  4  5  1  0  0  0  0
  5  6  2  0  0  0  0
  6  1  1  0  0  0  0
  4  7  1  0  0  0  0
  7  8  1  0  0  0  0
  8  9  2  0  0  0  0
  9 10  1  0  0  0  0
 10  5  1  0  0  0  0
  9 11  1  0  0  0  0
 11 12  1  0  0  0  0
 11 13  2  0  0  0  0
 13 14  1  0  0  0  0
 14 15  2  0  0  0  0
 15 16  1  0  0  0  0
 16 12  2  0  0  0  0
  3 17  1  0  0  0  0
  7 18  2  0  0  0  0
 15 19  1  0  0  0  0
  1 20  1  0  0  0  0
 21 20  1  1  0  0  0
 21 22  1  0  0  0  0
 22 23  1  0  0  0  0
 23 24  1  0  0  0  0
 24 25  1  0  0  0  0
 25 26  1  0  0  0  0
 26 21  1  0  0  0  0
 23 27  1  1  0  0  0
 25 28  1  1  0  0  0
 26 29  1  6  0  0  0
 24 30  1  6  0  0  0
 27 31  1  0  0  0  0
 31 32  1  0  0  0  0
 32 33  1  0  0  0  0
 32 34  2  0  0  0  0
M  END
>  <cdx:fragmentId>
5

$$$$
