71773433.cdx
  Mrv1902 05222410182D          

 23 26  0  0  0  0            999 V2000
    7.4013   -5.5047    0.0000 C   0  0  1  0  0  0  0  0  0  0  0  0
    6.6872   -5.9179    0.0000 C   0  0  1  0  0  0  0  0  0  0  0  0
    5.9726   -5.5057    0.0000 C   0  0  0  0  0  0  0  0  0  0  0  0
    5.2582   -5.9184    0.0000 C   0  0  0  0  0  0  0  0  0  0  0  0
    5.2585   -6.7434    0.0000 C   0  0  0  0  0  0  0  0  0  0  0  0
    5.9731   -7.1557    0.0000 C   0  0  0  0  0  0  0  0  0  0  0  0
    6.6875   -6.7429    0.0000 N   0  0  0  0  0  0  0  0  0  0  0  0
    7.4018   -7.1557    0.0000 C   0  0  0  0  0  0  0  0  0  0  0  0
    8.1157   -6.7422    0.0000 C   0  0  1  0  0  0  0  0  0  0  0  0
    8.8302   -7.1547    0.0000 C   0  0  0  0  0  0  0  0  0  0  0  0
    9.5447   -6.7422    0.0000 C   0  0  0  0  0  0  0  0  0  0  0  0
    9.5447   -5.9172    0.0000 C   0  0  0  0  0  0  0  0  0  0  0  0
    8.8302   -5.5047    0.0000 N   0  3  0  0  0  0  0  0  0  0  0  0
    8.8302   -4.6797    0.0000 C   0  0  0  0  0  0  0  0  0  0  0  0
    8.1157   -4.2672    0.0000 C   0  0  0  0  0  0  0  0  0  0  0  0
    7.4013   -4.6797    0.0000 C   0  0  0  0  0  0  0  0  0  0  0  0
    8.1157   -5.9172    0.0000 C   0  0  2  0  0  0  0  0  0  0  0  0
    5.9731   -7.9807    0.0000 O   0  0  0  0  0  0  0  0  0  0  0  0
    9.5447   -5.0922    0.0000 O   0  5  0  0  0  0  0  0  0  0  0  0
    7.4013   -6.3297    0.0000 H   0  0  0  0  0  0  0  0  0  0  0  0
    6.6872   -5.0929    0.0000 H   0  0  0  0  0  0  0  0  0  0  0  0
    8.1157   -7.5672    0.0000 H   0  0  0  0  0  0  0  0  0  0  0  0
    8.1157   -5.0922    0.0000 H   0  0  0  0  0  0  0  0  0  0  0  0
  1  2  1  0  0  0  0
  2  3  1  0  0  0  0
  3  4  1  0  0  0  0
  4  5  1  0  0  0  0
  5  6  1  0  0  0  0
  6  7  1  0  0  0  0
  7  8  1  0  0  0  0
  8  9  1  0  0  0  0
  9 10  1  0  0  0  0
 10 11  1  0  0  0  0
 11 12  1  0  0  0  0
 12 13  1  0  0  0  0
 13 14  1  0  0  0  0
 14 15  1  0  0  0  0
 15 16  1  0  0  0  0
  1 16  1  0  0  0  0
  1 17  1  0  0  0  0
 17  9  1  0  0  0  0
  2  7  1  0  0  0  0
 13 17  1  0  0  0  0
  6 18  2  0  0  0  0
 13 19  1  0  0  0  0
  1 20  1  6  0  0  0
  2 21  1  1  0  0  0
  9 22  1  1  0  0  0
 17 23  1  6  0  0  0
M  CHG  2  13   1  19  -1
M  END
>  <cdx:groupId>
388

>  <cdx:fragmentId>
319

$$$$
