7734.cdx
  Mrv1902 05222410232D          

 10 10  0  0  0  0            999 V2000
    2.6227   -2.4956    0.0000 C   0  0  0  0  0  0  0  0  0  0  0  0
    3.3371   -2.0831    0.0000 C   0  0  0  0  0  0  0  0  0  0  0  0
    4.0516   -2.4956    0.0000 C   0  0  0  0  0  0  0  0  0  0  0  0
    4.0516   -3.3206    0.0000 C   0  0  0  0  0  0  0  0  0  0  0  0
    3.3371   -3.7331    0.0000 C   0  0  0  0  0  0  0  0  0  0  0  0
    2.6227   -3.3206    0.0000 C   0  0  0  0  0  0  0  0  0  0  0  0
    4.7661   -3.7331    0.0000 C   0  0  0  0  0  0  0  0  0  0  0  0
    5.4805   -3.3206    0.0000 C   0  0  0  0  0  0  0  0  0  0  0  0
    1.9082   -2.0831    0.0000 C   0  0  0  0  0  0  0  0  0  0  0  0
    1.1937   -2.4956    0.0000 C   0  0  0  0  0  0  0  0  0  0  0  0
  1  2  1  0  0  0  0
  2  3  2  0  0  0  0
  3  4  1  0  0  0  0
  4  5  2  0  0  0  0
  5  6  1  0  0  0  0
  1  6  2  0  0  0  0
  7  8  1  0  0  0  0
  4  7  1  0  0  0  0
  9 10  1  0  0  0  0
  1  9  1  0  0  0  0
M  END
>  <cdx:groupId>
32

>  <cdx:fragmentId>
5

$$$$
