773708.cdx
  Mrv1902 05222410222D          

 29 31  0  0  0  0            999 V2000
    8.2480   -8.2140    0.0000 C   0  0  0  0  0  0  0  0  0  0  0  0
    8.2480   -9.0390    0.0000 C   0  0  0  0  0  0  0  0  0  0  0  0
    7.5335   -9.4515    0.0000 C   0  0  0  0  0  0  0  0  0  0  0  0
    6.8190   -9.0390    0.0000 C   0  0  0  0  0  0  0  0  0  0  0  0
    6.1045   -9.4515    0.0000 C   0  0  0  0  0  0  0  0  0  0  0  0
    5.3901   -9.0390    0.0000 C   0  0  0  0  0  0  0  0  0  0  0  0
    5.3901   -8.2140    0.0000 C   0  0  0  0  0  0  0  0  0  0  0  0
    6.1045   -7.8015    0.0000 C   0  0  0  0  0  0  0  0  0  0  0  0
    6.8190   -8.2140    0.0000 C   0  0  0  0  0  0  0  0  0  0  0  0
    7.5335   -7.8015    0.0000 O   0  0  0  0  0  0  0  0  0  0  0  0
    7.5335  -10.2765    0.0000 O   0  0  0  0  0  0  0  0  0  0  0  0
    6.1045   -6.9765    0.0000 C   0  0  0  0  0  0  0  0  0  0  0  0
    5.3901   -6.5640    0.0000 C   0  0  0  0  0  0  0  0  0  0  0  0
    5.3901   -5.7390    0.0000 C   0  0  0  0  0  0  0  0  0  0  0  0
    6.1045   -5.3265    0.0000 C   0  0  0  0  0  0  0  0  0  0  0  0
    4.6756   -5.3265    0.0000 C   0  0  0  0  0  0  0  0  0  0  0  0
    4.6756   -9.4515    0.0000 C   0  0  0  0  0  0  0  0  0  0  0  0
    3.9611   -9.0390    0.0000 C   0  0  0  0  0  0  0  0  0  0  0  0
    3.2467   -9.4515    0.0000 C   0  0  0  0  0  0  0  0  0  0  0  0
    3.2467  -10.2765    0.0000 C   0  0  0  0  0  0  0  0  0  0  0  0
    2.5322   -9.0390    0.0000 C   0  0  0  0  0  0  0  0  0  0  0  0
    8.9624   -9.4515    0.0000 C   0  0  0  0  0  0  0  0  0  0  0  0
    8.9624  -10.2765    0.0000 C   0  0  0  0  0  0  0  0  0  0  0  0
    9.6769  -10.6890    0.0000 C   0  0  0  0  0  0  0  0  0  0  0  0
   10.3914  -10.2765    0.0000 C   0  0  0  0  0  0  0  0  0  0  0  0
   10.3914   -9.4515    0.0000 C   0  0  0  0  0  0  0  0  0  0  0  0
    9.6769   -9.0390    0.0000 C   0  0  0  0  0  0  0  0  0  0  0  0
   11.1058  -10.6890    0.0000 O   0  0  0  0  0  0  0  0  0  0  0  0
    4.6756   -7.8015    0.0000 O   0  0  0  0  0  0  0  0  0  0  0  0
  1  2  2  0  0  0  0
  2  3  1  0  0  0  0
  3  4  1  0  0  0  0
  4  5  1  0  0  0  0
  5  6  2  0  0  0  0
  6  7  1  0  0  0  0
  7  8  2  0  0  0  0
  8  9  1  0  0  0  0
  4  9  2  0  0  0  0
  9 10  1  0  0  0  0
  1 10  1  0  0  0  0
  3 11  2  0  0  0  0
 12 13  1  0  0  0  0
 13 14  2  0  0  0  0
 14 15  1  0  0  0  0
 14 16  1  0  0  0  0
  8 12  1  0  0  0  0
 17 18  1  0  0  0  0
 18 19  2  0  0  0  0
 19 20  1  0  0  0  0
 19 21  1  0  0  0  0
  6 17  1  0  0  0  0
 22 23  1  0  0  0  0
 23 24  2  0  0  0  0
 24 25  1  0  0  0  0
 25 26  2  0  0  0  0
 26 27  1  0  0  0  0
 22 27  2  0  0  0  0
 25 28  1  0  0  0  0
  2 22  1  0  0  0  0
  7 29  1  0  0  0  0
M  END
>  <cdx:groupId>
81099

>  <cdx:fragmentId>
81013

$$$$
