7738.cdx
  Mrv1902 05222410232D          

 10 10  0  0  0  0            999 V2000
    6.6800   -9.5723    0.0000 C   0  0  0  0  0  0  0  0  0  0  0  0
    7.3942   -9.1592    0.0000 O   0  0  0  0  0  0  0  0  0  0  0  0
    8.1070   -7.0962    0.0000 C   0  0  0  0  0  0  0  0  0  0  0  0
    8.1077   -7.9212    0.0000 C   0  0  0  0  0  0  0  0  0  0  0  0
    7.3935   -8.3342    0.0000 C   0  0  0  0  0  0  0  0  0  0  0  0
    6.6787   -7.9223    0.0000 C   0  0  0  0  0  0  0  0  0  0  0  0
    6.6781   -7.0973    0.0000 C   0  0  0  0  0  0  0  0  0  0  0  0
    7.3922   -6.6842    0.0000 C   0  0  0  0  0  0  0  0  0  0  0  0
    8.1058   -5.4462    0.0000 O   0  0  0  0  0  0  0  0  0  0  0  0
    7.3916   -5.8592    0.0000 C   0  0  0  0  0  0  0  0  0  0  0  0
 10  8  1  0  0  0  0
  5  2  1  0  0  0  0
  2  1  1  0  0  0  0
  8  3  2  0  0  0  0
  4  3  1  0  0  0  0
  5  4  2  0  0  0  0
  6  5  1  0  0  0  0
  7  6  2  0  0  0  0
  8  7  1  0  0  0  0
 10  9  1  0  0  0  0
M  END
>  <cdx:fragmentId>
9

$$$$
