774.cdx
  Mrv1902 05222410212D          

  8  8  0  0  0  0            999 V2000
    8.0473   -4.6485    0.0000 C   0  0  0  0  0  0  0  0  0  0  0  0
    7.3329   -5.0610    0.0000 C   0  0  0  0  0  0  0  0  0  0  0  0
    5.3127   -4.3709    0.0000 C   0  0  0  0  0  0  0  0  0  0  0  0
    5.7252   -3.6565    0.0000 N   0  0  0  0  0  0  0  0  0  0  0  0
    6.5322   -3.8280    0.0000 C   0  0  0  0  0  0  0  0  0  0  0  0
    6.6184   -4.6485    0.0000 C   0  0  0  0  0  0  0  0  0  0  0  0
    5.8647   -4.9840    0.0000 N   0  0  0  0  0  0  0  0  0  0  0  0
    8.7618   -5.0610    0.0000 N   0  0  0  0  0  0  0  0  0  0  0  0
  1  2  1  0  0  0  0
  3  4  2  0  0  0  0
  4  5  1  0  0  0  0
  5  6  2  0  0  0  0
  6  7  1  0  0  0  0
  3  7  1  0  0  0  0
  2  6  1  0  0  0  0
  1  8  1  0  0  0  0
M  END
>  <cdx:fragmentId>
9

$$$$
