7745.cdx
  Mrv1902 05222410192D          

  7  6  0  0  0  0            999 V2000
    7.1564   -5.2811    0.0000 C   0  0  0  0  0  0  0  0  0  0  0  0
    5.7274   -4.4561    0.0000 O   0  0  0  0  0  0  0  0  0  0  0  0
    9.2998   -4.0436    0.0000 C   0  0  0  0  0  0  0  0  0  0  0  0
    8.5853   -4.4561    0.0000 C   0  0  0  0  0  0  0  0  0  0  0  0
    7.8708   -4.0436    0.0000 C   0  0  0  0  0  0  0  0  0  0  0  0
    7.1564   -4.4561    0.0000 C   0  0  0  0  0  0  0  0  0  0  0  0
    6.4419   -4.0436    0.0000 C   0  0  0  0  0  0  0  0  0  0  0  0
  6  1  1  0  0  0  0
  7  2  1  0  0  0  0
  4  3  1  0  0  0  0
  5  4  1  0  0  0  0
  6  5  1  0  0  0  0
  7  6  1  0  0  0  0
M  END
>  <cdx:fragmentId>
5

$$$$
