774697.cdx
  Mrv1902 05222410242D          

 23 24  0  0  0  0            999 V2000
    6.0294   -8.1052    0.0000 O   0  0  0  0  0  0  0  0  0  0  0  0
    6.7453   -8.5152    0.0000 C   0  0  2  0  0  0  0  0  0  0  0  0
    6.7481   -9.3402    0.0000 C   0  0  1  0  0  0  0  0  0  0  0  0
    6.0351   -9.7551    0.0000 C   0  0  1  0  0  0  0  0  0  0  0  0
    5.3192   -9.3451    0.0000 C   0  0  1  0  0  0  0  0  0  0  0  0
    5.3163   -8.5201    0.0000 C   0  0  1  0  0  0  0  0  0  0  0  0
    4.6005   -8.1101    0.0000 C   0  0  0  0  0  0  0  0  0  0  0  0
    3.8874   -8.5251    0.0000 O   0  0  0  0  0  0  0  0  0  0  0  0
    4.6062   -9.7601    0.0000 O   0  0  0  0  0  0  0  0  0  0  0  0
    6.0380  -10.5801    0.0000 O   0  0  0  0  0  0  0  0  0  0  0  0
    7.4640   -9.7502    0.0000 O   0  0  0  0  0  0  0  0  0  0  0  0
    9.5974   -6.8553    0.0000 C   0  0  0  0  0  0  0  0  0  0  0  0
    8.8844   -7.2703    0.0000 O   0  0  0  0  0  0  0  0  0  0  0  0
    7.4583   -8.1002    0.0000 O   0  0  0  0  0  0  0  0  0  0  0  0
    8.1599   -4.3853    0.0000 O   0  0  0  0  0  0  0  0  0  0  0  0
    6.7310   -4.3902    0.0000 O   0  0  0  0  0  0  0  0  0  0  0  0
    6.7367   -6.0402    0.0000 C   0  0  0  0  0  0  0  0  0  0  0  0
    6.7396   -6.8652    0.0000 C   0  0  0  0  0  0  0  0  0  0  0  0
    7.4555   -7.2752    0.0000 C   0  0  0  0  0  0  0  0  0  0  0  0
    8.1685   -6.8602    0.0000 C   0  0  0  0  0  0  0  0  0  0  0  0
    8.1657   -6.0353    0.0000 C   0  0  0  0  0  0  0  0  0  0  0  0
    7.4498   -5.6252    0.0000 C   0  0  0  0  0  0  0  0  0  0  0  0
    7.4469   -4.8002    0.0000 C   0  0  0  0  0  0  0  0  0  0  0  0
 20 13  1  0  0  0  0
 13 12  1  0  0  0  0
 19 14  1  0  0  0  0
 23 15  1  0  0  0  0
 23 16  2  0  0  0  0
 22 17  2  0  0  0  0
 18 17  1  0  0  0  0
 19 18  2  0  0  0  0
 20 19  1  0  0  0  0
 21 20  2  0  0  0  0
 22 21  1  0  0  0  0
 23 22  1  0  0  0  0
  1  2  1  0  0  0  0
  2  3  1  0  0  0  0
  3  4  1  0  0  0  0
  4  5  1  0  0  0  0
  5  6  1  0  0  0  0
  1  6  1  0  0  0  0
  7  8  1  0  0  0  0
  6  7  1  1  0  0  0
  5  9  1  6  0  0  0
  4 10  1  6  0  0  0
  3 11  1  6  0  0  0
  2 14  1  1  0  0  0
M  END
>  <cdx:fragmentId>
220359

$$$$
