77547.cdx
  Mrv1902 05222410212D          

 13 13  0  0  0  0            999 V2000
    7.8382   -4.4833    0.0000 C   0  0  0  0  0  0  0  0  0  0  0  0
    7.1238   -4.8958    0.0000 C   0  0  0  0  0  0  0  0  0  0  0  0
    6.4093   -4.4833    0.0000 C   0  0  0  0  0  0  0  0  0  0  0  0
    5.6948   -4.8958    0.0000 C   0  0  0  0  0  0  0  0  0  0  0  0
    5.6948   -5.7208    0.0000 C   0  0  0  0  0  0  0  0  0  0  0  0
    6.4093   -6.1333    0.0000 C   0  0  0  0  0  0  0  0  0  0  0  0
    7.1238   -5.7208    0.0000 C   0  0  0  0  0  0  0  0  0  0  0  0
    7.8382   -3.6583    0.0000 O   0  0  0  0  0  0  0  0  0  0  0  0
    8.5527   -4.8958    0.0000 O   0  0  0  0  0  0  0  0  0  0  0  0
    4.9803   -6.1333    0.0000 O   0  0  0  0  0  0  0  0  0  0  0  0
    4.9803   -4.4833    0.0000 O   0  0  0  0  0  0  0  0  0  0  0  0
    9.2672   -4.4833    0.0000 C   0  0  0  0  0  0  0  0  0  0  0  0
    9.9816   -4.8958    0.0000 C   0  0  0  0  0  0  0  0  0  0  0  0
  1  2  1  0  0  0  0
  2  3  1  0  0  0  0
  3  4  2  0  0  0  0
  4  5  1  0  0  0  0
  5  6  2  0  0  0  0
  6  7  1  0  0  0  0
  2  7  2  0  0  0  0
  1  8  2  0  0  0  0
  1  9  1  0  0  0  0
  5 10  1  0  0  0  0
  4 11  1  0  0  0  0
 12 13  1  0  0  0  0
  9 12  1  0  0  0  0
M  END
>  <cdx:fragmentId>
5

$$$$
