7755.cdx
  Mrv1902 05222410192D          

  8  7  0  0  0  0            999 V2000
    4.8575   -5.3289    0.0000 C   0  0  0  0  0  0  0  0  0  0  0  0
    4.1430   -5.7414    0.0000 C   0  0  0  0  0  0  0  0  0  0  0  0
    3.4285   -5.3289    0.0000 C   0  0  0  0  0  0  0  0  0  0  0  0
    2.7141   -5.7414    0.0000 C   0  0  0  0  0  0  0  0  0  0  0  0
    1.9996   -5.3289    0.0000 C   0  0  0  0  0  0  0  0  0  0  0  0
    4.8575   -4.5039    0.0000 O   0  0  0  0  0  0  0  0  0  0  0  0
    5.5719   -5.7414    0.0000 O   0  0  0  0  0  0  0  0  0  0  0  0
    3.4285   -4.5039    0.0000 C   0  0  0  0  0  0  0  0  0  0  0  0
  1  2  1  0  0  0  0
  2  3  1  0  0  0  0
  3  4  1  0  0  0  0
  4  5  1  0  0  0  0
  1  6  2  0  0  0  0
  1  7  1  0  0  0  0
  3  8  1  0  0  0  0
M  END
>  <cdx:groupId>
25

>  <cdx:fragmentId>
5

$$$$
