7758.cdx
  Mrv1902 05222410272D          

  8  7  0  0  0  0            999 V2000
    3.5854   -4.5658    0.0000 C   0  0  0  0  0  0  0  0  0  0  0  0
    2.8709   -4.9783    0.0000 C   0  0  0  0  0  0  0  0  0  0  0  0
    3.5854   -3.7408    0.0000 O   0  0  0  0  0  0  0  0  0  0  0  0
    4.2999   -4.9783    0.0000 O   0  0  0  0  0  0  0  0  0  0  0  0
    5.0144   -3.7408    0.0000 C   0  0  0  0  0  0  0  0  0  0  0  0
    5.0144   -4.5658    0.0000 C   0  0  0  0  0  0  0  0  0  0  0  0
    5.7288   -4.9783    0.0000 C   0  0  0  0  0  0  0  0  0  0  0  0
    6.4433   -4.5658    0.0000 C   0  0  0  0  0  0  0  0  0  0  0  0
  1  2  1  0  0  0  0
  1  3  2  0  0  0  0
  1  4  1  0  0  0  0
  5  6  1  0  0  0  0
  6  7  1  0  0  0  0
  7  8  1  0  0  0  0
  4  6  1  0  0  0  0
M  END
>  <cdx:groupId>
25

>  <cdx:fragmentId>
13

$$$$
