776126.cdx
  Mrv1902 05222410242D          

 24 26  0  0  0  0            999 V2000
    9.2579   -8.0249    0.0000 C   0  0  0  0  0  0  0  0  0  0  0  0
    9.9724   -8.4374    0.0000 C   0  0  0  0  0  0  0  0  0  0  0  0
    9.9724   -9.2624    0.0000 C   0  0  0  0  0  0  0  0  0  0  0  0
    9.2579   -9.6749    0.0000 C   0  0  0  0  0  0  0  0  0  0  0  0
    8.5435   -8.4374    0.0000 O   0  0  0  0  0  0  0  0  0  0  0  0
    9.2579   -7.1999    0.0000 O   0  0  0  0  0  0  0  0  0  0  0  0
   10.6869   -8.0249    0.0000 C   0  0  0  0  0  0  0  0  0  0  0  0
    8.5435   -5.9624    0.0000 C   0  0  0  0  0  0  0  0  0  0  0  0
    8.5435   -6.7874    0.0000 C   0  0  2  0  0  0  0  0  0  0  0  0
    7.8290   -7.1999    0.0000 C   0  0  0  0  0  0  0  0  0  0  0  0
    7.1145   -6.7874    0.0000 C   0  0  0  0  0  0  0  0  0  0  0  0
    6.4000   -7.1999    0.0000 C   0  0  0  0  0  0  0  0  0  0  0  0
    5.6856   -6.7874    0.0000 C   0  0  0  0  0  0  0  0  0  0  0  0
    5.6856   -5.9624    0.0000 C   0  0  0  0  0  0  0  0  0  0  0  0
    6.4000   -5.5499    0.0000 C   0  0  0  0  0  0  0  0  0  0  0  0
    7.1145   -5.9624    0.0000 C   0  0  0  0  0  0  0  0  0  0  0  0
    7.8290   -5.5499    0.0000 O   0  0  0  0  0  0  0  0  0  0  0  0
    4.9711   -7.1999    0.0000 C   0  0  0  0  0  0  0  0  0  0  0  0
    4.2566   -6.7874    0.0000 C   0  0  0  0  0  0  0  0  0  0  0  0
    4.2566   -5.9624    0.0000 C   0  0  0  0  0  0  0  0  0  0  0  0
    4.9711   -5.5499    0.0000 O   0  0  0  0  0  0  0  0  0  0  0  0
    3.5422   -5.5499    0.0000 O   0  0  0  0  0  0  0  0  0  0  0  0
    9.1268   -5.3791    0.0000 C   0  0  0  0  0  0  0  0  0  0  0  0
    9.3403   -6.1759    0.0000 C   0  0  0  0  0  0  0  0  0  0  0  0
  1  2  1  0  0  0  0
  2  3  2  0  0  0  0
  3  4  1  0  0  0  0
  1  5  2  0  0  0  0
  1  6  1  0  0  0  0
  2  7  1  0  0  0  0
  8  9  1  0  0  0  0
  9 10  1  0  0  0  0
 10 11  1  0  0  0  0
 11 12  1  0  0  0  0
 12 13  2  0  0  0  0
 13 14  1  0  0  0  0
 14 15  2  0  0  0  0
 15 16  1  0  0  0  0
 11 16  2  0  0  0  0
 16 17  1  0  0  0  0
  8 17  1  0  0  0  0
 18 19  2  0  0  0  0
 19 20  1  0  0  0  0
 20 21  1  0  0  0  0
 18 13  1  0  0  0  0
 21 14  1  0  0  0  0
 20 22  2  0  0  0  0
  8 23  1  0  0  0  0
  8 24  1  0  0  0  0
  9  6  1  1  0  0  0
M  END
>  <cdx:fragmentId>
19

$$$$
