776189.cdx
  Mrv1902 05222410202D          

 23 25  0  0  0  0            999 V2000
    5.1708   -6.9360    0.0000 C   0  0  0  0  0  0  0  0  0  0  0  0
    5.1708   -7.7610    0.0000 C   0  0  0  0  0  0  0  0  0  0  0  0
    5.8852   -8.1735    0.0000 C   0  0  0  0  0  0  0  0  0  0  0  0
    6.5997   -7.7610    0.0000 C   0  0  0  0  0  0  0  0  0  0  0  0
    7.3142   -8.1735    0.0000 C   0  0  0  0  0  0  0  0  0  0  0  0
    8.0286   -7.7610    0.0000 C   0  0  0  0  0  0  0  0  0  0  0  0
    8.0286   -6.9360    0.0000 C   0  0  0  0  0  0  0  0  0  0  0  0
    7.3142   -6.5235    0.0000 C   0  0  0  0  0  0  0  0  0  0  0  0
    6.5997   -6.9360    0.0000 C   0  0  0  0  0  0  0  0  0  0  0  0
    5.8852   -6.5235    0.0000 O   0  0  0  0  0  0  0  0  0  0  0  0
    8.8133   -6.6810    0.0000 O   0  0  0  0  0  0  0  0  0  0  0  0
    8.8133   -8.0159    0.0000 C   0  0  0  0  0  0  0  0  0  0  0  0
    9.2982   -7.3485    0.0000 C   0  0  0  0  0  0  0  0  0  0  0  0
    4.4563   -6.5235    0.0000 O   0  0  0  0  0  0  0  0  0  0  0  0
    7.3142   -5.6985    0.0000 O   0  0  0  0  0  0  0  0  0  0  0  0
    8.0286   -5.2860    0.0000 C   0  0  0  0  0  0  0  0  0  0  0  0
    7.3142   -8.9985    0.0000 O   0  0  0  0  0  0  0  0  0  0  0  0
    8.0286   -9.4110    0.0000 C   0  0  0  0  0  0  0  0  0  0  0  0
    8.0286  -10.2360    0.0000 C   0  0  0  0  0  0  0  0  0  0  0  0
    8.7431  -10.6485    0.0000 C   0  0  0  0  0  0  0  0  0  0  0  0
    8.7431  -11.4735    0.0000 C   0  0  0  0  0  0  0  0  0  0  0  0
    9.4576  -10.2360    0.0000 C   0  0  0  0  0  0  0  0  0  0  0  0
    7.3142  -10.6485    0.0000 O   0  0  0  0  0  0  0  0  0  0  0  0
  1  2  1  0  0  0  0
  2  3  2  0  0  0  0
  3  4  1  0  0  0  0
  4  5  2  0  0  0  0
  5  6  1  0  0  0  0
  6  7  2  0  0  0  0
  7  8  1  0  0  0  0
  8  9  2  0  0  0  0
  4  9  1  0  0  0  0
  9 10  1  0  0  0  0
  1 10  1  0  0  0  0
 12 13  2  0  0  0  0
 11 13  1  0  0  0  0
 12  6  1  0  0  0  0
 11  7  1  0  0  0  0
  1 14  2  0  0  0  0
 15 16  1  0  0  0  0
  8 15  1  0  0  0  0
 18 19  1  0  0  0  0
 19 20  1  0  0  0  0
 20 21  2  0  0  0  0
 17 18  1  0  0  0  0
 20 22  1  0  0  0  0
 19 23  1  0  0  0  0
  5 17  1  0  0  0  0
M  END
>  <cdx:fragmentId>
189830

$$$$
