7762.cdx
  Mrv1902 05222410282D          

  8  7  0  0  0  0            999 V2000
    4.1415   -2.5858    0.0000 C   0  0  0  0  0  0  0  0  0  0  0  0
    3.4270   -2.9983    0.0000 C   0  0  0  0  0  0  0  0  0  0  0  0
    2.7126   -2.5858    0.0000 C   0  0  0  0  0  0  0  0  0  0  0  0
    1.9981   -2.9983    0.0000 C   0  0  0  0  0  0  0  0  0  0  0  0
    4.1415   -1.7608    0.0000 O   0  0  0  0  0  0  0  0  0  0  0  0
    4.8560   -2.9983    0.0000 O   0  0  0  0  0  0  0  0  0  0  0  0
    5.5704   -2.5858    0.0000 C   0  0  0  0  0  0  0  0  0  0  0  0
    6.2849   -2.9983    0.0000 C   0  0  0  0  0  0  0  0  0  0  0  0
  1  2  1  0  0  0  0
  2  3  1  0  0  0  0
  3  4  1  0  0  0  0
  1  5  2  0  0  0  0
  1  6  1  0  0  0  0
  7  8  1  0  0  0  0
  6  7  1  0  0  0  0
M  END
>  <cdx:groupId>
25

>  <cdx:fragmentId>
5

$$$$
