77667.cdx
  Mrv1902 05222410272D          

 10 10  0  0  0  0            999 V2000
    8.0206   -4.6037    0.0000 C   0  0  0  0  0  0  0  0  0  0  0  0
    7.7812   -5.3932    0.0000 C   0  0  0  0  0  0  0  0  0  0  0  0
    6.9563   -5.4095    0.0000 C   0  0  0  0  0  0  0  0  0  0  0  0
    6.6859   -4.6301    0.0000 C   0  0  0  0  0  0  0  0  0  0  0  0
    7.3437   -4.1320    0.0000 C   0  0  0  0  0  0  0  0  0  0  0  0
    7.3273   -3.3072    0.0000 C   0  0  0  0  0  0  0  0  0  0  0  0
    5.8964   -4.3907    0.0000 C   0  0  0  0  0  0  0  0  0  0  0  0
    6.4847   -6.0864    0.0000 C   0  0  0  0  0  0  0  0  0  0  0  0
    8.2792   -6.0509    0.0000 C   0  0  0  0  0  0  0  0  0  0  0  0
    8.8000   -4.3333    0.0000 C   0  0  0  0  0  0  0  0  0  0  0  0
  1  2  2  0  0  0  0
  2  3  1  0  0  0  0
  3  4  2  0  0  0  0
  4  5  1  0  0  0  0
  1  5  1  0  0  0  0
  5  6  1  0  0  0  0
  4  7  1  0  0  0  0
  3  8  1  0  0  0  0
  2  9  1  0  0  0  0
  1 10  1  0  0  0  0
M  END
>  <cdx:fragmentId>
5

$$$$
