776892.cdx
  Mrv1902 05222410202D          

 19 20  0  0  0  0            999 V2000
    8.2249   -8.4820    0.0000 C   0  0  0  0  0  0  0  0  0  0  0  0
    8.7099   -7.8145    0.0000 C   0  0  0  0  0  0  0  0  0  0  0  0
    8.2249   -7.1471    0.0000 C   0  0  2  0  0  0  0  0  0  0  0  0
    7.4403   -7.4020    0.0000 C   0  0  1  0  0  0  0  0  0  0  0  0
    6.7953   -6.8876    0.0000 C   0  0  0  0  0  0  0  0  0  0  0  0
    5.9910   -7.0712    0.0000 C   0  0  0  0  0  0  0  0  0  0  0  0
    5.6330   -7.8145    0.0000 C   0  0  0  0  0  0  0  0  0  0  0  0
    5.9910   -8.5578    0.0000 C   0  0  0  0  0  0  0  0  0  0  0  0
    6.7953   -8.7414    0.0000 C   0  0  0  0  0  0  0  0  0  0  0  0
    7.4403   -8.2270    0.0000 C   0  0  1  0  0  0  0  0  0  0  0  0
    4.8080   -7.8145    0.0000 O   0  0  0  0  0  0  0  0  0  0  0  0
    5.7780   -5.6582    0.0000 C   0  0  0  0  0  0  0  0  0  0  0  0
    5.4766   -6.4262    0.0000 C   0  0  0  0  0  0  0  0  0  0  0  0
    4.6608   -6.5492    0.0000 C   0  0  0  0  0  0  0  0  0  0  0  0
    6.9789   -9.5457    0.0000 C   0  0  0  0  0  0  0  0  0  0  0  0
    8.8380   -6.5951    0.0000 C   0  0  0  0  0  0  0  0  0  0  0  0
    7.4403   -9.0520    0.0000 O   0  0  0  0  0  0  0  0  0  0  0  0
    8.0534   -6.3401    0.0000 O   0  0  0  0  0  0  0  0  0  0  0  0
    7.4403   -6.5770    0.0000 H   0  0  0  0  0  0  0  0  0  0  0  0
  1  2  1  0  0  0  0
  2  3  1  0  0  0  0
  3  4  1  0  0  0  0
  4  5  1  0  0  0  0
  5  6  1  0  0  0  0
  6  7  1  0  0  0  0
  7  8  1  0  0  0  0
  8  9  2  0  0  0  0
  9 10  1  0  0  0  0
  1 10  1  0  0  0  0
  4 10  1  0  0  0  0
  7 11  2  0  0  0  0
 12 13  1  0  0  0  0
 13 14  1  0  0  0  0
  6 13  2  0  0  0  0
  9 15  1  0  0  0  0
  3 16  1  6  0  0  0
 10 17  1  1  0  0  0
  3 18  1  1  0  0  0
  4 19  1  1  0  0  0
M  END
>  <cdx:groupId>
81163

>  <cdx:fragmentId>
81108

$$$$
