7772.cdx
  Mrv1902 05222410262D          

 10  9  0  0  0  0            999 V2000
    2.5335   -2.6477    0.0000 C   0  0  0  0  0  0  0  0  0  0  0  0
    1.8191   -3.0602    0.0000 C   0  0  0  0  0  0  0  0  0  0  0  0
    1.1046   -2.6477    0.0000 C   0  0  0  0  0  0  0  0  0  0  0  0
    2.5335   -1.8227    0.0000 O   0  0  0  0  0  0  0  0  0  0  0  0
    3.2480   -3.0602    0.0000 O   0  0  0  0  0  0  0  0  0  0  0  0
    3.9625   -2.6477    0.0000 C   0  0  0  0  0  0  0  0  0  0  0  0
    4.6770   -3.0602    0.0000 C   0  0  0  0  0  0  0  0  0  0  0  0
    5.3914   -2.6477    0.0000 C   0  0  0  0  0  0  0  0  0  0  0  0
    6.1059   -3.0602    0.0000 C   0  0  0  0  0  0  0  0  0  0  0  0
    5.3914   -1.8227    0.0000 C   0  0  0  0  0  0  0  0  0  0  0  0
  1  2  1  0  0  0  0
  2  3  1  0  0  0  0
  1  4  2  0  0  0  0
  1  5  1  0  0  0  0
  6  7  1  0  0  0  0
  7  8  1  0  0  0  0
  8  9  1  0  0  0  0
  8 10  1  0  0  0  0
  5  6  1  0  0  0  0
M  END
>  <cdx:groupId>
31

>  <cdx:fragmentId>
15

$$$$
