14777892.cdx
  Mrv1902 05222410272D          

 18 20  0  0  0  0            999 V2000
    9.0544  -14.6432    0.0000 C   0  0  0  0  0  0  0  0  0  0  0  0
    9.0544  -13.8182    0.0000 C   0  0  0  0  0  0  0  0  0  0  0  0
    8.3400  -13.4057    0.0000 C   0  0  0  0  0  0  0  0  0  0  0  0
    7.6255  -13.8182    0.0000 C   0  0  0  0  0  0  0  0  0  0  0  0
    7.6255  -14.6432    0.0000 C   0  0  0  0  0  0  0  0  0  0  0  0
    6.9110  -15.0557    0.0000 C   0  0  0  0  0  0  0  0  0  0  0  0
    6.1965  -14.6432    0.0000 C   0  0  0  0  0  0  0  0  0  0  0  0
    5.4821  -15.0557    0.0000 C   0  0  0  0  0  0  0  0  0  0  0  0
    5.4821  -15.8807    0.0000 C   0  0  0  0  0  0  0  0  0  0  0  0
    6.1965  -16.2932    0.0000 C   0  0  0  0  0  0  0  0  0  0  0  0
    6.9110  -15.8807    0.0000 C   0  0  0  0  0  0  0  0  0  0  0  0
    7.6255  -16.2932    0.0000 C   0  0  0  0  0  0  0  0  0  0  0  0
    8.3400  -15.8807    0.0000 C   0  0  0  0  0  0  0  0  0  0  0  0
    8.3400  -15.0557    0.0000 C   0  0  0  0  0  0  0  0  0  0  0  0
    9.7689  -13.4057    0.0000 O   0  0  0  0  0  0  0  0  0  0  0  0
    4.7676  -16.2932    0.0000 O   0  0  0  0  0  0  0  0  0  0  0  0
    6.9110  -13.4057    0.0000 O   0  0  0  0  0  0  0  0  0  0  0  0
    6.1965  -13.8182    0.0000 C   0  0  0  0  0  0  0  0  0  0  0  0
  1  2  1  0  0  0  0
  2  3  2  0  0  0  0
  3  4  1  0  0  0  0
  4  5  2  0  0  0  0
  5  6  1  0  0  0  0
  6  7  2  0  0  0  0
  7  8  1  0  0  0  0
  8  9  2  0  0  0  0
  9 10  1  0  0  0  0
 10 11  2  0  0  0  0
  6 11  1  0  0  0  0
 11 12  1  0  0  0  0
 12 13  2  0  0  0  0
 13 14  1  0  0  0  0
  1 14  2  0  0  0  0
  5 14  1  0  0  0  0
  2 15  1  0  0  0  0
  9 16  1  0  0  0  0
 17 18  1  0  0  0  0
  4 17  1  0  0  0  0
M  END
>  <cdx:groupId>
109502

>  <cdx:fragmentId>
109449

$$$$
