7778.cdx
  Mrv1902 05222410182D          

 13 12  0  0  0  0            999 V2000
    4.5733   -2.8179    0.0000 C   0  0  0  0  0  0  0  0  0  0  0  0
    3.8588   -3.2304    0.0000 O   0  0  0  0  0  0  0  0  0  0  0  0
    5.2878   -3.2304    0.0000 O   0  0  0  0  0  0  0  0  0  0  0  0
    6.0022   -2.8179    0.0000 C   0  0  0  0  0  0  0  0  0  0  0  0
    6.7167   -3.2304    0.0000 C   0  0  0  0  0  0  0  0  0  0  0  0
    7.4312   -2.8179    0.0000 C   0  0  0  0  0  0  0  0  0  0  0  0
    8.1457   -3.2304    0.0000 C   0  0  0  0  0  0  0  0  0  0  0  0
    8.8601   -2.8179    0.0000 C   0  0  0  0  0  0  0  0  0  0  0  0
    9.5746   -3.2304    0.0000 C   0  0  0  0  0  0  0  0  0  0  0  0
   10.2891   -2.8179    0.0000 C   0  0  0  0  0  0  0  0  0  0  0  0
   10.2891   -1.9929    0.0000 C   0  0  0  0  0  0  0  0  0  0  0  0
   11.0035   -3.2304    0.0000 C   0  0  0  0  0  0  0  0  0  0  0  0
    7.4312   -1.9929    0.0000 C   0  0  0  0  0  0  0  0  0  0  0  0
  1  2  2  0  0  0  0
  1  3  1  0  0  0  0
  4  5  1  0  0  0  0
  5  6  1  0  0  0  0
  6  7  1  0  0  0  0
  7  8  1  0  0  0  0
  8  9  1  0  0  0  0
  9 10  2  0  0  0  0
 10 11  1  0  0  0  0
 10 12  1  0  0  0  0
  6 13  1  0  0  0  0
  3  4  1  0  0  0  0
M  END
>  <cdx:fragmentId>
11

$$$$
