85777815.cdx
  Mrv1902 05222410232D          

 18 19  0  0  0  0            999 V2000
    7.9793  -14.4782    0.0000 C   0  0  0  0  0  0  0  0  0  0  0  0
    7.9793  -13.6532    0.0000 O   0  0  0  0  0  0  0  0  0  0  0  0
    8.6938  -14.8907    0.0000 C   0  0  0  0  0  0  0  0  0  0  0  0
    9.4082  -14.4782    0.0000 C   0  0  0  0  0  0  0  0  0  0  0  0
   10.1227  -14.8907    0.0000 C   0  0  0  0  0  0  0  0  0  0  0  0
   10.1227  -15.7157    0.0000 C   0  0  0  0  0  0  0  0  0  0  0  0
    9.4082  -16.1282    0.0000 C   0  0  0  0  0  0  0  0  0  0  0  0
    8.6938  -15.7157    0.0000 C   0  0  0  0  0  0  0  0  0  0  0  0
    7.2648  -14.8907    0.0000 C   0  0  0  0  0  0  0  0  0  0  0  0
    7.2648  -15.7157    0.0000 C   0  0  0  0  0  0  0  0  0  0  0  0
    6.5503  -16.1282    0.0000 C   0  0  0  0  0  0  0  0  0  0  0  0
    5.8359  -15.7157    0.0000 C   0  0  0  0  0  0  0  0  0  0  0  0
    5.8359  -14.8907    0.0000 C   0  0  0  0  0  0  0  0  0  0  0  0
    6.5503  -14.4782    0.0000 C   0  0  0  0  0  0  0  0  0  0  0  0
    5.1214  -14.4782    0.0000 O   0  0  0  0  0  0  0  0  0  0  0  0
    4.4069  -14.8907    0.0000 C   0  0  0  0  0  0  0  0  0  0  0  0
    5.1214  -16.1282    0.0000 O   0  0  0  0  0  0  0  0  0  0  0  0
    7.9793  -16.1282    0.0000 O   0  0  0  0  0  0  0  0  0  0  0  0
  1  2  2  0  0  0  0
  3  4  1  0  0  0  0
  4  5  2  0  0  0  0
  5  6  1  0  0  0  0
  6  7  2  0  0  0  0
  7  8  1  0  0  0  0
  3  8  2  0  0  0  0
  1  3  1  0  0  0  0
  9 10  1  0  0  0  0
 10 11  2  0  0  0  0
 11 12  1  0  0  0  0
 12 13  2  0  0  0  0
 13 14  1  0  0  0  0
  9 14  2  0  0  0  0
 15 16  1  0  0  0  0
 13 15  1  0  0  0  0
 12 17  1  0  0  0  0
 10 18  1  0  0  0  0
  1  9  1  0  0  0  0
M  END
>  <cdx:groupId>
209124

>  <cdx:fragmentId>
209088

$$$$
