77793.cdx
  Mrv1902 05222410212D          

 19 21  0  0  0  0            999 V2000
    6.5721   -5.8171    0.0000 C   0  0  0  0  0  0  0  0  0  0  0  0
    6.5721   -6.6421    0.0000 C   0  0  0  0  0  0  0  0  0  0  0  0
    5.8576   -7.0546    0.0000 C   0  0  0  0  0  0  0  0  0  0  0  0
    5.8576   -7.8796    0.0000 O   0  0  0  0  0  0  0  0  0  0  0  0
    5.1431   -6.6421    0.0000 C   0  0  0  0  0  0  0  0  0  0  0  0
    4.4287   -7.0546    0.0000 C   0  0  0  0  0  0  0  0  0  0  0  0
    3.7142   -6.6421    0.0000 C   0  0  0  0  0  0  0  0  0  0  0  0
    3.7142   -5.8171    0.0000 C   0  0  0  0  0  0  0  0  0  0  0  0
    4.4287   -5.4046    0.0000 C   0  0  0  0  0  0  0  0  0  0  0  0
    5.1431   -5.8171    0.0000 C   0  0  0  0  0  0  0  0  0  0  0  0
    5.8576   -5.4046    0.0000 O   0  0  0  0  0  0  0  0  0  0  0  0
    7.2865   -5.4046    0.0000 C   0  0  0  0  0  0  0  0  0  0  0  0
    7.2865   -4.5796    0.0000 C   0  0  0  0  0  0  0  0  0  0  0  0
    8.0010   -4.1671    0.0000 C   0  0  0  0  0  0  0  0  0  0  0  0
    8.7155   -4.5796    0.0000 C   0  0  0  0  0  0  0  0  0  0  0  0
    8.7155   -5.4046    0.0000 C   0  0  0  0  0  0  0  0  0  0  0  0
    8.0010   -5.8171    0.0000 C   0  0  0  0  0  0  0  0  0  0  0  0
    9.4300   -4.1671    0.0000 O   0  0  0  0  0  0  0  0  0  0  0  0
   10.1444   -4.5796    0.0000 C   0  0  0  0  0  0  0  0  0  0  0  0
  1  2  2  0  0  0  0
  2  3  1  0  0  0  0
  3  4  2  0  0  0  0
  3  5  1  0  0  0  0
  5  6  1  0  0  0  0
  6  7  2  0  0  0  0
  7  8  1  0  0  0  0
  8  9  2  0  0  0  0
  9 10  1  0  0  0  0
  5 10  2  0  0  0  0
 10 11  1  0  0  0  0
  1 11  1  0  0  0  0
  1 12  1  0  0  0  0
 12 13  1  0  0  0  0
 13 14  2  0  0  0  0
 14 15  1  0  0  0  0
 15 16  2  0  0  0  0
 16 17  1  0  0  0  0
 12 17  2  0  0  0  0
 18 19  1  0  0  0  0
 15 18  1  0  0  0  0
M  END
>  <cdx:groupId>
61

>  <cdx:fragmentId>
5

$$$$
