77799.cdx
  Mrv1902 05222410232D          

 47 51  0  0  0  0            999 V2000
    6.7777   -9.2582    0.0000 C   0  0  2  0  0  0  0  0  0  0  0  0
    6.3656   -9.9729    0.0000 O   0  0  0  0  0  0  0  0  0  0  0  0
    6.9180  -10.5857    0.0000 C   0  0  0  0  0  0  0  0  0  0  0  0
    6.7469  -11.3927    0.0000 C   0  0  0  0  0  0  0  0  0  0  0  0
    5.9321  -11.5222    0.0000 C   0  0  0  0  0  0  0  0  0  0  0  0
    5.6369  -12.2926    0.0000 C   0  0  0  0  0  0  0  0  0  0  0  0
    6.1564  -12.9335    0.0000 C   0  0  0  0  0  0  0  0  0  0  0  0
    6.9712  -12.8040    0.0000 C   0  0  0  0  0  0  0  0  0  0  0  0
    7.2664  -12.0336    0.0000 C   0  0  0  0  0  0  0  0  0  0  0  0
    8.0914  -12.0331    0.0000 C   0  0  0  0  0  0  0  0  0  0  0  0
    8.3875  -12.8032    0.0000 C   0  0  0  0  0  0  0  0  0  0  0  0
    9.2024  -12.9318    0.0000 C   0  0  0  0  0  0  0  0  0  0  0  0
    9.7213  -12.2904    0.0000 C   0  0  0  0  0  0  0  0  0  0  0  0
    9.4252  -11.5203    0.0000 C   0  0  0  0  0  0  0  0  0  0  0  0
    8.6103  -11.3917    0.0000 C   0  0  0  0  0  0  0  0  0  0  0  0
    8.4253  -10.5848    0.0000 C   0  0  0  0  0  0  0  0  0  0  0  0
    9.0925  -10.0996    0.0000 O   0  0  0  0  0  0  0  0  0  0  0  0
    9.0058   -9.2791    0.0000 C   0  0  0  0  0  0  0  0  0  0  0  0
    8.2520   -8.9440    0.0000 C   0  0  1  0  0  0  0  0  0  0  0  0
    8.0484   -8.1445    0.0000 O   0  0  0  0  0  0  0  0  0  0  0  0
    7.2604   -7.9003    0.0000 C   0  0  1  0  0  0  0  0  0  0  0  0
    6.6404   -8.4446    0.0000 C   0  0  2  0  0  0  0  0  0  0  0  0
    7.5848   -9.4293    0.0000 C   0  0  1  0  0  0  0  0  0  0  0  0
    7.6967  -11.0246    0.0000 O   0  0  0  0  0  0  0  0  0  0  0  0
    7.6460  -10.2205    0.0000 O   0  0  0  0  0  0  0  0  0  0  0  0
    8.1372  -10.0421    0.0000 O   0  0  0  0  0  0  0  0  0  0  0  0
    5.8631   -8.1682    0.0000 O   0  0  0  0  0  0  0  0  0  0  0  0
   10.5362  -12.4190    0.0000 O   0  0  0  0  0  0  0  0  0  0  0  0
    9.4985  -13.7018    0.0000 O   0  0  0  0  0  0  0  0  0  0  0  0
    7.9880  -13.5250    0.0000 O   0  0  0  0  0  0  0  0  0  0  0  0
    7.3716  -13.5253    0.0000 O   0  0  0  0  0  0  0  0  0  0  0  0
    5.8612  -13.7038    0.0000 O   0  0  0  0  0  0  0  0  0  0  0  0
    4.8221  -12.4221    0.0000 O   0  0  0  0  0  0  0  0  0  0  0  0
    5.9628   -9.1296    0.0000 H   0  0  0  0  0  0  0  0  0  0  0  0
    8.8825   -8.4120    0.0000 H   0  0  0  0  0  0  0  0  0  0  0  0
    8.5829   -3.8225    0.0000 O   0  0  0  0  0  0  0  0  0  0  0  0
    7.0133   -3.3135    0.0000 O   0  0  0  0  0  0  0  0  0  0  0  0
    5.7878   -4.4182    0.0000 O   0  0  0  0  0  0  0  0  0  0  0  0
    7.0884   -7.0934    0.0000 O   0  0  0  0  0  0  0  0  0  0  0  0
    8.4860   -6.7955    0.0000 O   0  0  0  0  0  0  0  0  0  0  0  0
    6.7445   -5.4796    0.0000 C   0  0  0  0  0  0  0  0  0  0  0  0
    6.5725   -4.6728    0.0000 C   0  0  0  0  0  0  0  0  0  0  0  0
    7.1853   -4.1204    0.0000 C   0  0  0  0  0  0  0  0  0  0  0  0
    7.9701   -4.3749    0.0000 C   0  0  0  0  0  0  0  0  0  0  0  0
    8.1421   -5.1818    0.0000 C   0  0  0  0  0  0  0  0  0  0  0  0
    7.5293   -5.7341    0.0000 C   0  0  0  0  0  0  0  0  0  0  0  0
    7.7012   -6.5410    0.0000 C   0  0  0  0  0  0  0  0  0  0  0  0
 44 36  1  0  0  0  0
 43 37  1  0  0  0  0
 42 38  1  0  0  0  0
 47 39  1  0  0  0  0
 47 40  2  0  0  0  0
 46 41  2  0  0  0  0
 42 41  1  0  0  0  0
 43 42  2  0  0  0  0
 44 43  1  0  0  0  0
 45 44  2  0  0  0  0
 46 45  1  0  0  0  0
 47 46  1  0  0  0  0
  1  2  1  0  0  0  0
  2  3  1  0  0  0  0
  3  4  1  0  0  0  0
  4  5  2  0  0  0  0
  5  6  1  0  0  0  0
  6  7  2  0  0  0  0
  7  8  1  0  0  0  0
  8  9  2  0  0  0  0
  9 10  1  0  0  0  0
 10 11  2  0  0  0  0
 11 12  1  0  0  0  0
 12 13  2  0  0  0  0
 13 14  1  0  0  0  0
 14 15  2  0  0  0  0
 15 16  1  0  0  0  0
 16 17  1  0  0  0  0
 17 18  1  0  0  0  0
 18 19  1  0  0  0  0
 19 20  1  0  0  0  0
 20 21  1  0  0  0  0
 21 22  1  0  0  0  0
  1 22  1  0  0  0  0
  1 23  1  0  0  0  0
 23 19  1  0  0  0  0
 10 15  1  0  0  0  0
  4  9  1  0  0  0  0
 16 24  2  0  0  0  0
  3 25  2  0  0  0  0
 23 26  1  1  0  0  0
 22 27  1  1  0  0  0
 13 28  1  0  0  0  0
 12 29  1  0  0  0  0
 11 30  1  0  0  0  0
  8 31  1  0  0  0  0
  7 32  1  0  0  0  0
  6 33  1  0  0  0  0
 21 39  1  1  0  0  0
  1 34  1  1  0  0  0
 19 35  1  1  0  0  0
M  END
>  <cdx:fragmentId>
29

$$$$
