778643.cdx
  Mrv1902 05222410252D          

 37 40  0  0  0  0            999 V2000
    4.4166   -6.5884    0.0000 O   0  0  0  0  0  0  0  0  0  0  0  0
    5.1292   -5.3499    0.0000 O   0  0  0  0  0  0  0  0  0  0  0  0
    4.4154   -5.7634    0.0000 C   0  0  2  0  0  0  0  0  0  0  0  0
    3.7003   -5.3520    0.0000 C   0  0  1  0  0  0  0  0  0  0  0  0
    3.6990   -4.5270    0.0000 C   0  0  2  0  0  0  0  0  0  0  0  0
    4.4129   -4.1134    0.0000 C   0  0  1  0  0  0  0  0  0  0  0  0
    5.1280   -4.5249    0.0000 C   0  0  1  0  0  0  0  0  0  0  0  0
    5.8418   -4.1113    0.0000 C   0  0  0  0  0  0  0  0  0  0  0  0
    5.8418   -3.2863    0.0000 O   0  0  0  0  0  0  0  0  0  0  0  0
    4.4117   -3.2884    0.0000 O   0  0  0  0  0  0  0  0  0  0  0  0
    2.9839   -4.1156    0.0000 O   0  0  0  0  0  0  0  0  0  0  0  0
    2.9864   -5.7656    0.0000 O   0  0  0  0  0  0  0  0  0  0  0  0
    5.8455   -9.0634    0.0000 O   0  0  0  0  0  0  0  0  0  0  0  0
    9.4179  -10.3009    0.0000 O   0  0  0  0  0  0  0  0  0  0  0  0
   11.5613   -9.0634    0.0000 C   0  0  0  0  0  0  0  0  0  0  0  0
   10.8468   -9.4759    0.0000 O   0  0  0  0  0  0  0  0  0  0  0  0
   11.5613   -8.2384    0.0000 C   0  0  0  0  0  0  0  0  0  0  0  0
   10.8468   -7.8259    0.0000 O   0  0  0  0  0  0  0  0  0  0  0  0
    9.4179   -7.8259    0.0000 C   0  0  0  0  0  0  0  0  0  0  0  0
   10.1324   -8.2384    0.0000 C   0  0  0  0  0  0  0  0  0  0  0  0
   10.1324   -9.0634    0.0000 C   0  0  0  0  0  0  0  0  0  0  0  0
    9.4179   -9.4759    0.0000 C   0  0  0  0  0  0  0  0  0  0  0  0
    8.7034   -9.0634    0.0000 C   0  0  0  0  0  0  0  0  0  0  0  0
    8.7034   -8.2384    0.0000 C   0  0  0  0  0  0  0  0  0  0  0  0
    3.7021   -7.8259    0.0000 C   0  0  0  0  0  0  0  0  0  0  0  0
    4.4166   -8.2384    0.0000 O   0  0  0  0  0  0  0  0  0  0  0  0
    7.2745   -9.0634    0.0000 O   0  0  0  0  0  0  0  0  0  0  0  0
    7.2745   -6.5884    0.0000 O   0  0  0  0  0  0  0  0  0  0  0  0
    6.5600   -7.0009    0.0000 C   0  0  0  0  0  0  0  0  0  0  0  0
    5.8455   -6.5884    0.0000 C   0  0  0  0  0  0  0  0  0  0  0  0
    5.1311   -7.0009    0.0000 C   0  0  0  0  0  0  0  0  0  0  0  0
    5.1311   -7.8259    0.0000 C   0  0  0  0  0  0  0  0  0  0  0  0
    5.8455   -8.2384    0.0000 C   0  0  0  0  0  0  0  0  0  0  0  0
    6.5600   -7.8259    0.0000 C   0  0  0  0  0  0  0  0  0  0  0  0
    7.2745   -8.2384    0.0000 C   0  0  0  0  0  0  0  0  0  0  0  0
    7.9889   -7.8259    0.0000 C   0  0  0  0  0  0  0  0  0  0  0  0
    7.9889   -7.0009    0.0000 C   0  0  0  0  0  0  0  0  0  0  0  0
 33 13  1  0  0  0  0
 36 24  1  0  0  0  0
 22 14  1  0  0  0  0
 21 16  1  0  0  0  0
 16 15  1  0  0  0  0
 20 18  1  0  0  0  0
 18 17  1  0  0  0  0
 24 19  2  0  0  0  0
 20 19  1  0  0  0  0
 21 20  2  0  0  0  0
 22 21  1  0  0  0  0
 23 22  2  0  0  0  0
 24 23  1  0  0  0  0
 32 26  1  0  0  0  0
 26 25  1  0  0  0  0
 31  1  1  0  0  0  0
 35 27  2  0  0  0  0
 37 28  1  0  0  0  0
 29 28  1  0  0  0  0
 34 29  2  0  0  0  0
 30 29  1  0  0  0  0
 31 30  2  0  0  0  0
 32 31  1  0  0  0  0
 33 32  2  0  0  0  0
 34 33  1  0  0  0  0
 35 34  1  0  0  0  0
 36 35  1  0  0  0  0
 37 36  1  0  0  0  0
  2  3  1  0  0  0  0
  3  4  1  0  0  0  0
  4  5  1  0  0  0  0
  5  6  1  0  0  0  0
  6  7  1  0  0  0  0
  2  7  1  0  0  0  0
  8  9  1  0  0  0  0
  7  8  1  1  0  0  0
  6 10  1  6  0  0  0
  5 11  1  1  0  0  0
  4 12  1  6  0  0  0
  3  1  1  1  0  0  0
M  END
>  <cdx:fragmentId>
1903

$$$$
