779265.cdx
  Mrv1902 05222410282D          

 15 16  0  0  0  0            999 V2000
    3.4567   -7.8092    0.0000 C   0  0  0  0  0  0  0  0  0  0  0  0
    4.2375   -8.0758    0.0000 C   0  0  0  0  0  0  0  0  0  0  0  0
    5.0182   -8.3424    0.0000 C   0  0  0  0  0  0  0  0  0  0  0  0
    6.4735   -8.1340    0.0000 S   0  0  0  0  0  0  0  0  0  0  0  0
    5.7990   -8.6090    0.0000 C   0  0  0  0  0  0  0  0  0  0  0  0
    6.0422   -9.3973    0.0000 C   0  0  0  0  0  0  0  0  0  0  0  0
    6.8671   -9.4096    0.0000 C   0  0  0  0  0  0  0  0  0  0  0  0
    7.1337   -8.6288    0.0000 C   0  0  0  0  0  0  0  0  0  0  0  0
   10.6587   -8.1292    0.0000 O   0  0  0  0  0  0  0  0  0  0  0  0
   10.0375   -8.6720    0.0000 C   0  0  0  0  0  0  0  0  0  0  0  0
    8.5822   -8.8804    0.0000 S   0  0  0  0  0  0  0  0  0  0  0  0
    7.9220   -8.3856    0.0000 C   0  0  0  0  0  0  0  0  0  0  0  0
    8.1886   -7.6049    0.0000 C   0  0  0  0  0  0  0  0  0  0  0  0
    9.0135   -7.6171    0.0000 C   0  0  0  0  0  0  0  0  0  0  0  0
    9.2568   -8.4055    0.0000 C   0  0  0  0  0  0  0  0  0  0  0  0
 12  8  1  0  0  0  0
  5  3  1  0  0  0  0
  2  1  1  0  0  0  0
  3  2  3  0  0  0  0
  8  4  1  0  0  0  0
  5  4  1  0  0  0  0
  6  5  2  0  0  0  0
  7  6  1  0  0  0  0
  8  7  2  0  0  0  0
 15 10  1  0  0  0  0
 10  9  2  0  0  0  0
 15 11  1  0  0  0  0
 12 11  1  0  0  0  0
 13 12  2  0  0  0  0
 14 13  1  0  0  0  0
 15 14  2  0  0  0  0
M  END
>  <cdx:fragmentId>
19

$$$$
