77932.cdx
  Mrv1902 05222410282D          

  8  7  0  0  0  0            999 V2000
    6.8849   -3.6919    0.0000 S   0  0  0  0  0  0  0  0  0  0  0  0
    7.5994   -4.1044    0.0000 S   0  0  0  0  0  0  0  0  0  0  0  0
    6.1704   -4.1044    0.0000 C   0  0  0  0  0  0  0  0  0  0  0  0
    6.1704   -4.9294    0.0000 C   0  0  0  0  0  0  0  0  0  0  0  0
    5.4559   -3.6919    0.0000 C   0  0  0  0  0  0  0  0  0  0  0  0
    8.3138   -3.6919    0.0000 C   0  0  0  0  0  0  0  0  0  0  0  0
    8.3138   -2.8669    0.0000 C   0  0  0  0  0  0  0  0  0  0  0  0
    9.0283   -4.1044    0.0000 C   0  0  0  0  0  0  0  0  0  0  0  0
  1  2  1  0  0  0  0
  3  4  1  0  0  0  0
  3  5  1  0  0  0  0
  1  3  1  0  0  0  0
  6  7  1  0  0  0  0
  6  8  1  0  0  0  0
  2  6  1  0  0  0  0
M  END
>  <cdx:groupId>
25

>  <cdx:fragmentId>
9

$$$$
