7795.cdx
  Mrv1902 05222410202D          

 11 10  0  0  0  0            999 V2000
    6.6720   -4.4696    0.0000 C   0  0  0  0  0  0  0  0  0  0  0  0
    5.9576   -4.8821    0.0000 C   0  0  0  0  0  0  0  0  0  0  0  0
    5.2431   -4.4696    0.0000 C   0  0  0  0  0  0  0  0  0  0  0  0
    4.5286   -4.8821    0.0000 C   0  0  0  0  0  0  0  0  0  0  0  0
    6.6720   -3.6446    0.0000 O   0  0  0  0  0  0  0  0  0  0  0  0
    7.3865   -4.8821    0.0000 O   0  0  0  0  0  0  0  0  0  0  0  0
    8.1010   -4.4696    0.0000 C   0  0  0  0  0  0  0  0  0  0  0  0
    8.8154   -4.8821    0.0000 C   0  0  0  0  0  0  0  0  0  0  0  0
    9.5299   -4.4696    0.0000 C   0  0  0  0  0  0  0  0  0  0  0  0
    9.5299   -3.6446    0.0000 C   0  0  0  0  0  0  0  0  0  0  0  0
   10.2444   -4.8821    0.0000 C   0  0  0  0  0  0  0  0  0  0  0  0
  1  2  1  0  0  0  0
  2  3  1  0  0  0  0
  3  4  1  0  0  0  0
  1  5  2  0  0  0  0
  1  6  1  0  0  0  0
  7  8  1  0  0  0  0
  8  9  1  0  0  0  0
  9 10  1  0  0  0  0
  9 11  1  0  0  0  0
  6  7  1  0  0  0  0
M  END
>  <cdx:fragmentId>
5

$$$$
