7797.cdx
  Mrv1902 05222410192D          

 11 10  0  0  0  0            999 V2000
    1.8339   -3.1839    0.0000 C   0  0  0  0  0  0  0  0  0  0  0  0
    2.5484   -2.7714    0.0000 C   0  0  0  0  0  0  0  0  0  0  0  0
    3.2628   -3.1839    0.0000 O   0  0  0  0  0  0  0  0  0  0  0  0
    3.9773   -1.9464    0.0000 O   0  0  0  0  0  0  0  0  0  0  0  0
    8.2641   -2.7714    0.0000 C   0  0  0  0  0  0  0  0  0  0  0  0
    7.5496   -3.1839    0.0000 C   0  0  0  0  0  0  0  0  0  0  0  0
    6.8352   -2.7714    0.0000 C   0  0  0  0  0  0  0  0  0  0  0  0
    6.1207   -3.1839    0.0000 C   0  0  0  0  0  0  0  0  0  0  0  0
    5.4062   -2.7714    0.0000 C   0  0  0  0  0  0  0  0  0  0  0  0
    4.6918   -3.1839    0.0000 C   0  0  0  0  0  0  0  0  0  0  0  0
    3.9773   -2.7714    0.0000 C   0  0  0  0  0  0  0  0  0  0  0  0
  3  2  1  0  0  0  0
  2  1  1  0  0  0  0
 11  3  1  0  0  0  0
 11  4  2  0  0  0  0
  6  5  1  0  0  0  0
  7  6  1  0  0  0  0
  8  7  1  0  0  0  0
  9  8  1  0  0  0  0
 10  9  1  0  0  0  0
 11 10  1  0  0  0  0
M  END
>  <cdx:groupId>
34

>  <cdx:fragmentId>
5

$$$$
