apigenin-7-O-ﾥ￢-D-glucuronide-6''-methyl ester.cdx
  Mrv1902 05222410262D          

 33 36  0  0  0  0            999 V2000
    5.4483   -7.2600    0.0000 C   0  0  0  0  0  0  0  0  0  0  0  0
    5.4483   -8.0850    0.0000 C   0  0  0  0  0  0  0  0  0  0  0  0
    6.1627   -8.4975    0.0000 C   0  0  0  0  0  0  0  0  0  0  0  0
    6.8772   -8.0850    0.0000 C   0  0  0  0  0  0  0  0  0  0  0  0
    6.8772   -7.2600    0.0000 C   0  0  0  0  0  0  0  0  0  0  0  0
    6.1627   -6.8475    0.0000 C   0  0  0  0  0  0  0  0  0  0  0  0
    7.5917   -8.4975    0.0000 C   0  0  0  0  0  0  0  0  0  0  0  0
    8.3062   -8.0850    0.0000 C   0  0  0  0  0  0  0  0  0  0  0  0
    8.3062   -7.2600    0.0000 C   0  0  0  0  0  0  0  0  0  0  0  0
    7.5917   -6.8475    0.0000 O   0  0  0  0  0  0  0  0  0  0  0  0
    9.0206   -6.8475    0.0000 C   0  0  0  0  0  0  0  0  0  0  0  0
    9.7351   -7.2600    0.0000 C   0  0  0  0  0  0  0  0  0  0  0  0
   10.4496   -6.8475    0.0000 C   0  0  0  0  0  0  0  0  0  0  0  0
   10.4496   -6.0225    0.0000 C   0  0  0  0  0  0  0  0  0  0  0  0
    9.7351   -5.6100    0.0000 C   0  0  0  0  0  0  0  0  0  0  0  0
    9.0206   -6.0225    0.0000 C   0  0  0  0  0  0  0  0  0  0  0  0
   11.1640   -5.6100    0.0000 O   0  0  0  0  0  0  0  0  0  0  0  0
    7.5917   -9.3225    0.0000 O   0  0  0  0  0  0  0  0  0  0  0  0
    6.1627   -9.3225    0.0000 O   0  0  0  0  0  0  0  0  0  0  0  0
    4.7338   -6.8475    0.0000 O   0  0  0  0  0  0  0  0  0  0  0  0
    4.0193   -7.2600    0.0000 C   0  0  0  0  0  0  0  0  0  0  0  0
    3.5561   -6.5773    0.0000 O   0  0  0  0  0  0  0  0  0  0  0  0
    2.7753   -6.8437    0.0000 C   0  0  0  0  0  0  0  0  0  0  0  0
    1.9677   -6.6750    0.0000 C   0  0  0  0  0  0  0  0  0  0  0  0
    2.4309   -7.3578    0.0000 C   0  0  0  0  0  0  0  0  0  0  0  0
    3.2118   -7.0914    0.0000 C   0  0  0  0  0  0  0  0  0  0  0  0
    2.3628   -6.1292    0.0000 C   0  0  0  0  0  0  0  0  0  0  0  0
    1.5378   -6.1292    0.0000 O   0  0  0  0  0  0  0  0  0  0  0  0
    2.7753   -5.4148    0.0000 O   0  0  0  0  0  0  0  0  0  0  0  0
    2.3628   -4.7003    0.0000 C   0  0  0  0  0  0  0  0  0  0  0  0
    1.1708   -6.8885    0.0000 O   0  0  0  0  0  0  0  0  0  0  0  0
    1.6340   -7.1442    0.0000 O   0  0  0  0  0  0  0  0  0  0  0  0
    3.6243   -7.8059    0.0000 O   0  0  0  0  0  0  0  0  0  0  0  0
  1  2  2  0  0  0  0
  2  3  1  0  0  0  0
  3  4  2  0  0  0  0
  4  5  1  0  0  0  0
  5  6  2  0  0  0  0
  6  1  1  0  0  0  0
  4  7  1  0  0  0  0
  7  8  1  0  0  0  0
  8  9  2  0  0  0  0
  9 10  1  0  0  0  0
 10  5  1  0  0  0  0
  9 11  1  0  0  0  0
 11 12  2  0  0  0  0
 12 13  1  0  0  0  0
 13 14  2  0  0  0  0
 14 15  1  0  0  0  0
 15 16  2  0  0  0  0
 16 11  1  0  0  0  0
 14 17  1  0  0  0  0
  7 18  2  0  0  0  0
  3 19  1  0  0  0  0
  1 20  1  0  0  0  0
 20 21  1  0  0  0  0
 21 22  1  0  0  0  0
 22 23  1  0  0  0  0
 23 24  1  0  0  0  0
 24 25  1  0  0  0  0
 25 26  1  0  0  0  0
 26 21  1  0  0  0  0
 23 27  1  0  0  0  0
 24 31  1  0  0  0  0
 25 32  1  0  0  0  0
 26 33  1  0  0  0  0
 27 28  2  0  0  0  0
 27 29  1  0  0  0  0
 29 30  1  0  0  0  0
M  STY  1   1 SUP
M  SAL   1  4  27  28  29  30
M  SBL   1  1  30
M  SMT   1 COOCH3
M  SAP   1  1  27  23  1
M  END
>  <cdx:fragmentId>
5

$$$$
