7799.cdx
  Mrv1902 05222410262D          

 12 11  0  0  0  0            999 V2000
    3.8073   -3.9196    0.0000 C   0  0  0  0  0  0  0  0  0  0  0  0
    4.5217   -4.3321    0.0000 C   0  0  0  0  0  0  0  0  0  0  0  0
    5.2362   -3.9196    0.0000 O   0  0  0  0  0  0  0  0  0  0  0  0
    5.9507   -5.1571    0.0000 O   0  0  0  0  0  0  0  0  0  0  0  0
   10.9520   -3.9196    0.0000 C   0  0  0  0  0  0  0  0  0  0  0  0
   10.2375   -4.3321    0.0000 C   0  0  0  0  0  0  0  0  0  0  0  0
    9.5230   -3.9196    0.0000 C   0  0  0  0  0  0  0  0  0  0  0  0
    8.8086   -4.3321    0.0000 C   0  0  0  0  0  0  0  0  0  0  0  0
    8.0941   -3.9196    0.0000 C   0  0  0  0  0  0  0  0  0  0  0  0
    7.3796   -4.3321    0.0000 C   0  0  0  0  0  0  0  0  0  0  0  0
    6.6652   -3.9196    0.0000 C   0  0  0  0  0  0  0  0  0  0  0  0
    5.9507   -4.3321    0.0000 C   0  0  0  0  0  0  0  0  0  0  0  0
  3  2  1  0  0  0  0
  2  1  1  0  0  0  0
 12  3  1  0  0  0  0
 12  4  2  0  0  0  0
  6  5  1  0  0  0  0
  7  6  1  0  0  0  0
  8  7  1  0  0  0  0
  9  8  1  0  0  0  0
 10  9  1  0  0  0  0
 11 10  1  0  0  0  0
 12 11  1  0  0  0  0
M  END
>  <cdx:fragmentId>
5

$$$$
