78.cdx
  Mrv1902 05222410232D          

 56 60  0  0  0  0            999 V2000
   14.3954  -10.2624    0.0000 C   0  0  0  0  0  0  0  0  0  0  0  0
   14.3954  -11.0874    0.0000 C   0  0  1  0  0  0  0  0  0  0  0  0
   15.1099  -11.4999    0.0000 C   0  0  0  0  0  0  0  0  0  0  0  0
   15.8243  -11.0874    0.0000 C   0  0  2  0  0  0  0  0  0  0  0  0
   15.8243  -10.2624    0.0000 C   0  0  2  0  0  0  0  0  0  0  0  0
   15.1099   -9.8499    0.0000 C   0  0  1  0  0  0  0  0  0  0  0  0
   16.5388  -11.4999    0.0000 C   0  0  0  0  0  0  0  0  0  0  0  0
   17.2533  -11.0874    0.0000 C   0  0  0  0  0  0  0  0  0  0  0  0
   17.2533  -10.2624    0.0000 C   0  0  2  0  0  0  0  0  0  0  0  0
   16.5388   -9.8499    0.0000 C   0  0  2  0  0  0  0  0  0  0  0  0
   17.9677   -9.8499    0.0000 C   0  0  2  0  0  0  0  0  0  0  0  0
   17.9677   -9.0249    0.0000 C   0  0  2  0  0  0  0  0  0  0  0  0
   17.2533   -8.6124    0.0000 C   0  0  0  0  0  0  0  0  0  0  0  0
   16.5388   -9.0249    0.0000 C   0  0  2  0  0  0  0  0  0  0  0  0
   18.7524  -10.1048    0.0000 C   0  0  0  0  0  0  0  0  0  0  0  0
   19.2373   -9.4374    0.0000 C   0  0  1  0  0  0  0  0  0  0  0  0
   18.7524   -8.7700    0.0000 C   0  0  2  0  0  0  0  0  0  0  0  0
   19.0073   -7.9853    0.0000 C   0  0  0  0  0  0  0  0  0  0  0  0
   19.8143   -7.8138    0.0000 C   0  0  0  0  0  0  0  0  0  0  0  0
   18.4553   -7.3722    0.0000 C   0  0  0  0  0  0  0  0  0  0  0  0
   20.0692   -7.0292    0.0000 C   0  0  0  0  0  0  0  0  0  0  0  0
   18.7102   -6.5876    0.0000 O   0  0  0  0  0  0  0  0  0  0  0  0
   19.5172   -6.4161    0.0000 C   0  0  0  0  0  0  0  0  0  0  0  0
   19.7721   -5.6315    0.0000 O   0  0  0  0  0  0  0  0  0  0  0  0
   13.6809  -11.4999    0.0000 O   0  0  0  0  0  0  0  0  0  0  0  0
   15.8243   -9.4374    0.0000 C   0  0  0  0  0  0  0  0  0  0  0  0
   15.8243  -11.9124    0.0000 H   0  0  0  0  0  0  0  0  0  0  0  0
   18.0540   -8.2044    0.0000 C   0  0  0  0  0  0  0  0  0  0  0  0
   20.0623   -9.4374    0.0000 O   0  0  0  0  0  0  0  0  0  0  0  0
   18.0540  -10.6704    0.0000 O   0  0  0  0  0  0  0  0  0  0  0  0
   15.8243   -8.6124    0.0000 H   0  0  0  0  0  0  0  0  0  0  0  0
   15.1099   -9.0249    0.0000 H   0  0  0  0  0  0  0  0  0  0  0  0
   20.4748  -10.1519    0.0000 C   0  0  0  0  0  0  0  0  0  0  0  0
   21.2998  -10.1519    0.0000 C   0  0  0  0  0  0  0  0  0  0  0  0
   20.0623  -10.8663    0.0000 O   0  0  0  0  0  0  0  0  0  0  0  0
   12.9664  -11.0874    0.0000 C   0  0  0  0  0  0  0  0  0  0  0  0
   12.2520  -11.4999    0.0000 C   0  0  0  0  0  0  0  0  0  0  0  0
   12.9664  -10.2624    0.0000 O   0  0  0  0  0  0  0  0  0  0  0  0
    6.5412   -7.3764    0.0000 N   0  0  0  0  0  0  0  0  0  0  0  0
    7.9702   -7.3764    0.0000 N   0  0  0  0  0  0  0  0  0  0  0  0
    7.2557   -7.7889    0.0000 C   0  0  0  0  0  0  0  0  0  0  0  0
    7.2557   -8.6139    0.0000 N   0  0  0  0  0  0  0  0  0  0  0  0
    7.9702   -9.0264    0.0000 C   0  0  0  0  0  0  0  0  0  0  0  0
    7.9702   -9.8514    0.0000 C   0  0  0  0  0  0  0  0  0  0  0  0
    8.6847  -10.2639    0.0000 C   0  0  0  0  0  0  0  0  0  0  0  0
    7.9702  -12.3264    0.0000 O   0  0  0  0  0  0  0  0  0  0  0  0
    7.2557  -11.0889    0.0000 O   0  0  0  0  0  0  0  0  0  0  0  0
    7.9702  -11.5014    0.0000 C   0  0  0  0  0  0  0  0  0  0  0  0
    8.6847  -11.0889    0.0000 C   0  0  1  0  0  0  0  0  0  0  0  0
   10.1136  -10.2639    0.0000 O   0  0  0  0  0  0  0  0  0  0  0  0
    9.3991  -11.5014    0.0000 N   0  0  0  0  0  0  0  0  0  0  0  0
   10.1136  -11.0889    0.0000 C   0  0  0  0  0  0  0  0  0  0  0  0
   10.8281  -11.5014    0.0000 C   0  0  0  0  0  0  0  0  0  0  0  0
   11.5375  -11.0874    0.0000 C   0  0  0  0  0  0  0  0  0  0  0  0
   16.5388  -10.6749    0.0000 H   0  0  0  0  0  0  0  0  0  0  0  0
   17.2533   -9.4374    0.0000 H   0  0  0  0  0  0  0  0  0  0  0  0
  1  2  1  0  0  0  0
  2  3  1  0  0  0  0
  3  4  1  0  0  0  0
  4  5  1  0  0  0  0
  5  6  1  0  0  0  0
  6  1  1  0  0  0  0
  4  7  1  0  0  0  0
  7  8  1  0  0  0  0
  8  9  1  0  0  0  0
  9 10  1  0  0  0  0
 10  5  1  0  0  0  0
  9 11  1  0  0  0  0
 11 12  1  0  0  0  0
 12 13  1  0  0  0  0
 13 14  1  0  0  0  0
 14 10  1  0  0  0  0
 11 15  1  0  0  0  0
 15 16  1  0  0  0  0
 16 17  1  0  0  0  0
 17 12  1  0  0  0  0
 17 18  1  1  0  0  0
 18 19  1  0  0  0  0
 18 20  2  0  0  0  0
 19 21  2  0  0  0  0
 20 22  1  0  0  0  0
 21 23  1  0  0  0  0
 22 23  1  0  0  0  0
 23 24  2  0  0  0  0
  2 25  1  1  0  0  0
  5 26  1  1  0  0  0
  4 27  1  1  0  0  0
 12 28  1  1  0  0  0
 16 29  1  1  0  0  0
 11 30  1  1  0  0  0
 14 31  1  6  0  0  0
  6 32  1  1  0  0  0
 29 33  1  0  0  0  0
 33 34  1  0  0  0  0
 33 35  2  0  0  0  0
 25 36  1  0  0  0  0
 36 37  1  0  0  0  0
 36 38  2  0  0  0  0
 41 39  1  0  0  0  0
 41 40  1  0  0  0  0
 42 41  2  0  0  0  0
 43 42  1  0  0  0  0
 44 43  1  0  0  0  0
 45 44  1  0  0  0  0
 49 45  1  0  0  0  0
 48 46  2  0  0  0  0
 48 47  1  0  0  0  0
 49 48  1  0  0  0  0
 49 51  1  6  0  0  0
 52 50  2  0  0  0  0
 52 51  1  0  0  0  0
 53 52  1  0  0  0  0
 37 54  1  0  0  0  0
 53 54  1  0  0  0  0
 10 55  1  6  0  0  0
  9 56  1  1  0  0  0
M  END
>  <cdx:fragmentId>
5

$$$$
