780.cdx
  Mrv1902 05222410232D          

 12 12  0  0  0  0            999 V2000
    7.3899   -5.0055    0.0000 O   0  0  0  0  0  0  0  0  0  0  0  0
    6.6872   -7.0721    0.0000 C   0  0  0  0  0  0  0  0  0  0  0  0
    5.9751   -7.4886    0.0000 C   0  0  0  0  0  0  0  0  0  0  0  0
    5.9799   -8.3136    0.0000 C   0  0  0  0  0  0  0  0  0  0  0  0
    6.6967   -8.7220    0.0000 C   0  0  0  0  0  0  0  0  0  0  0  0
    7.4088   -8.3054    0.0000 C   0  0  0  0  0  0  0  0  0  0  0  0
    7.4041   -7.4805    0.0000 C   0  0  0  0  0  0  0  0  0  0  0  0
    8.1256   -8.7138    0.0000 O   0  0  0  0  0  0  0  0  0  0  0  0
    5.2583   -7.0802    0.0000 O   0  0  0  0  0  0  0  0  0  0  0  0
    8.1114   -6.2389    0.0000 O   0  0  0  0  0  0  0  0  0  0  0  0
    6.6825   -6.2471    0.0000 C   0  0  0  0  0  0  0  0  0  0  0  0
    7.3946   -5.8305    0.0000 C   0  0  0  0  0  0  0  0  0  0  0  0
 12  1  1  0  0  0  0
 12 10  2  0  0  0  0
 12 11  1  0  0  0  0
  2  3  1  0  0  0  0
  3  4  2  0  0  0  0
  4  5  1  0  0  0  0
  5  6  2  0  0  0  0
  6  7  1  0  0  0  0
  2  7  2  0  0  0  0
  6  8  1  0  0  0  0
  3  9  1  0  0  0  0
 11  2  1  0  0  0  0
M  END
>  <cdx:fragmentId>
54

$$$$
