7800.cdx
  Mrv1902 05222410182D          

 16 15  0  0  0  0            999 V2000
    1.0377   -2.9571    0.0000 C   0  0  0  0  0  0  0  0  0  0  0  0
    1.7522   -2.5446    0.0000 C   0  0  0  0  0  0  0  0  0  0  0  0
    2.4666   -2.9571    0.0000 O   0  0  0  0  0  0  0  0  0  0  0  0
    3.1811   -1.7196    0.0000 O   0  0  0  0  0  0  0  0  0  0  0  0
   11.0403   -2.9571    0.0000 C   0  0  0  0  0  0  0  0  0  0  0  0
   10.3258   -2.5446    0.0000 C   0  0  0  0  0  0  0  0  0  0  0  0
    9.6114   -2.9571    0.0000 C   0  0  0  0  0  0  0  0  0  0  0  0
    8.8969   -2.5446    0.0000 C   0  0  0  0  0  0  0  0  0  0  0  0
    8.1824   -2.9571    0.0000 C   0  0  0  0  0  0  0  0  0  0  0  0
    7.4679   -2.5446    0.0000 C   0  0  0  0  0  0  0  0  0  0  0  0
    6.7535   -2.9571    0.0000 C   0  0  0  0  0  0  0  0  0  0  0  0
    6.0390   -2.5446    0.0000 C   0  0  0  0  0  0  0  0  0  0  0  0
    5.3245   -2.9571    0.0000 C   0  0  0  0  0  0  0  0  0  0  0  0
    4.6101   -2.5446    0.0000 C   0  0  0  0  0  0  0  0  0  0  0  0
    3.8956   -2.9571    0.0000 C   0  0  0  0  0  0  0  0  0  0  0  0
    3.1811   -2.5446    0.0000 C   0  0  0  0  0  0  0  0  0  0  0  0
  3  2  1  0  0  0  0
  2  1  1  0  0  0  0
 16  3  1  0  0  0  0
 16  4  2  0  0  0  0
  6  5  1  0  0  0  0
  7  6  1  0  0  0  0
  8  7  1  0  0  0  0
  9  8  1  0  0  0  0
 10  9  1  0  0  0  0
 11 10  1  0  0  0  0
 12 11  1  0  0  0  0
 13 12  1  0  0  0  0
 14 13  1  0  0  0  0
 15 14  1  0  0  0  0
 16 15  1  0  0  0  0
M  END
>  <cdx:groupId>
49

>  <cdx:fragmentId>
5

$$$$
