7809.cdx
  Mrv1902 05222410262D          

  8  8  0  0  0  0            999 V2000
    2.5814   -1.5366    0.0000 C   0  0  0  0  0  0  0  0  0  0  0  0
    2.5814   -2.3616    0.0000 C   0  0  0  0  0  0  0  0  0  0  0  0
    3.2959   -2.7741    0.0000 C   0  0  0  0  0  0  0  0  0  0  0  0
    4.0103   -2.3616    0.0000 C   0  0  0  0  0  0  0  0  0  0  0  0
    4.0103   -1.5366    0.0000 C   0  0  0  0  0  0  0  0  0  0  0  0
    3.2959   -1.1241    0.0000 C   0  0  0  0  0  0  0  0  0  0  0  0
    4.7248   -1.1241    0.0000 C   0  0  0  0  0  0  0  0  0  0  0  0
    1.8670   -2.7741    0.0000 C   0  0  0  0  0  0  0  0  0  0  0  0
  1  2  2  0  0  0  0
  2  3  1  0  0  0  0
  3  4  2  0  0  0  0
  4  5  1  0  0  0  0
  5  6  2  0  0  0  0
  6  1  1  0  0  0  0
  5  7  1  0  0  0  0
  2  8  1  0  0  0  0
M  END
>  <cdx:fragmentId>
3

$$$$
