78127.cdx
  Mrv1902 05222410242D          

  9  9  0  0  0  0            999 V2000
    6.2205   -4.8864    0.0000 O   0  0  0  0  0  0  0  0  0  0  0  0
    6.9742   -5.2219    0.0000 C   0  0  0  0  0  0  0  0  0  0  0  0
    6.8879   -6.0424    0.0000 C   0  0  0  0  0  0  0  0  0  0  0  0
    6.0810   -6.2139    0.0000 C   0  0  0  0  0  0  0  0  0  0  0  0
    5.6685   -5.4995    0.0000 C   0  0  0  0  0  0  0  0  0  0  0  0
    7.6886   -4.8094    0.0000 C   0  0  0  0  0  0  0  0  0  0  0  0
    7.6886   -3.9844    0.0000 O   0  0  0  0  0  0  0  0  0  0  0  0
    8.4031   -5.2219    0.0000 O   0  0  0  0  0  0  0  0  0  0  0  0
    7.5010   -6.5944    0.0000 C   0  0  0  0  0  0  0  0  0  0  0  0
  1  2  1  0  0  0  0
  2  3  2  0  0  0  0
  3  4  1  0  0  0  0
  4  5  2  0  0  0  0
  1  5  1  0  0  0  0
  6  7  2  0  0  0  0
  6  8  1  0  0  0  0
  2  6  1  0  0  0  0
  3  9  1  0  0  0  0
M  END
>  <cdx:fragmentId>
5

$$$$
