781459.cdx
  Mrv1902 05222410182D          

 22 21  0  0  0  0            999 V2000
    3.6575   -9.3775    0.0000 C   0  0  0  0  0  0  0  0  0  0  0  0
    4.3720   -8.9650    0.0000 C   0  0  0  0  0  0  0  0  0  0  0  0
    5.0864   -9.3775    0.0000 C   0  0  0  0  0  0  0  0  0  0  0  0
    5.8009   -8.9650    0.0000 C   0  0  0  0  0  0  0  0  0  0  0  0
    6.5154   -9.3775    0.0000 C   0  0  0  0  0  0  0  0  0  0  0  0
    7.2299   -8.9650    0.0000 C   0  0  0  0  0  0  0  0  0  0  0  0
    7.9443   -9.3775    0.0000 C   0  0  0  0  0  0  0  0  0  0  0  0
    8.6588   -8.9650    0.0000 C   0  0  0  0  0  0  0  0  0  0  0  0
    9.3733   -9.3775    0.0000 C   0  0  0  0  0  0  0  0  0  0  0  0
   10.0877   -8.9650    0.0000 C   0  0  0  0  0  0  0  0  0  0  0  0
   10.8022   -9.3775    0.0000 C   0  0  0  0  0  0  0  0  0  0  0  0
   11.5167   -8.9650    0.0000 C   0  0  0  0  0  0  0  0  0  0  0  0
   12.2312   -9.3775    0.0000 C   0  0  0  0  0  0  0  0  0  0  0  0
   12.9456   -8.9650    0.0000 C   0  0  0  0  0  0  0  0  0  0  0  0
   13.6601   -9.3775    0.0000 C   0  0  0  0  0  0  0  0  0  0  0  0
    2.9430   -8.9650    0.0000 C   0  0  0  0  0  0  0  0  0  0  0  0
    2.2286   -9.3775    0.0000 C   0  0  0  0  0  0  0  0  0  0  0  0
    1.5141   -8.9650    0.0000 C   0  0  0  0  0  0  0  0  0  0  0  0
    0.7996   -9.3775    0.0000 O   0  0  0  0  0  0  0  0  0  0  0  0
    1.5141   -8.1400    0.0000 O   0  0  0  0  0  0  0  0  0  0  0  0
    2.2286  -10.2025    0.0000 O   0  0  0  0  0  0  0  0  0  0  0  0
    2.9430   -8.1400    0.0000 O   0  0  0  0  0  0  0  0  0  0  0  0
  1  2  2  0  0  0  0
  2  3  1  0  0  0  0
  3  4  1  0  0  0  0
  4  5  1  0  0  0  0
  5  6  1  0  0  0  0
  6  7  1  0  0  0  0
  7  8  1  0  0  0  0
  8  9  1  0  0  0  0
  9 10  1  0  0  0  0
 10 11  1  0  0  0  0
 11 12  1  0  0  0  0
 12 13  1  0  0  0  0
 13 14  1  0  0  0  0
 14 15  1  0  0  0  0
  1 16  1  0  0  0  0
 16 17  2  0  0  0  0
 17 18  1  0  0  0  0
 18 19  1  0  0  0  0
 18 20  2  0  0  0  0
 17 21  1  0  0  0  0
 16 22  1  0  0  0  0
M  END
>  <cdx:fragmentId>
199155

$$$$
