14078177.cdx
  Mrv1902 05222410202D          

 26 28  0  0  0  0            999 V2000
    8.3228  -17.0532    0.0000 C   0  0  0  0  0  0  0  0  0  0  0  0
    9.0372  -16.6407    0.0000 C   0  0  2  0  0  0  0  0  0  0  0  0
    9.0372  -15.8157    0.0000 C   0  0  2  0  0  0  0  0  0  0  0  0
    8.3228  -15.4032    0.0000 C   0  0  1  0  0  0  0  0  0  0  0  0
    7.6083  -15.8157    0.0000 C   0  0  0  0  0  0  0  0  0  0  0  0
    6.8938  -15.4032    0.0000 C   0  0  0  0  0  0  0  0  0  0  0  0
    6.1794  -15.8157    0.0000 C   0  0  0  0  0  0  0  0  0  0  0  0
    6.1794  -16.6407    0.0000 C   0  0  0  0  0  0  0  0  0  0  0  0
    6.8938  -17.0532    0.0000 C   0  0  0  0  0  0  0  0  0  0  0  0
    7.6083  -16.6407    0.0000 C   0  0  0  0  0  0  0  0  0  0  0  0
    8.3228  -17.8782    0.0000 O   0  0  0  0  0  0  0  0  0  0  0  0
    9.7517  -15.4032    0.0000 C   0  0  0  0  0  0  0  0  0  0  0  0
    9.7517  -17.0532    0.0000 C   0  0  0  0  0  0  0  0  0  0  0  0
    5.4649  -15.4032    0.0000 O   0  0  0  0  0  0  0  0  0  0  0  0
    4.7504  -15.8157    0.0000 C   0  0  0  0  0  0  0  0  0  0  0  0
    5.4649  -17.0532    0.0000 O   0  0  0  0  0  0  0  0  0  0  0  0
    8.3228  -14.5782    0.0000 C   0  0  0  0  0  0  0  0  0  0  0  0
    7.6083  -14.1657    0.0000 C   0  0  0  0  0  0  0  0  0  0  0  0
    7.6083  -13.3407    0.0000 C   0  0  0  0  0  0  0  0  0  0  0  0
    8.3228  -12.9282    0.0000 C   0  0  0  0  0  0  0  0  0  0  0  0
    9.0372  -13.3407    0.0000 C   0  0  0  0  0  0  0  0  0  0  0  0
    9.0372  -14.1657    0.0000 C   0  0  0  0  0  0  0  0  0  0  0  0
    8.3228  -12.1032    0.0000 O   0  0  0  0  0  0  0  0  0  0  0  0
    9.0372  -11.6907    0.0000 C   0  0  0  0  0  0  0  0  0  0  0  0
    6.8938  -12.9282    0.0000 O   0  0  0  0  0  0  0  0  0  0  0  0
    6.1794  -13.3407    0.0000 C   0  0  0  0  0  0  0  0  0  0  0  0
  1  2  1  0  0  0  0
  2  3  1  0  0  0  0
  3  4  1  0  0  0  0
  4  5  1  0  0  0  0
  5  6  1  0  0  0  0
  6  7  2  0  0  0  0
  7  8  1  0  0  0  0
  8  9  2  0  0  0  0
  9 10  1  0  0  0  0
  1 10  1  0  0  0  0
  5 10  2  0  0  0  0
  1 11  2  0  0  0  0
  3 12  1  6  0  0  0
  2 13  1  6  0  0  0
 14 15  1  0  0  0  0
  7 14  1  0  0  0  0
  8 16  1  0  0  0  0
 17 18  1  0  0  0  0
 18 19  2  0  0  0  0
 19 20  1  0  0  0  0
 20 21  2  0  0  0  0
 21 22  1  0  0  0  0
 17 22  2  0  0  0  0
 23 24  1  0  0  0  0
 20 23  1  0  0  0  0
 25 26  1  0  0  0  0
 19 25  1  0  0  0  0
  4 17  1  1  0  0  0
M  END
>  <cdx:groupId>
100860

>  <cdx:fragmentId>
100783

$$$$
