7822.cdx
  Mrv1902 05222410262D          

  9  8  0  0  0  0            999 V2000
    6.6355   -3.8497    0.0000 C   0  0  0  0  0  0  0  0  0  0  0  0
    5.9211   -4.2622    0.0000 C   0  0  0  0  0  0  0  0  0  0  0  0
    5.2066   -3.8497    0.0000 C   0  0  0  0  0  0  0  0  0  0  0  0
    4.4921   -4.2622    0.0000 C   0  0  0  0  0  0  0  0  0  0  0  0
    3.7777   -3.8497    0.0000 C   0  0  0  0  0  0  0  0  0  0  0  0
    3.0632   -4.2622    0.0000 C   0  0  0  0  0  0  0  0  0  0  0  0
    2.3487   -3.8497    0.0000 C   0  0  0  0  0  0  0  0  0  0  0  0
    5.2066   -3.0247    0.0000 O   0  0  0  0  0  0  0  0  0  0  0  0
    3.7777   -3.0247    0.0000 C   0  0  0  0  0  0  0  0  0  0  0  0
  1  2  1  0  0  0  0
  2  3  1  0  0  0  0
  3  4  1  0  0  0  0
  4  5  1  0  0  0  0
  5  6  1  0  0  0  0
  6  7  1  0  0  0  0
  3  8  2  0  0  0  0
  5  9  1  0  0  0  0
M  END
>  <cdx:groupId>
28

>  <cdx:fragmentId>
5

$$$$
