7823.cdx
  Mrv1902 05222410272D          

 51 55  0  0  0  0            999 V2000
   10.4485   -8.7213    0.0000 H   0  0  0  0  0  0  0  0  0  0  0  0
    4.7328   -2.9463    0.0000 C   0  0  1  0  0  0  0  0  0  0  0  0
    4.0183   -3.3588    0.0000 C   0  0  1  0  0  0  0  0  0  0  0  0
    4.0183   -4.1838    0.0000 C   0  0  2  0  0  0  0  0  0  0  0  0
    4.7327   -4.5963    0.0000 C   0  0  1  0  0  0  0  0  0  0  0  0
   10.4485   -6.2463    0.0000 H   0  0  0  0  0  0  0  0  0  0  0  0
    5.4472   -4.1838    0.0000 O   0  0  0  0  0  0  0  0  0  0  0  0
    5.4472   -3.3588    0.0000 C   0  0  2  0  0  0  0  0  0  0  0  0
   11.4467   -6.0195    0.0000 O   0  0  0  0  0  0  0  0  0  0  0  0
   11.2331   -8.1512    0.0000 C   0  0  0  0  0  0  0  0  0  0  0  0
   11.7181   -7.4838    0.0000 O   0  0  0  0  0  0  0  0  0  0  0  0
   11.2331   -6.8163    0.0000 C   0  0  0  0  0  0  0  0  0  0  0  0
    3.3038   -4.5963    0.0000 O   0  0  0  0  0  0  0  0  0  0  0  0
    4.7327   -5.4213    0.0000 O   0  0  0  0  0  0  0  0  0  0  0  0
    9.7340   -8.3088    0.0000 C   0  0  0  0  0  0  0  0  0  0  0  0
    9.7340   -9.1338    0.0000 C   0  0  0  0  0  0  0  0  0  0  0  0
   10.4485   -9.5463    0.0000 C   0  0  0  0  0  0  0  0  0  0  0  0
    9.0196   -9.5463    0.0000 C   0  0  0  0  0  0  0  0  0  0  0  0
    9.0196  -10.3713    0.0000 C   0  0  0  0  0  0  0  0  0  0  0  0
    9.7340  -10.7838    0.0000 C   0  0  0  0  0  0  0  0  0  0  0  0
   10.4485  -10.3713    0.0000 C   0  0  0  0  0  0  0  0  0  0  0  0
    9.0196  -12.0213    0.0000 C   0  0  0  0  0  0  0  0  0  0  0  0
    9.7340  -11.6088    0.0000 O   0  0  0  0  0  0  0  0  0  0  0  0
   10.4485   -7.8963    0.0000 C   0  0  2  0  0  0  0  0  0  0  0  0
    4.0183   -6.6588    0.0000 O   0  0  0  0  0  0  0  0  0  0  0  0
    4.7327   -7.0713    0.0000 C   0  0  2  0  0  0  0  0  0  0  0  0
   10.4485   -7.0713    0.0000 C   0  0  1  0  0  0  0  0  0  0  0  0
    5.4472   -6.6588    0.0000 C   0  0  1  0  0  0  0  0  0  0  0  0
    5.4472   -5.8338    0.0000 C   0  0  0  0  0  0  0  0  0  0  0  0
    4.7327   -7.8963    0.0000 C   0  0  1  0  0  0  0  0  0  0  0  0
    5.4472   -8.3088    0.0000 C   0  0  2  0  0  0  0  0  0  0  0  0
    6.1617   -7.8963    0.0000 C   0  0  1  0  0  0  0  0  0  0  0  0
    6.1617   -7.0713    0.0000 O   0  0  0  0  0  0  0  0  0  0  0  0
    6.8762   -8.3088    0.0000 O   0  0  0  0  0  0  0  0  0  0  0  0
    7.5906   -7.8963    0.0000 C   0  0  0  0  0  0  0  0  0  0  0  0
    7.5906   -7.0713    0.0000 C   0  0  0  0  0  0  0  0  0  0  0  0
    8.3051   -8.3088    0.0000 C   0  0  0  0  0  0  0  0  0  0  0  0
    9.0196   -7.8963    0.0000 C   0  0  0  0  0  0  0  0  0  0  0  0
    9.0196   -7.0713    0.0000 C   0  0  0  0  0  0  0  0  0  0  0  0
    8.3051   -6.6588    0.0000 C   0  0  0  0  0  0  0  0  0  0  0  0
    9.7340   -6.6588    0.0000 C   0  0  0  0  0  0  0  0  0  0  0  0
    6.1617   -2.9463    0.0000 C   0  0  0  0  0  0  0  0  0  0  0  0
    6.1617   -2.1213    0.0000 O   0  0  0  0  0  0  0  0  0  0  0  0
    3.3038   -2.9463    0.0000 O   0  0  0  0  0  0  0  0  0  0  0  0
    4.0183   -8.3088    0.0000 O   0  0  0  0  0  0  0  0  0  0  0  0
    4.7328   -2.1213    0.0000 O   0  0  0  0  0  0  0  0  0  0  0  0
    5.4472   -9.1338    0.0000 O   0  0  0  0  0  0  0  0  0  0  0  0
    6.8762   -6.6588    0.0000 O   0  0  0  0  0  0  0  0  0  0  0  0
    6.8762   -5.8338    0.0000 C   0  0  0  0  0  0  0  0  0  0  0  0
   11.1630  -10.7838    0.0000 O   0  0  0  0  0  0  0  0  0  0  0  0
   11.8775  -10.3713    0.0000 C   0  0  0  0  0  0  0  0  0  0  0  0
 24  1  1  1  0  0  0
 27  6  1  6  0  0  0
  2  3  1  0  0  0  0
  3  4  1  0  0  0  0
 12  9  2  0  0  0  0
 10 24  1  0  0  0  0
 11 10  1  0  0  0  0
 12 11  1  0  0  0  0
 27 12  1  0  0  0  0
  4  5  1  0  0  0  0
  5  7  1  0  0  0  0
  7  8  1  0  0  0  0
  8  2  1  0  0  0  0
  4 13  1  6  0  0  0
  5 14  1  1  0  0  0
 15 16  1  0  0  0  0
 16 17  1  0  0  0  0
 16 18  2  0  0  0  0
 18 19  1  0  0  0  0
 19 20  2  0  0  0  0
 20 21  1  0  0  0  0
 21 17  2  0  0  0  0
 24 15  1  6  0  0  0
 27 24  1  0  0  0  0
 22 23  1  0  0  0  0
 23 20  1  0  0  0  0
 27 41  1  1  0  0  0
 26 25  1  6  0  0  0
 26 28  1  0  0  0  0
 28 29  1  1  0  0  0
 29 14  1  0  0  0  0
 26 30  1  0  0  0  0
 30 31  1  0  0  0  0
 31 32  1  0  0  0  0
 32 33  1  0  0  0  0
 33 28  1  0  0  0  0
 32 34  1  1  0  0  0
 34 35  1  0  0  0  0
 35 36  2  0  0  0  0
 35 37  1  0  0  0  0
 37 38  2  0  0  0  0
 38 39  1  0  0  0  0
 39 40  2  0  0  0  0
 40 36  1  0  0  0  0
 41 39  1  0  0  0  0
  8 42  1  1  0  0  0
 42 43  1  0  0  0  0
  3 44  1  1  0  0  0
 30 45  1  1  0  0  0
  2 46  1  6  0  0  0
 31 47  1  6  0  0  0
 36 48  1  0  0  0  0
 48 49  1  0  0  0  0
 21 50  1  0  0  0  0
 50 51  1  0  0  0  0
M  END
>  <cdx:fragmentId>
5

$$$$
