16078248.cdx
  Mrv1902 05222410222D          

 40 45  0  0  0  0            999 V2000
    9.8875  -13.3056    0.0000 C   0  0  0  0  0  0  0  0  0  0  0  0
   10.3724  -13.9731    0.0000 C   0  0  1  0  0  0  0  0  0  0  0  0
    9.6580  -13.5606    0.0000 O   0  0  0  0  0  0  0  0  0  0  0  0
    8.9435  -13.9731    0.0000 C   0  0  0  0  0  0  0  0  0  0  0  0
    8.2290  -13.5606    0.0000 C   0  0  0  0  0  0  0  0  0  0  0  0
    7.5146  -13.9731    0.0000 C   0  0  0  0  0  0  0  0  0  0  0  0
    6.8001  -13.5606    0.0000 O   0  0  0  0  0  0  0  0  0  0  0  0
    6.0856  -13.9731    0.0000 C   0  0  0  0  0  0  0  0  0  0  0  0
    6.0856  -14.7981    0.0000 C   0  0  0  0  0  0  0  0  0  0  0  0
    6.8001  -15.2106    0.0000 C   0  0  0  0  0  0  0  0  0  0  0  0
    7.5146  -14.7981    0.0000 C   0  0  0  0  0  0  0  0  0  0  0  0
    8.2290  -15.2106    0.0000 C   0  0  0  0  0  0  0  0  0  0  0  0
    8.9435  -14.7981    0.0000 C   0  0  0  0  0  0  0  0  0  0  0  0
    9.6580  -15.2106    0.0000 C   0  0  0  0  0  0  0  0  0  0  0  0
   10.3724  -14.7981    0.0000 C   0  0  0  0  0  0  0  0  0  0  0  0
   11.0869  -15.2106    0.0000 C   0  0  0  0  0  0  0  0  0  0  0  0
   11.8014  -14.7981    0.0000 C   0  0  2  0  0  0  0  0  0  0  0  0
   11.8014  -13.9731    0.0000 C   0  0  0  0  0  0  0  0  0  0  0  0
   11.0869  -13.5606    0.0000 C   0  0  1  0  0  0  0  0  0  0  0  0
   11.0570  -12.7361    0.0000 O   0  0  0  0  0  0  0  0  0  0  0  0
   10.2500  -12.5645    0.0000 C   0  0  0  0  0  0  0  0  0  0  0  0
   10.1287  -14.1415    0.0000 C   0  0  0  0  0  0  0  0  0  0  0  0
    9.6580  -16.0356    0.0000 O   0  0  0  0  0  0  0  0  0  0  0  0
   12.5159  -13.5606    0.0000 O   0  0  0  0  0  0  0  0  0  0  0  0
   11.8014  -13.1481    0.0000 C   0  0  0  0  0  0  0  0  0  0  0  0
   11.8014  -12.3231    0.0000 C   0  0  0  0  0  0  0  0  0  0  0  0
   12.5159  -11.9106    0.0000 C   0  0  0  0  0  0  0  0  0  0  0  0
   13.2303  -12.3231    0.0000 C   0  0  0  0  0  0  0  0  0  0  0  0
   12.5159  -11.0856    0.0000 C   0  0  0  0  0  0  0  0  0  0  0  0
    8.2290  -12.7356    0.0000 C   0  0  0  0  0  0  0  0  0  0  0  0
    7.5146  -12.3231    0.0000 C   0  0  0  0  0  0  0  0  0  0  0  0
    7.5146  -11.4981    0.0000 C   0  0  0  0  0  0  0  0  0  0  0  0
    8.2290  -11.0856    0.0000 C   0  0  0  0  0  0  0  0  0  0  0  0
    6.8001  -11.0856    0.0000 C   0  0  0  0  0  0  0  0  0  0  0  0
    9.5355  -12.1520    0.0000 C   0  0  0  0  0  0  0  0  0  0  0  0
   10.2500  -11.7395    0.0000 C   0  0  0  0  0  0  0  0  0  0  0  0
    5.2606  -13.9731    0.0000 C   0  0  0  0  0  0  0  0  0  0  0  0
    5.6731  -13.2586    0.0000 C   0  0  0  0  0  0  0  0  0  0  0  0
    8.2290  -16.0356    0.0000 O   0  0  0  0  0  0  0  0  0  0  0  0
   12.5159  -15.2106    0.0000 H   0  0  0  0  0  0  0  0  0  0  0  0
  1  2  1  0  0  0  0
  2  3  1  1  0  0  0
  3  4  1  0  0  0  0
  4  5  1  0  0  0  0
  5  6  2  0  0  0  0
  6  7  1  0  0  0  0
  7  8  1  0  0  0  0
  8  9  1  0  0  0  0
  9 10  2  0  0  0  0
 10 11  1  0  0  0  0
 11 12  2  0  0  0  0
 12 13  1  0  0  0  0
 13 14  1  0  0  0  0
 14 15  1  0  0  0  0
 15 16  2  0  0  0  0
 16 17  1  0  0  0  0
 17 18  1  0  0  0  0
 18 19  1  0  0  0  0
 19 20  1  0  0  0  0
 20 21  1  0  0  0  0
  1 21  1  0  0  0  0
  1 22  1  0  0  0  0
 17 22  1  6  0  0  0
  2 15  1  0  0  0  0
  2 19  1  0  0  0  0
  4 13  2  0  0  0  0
  6 11  1  0  0  0  0
 14 23  2  0  0  0  0
 18 24  2  0  0  0  0
 25 26  1  0  0  0  0
 26 27  2  0  0  0  0
 27 28  1  0  0  0  0
 27 29  1  0  0  0  0
 19 25  1  1  0  0  0
 30 31  1  0  0  0  0
 31 32  2  0  0  0  0
 32 33  1  0  0  0  0
 32 34  1  0  0  0  0
  5 30  1  0  0  0  0
 21 35  1  0  0  0  0
 21 36  1  0  0  0  0
  8 37  1  0  0  0  0
  8 38  1  0  0  0  0
 12 39  1  0  0  0  0
 17 40  1  0  0  0  0
M  END
>  <cdx:fragmentId>
12584

$$$$
