7824.cdx
  Mrv1902 05222410282D          

  9  8  0  0  0  0            999 V2000
    5.6670   -3.9883    0.0000 C   0  0  0  0  0  0  0  0  0  0  0  0
    4.9525   -4.4008    0.0000 C   0  0  0  0  0  0  0  0  0  0  0  0
    4.2380   -3.9883    0.0000 C   0  0  0  0  0  0  0  0  0  0  0  0
    3.5235   -4.4008    0.0000 C   0  0  0  0  0  0  0  0  0  0  0  0
    2.8091   -3.9883    0.0000 C   0  0  0  0  0  0  0  0  0  0  0  0
    2.0946   -4.4008    0.0000 C   0  0  0  0  0  0  0  0  0  0  0  0
    5.6670   -3.1633    0.0000 O   0  0  0  0  0  0  0  0  0  0  0  0
    6.3814   -4.4008    0.0000 O   0  0  0  0  0  0  0  0  0  0  0  0
    7.0959   -3.9883    0.0000 C   0  0  0  0  0  0  0  0  0  0  0  0
  1  2  1  0  0  0  0
  2  3  1  0  0  0  0
  3  4  1  0  0  0  0
  4  5  1  0  0  0  0
  5  6  1  0  0  0  0
  1  7  2  0  0  0  0
  1  8  1  0  0  0  0
  8  9  1  0  0  0  0
M  END
>  <cdx:groupId>
28

>  <cdx:fragmentId>
5

$$$$
