16078249.cdx
  Mrv1902 05222410222D          

 41 46  0  0  0  0            999 V2000
   12.4546  -11.3301    0.0000 C   0  0  0  0  0  0  0  0  0  0  0  0
   12.4546  -12.1551    0.0000 C   0  0  0  0  0  0  0  0  0  0  0  0
   11.7401  -12.5676    0.0000 C   0  0  0  0  0  0  0  0  0  0  0  0
   11.7401  -13.3926    0.0000 C   0  0  0  0  0  0  0  0  0  0  0  0
   13.1691  -10.9176    0.0000 O   0  0  0  0  0  0  0  0  0  0  0  0
   13.1691  -12.5676    0.0000 C   0  0  0  0  0  0  0  0  0  0  0  0
    9.8263  -13.5502    0.0000 C   0  0  0  0  0  0  0  0  0  0  0  0
   10.3112  -14.2176    0.0000 C   0  0  1  0  0  0  0  0  0  0  0  0
    9.5967  -13.8051    0.0000 O   0  0  0  0  0  0  0  0  0  0  0  0
    8.8822  -14.2176    0.0000 C   0  0  0  0  0  0  0  0  0  0  0  0
    8.1678  -13.8051    0.0000 C   0  0  0  0  0  0  0  0  0  0  0  0
    7.4533  -14.2176    0.0000 C   0  0  0  0  0  0  0  0  0  0  0  0
    6.7388  -13.8051    0.0000 O   0  0  0  0  0  0  0  0  0  0  0  0
    6.0243  -14.2176    0.0000 C   0  0  0  0  0  0  0  0  0  0  0  0
    6.0243  -15.0426    0.0000 C   0  0  0  0  0  0  0  0  0  0  0  0
    6.7388  -15.4551    0.0000 C   0  0  0  0  0  0  0  0  0  0  0  0
    7.4533  -15.0426    0.0000 C   0  0  0  0  0  0  0  0  0  0  0  0
    8.1678  -15.4551    0.0000 C   0  0  0  0  0  0  0  0  0  0  0  0
    8.8822  -15.0426    0.0000 C   0  0  0  0  0  0  0  0  0  0  0  0
    9.5967  -15.4551    0.0000 C   0  0  0  0  0  0  0  0  0  0  0  0
   10.3112  -15.0426    0.0000 C   0  0  0  0  0  0  0  0  0  0  0  0
   11.0256  -15.4551    0.0000 C   0  0  0  0  0  0  0  0  0  0  0  0
   11.7401  -15.0426    0.0000 C   0  0  2  0  0  0  0  0  0  0  0  0
   11.7401  -14.2176    0.0000 C   0  0  0  0  0  0  0  0  0  0  0  0
   11.0256  -13.8051    0.0000 C   0  0  2  0  0  0  0  0  0  0  0  0
   10.9960  -12.9807    0.0000 O   0  0  0  0  0  0  0  0  0  0  0  0
   10.1890  -12.8091    0.0000 C   0  0  0  0  0  0  0  0  0  0  0  0
   10.6892  -13.5314    0.0000 C   0  0  0  0  0  0  0  0  0  0  0  0
   12.4546  -13.8051    0.0000 O   0  0  0  0  0  0  0  0  0  0  0  0
    9.5967  -16.2801    0.0000 O   0  0  0  0  0  0  0  0  0  0  0  0
    8.1678  -12.9801    0.0000 C   0  0  0  0  0  0  0  0  0  0  0  0
    7.4533  -12.5676    0.0000 C   0  0  0  0  0  0  0  0  0  0  0  0
    7.4533  -11.7426    0.0000 C   0  0  0  0  0  0  0  0  0  0  0  0
    8.1678  -11.3301    0.0000 C   0  0  0  0  0  0  0  0  0  0  0  0
    6.7388  -11.3301    0.0000 C   0  0  0  0  0  0  0  0  0  0  0  0
    9.4745  -12.3966    0.0000 C   0  0  0  0  0  0  0  0  0  0  0  0
   10.1890  -11.9841    0.0000 C   0  0  0  0  0  0  0  0  0  0  0  0
    5.1993  -14.2176    0.0000 C   0  0  0  0  0  0  0  0  0  0  0  0
    5.6118  -13.5032    0.0000 C   0  0  0  0  0  0  0  0  0  0  0  0
    8.1678  -16.2801    0.0000 O   0  0  0  0  0  0  0  0  0  0  0  0
   12.4546  -15.4551    0.0000 H   0  0  0  0  0  0  0  0  0  0  0  0
  1  2  1  0  0  0  0
  2  3  2  0  0  0  0
  3  4  1  0  0  0  0
  1  5  2  0  0  0  0
  2  6  1  0  0  0  0
  7  8  1  0  0  0  0
  8  9  1  1  0  0  0
  9 10  1  0  0  0  0
 10 11  1  0  0  0  0
 11 12  2  0  0  0  0
 12 13  1  0  0  0  0
 13 14  1  0  0  0  0
 14 15  1  0  0  0  0
 15 16  2  0  0  0  0
 16 17  1  0  0  0  0
 17 18  2  0  0  0  0
 18 19  1  0  0  0  0
 19 20  1  0  0  0  0
 20 21  1  0  0  0  0
 21 22  2  0  0  0  0
 22 23  1  0  0  0  0
 23 24  1  0  0  0  0
 24 25  1  0  0  0  0
 25 26  1  0  0  0  0
 26 27  1  0  0  0  0
  7 27  1  0  0  0  0
  7 28  1  0  0  0  0
 23 28  1  6  0  0  0
  8 21  1  0  0  0  0
  8 25  1  0  0  0  0
 10 19  2  0  0  0  0
 12 17  1  0  0  0  0
 24 29  2  0  0  0  0
 20 30  2  0  0  0  0
 31 32  1  0  0  0  0
 32 33  2  0  0  0  0
 33 34  1  0  0  0  0
 33 35  1  0  0  0  0
 11 31  1  0  0  0  0
 27 36  1  0  0  0  0
 27 37  1  0  0  0  0
 14 38  1  0  0  0  0
 14 39  1  0  0  0  0
 18 40  1  0  0  0  0
 25  4  1  1  0  0  0
 23 41  1  0  0  0  0
M  END
>  <cdx:fragmentId>
12843

$$$$
