16078250.cdx
  Mrv1902 05222410242D          

 41 46  0  0  0  0            999 V2000
    7.9141   -6.5920    0.0000 C   0  0  0  0  0  0  0  0  0  0  0  0
    8.3990   -7.2594    0.0000 C   0  0  1  0  0  0  0  0  0  0  0  0
    7.6846   -6.8469    0.0000 O   0  0  0  0  0  0  0  0  0  0  0  0
    6.9701   -7.2594    0.0000 C   0  0  0  0  0  0  0  0  0  0  0  0
    6.2556   -6.8469    0.0000 C   0  0  0  0  0  0  0  0  0  0  0  0
    5.5412   -7.2594    0.0000 C   0  0  0  0  0  0  0  0  0  0  0  0
    4.8267   -6.8469    0.0000 O   0  0  0  0  0  0  0  0  0  0  0  0
    4.1122   -7.2594    0.0000 C   0  0  0  0  0  0  0  0  0  0  0  0
    4.1122   -8.0844    0.0000 C   0  0  0  0  0  0  0  0  0  0  0  0
    4.8267   -8.4969    0.0000 C   0  0  0  0  0  0  0  0  0  0  0  0
    5.5412   -8.0844    0.0000 C   0  0  0  0  0  0  0  0  0  0  0  0
    6.2556   -8.4969    0.0000 C   0  0  0  0  0  0  0  0  0  0  0  0
    6.9701   -8.0844    0.0000 C   0  0  0  0  0  0  0  0  0  0  0  0
    7.6846   -8.4969    0.0000 C   0  0  0  0  0  0  0  0  0  0  0  0
    8.3990   -8.0844    0.0000 C   0  0  0  0  0  0  0  0  0  0  0  0
    9.1135   -8.4969    0.0000 C   0  0  0  0  0  0  0  0  0  0  0  0
    9.8280   -8.0844    0.0000 C   0  0  2  0  0  0  0  0  0  0  0  0
    9.8280   -7.2594    0.0000 C   0  0  0  0  0  0  0  0  0  0  0  0
    9.1135   -6.8469    0.0000 C   0  0  1  0  0  0  0  0  0  0  0  0
    9.0838   -6.0225    0.0000 O   0  0  0  0  0  0  0  0  0  0  0  0
    8.2769   -5.8509    0.0000 C   0  0  0  0  0  0  0  0  0  0  0  0
    8.5250   -6.6275    0.0000 C   0  0  0  0  0  0  0  0  0  0  0  0
    7.6846   -9.3219    0.0000 O   0  0  0  0  0  0  0  0  0  0  0  0
   10.5425   -6.8469    0.0000 O   0  0  0  0  0  0  0  0  0  0  0  0
    6.2556   -6.0219    0.0000 C   0  0  0  0  0  0  0  0  0  0  0  0
    5.5412   -5.6094    0.0000 C   0  0  0  0  0  0  0  0  0  0  0  0
    5.5412   -4.7844    0.0000 C   0  0  0  0  0  0  0  0  0  0  0  0
    6.2556   -4.3719    0.0000 C   0  0  0  0  0  0  0  0  0  0  0  0
    4.8267   -4.3719    0.0000 C   0  0  0  0  0  0  0  0  0  0  0  0
    7.5624   -5.4384    0.0000 C   0  0  0  0  0  0  0  0  0  0  0  0
    8.2769   -5.0259    0.0000 C   0  0  0  0  0  0  0  0  0  0  0  0
    3.2872   -7.2594    0.0000 C   0  0  0  0  0  0  0  0  0  0  0  0
    3.6997   -6.5450    0.0000 C   0  0  0  0  0  0  0  0  0  0  0  0
    9.8280   -6.4344    0.0000 C   0  0  0  0  0  0  0  0  0  0  0  0
    9.8280   -5.6094    0.0000 C   0  0  0  0  0  0  0  0  0  0  0  0
   10.5425   -5.1969    0.0000 C   0  0  0  0  0  0  0  0  0  0  0  0
   10.5425   -4.3719    0.0000 C   0  0  0  0  0  0  0  0  0  0  0  0
   11.2569   -5.6094    0.0000 C   0  0  0  0  0  0  0  0  0  0  0  0
   11.2569   -3.9594    0.0000 O   0  0  0  0  0  0  0  0  0  0  0  0
    6.2556   -9.3219    0.0000 O   0  0  0  0  0  0  0  0  0  0  0  0
   10.5425   -8.4969    0.0000 H   0  0  0  0  0  0  0  0  0  0  0  0
  1  2  1  0  0  0  0
  2  3  1  1  0  0  0
  3  4  1  0  0  0  0
  4  5  1  0  0  0  0
  5  6  2  0  0  0  0
  6  7  1  0  0  0  0
  7  8  1  0  0  0  0
  8  9  1  0  0  0  0
  9 10  2  0  0  0  0
 10 11  1  0  0  0  0
 11 12  2  0  0  0  0
 12 13  1  0  0  0  0
 13 14  1  0  0  0  0
 14 15  1  0  0  0  0
 15 16  2  0  0  0  0
 16 17  1  0  0  0  0
 17 18  1  0  0  0  0
 18 19  1  0  0  0  0
 19 20  1  0  0  0  0
 20 21  1  0  0  0  0
  1 21  1  0  0  0  0
  1 22  1  0  0  0  0
 17 22  1  6  0  0  0
  2 19  1  0  0  0  0
  2 15  1  0  0  0  0
  4 13  2  0  0  0  0
  6 11  1  0  0  0  0
 14 23  2  0  0  0  0
 18 24  2  0  0  0  0
 25 26  1  0  0  0  0
 26 27  2  0  0  0  0
 27 28  1  0  0  0  0
 27 29  1  0  0  0  0
  5 25  1  0  0  0  0
 21 30  1  0  0  0  0
 21 31  1  0  0  0  0
  8 32  1  0  0  0  0
  8 33  1  0  0  0  0
 34 35  1  0  0  0  0
 35 36  2  0  0  0  0
 36 37  1  0  0  0  0
 36 38  1  0  0  0  0
 37 39  1  0  0  0  0
 19 34  1  1  0  0  0
 12 40  1  0  0  0  0
 17 41  1  0  0  0  0
M  END
>  <cdx:groupId>
130

>  <cdx:fragmentId>
5

$$$$
