16078252.cdx
  Mrv1902 05222410242D          

 45 49  0  0  0  0            999 V2000
   11.6219  -13.3056    0.0000 C   0  0  0  0  0  0  0  0  0  0  0  0
   12.1068  -13.9731    0.0000 C   0  0  1  0  0  0  0  0  0  0  0  0
   11.3923  -13.5606    0.0000 O   0  0  0  0  0  0  0  0  0  0  0  0
   10.6779  -13.9731    0.0000 C   0  0  0  0  0  0  0  0  0  0  0  0
    9.9634  -13.5606    0.0000 C   0  0  0  0  0  0  0  0  0  0  0  0
    9.2489  -13.9731    0.0000 C   0  0  0  0  0  0  0  0  0  0  0  0
    9.2489  -14.7981    0.0000 C   0  0  0  0  0  0  0  0  0  0  0  0
    9.9634  -15.2106    0.0000 C   0  0  0  0  0  0  0  0  0  0  0  0
   10.6779  -14.7981    0.0000 C   0  0  0  0  0  0  0  0  0  0  0  0
   11.3923  -15.2106    0.0000 C   0  0  0  0  0  0  0  0  0  0  0  0
   12.1068  -14.7981    0.0000 C   0  0  0  0  0  0  0  0  0  0  0  0
   12.8213  -15.2106    0.0000 C   0  0  0  0  0  0  0  0  0  0  0  0
   13.5357  -14.7981    0.0000 C   0  0  2  0  0  0  0  0  0  0  0  0
   13.5357  -13.9731    0.0000 C   0  0  0  0  0  0  0  0  0  0  0  0
   12.8213  -13.5606    0.0000 C   0  0  1  0  0  0  0  0  0  0  0  0
   12.7916  -12.7361    0.0000 O   0  0  0  0  0  0  0  0  0  0  0  0
   11.9846  -12.5646    0.0000 C   0  0  0  0  0  0  0  0  0  0  0  0
   12.4849  -13.2868    0.0000 C   0  0  0  0  0  0  0  0  0  0  0  0
   11.3923  -16.0356    0.0000 O   0  0  0  0  0  0  0  0  0  0  0  0
   14.2502  -13.5606    0.0000 O   0  0  0  0  0  0  0  0  0  0  0  0
   13.5357  -13.1481    0.0000 C   0  0  0  0  0  0  0  0  0  0  0  0
   13.5357  -12.3231    0.0000 C   0  0  0  0  0  0  0  0  0  0  0  0
   14.2502  -11.9106    0.0000 C   0  0  0  0  0  0  0  0  0  0  0  0
   14.9647  -12.3231    0.0000 C   0  0  0  0  0  0  0  0  0  0  0  0
   14.2502  -11.0856    0.0000 C   0  0  0  0  0  0  0  0  0  0  0  0
    9.9634  -12.7356    0.0000 C   0  0  0  0  0  0  0  0  0  0  0  0
    9.2489  -12.3231    0.0000 C   0  0  0  0  0  0  0  0  0  0  0  0
    9.2489  -11.4981    0.0000 C   0  0  0  0  0  0  0  0  0  0  0  0
    9.9634  -11.0856    0.0000 C   0  0  0  0  0  0  0  0  0  0  0  0
    8.5344  -11.0856    0.0000 C   0  0  0  0  0  0  0  0  0  0  0  0
   11.2701  -12.1521    0.0000 C   0  0  0  0  0  0  0  0  0  0  0  0
   11.9846  -11.7396    0.0000 C   0  0  0  0  0  0  0  0  0  0  0  0
    9.9634  -16.0356    0.0000 O   0  0  0  0  0  0  0  0  0  0  0  0
    8.5344  -13.5606    0.0000 O   0  0  0  0  0  0  0  0  0  0  0  0
    8.5344  -15.2106    0.0000 C   0  0  0  0  0  0  0  0  0  0  0  0
    7.8200  -14.7981    0.0000 C   0  0  0  0  0  0  0  0  0  0  0  0
    7.1055  -15.2106    0.0000 C   0  0  0  0  0  0  0  0  0  0  0  0
    6.3910  -14.7981    0.0000 C   0  0  0  0  0  0  0  0  0  0  0  0
    5.6766  -15.2106    0.0000 C   0  0  0  0  0  0  0  0  0  0  0  0
    4.9621  -14.7981    0.0000 C   0  0  0  0  0  0  0  0  0  0  0  0
    4.2476  -15.2106    0.0000 C   0  0  0  0  0  0  0  0  0  0  0  0
    4.2476  -16.0356    0.0000 C   0  0  0  0  0  0  0  0  0  0  0  0
    3.5331  -14.7981    0.0000 C   0  0  0  0  0  0  0  0  0  0  0  0
    7.1055  -16.0356    0.0000 C   0  0  0  0  0  0  0  0  0  0  0  0
   14.2502  -15.2106    0.0000 H   0  0  0  0  0  0  0  0  0  0  0  0
  1  2  1  0  0  0  0
  2  3  1  1  0  0  0
  3  4  1  0  0  0  0
  4  5  2  0  0  0  0
  5  6  1  0  0  0  0
  6  7  2  0  0  0  0
  7  8  1  0  0  0  0
  8  9  2  0  0  0  0
  9 10  1  0  0  0  0
 10 11  1  0  0  0  0
 11 12  2  0  0  0  0
 12 13  1  0  0  0  0
 13 14  1  0  0  0  0
 14 15  1  0  0  0  0
 15 16  1  0  0  0  0
 16 17  1  0  0  0  0
  1 17  1  0  0  0  0
  1 18  1  0  0  0  0
 13 18  1  6  0  0  0
  2 11  1  0  0  0  0
  2 15  1  0  0  0  0
  4  9  1  0  0  0  0
 10 19  2  0  0  0  0
 14 20  2  0  0  0  0
 21 22  1  0  0  0  0
 22 23  2  0  0  0  0
 23 24  1  0  0  0  0
 23 25  1  0  0  0  0
 15 21  1  1  0  0  0
 26 27  1  0  0  0  0
 27 28  2  0  0  0  0
 28 29  1  0  0  0  0
 28 30  1  0  0  0  0
  5 26  1  0  0  0  0
 17 31  1  0  0  0  0
 17 32  1  0  0  0  0
  8 33  1  0  0  0  0
  6 34  1  0  0  0  0
 35 36  1  0  0  0  0
 36 37  2  0  0  0  0
 37 38  1  0  0  0  0
 38 39  1  0  0  0  0
 39 40  1  0  0  0  0
 40 41  2  0  0  0  0
 41 42  1  0  0  0  0
 41 43  1  0  0  0  0
 37 44  1  0  0  0  0
  7 35  1  0  0  0  0
 13 45  1  0  0  0  0
M  END
>  <cdx:fragmentId>
14137

$$$$
