7826.cdx
  Mrv1902 05222410272D          

 10  9  0  0  0  0            999 V2000
    4.7555   -3.6652    0.0000 C   0  0  0  0  0  0  0  0  0  0  0  0
    5.4700   -4.0777    0.0000 O   0  0  0  0  0  0  0  0  0  0  0  0
    6.1844   -2.8402    0.0000 O   0  0  0  0  0  0  0  0  0  0  0  0
   10.4713   -3.6652    0.0000 C   0  0  0  0  0  0  0  0  0  0  0  0
    9.7568   -4.0777    0.0000 C   0  0  0  0  0  0  0  0  0  0  0  0
    9.0423   -3.6652    0.0000 C   0  0  0  0  0  0  0  0  0  0  0  0
    8.3278   -4.0777    0.0000 C   0  0  0  0  0  0  0  0  0  0  0  0
    7.6134   -3.6652    0.0000 C   0  0  0  0  0  0  0  0  0  0  0  0
    6.8989   -4.0777    0.0000 C   0  0  0  0  0  0  0  0  0  0  0  0
    6.1844   -3.6652    0.0000 C   0  0  0  0  0  0  0  0  0  0  0  0
  2  1  1  0  0  0  0
 10  2  1  0  0  0  0
 10  3  2  0  0  0  0
  5  4  1  0  0  0  0
  6  5  1  0  0  0  0
  7  6  1  0  0  0  0
  8  7  1  0  0  0  0
  9  8  1  0  0  0  0
 10  9  1  0  0  0  0
M  END
>  <cdx:groupId>
31

>  <cdx:fragmentId>
5

$$$$
