7827.cdx
  Mrv1902 05222410272D          

 89 98  0  0  0  0            999 V2000
    8.2348   -9.8634    0.0000 C   0  0  0  0  0  0  0  0  0  0  0  0
    8.2462  -10.6883    0.0000 C   0  0  1  0  0  0  0  0  0  0  0  0
    8.9664  -11.0909    0.0000 C   0  0  1  0  0  0  0  0  0  0  0  0
    9.6750  -10.6685    0.0000 C   0  0  1  0  0  0  0  0  0  0  0  0
    9.6636   -9.8435    0.0000 C   0  0  2  0  0  0  0  0  0  0  0  0
    8.9434   -9.4410    0.0000 C   0  0  0  0  0  0  0  0  0  0  0  0
   10.3952  -11.0710    0.0000 C   0  0  0  0  0  0  0  0  0  0  0  0
   11.1038  -10.6486    0.0000 C   0  0  0  0  0  0  0  0  0  0  0  0
   11.0924   -9.8237    0.0000 C   0  0  2  0  0  0  0  0  0  0  0  0
   10.3722   -9.4211    0.0000 C   0  0  2  0  0  0  0  0  0  0  0  0
   11.8010   -9.4013    0.0000 C   0  0  1  0  0  0  0  0  0  0  0  0
   11.7896   -8.5764    0.0000 C   0  0  0  0  0  0  0  0  0  0  0  0
   11.0694   -8.1738    0.0000 C   0  0  0  0  0  0  0  0  0  0  0  0
   10.3608   -8.5962    0.0000 C   0  0  0  0  0  0  0  0  0  0  0  0
   12.5212   -9.8038    0.0000 C   0  0  0  0  0  0  0  0  0  0  0  0
   13.2298   -9.3814    0.0000 C   0  0  2  0  0  0  0  0  0  0  0  0
   13.2184   -8.5565    0.0000 C   0  0  2  0  0  0  0  0  0  0  0  0
   12.4982   -8.1540    0.0000 C   0  0  1  0  0  0  0  0  0  0  0  0
   13.9270   -8.1341    0.0000 C   0  0  0  0  0  0  0  0  0  0  0  0
   13.9156   -7.3092    0.0000 C   0  0  0  0  0  0  0  0  0  0  0  0
   13.1954   -6.9066    0.0000 C   0  0  1  0  0  0  0  0  0  0  0  0
   12.4868   -7.3290    0.0000 C   0  0  0  0  0  0  0  0  0  0  0  0
    7.5376  -11.1107    0.0000 O   0  0  0  0  0  0  0  0  0  0  0  0
    8.5639  -11.8110    0.0000 C   0  0  0  0  0  0  0  0  0  0  0  0
    9.6521   -9.0186    0.0000 C   0  0  0  0  0  0  0  0  0  0  0  0
   11.0809   -8.9988    0.0000 C   0  0  0  0  0  0  0  0  0  0  0  0
   12.5097   -8.9789    0.0000 H   0  0  0  0  0  0  0  0  0  0  0  0
   13.5979   -6.1865    0.0000 C   0  0  0  0  0  0  0  0  0  0  0  0
    9.3888  -11.7995    0.0000 C   0  0  0  0  0  0  0  0  0  0  0  0
    9.6865  -11.4934    0.0000 H   0  0  0  0  0  0  0  0  0  0  0  0
   10.3837  -10.2461    0.0000 H   0  0  0  0  0  0  0  0  0  0  0  0
   11.8125  -10.2262    0.0000 C   0  0  0  0  0  0  0  0  0  0  0  0
   13.9500   -9.7839    0.0000 O   0  0  0  0  0  0  0  0  0  0  0  0
   12.7730   -6.1980    0.0000 C   0  0  0  0  0  0  0  0  0  0  0  0
    6.0811   -9.4869    0.0000 C   0  0  0  0  0  0  0  0  0  0  0  0
    5.3734   -9.9109    0.0000 C   0  0  1  0  0  0  0  0  0  0  0  0
    5.3867  -10.7358    0.0000 C   0  0  1  0  0  0  0  0  0  0  0  0
    6.1078  -11.1367    0.0000 C   0  0  2  0  0  0  0  0  0  0  0  0
    6.8155  -10.7127    0.0000 C   0  0  1  0  0  0  0  0  0  0  0  0
    6.8021   -9.8878    0.0000 O   0  0  0  0  0  0  0  0  0  0  0  0
    6.1211  -11.9616    0.0000 O   0  0  0  0  0  0  0  0  0  0  0  0
    4.6523   -9.5100    0.0000 O   0  0  0  0  0  0  0  0  0  0  0  0
    4.6790  -11.1598    0.0000 O   0  0  0  0  0  0  0  0  0  0  0  0
    3.9872  -12.4175    0.0000 C   0  0  2  0  0  0  0  0  0  0  0  0
    4.0003  -13.2424    0.0000 C   0  0  2  0  0  0  0  0  0  0  0  0
    4.7212  -13.6435    0.0000 C   0  0  1  0  0  0  0  0  0  0  0  0
    5.4290  -13.2197    0.0000 C   0  0  2  0  0  0  0  0  0  0  0  0
    5.4159  -12.3948    0.0000 C   0  0  1  0  0  0  0  0  0  0  0  0
    4.6950  -11.9937    0.0000 O   0  0  0  0  0  0  0  0  0  0  0  0
    3.2662  -12.0164    0.0000 C   0  0  0  0  0  0  0  0  0  0  0  0
    4.7343  -14.4684    0.0000 O   0  0  0  0  0  0  0  0  0  0  0  0
    3.2924  -13.6662    0.0000 O   0  0  0  0  0  0  0  0  0  0  0  0
    6.1500  -13.6208    0.0000 O   0  0  0  0  0  0  0  0  0  0  0  0
    2.5584  -12.4402    0.0000 O   0  0  0  0  0  0  0  0  0  0  0  0
    5.3303   -7.4423    0.0000 C   0  0  2  0  0  0  0  0  0  0  0  0
    4.6118   -7.0368    0.0000 C   0  0  2  0  0  0  0  0  0  0  0  0
    3.9014   -7.4562    0.0000 C   0  0  1  0  0  0  0  0  0  0  0  0
    3.9095   -8.2812    0.0000 C   0  0  2  0  0  0  0  0  0  0  0  0
    4.6279   -8.6867    0.0000 C   0  0  1  0  0  0  0  0  0  0  0  0
    5.3383   -8.2673    0.0000 O   0  0  0  0  0  0  0  0  0  0  0  0
    6.0407   -7.0229    0.0000 C   0  0  0  0  0  0  0  0  0  0  0  0
    3.1830   -7.0507    0.0000 O   0  0  0  0  0  0  0  0  0  0  0  0
    4.6038   -6.2118    0.0000 O   0  0  0  0  0  0  0  0  0  0  0  0
    3.1990   -8.7006    0.0000 O   0  0  0  0  0  0  0  0  0  0  0  0
    6.0327   -6.1979    0.0000 O   0  0  0  0  0  0  0  0  0  0  0  0
    1.7343   -7.0741    0.0000 C   0  0  1  0  0  0  0  0  0  0  0  0
    1.0266   -7.4981    0.0000 C   0  0  1  0  0  0  0  0  0  0  0  0
    1.0399   -8.3230    0.0000 C   0  0  2  0  0  0  0  0  0  0  0  0
    1.7610   -8.7239    0.0000 C   0  0  2  0  0  0  0  0  0  0  0  0
    2.4687   -8.2999    0.0000 C   0  0  1  0  0  0  0  0  0  0  0  0
    2.4554   -7.4750    0.0000 O   0  0  0  0  0  0  0  0  0  0  0  0
    0.3055   -7.0972    0.0000 O   0  0  0  0  0  0  0  0  0  0  0  0
    0.3322   -8.7470    0.0000 O   0  0  0  0  0  0  0  0  0  0  0  0
    1.7743   -9.5488    0.0000 O   0  0  0  0  0  0  0  0  0  0  0  0
   13.1755   -5.4778    0.0000 O   0  0  0  0  0  0  0  0  0  0  0  0
   13.9385   -8.9590    0.0000 C   0  0  0  0  0  0  0  0  0  0  0  0
   14.6472   -8.5366    0.0000 O   0  0  0  0  0  0  0  0  0  0  0  0
    1.7210   -6.2492    0.0000 C   0  0  0  0  0  0  0  0  0  0  0  0
   14.2026   -3.5502    0.0000 C   0  0  2  0  0  0  0  0  0  0  0  0
   13.5641   -3.0277    0.0000 C   0  0  2  0  0  0  0  0  0  0  0  0
   12.7924   -3.3195    0.0000 C   0  0  1  0  0  0  0  0  0  0  0  0
   12.6591   -4.1336    0.0000 C   0  0  2  0  0  0  0  0  0  0  0  0
   13.2976   -4.6561    0.0000 C   0  0  1  0  0  0  0  0  0  0  0  0
   14.0693   -4.3644    0.0000 O   0  0  0  0  0  0  0  0  0  0  0  0
   14.9743   -3.2585    0.0000 C   0  0  0  0  0  0  0  0  0  0  0  0
   12.1539   -2.7970    0.0000 O   0  0  0  0  0  0  0  0  0  0  0  0
   13.6973   -2.2136    0.0000 O   0  0  0  0  0  0  0  0  0  0  0  0
   11.8874   -4.4254    0.0000 O   0  0  0  0  0  0  0  0  0  0  0  0
   15.1075   -2.4443    0.0000 O   0  0  0  0  0  0  0  0  0  0  0  0
  1  2  1  0  0  0  0
  2  3  1  0  0  0  0
  3  4  1  0  0  0  0
  4  5  1  0  0  0  0
  5  6  1  0  0  0  0
  6  1  1  0  0  0  0
  4  7  1  0  0  0  0
  7  8  1  0  0  0  0
  8  9  1  0  0  0  0
  9 10  1  0  0  0  0
 10  5  1  0  0  0  0
  9 11  1  0  0  0  0
 11 12  1  0  0  0  0
 12 13  2  0  0  0  0
 13 14  1  0  0  0  0
 14 10  1  0  0  0  0
 11 15  1  0  0  0  0
 15 16  1  0  0  0  0
 16 17  1  0  0  0  0
 17 18  1  0  0  0  0
 18 12  1  0  0  0  0
 17 19  1  0  0  0  0
 19 20  1  0  0  0  0
 20 21  1  0  0  0  0
 21 22  1  0  0  0  0
 22 18  1  0  0  0  0
  2 23  1  1  0  0  0
  3 24  1  1  0  0  0
  5 25  1  1  0  0  0
  9 26  1  1  0  0  0
 18 27  1  1  0  0  0
 21 28  1  1  0  0  0
  3 29  1  6  0  0  0
  4 30  1  6  0  0  0
 10 31  1  6  0  0  0
 11 32  1  6  0  0  0
 16 33  1  6  0  0  0
 21 34  1  6  0  0  0
 35 36  1  0  0  0  0
 36 37  1  0  0  0  0
 37 38  1  0  0  0  0
 38 39  1  0  0  0  0
 39 40  1  0  0  0  0
 40 35  1  0  0  0  0
 38 41  1  6  0  0  0
 36 42  1  1  0  0  0
 37 43  1  1  0  0  0
 44 45  1  0  0  0  0
 45 46  1  0  0  0  0
 46 47  1  0  0  0  0
 47 48  1  0  0  0  0
 48 49  1  0  0  0  0
 49 44  1  0  0  0  0
 44 50  1  1  0  0  0
 46 51  1  1  0  0  0
 45 52  1  6  0  0  0
 47 53  1  6  0  0  0
 50 54  1  0  0  0  0
 48 41  1  1  0  0  0
 55 56  1  0  0  0  0
 56 57  1  0  0  0  0
 57 58  1  0  0  0  0
 58 59  1  0  0  0  0
 59 60  1  0  0  0  0
 60 55  1  0  0  0  0
 55 61  1  1  0  0  0
 57 62  1  1  0  0  0
 56 63  1  6  0  0  0
 58 64  1  6  0  0  0
 61 65  1  0  0  0  0
 59 42  1  1  0  0  0
 66 67  1  0  0  0  0
 67 68  1  0  0  0  0
 68 69  1  0  0  0  0
 69 70  1  0  0  0  0
 70 71  1  0  0  0  0
 71 66  1  0  0  0  0
 67 72  1  1  0  0  0
 68 73  1  6  0  0  0
 69 74  1  6  0  0  0
 70 64  1  1  0  0  0
 28 75  1  0  0  0  0
 39 23  1  1  0  0  0
 17 76  1  1  0  0  0
 76 77  1  0  0  0  0
 66 78  1  6  0  0  0
 79 80  1  0  0  0  0
 80 81  1  0  0  0  0
 81 82  1  0  0  0  0
 82 83  1  0  0  0  0
 83 84  1  0  0  0  0
 84 79  1  0  0  0  0
 79 85  1  1  0  0  0
 81 86  1  1  0  0  0
 80 87  1  6  0  0  0
 82 88  1  6  0  0  0
 85 89  1  0  0  0  0
 83 75  1  1  0  0  0
M  END
>  <cdx:fragmentId>
301

$$$$
