7829.cdx
  Mrv1902 05222410182D          

 16 15  0  0  0  0            999 V2000
    3.9995   -6.7383    0.0000 C   0  0  0  0  0  0  0  0  0  0  0  0
    4.7140   -6.3258    0.0000 C   0  0  0  0  0  0  0  0  0  0  0  0
    5.4284   -6.7383    0.0000 C   0  0  0  0  0  0  0  0  0  0  0  0
    6.1429   -6.3258    0.0000 C   0  0  0  0  0  0  0  0  0  0  0  0
    6.8574   -6.7383    0.0000 C   0  0  0  0  0  0  0  0  0  0  0  0
    7.5719   -6.3258    0.0000 C   0  0  0  0  0  0  0  0  0  0  0  0
    8.2863   -6.7383    0.0000 C   0  0  0  0  0  0  0  0  0  0  0  0
    9.0008   -6.3258    0.0000 C   0  0  0  0  0  0  0  0  0  0  0  0
    9.7153   -6.7383    0.0000 C   0  0  0  0  0  0  0  0  0  0  0  0
   10.4297   -6.3258    0.0000 C   0  0  0  0  0  0  0  0  0  0  0  0
    3.9995   -7.5633    0.0000 O   0  0  0  0  0  0  0  0  0  0  0  0
    3.2850   -6.3258    0.0000 O   0  0  0  0  0  0  0  0  0  0  0  0
   10.4297   -5.5008    0.0000 O   0  0  0  0  0  0  0  0  0  0  0  0
   11.1442   -6.7383    0.0000 O   0  0  0  0  0  0  0  0  0  0  0  0
    2.5706   -6.7383    0.0000 C   0  0  0  0  0  0  0  0  0  0  0  0
   11.8587   -6.3258    0.0000 C   0  0  0  0  0  0  0  0  0  0  0  0
  1  2  1  0  0  0  0
  2  3  1  0  0  0  0
  3  4  1  0  0  0  0
  4  5  1  0  0  0  0
  5  6  1  0  0  0  0
  6  7  1  0  0  0  0
  7  8  1  0  0  0  0
  8  9  1  0  0  0  0
  9 10  1  0  0  0  0
  1 11  2  0  0  0  0
  1 12  1  0  0  0  0
 10 13  2  0  0  0  0
 10 14  1  0  0  0  0
 12 15  1  0  0  0  0
 14 16  1  0  0  0  0
M  END
>  <cdx:fragmentId>
5

$$$$
