78293.cdx
  Mrv1902 05222410242D          

  9  9  0  0  0  0            999 V2000
    3.1368   -4.0354    0.0000 C   0  0  0  0  0  0  0  0  0  0  0  0
    3.8513   -3.6229    0.0000 C   0  0  0  0  0  0  0  0  0  0  0  0
    4.5657   -4.0354    0.0000 C   0  0  0  0  0  0  0  0  0  0  0  0
    4.5657   -4.8604    0.0000 C   0  0  0  0  0  0  0  0  0  0  0  0
    3.8513   -5.2729    0.0000 C   0  0  0  0  0  0  0  0  0  0  0  0
    3.1368   -4.8604    0.0000 C   0  0  0  0  0  0  0  0  0  0  0  0
    2.4223   -3.6229    0.0000 O   0  0  0  0  0  0  0  0  0  0  0  0
    5.2802   -5.2729    0.0000 C   0  0  0  0  0  0  0  0  0  0  0  0
    5.9947   -4.8604    0.0000 C   0  0  0  0  0  0  0  0  0  0  0  0
  1  2  1  0  0  0  0
  2  3  1  0  0  0  0
  3  4  1  0  0  0  0
  4  5  1  0  0  0  0
  5  6  1  0  0  0  0
  1  6  1  0  0  0  0
  1  7  1  0  0  0  0
  8  9  1  0  0  0  0
  4  8  1  0  0  0  0
M  END
>  <cdx:groupId>
29

>  <cdx:fragmentId>
5

$$$$
