78303.cdx
  Mrv1902 05222410222D          

 51 54  0  0  0  0            999 V2000
    5.0573   -9.8282    0.0000 N   0  0  0  0  0  0  0  0  0  0  0  0
    5.0623  -10.6531    0.0000 C   0  0  0  0  0  0  0  0  0  0  0  0
    4.3503  -11.0700    0.0000 C   0  0  2  0  0  0  0  0  0  0  0  0
    3.5642  -10.8198    0.0000 C   0  0  0  0  0  0  0  0  0  0  0  0
    3.0833  -11.4902    0.0000 C   0  0  0  0  0  0  0  0  0  0  0  0
    3.5723  -12.1547    0.0000 C   0  0  0  0  0  0  0  0  0  0  0  0
    4.3554  -11.8950    0.0000 N   0  0  0  0  0  0  0  0  0  0  0  0
    5.0723  -12.3031    0.0000 C   0  0  0  0  0  0  0  0  0  0  0  0
    5.0773  -13.1281    0.0000 C   0  0  0  0  0  0  0  0  0  0  0  0
    5.7943  -13.5362    0.0000 N   0  0  0  0  0  0  0  0  0  0  0  0
    6.5063  -13.1194    0.0000 C   0  0  0  0  0  0  0  0  0  0  0  0
    7.2232  -13.5276    0.0000 C   0  0  0  0  0  0  0  0  0  0  0  0
    7.9352  -13.1107    0.0000 N   0  0  0  0  0  0  0  0  0  0  0  0
    8.6521  -13.5189    0.0000 C   0  0  0  0  0  0  0  0  0  0  0  0
    9.3641  -13.1021    0.0000 C   0  0  0  0  0  0  0  0  0  0  0  0
    9.3591  -12.2771    0.0000 N   0  0  0  0  0  0  0  0  0  0  0  0
   10.0710  -11.8602    0.0000 C   0  0  0  0  0  0  0  0  0  0  0  0
   10.0660  -11.0353    0.0000 C   0  0  1  0  0  0  0  0  0  0  0  0
    9.3490  -10.6271    0.0000 N   0  0  0  0  0  0  0  0  0  0  0  0
    9.3440   -9.8021    0.0000 C   0  0  0  0  0  0  0  0  0  0  0  0
    8.6271   -9.3940    0.0000 C   0  0  0  0  0  0  0  0  0  0  0  0
    8.6221   -8.5690    0.0000 N   0  0  0  0  0  0  0  0  0  0  0  0
    7.9051   -8.1608    0.0000 C   0  0  0  0  0  0  0  0  0  0  0  0
    7.1931   -8.5777    0.0000 C   0  0  1  0  0  0  0  0  0  0  0  0
    7.1982   -9.4026    0.0000 N   0  0  0  0  0  0  0  0  0  0  0  0
    6.4862   -9.8195    0.0000 C   0  0  0  0  0  0  0  0  0  0  0  0
    5.7692   -9.4113    0.0000 C   0  0  2  0  0  0  0  0  0  0  0  0
    5.5928   -8.6054    0.0000 C   0  0  0  0  0  0  0  0  0  0  0  0
    4.7718   -8.5242    0.0000 C   0  0  0  0  0  0  0  0  0  0  0  0
    4.4409   -9.2799    0.0000 C   0  0  0  0  0  0  0  0  0  0  0  0
    5.7793  -11.0613    0.0000 O   0  0  0  0  0  0  0  0  0  0  0  0
    5.7843  -11.8863    0.0000 O   0  0  0  0  0  0  0  0  0  0  0  0
    6.5012  -12.2944    0.0000 O   0  0  0  0  0  0  0  0  0  0  0  0
    8.6571  -14.3439    0.0000 O   0  0  0  0  0  0  0  0  0  0  0  0
   10.7880  -12.2684    0.0000 O   0  0  0  0  0  0  0  0  0  0  0  0
   10.0560   -9.3853    0.0000 O   0  0  0  0  0  0  0  0  0  0  0  0
    7.9001   -7.3358    0.0000 O   0  0  0  0  0  0  0  0  0  0  0  0
    6.4912  -10.6445    0.0000 O   0  0  0  0  0  0  0  0  0  0  0  0
   10.7730   -9.7934    0.0000 C   0  0  0  0  0  0  0  0  0  0  0  0
   10.7780  -10.6184    0.0000 C   0  0  1  0  0  0  0  0  0  0  0  0
   11.4949  -11.0266    0.0000 C   0  0  0  0  0  0  0  0  0  0  0  0
   12.2069  -10.6097    0.0000 C   0  0  0  0  0  0  0  0  0  0  0  0
    6.4762   -8.1695    0.0000 C   0  0  0  0  0  0  0  0  0  0  0  0
    6.4712   -7.3445    0.0000 C   0  0  0  0  0  0  0  0  0  0  0  0
    5.7542   -6.9364    0.0000 C   0  0  0  0  0  0  0  0  0  0  0  0
    5.7492   -6.1114    0.0000 C   0  0  0  0  0  0  0  0  0  0  0  0
    6.4611   -5.6946    0.0000 C   0  0  0  0  0  0  0  0  0  0  0  0
    7.1781   -6.1027    0.0000 C   0  0  0  0  0  0  0  0  0  0  0  0
    7.1831   -6.9277    0.0000 C   0  0  0  0  0  0  0  0  0  0  0  0
    4.2724  -10.2487    0.0000 H   0  0  0  0  0  0  0  0  0  0  0  0
    6.4415   -8.9332    0.0000 H   0  0  0  0  0  0  0  0  0  0  0  0
  1  2  1  0  0  0  0
  2  3  1  0  0  0  0
  3  4  1  0  0  0  0
  4  5  1  0  0  0  0
  5  6  1  0  0  0  0
  6  7  1  0  0  0  0
  7  8  1  0  0  0  0
  8  9  1  0  0  0  0
  9 10  1  0  0  0  0
 10 11  1  0  0  0  0
 11 12  1  0  0  0  0
 12 13  1  0  0  0  0
 13 14  1  0  0  0  0
 14 15  1  0  0  0  0
 15 16  1  0  0  0  0
 16 17  1  0  0  0  0
 17 18  1  0  0  0  0
 18 19  1  1  0  0  0
 19 20  1  0  0  0  0
 20 21  1  0  0  0  0
 21 22  1  0  0  0  0
 22 23  1  0  0  0  0
 23 24  1  0  0  0  0
 24 25  1  0  0  0  0
 25 26  1  0  0  0  0
 26 27  1  0  0  0  0
 27 28  1  0  0  0  0
 28 29  1  0  0  0  0
 29 30  1  0  0  0  0
  1 30  1  0  0  0  0
  1 27  1  0  0  0  0
  3  7  1  0  0  0  0
  2 31  2  0  0  0  0
  8 32  2  0  0  0  0
 11 33  2  0  0  0  0
 14 34  2  0  0  0  0
 17 35  2  0  0  0  0
 20 36  2  0  0  0  0
 23 37  2  0  0  0  0
 26 38  2  0  0  0  0
 40 39  1  1  0  0  0
 40 41  1  0  0  0  0
 41 42  1  0  0  0  0
 18 40  1  0  0  0  0
 43 44  1  0  0  0  0
 44 45  1  0  0  0  0
 45 46  2  0  0  0  0
 46 47  1  0  0  0  0
 47 48  2  0  0  0  0
 48 49  1  0  0  0  0
 44 49  2  0  0  0  0
 24 43  1  1  0  0  0
  3 50  1  6  0  0  0
 27 51  1  6  0  0  0
M  END
>  <cdx:groupId>
39871

>  <cdx:fragmentId>
39718

$$$$
