7830.cdx
  Mrv1902 05222410282D          

 25 25  0  0  0  0            999 V2000
    8.2680   -9.1531    0.0000 C   0  0  0  0  0  0  0  0  0  0  0  0
    8.9819   -8.7396    0.0000 C   0  0  0  0  0  0  0  0  0  0  0  0
    9.6969   -9.1511    0.0000 C   0  0  0  0  0  0  0  0  0  0  0  0
    9.6980   -9.9761    0.0000 C   0  0  0  0  0  0  0  0  0  0  0  0
    8.9841  -10.3896    0.0000 C   0  0  0  0  0  0  0  0  0  0  0  0
    8.2691   -9.9781    0.0000 C   0  0  0  0  0  0  0  0  0  0  0  0
    7.5529   -8.7415    0.0000 O   0  0  0  0  0  0  0  0  0  0  0  0
   10.4131  -10.3876    0.0000 O   0  0  0  0  0  0  0  0  0  0  0  0
   12.5525   -7.4972    0.0000 C   0  0  0  0  0  0  0  0  0  0  0  0
   11.8386   -7.9107    0.0000 C   0  0  0  0  0  0  0  0  0  0  0  0
   11.1236   -7.4992    0.0000 C   0  0  0  0  0  0  0  0  0  0  0  0
   10.4097   -7.9126    0.0000 C   0  0  0  0  0  0  0  0  0  0  0  0
    9.6947   -7.5011    0.0000 C   0  0  0  0  0  0  0  0  0  0  0  0
    8.9808   -7.9146    0.0000 C   0  0  0  0  0  0  0  0  0  0  0  0
    8.2657   -7.5031    0.0000 C   0  0  0  0  0  0  0  0  0  0  0  0
    7.5518   -7.9165    0.0000 C   0  0  0  0  0  0  0  0  0  0  0  0
    6.8368   -7.5050    0.0000 C   0  0  0  0  0  0  0  0  0  0  0  0
    6.1229   -7.9185    0.0000 C   0  0  0  0  0  0  0  0  0  0  0  0
    5.4078   -7.5070    0.0000 C   0  0  0  0  0  0  0  0  0  0  0  0
    4.6939   -7.9204    0.0000 C   0  0  0  0  0  0  0  0  0  0  0  0
    3.9789   -7.5089    0.0000 C   0  0  0  0  0  0  0  0  0  0  0  0
    3.2650   -7.9224    0.0000 C   0  0  0  0  0  0  0  0  0  0  0  0
    3.2661   -8.7474    0.0000 C   0  0  0  0  0  0  0  0  0  0  0  0
    2.5500   -7.5108    0.0000 O   0  0  0  0  0  0  0  0  0  0  0  0
    1.8360   -7.9243    0.0000 C   0  0  0  0  0  0  0  0  0  0  0  0
  1  2  1  0  0  0  0
  2  3  2  0  0  0  0
  3  4  1  0  0  0  0
  4  5  1  0  0  0  0
  5  6  2  0  0  0  0
  1  6  1  0  0  0  0
  1  7  2  0  0  0  0
  4  8  2  0  0  0  0
  9 10  1  0  0  0  0
 10 11  1  0  0  0  0
 11 12  1  0  0  0  0
 12 13  1  0  0  0  0
 13 14  1  0  0  0  0
 14 15  1  0  0  0  0
 15 16  1  0  0  0  0
 16 17  1  0  0  0  0
 17 18  2  0  0  0  0
 18 19  1  0  0  0  0
 19 20  1  0  0  0  0
 20 21  1  0  0  0  0
 21 22  1  0  0  0  0
 22 23  1  0  0  0  0
 24 25  1  0  0  0  0
 22 24  1  0  0  0  0
  2 14  1  0  0  0  0
M  END
>  <cdx:fragmentId>
21

$$$$
