13783105.cdx
  Mrv1902 05222410182D          

 18 19  0  0  0  0            999 V2000
    6.5503  -14.2535    0.0000 N   0  0  0  0  0  0  0  0  0  0  0  0
    7.2648  -14.6660    0.0000 C   0  0  0  0  0  0  0  0  0  0  0  0
    7.2648  -15.4910    0.0000 C   0  0  1  0  0  0  0  0  0  0  0  0
    6.5503  -15.9035    0.0000 N   0  0  0  0  0  0  0  0  0  0  0  0
    5.8359  -15.4910    0.0000 C   0  0  0  0  0  0  0  0  0  0  0  0
    5.8359  -14.6660    0.0000 C   0  0  2  0  0  0  0  0  0  0  0  0
    7.9793  -14.2535    0.0000 O   0  0  0  0  0  0  0  0  0  0  0  0
    5.1214  -15.9035    0.0000 O   0  0  0  0  0  0  0  0  0  0  0  0
    5.1214  -13.4285    0.0000 C   0  0  0  0  0  0  0  0  0  0  0  0
    5.1214  -14.2535    0.0000 C   0  0  0  0  0  0  0  0  0  0  0  0
    4.4069  -14.6660    0.0000 C   0  0  0  0  0  0  0  0  0  0  0  0
    7.9793  -15.9035    0.0000 C   0  0  0  0  0  0  0  0  0  0  0  0
    8.6938  -15.4910    0.0000 C   0  0  0  0  0  0  0  0  0  0  0  0
    8.6938  -14.6660    0.0000 C   0  0  0  0  0  0  0  0  0  0  0  0
    9.4082  -14.2535    0.0000 C   0  0  0  0  0  0  0  0  0  0  0  0
   10.1227  -14.6660    0.0000 C   0  0  0  0  0  0  0  0  0  0  0  0
   10.1227  -15.4910    0.0000 C   0  0  0  0  0  0  0  0  0  0  0  0
    9.4082  -15.9035    0.0000 C   0  0  0  0  0  0  0  0  0  0  0  0
  1  2  1  0  0  0  0
  2  3  1  0  0  0  0
  3  4  1  0  0  0  0
  4  5  1  0  0  0  0
  5  6  1  0  0  0  0
  1  6  1  0  0  0  0
  2  7  2  0  0  0  0
  5  8  2  0  0  0  0
  9 10  1  0  0  0  0
 10 11  1  0  0  0  0
  6 10  1  6  0  0  0
 12 13  1  0  0  0  0
 13 14  1  0  0  0  0
 14 15  2  0  0  0  0
 15 16  1  0  0  0  0
 16 17  2  0  0  0  0
 17 18  1  0  0  0  0
 13 18  2  0  0  0  0
  3 12  1  6  0  0  0
M  END
>  <cdx:groupId>
95928

>  <cdx:fragmentId>
95876

$$$$
