7834.cdx
  Mrv1902 05222410262D          

 77 86  0  0  0  0            999 V2000
    8.2559   -8.7108    0.0000 C   0  0  0  0  0  0  0  0  0  0  0  0
    8.2496   -9.5358    0.0000 C   0  0  1  0  0  0  0  0  0  0  0  0
    8.9609   -9.9537    0.0000 C   0  0  1  0  0  0  0  0  0  0  0  0
    9.6785   -9.5467    0.0000 C   0  0  1  0  0  0  0  0  0  0  0  0
    9.6848   -8.7217    0.0000 C   0  0  2  0  0  0  0  0  0  0  0  0
    8.9735   -8.3038    0.0000 C   0  0  0  0  0  0  0  0  0  0  0  0
   10.3898   -9.9647    0.0000 C   0  0  0  0  0  0  0  0  0  0  0  0
   11.1074   -9.5576    0.0000 C   0  0  0  0  0  0  0  0  0  0  0  0
   11.1137   -8.7327    0.0000 C   0  0  2  0  0  0  0  0  0  0  0  0
   10.4024   -8.3147    0.0000 C   0  0  2  0  0  0  0  0  0  0  0  0
   11.8313   -8.3256    0.0000 C   0  0  1  0  0  0  0  0  0  0  0  0
   11.8376   -7.5007    0.0000 C   0  0  0  0  0  0  0  0  0  0  0  0
   11.1263   -7.0827    0.0000 C   0  0  0  0  0  0  0  0  0  0  0  0
   10.4087   -7.4897    0.0000 C   0  0  0  0  0  0  0  0  0  0  0  0
   12.5426   -8.7436    0.0000 C   0  0  2  0  0  0  0  0  0  0  0  0
   13.2602   -8.3366    0.0000 C   0  0  2  0  0  0  0  0  0  0  0  0
   13.2665   -7.5116    0.0000 C   0  0  2  0  0  0  0  0  0  0  0  0
   12.5552   -7.0936    0.0000 C   0  0  1  0  0  0  0  0  0  0  0  0
   13.9841   -7.1046    0.0000 C   0  0  0  0  0  0  0  0  0  0  0  0
   13.9904   -6.2796    0.0000 C   0  0  0  0  0  0  0  0  0  0  0  0
   13.2791   -5.8616    0.0000 C   0  0  1  0  0  0  0  0  0  0  0  0
   12.5615   -6.2687    0.0000 C   0  0  0  0  0  0  0  0  0  0  0  0
    7.5320   -9.9428    0.0000 O   0  0  0  0  0  0  0  0  0  0  0  0
    8.5430  -10.6650    0.0000 C   0  0  0  0  0  0  0  0  0  0  0  0
    9.6911   -7.8968    0.0000 C   0  0  0  0  0  0  0  0  0  0  0  0
   11.1200   -7.9077    0.0000 C   0  0  0  0  0  0  0  0  0  0  0  0
   12.5489   -7.9186    0.0000 H   0  0  0  0  0  0  0  0  0  0  0  0
   13.6971   -5.1503    0.0000 C   0  0  0  0  0  0  0  0  0  0  0  0
    9.3679  -10.6713    0.0000 C   0  0  0  0  0  0  0  0  0  0  0  0
    9.6722  -10.3717    0.0000 H   0  0  0  0  0  0  0  0  0  0  0  0
   10.3961   -9.1397    0.0000 H   0  0  0  0  0  0  0  0  0  0  0  0
   11.8250   -9.1506    0.0000 C   0  0  0  0  0  0  0  0  0  0  0  0
   12.8721   -5.1440    0.0000 C   0  0  0  0  0  0  0  0  0  0  0  0
   13.9778   -7.9295    0.0000 C   0  0  0  0  0  0  0  0  0  0  0  0
   13.2539   -9.1615    0.0000 O   0  0  0  0  0  0  0  0  0  0  0  0
   13.2901   -4.4327    0.0000 O   0  0  0  0  0  0  0  0  0  0  0  0
   14.6954   -7.5225    0.0000 O   0  0  0  0  0  0  0  0  0  0  0  0
    5.4437   -6.1946    0.0000 C   0  0  2  0  0  0  0  0  0  0  0  0
    4.7338   -5.7743    0.0000 C   0  0  2  0  0  0  0  0  0  0  0  0
    4.0148   -6.1789    0.0000 C   0  0  1  0  0  0  0  0  0  0  0  0
    4.0057   -7.0038    0.0000 C   0  0  2  0  0  0  0  0  0  0  0  0
    4.7156   -7.4242    0.0000 C   0  0  1  0  0  0  0  0  0  0  0  0
    5.4346   -7.0196    0.0000 O   0  0  0  0  0  0  0  0  0  0  0  0
    6.1626   -5.7900    0.0000 C   0  0  0  0  0  0  0  0  0  0  0  0
    3.3049   -5.7585    0.0000 O   0  0  0  0  0  0  0  0  0  0  0  0
    4.7429   -4.9493    0.0000 O   0  0  0  0  0  0  0  0  0  0  0  0
    3.2868   -7.4084    0.0000 O   0  0  0  0  0  0  0  0  0  0  0  0
    6.1717   -4.9651    0.0000 O   0  0  0  0  0  0  0  0  0  0  0  0
    6.1298   -8.2810    0.0000 C   0  0  0  0  0  0  0  0  0  0  0  0
    5.4085   -8.6815    0.0000 C   0  0  2  0  0  0  0  0  0  0  0  0
    5.3946   -9.5063    0.0000 C   0  0  1  0  0  0  0  0  0  0  0  0
    6.1021   -9.9308    0.0000 C   0  0  2  0  0  0  0  0  0  0  0  0
    6.8234   -9.5303    0.0000 C   0  0  1  0  0  0  0  0  0  0  0  0
    6.8372   -8.7054    0.0000 O   0  0  0  0  0  0  0  0  0  0  0  0
    4.6733   -9.9068    0.0000 O   0  0  0  0  0  0  0  0  0  0  0  0
    4.7010   -8.2570    0.0000 O   0  0  0  0  0  0  0  0  0  0  0  0
    6.0883  -10.7557    0.0000 O   0  0  0  0  0  0  0  0  0  0  0  0
    1.8948   -5.7411    0.0000 C   0  0  0  0  0  0  0  0  0  0  0  0
    1.1735   -6.1416    0.0000 C   0  0  2  0  0  0  0  0  0  0  0  0
    1.1597   -6.9665    0.0000 C   0  0  1  0  0  0  0  0  0  0  0  0
    1.8671   -7.3909    0.0000 C   0  0  2  0  0  0  0  0  0  0  0  0
    2.5884   -6.9904    0.0000 C   0  0  1  0  0  0  0  0  0  0  0  0
    2.6022   -6.1656    0.0000 O   0  0  0  0  0  0  0  0  0  0  0  0
    0.4384   -7.3669    0.0000 O   0  0  0  0  0  0  0  0  0  0  0  0
    0.4661   -5.7172    0.0000 O   0  0  0  0  0  0  0  0  0  0  0  0
    1.8533   -8.2158    0.0000 O   0  0  0  0  0  0  0  0  0  0  0  0
    3.9428  -11.1391    0.0000 C   0  0  2  0  0  0  0  0  0  0  0  0
    3.9308  -11.9640    0.0000 C   0  0  2  0  0  0  0  0  0  0  0  0
    4.6393  -12.3868    0.0000 C   0  0  1  0  0  0  0  0  0  0  0  0
    5.3596  -11.9847    0.0000 C   0  0  2  0  0  0  0  0  0  0  0  0
    5.3716  -11.1598    0.0000 C   0  0  1  0  0  0  0  0  0  0  0  0
    4.6631  -10.7370    0.0000 O   0  0  0  0  0  0  0  0  0  0  0  0
    3.2343  -10.7163    0.0000 C   0  0  0  0  0  0  0  0  0  0  0  0
    4.6274  -13.2117    0.0000 O   0  0  0  0  0  0  0  0  0  0  0  0
    3.2105  -12.3662    0.0000 O   0  0  0  0  0  0  0  0  0  0  0  0
    6.0681  -12.4075    0.0000 O   0  0  0  0  0  0  0  0  0  0  0  0
    2.5140  -11.1185    0.0000 O   0  0  0  0  0  0  0  0  0  0  0  0
  1  2  1  0  0  0  0
  2  3  1  0  0  0  0
  3  4  1  0  0  0  0
  4  5  1  0  0  0  0
  5  6  1  0  0  0  0
  6  1  1  0  0  0  0
  4  7  1  0  0  0  0
  7  8  1  0  0  0  0
  8  9  1  0  0  0  0
  9 10  1  0  0  0  0
 10  5  1  0  0  0  0
  9 11  1  0  0  0  0
 11 12  1  0  0  0  0
 12 13  2  0  0  0  0
 13 14  1  0  0  0  0
 14 10  1  0  0  0  0
 11 15  1  0  0  0  0
 15 16  1  0  0  0  0
 16 17  1  0  0  0  0
 17 18  1  0  0  0  0
 18 12  1  0  0  0  0
 17 19  1  0  0  0  0
 19 20  1  0  0  0  0
 20 21  1  0  0  0  0
 21 22  1  0  0  0  0
 22 18  1  0  0  0  0
  2 23  1  1  0  0  0
  3 24  1  1  0  0  0
  5 25  1  1  0  0  0
  9 26  1  1  0  0  0
 18 27  1  1  0  0  0
 21 28  1  1  0  0  0
  3 29  1  6  0  0  0
  4 30  1  6  0  0  0
 10 31  1  6  0  0  0
 11 32  1  6  0  0  0
 21 33  1  6  0  0  0
 17 34  1  1  0  0  0
 15 35  1  6  0  0  0
 16 35  1  6  0  0  0
 28 36  1  0  0  0  0
 34 37  1  0  0  0  0
 38 39  1  0  0  0  0
 39 40  1  0  0  0  0
 40 41  1  0  0  0  0
 41 42  1  0  0  0  0
 42 43  1  0  0  0  0
 43 38  1  0  0  0  0
 38 44  1  1  0  0  0
 40 45  1  1  0  0  0
 39 46  1  6  0  0  0
 41 47  1  6  0  0  0
 44 48  1  0  0  0  0
 49 50  1  0  0  0  0
 50 51  1  0  0  0  0
 51 52  1  0  0  0  0
 52 53  1  0  0  0  0
 53 54  1  0  0  0  0
 54 49  1  0  0  0  0
 51 55  1  1  0  0  0
 50 56  1  6  0  0  0
 52 57  1  6  0  0  0
 58 59  1  0  0  0  0
 59 60  1  0  0  0  0
 60 61  1  0  0  0  0
 61 62  1  0  0  0  0
 62 63  1  0  0  0  0
 63 58  1  0  0  0  0
 60 64  1  1  0  0  0
 59 65  1  6  0  0  0
 61 66  1  6  0  0  0
 67 68  1  0  0  0  0
 68 69  1  0  0  0  0
 69 70  1  0  0  0  0
 70 71  1  0  0  0  0
 71 72  1  0  0  0  0
 72 67  1  0  0  0  0
 67 73  1  1  0  0  0
 69 74  1  1  0  0  0
 68 75  1  6  0  0  0
 70 76  1  6  0  0  0
 73 77  1  0  0  0  0
 42 56  1  1  0  0  0
 62 47  1  1  0  0  0
 71 57  1  1  0  0  0
 53 23  1  1  0  0  0
M  END
>  <cdx:fragmentId>
330

$$$$
