783510.cdx
  Mrv1902 05222410202D          

 26 29  0  0  0  0            999 V2000
    8.0151   -8.0865    0.0000 C   0  0  2  0  0  0  0  0  0  0  0  0
    8.3008   -8.8605    0.0000 C   0  0  2  0  0  0  0  0  0  0  0  0
    9.1140   -9.0000    0.0000 C   0  0  0  0  0  0  0  0  0  0  0  0
    9.6413   -8.3655    0.0000 C   0  0  0  0  0  0  0  0  0  0  0  0
    9.3556   -7.5916    0.0000 C   0  0  1  0  0  0  0  0  0  0  0  0
    8.5425   -7.4521    0.0000 C   0  0  1  0  0  0  0  0  0  0  0  0
    7.1907   -8.1191    0.0000 C   0  0  2  0  0  0  0  0  0  0  0  0
    6.9670   -8.9132    0.0000 C   0  0  2  0  0  0  0  0  0  0  0  0
    7.6531   -9.3714    0.0000 C   0  0  1  0  0  0  0  0  0  0  0  0
    6.5047   -7.6610    0.0000 C   0  0  0  0  0  0  0  0  0  0  0  0
    5.8569   -8.1719    0.0000 C   0  0  0  0  0  0  0  0  0  0  0  0
    6.1427   -8.9458    0.0000 C   0  0  0  0  0  0  0  0  0  0  0  0
    6.5451   -6.8370    0.0000 C   0  0  0  0  0  0  0  0  0  0  0  0
    5.0714   -7.9196    0.0000 C   0  0  0  0  0  0  0  0  0  0  0  0
    4.8972   -7.1132    0.0000 C   0  0  0  0  0  0  0  0  0  0  0  0
    4.4602   -8.4736    0.0000 C   0  0  0  0  0  0  0  0  0  0  0  0
    7.4431   -7.3337    0.0000 O   0  0  0  0  0  0  0  0  0  0  0  0
    8.6778   -9.5943    0.0000 O   0  0  0  0  0  0  0  0  0  0  0  0
    9.9668   -7.0375    0.0000 C   0  0  0  0  0  0  0  0  0  0  0  0
    8.1655   -6.7183    0.0000 O   0  0  0  0  0  0  0  0  0  0  0  0
    7.7291   -8.8260    0.0000 O   0  0  0  0  0  0  0  0  0  0  0  0
    6.8620   -9.6645    0.0000 C   0  0  0  0  0  0  0  0  0  0  0  0
    7.2880   -9.9607    0.0000 C   0  0  0  0  0  0  0  0  0  0  0  0
    6.0556   -9.8387    0.0000 O   0  0  0  0  0  0  0  0  0  0  0  0
    8.0656  -10.0859    0.0000 C   0  0  0  0  0  0  0  0  0  0  0  0
    6.3558   -9.4673    0.0000 O   0  0  0  0  0  0  0  0  0  0  0  0
  1  2  1  0  0  0  0
  2  3  1  0  0  0  0
  3  4  1  0  0  0  0
  4  5  1  0  0  0  0
  5  6  1  0  0  0  0
  6  1  1  0  0  0  0
  1  7  1  0  0  0  0
  7  8  1  0  0  0  0
  9  2  1  0  0  0  0
  7 10  1  0  0  0  0
 10 11  2  0  0  0  0
 11 12  1  0  0  0  0
 12  8  1  0  0  0  0
 10 13  1  0  0  0  0
 11 14  1  0  0  0  0
 14 15  1  0  0  0  0
 14 16  1  0  0  0  0
  7 17  1  1  0  0  0
  2 18  1  1  0  0  0
  5 19  1  1  0  0  0
  6 20  1  6  0  0  0
  1 21  1  6  0  0  0
 21 22  1  0  0  0  0
  9 23  1  6  0  0  0
 22 23  1  0  0  0  0
 22 24  2  0  0  0  0
  8  9  1  0  0  0  0
  9 25  1  0  0  0  0
  8 26  1  1  0  0  0
M  END
>  <cdx:fragmentId>
5

$$$$
