7835.cdx
  Mrv1902 05222410262D          

 78 87  0  0  0  0            999 V2000
    8.3339   -8.6618    0.0000 C   0  0  0  0  0  0  0  0  0  0  0  0
    8.3248   -9.4868    0.0000 C   0  0  1  0  0  0  0  0  0  0  0  0
    9.0347   -9.9071    0.0000 C   0  0  1  0  0  0  0  0  0  0  0  0
    9.7537   -9.5024    0.0000 C   0  0  1  0  0  0  0  0  0  0  0  0
    9.7627   -8.6775    0.0000 C   0  0  2  0  0  0  0  0  0  0  0  0
    9.0528   -8.2572    0.0000 C   0  0  0  0  0  0  0  0  0  0  0  0
   10.4636   -9.9227    0.0000 C   0  0  0  0  0  0  0  0  0  0  0  0
   11.1825   -9.5181    0.0000 C   0  0  0  0  0  0  0  0  0  0  0  0
   11.1916   -8.6931    0.0000 C   0  0  2  0  0  0  0  0  0  0  0  0
   10.4817   -8.2728    0.0000 C   0  0  2  0  0  0  0  0  0  0  0  0
   11.9105   -8.2885    0.0000 C   0  0  1  0  0  0  0  0  0  0  0  0
   11.9196   -7.4635    0.0000 C   0  0  2  0  0  0  0  0  0  0  0  0
   11.2096   -7.0432    0.0000 C   0  0  0  0  0  0  0  0  0  0  0  0
   10.4907   -7.4479    0.0000 C   0  0  0  0  0  0  0  0  0  0  0  0
   12.6204   -8.7088    0.0000 C   0  0  0  0  0  0  0  0  0  0  0  0
   13.3394   -8.3041    0.0000 C   0  0  2  0  0  0  0  0  0  0  0  0
   13.3484   -7.4792    0.0000 C   0  0  2  0  0  0  0  0  0  0  0  0
   12.6385   -7.0589    0.0000 C   0  0  1  0  0  0  0  0  0  0  0  0
   14.0674   -7.0745    0.0000 C   0  0  0  0  0  0  0  0  0  0  0  0
   14.0764   -6.2496    0.0000 C   0  0  0  0  0  0  0  0  0  0  0  0
   13.3665   -5.8293    0.0000 C   0  0  1  0  0  0  0  0  0  0  0  0
   12.6475   -6.2339    0.0000 C   0  0  0  0  0  0  0  0  0  0  0  0
    7.6059   -9.8914    0.0000 O   0  0  0  0  0  0  0  0  0  0  0  0
    8.6144  -10.6170    0.0000 C   0  0  0  0  0  0  0  0  0  0  0  0
    9.7718   -7.8525    0.0000 C   0  0  0  0  0  0  0  0  0  0  0  0
   11.2006   -7.8682    0.0000 C   0  0  0  0  0  0  0  0  0  0  0  0
   12.6295   -7.8838    0.0000 H   0  0  0  0  0  0  0  0  0  0  0  0
   13.7868   -5.1194    0.0000 C   0  0  0  0  0  0  0  0  0  0  0  0
    9.4394  -10.6260    0.0000 C   0  0  0  0  0  0  0  0  0  0  0  0
    9.7446  -10.3274    0.0000 H   0  0  0  0  0  0  0  0  0  0  0  0
   10.4726   -9.0978    0.0000 H   0  0  0  0  0  0  0  0  0  0  0  0
   11.9015   -9.1134    0.0000 C   0  0  0  0  0  0  0  0  0  0  0  0
   12.9618   -5.1103    0.0000 C   0  0  0  0  0  0  0  0  0  0  0  0
   14.0538   -8.7166    0.0000 O   0  0  0  0  0  0  0  0  0  0  0  0
   11.9286   -6.6386    0.0000 O   0  0  0  0  0  0  0  0  0  0  0  0
   13.3574   -6.6542    0.0000 C   0  0  0  0  0  0  0  0  0  0  0  0
   13.7777   -5.9443    0.0000 O   0  0  0  0  0  0  0  0  0  0  0  0
    5.5624   -6.1330    0.0000 C   0  0  2  0  0  0  0  0  0  0  0  0
    4.8569   -5.7054    0.0000 C   0  0  2  0  0  0  0  0  0  0  0  0
    4.1338   -6.1025    0.0000 C   0  0  1  0  0  0  0  0  0  0  0  0
    4.1162   -6.9273    0.0000 C   0  0  2  0  0  0  0  0  0  0  0  0
    4.8217   -7.3550    0.0000 C   0  0  1  0  0  0  0  0  0  0  0  0
    5.5448   -6.9578    0.0000 O   0  0  0  0  0  0  0  0  0  0  0  0
    6.2855   -5.7358    0.0000 C   0  0  0  0  0  0  0  0  0  0  0  0
    3.4283   -5.6749    0.0000 O   0  0  0  0  0  0  0  0  0  0  0  0
    4.8745   -4.8805    0.0000 O   0  0  0  0  0  0  0  0  0  0  0  0
    3.3931   -7.3245    0.0000 O   0  0  0  0  0  0  0  0  0  0  0  0
    6.3031   -4.9110    0.0000 O   0  0  0  0  0  0  0  0  0  0  0  0
    6.2270   -8.2264    0.0000 C   0  0  0  0  0  0  0  0  0  0  0  0
    5.5016   -8.6194    0.0000 C   0  0  2  0  0  0  0  0  0  0  0  0
    5.4792   -9.4441    0.0000 C   0  0  1  0  0  0  0  0  0  0  0  0
    6.1823   -9.8758    0.0000 C   0  0  2  0  0  0  0  0  0  0  0  0
    6.9076   -9.4828    0.0000 C   0  0  1  0  0  0  0  0  0  0  0  0
    6.9300   -8.6581    0.0000 O   0  0  0  0  0  0  0  0  0  0  0  0
    4.7538   -9.8371    0.0000 O   0  0  0  0  0  0  0  0  0  0  0  0
    4.7985   -8.1877    0.0000 O   0  0  0  0  0  0  0  0  0  0  0  0
    6.1599  -10.7005    0.0000 O   0  0  0  0  0  0  0  0  0  0  0  0
    2.0184   -5.6429    0.0000 C   0  0  0  0  0  0  0  0  0  0  0  0
    1.2930   -6.0359    0.0000 C   0  0  2  0  0  0  0  0  0  0  0  0
    1.2707   -6.8606    0.0000 C   0  0  1  0  0  0  0  0  0  0  0  0
    1.9737   -7.2923    0.0000 C   0  0  2  0  0  0  0  0  0  0  0  0
    2.6991   -6.8993    0.0000 C   0  0  1  0  0  0  0  0  0  0  0  0
    2.7215   -6.0746    0.0000 O   0  0  0  0  0  0  0  0  0  0  0  0
    0.5453   -7.2536    0.0000 O   0  0  0  0  0  0  0  0  0  0  0  0
    0.5900   -5.6042    0.0000 O   0  0  0  0  0  0  0  0  0  0  0  0
    1.9514   -8.1170    0.0000 O   0  0  0  0  0  0  0  0  0  0  0  0
    4.0106  -11.0618    0.0000 C   0  0  2  0  0  0  0  0  0  0  0  0
    3.9901  -11.8865    0.0000 C   0  0  2  0  0  0  0  0  0  0  0  0
    4.6942  -12.3166    0.0000 C   0  0  1  0  0  0  0  0  0  0  0  0
    5.4186  -11.9219    0.0000 C   0  0  2  0  0  0  0  0  0  0  0  0
    5.4391  -11.0972    0.0000 C   0  0  1  0  0  0  0  0  0  0  0  0
    4.7350  -10.6671    0.0000 O   0  0  0  0  0  0  0  0  0  0  0  0
    3.3065  -10.6317    0.0000 C   0  0  0  0  0  0  0  0  0  0  0  0
    4.6737  -13.1413    0.0000 O   0  0  0  0  0  0  0  0  0  0  0  0
    3.2657  -12.2812    0.0000 O   0  0  0  0  0  0  0  0  0  0  0  0
    6.1227  -12.3520    0.0000 O   0  0  0  0  0  0  0  0  0  0  0  0
    2.5821  -11.0264    0.0000 O   0  0  0  0  0  0  0  0  0  0  0  0
   13.3821   -4.4004    0.0000 O   0  0  0  0  0  0  0  0  0  0  0  0
  1  2  1  0  0  0  0
  2  3  1  0  0  0  0
  3  4  1  0  0  0  0
  4  5  1  0  0  0  0
  5  6  1  0  0  0  0
  6  1  1  0  0  0  0
  4  7  1  0  0  0  0
  7  8  1  0  0  0  0
  8  9  1  0  0  0  0
  9 10  1  0  0  0  0
 10  5  1  0  0  0  0
  9 11  1  0  0  0  0
 11 12  1  0  0  0  0
 12 13  1  0  0  0  0
 13 14  1  0  0  0  0
 14 10  1  0  0  0  0
 11 15  1  0  0  0  0
 15 16  1  0  0  0  0
 16 17  1  0  0  0  0
 17 18  1  0  0  0  0
 18 12  1  0  0  0  0
 17 19  1  0  0  0  0
 19 20  1  0  0  0  0
 20 21  1  0  0  0  0
 21 22  1  0  0  0  0
 22 18  1  0  0  0  0
  2 23  1  1  0  0  0
  3 24  1  1  0  0  0
  5 25  1  1  0  0  0
  9 26  1  1  0  0  0
 18 27  1  1  0  0  0
 21 28  1  1  0  0  0
  3 29  1  6  0  0  0
  4 30  1  6  0  0  0
 10 31  1  6  0  0  0
 11 32  1  6  0  0  0
 21 33  1  6  0  0  0
 16 34  1  6  0  0  0
 12 35  1  1  0  0  0
 17 36  1  1  0  0  0
 35 36  1  0  0  0  0
 36 37  2  0  0  0  0
 38 39  1  0  0  0  0
 39 40  1  0  0  0  0
 40 41  1  0  0  0  0
 41 42  1  0  0  0  0
 42 43  1  0  0  0  0
 43 38  1  0  0  0  0
 38 44  1  1  0  0  0
 40 45  1  1  0  0  0
 39 46  1  6  0  0  0
 41 47  1  6  0  0  0
 44 48  1  0  0  0  0
 49 50  1  0  0  0  0
 50 51  1  0  0  0  0
 51 52  1  0  0  0  0
 52 53  1  0  0  0  0
 53 54  1  0  0  0  0
 54 49  1  0  0  0  0
 51 55  1  1  0  0  0
 50 56  1  6  0  0  0
 52 57  1  6  0  0  0
 58 59  1  0  0  0  0
 59 60  1  0  0  0  0
 60 61  1  0  0  0  0
 61 62  1  0  0  0  0
 62 63  1  0  0  0  0
 63 58  1  0  0  0  0
 60 64  1  1  0  0  0
 59 65  1  6  0  0  0
 61 66  1  6  0  0  0
 67 68  1  0  0  0  0
 68 69  1  0  0  0  0
 69 70  1  0  0  0  0
 70 71  1  0  0  0  0
 71 72  1  0  0  0  0
 72 67  1  0  0  0  0
 67 73  1  1  0  0  0
 69 74  1  1  0  0  0
 68 75  1  6  0  0  0
 70 76  1  6  0  0  0
 73 77  1  0  0  0  0
 42 56  1  1  0  0  0
 62 47  1  1  0  0  0
 71 57  1  1  0  0  0
 28 78  2  0  0  0  0
 53 23  1  1  0  0  0
M  END
>  <cdx:fragmentId>
333

$$$$
