7837.cdx
  Mrv1902 05222410272D          

 10 10  0  0  0  0            999 V2000
    6.4777   -4.4146    0.0000 C   0  0  0  0  0  0  0  0  0  0  0  0
    5.7632   -4.8271    0.0000 C   0  0  0  0  0  0  0  0  0  0  0  0
    5.7632   -5.6521    0.0000 C   0  0  0  0  0  0  0  0  0  0  0  0
    6.4777   -3.5896    0.0000 O   0  0  0  0  0  0  0  0  0  0  0  0
    7.1921   -4.8271    0.0000 O   0  0  0  0  0  0  0  0  0  0  0  0
    5.0487   -4.4146    0.0000 C   0  0  0  0  0  0  0  0  0  0  0  0
    7.9066   -4.4146    0.0000 C   0  0  0  0  0  0  0  0  0  0  0  0
    9.0336   -5.5415    0.0000 O   0  0  0  0  0  0  0  0  0  0  0  0
    8.6211   -4.8271    0.0000 C   0  0  0  0  0  0  0  0  0  0  0  0
    9.4461   -4.8271    0.0000 C   0  0  0  0  0  0  0  0  0  0  0  0
  1  2  1  0  0  0  0
  2  3  2  0  0  0  0
  1  4  2  0  0  0  0
  1  5  1  0  0  0  0
  2  6  1  0  0  0  0
  8  9  1  0  0  0  0
  9 10  1  0  0  0  0
  8 10  1  0  0  0  0
  7  9  1  0  0  0  0
  5  7  1  0  0  0  0
M  END
>  <cdx:fragmentId>
5

$$$$
