11783899.cdx
  Mrv1902 05222410262D          

 28 29  0  0  0  0            999 V2000
    8.8802  -11.1699    0.0000 C   0  0  0  0  0  0  0  0  0  0  0  0
    9.5947  -11.5824    0.0000 C   0  0  0  0  0  0  0  0  0  0  0  0
    9.5947  -12.4074    0.0000 C   0  0  0  0  0  0  0  0  0  0  0  0
    8.8802  -12.8199    0.0000 C   0  0  0  0  0  0  0  0  0  0  0  0
    8.1657  -12.4074    0.0000 C   0  0  0  0  0  0  0  0  0  0  0  0
    8.1657  -11.5824    0.0000 C   0  0  0  0  0  0  0  0  0  0  0  0
    8.8802  -10.3449    0.0000 O   0  0  0  0  0  0  0  0  0  0  0  0
   10.3091  -11.1699    0.0000 O   0  0  0  0  0  0  0  0  0  0  0  0
    8.8802  -13.6449    0.0000 C   0  0  0  0  0  0  0  0  0  0  0  0
    8.1657  -14.0574    0.0000 C   0  0  0  0  0  0  0  0  0  0  0  0
    8.1657  -14.8824    0.0000 C   0  0  0  0  0  0  0  0  0  0  0  0
    7.4512  -15.2949    0.0000 C   0  0  0  0  0  0  0  0  0  0  0  0
    7.4512  -16.1199    0.0000 C   0  0  0  0  0  0  0  0  0  0  0  0
    8.1657  -16.5324    0.0000 C   0  0  0  0  0  0  0  0  0  0  0  0
    8.8802  -16.1199    0.0000 C   0  0  0  0  0  0  0  0  0  0  0  0
    8.8802  -15.2949    0.0000 C   0  0  0  0  0  0  0  0  0  0  0  0
    6.7368  -14.8824    0.0000 C   0  0  0  0  0  0  0  0  0  0  0  0
    6.7368  -14.0574    0.0000 C   0  0  0  0  0  0  0  0  0  0  0  0
    6.0223  -13.6449    0.0000 C   0  0  0  0  0  0  0  0  0  0  0  0
    5.3078  -14.0574    0.0000 C   0  0  0  0  0  0  0  0  0  0  0  0
    6.0223  -12.8199    0.0000 C   0  0  0  0  0  0  0  0  0  0  0  0
    6.7368  -16.5324    0.0000 O   0  0  0  0  0  0  0  0  0  0  0  0
    6.0223  -16.1199    0.0000 C   0  0  0  0  0  0  0  0  0  0  0  0
    5.3078  -16.5324    0.0000 C   0  0  0  0  0  0  0  0  0  0  0  0
    4.5934  -16.1199    0.0000 C   0  0  0  0  0  0  0  0  0  0  0  0
    3.8789  -16.5324    0.0000 C   0  0  0  0  0  0  0  0  0  0  0  0
    4.5934  -15.2949    0.0000 C   0  0  0  0  0  0  0  0  0  0  0  0
    9.5947  -16.5324    0.0000 O   0  0  0  0  0  0  0  0  0  0  0  0
  1  2  1  0  0  0  0
  2  3  2  0  0  0  0
  3  4  1  0  0  0  0
  4  5  2  0  0  0  0
  5  6  1  0  0  0  0
  1  6  2  0  0  0  0
  1  7  1  0  0  0  0
  2  8  1  0  0  0  0
  9 10  1  0  0  0  0
 11 12  1  0  0  0  0
 12 13  2  0  0  0  0
 13 14  1  0  0  0  0
 14 15  2  0  0  0  0
 15 16  1  0  0  0  0
 11 16  2  0  0  0  0
 17 18  1  0  0  0  0
 18 19  2  0  0  0  0
 19 20  1  0  0  0  0
 19 21  1  0  0  0  0
 12 17  1  0  0  0  0
 23 24  1  0  0  0  0
 24 25  2  0  0  0  0
 25 26  1  0  0  0  0
 22 23  1  0  0  0  0
 25 27  1  0  0  0  0
 13 22  1  0  0  0  0
 15 28  1  0  0  0  0
 10 11  1  0  0  0  0
  4  9  1  0  0  0  0
M  END
>  <cdx:fragmentId>
81190

$$$$
