78429.cdx
  Mrv1902 05222410192D          

 11 12  0  0  0  0            999 V2000
    6.2662   -4.0354    0.0000 O   0  0  0  0  0  0  0  0  0  0  0  0
    6.2662   -4.8604    0.0000 C   0  0  0  0  0  0  0  0  0  0  0  0
    5.5517   -5.2729    0.0000 C   0  0  0  0  0  0  0  0  0  0  0  0
    4.8372   -4.8604    0.0000 C   0  0  0  0  0  0  0  0  0  0  0  0
    4.1228   -5.2729    0.0000 C   0  0  0  0  0  0  0  0  0  0  0  0
    3.4083   -4.8604    0.0000 C   0  0  0  0  0  0  0  0  0  0  0  0
    3.4083   -4.0354    0.0000 C   0  0  0  0  0  0  0  0  0  0  0  0
    4.1228   -3.6229    0.0000 C   0  0  0  0  0  0  0  0  0  0  0  0
    4.8372   -4.0354    0.0000 C   0  0  0  0  0  0  0  0  0  0  0  0
    5.5517   -3.6229    0.0000 C   0  0  0  0  0  0  0  0  0  0  0  0
    5.5517   -2.7979    0.0000 O   0  0  0  0  0  0  0  0  0  0  0  0
  1  2  1  0  0  0  0
  2  3  1  0  0  0  0
  3  4  1  0  0  0  0
  4  5  1  0  0  0  0
  5  6  2  0  0  0  0
  6  7  1  0  0  0  0
  7  8  2  0  0  0  0
  8  9  1  0  0  0  0
  4  9  2  0  0  0  0
  9 10  1  0  0  0  0
  1 10  1  0  0  0  0
 10 11  2  0  0  0  0
M  END
>  <cdx:groupId>
36

>  <cdx:fragmentId>
5

$$$$
