78453.cdx
  Mrv1902 05222410252D          

 10 10  0  0  0  0            999 V2000
    3.7597   -3.9288    0.0000 C   0  0  0  0  0  0  0  0  0  0  0  0
    3.0452   -3.5163    0.0000 C   0  0  0  0  0  0  0  0  0  0  0  0
    3.0452   -2.6913    0.0000 C   0  0  0  0  0  0  0  0  0  0  0  0
    3.7597   -2.2788    0.0000 C   0  0  0  0  0  0  0  0  0  0  0  0
    4.4741   -2.6913    0.0000 C   0  0  0  0  0  0  0  0  0  0  0  0
    4.4741   -3.5163    0.0000 C   0  0  0  0  0  0  0  0  0  0  0  0
    4.8866   -1.9768    0.0000 C   0  0  0  0  0  0  0  0  0  0  0  0
    5.2991   -2.6913    0.0000 C   0  0  0  0  0  0  0  0  0  0  0  0
    2.3307   -2.2788    0.0000 C   0  0  0  0  0  0  0  0  0  0  0  0
    3.7597   -4.7538    0.0000 C   0  0  0  0  0  0  0  0  0  0  0  0
  1  2  2  0  0  0  0
  2  3  1  0  0  0  0
  3  4  2  0  0  0  0
  4  5  1  0  0  0  0
  5  6  1  0  0  0  0
  1  6  1  0  0  0  0
  5  7  1  0  0  0  0
  5  8  1  0  0  0  0
  3  9  1  0  0  0  0
  1 10  1  0  0  0  0
M  END
>  <cdx:groupId>
32

>  <cdx:fragmentId>
5

$$$$
