7847.cdx
  Mrv1902 05222410252D          

  4  3  0  0  0  0            999 V2000
    4.2140   -2.7372    0.0000 C   0  0  0  0  0  0  0  0  0  0  0  0
    4.9284   -2.3247    0.0000 C   0  0  0  0  0  0  0  0  0  0  0  0
    5.6429   -2.7372    0.0000 C   0  0  0  0  0  0  0  0  0  0  0  0
    3.4995   -2.3247    0.0000 O   0  0  0  0  0  0  0  0  0  0  0  0
  1  2  1  0  0  0  0
  2  3  2  0  0  0  0
  1  4  2  0  0  0  0
M  END
>  <cdx:groupId>
13

>  <cdx:fragmentId>
5

$$$$
