7848.cdx
  Mrv1902 05222410212D          

  4  3  0  0  0  0            999 V2000
    3.6374   -2.1791    0.0000 C   0  0  0  0  0  0  0  0  0  0  0  0
    4.3518   -1.7666    0.0000 C   0  0  0  0  0  0  0  0  0  0  0  0
    5.0663   -2.1791    0.0000 C   0  0  0  0  0  0  0  0  0  0  0  0
    2.9229   -1.7666    0.0000 S   0  0  0  0  0  0  0  0  0  0  0  0
  1  2  1  0  0  0  0
  2  3  1  0  0  0  0
  1  4  1  0  0  0  0
M  END
>  <cdx:groupId>
13

>  <cdx:fragmentId>
5

$$$$
