7854.cdx
  Mrv1902 05222410242D          

 23 22  0  0  0  0            999 V2000
    7.3632   -5.3782    0.0000 C   0  0  0  0  0  0  0  0  0  0  0  0
    7.3588   -6.2032    0.0000 N   0  0  0  0  0  0  0  0  0  0  0  0
    8.0711   -6.6194    0.0000 C   0  0  0  0  0  0  0  0  0  0  0  0
    8.0668   -7.4444    0.0000 C   0  0  0  0  0  0  0  0  0  0  0  0
    8.7791   -7.8607    0.0000 C   0  0  0  0  0  0  0  0  0  0  0  0
    8.7747   -8.6857    0.0000 C   0  0  0  0  0  0  0  0  0  0  0  0
    9.4870   -9.1019    0.0000 C   0  0  0  0  0  0  0  0  0  0  0  0
    6.6509   -4.9620    0.0000 N   0  0  0  0  0  0  0  0  0  0  0  0
    8.0798   -4.9695    0.0000 N   0  0  0  0  0  0  0  0  0  0  0  0
    9.4827   -9.9269    0.0000 O   0  0  0  0  0  0  0  0  0  0  0  0
   10.2037   -8.6932    0.0000 O   0  0  0  0  0  0  0  0  0  0  0  0
    8.0581   -9.0944    0.0000 N   0  0  0  0  0  0  0  0  0  0  0  0
    7.3458   -8.6782    0.0000 C   0  0  0  0  0  0  0  0  0  0  0  0
    6.6292   -9.0869    0.0000 C   0  0  0  0  0  0  0  0  0  0  0  0
    5.9169   -8.6707    0.0000 C   0  0  2  0  0  0  0  0  0  0  0  0
    5.2003   -9.0794    0.0000 C   0  0  1  0  0  0  0  0  0  0  0  0
    6.6249   -9.9119    0.0000 O   0  0  0  0  0  0  0  0  0  0  0  0
    5.9212   -7.8457    0.0000 O   0  0  0  0  0  0  0  0  0  0  0  0
    4.4880   -8.6632    0.0000 C   0  0  1  0  0  0  0  0  0  0  0  0
    5.1959   -9.9044    0.0000 O   0  0  0  0  0  0  0  0  0  0  0  0
    3.7713   -9.0719    0.0000 C   0  0  0  0  0  0  0  0  0  0  0  0
    4.4923   -7.8382    0.0000 O   0  0  0  0  0  0  0  0  0  0  0  0
    3.0591   -8.6556    0.0000 O   0  0  0  0  0  0  0  0  0  0  0  0
  1  2  2  0  0  0  0
  2  3  1  0  0  0  0
  3  4  1  0  0  0  0
  4  5  1  0  0  0  0
  5  6  1  0  0  0  0
  6  7  1  0  0  0  0
  1  8  1  0  0  0  0
  1  9  1  0  0  0  0
  7 10  2  0  0  0  0
  7 11  1  0  0  0  0
  6 12  1  0  0  0  0
 12 13  1  0  0  0  0
 13 14  1  0  0  0  0
 14 15  1  0  0  0  0
 15 16  1  0  0  0  0
 14 17  2  0  0  0  0
 15 18  1  6  0  0  0
 16 19  1  0  0  0  0
 16 20  1  6  0  0  0
 19 21  1  0  0  0  0
 19 22  1  1  0  0  0
 21 23  1  0  0  0  0
M  END
>  <cdx:fragmentId>
3

$$$$
