7856.cdx
  Mrv1902 05222410232D          

 34 35  0  0  0  0            999 V2000
    7.3632   -5.3782    0.0000 C   0  0  0  0  0  0  0  0  0  0  0  0
    7.3588   -6.2032    0.0000 N   0  0  0  0  0  0  0  0  0  0  0  0
    8.0711   -6.6194    0.0000 C   0  0  0  0  0  0  0  0  0  0  0  0
    8.0668   -7.4444    0.0000 C   0  0  0  0  0  0  0  0  0  0  0  0
    8.7791   -7.8607    0.0000 C   0  0  0  0  0  0  0  0  0  0  0  0
    8.7747   -8.6857    0.0000 C   0  0  0  0  0  0  0  0  0  0  0  0
    9.4870   -9.1019    0.0000 C   0  0  0  0  0  0  0  0  0  0  0  0
    6.6509   -4.9620    0.0000 N   0  0  0  0  0  0  0  0  0  0  0  0
    8.0798   -4.9695    0.0000 N   0  0  0  0  0  0  0  0  0  0  0  0
    9.4827   -9.9269    0.0000 O   0  0  0  0  0  0  0  0  0  0  0  0
   10.2037   -8.6932    0.0000 O   0  0  0  0  0  0  0  0  0  0  0  0
    8.0581   -9.0944    0.0000 N   0  0  0  0  0  0  0  0  0  0  0  0
    7.3458   -8.6782    0.0000 C   0  0  0  0  0  0  0  0  0  0  0  0
    6.6292   -9.0869    0.0000 C   0  0  1  0  0  0  0  0  0  0  0  0
    5.9191   -8.6669    0.0000 O   0  0  0  0  0  0  0  0  0  0  0  0
    5.2003   -9.0869    0.0000 C   0  0  0  0  0  0  0  0  0  0  0  0
    5.2003   -9.9119    0.0000 C   0  0  2  0  0  0  0  0  0  0  0  0
    5.9191  -10.3318    0.0000 C   0  0  2  0  0  0  0  0  0  0  0  0
    6.6292   -9.9119    0.0000 C   0  0  2  0  0  0  0  0  0  0  0  0
    6.6357   -8.2619    0.0000 O   0  0  0  0  0  0  0  0  0  0  0  0
    7.3458  -10.3206    0.0000 O   0  0  0  0  0  0  0  0  0  0  0  0
    5.9213  -11.1568    0.0000 O   0  0  0  0  0  0  0  0  0  0  0  0
    4.4848  -10.3225    0.0000 O   0  0  0  0  0  0  0  0  0  0  0  0
    5.2079  -11.5712    0.0000 C   0  0  2  0  0  0  0  0  0  0  0  0
    4.4913  -11.1625    0.0000 O   0  0  0  0  0  0  0  0  0  0  0  0
    3.7790  -11.5712    0.0000 C   0  0  1  0  0  0  0  0  0  0  0  0
    3.7790  -12.3962    0.0000 C   0  0  2  0  0  0  0  0  0  0  0  0
    4.4913  -12.8049    0.0000 C   0  0  1  0  0  0  0  0  0  0  0  0
    5.2079  -12.3962    0.0000 C   0  0  1  0  0  0  0  0  0  0  0  0
    3.0651  -11.1578    0.0000 C   0  0  0  0  0  0  0  0  0  0  0  0
    4.4902  -13.6299    0.0000 O   0  0  0  0  0  0  0  0  0  0  0  0
    5.9213  -12.8106    0.0000 O   0  0  0  0  0  0  0  0  0  0  0  0
    3.0651  -12.8097    0.0000 O   0  0  0  0  0  0  0  0  0  0  0  0
    2.3500  -11.5693    0.0000 O   0  0  0  0  0  0  0  0  0  0  0  0
  1  2  2  0  0  0  0
  2  3  1  0  0  0  0
  3  4  1  0  0  0  0
  4  5  1  0  0  0  0
  5  6  1  0  0  0  0
  6  7  1  0  0  0  0
  1  8  1  0  0  0  0
  1  9  1  0  0  0  0
  7 10  2  0  0  0  0
  7 11  1  0  0  0  0
  6 12  1  0  0  0  0
 12 13  1  0  0  0  0
 13 14  1  0  0  0  0
 14 15  1  0  0  0  0
 15 16  1  0  0  0  0
 16 17  1  0  0  0  0
 17 18  1  0  0  0  0
 18 19  1  0  0  0  0
 19 14  1  0  0  0  0
 14 20  1  1  0  0  0
 19 21  1  1  0  0  0
 18 22  1  6  0  0  0
 17 23  1  6  0  0  0
 24 22  1  1  0  0  0
 24 25  1  0  0  0  0
 25 26  1  0  0  0  0
 26 27  1  0  0  0  0
 27 28  1  0  0  0  0
 28 29  1  0  0  0  0
 29 24  1  0  0  0  0
 26 30  1  1  0  0  0
 28 31  1  1  0  0  0
 29 32  1  6  0  0  0
 27 33  1  6  0  0  0
 30 34  1  0  0  0  0
M  END
>  <cdx:fragmentId>
3

$$$$
