7858.cdx
  Mrv1902 05222410222D          

  4  3  0  0  0  0            999 V2000
    6.5325   -4.0839    0.0000 C   0  0  0  0  0  0  0  0  0  0  0  0
    7.2470   -3.6714    0.0000 C   0  0  0  0  0  0  0  0  0  0  0  0
    7.9614   -4.0839    0.0000 C   0  0  0  0  0  0  0  0  0  0  0  0
    5.8180   -3.6714    0.0000 O   0  0  0  0  0  0  0  0  0  0  0  0
  1  2  1  0  0  0  0
  2  3  2  0  0  0  0
  1  4  1  0  0  0  0
M  END
>  <cdx:groupId>
13

>  <cdx:fragmentId>
5

$$$$
