7859.cdx
  Mrv1902 05222410222D          

  4  3  0  0  0  0            999 V2000
    7.2615   -3.9397    0.0000 C   0  0  0  0  0  0  0  0  0  0  0  0
    6.5470   -4.3522    0.0000 C   0  0  0  0  0  0  0  0  0  0  0  0
    5.8326   -4.7647    0.0000 C   0  0  0  0  0  0  0  0  0  0  0  0
    7.9760   -4.3522    0.0000 O   0  0  0  0  0  0  0  0  0  0  0  0
  1  2  1  0  0  0  0
  2  3  3  0  0  0  0
  1  4  1  0  0  0  0
M  END
>  <cdx:fragmentId>
5

$$$$
