78646.cdx
  Mrv1902 05222410252D          

 10 10  0  0  0  0            999 V2000
    8.4382   -5.0658    0.0000 C   0  0  0  0  0  0  0  0  0  0  0  0
    6.9700   -5.1427    0.0000 N   0  0  0  0  0  0  0  0  0  0  0  0
    7.7237   -5.4783    0.0000 C   0  0  1  0  0  0  0  0  0  0  0  0
    7.6375   -6.2988    0.0000 C   0  0  0  0  0  0  0  0  0  0  0  0
    6.8305   -6.4703    0.0000 C   0  0  0  0  0  0  0  0  0  0  0  0
    6.4180   -5.7558    0.0000 C   0  0  0  0  0  0  0  0  0  0  0  0
    5.5975   -5.6696    0.0000 O   0  0  0  0  0  0  0  0  0  0  0  0
    8.4382   -4.2408    0.0000 O   0  0  0  0  0  0  0  0  0  0  0  0
    9.1526   -5.4783    0.0000 O   0  0  0  0  0  0  0  0  0  0  0  0
    9.8671   -5.0658    0.0000 C   0  0  0  0  0  0  0  0  0  0  0  0
  2  3  1  0  0  0  0
  3  1  1  6  0  0  0
  3  4  1  0  0  0  0
  4  5  1  0  0  0  0
  5  6  1  0  0  0  0
  6  7  2  0  0  0  0
  2  6  1  0  0  0  0
  1  8  2  0  0  0  0
  1  9  1  0  0  0  0
  9 10  1  0  0  0  0
M  END
>  <cdx:fragmentId>
7

$$$$
