786429.cdx
  Mrv1902 05222410242D          

 30 33  0  0  0  0            999 V2000
    7.5243   -9.7977    0.0000 C   0  0  0  0  0  0  0  0  0  0  0  0
    7.5243   -8.9727    0.0000 C   0  0  2  0  0  0  0  0  0  0  0  0
    8.2388   -8.5602    0.0000 C   0  0  1  0  0  0  0  0  0  0  0  0
    8.9532   -8.9727    0.0000 C   0  0  0  0  0  0  0  0  0  0  0  0
    9.6677   -8.5602    0.0000 C   0  0  0  0  0  0  0  0  0  0  0  0
   10.3822   -8.9727    0.0000 C   0  0  0  0  0  0  0  0  0  0  0  0
   10.3822   -9.7977    0.0000 C   0  0  0  0  0  0  0  0  0  0  0  0
    9.6677  -10.2102    0.0000 C   0  0  0  0  0  0  0  0  0  0  0  0
    8.9532   -9.7977    0.0000 C   0  0  0  0  0  0  0  0  0  0  0  0
    8.2388  -10.2102    0.0000 O   0  0  0  0  0  0  0  0  0  0  0  0
   11.0967   -8.5602    0.0000 C   0  0  0  0  0  0  0  0  0  0  0  0
   11.0967   -7.7352    0.0000 C   0  0  0  0  0  0  0  0  0  0  0  0
   10.3822   -7.3227    0.0000 C   0  0  0  0  0  0  0  0  0  0  0  0
    9.6677   -7.7352    0.0000 O   0  0  0  0  0  0  0  0  0  0  0  0
   10.3822   -6.4977    0.0000 O   0  0  0  0  0  0  0  0  0  0  0  0
    7.1118  -10.5121    0.0000 C   0  0  0  0  0  0  0  0  0  0  0  0
    6.6993   -9.7977    0.0000 C   0  0  0  0  0  0  0  0  0  0  0  0
    8.2388   -7.7352    0.0000 O   0  0  0  0  0  0  0  0  0  0  0  0
    5.9783   -9.9853    0.0000 O   0  0  0  0  0  0  0  0  0  0  0  0
    4.3283   -9.9778    0.0000 O   0  0  0  0  0  0  0  0  0  0  0  0
    3.5099   -8.5451    0.0000 O   0  0  0  0  0  0  0  0  0  0  0  0
    3.5164   -7.1161    0.0000 O   0  0  0  0  0  0  0  0  0  0  0  0
    4.3414   -7.1199    0.0000 C   0  0  0  0  0  0  0  0  0  0  0  0
    4.7506   -7.8363    0.0000 C   0  0  2  0  0  0  0  0  0  0  0  0
    4.3349   -8.5488    0.0000 C   0  0  2  0  0  0  0  0  0  0  0  0
    4.7441   -9.2652    0.0000 C   0  0  1  0  0  0  0  0  0  0  0  0
    5.5691   -9.2690    0.0000 C   0  0  2  0  0  0  0  0  0  0  0  0
    5.9848   -8.5564    0.0000 C   0  0  1  0  0  0  0  0  0  0  0  0
    5.5756   -7.8400    0.0000 O   0  0  0  0  0  0  0  0  0  0  0  0
    6.8098   -8.5602    0.0000 O   0  0  0  0  0  0  0  0  0  0  0  0
 28 30  1  1  0  0  0
 27 19  1  6  0  0  0
 26 20  1  1  0  0  0
 25 21  1  6  0  0  0
 24 23  1  1  0  0  0
 23 22  1  0  0  0  0
 29 24  1  0  0  0  0
 25 24  1  0  0  0  0
 26 25  1  0  0  0  0
 27 26  1  0  0  0  0
 28 27  1  0  0  0  0
 29 28  1  0  0  0  0
  1  2  1  0  0  0  0
  2  3  1  0  0  0  0
  3  4  1  0  0  0  0
  4  5  1  0  0  0  0
  5  6  2  0  0  0  0
  6  7  1  0  0  0  0
  7  8  2  0  0  0  0
  8  9  1  0  0  0  0
  4  9  2  0  0  0  0
  9 10  1  0  0  0  0
  1 10  1  0  0  0  0
 11 12  2  0  0  0  0
 12 13  1  0  0  0  0
 13 14  1  0  0  0  0
 14  5  1  0  0  0  0
 11  6  1  0  0  0  0
 13 15  2  0  0  0  0
  2 30  1  1  0  0  0
  1 16  1  0  0  0  0
  1 17  1  0  0  0  0
  3 18  1  6  0  0  0
M  END
>  <cdx:fragmentId>
145436

$$$$
