7865.cdx
  Mrv1902 05222410222D          

  4  3  0  0  0  0            999 V2000
    3.5540   -2.5305    0.0000 C   0  0  0  0  0  0  0  0  0  0  0  0
    2.8395   -2.1180    0.0000 O   0  0  0  0  0  0  0  0  0  0  0  0
    4.2684   -2.1180    0.0000 O   0  0  0  0  0  0  0  0  0  0  0  0
    4.9829   -2.5305    0.0000 C   0  0  0  0  0  0  0  0  0  0  0  0
  1  2  2  0  0  0  0
  1  3  1  0  0  0  0
  3  4  1  0  0  0  0
M  END
>  <cdx:groupId>
13

>  <cdx:fragmentId>
5

$$$$
