2786702.cdx
  Mrv1902 05222410282D          

 11 11  0  0  0  0            999 V2000
   13.9447   -8.4281    0.0000 C   0  0  0  0  0  0  0  0  0  0  0  0
   13.9447   -9.2531    0.0000 C   0  0  0  0  0  0  0  0  0  0  0  0
   14.6591   -9.6656    0.0000 N   0  0  0  0  0  0  0  0  0  0  0  0
   15.3736   -9.2531    0.0000 C   0  0  0  0  0  0  0  0  0  0  0  0
   15.3736   -8.4281    0.0000 C   0  0  0  0  0  0  0  0  0  0  0  0
   14.6591   -8.0156    0.0000 C   0  0  0  0  0  0  0  0  0  0  0  0
   14.6591   -7.1906    0.0000 O   0  0  0  0  0  0  0  0  0  0  0  0
   15.3736   -6.7781    0.0000 C   0  0  0  0  0  0  0  0  0  0  0  0
   16.0881   -9.6656    0.0000 O   0  0  0  0  0  0  0  0  0  0  0  0
   16.0881   -8.0156    0.0000 C   0  0  0  0  0  0  0  0  0  0  0  0
   16.8025   -7.6031    0.0000 N   0  0  0  0  0  0  0  0  0  0  0  0
  6  7  1  0  0  0  0
  3  4  1  0  0  0  0
  7  8  1  0  0  0  0
  5 10  1  0  0  0  0
  4  9  2  0  0  0  0
  4  5  1  0  0  0  0
  2  3  1  0  0  0  0
  5  6  2  0  0  0  0
  6  1  1  0  0  0  0
  1  2  2  0  0  0  0
 10 11  3  0  0  0  0
M  END
>  <cdx:fragmentId>
17578

$$$$
