787197.cdx
  Mrv1902 05222410262D          

 28 28  0  0  0  0            999 V2000
    2.5318   -7.4478    0.0000 O   0  0  0  0  0  0  0  0  0  0  0  0
   13.2488   -6.2103    0.0000 O   0  0  0  0  0  0  0  0  0  0  0  0
   12.5344   -5.7978    0.0000 C   0  0  0  0  0  0  0  0  0  0  0  0
   11.8199   -6.2103    0.0000 C   0  0  0  0  0  0  0  0  0  0  0  0
   11.1054   -5.7978    0.0000 C   0  0  0  0  0  0  0  0  0  0  0  0
   10.3909   -6.2103    0.0000 C   0  0  0  0  0  0  0  0  0  0  0  0
    9.6765   -6.6228    0.0000 C   0  0  0  0  0  0  0  0  0  0  0  0
    8.9620   -7.0353    0.0000 C   0  0  0  0  0  0  0  0  0  0  0  0
    8.2475   -7.4478    0.0000 C   0  0  0  0  0  0  0  0  0  0  0  0
    7.5331   -7.8603    0.0000 C   0  0  0  0  0  0  0  0  0  0  0  0
    6.8186   -7.4478    0.0000 C   0  0  0  0  0  0  0  0  0  0  0  0
    6.1041   -7.8603    0.0000 C   0  0  0  0  0  0  0  0  0  0  0  0
    5.3896   -7.4478    0.0000 C   0  0  0  0  0  0  0  0  0  0  0  0
    4.6752   -7.8603    0.0000 C   0  0  0  0  0  0  0  0  0  0  0  0
    3.9607   -7.4478    0.0000 C   0  0  0  0  0  0  0  0  0  0  0  0
    3.2462   -7.8603    0.0000 C   0  0  0  0  0  0  0  0  0  0  0  0
    6.1041   -8.6853    0.0000 O   0  0  0  0  0  0  0  0  0  0  0  0
    2.5318   -9.0978    0.0000 O   0  0  0  0  0  0  0  0  0  0  0  0
    3.2462   -8.6853    0.0000 C   0  0  0  0  0  0  0  0  0  0  0  0
    3.2462  -10.3353    0.0000 O   0  0  0  0  0  0  0  0  0  0  0  0
    4.6752  -11.1603    0.0000 O   0  0  0  0  0  0  0  0  0  0  0  0
    6.1041  -10.3353    0.0000 O   0  0  0  0  0  0  0  0  0  0  0  0
    3.9607   -9.0978    0.0000 C   0  0  2  0  0  0  0  0  0  0  0  0
    3.9607   -9.9228    0.0000 C   0  0  2  0  0  0  0  0  0  0  0  0
    4.6752  -10.3353    0.0000 C   0  0  1  0  0  0  0  0  0  0  0  0
    5.3896   -9.9228    0.0000 C   0  0  2  0  0  0  0  0  0  0  0  0
    5.3896   -9.0978    0.0000 C   0  0  1  0  0  0  0  0  0  0  0  0
    4.6752   -8.6853    0.0000 O   0  0  0  0  0  0  0  0  0  0  0  0
 27 17  1  1  0  0  0
 17 12  1  0  0  0  0
 16  1  1  0  0  0  0
  3  2  1  0  0  0  0
  4  3  1  0  0  0  0
  5  4  2  0  0  0  0
  6  5  1  0  0  0  0
  7  6  3  0  0  0  0
  8  7  1  0  0  0  0
  9  8  3  0  0  0  0
 10  9  1  0  0  0  0
 11 10  2  0  0  0  0
 12 11  1  0  0  0  0
 13 12  1  0  0  0  0
 14 13  1  0  0  0  0
 15 14  1  0  0  0  0
 16 15  1  0  0  0  0
 23 19  1  1  0  0  0
 19 18  1  0  0  0  0
 24 20  1  6  0  0  0
 25 21  1  1  0  0  0
 26 22  1  6  0  0  0
 28 23  1  0  0  0  0
 24 23  1  0  0  0  0
 25 24  1  0  0  0  0
 26 25  1  0  0  0  0
 27 26  1  0  0  0  0
 28 27  1  0  0  0  0
M  END
>  <cdx:fragmentId>
147299

$$$$
