7873.cdx
  Mrv1902 05222410232D          

 26 29  0  0  0  0            999 V2000
    5.6690   -8.9897    0.0000 C   0  0  0  0  0  0  0  0  0  0  0  0
    6.3951   -9.3814    0.0000 C   0  0  0  0  0  0  0  0  0  0  0  0
    7.0973   -8.9483    0.0000 C   0  0  0  0  0  0  0  0  0  0  0  0
    7.0734   -8.1237    0.0000 C   0  0  0  0  0  0  0  0  0  0  0  0
    6.3473   -7.7320    0.0000 C   0  0  0  0  0  0  0  0  0  0  0  0
    5.6451   -8.1651    0.0000 C   0  0  0  0  0  0  0  0  0  0  0  0
    7.7756   -7.6906    0.0000 C   0  0  0  0  0  0  0  0  0  0  0  0
    7.7517   -6.8660    0.0000 C   0  0  0  0  0  0  0  0  0  0  0  0
    7.0256   -6.4744    0.0000 C   0  0  0  0  0  0  0  0  0  0  0  0
    6.3234   -6.9074    0.0000 C   0  0  0  0  0  0  0  0  0  0  0  0
    7.0017   -5.6497    0.0000 C   0  0  0  0  0  0  0  0  0  0  0  0
    6.2756   -5.2581    0.0000 C   0  0  0  0  0  0  0  0  0  0  0  0
    5.5734   -5.6911    0.0000 C   0  0  0  0  0  0  0  0  0  0  0  0
    5.5973   -6.5158    0.0000 C   0  0  0  0  0  0  0  0  0  0  0  0
    4.7817   -5.4590    0.0000 O   0  0  0  0  0  0  0  0  0  0  0  0
    4.3163   -6.1402    0.0000 C   0  0  0  0  0  0  0  0  0  0  0  0
    4.8204   -6.7933    0.0000 O   0  0  0  0  0  0  0  0  0  0  0  0
    6.4190  -10.2060    0.0000 O   0  0  0  0  0  0  0  0  0  0  0  0
    7.8234   -9.3399    0.0000 O   0  0  0  0  0  0  0  0  0  0  0  0
    8.5257   -8.9069    0.0000 C   0  0  0  0  0  0  0  0  0  0  0  0
    8.4539   -6.4330    0.0000 N   0  3  0  0  0  0  0  0  0  0  0  0
    8.5557   -5.1008    0.0000 O   0  0  0  0  0  0  0  0  0  0  0  0
    7.3499   -4.3339    0.0000 O   0  0  0  0  0  0  0  0  0  0  0  0
    7.7314   -5.0654    0.0000 C   0  0  0  0  0  0  0  0  0  0  0  0
    9.1094   -6.9339    0.0000 O   0  0  0  0  0  0  0  0  0  0  0  0
    8.5601   -5.6148    0.0000 O   0  5  0  0  0  0  0  0  0  0  0  0
  1  2  2  0  0  0  0
  2  3  1  0  0  0  0
  3  4  2  0  0  0  0
  4  5  1  0  0  0  0
  5  6  2  0  0  0  0
  6  1  1  0  0  0  0
  4  7  1  0  0  0  0
  7  8  2  0  0  0  0
  8  9  1  0  0  0  0
  9 10  2  0  0  0  0
 10  5  1  0  0  0  0
  9 11  1  0  0  0  0
 11 12  2  0  0  0  0
 12 13  1  0  0  0  0
 13 14  2  0  0  0  0
 14 10  1  0  0  0  0
 13 15  1  0  0  0  0
 15 16  1  0  0  0  0
 16 17  1  0  0  0  0
 17 14  1  0  0  0  0
  2 18  1  0  0  0  0
  3 19  1  0  0  0  0
 19 20  1  0  0  0  0
  8 21  1  0  0  0  0
 24 22  2  0  0  0  0
 11 24  1  0  0  0  0
 24 23  1  0  0  0  0
 21 25  2  0  0  0  0
 21 26  1  0  0  0  0
M  CHG  2  21   1  26  -1
M  END
>  <cdx:fragmentId>
5

$$$$
