7875.cdx
  Mrv1902 05222410212D          

 26 29  0  0  0  0            999 V2000
    5.6431   -8.9731    0.0000 C   0  0  0  0  0  0  0  0  0  0  0  0
    6.3632   -9.3757    0.0000 C   0  0  0  0  0  0  0  0  0  0  0  0
    7.0719   -8.9534    0.0000 C   0  0  0  0  0  0  0  0  0  0  0  0
    7.0605   -8.1284    0.0000 C   0  0  0  0  0  0  0  0  0  0  0  0
    6.3404   -7.7259    0.0000 C   0  0  0  0  0  0  0  0  0  0  0  0
    5.6317   -8.1482    0.0000 C   0  0  0  0  0  0  0  0  0  0  0  0
    7.7692   -7.7061    0.0000 C   0  0  0  0  0  0  0  0  0  0  0  0
    7.7578   -6.8812    0.0000 C   0  0  0  0  0  0  0  0  0  0  0  0
    7.0377   -6.4786    0.0000 C   0  0  0  0  0  0  0  0  0  0  0  0
    6.3290   -6.9009    0.0000 C   0  0  0  0  0  0  0  0  0  0  0  0
    7.0263   -5.6537    0.0000 C   0  0  0  0  0  0  0  0  0  0  0  0
    6.3061   -5.2511    0.0000 C   0  0  0  0  0  0  0  0  0  0  0  0
    5.5974   -5.6734    0.0000 C   0  0  0  0  0  0  0  0  0  0  0  0
    5.6089   -6.4984    0.0000 C   0  0  0  0  0  0  0  0  0  0  0  0
    4.8094   -5.4294    0.0000 O   0  0  0  0  0  0  0  0  0  0  0  0
    4.3337   -6.1034    0.0000 C   0  0  0  0  0  0  0  0  0  0  0  0
    4.8278   -6.7641    0.0000 O   0  0  0  0  0  0  0  0  0  0  0  0
    6.3746  -10.2006    0.0000 O   0  0  0  0  0  0  0  0  0  0  0  0
    7.7920   -9.3560    0.0000 O   0  0  0  0  0  0  0  0  0  0  0  0
    8.4665   -6.4589    0.0000 N   0  3  0  0  0  0  0  0  0  0  0  0
    8.5884   -5.1284    0.0000 O   0  0  0  0  0  0  0  0  0  0  0  0
    7.3944   -4.3433    0.0000 O   0  0  0  0  0  0  0  0  0  0  0  0
    7.7647   -5.0805    0.0000 C   0  0  0  0  0  0  0  0  0  0  0  0
    9.2387   -6.9047    0.0000 O   0  0  0  0  0  0  0  0  0  0  0  0
    8.4665   -5.7475    0.0000 O   0  5  0  0  0  0  0  0  0  0  0  0
    5.6659  -10.6230    0.0000 C   0  0  0  0  0  0  0  0  0  0  0  0
  1  2  2  0  0  0  0
  2  3  1  0  0  0  0
  3  4  2  0  0  0  0
  4  5  1  0  0  0  0
  5  6  2  0  0  0  0
  6  1  1  0  0  0  0
  4  7  1  0  0  0  0
  7  8  2  0  0  0  0
  8  9  1  0  0  0  0
  9 10  2  0  0  0  0
 10  5  1  0  0  0  0
  9 11  1  0  0  0  0
 11 12  2  0  0  0  0
 12 13  1  0  0  0  0
 13 14  2  0  0  0  0
 14 10  1  0  0  0  0
 13 15  1  0  0  0  0
 15 16  1  0  0  0  0
 16 17  1  0  0  0  0
 17 14  1  0  0  0  0
  2 18  1  0  0  0  0
  3 19  1  0  0  0  0
  8 20  1  0  0  0  0
 23 21  2  0  0  0  0
 11 23  1  0  0  0  0
 23 22  1  0  0  0  0
 20 24  2  0  0  0  0
 20 25  1  0  0  0  0
 18 26  1  0  0  0  0
M  CHG  2  20   1  25  -1
M  END
>  <cdx:fragmentId>
5

$$$$
