787750.cdx
  Mrv1902 05222410272D          

 81 90  0  0  0  0            999 V2000
   14.4005  -12.7099    0.0000 C   0  0  1  0  0  0  0  0  0  0  0  0
   15.1150  -12.2974    0.0000 C   0  0  2  0  0  0  0  0  0  0  0  0
   15.8996  -12.5524    0.0000 C   0  0  0  0  0  0  0  0  0  0  0  0
   16.3845  -11.8849    0.0000 C   0  0  2  0  0  0  0  0  0  0  0  0
   17.1692  -11.6300    0.0000 O   0  0  0  0  0  0  0  0  0  0  0  0
   17.1692  -10.8050    0.0000 C   0  0  2  0  0  0  0  0  0  0  0  0
   16.3845  -10.5500    0.0000 C   0  0  2  0  0  0  0  0  0  0  0  0
   15.8996  -11.2175    0.0000 C   0  0  2  0  0  0  0  0  0  0  0  0
   15.1150  -11.4724    0.0000 C   0  0  1  0  0  0  0  0  0  0  0  0
   14.4005  -11.0599    0.0000 C   0  0  0  0  0  0  0  0  0  0  0  0
   13.6861  -11.4724    0.0000 C   0  0  0  0  0  0  0  0  0  0  0  0
   13.6861  -12.2974    0.0000 C   0  0  2  0  0  0  0  0  0  0  0  0
   12.9716  -12.7099    0.0000 C   0  0  1  0  0  0  0  0  0  0  0  0
   12.2571  -12.2974    0.0000 C   0  0  0  0  0  0  0  0  0  0  0  0
   11.5426  -12.7099    0.0000 C   0  0  0  0  0  0  0  0  0  0  0  0
   11.5426  -13.5349    0.0000 C   0  0  1  0  0  0  0  0  0  0  0  0
   12.2571  -13.9474    0.0000 C   0  0  0  0  0  0  0  0  0  0  0  0
   12.9716  -13.5349    0.0000 C   0  0  2  0  0  0  0  0  0  0  0  0
   13.6861  -13.9474    0.0000 C   0  0  1  0  0  0  0  0  0  0  0  0
   14.4005  -13.5349    0.0000 C   0  0  0  0  0  0  0  0  0  0  0  0
   17.0829   -9.9845    0.0000 O   0  0  0  0  0  0  0  0  0  0  0  0
   17.9228  -11.1405    0.0000 C   0  0  0  0  0  0  0  0  0  0  0  0
   18.5903  -10.6556    0.0000 C   0  0  0  0  0  0  0  0  0  0  0  0
   18.5040   -9.8351    0.0000 C   0  0  2  0  0  0  0  0  0  0  0  0
   17.7504   -9.4996    0.0000 C   0  0  0  0  0  0  0  0  0  0  0  0
   12.9716  -11.8849    0.0000 C   0  0  0  0  0  0  0  0  0  0  0  0
   14.9717  -10.6600    0.0000 C   0  0  0  0  0  0  0  0  0  0  0  0
   16.1296   -9.7654    0.0000 C   0  0  0  0  0  0  0  0  0  0  0  0
   19.1715   -9.3502    0.0000 C   0  0  0  0  0  0  0  0  0  0  0  0
   13.6861  -14.7724    0.0000 O   0  0  0  0  0  0  0  0  0  0  0  0
   14.4005  -11.8849    0.0000 H   0  0  0  0  0  0  0  0  0  0  0  0
   15.1150  -13.1224    0.0000 H   0  0  0  0  0  0  0  0  0  0  0  0
   16.8695  -12.5524    0.0000 H   0  0  0  0  0  0  0  0  0  0  0  0
   15.5380  -10.4760    0.0000 H   0  0  0  0  0  0  0  0  0  0  0  0
   13.6861  -13.1224    0.0000 H   0  0  0  0  0  0  0  0  0  0  0  0
   12.9716  -14.3599    0.0000 H   0  0  0  0  0  0  0  0  0  0  0  0
    7.9706  -13.9052    0.0000 O   0  0  0  0  0  0  0  0  0  0  0  0
    9.3872  -14.7512    0.0000 O   0  0  0  0  0  0  0  0  0  0  0  0
   10.1565  -11.0497    0.0000 O   0  0  0  0  0  0  0  0  0  0  0  0
    9.4360  -11.4516    0.0000 C   0  0  0  0  0  0  0  0  0  0  0  0
   10.8282  -13.9474    0.0000 O   0  0  0  0  0  0  0  0  0  0  0  0
   10.1199  -13.5244    0.0000 C   0  0  1  0  0  0  0  0  0  0  0  0
    9.3994  -13.9263    0.0000 C   0  0  1  0  0  0  0  0  0  0  0  0
    8.6911  -13.5033    0.0000 C   0  0  2  0  0  0  0  0  0  0  0  0
    8.7033  -12.6784    0.0000 C   0  0  2  0  0  0  0  0  0  0  0  0
    9.4238  -12.2765    0.0000 C   0  0  2  0  0  0  0  0  0  0  0  0
   10.1321  -12.6995    0.0000 O   0  0  0  0  0  0  0  0  0  0  0  0
    7.9950  -12.2554    0.0000 O   0  0  0  0  0  0  0  0  0  0  0  0
    8.0438   -8.9557    0.0000 O   0  0  0  0  0  0  0  0  0  0  0  0
    9.4725   -8.9768    0.0000 O   0  0  0  0  0  0  0  0  0  0  0  0
    9.4603   -9.8018    0.0000 C   0  0  0  0  0  0  0  0  0  0  0  0
    5.1374  -12.2131    0.0000 O   0  0  0  0  0  0  0  0  0  0  0  0
    3.7208  -11.3671    0.0000 O   0  0  0  0  0  0  0  0  0  0  0  0
    3.7452   -9.7173    0.0000 O   0  0  0  0  0  0  0  0  0  0  0  0
    4.4779   -8.4905    0.0000 O   0  0  0  0  0  0  0  0  0  0  0  0
    5.1862   -8.9135    0.0000 C   0  0  0  0  0  0  0  0  0  0  0  0
    5.1740   -9.7384    0.0000 C   0  0  2  0  0  0  0  0  0  0  0  0
    4.4535  -10.1403    0.0000 C   0  0  2  0  0  0  0  0  0  0  0  0
    4.4413  -10.9652    0.0000 C   0  0  1  0  0  0  0  0  0  0  0  0
    5.1496  -11.3882    0.0000 C   0  0  2  0  0  0  0  0  0  0  0  0
    5.8701  -10.9863    0.0000 C   0  0  1  0  0  0  0  0  0  0  0  0
    5.8823  -10.1614    0.0000 O   0  0  0  0  0  0  0  0  0  0  0  0
    6.5784  -11.4093    0.0000 O   0  0  0  0  0  0  0  0  0  0  0  0
    8.7399  -10.2037    0.0000 C   0  0  2  0  0  0  0  0  0  0  0  0
    8.0316   -9.7806    0.0000 C   0  0  2  0  0  0  0  0  0  0  0  0
    7.3111  -10.1825    0.0000 C   0  0  1  0  0  0  0  0  0  0  0  0
    7.2989  -11.0074    0.0000 C   0  0  2  0  0  0  0  0  0  0  0  0
    8.0072  -11.4305    0.0000 C   0  0  1  0  0  0  0  0  0  0  0  0
    8.7277  -11.0286    0.0000 O   0  0  0  0  0  0  0  0  0  0  0  0
    6.3903   -9.6326    0.0000 O   0  0  0  0  0  0  0  0  0  0  0  0
    5.0139   -6.0644    0.0000 O   0  0  0  0  0  0  0  0  0  0  0  0
    5.0017   -6.8893    0.0000 C   0  0  0  0  0  0  0  0  0  0  0  0
    6.4427   -6.0855    0.0000 O   0  0  0  0  0  0  0  0  0  0  0  0
    7.8593   -6.9315    0.0000 O   0  0  0  0  0  0  0  0  0  0  0  0
    7.8349   -8.5814    0.0000 O   0  0  0  0  0  0  0  0  0  0  0  0
    5.7100   -7.3123    0.0000 C   0  0  2  0  0  0  0  0  0  0  0  0
    6.4305   -6.9104    0.0000 C   0  0  2  0  0  0  0  0  0  0  0  0
    7.1388   -7.3334    0.0000 C   0  0  1  0  0  0  0  0  0  0  0  0
    7.1266   -8.1583    0.0000 C   0  0  2  0  0  0  0  0  0  0  0  0
    6.4061   -8.5602    0.0000 C   0  0  1  0  0  0  0  0  0  0  0  0
    5.6978   -8.1372    0.0000 O   0  0  0  0  0  0  0  0  0  0  0  0
 80 70  1  6  0  0  0
 66 70  1  1  0  0  0
 68 48  1  1  0  0  0
 45 48  1  1  0  0  0
 44 37  1  1  0  0  0
 43 38  1  6  0  0  0
 46 40  1  1  0  0  0
 40 39  1  0  0  0  0
 42 41  1  1  0  0  0
 47 42  1  0  0  0  0
 43 42  1  0  0  0  0
 44 43  1  0  0  0  0
 45 44  1  0  0  0  0
 46 45  1  0  0  0  0
 47 46  1  0  0  0  0
 65 49  1  6  0  0  0
 64 51  1  1  0  0  0
 51 50  1  0  0  0  0
 67 63  1  6  0  0  0
 61 63  1  1  0  0  0
 60 52  1  6  0  0  0
 59 53  1  1  0  0  0
 58 54  1  6  0  0  0
 57 56  1  1  0  0  0
 56 55  1  0  0  0  0
 62 57  1  0  0  0  0
 58 57  1  0  0  0  0
 59 58  1  0  0  0  0
 60 59  1  0  0  0  0
 61 60  1  0  0  0  0
 62 61  1  0  0  0  0
 69 64  1  0  0  0  0
 65 64  1  0  0  0  0
 66 65  1  0  0  0  0
 67 66  1  0  0  0  0
 68 67  1  0  0  0  0
 69 68  1  0  0  0  0
 76 72  1  6  0  0  0
 72 71  1  0  0  0  0
 77 73  1  1  0  0  0
 78 74  1  6  0  0  0
 79 75  1  1  0  0  0
 81 76  1  0  0  0  0
 77 76  1  0  0  0  0
 78 77  1  0  0  0  0
 79 78  1  0  0  0  0
 80 79  1  0  0  0  0
 81 80  1  0  0  0  0
  1  2  1  0  0  0  0
  2  3  1  0  0  0  0
  3  4  1  0  0  0  0
  4  5  1  0  0  0  0
  5  6  1  0  0  0  0
  6  7  1  0  0  0  0
  7  8  1  0  0  0  0
  8  9  1  0  0  0  0
  9 10  1  0  0  0  0
 10 11  1  0  0  0  0
 11 12  1  0  0  0  0
 12 13  1  0  0  0  0
 13 14  1  0  0  0  0
 14 15  1  0  0  0  0
 15 16  1  0  0  0  0
 16 17  1  0  0  0  0
 17 18  1  0  0  0  0
 18 19  1  0  0  0  0
 19 20  1  0  0  0  0
  1 20  1  0  0  0  0
  1 12  1  0  0  0  0
 13 18  1  0  0  0  0
  2  9  1  0  0  0  0
  4  8  1  0  0  0  0
 22 23  1  0  0  0  0
 23 24  1  0  0  0  0
 24 25  1  0  0  0  0
 21 25  1  0  0  0  0
  6 21  1  6  0  0  0
  6 22  1  1  0  0  0
 13 26  1  1  0  0  0
  9 27  1  1  0  0  0
  7 28  1  6  0  0  0
 24 29  1  6  0  0  0
 19 30  1  1  0  0  0
 16 41  1  1  0  0  0
  1 31  1  1  0  0  0
  2 32  1  6  0  0  0
  4 33  1  6  0  0  0
  8 34  1  6  0  0  0
 12 35  1  6  0  0  0
 18 36  1  6  0  0  0
M  END
>  <cdx:groupId>
96187

>  <cdx:fragmentId>
96020

$$$$
