aromadendran-10-ol.cdx
  Mrv1902 05222410242D          

 19 21  0  0  0  0            999 V2000
    6.6674   -8.1056    0.0000 C   0  0  1  0  0  0  0  0  0  0  0  0
    6.6674   -8.9306    0.0000 C   0  0  2  0  0  0  0  0  0  0  0  0
    7.3124   -9.4450    0.0000 C   0  0  0  0  0  0  0  0  0  0  0  0
    8.1168   -9.2614    0.0000 C   0  0  0  0  0  0  0  0  0  0  0  0
    8.4747   -8.5181    0.0000 C   0  0  0  0  0  0  0  0  0  0  0  0
    8.1168   -7.7748    0.0000 C   0  0  0  0  0  0  0  0  0  0  0  0
    7.3124   -7.5912    0.0000 C   0  0  2  0  0  0  0  0  0  0  0  0
    5.8828   -7.8507    0.0000 C   0  0  0  0  0  0  0  0  0  0  0  0
    5.3979   -8.5181    0.0000 C   0  0  0  0  0  0  0  0  0  0  0  0
    5.8828   -9.1856    0.0000 C   0  0  1  0  0  0  0  0  0  0  0  0
    5.2995   -9.7689    0.0000 H   0  0  0  0  0  0  0  0  0  0  0  0
    6.4539   -7.3087    0.0000 H   0  0  0  0  0  0  0  0  0  0  0  0
    6.4539   -9.7275    0.0000 H   0  0  0  0  0  0  0  0  0  0  0  0
    6.7291   -7.0079    0.0000 C   0  0  0  0  0  0  0  0  0  0  0  0
    7.5260   -6.7944    0.0000 O   0  0  0  0  0  0  0  0  0  0  0  0
    6.0963   -9.9825    0.0000 C   0  0  0  0  0  0  0  0  0  0  0  0
    7.8958  -10.0284    0.0000 C   0  0  1  0  0  0  0  0  0  0  0  0
    7.6823  -10.8253    0.0000 C   0  0  0  0  0  0  0  0  0  0  0  0
    8.4792  -10.6117    0.0000 C   0  0  0  0  0  0  0  0  0  0  0  0
  1  2  1  0  0  0  0
  2  3  1  0  0  0  0
  3  4  1  0  0  0  0
  4  5  1  0  0  0  0
  5  6  1  0  0  0  0
  6  7  1  0  0  0  0
  7  1  1  0  0  0  0
  1  8  1  0  0  0  0
  8  9  1  0  0  0  0
  9 10  1  0  0  0  0
 10  2  1  0  0  0  0
 10 11  1  1  0  0  0
  1 12  1  1  0  0  0
  2 13  1  1  0  0  0
  7 14  1  1  0  0  0
  7 15  1  6  0  0  0
 10 16  1  6  0  0  0
  3 17  1  0  0  0  0
  4 17  1  0  0  0  0
 17 18  1  1  0  0  0
 17 19  1  6  0  0  0
M  END
>  <cdx:fragmentId>
29

$$$$
