7879.cdx
  Mrv1902 05222410252D          

 21 23  0  0  0  0            999 V2000
    6.9300   -5.6569    0.0000 C   0  0  2  0  0  0  0  0  0  0  0  0
    6.7506   -6.4622    0.0000 C   0  0  2  0  0  0  0  0  0  0  0  0
    7.2683   -7.1045    0.0000 C   0  0  1  0  0  0  0  0  0  0  0  0
    8.0933   -7.1003    0.0000 C   0  0  1  0  0  0  0  0  0  0  0  0
    8.6044   -6.4526    0.0000 C   0  0  0  0  0  0  0  0  0  0  0  0
    8.4166   -5.6493    0.0000 C   0  0  0  0  0  0  0  0  0  0  0  0
    7.6715   -5.2951    0.0000 C   0  0  1  0  0  0  0  0  0  0  0  0
    6.2197   -5.2374    0.0000 C   0  0  0  0  0  0  0  0  0  0  0  0
    5.6012   -5.7834    0.0000 C   0  0  0  0  0  0  0  0  0  0  0  0
    5.9293   -6.5404    0.0000 C   0  0  2  0  0  0  0  0  0  0  0  0
    7.2590   -4.5807    0.0000 C   0  0  0  0  0  0  0  0  0  0  0  0
    7.6808   -7.8190    0.0000 C   0  0  0  0  0  0  0  0  0  0  0  0
    7.0975   -8.4024    0.0000 C   0  0  0  0  0  0  0  0  0  0  0  0
    6.3381   -7.1767    0.0000 H   0  0  0  0  0  0  0  0  0  0  0  0
    5.9293   -7.3654    0.0000 C   0  0  0  0  0  0  0  0  0  0  0  0
    5.3460   -7.1237    0.0000 O   0  0  0  0  0  0  0  0  0  0  0  0
    6.9300   -4.8319    0.0000 H   0  0  0  0  0  0  0  0  0  0  0  0
    8.0840   -4.5807    0.0000 O   0  0  0  0  0  0  0  0  0  0  0  0
    8.2642   -8.4024    0.0000 C   0  0  0  0  0  0  0  0  0  0  0  0
    8.8902   -7.3138    0.0000 H   0  0  0  0  0  0  0  0  0  0  0  0
    6.5539   -7.5170    0.0000 H   0  0  0  0  0  0  0  0  0  0  0  0
  1  2  1  0  0  0  0
  2  3  1  0  0  0  0
  3  4  1  0  0  0  0
  4  5  1  0  0  0  0
  5  6  1  0  0  0  0
  6  7  1  0  0  0  0
  7  1  1  0  0  0  0
  1  8  1  0  0  0  0
  8  9  1  0  0  0  0
  9 10  1  0  0  0  0
 10  2  1  0  0  0  0
  7 11  1  0  0  0  0
  3 12  1  0  0  0  0
  4 12  1  0  0  0  0
 12 13  1  0  0  0  0
  2 14  1  1  0  0  0
 10 15  1  0  0  0  0
 10 16  1  6  0  0  0
  1 17  1  6  0  0  0
  7 18  1  1  0  0  0
 12 19  1  0  0  0  0
  4 20  1  6  0  0  0
  3 21  1  6  0  0  0
M  END
>  <cdx:fragmentId>
5

$$$$
