7881.cdx
  Mrv1902 05222410232D          

 21 23  0  0  0  0            999 V2000
    7.2050   -5.9319    0.0000 C   0  0  2  0  0  0  0  0  0  0  0  0
    7.0256   -6.7372    0.0000 C   0  0  2  0  0  0  0  0  0  0  0  0
    7.5433   -7.3795    0.0000 C   0  0  1  0  0  0  0  0  0  0  0  0
    8.3683   -7.3753    0.0000 C   0  0  1  0  0  0  0  0  0  0  0  0
    8.8794   -6.7276    0.0000 C   0  0  0  0  0  0  0  0  0  0  0  0
    8.6916   -5.9243    0.0000 C   0  0  0  0  0  0  0  0  0  0  0  0
    7.9465   -5.5701    0.0000 C   0  0  1  0  0  0  0  0  0  0  0  0
    6.4947   -5.5124    0.0000 C   0  0  0  0  0  0  0  0  0  0  0  0
    5.8762   -6.0584    0.0000 C   0  0  0  0  0  0  0  0  0  0  0  0
    6.2043   -6.8154    0.0000 C   0  0  1  0  0  0  0  0  0  0  0  0
    7.5340   -4.8557    0.0000 C   0  0  0  0  0  0  0  0  0  0  0  0
    7.9558   -8.0940    0.0000 C   0  0  0  0  0  0  0  0  0  0  0  0
    7.3725   -8.6774    0.0000 C   0  0  0  0  0  0  0  0  0  0  0  0
    6.6131   -7.4517    0.0000 H   0  0  0  0  0  0  0  0  0  0  0  0
    6.2043   -7.6404    0.0000 C   0  0  0  0  0  0  0  0  0  0  0  0
    5.6210   -7.3987    0.0000 O   0  0  0  0  0  0  0  0  0  0  0  0
    7.2050   -5.1069    0.0000 H   0  0  0  0  0  0  0  0  0  0  0  0
    8.3590   -4.8557    0.0000 O   0  0  0  0  0  0  0  0  0  0  0  0
    8.5392   -8.6774    0.0000 C   0  0  0  0  0  0  0  0  0  0  0  0
    9.1652   -7.5888    0.0000 H   0  0  0  0  0  0  0  0  0  0  0  0
    6.8289   -7.7920    0.0000 H   0  0  0  0  0  0  0  0  0  0  0  0
  1  2  1  0  0  0  0
  2  3  1  0  0  0  0
  3  4  1  0  0  0  0
  4  5  1  0  0  0  0
  5  6  1  0  0  0  0
  6  7  1  0  0  0  0
  7  1  1  0  0  0  0
  1  8  1  0  0  0  0
  8  9  1  0  0  0  0
  9 10  1  0  0  0  0
 10  2  1  0  0  0  0
  7 11  1  0  0  0  0
  3 12  1  0  0  0  0
  4 12  1  0  0  0  0
 12 13  1  0  0  0  0
  2 14  1  1  0  0  0
 10 15  1  0  0  0  0
 10 16  1  1  0  0  0
  1 17  1  6  0  0  0
  7 18  1  1  0  0  0
 12 19  1  0  0  0  0
  4 20  1  6  0  0  0
  3 21  1  6  0  0  0
M  END
>  <cdx:fragmentId>
75

$$$$
