788108.cdx
  Mrv1902 05222410202D          

 27 30  0  0  0  0            999 V2000
    6.5444   -9.1468    0.0000 O   0  0  0  0  0  0  0  0  0  0  0  0
    5.8299   -9.5593    0.0000 C   0  0  1  0  0  0  0  0  0  0  0  0
    5.8299  -10.3843    0.0000 C   0  0  2  0  0  0  0  0  0  0  0  0
    6.5444  -10.7968    0.0000 C   0  0  1  0  0  0  0  0  0  0  0  0
    7.2588  -10.3843    0.0000 C   0  0  2  0  0  0  0  0  0  0  0  0
    7.2588   -9.5593    0.0000 C   0  0  2  0  0  0  0  0  0  0  0  0
    5.1154  -10.7968    0.0000 O   0  0  0  0  0  0  0  0  0  0  0  0
    6.5444  -11.6218    0.0000 O   0  0  0  0  0  0  0  0  0  0  0  0
    7.9733  -10.7968    0.0000 O   0  0  0  0  0  0  0  0  0  0  0  0
    7.9733   -9.1468    0.0000 O   0  0  0  0  0  0  0  0  0  0  0  0
    8.6878   -7.9093    0.0000 C   0  0  2  0  0  0  0  0  0  0  0  0
    9.4724   -8.1642    0.0000 C   0  0  1  0  0  0  0  0  0  0  0  0
   10.2929   -8.2504    0.0000 O   0  0  0  0  0  0  0  0  0  0  0  0
    9.9573   -7.4968    0.0000 C   0  0  1  0  0  0  0  0  0  0  0  0
    9.4724   -6.8293    0.0000 C   0  0  0  0  0  0  0  0  0  0  0  0
    8.6878   -7.0843    0.0000 C   0  0  2  0  0  0  0  0  0  0  0  0
    7.9733   -6.6718    0.0000 C   0  0  0  0  0  0  0  0  0  0  0  0
    7.2588   -7.0843    0.0000 C   0  0  0  0  0  0  0  0  0  0  0  0
    7.2588   -7.9093    0.0000 O   0  0  0  0  0  0  0  0  0  0  0  0
    7.9733   -8.3218    0.0000 C   0  0  1  0  0  0  0  0  0  0  0  0
    9.3009   -8.9712    0.0000 C   0  0  0  0  0  0  0  0  0  0  0  0
    9.8842   -9.5545    0.0000 O   0  0  0  0  0  0  0  0  0  0  0  0
    5.1154   -9.1468    0.0000 C   0  0  0  0  0  0  0  0  0  0  0  0
    4.4010   -9.5593    0.0000 O   0  0  0  0  0  0  0  0  0  0  0  0
    8.6878   -8.7343    0.0000 H   0  0  0  0  0  0  0  0  0  0  0  0
   10.6718   -7.0843    0.0000 H   0  0  0  0  0  0  0  0  0  0  0  0
    8.7740   -6.2638    0.0000 H   0  0  0  0  0  0  0  0  0  0  0  0
  1  2  1  0  0  0  0
  2  3  1  0  0  0  0
  3  4  1  0  0  0  0
  4  5  1  0  0  0  0
  5  6  1  0  0  0  0
  1  6  1  0  0  0  0
  3  7  1  6  0  0  0
  4  8  1  1  0  0  0
  5  9  1  6  0  0  0
 11 12  1  0  0  0  0
 12 13  1  0  0  0  0
 13 14  1  0  0  0  0
 14 15  1  0  0  0  0
 15 16  1  0  0  0  0
 16 17  1  0  0  0  0
 17 18  1  0  0  0  0
 18 19  1  0  0  0  0
 19 20  1  0  0  0  0
 11 20  1  0  0  0  0
 11 16  1  0  0  0  0
 12 14  1  0  0  0  0
 21 22  1  0  0  0  0
 12 21  1  1  0  0  0
 20 10  1  6  0  0  0
  6 10  1  1  0  0  0
 23 24  1  0  0  0  0
  2 23  1  1  0  0  0
 11 25  1  6  0  0  0
 14 26  1  1  0  0  0
 16 27  1  6  0  0  0
M  END
>  <cdx:fragmentId>
179129

$$$$
