788109.cdx
  Mrv1902 05222410202D          

 25 27  0  0  0  0            999 V2000
    5.1003   -8.1407    0.0000 C   0  0  0  0  0  0  0  0  0  0  0  0
    5.8147   -7.7282    0.0000 C   0  0  1  0  0  0  0  0  0  0  0  0
    5.8147   -6.9032    0.0000 C   0  0  1  0  0  0  0  0  0  0  0  0
    5.1003   -6.4907    0.0000 C   0  0  0  0  0  0  0  0  0  0  0  0
    4.3858   -6.9032    0.0000 C   0  0  0  0  0  0  0  0  0  0  0  0
    4.3858   -7.7282    0.0000 O   0  0  0  0  0  0  0  0  0  0  0  0
    6.5994   -6.6483    0.0000 C   0  0  0  0  0  0  0  0  0  0  0  0
    7.0843   -7.3157    0.0000 C   0  0  0  0  0  0  0  0  0  0  0  0
    6.5994   -7.9832    0.0000 C   0  0  0  0  0  0  0  0  0  0  0  0
    5.1003   -8.9657    0.0000 O   0  0  0  0  0  0  0  0  0  0  0  0
    6.8543   -8.7678    0.0000 C   0  0  0  0  0  0  0  0  0  0  0  0
    5.9010   -6.0827    0.0000 H   0  0  0  0  0  0  0  0  0  0  0  0
    5.9010   -8.5487    0.0000 H   0  0  0  0  0  0  0  0  0  0  0  0
    9.0956   -9.7548    0.0000 O   0  0  0  0  0  0  0  0  0  0  0  0
    9.1065  -11.4048    0.0000 O   0  0  0  0  0  0  0  0  0  0  0  0
    7.6831  -12.2392    0.0000 O   0  0  0  0  0  0  0  0  0  0  0  0
    6.2487  -12.2487    0.0000 O   0  0  0  0  0  0  0  0  0  0  0  0
    6.2487  -11.4237    0.0000 C   0  0  0  0  0  0  0  0  0  0  0  0
    6.9604  -11.0065    0.0000 C   0  0  2  0  0  0  0  0  0  0  0  0
    7.6776  -11.4143    0.0000 C   0  0  2  0  0  0  0  0  0  0  0  0
    8.3894  -10.9970    0.0000 C   0  0  1  0  0  0  0  0  0  0  0  0
    8.3839  -10.1721    0.0000 C   0  0  2  0  0  0  0  0  0  0  0  0
    7.6667   -9.7643    0.0000 C   0  0  1  0  0  0  0  0  0  0  0  0
    6.9550  -10.1815    0.0000 O   0  0  0  0  0  0  0  0  0  0  0  0
    7.6613   -8.9393    0.0000 O   0  0  0  0  0  0  0  0  0  0  0  0
 23 25  1  1  0  0  0
 22 14  1  6  0  0  0
 21 15  1  1  0  0  0
 20 16  1  6  0  0  0
 19 18  1  1  0  0  0
 18 17  1  0  0  0  0
 24 19  1  0  0  0  0
 20 19  1  0  0  0  0
 21 20  1  0  0  0  0
 22 21  1  0  0  0  0
 23 22  1  0  0  0  0
 24 23  1  0  0  0  0
  1  2  1  0  0  0  0
  2  3  1  0  0  0  0
  3  4  1  0  0  0  0
  4  5  1  0  0  0  0
  5  6  1  0  0  0  0
  1  6  1  0  0  0  0
  7  8  1  0  0  0  0
  8  9  2  0  0  0  0
  9  2  1  0  0  0  0
  7  3  1  0  0  0  0
  1 10  2  0  0  0  0
 11 25  1  0  0  0  0
  9 11  1  0  0  0  0
  3 12  1  6  0  0  0
  2 13  1  6  0  0  0
M  END
>  <cdx:fragmentId>
179223

$$$$
