788110.cdx
  Mrv1902 05222410262D          

 26 28  0  0  0  0            999 V2000
    7.5130   -6.1938    0.0000 O   0  0  0  0  0  0  0  0  0  0  0  0
    6.7991   -6.6072    0.0000 C   0  0  2  0  0  0  0  0  0  0  0  0
    6.0841   -6.1956    0.0000 C   0  0  1  0  0  0  0  0  0  0  0  0
    6.0831   -5.3706    0.0000 C   0  0  2  0  0  0  0  0  0  0  0  0
    6.7970   -4.9572    0.0000 C   0  0  1  0  0  0  0  0  0  0  0  0
    7.5120   -5.3688    0.0000 C   0  0  1  0  0  0  0  0  0  0  0  0
    5.3701   -6.6090    0.0000 O   0  0  0  0  0  0  0  0  0  0  0  0
    5.3681   -4.9590    0.0000 O   0  0  0  0  0  0  0  0  0  0  0  0
    6.7960   -4.1322    0.0000 O   0  0  0  0  0  0  0  0  0  0  0  0
    8.2260   -4.9555    0.0000 C   0  0  0  0  0  0  0  0  0  0  0  0
    8.2400   -4.1306    0.0000 O   0  0  0  0  0  0  0  0  0  0  0  0
    6.8001   -7.4322    0.0000 O   0  0  0  0  0  0  0  0  0  0  0  0
    7.5151   -7.8438    0.0000 C   0  0  0  0  0  0  0  0  0  0  0  0
    7.5181  -10.3188    0.0000 C   0  0  1  0  0  0  0  0  0  0  0  0
    8.2321   -9.9054    0.0000 C   0  0  1  0  0  0  0  0  0  0  0  0
    8.2310   -9.0804    0.0000 C   0  0  1  0  0  0  0  0  0  0  0  0
    7.5161   -8.6688    0.0000 C   0  0  2  0  0  0  0  0  0  0  0  0
    6.8021   -9.0822    0.0000 C   0  0  0  0  0  0  0  0  0  0  0  0
    6.8031   -9.9072    0.0000 O   0  0  0  0  0  0  0  0  0  0  0  0
    9.0154   -8.8245    0.0000 C   0  0  0  0  0  0  0  0  0  0  0  0
    9.5011   -9.4914    0.0000 C   0  0  0  0  0  0  0  0  0  0  0  0
    9.0170  -10.1594    0.0000 C   0  0  1  0  0  0  0  0  0  0  0  0
    9.2729  -10.9437    0.0000 C   0  0  0  0  0  0  0  0  0  0  0  0
    7.5191  -11.1438    0.0000 O   0  0  0  0  0  0  0  0  0  0  0  0
    8.3163   -8.2599    0.0000 H   0  0  0  0  0  0  0  0  0  0  0  0
    8.3193  -10.7258    0.0000 H   0  0  0  0  0  0  0  0  0  0  0  0
  1  2  1  0  0  0  0
  2  3  1  0  0  0  0
  3  4  1  0  0  0  0
  4  5  1  0  0  0  0
  5  6  1  0  0  0  0
  1  6  1  0  0  0  0
  3  7  1  6  0  0  0
  4  8  1  1  0  0  0
  5  9  1  6  0  0  0
 10 11  1  0  0  0  0
  6 10  1  1  0  0  0
 12 13  1  0  0  0  0
 14 15  1  0  0  0  0
 15 16  1  0  0  0  0
 16 17  1  0  0  0  0
 17 18  1  0  0  0  0
 18 19  1  0  0  0  0
 14 19  1  0  0  0  0
 20 21  1  0  0  0  0
 21 22  1  0  0  0  0
 22 15  1  0  0  0  0
 20 16  1  0  0  0  0
 22 23  1  1  0  0  0
 14 24  1  6  0  0  0
 17 13  1  6  0  0  0
  2 12  1  1  0  0  0
 16 25  1  6  0  0  0
 15 26  1  6  0  0  0
M  END
>  <cdx:fragmentId>
179305

$$$$
