7882.cdx
  Mrv1902 05222410242D          

 20 23  0  0  0  0            999 V2000
    5.9170   -7.5006    0.0000 C   0  0  0  0  0  0  0  0  0  0  0  0
    5.4327   -8.1685    0.0000 C   0  0  0  0  0  0  0  0  0  0  0  0
    5.9182   -8.8355    0.0000 C   0  0  2  0  0  0  0  0  0  0  0  0
    6.7026   -8.5798    0.0000 C   0  0  1  0  0  0  0  0  0  0  0  0
    7.3481   -9.0936    0.0000 C   0  0  1  0  0  0  0  0  0  0  0  0
    8.1522   -8.9093    0.0000 C   0  0  1  0  0  0  0  0  0  0  0  0
    8.5095   -8.1656    0.0000 C   0  0  0  0  0  0  0  0  0  0  0  0
    8.1509   -7.4227    0.0000 C   0  0  0  0  0  0  0  0  0  0  0  0
    7.3464   -7.2399    0.0000 C   0  0  0  0  0  0  0  0  0  0  0  0
    6.7018   -7.7548    0.0000 C   0  0  2  0  0  0  0  0  0  0  0  0
    7.9098   -9.6979    0.0000 C   0  0  0  0  0  0  0  0  0  0  0  0
    5.6640   -9.6204    0.0000 C   0  0  0  0  0  0  0  0  0  0  0  0
    8.4715  -10.3021    0.0000 C   0  0  0  0  0  0  0  0  0  0  0  0
    7.6674  -10.4864    0.0000 C   0  0  0  0  0  0  0  0  0  0  0  0
    8.9205   -9.2100    0.0000 H   0  0  0  0  0  0  0  0  0  0  0  0
    6.5538   -6.9432    0.0000 H   0  0  0  0  0  0  0  0  0  0  0  0
    6.5601   -9.3924    0.0000 H   0  0  0  0  0  0  0  0  0  0  0  0
    6.9011   -9.7870    0.0000 H   0  0  0  0  0  0  0  0  0  0  0  0
    6.7630   -6.6565    0.0000 O   0  0  0  0  0  0  0  0  0  0  0  0
    7.5599   -6.4430    0.0000 C   0  0  0  0  0  0  0  0  0  0  0  0
  1  2  1  0  0  0  0
  2  3  1  0  0  0  0
  3  4  1  0  0  0  0
  4  5  1  0  0  0  0
  5  6  1  0  0  0  0
  6  7  1  0  0  0  0
  7  8  1  0  0  0  0
  8  9  1  0  0  0  0
  9 10  1  0  0  0  0
  1 10  1  0  0  0  0
  4 10  1  0  0  0  0
 11  5  1  0  0  0  0
 11  6  1  0  0  0  0
  3 12  1  6  0  0  0
 11 13  1  0  0  0  0
 11 14  1  0  0  0  0
  6 15  1  6  0  0  0
 10 16  1  6  0  0  0
  4 17  1  1  0  0  0
  5 18  1  6  0  0  0
  9 19  1  0  0  0  0
  9 20  1  0  0  0  0
 19 20  1  0  0  0  0
M  END
>  <cdx:fragmentId>
87

$$$$
