7883.cdx
  Mrv1902 05222410242D          

 20 23  0  0  0  0            999 V2000
    5.6242   -8.9498    0.0000 C   0  0  0  0  0  0  0  0  0  0  0  0
    6.4369   -8.7026    0.0000 H   0  0  0  0  0  0  0  0  0  0  0  0
    6.4880   -6.2773    0.0000 H   0  0  0  0  0  0  0  0  0  0  0  0
    8.8968   -8.4916    0.0000 H   0  0  0  0  0  0  0  0  0  0  0  0
    6.8847   -9.1310    0.0000 H   0  0  0  0  0  0  0  0  0  0  0  0
    7.6443   -9.8204    0.0000 C   0  0  0  0  0  0  0  0  0  0  0  0
    8.4442   -9.6185    0.0000 C   0  0  0  0  0  0  0  0  0  0  0  0
    7.8693   -9.0267    0.0000 C   0  0  0  0  0  0  0  0  0  0  0  0
    7.5675   -5.7760    0.0000 C   0  0  0  0  0  0  0  0  0  0  0  0
    6.7610   -5.9490    0.0000 O   0  0  0  0  0  0  0  0  0  0  0  0
    5.8761   -6.8298    0.0000 C   0  0  0  0  0  0  0  0  0  0  0  0
    5.3920   -7.4978    0.0000 C   0  0  0  0  0  0  0  0  0  0  0  0
    5.8776   -8.1647    0.0000 C   0  0  2  0  0  0  0  0  0  0  0  0
    7.3075   -8.4226    0.0000 C   0  0  2  0  0  0  0  0  0  0  0  0
    8.1116   -8.2381    0.0000 C   0  0  1  0  0  0  0  0  0  0  0  0
    8.4688   -7.4944    0.0000 C   0  0  0  0  0  0  0  0  0  0  0  0
    8.1100   -6.7515    0.0000 C   0  0  0  0  0  0  0  0  0  0  0  0
    7.3055   -6.5688    0.0000 C   0  0  2  0  0  0  0  0  0  0  0  0
    6.6610   -7.0839    0.0000 C   0  0  1  0  0  0  0  0  0  0  0  0
    6.6620   -7.9089    0.0000 C   0  0  1  0  0  0  0  0  0  0  0  0
 13  1  1  6  0  0  0
 20  2  1  1  0  0  0
 19  3  1  6  0  0  0
 15  4  1  6  0  0  0
 14  5  1  6  0  0  0
  8  6  1  0  0  0  0
  8  7  1  0  0  0  0
  8 14  1  0  0  0  0
 15  8  1  0  0  0  0
  9 18  1  0  0  0  0
 10  9  1  0  0  0  0
 18 10  1  1  0  0  0
 11 19  1  0  0  0  0
 12 11  1  0  0  0  0
 13 12  1  0  0  0  0
 20 13  1  0  0  0  0
 14 20  1  0  0  0  0
 15 14  1  0  0  0  0
 16 15  1  0  0  0  0
 17 16  1  0  0  0  0
 18 17  1  0  0  0  0
 19 18  1  0  0  0  0
 20 19  1  0  0  0  0
M  END
>  <cdx:fragmentId>
5

$$$$
