artemicapin C.cdx
  Mrv1902 05222410252D          

 15 17  0  0  0  0            999 V2000
    4.6027   -8.2706    0.0000 C   0  0  0  0  0  0  0  0  0  0  0  0
    4.6027   -9.0956    0.0000 C   0  0  0  0  0  0  0  0  0  0  0  0
    5.3171   -9.5081    0.0000 C   0  0  0  0  0  0  0  0  0  0  0  0
    6.0316   -9.0956    0.0000 C   0  0  0  0  0  0  0  0  0  0  0  0
    6.0316   -8.2706    0.0000 C   0  0  0  0  0  0  0  0  0  0  0  0
    5.3171   -7.8581    0.0000 C   0  0  0  0  0  0  0  0  0  0  0  0
    6.7461   -7.8581    0.0000 C   0  0  0  0  0  0  0  0  0  0  0  0
    6.7461   -7.0331    0.0000 C   0  0  0  0  0  0  0  0  0  0  0  0
    6.0316   -6.6206    0.0000 C   0  0  0  0  0  0  0  0  0  0  0  0
    5.3171   -7.0331    0.0000 O   0  0  0  0  0  0  0  0  0  0  0  0
    3.8180   -8.0157    0.0000 O   0  0  0  0  0  0  0  0  0  0  0  0
    3.3331   -8.6831    0.0000 C   0  0  0  0  0  0  0  0  0  0  0  0
    3.8180   -9.3506    0.0000 O   0  0  0  0  0  0  0  0  0  0  0  0
    6.0316   -5.7956    0.0000 O   0  0  0  0  0  0  0  0  0  0  0  0
    5.3171  -10.3331    0.0000 O   0  0  0  0  0  0  0  0  0  0  0  0
  1  2  1  0  0  0  0
  2  3  2  0  0  0  0
  3  4  1  0  0  0  0
  4  5  2  0  0  0  0
  5  6  1  0  0  0  0
  6  1  2  0  0  0  0
  5  7  1  0  0  0  0
  7  8  2  0  0  0  0
  8  9  1  0  0  0  0
  9 10  1  0  0  0  0
 10  6  1  0  0  0  0
  1 11  1  0  0  0  0
 11 12  1  0  0  0  0
 12 13  1  0  0  0  0
 13  2  1  0  0  0  0
  9 14  2  0  0  0  0
  3 15  1  0  0  0  0
M  END
>  <cdx:fragmentId>
5

$$$$
