70789332.cdx
  Mrv1902 05222410242D          

 44 47  0  0  0  0            999 V2000
    6.1965  -13.7566    0.0000 C   0  0  2  0  0  0  0  0  0  0  0  0
    6.9110  -13.3441    0.0000 C   0  0  1  0  0  0  0  0  0  0  0  0
    7.6255  -13.7566    0.0000 C   0  0  1  0  0  0  0  0  0  0  0  0
    7.6255  -14.5816    0.0000 C   0  0  2  0  0  0  0  0  0  0  0  0
    6.9110  -14.9941    0.0000 C   0  0  1  0  0  0  0  0  0  0  0  0
    6.1965  -14.5816    0.0000 C   0  0  2  0  0  0  0  0  0  0  0  0
    5.4821  -14.1691    0.0000 C   0  0  0  0  0  0  0  0  0  0  0  0
    4.7676  -14.5816    0.0000 C   0  0  0  0  0  0  0  0  0  0  0  0
    4.7676  -15.4066    0.0000 C   0  0  0  0  0  0  0  0  0  0  0  0
    5.4821  -15.8191    0.0000 C   0  0  0  0  0  0  0  0  0  0  0  0
    6.1965  -15.4066    0.0000 C   0  0  0  0  0  0  0  0  0  0  0  0
    4.0531  -15.8191    0.0000 O   0  0  0  0  0  0  0  0  0  0  0  0
    7.2778  -16.0019    0.0000 C   0  0  0  0  0  0  0  0  0  0  0  0
    8.0903  -16.1451    0.0000 C   0  0  0  0  0  0  0  0  0  0  0  0
    8.3725  -16.9204    0.0000 C   0  0  0  0  0  0  0  0  0  0  0  0
    7.8422  -17.5524    0.0000 C   0  0  0  0  0  0  0  0  0  0  0  0
    7.0297  -17.4091    0.0000 C   0  0  0  0  0  0  0  0  0  0  0  0
    6.7475  -16.6339    0.0000 C   0  0  0  0  0  0  0  0  0  0  0  0
    6.4994  -18.0411    0.0000 O   0  0  0  0  0  0  0  0  0  0  0  0
    5.6869  -17.8978    0.0000 C   0  0  0  0  0  0  0  0  0  0  0  0
    8.1243  -18.3276    0.0000 O   0  0  0  0  0  0  0  0  0  0  0  0
    8.9368  -18.4709    0.0000 C   0  0  0  0  0  0  0  0  0  0  0  0
    8.6206  -15.5132    0.0000 O   0  0  0  0  0  0  0  0  0  0  0  0
    9.4331  -15.6564    0.0000 C   0  0  0  0  0  0  0  0  0  0  0  0
    8.3400  -13.3441    0.0000 C   0  0  0  0  0  0  0  0  0  0  0  0
    8.3400  -12.5191    0.0000 C   0  0  0  0  0  0  0  0  0  0  0  0
    9.0544  -12.1066    0.0000 C   0  0  0  0  0  0  0  0  0  0  0  0
    9.7689  -12.5191    0.0000 C   0  0  0  0  0  0  0  0  0  0  0  0
    9.7689  -13.3441    0.0000 C   0  0  0  0  0  0  0  0  0  0  0  0
    9.0544  -13.7566    0.0000 C   0  0  0  0  0  0  0  0  0  0  0  0
   10.4834  -13.7566    0.0000 O   0  0  0  0  0  0  0  0  0  0  0  0
   11.1978  -13.3441    0.0000 C   0  0  0  0  0  0  0  0  0  0  0  0
   10.4834  -12.1066    0.0000 O   0  0  0  0  0  0  0  0  0  0  0  0
   11.1978  -12.5191    0.0000 C   0  0  0  0  0  0  0  0  0  0  0  0
    7.6255  -12.1066    0.0000 O   0  0  0  0  0  0  0  0  0  0  0  0
    7.6255  -11.2816    0.0000 C   0  0  0  0  0  0  0  0  0  0  0  0
    8.3400  -14.9941    0.0000 C   0  0  0  0  0  0  0  0  0  0  0  0
    6.9110  -12.5191    0.0000 C   0  0  0  0  0  0  0  0  0  0  0  0
    6.9110  -15.8191    0.0000 O   0  0  0  0  0  0  0  0  0  0  0  0
    7.6255  -15.4066    0.0000 C   0  0  0  0  0  0  0  0  0  0  0  0
    4.0531  -14.1691    0.0000 O   0  0  0  0  0  0  0  0  0  0  0  0
    3.3387  -14.5816    0.0000 C   0  0  0  0  0  0  0  0  0  0  0  0
    5.4821  -13.3441    0.0000 C   0  0  0  0  0  0  0  0  0  0  0  0
    4.7676  -13.7566    0.0000 C   0  0  0  0  0  0  0  0  0  0  0  0
  1  2  1  0  0  0  0
  2  3  1  0  0  0  0
  3  4  1  0  0  0  0
  4  5  1  0  0  0  0
  5  6  1  0  0  0  0
  6  7  1  6  0  0  0
  7  8  2  0  0  0  0
  8  9  1  0  0  0  0
  9 10  1  0  0  0  0
 10 11  2  0  0  0  0
  1  6  1  0  0  0  0
  6 11  1  1  0  0  0
  9 12  2  0  0  0  0
 13 14  1  0  0  0  0
 14 15  2  0  0  0  0
 15 16  1  0  0  0  0
 16 17  2  0  0  0  0
 17 18  1  0  0  0  0
 13 18  2  0  0  0  0
 19 20  1  0  0  0  0
 17 19  1  0  0  0  0
 21 22  1  0  0  0  0
 16 21  1  0  0  0  0
 23 24  1  0  0  0  0
 14 23  1  0  0  0  0
  5 13  1  6  0  0  0
 25 26  1  0  0  0  0
 26 27  2  0  0  0  0
 27 28  1  0  0  0  0
 28 29  2  0  0  0  0
 29 30  1  0  0  0  0
 25 30  2  0  0  0  0
 31 32  1  0  0  0  0
 29 31  1  0  0  0  0
 33 34  1  0  0  0  0
 28 33  1  0  0  0  0
 35 36  1  0  0  0  0
 26 35  1  0  0  0  0
  3 25  1  6  0  0  0
  4 37  1  1  0  0  0
  2 38  1  6  0  0  0
 39 40  1  0  0  0  0
 11 39  1  0  0  0  0
 41 42  1  0  0  0  0
  8 41  1  0  0  0  0
 43 44  1  0  0  0  0
  1 43  1  6  0  0  0
M  END
>  <cdx:groupId>
197604

>  <cdx:fragmentId>
197472

$$$$
