7895.cdx
  Mrv1902 05222410232D          

  6  5  0  0  0  0            999 V2000
    4.9929   -3.3547    0.0000 C   0  0  0  0  0  0  0  0  0  0  0  0
    4.2785   -2.9422    0.0000 C   0  0  0  0  0  0  0  0  0  0  0  0
    3.5640   -3.3547    0.0000 C   0  0  0  0  0  0  0  0  0  0  0  0
    2.8495   -2.9422    0.0000 C   0  0  0  0  0  0  0  0  0  0  0  0
    2.1351   -3.3547    0.0000 C   0  0  0  0  0  0  0  0  0  0  0  0
    4.2785   -2.1172    0.0000 O   0  0  0  0  0  0  0  0  0  0  0  0
  1  2  1  0  0  0  0
  2  3  1  0  0  0  0
  3  4  1  0  0  0  0
  4  5  1  0  0  0  0
  2  6  2  0  0  0  0
M  END
>  <cdx:groupId>
19

>  <cdx:fragmentId>
5

$$$$
