7896.cdx
  Mrv1902 05222410242D          

  6  5  0  0  0  0            999 V2000
    4.6652   -2.7921    0.0000 C   0  0  0  0  0  0  0  0  0  0  0  0
    3.9508   -3.2046    0.0000 C   0  0  0  0  0  0  0  0  0  0  0  0
    3.2363   -2.7921    0.0000 O   0  0  0  0  0  0  0  0  0  0  0  0
    5.3797   -3.2046    0.0000 C   0  0  0  0  0  0  0  0  0  0  0  0
    6.0942   -2.7921    0.0000 O   0  0  0  0  0  0  0  0  0  0  0  0
    3.9508   -4.0296    0.0000 C   0  0  0  0  0  0  0  0  0  0  0  0
  1  2  1  0  0  0  0
  2  3  1  0  0  0  0
  1  4  1  0  0  0  0
  4  5  1  0  0  0  0
  2  6  1  0  0  0  0
M  END
>  <cdx:groupId>
19

>  <cdx:fragmentId>
5

$$$$
