789921.cdx
  Mrv1902 05222410222D          

 23 24  0  0  0  0            999 V2000
    9.3866   -9.2121    0.0000 C   0  0  0  0  0  0  0  0  0  0  0  0
    7.8626   -7.1381    0.0000 C   0  0  0  0  0  0  0  0  0  0  0  0
    8.2805   -6.4268    0.0000 C   0  0  0  0  0  0  0  0  0  0  0  0
    7.2402   -9.6085    0.0000 O   0  0  0  0  0  0  0  0  0  0  0  0
    5.8051  -10.4228    0.0000 O   0  0  0  0  0  0  0  0  0  0  0  0
    4.3824   -9.5871    0.0000 O   0  0  0  0  0  0  0  0  0  0  0  0
    3.6772   -8.3443    0.0000 O   0  0  0  0  0  0  0  0  0  0  0  0
    4.3947   -7.9372    0.0000 C   0  0  0  0  0  0  0  0  0  0  0  0
    5.1061   -8.3550    0.0000 C   0  0  2  0  0  0  0  0  0  0  0  0
    5.0999   -9.1800    0.0000 C   0  0  2  0  0  0  0  0  0  0  0  0
    5.8113   -9.5978    0.0000 C   0  0  1  0  0  0  0  0  0  0  0  0
    6.5288   -9.1907    0.0000 C   0  0  2  0  0  0  0  0  0  0  0  0
    6.5350   -8.3657    0.0000 C   0  0  1  0  0  0  0  0  0  0  0  0
    5.8236   -7.9479    0.0000 O   0  0  0  0  0  0  0  0  0  0  0  0
    7.2525   -7.9586    0.0000 O   0  0  0  0  0  0  0  0  0  0  0  0
    7.9639   -8.3764    0.0000 C   0  0  0  0  0  0  0  0  0  0  0  0
   10.8341   -6.7479    0.0000 O   0  0  0  0  0  0  0  0  0  0  0  0
    9.4052   -6.7372    0.0000 C   0  0  0  0  0  0  0  0  0  0  0  0
    8.6876   -7.1443    0.0000 C   0  0  0  0  0  0  0  0  0  0  0  0
    8.6814   -7.9693    0.0000 C   0  0  1  0  0  0  0  0  0  0  0  0
    9.3928   -8.3871    0.0000 C   0  0  0  0  0  0  0  0  0  0  0  0
   10.1103   -7.9800    0.0000 C   0  0  0  0  0  0  0  0  0  0  0  0
   10.1165   -7.1550    0.0000 C   0  0  0  0  0  0  0  0  0  0  0  0
 21  1  1  0  0  0  0
 19  2  1  0  0  0  0
 19  3  1  0  0  0  0
 20 16  1  1  0  0  0
 16 15  1  0  0  0  0
 13 15  1  1  0  0  0
 12  4  1  6  0  0  0
 11  5  1  1  0  0  0
 10  6  1  6  0  0  0
  9  8  1  1  0  0  0
  8  7  1  0  0  0  0
 14  9  1  0  0  0  0
 10  9  1  0  0  0  0
 11 10  1  0  0  0  0
 12 11  1  0  0  0  0
 13 12  1  0  0  0  0
 14 13  1  0  0  0  0
 23 17  2  0  0  0  0
 23 18  1  0  0  0  0
 19 18  1  0  0  0  0
 20 19  1  0  0  0  0
 21 20  1  0  0  0  0
 22 21  2  0  0  0  0
 23 22  1  0  0  0  0
M  END
>  <cdx:fragmentId>
220205

$$$$
