79023.cdx
  Mrv1902 05222410222D          

 12 12  0  0  0  0            999 V2000
    7.4774   -4.2829    0.0000 C   0  0  0  0  0  0  0  0  0  0  0  0
    8.1918   -4.6954    0.0000 C   0  0  0  0  0  0  0  0  0  0  0  0
    8.1918   -5.5204    0.0000 C   0  0  0  0  0  0  0  0  0  0  0  0
    7.4774   -5.9329    0.0000 C   0  0  0  0  0  0  0  0  0  0  0  0
    6.7629   -5.5204    0.0000 C   0  0  0  0  0  0  0  0  0  0  0  0
    6.7629   -4.6954    0.0000 C   0  0  0  0  0  0  0  0  0  0  0  0
    7.4774   -3.4579    0.0000 O   0  0  0  0  0  0  0  0  0  0  0  0
    6.0484   -4.2829    0.0000 C   0  0  0  0  0  0  0  0  0  0  0  0
    6.0484   -3.4579    0.0000 C   0  0  0  0  0  0  0  0  0  0  0  0
    5.3340   -4.6954    0.0000 C   0  0  0  0  0  0  0  0  0  0  0  0
    8.9063   -5.9329    0.0000 C   0  0  0  0  0  0  0  0  0  0  0  0
    8.9063   -4.2829    0.0000 O   0  0  0  0  0  0  0  0  0  0  0  0
  1  2  1  0  0  0  0
  2  3  2  0  0  0  0
  3  4  1  0  0  0  0
  4  5  1  0  0  0  0
  5  6  1  0  0  0  0
  1  6  1  0  0  0  0
  1  7  2  0  0  0  0
  8  9  1  0  0  0  0
  8 10  1  0  0  0  0
  6  8  1  0  0  0  0
  3 11  1  0  0  0  0
  2 12  1  0  0  0  0
M  END
>  <cdx:fragmentId>
5

$$$$
