79022.cdx
  Mrv1902 05222410222D          

 10 12  0  0  0  0            999 V2000
    7.1779   -3.5735    0.0000 C   0  0  0  0  0  0  0  0  0  0  0  0
    7.1779   -4.3985    0.0000 C   0  0  0  0  0  0  0  0  0  0  0  0
    6.3933   -4.6534    0.0000 C   0  0  0  0  0  0  0  0  0  0  0  0
    5.9083   -3.9860    0.0000 C   0  0  0  0  0  0  0  0  0  0  0  0
    6.5943   -2.8401    0.0000 C   0  0  0  0  0  0  0  0  0  0  0  0
    7.8924   -3.9860    0.0000 C   0  0  0  0  0  0  0  0  0  0  0  0
    6.5175   -3.4650    0.0000 C   0  0  0  0  0  0  0  0  0  0  0  0
    6.5648   -5.4604    0.0000 C   0  0  0  0  0  0  0  0  0  0  0  0
    5.7802   -5.2055    0.0000 C   0  0  0  0  0  0  0  0  0  0  0  0
    7.5134   -2.8198    0.0000 C   0  0  0  0  0  0  0  0  0  0  0  0
  1  2  1  0  0  0  0
  2  3  1  0  0  0  0
  3  4  1  0  0  0  0
  4  5  1  0  0  0  0
  5  6  1  0  0  0  0
  1  6  1  0  0  0  0
  1  7  1  0  0  0  0
  7  4  1  0  0  0  0
  2  6  1  0  0  0  0
  3  8  1  0  0  0  0
  3  9  1  0  0  0  0
  1 10  1  0  0  0  0
M  END
>  <cdx:fragmentId>
5

$$$$
