79036.cdx
  Mrv1902 05222410222D          

 11 11  0  0  0  0            999 V2000
    3.2893   -5.4931    0.0000 C   0  0  0  0  0  0  0  0  0  0  0  0
    3.2893   -4.6681    0.0000 C   0  0  0  0  0  0  0  0  0  0  0  0
    4.0037   -4.2556    0.0000 C   0  0  0  0  0  0  0  0  0  0  0  0
    4.7182   -4.6681    0.0000 C   0  0  0  0  0  0  0  0  0  0  0  0
    4.7182   -5.4931    0.0000 C   0  0  0  0  0  0  0  0  0  0  0  0
    4.0037   -5.9056    0.0000 C   0  0  0  0  0  0  0  0  0  0  0  0
    5.4327   -5.9056    0.0000 C   0  0  0  0  0  0  0  0  0  0  0  0
    2.5748   -4.2556    0.0000 C   0  0  0  0  0  0  0  0  0  0  0  0
    2.5748   -3.4306    0.0000 C   0  0  0  0  0  0  0  0  0  0  0  0
    1.8603   -4.6681    0.0000 C   0  0  0  0  0  0  0  0  0  0  0  0
    2.5748   -5.9056    0.0000 O   0  0  0  0  0  0  0  0  0  0  0  0
  1  2  1  0  0  0  0
  2  3  1  0  0  0  0
  3  4  1  0  0  0  0
  4  5  1  0  0  0  0
  5  6  2  0  0  0  0
  1  6  1  0  0  0  0
  5  7  1  0  0  0  0
  8  9  2  0  0  0  0
  8 10  1  0  0  0  0
  2  8  1  0  0  0  0
  1 11  2  0  0  0  0
M  END
>  <cdx:groupId>
35

>  <cdx:fragmentId>
5

$$$$
