79035.cdx
  Mrv1902 05222410222D          

 10 12  0  0  0  0            999 V2000
    5.1360   -2.8778    0.0000 C   0  0  0  0  0  0  0  0  0  0  0  0
    5.1360   -3.7028    0.0000 C   0  0  0  0  0  0  0  0  0  0  0  0
    4.3514   -3.9578    0.0000 C   0  0  0  0  0  0  0  0  0  0  0  0
    3.8665   -3.2903    0.0000 C   0  0  0  0  0  0  0  0  0  0  0  0
    4.5505   -4.4357    0.0000 C   0  0  0  0  0  0  0  0  0  0  0  0
    5.8505   -3.2903    0.0000 C   0  0  0  0  0  0  0  0  0  0  0  0
    4.3514   -2.6229    0.0000 C   0  0  0  0  0  0  0  0  0  0  0  0
    3.7383   -2.0708    0.0000 C   0  0  0  0  0  0  0  0  0  0  0  0
    4.5229   -1.8159    0.0000 C   0  0  0  0  0  0  0  0  0  0  0  0
    5.4716   -2.1241    0.0000 C   0  0  0  0  0  0  0  0  0  0  0  0
  1  2  1  0  0  0  0
  2  3  1  0  0  0  0
  3  4  1  0  0  0  0
  4  5  1  0  0  0  0
  5  6  1  0  0  0  0
  1  6  1  0  0  0  0
  1  7  1  0  0  0  0
  7  4  1  0  0  0  0
  2  6  1  0  0  0  0
  7  8  1  0  0  0  0
  7  9  1  0  0  0  0
  1 10  1  0  0  0  0
M  END
>  <cdx:groupId>
34

>  <cdx:fragmentId>
5

$$$$
