79038.cdx
  Mrv1902 05222410232D          

 10 11  0  0  0  0            999 V2000
    6.3800   -3.5750    0.0000 C   0  0  0  0  0  0  0  0  0  0  0  0
    6.0775   -4.2075    0.0000 C   0  0  0  0  0  0  0  0  0  0  0  0
    6.6550   -4.6475    0.0000 C   0  0  0  0  0  0  0  0  0  0  0  0
    7.5953   -4.1853    0.0000 C   0  0  0  0  0  0  0  0  0  0  0  0
    8.6900   -4.4550    0.0000 C   0  0  0  0  0  0  0  0  0  0  0  0
    8.8550   -3.6575    0.0000 C   0  0  0  0  0  0  0  0  0  0  0  0
    7.9475   -3.4650    0.0000 C   0  0  0  0  0  0  0  0  0  0  0  0
    7.4250   -2.7500    0.0000 N   0  0  0  0  0  0  0  0  0  0  0  0
    7.1045   -1.9898    0.0000 C   0  0  0  0  0  0  0  0  0  0  0  0
    5.2806   -4.4210    0.0000 O   0  0  0  0  0  0  0  0  0  0  0  0
  1  2  1  0  0  0  0
  2  3  1  0  0  0  0
  3  4  1  0  0  0  0
  4  5  1  0  0  0  0
  5  6  1  0  0  0  0
  6  7  1  0  0  0  0
  7  1  1  0  0  0  0
  7  8  1  0  0  0  0
  8  4  1  0  0  0  0
  8  9  1  0  0  0  0
  2 10  2  0  0  0  0
M  END
>  <cdx:fragmentId>
46

$$$$
