79031.cdx
  Mrv1902 05222410212D          

  9  9  0  0  0  0            999 V2000
    8.8361   -4.7092    0.0000 C   0  0  0  0  0  0  0  0  0  0  0  0
    8.4326   -5.4288    0.0000 C   0  0  0  0  0  0  0  0  0  0  0  0
    5.8731   -5.1589    0.0000 C   0  0  0  0  0  0  0  0  0  0  0  0
    6.5720   -3.9125    0.0000 C   0  0  0  0  0  0  0  0  0  0  0  0
    6.5823   -4.7375    0.0000 C   0  0  0  0  0  0  0  0  0  0  0  0
    7.3019   -5.1410    0.0000 C   0  0  0  0  0  0  0  0  0  0  0  0
    8.0112   -4.7196    0.0000 C   0  0  0  0  0  0  0  0  0  0  0  0
    8.0008   -3.8946    0.0000 C   0  0  0  0  0  0  0  0  0  0  0  0
    7.2812   -3.4911    0.0000 C   0  0  0  0  0  0  0  0  0  0  0  0
  7  1  1  0  0  0  0
  7  2  1  0  0  0  0
  5  3  1  0  0  0  0
  9  4  1  0  0  0  0
  5  4  1  0  0  0  0
  6  5  1  0  0  0  0
  7  6  1  0  0  0  0
  8  7  1  0  0  0  0
  9  8  2  0  0  0  0
M  END
>  <cdx:fragmentId>
5

$$$$
