79044.cdx
  Mrv1902 05222410192D          

 10 11  0  0  0  0            999 V2000
    2.9519   -2.1863    0.0000 C   0  0  0  0  0  0  0  0  0  0  0  0
    2.2374   -1.7737    0.0000 C   0  0  0  0  0  0  0  0  0  0  0  0
    1.5229   -2.1863    0.0000 C   0  0  0  0  0  0  0  0  0  0  0  0
    1.5229   -3.0112    0.0000 C   0  0  0  0  0  0  0  0  0  0  0  0
    2.2374   -3.4238    0.0000 C   0  0  0  0  0  0  0  0  0  0  0  0
    2.9519   -3.0112    0.0000 C   0  0  0  0  0  0  0  0  0  0  0  0
    3.6663   -2.5987    0.0000 C   0  0  0  0  0  0  0  0  0  0  0  0
    4.3808   -2.1862    0.0000 C   0  0  0  0  0  0  0  0  0  0  0  0
    4.3808   -3.0112    0.0000 C   0  0  0  0  0  0  0  0  0  0  0  0
    0.8084   -1.7737    0.0000 C   0  0  0  0  0  0  0  0  0  0  0  0
  1  2  1  0  0  0  0
  2  3  2  0  0  0  0
  3  4  1  0  0  0  0
  4  5  1  0  0  0  0
  5  6  1  0  0  0  0
  6  7  1  0  0  0  0
  1  7  1  0  0  0  0
  1  6  1  0  0  0  0
  7  8  1  0  0  0  0
  7  9  1  0  0  0  0
  3 10  1  0  0  0  0
M  END
>  <cdx:groupId>
33

>  <cdx:fragmentId>
5

$$$$
