85790712.cdx
  Mrv1902 05222410252D          

 13 12  0  0  0  0            999 V2000
    6.1965  -14.7394    0.0000 C   0  0  0  0  0  0  0  0  0  0  0  0
    5.4821  -15.1519    0.0000 C   0  0  0  0  0  0  0  0  0  0  0  0
    4.7676  -14.7394    0.0000 C   0  0  0  0  0  0  0  0  0  0  0  0
    4.0531  -15.1519    0.0000 C   0  0  0  0  0  0  0  0  0  0  0  0
    6.1965  -13.9144    0.0000 O   0  0  0  0  0  0  0  0  0  0  0  0
    6.9110  -15.1519    0.0000 O   0  0  0  0  0  0  0  0  0  0  0  0
    5.4821  -15.9769    0.0000 C   0  0  0  0  0  0  0  0  0  0  0  0
    7.6255  -14.7394    0.0000 C   0  0  0  0  0  0  0  0  0  0  0  0
    8.3400  -15.1519    0.0000 C   0  0  0  0  0  0  0  0  0  0  0  0
    9.0544  -14.7394    0.0000 C   0  0  0  0  0  0  0  0  0  0  0  0
    9.7689  -15.1519    0.0000 C   0  0  0  0  0  0  0  0  0  0  0  0
   10.4834  -14.7394    0.0000 C   0  0  0  0  0  0  0  0  0  0  0  0
    9.7689  -15.9769    0.0000 C   0  0  0  0  0  0  0  0  0  0  0  0
  1  2  1  0  0  0  0
  2  3  1  0  0  0  0
  3  4  1  0  0  0  0
  1  5  2  0  0  0  0
  1  6  1  0  0  0  0
  2  7  1  0  0  0  0
  8  9  1  0  0  0  0
  9 10  1  0  0  0  0
 10 11  1  0  0  0  0
 11 12  1  0  0  0  0
 11 13  1  0  0  0  0
  6  8  1  0  0  0  0
M  END
>  <cdx:groupId>
209167

>  <cdx:fragmentId>
209132

$$$$
