79089.cdx
  Mrv1902 05222410282D          

  7  7  0  0  0  0            999 V2000
    6.3639   -4.5875    0.0000 C   0  0  0  0  0  0  0  0  0  0  0  0
    6.6015   -3.7975    0.0000 C   0  0  0  0  0  0  0  0  0  0  0  0
    7.4263   -3.7793    0.0000 C   0  0  0  0  0  0  0  0  0  0  0  0
    7.6984   -4.5581    0.0000 C   0  0  0  0  0  0  0  0  0  0  0  0
    7.0418   -5.0576    0.0000 S   0  0  0  0  0  0  0  0  0  0  0  0
    7.8964   -3.1013    0.0000 C   0  0  0  0  0  0  0  0  0  0  0  0
    6.1020   -3.1409    0.0000 C   0  0  0  0  0  0  0  0  0  0  0  0
  1  2  2  0  0  0  0
  2  3  1  0  0  0  0
  3  4  2  0  0  0  0
  4  5  1  0  0  0  0
  1  5  1  0  0  0  0
  3  6  1  0  0  0  0
  2  7  1  0  0  0  0
M  END
>  <cdx:groupId>
23

>  <cdx:fragmentId>
5

$$$$
