79086.cdx
  Mrv1902 05222410192D          

  8  7  0  0  0  0            999 V2000
    7.5044   -4.0232    0.0000 C   0  0  0  0  0  0  0  0  0  0  0  0
    8.2189   -4.4357    0.0000 C   0  0  0  0  0  0  0  0  0  0  0  0
    8.9333   -4.0232    0.0000 C   0  0  0  0  0  0  0  0  0  0  0  0
    8.9333   -3.1982    0.0000 C   0  0  0  0  0  0  0  0  0  0  0  0
    9.6478   -4.4357    0.0000 C   0  0  0  0  0  0  0  0  0  0  0  0
    6.7899   -4.4357    0.0000 N   0  0  0  0  0  0  0  0  0  0  0  0
    6.0755   -4.0232    0.0000 C   0  0  0  0  0  0  0  0  0  0  0  0
    5.3610   -3.6107    0.0000 S   0  0  0  0  0  0  0  0  0  0  0  0
  1  2  1  0  0  0  0
  2  3  1  0  0  0  0
  3  4  1  0  0  0  0
  3  5  1  0  0  0  0
  6  7  2  0  0  0  0
  7  8  2  0  0  0  0
  1  6  1  0  0  0  0
M  END
>  <cdx:fragmentId>
5

$$$$
