7909.cdx
  Mrv1902 05222410242D          

  7  6  0  0  0  0            999 V2000
    7.4679   -4.8604    0.0000 C   0  0  0  0  0  0  0  0  0  0  0  0
    6.7535   -4.4479    0.0000 C   0  0  0  0  0  0  0  0  0  0  0  0
    6.0390   -4.8604    0.0000 C   0  0  0  0  0  0  0  0  0  0  0  0
    5.3245   -4.4479    0.0000 C   0  0  0  0  0  0  0  0  0  0  0  0
    5.3245   -3.6229    0.0000 C   0  0  0  0  0  0  0  0  0  0  0  0
    6.7535   -3.6229    0.0000 O   0  0  0  0  0  0  0  0  0  0  0  0
    4.6101   -4.8604    0.0000 C   0  0  0  0  0  0  0  0  0  0  0  0
  1  2  1  0  0  0  0
  2  3  1  0  0  0  0
  3  4  1  0  0  0  0
  4  5  1  0  0  0  0
  2  6  2  0  0  0  0
  4  7  1  0  0  0  0
M  END
>  <cdx:groupId>
22

>  <cdx:fragmentId>
5

$$$$
