7923.cdx
  Mrv1902 05222410242D          

  7  7  0  0  0  0            999 V2000
    4.2652   -2.0817    0.0000 O   0  0  0  0  0  0  0  0  0  0  0  0
    4.9327   -2.5666    0.0000 C   0  0  0  0  0  0  0  0  0  0  0  0
    4.6777   -3.3512    0.0000 C   0  0  0  0  0  0  0  0  0  0  0  0
    3.8527   -3.3512    0.0000 C   0  0  0  0  0  0  0  0  0  0  0  0
    3.5978   -2.5666    0.0000 C   0  0  0  0  0  0  0  0  0  0  0  0
    5.7173   -2.3116    0.0000 O   0  0  0  0  0  0  0  0  0  0  0  0
    2.8132   -2.3116    0.0000 O   0  0  0  0  0  0  0  0  0  0  0  0
  1  2  1  0  0  0  0
  2  3  1  0  0  0  0
  3  4  2  0  0  0  0
  4  5  1  0  0  0  0
  1  5  1  0  0  0  0
  2  6  2  0  0  0  0
  5  7  2  0  0  0  0
M  END
>  <cdx:groupId>
23

>  <cdx:fragmentId>
5

$$$$
