7926.cdx
  Mrv1902 05222410262D          

 30 32  0  0  0  0            999 V2000
    9.3351   -5.5844    0.0000 C   0  0  0  0  0  0  0  0  0  0  0  0
    8.6227   -5.1684    0.0000 C   0  0  0  0  0  0  0  0  0  0  0  0
    9.3310   -6.4094    0.0000 C   0  0  0  0  0  0  0  0  0  0  0  0
   10.0434   -6.8254    0.0000 C   0  0  0  0  0  0  0  0  0  0  0  0
   10.0393   -7.6504    0.0000 C   0  0  0  0  0  0  0  0  0  0  0  0
    9.3228   -8.0594    0.0000 C   0  0  0  0  0  0  0  0  0  0  0  0
    8.6104   -7.6433    0.0000 C   0  0  0  0  0  0  0  0  0  0  0  0
    8.6145   -6.8184    0.0000 C   0  0  0  0  0  0  0  0  0  0  0  0
    9.3187   -8.8844    0.0000 O   0  0  0  0  0  0  0  0  0  0  0  0
    7.8898   -8.8737    0.0000 O   0  0  0  0  0  0  0  0  0  0  0  0
    8.6012   -9.2915    0.0000 C   0  0  2  0  0  0  0  0  0  0  0  0
    8.5951  -10.1165    0.0000 C   0  0  1  0  0  0  0  0  0  0  0  0
    7.8775  -10.5237    0.0000 C   0  0  2  0  0  0  0  0  0  0  0  0
    7.1662  -10.1059    0.0000 C   0  0  1  0  0  0  0  0  0  0  0  0
    7.1723   -9.2809    0.0000 C   0  0  1  0  0  0  0  0  0  0  0  0
    6.4609   -8.8631    0.0000 C   0  0  0  0  0  0  0  0  0  0  0  0
    5.7434   -9.2702    0.0000 O   0  0  0  0  0  0  0  0  0  0  0  0
    5.0382   -8.0274    0.0000 O   0  0  0  0  0  0  0  0  0  0  0  0
    5.0320   -8.8524    0.0000 C   0  0  2  0  0  0  0  0  0  0  0  0
    4.3145   -9.2596    0.0000 C   0  0  1  0  0  0  0  0  0  0  0  0
    3.6031   -8.8418    0.0000 C   0  0  2  0  0  0  0  0  0  0  0  0
    3.6093   -8.0168    0.0000 C   0  0  1  0  0  0  0  0  0  0  0  0
    4.3268   -7.6096    0.0000 C   0  0  0  0  0  0  0  0  0  0  0  0
    2.8979   -7.5990    0.0000 O   0  0  0  0  0  0  0  0  0  0  0  0
    2.8856   -9.2489    0.0000 O   0  0  0  0  0  0  0  0  0  0  0  0
    4.3084  -10.0846    0.0000 O   0  0  0  0  0  0  0  0  0  0  0  0
    6.4486  -10.5130    0.0000 O   0  0  0  0  0  0  0  0  0  0  0  0
    7.8714  -11.3487    0.0000 O   0  0  0  0  0  0  0  0  0  0  0  0
    9.3064  -10.5343    0.0000 O   0  0  0  0  0  0  0  0  0  0  0  0
   10.0516   -5.1755    0.0000 O   0  0  0  0  0  0  0  0  0  0  0  0
  1  2  1  0  0  0  0
  3  4  1  0  0  0  0
  4  5  2  0  0  0  0
  5  6  1  0  0  0  0
  6  7  2  0  0  0  0
  7  8  1  0  0  0  0
  3  8  2  0  0  0  0
 10 11  1  0  0  0  0
 11 12  1  0  0  0  0
 12 13  1  0  0  0  0
 13 14  1  0  0  0  0
 14 15  1  0  0  0  0
 10 15  1  0  0  0  0
 18 19  1  0  0  0  0
 19 20  1  0  0  0  0
 20 21  1  0  0  0  0
 21 22  1  0  0  0  0
 22 23  1  0  0  0  0
 18 23  1  0  0  0  0
 22 24  1  6  0  0  0
 21 25  1  1  0  0  0
 20 26  1  6  0  0  0
 19 17  1  1  0  0  0
 16 17  1  0  0  0  0
 15 16  1  1  0  0  0
 14 27  1  6  0  0  0
 13 28  1  1  0  0  0
 12 29  1  6  0  0  0
 11  9  1  1  0  0  0
  6  9  1  0  0  0  0
  1  3  1  0  0  0  0
  1 30  2  0  0  0  0
M  END
>  <cdx:fragmentId>
39

$$$$
