7929.cdx
  Mrv1902 05222410212D          

  8  8  0  0  0  0            999 V2000
    2.7226   -2.0189    0.0000 C   0  0  0  0  0  0  0  0  0  0  0  0
    2.7226   -2.8439    0.0000 C   0  0  0  0  0  0  0  0  0  0  0  0
    3.4371   -3.2564    0.0000 C   0  0  0  0  0  0  0  0  0  0  0  0
    4.1516   -2.8439    0.0000 C   0  0  0  0  0  0  0  0  0  0  0  0
    4.1516   -2.0189    0.0000 C   0  0  0  0  0  0  0  0  0  0  0  0
    3.4371   -1.6064    0.0000 C   0  0  0  0  0  0  0  0  0  0  0  0
    4.8660   -1.6064    0.0000 C   0  0  0  0  0  0  0  0  0  0  0  0
    3.4371   -4.0814    0.0000 C   0  0  0  0  0  0  0  0  0  0  0  0
  1  2  2  0  0  0  0
  2  3  1  0  0  0  0
  3  4  2  0  0  0  0
  4  5  1  0  0  0  0
  5  6  2  0  0  0  0
  6  1  1  0  0  0  0
  5  7  1  0  0  0  0
  3  8  1  0  0  0  0
M  END
>  <cdx:fragmentId>
3

$$$$
