793089.cdx
  Mrv1902 05222410192D          

 13 13  0  0  0  0            999 V2000
    7.4922  -16.4007    0.0000 C   0  0  0  0  0  0  0  0  0  0  0  0
    7.4910  -15.5757    0.0000 C   0  0  0  0  0  0  0  0  0  0  0  0
    8.2049  -15.1622    0.0000 C   0  0  0  0  0  0  0  0  0  0  0  0
    8.9199  -15.5737    0.0000 C   0  0  0  0  0  0  0  0  0  0  0  0
    8.9211  -16.3987    0.0000 C   0  0  0  0  0  0  0  0  0  0  0  0
    8.2072  -16.8122    0.0000 C   0  0  0  0  0  0  0  0  0  0  0  0
    7.7914  -14.4483    0.0000 C   0  0  0  0  0  0  0  0  0  0  0  0
    8.6164  -14.4471    0.0000 C   0  0  0  0  0  0  0  0  0  0  0  0
    6.7783  -16.8142    0.0000 C   0  0  0  0  0  0  0  0  0  0  0  0
    6.7760  -15.1642    0.0000 C   0  0  0  0  0  0  0  0  0  0  0  0
    6.0621  -15.5777    0.0000 C   0  0  0  0  0  0  0  0  0  0  0  0
    5.3470  -15.1662    0.0000 C   0  0  0  0  0  0  0  0  0  0  0  0
    4.6331  -15.5797    0.0000 C   0  0  0  0  0  0  0  0  0  0  0  0
  1  2  2  0  0  0  0
  2  3  1  0  0  0  0
  3  4  1  0  0  0  0
  4  5  1  0  0  0  0
  5  6  1  0  0  0  0
  1  6  1  0  0  0  0
  3  7  1  0  0  0  0
  3  8  1  0  0  0  0
  1  9  1  0  0  0  0
 10 11  1  0  0  0  0
 11 12  1  0  0  0  0
 12 13  2  0  0  0  0
  2 10  1  0  0  0  0
M  END
>  <cdx:fragmentId>
209175

$$$$
