7938.cdx
  Mrv1902 05222410222D          

  8  8  0  0  0  0            999 V2000
    8.0185   -5.1156    0.0000 C   0  0  0  0  0  0  0  0  0  0  0  0
    8.0185   -5.9406    0.0000 C   0  0  0  0  0  0  0  0  0  0  0  0
    7.3040   -4.7031    0.0000 N   0  0  0  0  0  0  0  0  0  0  0  0
    7.3040   -6.3531    0.0000 N   0  0  0  0  0  0  0  0  0  0  0  0
    6.5895   -5.9406    0.0000 C   0  0  0  0  0  0  0  0  0  0  0  0
    6.5895   -5.1156    0.0000 C   0  0  0  0  0  0  0  0  0  0  0  0
    5.8751   -4.7031    0.0000 C   0  0  0  0  0  0  0  0  0  0  0  0
    8.7329   -4.7031    0.0000 C   0  0  0  0  0  0  0  0  0  0  0  0
  1  2  1  0  0  0  0
  1  3  2  0  0  0  0
  2  4  2  0  0  0  0
  4  5  1  0  0  0  0
  5  6  2  0  0  0  0
  3  6  1  0  0  0  0
  6  7  1  0  0  0  0
  1  8  1  0  0  0  0
M  END
>  <cdx:fragmentId>
5

$$$$
