793905.cdx
  Mrv1902 05222410282D          

 10  9  0  0  0  0            999 V2000
    8.4600   -5.3908    0.0000 C   0  0  0  0  0  0  0  0  0  0  0  0
    8.4573   -4.5659    0.0000 O   0  0  0  0  0  0  0  0  0  0  0  0
    7.0311   -5.3955    0.0000 N   0  0  0  0  0  0  0  0  0  0  0  0
    6.3287   -9.1103    0.0000 C   0  0  0  0  0  0  0  0  0  0  0  0
    6.3260   -8.2853    0.0000 C   0  0  0  0  0  0  0  0  0  0  0  0
    7.0391   -7.8705    0.0000 C   0  0  0  0  0  0  0  0  0  0  0  0
    7.0364   -7.0455    0.0000 S   0  0  0  0  0  0  0  0  0  0  0  0
    9.1758   -5.8010    0.0000 O   0  0  0  0  0  0  0  0  0  0  0  0
    7.7495   -6.6307    0.0000 C   0  0  0  0  0  0  0  0  0  0  0  0
    7.7469   -5.8057    0.0000 C   0  0  1  0  0  0  0  0  0  0  0  0
 10  3  1  6  0  0  0
  9  7  1  0  0  0  0
  7  6  1  0  0  0  0
  5  4  2  0  0  0  0
  6  5  1  0  0  0  0
 10  9  1  0  0  0  0
  1 10  1  0  0  0  0
  1  2  2  0  0  0  0
  1  8  1  0  0  0  0
M  END
>  <cdx:fragmentId>
5

$$$$
