7941.cdx
  Mrv1902 05222410262D          

 10 10  0  0  0  0            999 V2000
    3.3239   -5.1356    0.0000 C   0  0  0  0  0  0  0  0  0  0  0  0
    4.0384   -5.5481    0.0000 C   0  0  0  0  0  0  0  0  0  0  0  0
    4.7528   -5.1356    0.0000 C   0  0  0  0  0  0  0  0  0  0  0  0
    4.7528   -4.3106    0.0000 C   0  0  0  0  0  0  0  0  0  0  0  0
    4.0384   -3.8981    0.0000 C   0  0  0  0  0  0  0  0  0  0  0  0
    3.3239   -4.3106    0.0000 C   0  0  0  0  0  0  0  0  0  0  0  0
    5.4673   -5.5481    0.0000 C   0  0  0  0  0  0  0  0  0  0  0  0
    6.1818   -5.1356    0.0000 C   0  0  0  0  0  0  0  0  0  0  0  0
    2.6094   -5.5481    0.0000 C   0  0  0  0  0  0  0  0  0  0  0  0
    1.8950   -5.1356    0.0000 C   0  0  0  0  0  0  0  0  0  0  0  0
  1  2  1  0  0  0  0
  2  3  2  0  0  0  0
  3  4  1  0  0  0  0
  4  5  2  0  0  0  0
  5  6  1  0  0  0  0
  1  6  2  0  0  0  0
  7  8  2  0  0  0  0
  3  7  1  0  0  0  0
  9 10  2  0  0  0  0
  1  9  1  0  0  0  0
M  END
>  <cdx:groupId>
32

>  <cdx:fragmentId>
5

$$$$
