7945.cdx
  Mrv1902 05222410282D          

  9  8  0  0  0  0            999 V2000
    5.0696   -4.7721    0.0000 C   0  0  0  0  0  0  0  0  0  0  0  0
    4.3552   -5.1846    0.0000 C   0  0  0  0  0  0  0  0  0  0  0  0
    3.6407   -4.7721    0.0000 C   0  0  0  0  0  0  0  0  0  0  0  0
    3.6407   -3.9471    0.0000 C   0  0  0  0  0  0  0  0  0  0  0  0
    5.0696   -3.9471    0.0000 O   0  0  0  0  0  0  0  0  0  0  0  0
    5.7841   -5.1846    0.0000 O   0  0  0  0  0  0  0  0  0  0  0  0
    2.9262   -5.1846    0.0000 C   0  0  0  0  0  0  0  0  0  0  0  0
    6.4986   -4.7721    0.0000 C   0  0  0  0  0  0  0  0  0  0  0  0
    7.2130   -5.1846    0.0000 C   0  0  0  0  0  0  0  0  0  0  0  0
  1  2  1  0  0  0  0
  2  3  1  0  0  0  0
  3  4  1  0  0  0  0
  1  5  2  0  0  0  0
  1  6  1  0  0  0  0
  3  7  1  0  0  0  0
  8  9  1  0  0  0  0
  6  8  1  0  0  0  0
M  END
>  <cdx:groupId>
28

>  <cdx:fragmentId>
5

$$$$
