794663.cdx
  Mrv1902 05222410282D          

 54 62  0  0  0  0            999 V2000
    8.9226  -10.5384    0.0000 H   0  0  0  0  0  0  0  0  0  0  0  0
    6.7295   -8.3555    0.0000 H   0  0  0  0  0  0  0  0  0  0  0  0
    5.7347  -10.5594    0.0000 H   0  0  0  0  0  0  0  0  0  0  0  0
    3.3106  -12.3844    0.0000 O   0  0  0  0  0  0  0  0  0  0  0  0
    5.1899  -11.2741    0.0000 C   0  0  0  0  0  0  0  0  0  0  0  0
    4.6561  -11.9031    0.0000 C   0  0  0  0  0  0  0  0  0  0  0  0
    3.8444  -11.7553    0.0000 C   0  0  0  0  0  0  0  0  0  0  0  0
    3.5665  -10.9785    0.0000 C   0  0  0  0  0  0  0  0  0  0  0  0
    4.1003  -10.3495    0.0000 C   0  0  0  0  0  0  0  0  0  0  0  0
    4.9120  -10.4973    0.0000 C   0  0  0  0  0  0  0  0  0  0  0  0
    7.3325   -5.5490    0.0000 O   0  0  0  0  0  0  0  0  0  0  0  0
    6.6246   -7.6138    0.0000 C   0  0  0  0  0  0  0  0  0  0  0  0
    6.6219   -6.7888    0.0000 C   0  0  0  0  0  0  0  0  0  0  0  0
    7.3351   -6.3740    0.0000 C   0  0  0  0  0  0  0  0  0  0  0  0
    8.0509   -6.7843    0.0000 C   0  0  0  0  0  0  0  0  0  0  0  0
    8.0535   -7.6093    0.0000 C   0  0  0  0  0  0  0  0  0  0  0  0
    7.3403   -8.0240    0.0000 C   0  0  0  0  0  0  0  0  0  0  0  0
   11.9520  -10.9103    0.0000 O   0  0  0  0  0  0  0  0  0  0  0  0
    9.8210  -10.4378    0.0000 C   0  0  0  0  0  0  0  0  0  0  0  0
   10.6406  -10.3429    0.0000 C   0  0  0  0  0  0  0  0  0  0  0  0
   11.1325  -11.0052    0.0000 C   0  0  0  0  0  0  0  0  0  0  0  0
   10.8049  -11.7624    0.0000 C   0  0  0  0  0  0  0  0  0  0  0  0
    9.9854  -11.8573    0.0000 C   0  0  0  0  0  0  0  0  0  0  0  0
    9.4934  -11.1950    0.0000 C   0  0  0  0  0  0  0  0  0  0  0  0
    5.3910  -12.5178    0.0000 O   0  0  0  0  0  0  0  0  0  0  0  0
   10.5544   -9.5203    0.0000 O   0  0  0  0  0  0  0  0  0  0  0  0
    8.3979   -7.9236    0.0000 O   0  0  0  0  0  0  0  0  0  0  0  0
    5.1780   -6.5927    0.0000 O   0  0  0  0  0  0  0  0  0  0  0  0
    3.8223   -9.1086    0.0000 O   0  0  0  0  0  0  0  0  0  0  0  0
    7.3498  -11.0048    0.0000 C   0  0  0  0  0  0  0  0  0  0  0  0
    5.9337  -11.1959    0.0000 C   0  0  0  0  0  0  0  0  0  0  0  0
    6.0439  -12.0135    0.0000 C   0  0  0  0  0  0  0  0  0  0  0  0
    6.8071  -12.3267    0.0000 C   0  0  0  0  0  0  0  0  0  0  0  0
    7.4601  -11.8224    0.0000 C   0  0  0  0  0  0  0  0  0  0  0  0
    8.2637  -12.0056    0.0000 O   0  0  0  0  0  0  0  0  0  0  0  0
    8.6739  -11.2898    0.0000 C   0  0  2  0  0  0  0  0  0  0  0  0
    8.1110  -10.6867    0.0000 C   0  0  2  0  0  0  0  0  0  0  0  0
    8.4243   -9.9235    0.0000 C   0  0  0  0  0  0  0  0  0  0  0  0
    9.2426  -10.0286    0.0000 C   0  0  0  0  0  0  0  0  0  0  0  0
    9.7427   -9.3725    0.0000 C   0  0  0  0  0  0  0  0  0  0  0  0
    9.4246   -8.6113    0.0000 C   0  0  0  0  0  0  0  0  0  0  0  0
    8.6063   -8.5062    0.0000 C   0  0  0  0  0  0  0  0  0  0  0  0
    8.1062   -9.1623    0.0000 C   0  0  0  0  0  0  0  0  0  0  0  0
    7.3430   -8.8490    0.0000 C   0  0  2  0  0  0  0  0  0  0  0  0
    6.5818   -9.1672    0.0000 C   0  0  2  0  0  0  0  0  0  0  0  0
    5.9527   -8.6334    0.0000 C   0  0  0  0  0  0  0  0  0  0  0  0
    5.9285   -7.8087    0.0000 C   0  0  0  0  0  0  0  0  0  0  0  0
    5.2022   -7.4174    0.0000 C   0  0  0  0  0  0  0  0  0  0  0  0
    4.5002   -7.8506    0.0000 C   0  0  0  0  0  0  0  0  0  0  0  0
    4.5244   -8.6753    0.0000 C   0  0  0  0  0  0  0  0  0  0  0  0
    5.2507   -9.0666    0.0000 C   0  0  0  0  0  0  0  0  0  0  0  0
    5.4458   -9.8682    0.0000 C   0  0  1  0  0  0  0  0  0  0  0  0
    6.2685   -9.9304    0.0000 C   0  0  1  0  0  0  0  0  0  0  0  0
    6.5866  -10.6916    0.0000 C   0  0  0  0  0  0  0  0  0  0  0  0
 37  1  1  6  0  0  0
 45  2  1  6  0  0  0
 53  3  1  1  0  0  0
 52 10  1  1  0  0  0
  7  4  1  0  0  0  0
 10  5  2  0  0  0  0
  6  5  1  0  0  0  0
  7  6  2  0  0  0  0
  8  7  1  0  0  0  0
  9  8  2  0  0  0  0
 10  9  1  0  0  0  0
 44 17  1  6  0  0  0
 14 11  1  0  0  0  0
 17 12  2  0  0  0  0
 13 12  1  0  0  0  0
 14 13  2  0  0  0  0
 15 14  1  0  0  0  0
 16 15  2  0  0  0  0
 17 16  1  0  0  0  0
 36 24  1  6  0  0  0
 21 18  1  0  0  0  0
 24 19  2  0  0  0  0
 20 19  1  0  0  0  0
 21 20  2  0  0  0  0
 22 21  1  0  0  0  0
 23 22  2  0  0  0  0
 24 23  1  0  0  0  0
 32 25  1  0  0  0  0
 40 26  1  0  0  0  0
 42 27  1  0  0  0  0
 48 28  1  0  0  0  0
 50 29  1  0  0  0  0
 34 30  1  0  0  0  0
 51 46  2  0  0  0  0
 53 45  1  0  0  0  0
 43 38  2  0  0  0  0
 30 37  1  0  0  0  0
 54 30  2  0  0  0  0
 54 31  1  0  0  0  0
 32 31  2  0  0  0  0
 33 32  1  0  0  0  0
 34 33  2  0  0  0  0
 35 34  1  0  0  0  0
 36 35  1  0  0  0  0
 37 36  1  0  0  0  0
 38 37  1  0  0  0  0
 39 38  1  0  0  0  0
 40 39  2  0  0  0  0
 41 40  1  0  0  0  0
 42 41  2  0  0  0  0
 43 42  1  0  0  0  0
 44 43  1  0  0  0  0
 45 44  1  0  0  0  0
 46 45  1  0  0  0  0
 47 46  1  0  0  0  0
 48 47  2  0  0  0  0
 49 48  1  0  0  0  0
 50 49  2  0  0  0  0
 51 50  1  0  0  0  0
 52 51  1  0  0  0  0
 53 52  1  0  0  0  0
 54 53  1  0  0  0  0
M  END
>  <cdx:fragmentId>
5

$$$$
