7947.cdx
  Mrv1902 05222410272D          

  9  9  0  0  0  0            999 V2000
    5.4747   -3.9061    0.0000 C   0  0  0  0  0  0  0  0  0  0  0  0
    5.4747   -4.7311    0.0000 C   0  0  0  0  0  0  0  0  0  0  0  0
    4.7602   -5.1436    0.0000 C   0  0  0  0  0  0  0  0  0  0  0  0
    4.0458   -4.7311    0.0000 C   0  0  0  0  0  0  0  0  0  0  0  0
    4.0458   -3.9061    0.0000 C   0  0  0  0  0  0  0  0  0  0  0  0
    4.7602   -3.4936    0.0000 C   0  0  0  0  0  0  0  0  0  0  0  0
    3.3313   -3.4936    0.0000 C   0  0  0  0  0  0  0  0  0  0  0  0
    4.7602   -5.9686    0.0000 C   0  0  0  0  0  0  0  0  0  0  0  0
    6.1892   -3.4936    0.0000 C   0  0  0  0  0  0  0  0  0  0  0  0
  1  2  1  0  0  0  0
  2  3  2  0  0  0  0
  3  4  1  0  0  0  0
  4  5  2  0  0  0  0
  5  6  1  0  0  0  0
  1  6  2  0  0  0  0
  5  7  1  0  0  0  0
  3  8  1  0  0  0  0
  1  9  1  0  0  0  0
M  END
>  <cdx:groupId>
29

>  <cdx:fragmentId>
5

$$$$
