795086.cdx
  Mrv1902 05222410242D          

 37 41  0  0  0  0            999 V2000
    6.4794   -9.4570    0.0000 H   0  0  0  0  0  0  0  0  0  0  0  0
    7.8830   -6.9604    0.0000 H   0  0  0  0  0  0  0  0  0  0  0  0
    5.7839  -10.7053    0.0000 H   0  0  0  0  0  0  0  0  0  0  0  0
    8.3776   -5.7402    0.0000 O   0  0  0  0  0  0  0  0  0  0  0  0
    3.9191   -7.8183    0.0000 O   0  0  0  0  0  0  0  0  0  0  0  0
    4.7160   -8.0318    0.0000 C   0  0  0  0  0  0  0  0  0  0  0  0
    5.1870  -10.9514    0.0000 C   0  0  0  0  0  0  0  0  0  0  0  0
    4.3986  -10.7085    0.0000 C   0  0  0  0  0  0  0  0  0  0  0  0
    7.2001   -8.2086    0.0000 C   0  0  0  0  0  0  0  0  0  0  0  0
    7.9082   -9.4353    0.0000 C   0  0  0  0  0  0  0  0  0  0  0  0
    9.2866   -5.2888    0.0000 C   0  0  0  0  0  0  0  0  0  0  0  0
    7.7942   -6.3236    0.0000 C   0  0  0  0  0  0  0  0  0  0  0  0
    5.7713   -8.2304    0.0000 C   0  0  0  0  0  0  0  0  0  0  0  0
   10.7531   -7.7418    0.0000 O   0  0  0  0  0  0  0  0  0  0  0  0
   10.0576   -8.9900    0.0000 O   0  0  0  0  0  0  0  0  0  0  0  0
   10.0450   -8.1651    0.0000 C   0  0  0  0  0  0  0  0  0  0  0  0
    4.9829   -8.8125    0.0000 C   0  0  0  0  0  0  0  0  0  0  0  0
    4.5082   -9.4872    0.0000 C   0  0  0  0  0  0  0  0  0  0  0  0
    5.0032  -10.1472    0.0000 C   0  0  0  0  0  0  0  0  0  0  0  0
    6.4794   -8.6320    0.0000 C   0  0  1  0  0  0  0  0  0  0  0  0
    6.4668   -7.8071    0.0000 C   0  0  0  0  0  0  0  0  0  0  0  0
    7.1749   -7.3838    0.0000 C   0  0  0  0  0  0  0  0  0  0  0  0
    7.8956   -7.7853    0.0000 C   0  0  0  0  0  0  0  0  0  0  0  0
    8.6037   -7.3620    0.0000 C   0  0  2  0  0  0  0  0  0  0  0  0
    8.5911   -6.5371    0.0000 C   0  0  1  0  0  0  0  0  0  0  0  0
    9.2992   -6.1137    0.0000 C   0  0  1  0  0  0  0  0  0  0  0  0
   10.0199   -6.5153    0.0000 C   0  0  0  0  0  0  0  0  0  0  0  0
   10.0325   -7.3402    0.0000 C   0  0  0  0  0  0  0  0  0  0  0  0
    9.3244   -7.7636    0.0000 C   0  0  1  0  0  0  0  0  0  0  0  0
    9.3369   -8.5885    0.0000 C   0  0  0  0  0  0  0  0  0  0  0  0
    8.6288   -9.0118    0.0000 C   0  0  0  0  0  0  0  0  0  0  0  0
    7.9082   -8.6103    0.0000 C   0  0  2  0  0  0  0  0  0  0  0  0
    7.2001   -9.0336    0.0000 C   0  0  1  0  0  0  0  0  0  0  0  0
    7.2127   -9.8585    0.0000 C   0  0  0  0  0  0  0  0  0  0  0  0
    6.5046  -10.2819    0.0000 C   0  0  0  0  0  0  0  0  0  0  0  0
    5.7839   -9.8803    0.0000 C   0  0  2  0  0  0  0  0  0  0  0  0
    5.7713   -9.0554    0.0000 C   0  0  1  0  0  0  0  0  0  0  0  0
 20  1  1  6  0  0  0
 24  2  1  1  0  0  0
 36  3  1  6  0  0  0
 25  4  1  6  0  0  0
 17  6  1  0  0  0  0
  6  5  1  0  0  0  0
 19  7  1  0  0  0  0
 19  8  1  0  0  0  0
 33  9  1  1  0  0  0
 32 10  1  6  0  0  0
 26 11  1  6  0  0  0
 25 12  1  1  0  0  0
 37 13  1  1  0  0  0
 29 16  1  1  0  0  0
 16 14  1  0  0  0  0
 16 15  2  0  0  0  0
 19 36  1  0  0  0  0
 17 37  1  0  0  0  0
 18 17  2  0  0  0  0
 19 18  1  0  0  0  0
 37 20  1  0  0  0  0
 33 20  1  0  0  0  0
 21 20  1  0  0  0  0
 22 21  1  0  0  0  0
 23 22  2  0  0  0  0
 32 23  1  0  0  0  0
 24 23  1  0  0  0  0
 29 24  1  0  0  0  0
 25 24  1  0  0  0  0
 26 25  1  0  0  0  0
 27 26  1  0  0  0  0
 28 27  1  0  0  0  0
 29 28  1  0  0  0  0
 30 29  1  0  0  0  0
 31 30  1  0  0  0  0
 32 31  1  0  0  0  0
 33 32  1  0  0  0  0
 34 33  1  0  0  0  0
 35 34  1  0  0  0  0
 36 35  1  0  0  0  0
 37 36  1  0  0  0  0
M  END
>  <cdx:fragmentId>
90760

$$$$
