79523.cdx
  Mrv1902 05222410182D          

 13 13  0  0  0  0            999 V2000
    5.4195   -3.1014    0.0000 C   0  0  0  0  0  0  0  0  0  0  0  0
    4.7050   -3.5139    0.0000 C   0  0  0  0  0  0  0  0  0  0  0  0
    4.7050   -4.3389    0.0000 C   0  0  0  0  0  0  0  0  0  0  0  0
    5.4195   -4.7514    0.0000 O   0  0  0  0  0  0  0  0  0  0  0  0
    3.9905   -4.7514    0.0000 C   0  0  0  0  0  0  0  0  0  0  0  0
    3.2760   -4.3389    0.0000 C   0  0  0  0  0  0  0  0  0  0  0  0
    3.2760   -3.5139    0.0000 C   0  0  0  0  0  0  0  0  0  0  0  0
    3.9905   -3.1014    0.0000 C   0  0  0  0  0  0  0  0  0  0  0  0
    5.4195   -2.2764    0.0000 O   0  0  0  0  0  0  0  0  0  0  0  0
    6.1339   -3.5139    0.0000 O   0  0  0  0  0  0  0  0  0  0  0  0
    2.5616   -4.7514    0.0000 O   0  0  0  0  0  0  0  0  0  0  0  0
    1.8471   -4.3389    0.0000 C   0  0  0  0  0  0  0  0  0  0  0  0
    6.8484   -3.1014    0.0000 C   0  0  0  0  0  0  0  0  0  0  0  0
  1  2  1  0  0  0  0
  2  3  1  0  0  0  0
  3  4  1  0  0  0  0
  3  5  2  0  0  0  0
  5  6  1  0  0  0  0
  6  7  2  0  0  0  0
  7  8  1  0  0  0  0
  2  8  2  0  0  0  0
  1  9  2  0  0  0  0
  1 10  1  0  0  0  0
 11 12  1  0  0  0  0
  6 11  1  0  0  0  0
 10 13  1  0  0  0  0
M  END
>  <cdx:groupId>
41

>  <cdx:fragmentId>
5

$$$$
