795339.cdx
  Mrv1902 05222410222D          

 38 43  0  0  0  0            999 V2000
    6.3829   -8.6388    0.0000 O   0  0  0  0  0  0  0  0  0  0  0  0
    7.0973   -9.0513    0.0000 C   0  0  2  0  0  0  0  0  0  0  0  0
    7.0973   -9.8763    0.0000 C   0  0  1  0  0  0  0  0  0  0  0  0
    6.3829  -10.2888    0.0000 C   0  0  2  0  0  0  0  0  0  0  0  0
    5.6684   -9.8763    0.0000 C   0  0  1  0  0  0  0  0  0  0  0  0
    5.6684   -9.0513    0.0000 C   0  0  1  0  0  0  0  0  0  0  0  0
    4.9539   -8.6388    0.0000 C   0  0  0  0  0  0  0  0  0  0  0  0
    4.2395   -9.0513    0.0000 O   0  0  0  0  0  0  0  0  0  0  0  0
    4.9539  -10.2888    0.0000 O   0  0  0  0  0  0  0  0  0  0  0  0
    6.3829  -11.1138    0.0000 O   0  0  0  0  0  0  0  0  0  0  0  0
    7.8118  -10.2888    0.0000 O   0  0  0  0  0  0  0  0  0  0  0  0
    9.2408   -6.9888    0.0000 H   0  0  0  0  0  0  0  0  0  0  0  0
    9.9552   -5.7513    0.0000 H   0  0  0  0  0  0  0  0  0  0  0  0
    9.2408   -8.6388    0.0000 C   0  0  0  0  0  0  0  0  0  0  0  0
    9.2408   -7.8138    0.0000 C   0  0  0  0  0  0  0  0  0  0  0  0
    7.8118   -8.6388    0.0000 O   0  0  0  0  0  0  0  0  0  0  0  0
    7.0973   -4.9263    0.0000 O   0  0  0  0  0  0  0  0  0  0  0  0
    9.2408   -6.1638    0.0000 C   0  0  0  0  0  0  0  0  0  0  0  0
    8.5263   -6.5763    0.0000 C   0  0  1  0  0  0  0  0  0  0  0  0
    8.5263   -7.4013    0.0000 C   0  0  2  0  0  0  0  0  0  0  0  0
    7.8118   -7.8138    0.0000 C   0  0  1  0  0  0  0  0  0  0  0  0
    7.0973   -7.4013    0.0000 O   0  0  0  0  0  0  0  0  0  0  0  0
    7.0973   -6.5763    0.0000 C   0  0  0  0  0  0  0  0  0  0  0  0
    7.8118   -6.1638    0.0000 C   0  0  0  0  0  0  0  0  0  0  0  0
    7.8118   -5.3388    0.0000 C   0  0  0  0  0  0  0  0  0  0  0  0
    8.5263   -4.9263    0.0000 N   0  0  0  0  0  0  0  0  0  0  0  0
    8.5263   -4.1013    0.0000 C   0  0  0  0  0  0  0  0  0  0  0  0
    9.2407   -3.6888    0.0000 C   0  0  0  0  0  0  0  0  0  0  0  0
    9.9552   -4.1013    0.0000 C   0  0  0  0  0  0  0  0  0  0  0  0
   10.7398   -3.8464    0.0000 C   0  0  0  0  0  0  0  0  0  0  0  0
   11.0754   -3.0927    0.0000 C   0  0  0  0  0  0  0  0  0  0  0  0
   11.8959   -3.0065    0.0000 C   0  0  0  0  0  0  0  0  0  0  0  0
   12.3808   -3.6739    0.0000 C   0  0  0  0  0  0  0  0  0  0  0  0
   12.0452   -4.4276    0.0000 C   0  0  0  0  0  0  0  0  0  0  0  0
   11.2248   -4.5138    0.0000 C   0  0  0  0  0  0  0  0  0  0  0  0
   10.7398   -5.1813    0.0000 N   0  0  0  0  0  0  0  0  0  0  0  0
    9.9552   -4.9263    0.0000 C   0  0  0  0  0  0  0  0  0  0  0  0
    9.2408   -5.3388    0.0000 C   0  0  1  0  0  0  0  0  0  0  0  0
 19 12  1  6  0  0  0
 38 13  1  6  0  0  0
 20 15  1  1  0  0  0
 15 14  2  0  0  0  0
 21 16  1  6  0  0  0
 25 17  2  0  0  0  0
 35 30  1  0  0  0  0
 37 29  2  0  0  0  0
 24 19  1  0  0  0  0
 38 26  1  0  0  0  0
 38 18  1  0  0  0  0
 19 18  1  0  0  0  0
 20 19  1  0  0  0  0
 21 20  1  0  0  0  0
 22 21  1  0  0  0  0
 23 22  1  0  0  0  0
 24 23  2  0  0  0  0
 25 24  1  0  0  0  0
 26 25  1  0  0  0  0
 27 26  1  0  0  0  0
 28 27  1  0  0  0  0
 29 28  1  0  0  0  0
 30 29  1  0  0  0  0
 31 30  2  0  0  0  0
 32 31  1  0  0  0  0
 33 32  2  0  0  0  0
 34 33  1  0  0  0  0
 35 34  2  0  0  0  0
 36 35  1  0  0  0  0
 37 36  1  0  0  0  0
 38 37  1  0  0  0  0
  1  2  1  0  0  0  0
  2  3  1  0  0  0  0
  3  4  1  0  0  0  0
  4  5  1  0  0  0  0
  5  6  1  0  0  0  0
  1  6  1  0  0  0  0
  7  8  1  0  0  0  0
  6  7  1  1  0  0  0
  5  9  1  6  0  0  0
  4 10  1  1  0  0  0
  3 11  1  6  0  0  0
  2 16  1  1  0  0  0
M  END
>  <cdx:fragmentId>
5

$$$$
