79545.cdx
  Mrv1902 05222410222D          

 15 14  0  0  0  0            999 V2000
    5.6113   -5.5833    0.0000 C   0  0  0  0  0  0  0  0  0  0  0  0
    4.8969   -5.9958    0.0000 C   0  0  0  0  0  0  0  0  0  0  0  0
    4.1824   -5.5833    0.0000 C   0  0  0  0  0  0  0  0  0  0  0  0
    3.4679   -5.9958    0.0000 C   0  0  0  0  0  0  0  0  0  0  0  0
    2.7534   -5.5833    0.0000 C   0  0  0  0  0  0  0  0  0  0  0  0
    5.6113   -4.7583    0.0000 O   0  0  0  0  0  0  0  0  0  0  0  0
    6.3258   -5.9958    0.0000 O   0  0  0  0  0  0  0  0  0  0  0  0
    7.0403   -5.5833    0.0000 C   0  0  0  0  0  0  0  0  0  0  0  0
    7.7547   -5.9958    0.0000 C   0  0  0  0  0  0  0  0  0  0  0  0
    8.4692   -5.5833    0.0000 C   0  0  0  0  0  0  0  0  0  0  0  0
    9.1837   -5.9958    0.0000 C   0  0  0  0  0  0  0  0  0  0  0  0
    9.8981   -5.5833    0.0000 C   0  0  0  0  0  0  0  0  0  0  0  0
   10.6126   -5.9958    0.0000 C   0  0  0  0  0  0  0  0  0  0  0  0
   11.3271   -5.5833    0.0000 C   0  0  0  0  0  0  0  0  0  0  0  0
   12.0416   -5.9958    0.0000 C   0  0  0  0  0  0  0  0  0  0  0  0
  1  2  1  0  0  0  0
  2  3  1  0  0  0  0
  3  4  1  0  0  0  0
  4  5  1  0  0  0  0
  1  6  2  0  0  0  0
  1  7  1  0  0  0  0
  8  9  1  0  0  0  0
  9 10  1  0  0  0  0
 10 11  1  0  0  0  0
 11 12  1  0  0  0  0
 12 13  1  0  0  0  0
 13 14  1  0  0  0  0
 14 15  1  0  0  0  0
  7  8  1  0  0  0  0
M  END
>  <cdx:fragmentId>
19

$$$$
