795872.cdx
  Mrv1902 05222410262D          

 34 37  0  0  0  0            999 V2000
    4.5150   -9.2343    0.0000 C   0  0  0  0  0  0  0  0  0  0  0  0
    3.8005   -9.6468    0.0000 C   0  0  0  0  0  0  0  0  0  0  0  0
    3.8005  -10.4718    0.0000 C   0  0  0  0  0  0  0  0  0  0  0  0
    4.5150  -10.8843    0.0000 C   0  0  0  0  0  0  0  0  0  0  0  0
    5.2295  -10.4718    0.0000 C   0  0  0  0  0  0  0  0  0  0  0  0
    5.9439  -10.8843    0.0000 C   0  0  0  0  0  0  0  0  0  0  0  0
    6.6584  -10.4718    0.0000 C   0  0  0  0  0  0  0  0  0  0  0  0
    6.6584   -9.6468    0.0000 C   0  0  1  0  0  0  0  0  0  0  0  0
    7.3729   -9.2343    0.0000 C   0  0  2  0  0  0  0  0  0  0  0  0
    8.1575   -9.4893    0.0000 C   0  0  0  0  0  0  0  0  0  0  0  0
    8.6424   -8.8218    0.0000 C   0  0  0  0  0  0  0  0  0  0  0  0
    8.1575   -8.1544    0.0000 C   0  0  1  0  0  0  0  0  0  0  0  0
    7.3729   -8.4093    0.0000 C   0  0  1  0  0  0  0  0  0  0  0  0
    6.6584   -7.9968    0.0000 C   0  0  0  0  0  0  0  0  0  0  0  0
    5.9439   -8.4093    0.0000 C   0  0  0  0  0  0  0  0  0  0  0  0
    5.9439   -9.2343    0.0000 C   0  0  2  0  0  0  0  0  0  0  0  0
    5.2295   -9.6468    0.0000 C   0  0  1  0  0  0  0  0  0  0  0  0
    3.0860  -10.8843    0.0000 O   0  0  0  0  0  0  0  0  0  0  0  0
    7.8291   -6.7864    0.0000 C   0  0  0  0  0  0  0  0  0  0  0  0
    8.4124   -7.3698    0.0000 C   0  0  2  0  0  0  0  0  0  0  0  0
    9.2194   -7.1983    0.0000 C   0  0  0  0  0  0  0  0  0  0  0  0
    9.4743   -6.4136    0.0000 C   0  0  0  0  0  0  0  0  0  0  0  0
   10.0578   -4.8308    0.0000 C   0  0  0  0  0  0  0  0  0  0  0  0
    7.3729   -7.6171    0.0000 C   0  0  0  0  0  0  0  0  0  0  0  0
    5.2295   -8.8218    0.0000 C   0  0  0  0  0  0  0  0  0  0  0  0
    6.6584   -8.8218    0.0000 H   0  0  0  0  0  0  0  0  0  0  0  0
    5.9439  -10.0593    0.0000 H   0  0  0  0  0  0  0  0  0  0  0  0
    7.3729  -10.0593    0.0000 H   0  0  0  0  0  0  0  0  0  0  0  0
   10.5770   -5.4719    0.0000 C   0  0  0  0  0  0  0  0  0  0  0  0
   11.3918   -5.3428    0.0000 C   0  0  0  0  0  0  0  0  0  0  0  0
   11.5234   -6.8833    0.0000 C   0  0  0  0  0  0  0  0  0  0  0  0
   10.8005   -6.8833    0.0000 C   0  0  0  0  0  0  0  0  0  0  0  0
   10.2813   -6.2421    0.0000 C   0  0  0  0  0  0  0  0  0  0  0  0
    8.9565   -7.9403    0.0000 H   0  0  0  0  0  0  0  0  0  0  0  0
 33 29  1  0  0  0  0
 29 23  1  0  0  0  0
 30 29  1  0  0  0  0
 32 31  1  0  0  0  0
 33 32  2  0  0  0  0
  1  2  1  0  0  0  0
  2  3  1  0  0  0  0
  3  4  1  0  0  0  0
  4  5  2  0  0  0  0
  5  6  1  0  0  0  0
  6  7  1  0  0  0  0
  7  8  1  0  0  0  0
  8  9  1  0  0  0  0
  9 10  1  0  0  0  0
 10 11  1  0  0  0  0
 12 11  1  0  0  0  0
 12 13  1  0  0  0  0
  9 13  1  0  0  0  0
 13 14  1  0  0  0  0
 14 15  1  0  0  0  0
 15 16  1  0  0  0  0
  8 16  1  0  0  0  0
 16 17  1  0  0  0  0
  5 17  1  0  0  0  0
  1 17  1  0  0  0  0
  3 18  2  0  0  0  0
 20 19  1  6  0  0  0
 20 21  1  0  0  0  0
 21 22  1  0  0  0  0
 22 33  1  0  0  0  0
 12 20  1  0  0  0  0
 13 24  1  1  0  0  0
 17 25  1  1  0  0  0
  8 26  1  1  0  0  0
 16 27  1  6  0  0  0
  9 28  1  6  0  0  0
 12 34  1  6  0  0  0
M  END
>  <cdx:groupId>
2087

>  <cdx:fragmentId>
1988

$$$$
