796015.cdx
  Mrv1902 05222410252D          

 21 21  0  0  0  0            999 V2000
    5.9521   -5.5984    0.0000 C   0  0  0  0  0  0  0  0  0  0  0  0
    6.6665   -6.0109    0.0000 C   0  0  0  0  0  0  0  0  0  0  0  0
    7.3810   -5.5984    0.0000 C   0  0  0  0  0  0  0  0  0  0  0  0
    8.0955   -6.0109    0.0000 C   0  0  0  0  0  0  0  0  0  0  0  0
    8.8099   -5.5984    0.0000 C   0  0  0  0  0  0  0  0  0  0  0  0
    9.5244   -6.0109    0.0000 C   0  0  0  0  0  0  0  0  0  0  0  0
   10.2389   -5.5984    0.0000 C   0  0  0  0  0  0  0  0  0  0  0  0
   10.9534   -6.0109    0.0000 C   0  0  0  0  0  0  0  0  0  0  0  0
   11.6678   -5.5984    0.0000 C   0  0  0  0  0  0  0  0  0  0  0  0
   12.3823   -6.0109    0.0000 C   0  0  0  0  0  0  0  0  0  0  0  0
    7.3810   -4.7734    0.0000 O   0  0  0  0  0  0  0  0  0  0  0  0
    8.8099   -4.7734    0.0000 O   0  0  0  0  0  0  0  0  0  0  0  0
    5.2376   -6.0109    0.0000 C   0  0  0  0  0  0  0  0  0  0  0  0
    4.5231   -5.5984    0.0000 C   0  0  0  0  0  0  0  0  0  0  0  0
    3.8086   -6.0109    0.0000 C   0  0  0  0  0  0  0  0  0  0  0  0
    3.8086   -6.8359    0.0000 C   0  0  0  0  0  0  0  0  0  0  0  0
    4.5231   -7.2484    0.0000 C   0  0  0  0  0  0  0  0  0  0  0  0
    5.2376   -6.8359    0.0000 C   0  0  0  0  0  0  0  0  0  0  0  0
    3.0942   -5.5984    0.0000 O   0  0  0  0  0  0  0  0  0  0  0  0
    2.3797   -6.0109    0.0000 C   0  0  0  0  0  0  0  0  0  0  0  0
    3.0942   -7.2484    0.0000 O   0  0  0  0  0  0  0  0  0  0  0  0
  1  2  1  0  0  0  0
  2  3  1  0  0  0  0
  3  4  1  0  0  0  0
  4  5  1  0  0  0  0
  5  6  1  0  0  0  0
  6  7  1  0  0  0  0
  7  8  1  0  0  0  0
  8  9  1  0  0  0  0
  9 10  1  0  0  0  0
  3 11  2  0  0  0  0
  5 12  2  0  0  0  0
 13 14  1  0  0  0  0
 14 15  2  0  0  0  0
 15 16  1  0  0  0  0
 16 17  2  0  0  0  0
 17 18  1  0  0  0  0
 13 18  2  0  0  0  0
 19 20  1  0  0  0  0
 15 19  1  0  0  0  0
 16 21  1  0  0  0  0
  1 13  1  0  0  0  0
M  END
>  <cdx:fragmentId>
28157

$$$$
