796375.cdx
  Mrv1902 05222410252D          

 28 31  0  0  0  0            999 V2000
    9.6578   -9.0026    0.0000 C   0  0  0  0  0  0  0  0  0  0  0  0
    9.6560   -9.8276    0.0000 O   0  0  0  0  0  0  0  0  0  0  0  0
   10.3733   -8.5918    0.0000 O   0  0  0  0  0  0  0  0  0  0  0  0
    6.8000   -8.1711    0.0000 H   0  0  0  0  0  0  0  0  0  0  0  0
    8.9387  -11.0635    0.0000 C   0  0  0  0  0  0  0  0  0  0  0  0
    8.9405  -10.2385    0.0000 C   0  0  0  0  0  0  0  0  0  0  0  0
    4.5739   -9.0256    0.0000 O   0  0  0  0  0  0  0  0  0  0  0  0
    6.8000   -8.9961    0.0000 C   0  0  2  0  0  0  0  0  0  0  0  0
    7.5154   -8.5852    0.0000 C   0  0  0  0  0  0  0  0  0  0  0  0
    8.2289   -8.9994    0.0000 C   0  0  1  0  0  0  0  0  0  0  0  0
    8.2270   -9.8244    0.0000 C   0  0  2  0  0  0  0  0  0  0  0  0
    7.5116  -10.2352    0.0000 C   0  0  0  0  0  0  0  0  0  0  0  0
    6.7981   -9.8211    0.0000 N   0  0  0  0  0  0  0  0  0  0  0  0
    6.0129  -10.0742    0.0000 C   0  0  0  0  0  0  0  0  0  0  0  0
    5.5295   -9.4057    0.0000 C   0  0  0  0  0  0  0  0  0  0  0  0
    5.9640   -7.4055    0.0000 C   0  0  0  0  0  0  0  0  0  0  0  0
    6.2700   -6.6393    0.0000 C   0  0  0  0  0  0  0  0  0  0  0  0
    7.0865   -6.5213    0.0000 C   0  0  0  0  0  0  0  0  0  0  0  0
    7.5970   -7.1693    0.0000 C   0  0  0  0  0  0  0  0  0  0  0  0
    7.2910   -7.9355    0.0000 C   0  0  0  0  0  0  0  0  0  0  0  0
    6.4745   -8.0536    0.0000 C   0  0  0  0  0  0  0  0  0  0  0  0
    6.0159   -8.7394    0.0000 C   0  0  2  0  0  0  0  0  0  0  0  0
    5.2220   -8.5151    0.0000 C   0  0  0  0  0  0  0  0  0  0  0  0
    5.1899   -7.6907    0.0000 N   0  0  0  0  0  0  0  0  0  0  0  0
    8.2346   -6.5244    0.0000 C   0  0  0  0  0  0  0  0  0  0  0  0
    8.2327   -7.3494    0.0000 O   0  0  0  0  0  0  0  0  0  0  0  0
    8.9462   -7.7635    0.0000 C   0  0  0  0  0  0  0  0  0  0  0  0
    8.9443   -8.5885    0.0000 C   0  0  0  0  0  0  0  0  0  0  0  0
  8  4  1  1  0  0  0
 10 28  1  6  0  0  0
 11  6  1  1  0  0  0
  6  5  1  0  0  0  0
 23  7  2  0  0  0  0
 22  8  1  0  0  0  0
 22 15  1  6  0  0  0
 13  8  1  0  0  0  0
  9  8  1  0  0  0  0
 10  9  1  0  0  0  0
 11 10  1  0  0  0  0
 12 11  1  0  0  0  0
 13 12  1  0  0  0  0
 14 13  1  0  0  0  0
 15 14  1  0  0  0  0
 21 16  2  0  0  0  0
 24 16  1  0  0  0  0
 17 16  1  0  0  0  0
 18 17  2  0  0  0  0
 19 18  1  0  0  0  0
 20 19  2  0  0  0  0
 21 20  1  0  0  0  0
 22 21  1  0  0  0  0
 23 22  1  0  0  0  0
 24 23  1  0  0  0  0
 27 26  1  0  0  0  0
 26 25  1  0  0  0  0
 28 27  2  0  0  0  0
  1 28  1  0  0  0  0
  1  2  2  0  0  0  0
  1  3  1  0  0  0  0
M  END
>  <cdx:fragmentId>
39996

$$$$
