796489.cdx
  Mrv1902 05222410262D          

 31 34  0  0  0  0            999 V2000
    7.8641  -10.9807    0.0000 C   0  0  0  0  0  0  0  0  0  0  0  0
    7.8611  -11.8057    0.0000 C   0  0  0  0  0  0  0  0  0  0  0  0
    7.1451  -12.2155    0.0000 C   0  0  0  0  0  0  0  0  0  0  0  0
    6.4321  -11.8003    0.0000 C   0  0  0  0  0  0  0  0  0  0  0  0
    5.7161  -12.2102    0.0000 C   0  0  0  0  0  0  0  0  0  0  0  0
    5.0032  -11.7950    0.0000 C   0  0  0  0  0  0  0  0  0  0  0  0
    5.0063  -10.9700    0.0000 C   0  0  0  0  0  0  0  0  0  0  0  0
    5.7223  -10.5602    0.0000 C   0  0  0  0  0  0  0  0  0  0  0  0
    6.4352  -10.9753    0.0000 C   0  0  0  0  0  0  0  0  0  0  0  0
    7.1512  -10.5655    0.0000 O   0  0  0  0  0  0  0  0  0  0  0  0
    5.7254   -9.7352    0.0000 C   0  0  0  0  0  0  0  0  0  0  0  0
    5.0124   -9.3200    0.0000 C   0  0  0  0  0  0  0  0  0  0  0  0
    4.2964   -9.7298    0.0000 C   0  0  0  0  0  0  0  0  0  0  0  0
    4.2934  -10.5548    0.0000 O   0  0  0  0  0  0  0  0  0  0  0  0
    7.1420  -13.0405    0.0000 O   0  0  0  0  0  0  0  0  0  0  0  0
    3.5835   -9.3147    0.0000 C   0  0  0  0  0  0  0  0  0  0  0  0
    3.5866   -8.4897    0.0000 C   0  0  0  0  0  0  0  0  0  0  0  0
    2.8737   -8.0745    0.0000 C   0  0  0  0  0  0  0  0  0  0  0  0
    2.8767   -7.2495    0.0000 C   0  0  0  0  0  0  0  0  0  0  0  0
    2.1638   -6.8344    0.0000 C   0  0  0  0  0  0  0  0  0  0  0  0
    3.5928   -6.8397    0.0000 C   0  0  0  0  0  0  0  0  0  0  0  0
    3.5804  -10.1397    0.0000 C   0  0  0  0  0  0  0  0  0  0  0  0
    5.7130  -13.0352    0.0000 O   0  0  0  0  0  0  0  0  0  0  0  0
    8.5801  -10.5709    0.0000 C   0  0  0  0  0  0  0  0  0  0  0  0
    8.5832   -9.7459    0.0000 C   0  0  0  0  0  0  0  0  0  0  0  0
    9.2992   -9.3360    0.0000 C   0  0  0  0  0  0  0  0  0  0  0  0
   10.0122   -9.7512    0.0000 C   0  0  0  0  0  0  0  0  0  0  0  0
   10.0091  -10.5762    0.0000 C   0  0  0  0  0  0  0  0  0  0  0  0
    9.2931  -10.9860    0.0000 C   0  0  0  0  0  0  0  0  0  0  0  0
   10.7282   -9.3414    0.0000 O   0  0  0  0  0  0  0  0  0  0  0  0
    7.8703   -9.3307    0.0000 O   0  0  0  0  0  0  0  0  0  0  0  0
  1  2  1  0  0  0  0
  2  3  1  0  0  0  0
  3  4  1  0  0  0  0
  4  5  1  0  0  0  0
  5  6  2  0  0  0  0
  6  7  1  0  0  0  0
  7  8  2  0  0  0  0
  8  9  1  0  0  0  0
  4  9  2  0  0  0  0
  9 10  1  0  0  0  0
  1 10  1  0  0  0  0
 11 12  2  0  0  0  0
 12 13  1  0  0  0  0
 13 14  1  0  0  0  0
 14  7  1  0  0  0  0
 11  8  1  0  0  0  0
  3 15  2  0  0  0  0
 16 17  1  0  0  0  0
 17 18  1  0  0  0  0
 18 19  2  0  0  0  0
 19 20  1  0  0  0  0
 19 21  1  0  0  0  0
 13 16  1  0  0  0  0
 13 22  1  0  0  0  0
  5 23  1  0  0  0  0
 24 25  1  0  0  0  0
 25 26  2  0  0  0  0
 26 27  1  0  0  0  0
 27 28  2  0  0  0  0
 28 29  1  0  0  0  0
 24 29  2  0  0  0  0
 27 30  1  0  0  0  0
 25 31  1  0  0  0  0
  1 24  1  0  0  0  0
M  END
>  <cdx:fragmentId>
81378

$$$$
