7967.cdx
  Mrv1902 05222410192D          

  7  7  0  0  0  0            999 V2000
    4.5551   -3.8497    0.0000 C   0  0  0  0  0  0  0  0  0  0  0  0
    4.5551   -4.6747    0.0000 C   0  0  0  0  0  0  0  0  0  0  0  0
    3.8406   -5.0872    0.0000 C   0  0  0  0  0  0  0  0  0  0  0  0
    3.1262   -4.6747    0.0000 C   0  0  0  0  0  0  0  0  0  0  0  0
    3.1262   -3.8497    0.0000 C   0  0  0  0  0  0  0  0  0  0  0  0
    3.8406   -3.4372    0.0000 C   0  0  0  0  0  0  0  0  0  0  0  0
    5.2696   -3.4372    0.0000 O   0  0  0  0  0  0  0  0  0  0  0  0
  1  2  1  0  0  0  0
  2  3  1  0  0  0  0
  3  4  1  0  0  0  0
  4  5  1  0  0  0  0
  5  6  1  0  0  0  0
  1  6  1  0  0  0  0
  1  7  2  0  0  0  0
M  END
>  <cdx:groupId>
23

>  <cdx:fragmentId>
5

$$$$
