9796891.cdx
  Mrv1902 05222410272D          

 23 25  0  0  0  0            999 V2000
   11.5872  -12.7215    0.0000 C   0  0  0  0  0  0  0  0  0  0  0  0
   11.5872  -11.8965    0.0000 C   0  0  0  0  0  0  0  0  0  0  0  0
   10.8728  -11.4840    0.0000 C   0  0  0  0  0  0  0  0  0  0  0  0
   10.1583  -11.8965    0.0000 C   0  0  0  0  0  0  0  0  0  0  0  0
    9.4438  -11.4840    0.0000 C   0  0  0  0  0  0  0  0  0  0  0  0
    8.7293  -11.8965    0.0000 C   0  0  0  0  0  0  0  0  0  0  0  0
    8.7293  -12.7215    0.0000 C   0  0  0  0  0  0  0  0  0  0  0  0
    9.4438  -13.1340    0.0000 C   0  0  0  0  0  0  0  0  0  0  0  0
   10.1583  -12.7215    0.0000 C   0  0  0  0  0  0  0  0  0  0  0  0
   10.8728  -13.1340    0.0000 O   0  0  0  0  0  0  0  0  0  0  0  0
   12.3017  -13.1340    0.0000 O   0  0  0  0  0  0  0  0  0  0  0  0
    8.0149  -13.1340    0.0000 O   0  0  0  0  0  0  0  0  0  0  0  0
    7.3004  -12.7215    0.0000 C   0  0  0  0  0  0  0  0  0  0  0  0
    6.5859  -13.1340    0.0000 C   0  0  0  0  0  0  0  0  0  0  0  0
    5.8715  -12.7215    0.0000 C   0  0  0  0  0  0  0  0  0  0  0  0
    5.1570  -13.1340    0.0000 C   0  0  0  0  0  0  0  0  0  0  0  0
    4.4425  -12.7215    0.0000 C   0  0  0  0  0  0  0  0  0  0  0  0
    5.8715  -11.8965    0.0000 C   0  0  0  0  0  0  0  0  0  0  0  0
    3.3155  -13.8484    0.0000 O   0  0  0  0  0  0  0  0  0  0  0  0
    3.7280  -13.1340    0.0000 C   0  0  0  0  0  0  0  0  0  0  0  0
    2.9030  -13.1340    0.0000 C   0  0  0  0  0  0  0  0  0  0  0  0
    2.0780  -13.1340    0.0000 C   0  0  0  0  0  0  0  0  0  0  0  0
    2.4905  -12.4195    0.0000 C   0  0  0  0  0  0  0  0  0  0  0  0
  1  2  1  0  0  0  0
  2  3  2  0  0  0  0
  3  4  1  0  0  0  0
  4  5  1  0  0  0  0
  5  6  2  0  0  0  0
  6  7  1  0  0  0  0
  7  8  2  0  0  0  0
  8  9  1  0  0  0  0
  4  9  2  0  0  0  0
  9 10  1  0  0  0  0
  1 10  1  0  0  0  0
  1 11  2  0  0  0  0
 13 14  1  0  0  0  0
 14 15  2  0  0  0  0
 15 16  1  0  0  0  0
 16 17  1  0  0  0  0
 12 13  1  0  0  0  0
 15 18  1  0  0  0  0
 19 20  1  0  0  0  0
 20 21  1  0  0  0  0
 19 21  1  0  0  0  0
 21 22  1  0  0  0  0
 21 23  1  0  0  0  0
 17 20  1  0  0  0  0
  7 12  1  0  0  0  0
M  END
>  <cdx:groupId>
28371

>  <cdx:fragmentId>
28327

$$$$
