7968.cdx
  Mrv1902 05222410262D          

  7  7  0  0  0  0            999 V2000
    5.7724   -9.4399    0.0000 C   0  0  0  0  0  0  0  0  0  0  0  0
    5.7714   -8.6149    0.0000 C   0  0  0  0  0  0  0  0  0  0  0  0
    6.4854   -8.2015    0.0000 C   0  0  0  0  0  0  0  0  0  0  0  0
    7.2004   -8.6131    0.0000 C   0  0  0  0  0  0  0  0  0  0  0  0
    7.2014   -9.4381    0.0000 C   0  0  0  0  0  0  0  0  0  0  0  0
    6.4874   -9.8515    0.0000 O   0  0  0  0  0  0  0  0  0  0  0  0
    6.4844   -7.3765    0.0000 O   0  0  0  0  0  0  0  0  0  0  0  0
  1  2  2  0  0  0  0
  2  3  1  0  0  0  0
  3  4  1  0  0  0  0
  4  5  2  0  0  0  0
  5  6  1  0  0  0  0
  1  6  1  0  0  0  0
  3  7  2  0  0  0  0
M  END
>  <cdx:fragmentId>
5

$$$$
