7970.cdx
  Mrv1902 05222410202D          

  7  7  0  0  0  0            999 V2000
    4.7585   -2.4544    0.0000 C   0  0  0  0  0  0  0  0  0  0  0  0
    5.4729   -2.8669    0.0000 C   0  0  0  0  0  0  0  0  0  0  0  0
    5.4729   -3.6919    0.0000 C   0  0  0  0  0  0  0  0  0  0  0  0
    4.7585   -4.1044    0.0000 C   0  0  0  0  0  0  0  0  0  0  0  0
    4.0440   -3.6919    0.0000 C   0  0  0  0  0  0  0  0  0  0  0  0
    4.0440   -2.8669    0.0000 N   0  0  0  0  0  0  0  0  0  0  0  0
    6.1874   -2.4544    0.0000 C   0  0  0  0  0  0  0  0  0  0  0  0
  1  2  1  0  0  0  0
  2  3  2  0  0  0  0
  3  4  1  0  0  0  0
  4  5  2  0  0  0  0
  5  6  1  0  0  0  0
  1  6  2  0  0  0  0
  2  7  1  0  0  0  0
M  END
>  <cdx:groupId>
23

>  <cdx:fragmentId>
5

$$$$
