7971.cdx
  Mrv1902 05222410202D          

  7  7  0  0  0  0            999 V2000
    4.8771   -2.2616    0.0000 C   0  0  0  0  0  0  0  0  0  0  0  0
    5.5916   -2.6741    0.0000 C   0  0  0  0  0  0  0  0  0  0  0  0
    5.5916   -3.4991    0.0000 C   0  0  0  0  0  0  0  0  0  0  0  0
    4.8771   -3.9116    0.0000 C   0  0  0  0  0  0  0  0  0  0  0  0
    4.1626   -3.4991    0.0000 C   0  0  0  0  0  0  0  0  0  0  0  0
    4.1626   -2.6741    0.0000 N   0  0  0  0  0  0  0  0  0  0  0  0
    6.3060   -2.2616    0.0000 O   0  0  0  0  0  0  0  0  0  0  0  0
  1  2  1  0  0  0  0
  2  3  2  0  0  0  0
  3  4  1  0  0  0  0
  4  5  2  0  0  0  0
  5  6  1  0  0  0  0
  1  6  2  0  0  0  0
  2  7  1  0  0  0  0
M  END
>  <cdx:groupId>
23

>  <cdx:fragmentId>
5

$$$$
