7972.cdx
  Mrv1902 05222410192D          

 14 14  0  0  0  0            999 V2000
    3.8847   -8.6970    0.0000 O   0  0  0  0  0  0  0  0  0  0  0  0
    4.6384   -9.0326    0.0000 C   0  0  0  0  0  0  0  0  0  0  0  0
    4.5522   -9.8530    0.0000 C   0  0  0  0  0  0  0  0  0  0  0  0
    3.7452  -10.0246    0.0000 C   0  0  0  0  0  0  0  0  0  0  0  0
    3.3327   -9.3101    0.0000 C   0  0  0  0  0  0  0  0  0  0  0  0
    5.3529   -8.6201    0.0000 C   0  0  0  0  0  0  0  0  0  0  0  0
    6.0673   -9.0326    0.0000 C   0  0  0  0  0  0  0  0  0  0  0  0
    6.7818   -8.6201    0.0000 C   0  0  0  0  0  0  0  0  0  0  0  0
    7.4963   -8.2076    0.0000 C   0  0  0  0  0  0  0  0  0  0  0  0
    8.2108   -7.7951    0.0000 C   0  0  0  0  0  0  0  0  0  0  0  0
    8.9252   -7.3826    0.0000 C   0  0  0  0  0  0  0  0  0  0  0  0
    9.6397   -6.9701    0.0000 C   0  0  0  0  0  0  0  0  0  0  0  0
   10.3542   -7.3826    0.0000 C   0  0  0  0  0  0  0  0  0  0  0  0
   11.0686   -6.9701    0.0000 C   0  0  0  0  0  0  0  0  0  0  0  0
  1  2  1  0  0  0  0
  2  3  2  0  0  0  0
  3  4  1  0  0  0  0
  4  5  2  0  0  0  0
  1  5  1  0  0  0  0
  6  7  2  0  0  0  0
  7  8  1  0  0  0  0
  8  9  3  0  0  0  0
  9 10  1  0  0  0  0
 10 11  3  0  0  0  0
 11 12  1  0  0  0  0
 12 13  2  0  0  0  0
 13 14  1  0  0  0  0
  2  6  1  0  0  0  0
M  END
>  <cdx:fragmentId>
15

$$$$
