79730.cdx
  Mrv1902 05222410202D          

 23 25  0  0  0  0            999 V2000
    5.9466   -2.8823    0.0000 C   0  0  0  0  0  0  0  0  0  0  0  0
    5.9466   -3.7073    0.0000 C   0  0  0  0  0  0  0  0  0  0  0  0
    5.2321   -4.1198    0.0000 C   0  0  0  0  0  0  0  0  0  0  0  0
    5.2321   -4.9448    0.0000 O   0  0  0  0  0  0  0  0  0  0  0  0
    4.5177   -3.7073    0.0000 C   0  0  0  0  0  0  0  0  0  0  0  0
    3.8032   -4.1198    0.0000 C   0  0  0  0  0  0  0  0  0  0  0  0
    3.0887   -3.7073    0.0000 C   0  0  0  0  0  0  0  0  0  0  0  0
    3.0887   -2.8823    0.0000 C   0  0  0  0  0  0  0  0  0  0  0  0
    3.8032   -2.4698    0.0000 C   0  0  0  0  0  0  0  0  0  0  0  0
    4.5177   -2.8823    0.0000 C   0  0  0  0  0  0  0  0  0  0  0  0
    5.2321   -2.4698    0.0000 O   0  0  0  0  0  0  0  0  0  0  0  0
    6.6611   -2.4698    0.0000 C   0  0  0  0  0  0  0  0  0  0  0  0
    6.6611   -1.6448    0.0000 C   0  0  0  0  0  0  0  0  0  0  0  0
    7.3756   -1.2323    0.0000 C   0  0  0  0  0  0  0  0  0  0  0  0
    8.0900   -1.6448    0.0000 C   0  0  0  0  0  0  0  0  0  0  0  0
    8.0900   -2.4698    0.0000 C   0  0  0  0  0  0  0  0  0  0  0  0
    7.3756   -2.8823    0.0000 C   0  0  0  0  0  0  0  0  0  0  0  0
    2.3743   -2.4698    0.0000 O   0  0  0  0  0  0  0  0  0  0  0  0
    1.6598   -2.8823    0.0000 C   0  0  0  0  0  0  0  0  0  0  0  0
    3.8032   -4.9448    0.0000 O   0  0  0  0  0  0  0  0  0  0  0  0
    3.0887   -5.3573    0.0000 C   0  0  0  0  0  0  0  0  0  0  0  0
    8.8045   -1.2323    0.0000 O   0  0  0  0  0  0  0  0  0  0  0  0
    9.5190   -1.6448    0.0000 C   0  0  0  0  0  0  0  0  0  0  0  0
  1  2  2  0  0  0  0
  2  3  1  0  0  0  0
  3  4  2  0  0  0  0
  3  5  1  0  0  0  0
  5  6  1  0  0  0  0
  6  7  2  0  0  0  0
  7  8  1  0  0  0  0
  8  9  2  0  0  0  0
  9 10  1  0  0  0  0
  5 10  2  0  0  0  0
 10 11  1  0  0  0  0
  1 11  1  0  0  0  0
  1 12  1  0  0  0  0
 12 13  1  0  0  0  0
 13 14  2  0  0  0  0
 14 15  1  0  0  0  0
 15 16  2  0  0  0  0
 16 17  1  0  0  0  0
 12 17  2  0  0  0  0
 18 19  1  0  0  0  0
  8 18  1  0  0  0  0
 20 21  1  0  0  0  0
  6 20  1  0  0  0  0
 22 23  1  0  0  0  0
 15 22  1  0  0  0  0
M  END
>  <cdx:groupId>
73

>  <cdx:fragmentId>
5

$$$$
