7974.cdx
  Mrv1902 05222410182D          

 18 20  0  0  0  0            999 V2000
    3.9220   -6.8475    0.0000 C   0  0  0  0  0  0  0  0  0  0  0  0
    3.9220   -7.6725    0.0000 C   0  0  0  0  0  0  0  0  0  0  0  0
    4.6365   -8.0850    0.0000 C   0  0  0  0  0  0  0  0  0  0  0  0
    5.3510   -7.6725    0.0000 C   0  0  1  0  0  0  0  0  0  0  0  0
    5.3510   -6.8475    0.0000 C   0  0  2  0  0  0  0  0  0  0  0  0
    4.6365   -6.4350    0.0000 C   0  0  0  0  0  0  0  0  0  0  0  0
    6.0654   -8.0850    0.0000 C   0  0  0  0  0  0  0  0  0  0  0  0
    6.7799   -7.6725    0.0000 C   0  0  0  0  0  0  0  0  0  0  0  0
    6.7799   -6.8475    0.0000 C   0  0  0  0  0  0  0  0  0  0  0  0
    6.0654   -6.4350    0.0000 C   0  0  0  0  0  0  0  0  0  0  0  0
    7.5645   -7.9274    0.0000 O   0  0  0  0  0  0  0  0  0  0  0  0
    8.0495   -7.2600    0.0000 C   0  0  0  0  0  0  0  0  0  0  0  0
    7.5645   -6.5926    0.0000 C   0  0  0  0  0  0  0  0  0  0  0  0
    5.3510   -6.0225    0.0000 H   0  0  0  0  0  0  0  0  0  0  0  0
    5.3510   -8.4975    0.0000 C   0  0  0  0  0  0  0  0  0  0  0  0
    4.6365   -5.6100    0.0000 C   0  0  0  0  0  0  0  0  0  0  0  0
    7.7781   -5.7957    0.0000 C   0  0  0  0  0  0  0  0  0  0  0  0
    8.8745   -7.2600    0.0000 O   0  0  0  0  0  0  0  0  0  0  0  0
  1  2  1  0  0  0  0
  2  3  1  0  0  0  0
  3  4  1  0  0  0  0
  4  5  1  0  0  0  0
  5  6  1  0  0  0  0
  6  1  1  0  0  0  0
  4  7  1  0  0  0  0
  7  8  2  0  0  0  0
  8  9  1  0  0  0  0
  9 10  1  0  0  0  0
 10  5  1  0  0  0  0
  8 11  1  0  0  0  0
 11 12  1  0  0  0  0
 12 13  1  0  0  0  0
 13  9  2  0  0  0  0
  5 14  1  1  0  0  0
  4 15  1  6  0  0  0
  6 16  2  0  0  0  0
 13 17  1  0  0  0  0
 12 18  2  0  0  0  0
M  END
>  <cdx:fragmentId>
5

$$$$
