79755.cdx
  Mrv1902 05222410212D          

 11 11  0  0  0  0            999 V2000
    6.9809   -6.8692    0.0000 C   0  0  0  0  0  0  0  0  0  0  0  0
    6.9809   -5.2192    0.0000 C   0  0  0  0  0  0  0  0  0  0  0  0
    6.2664   -6.4567    0.0000 C   0  0  0  0  0  0  0  0  0  0  0  0
    7.6953   -6.4567    0.0000 C   0  0  0  0  0  0  0  0  0  0  0  0
    6.2664   -5.6317    0.0000 C   0  0  0  0  0  0  0  0  0  0  0  0
    7.6953   -5.6317    0.0000 C   0  0  0  0  0  0  0  0  0  0  0  0
    6.9809   -7.6942    0.0000 C   0  0  0  0  0  0  0  0  0  0  0  0
    8.4098   -6.8692    0.0000 O   0  0  0  0  0  0  0  0  0  0  0  0
    9.1243   -6.4567    0.0000 C   0  0  0  0  0  0  0  0  0  0  0  0
    5.5519   -6.8692    0.0000 O   0  0  0  0  0  0  0  0  0  0  0  0
    4.8375   -6.4567    0.0000 C   0  0  0  0  0  0  0  0  0  0  0  0
  1  3  1  0  0  0  0
  1  4  2  0  0  0  0
  3  5  2  0  0  0  0
  2  5  1  0  0  0  0
  2  6  2  0  0  0  0
  4  6  1  0  0  0  0
  1  7  1  0  0  0  0
  8  9  1  0  0  0  0
  4  8  1  0  0  0  0
 10 11  1  0  0  0  0
  3 10  1  0  0  0  0
M  END
>  <cdx:groupId>
35

>  <cdx:fragmentId>
7

$$$$
