7976.cdx
  Mrv1902 05222410192D          

  7  7  0  0  0  0            999 V2000
    4.6465   -2.4618    0.0000 C   0  0  0  0  0  0  0  0  0  0  0  0
    4.6465   -3.2868    0.0000 C   0  0  0  0  0  0  0  0  0  0  0  0
    3.9321   -2.0493    0.0000 N   0  0  0  0  0  0  0  0  0  0  0  0
    3.9321   -3.6993    0.0000 N   0  0  0  0  0  0  0  0  0  0  0  0
    3.2176   -3.2868    0.0000 C   0  0  0  0  0  0  0  0  0  0  0  0
    3.2176   -2.4618    0.0000 C   0  0  0  0  0  0  0  0  0  0  0  0
    5.3610   -2.0493    0.0000 C   0  0  0  0  0  0  0  0  0  0  0  0
  1  2  1  0  0  0  0
  1  3  2  0  0  0  0
  2  4  2  0  0  0  0
  4  5  1  0  0  0  0
  5  6  2  0  0  0  0
  3  6  1  0  0  0  0
  1  7  1  0  0  0  0
M  END
>  <cdx:groupId>
23

>  <cdx:fragmentId>
5

$$$$
