7977.cdx
  Mrv1902 05222410182D          

 16 17  0  0  0  0            999 V2000
    8.1491   -9.9052    0.0000 C   0  0  0  0  0  0  0  0  0  0  0  0
    8.8681   -8.6703    0.0000 C   0  0  0  0  0  0  0  0  0  0  0  0
    8.1521   -9.0802    0.0000 C   0  0  0  0  0  0  0  0  0  0  0  0
    6.0162   -7.0099    0.0000 C   0  0  0  0  0  0  0  0  0  0  0  0
    5.2912   -9.8948    0.0000 C   0  0  0  0  0  0  0  0  0  0  0  0
    6.7232   -9.0750    0.0000 C   0  0  0  0  0  0  0  0  0  0  0  0
    7.4392   -8.6651    0.0000 C   0  0  0  0  0  0  0  0  0  0  0  0
    7.4422   -7.8401    0.0000 C   0  0  0  0  0  0  0  0  0  0  0  0
    6.7292   -7.4250    0.0000 C   0  0  0  0  0  0  0  0  0  0  0  0
    5.2943   -9.0698    0.0000 C   0  0  0  0  0  0  0  0  0  0  0  0
    6.0102   -8.6599    0.0000 C   0  0  1  0  0  0  0  0  0  0  0  0
    6.0132   -7.8349    0.0000 C   0  0  1  0  0  0  0  0  0  0  0  0
    5.3003   -7.4198    0.0000 C   0  0  0  0  0  0  0  0  0  0  0  0
    4.5843   -7.8297    0.0000 C   0  0  0  0  0  0  0  0  0  0  0  0
    4.5813   -8.6547    0.0000 C   0  0  0  0  0  0  0  0  0  0  0  0
    6.0072   -9.4849    0.0000 H   0  0  0  0  0  0  0  0  0  0  0  0
  3  1  2  0  0  0  0
  3  2  1  0  0  0  0
  7  3  1  0  0  0  0
 12  4  1  1  0  0  0
 10  5  2  0  0  0  0
  6 11  1  0  0  0  0
  7  6  1  0  0  0  0
  8  7  2  0  0  0  0
  9  8  1  0  0  0  0
 12  9  1  0  0  0  0
 10 15  1  0  0  0  0
 11 10  1  0  0  0  0
 12 11  1  0  0  0  0
 13 12  1  0  0  0  0
 14 13  1  0  0  0  0
 15 14  1  0  0  0  0
 11 16  1  6  0  0  0
M  END
>  <cdx:fragmentId>
5

$$$$
