7978.cdx
  Mrv1902 05222410282D          

 20 21  0  0  0  0            999 V2000
    4.5820   -8.2500    0.0000 C   0  0  0  0  0  0  0  0  0  0  0  0
    4.5820   -9.0750    0.0000 C   0  0  0  0  0  0  0  0  0  0  0  0
    5.2965   -9.4875    0.0000 C   0  0  0  0  0  0  0  0  0  0  0  0
    6.0110   -9.0750    0.0000 C   0  0  1  0  0  0  0  0  0  0  0  0
    6.0110   -8.2500    0.0000 C   0  0  2  0  0  0  0  0  0  0  0  0
    5.2965   -7.8375    0.0000 C   0  0  0  0  0  0  0  0  0  0  0  0
    6.7254   -9.4875    0.0000 C   0  0  0  0  0  0  0  0  0  0  0  0
    7.4399   -9.0750    0.0000 C   0  0  0  0  0  0  0  0  0  0  0  0
    7.4399   -8.2500    0.0000 C   0  0  0  0  0  0  0  0  0  0  0  0
    6.7254   -7.8375    0.0000 C   0  0  0  0  0  0  0  0  0  0  0  0
    5.2965  -10.3125    0.0000 C   0  0  0  0  0  0  0  0  0  0  0  0
    8.1544   -9.4875    0.0000 C   0  0  0  0  0  0  0  0  0  0  0  0
    8.8689   -9.0750    0.0000 C   0  0  0  0  0  0  0  0  0  0  0  0
    9.5833   -9.4875    0.0000 O   0  0  0  0  0  0  0  0  0  0  0  0
   10.2978   -9.0750    0.0000 C   0  0  0  0  0  0  0  0  0  0  0  0
   11.0123   -9.4875    0.0000 C   0  0  0  0  0  0  0  0  0  0  0  0
   10.2978   -8.2500    0.0000 O   0  0  0  0  0  0  0  0  0  0  0  0
    8.1544  -10.3125    0.0000 C   0  0  0  0  0  0  0  0  0  0  0  0
    6.0110   -7.4250    0.0000 C   0  0  0  0  0  0  0  0  0  0  0  0
    6.0110   -9.9000    0.0000 H   0  0  0  0  0  0  0  0  0  0  0  0
  1  2  1  0  0  0  0
  2  3  1  0  0  0  0
  3  4  1  0  0  0  0
  4  5  1  0  0  0  0
  5  6  1  0  0  0  0
  6  1  1  0  0  0  0
  4  7  1  0  0  0  0
  7  8  1  0  0  0  0
  8  9  1  0  0  0  0
  9 10  1  0  0  0  0
 10  5  1  0  0  0  0
  3 11  2  0  0  0  0
  8 12  2  0  0  0  0
 12 13  1  0  0  0  0
 13 14  1  0  0  0  0
 14 15  1  0  0  0  0
 15 16  1  0  0  0  0
 15 17  2  0  0  0  0
 12 18  1  0  0  0  0
  5 19  1  1  0  0  0
  4 20  1  6  0  0  0
M  END
>  <cdx:fragmentId>
5

$$$$
