7979.cdx
  Mrv1902 05222410282D          

 19 21  0  0  0  0            999 V2000
    3.4683   -6.3113    0.0000 C   0  0  0  0  0  0  0  0  0  0  0  0
    3.4683   -7.1362    0.0000 C   0  0  0  0  0  0  0  0  0  0  0  0
    4.1827   -7.5488    0.0000 C   0  0  0  0  0  0  0  0  0  0  0  0
    4.8972   -7.1362    0.0000 C   0  0  1  0  0  0  0  0  0  0  0  0
    4.8972   -6.3113    0.0000 C   0  0  2  0  0  0  0  0  0  0  0  0
    4.1827   -5.8988    0.0000 C   0  0  0  0  0  0  0  0  0  0  0  0
    5.6117   -7.5488    0.0000 C   0  0  0  0  0  0  0  0  0  0  0  0
    6.3262   -7.1362    0.0000 C   0  0  1  0  0  0  0  0  0  0  0  0
    6.3262   -6.3113    0.0000 C   0  0  0  0  0  0  0  0  0  0  0  0
    5.6117   -5.8988    0.0000 C   0  0  0  0  0  0  0  0  0  0  0  0
    7.1108   -7.3912    0.0000 O   0  0  0  0  0  0  0  0  0  0  0  0
    7.5957   -6.7237    0.0000 C   0  0  0  0  0  0  0  0  0  0  0  0
    7.1108   -6.0563    0.0000 C   0  0  0  0  0  0  0  0  0  0  0  0
    4.1827   -5.0737    0.0000 C   0  0  0  0  0  0  0  0  0  0  0  0
    7.3243   -5.2594    0.0000 C   0  0  0  0  0  0  0  0  0  0  0  0
    8.4207   -6.7237    0.0000 O   0  0  0  0  0  0  0  0  0  0  0  0
    4.8972   -5.4863    0.0000 H   0  0  0  0  0  0  0  0  0  0  0  0
    4.8972   -7.9612    0.0000 C   0  0  0  0  0  0  0  0  0  0  0  0
    6.5397   -7.9331    0.0000 H   0  0  0  0  0  0  0  0  0  0  0  0
  1  2  1  0  0  0  0
  2  3  1  0  0  0  0
  3  4  1  0  0  0  0
  4  5  1  0  0  0  0
  5  6  1  0  0  0  0
  6  1  1  0  0  0  0
  4  7  1  0  0  0  0
  7  8  1  0  0  0  0
  8  9  1  0  0  0  0
  9 10  1  0  0  0  0
 10  5  1  0  0  0  0
  8 11  1  0  0  0  0
 11 12  1  0  0  0  0
 12 13  1  0  0  0  0
 13  9  2  0  0  0  0
  6 14  2  0  0  0  0
 13 15  1  0  0  0  0
 12 16  2  0  0  0  0
  5 17  1  1  0  0  0
  4 18  1  6  0  0  0
  8 19  1  6  0  0  0
M  END
>  <cdx:fragmentId>
5

$$$$
