798.cdx
  Mrv1902 05222410222D          

  9 10  0  0  0  0            999 V2000
    3.1273   -2.1854    0.0000 N   0  0  0  0  0  0  0  0  0  0  0  0
    3.6122   -2.8528    0.0000 C   0  0  0  0  0  0  0  0  0  0  0  0
    3.1273   -3.5202    0.0000 C   0  0  0  0  0  0  0  0  0  0  0  0
    2.3427   -3.2653    0.0000 C   0  0  0  0  0  0  0  0  0  0  0  0
    1.6282   -3.6778    0.0000 C   0  0  0  0  0  0  0  0  0  0  0  0
    0.9138   -3.2653    0.0000 C   0  0  0  0  0  0  0  0  0  0  0  0
    0.9138   -2.4403    0.0000 C   0  0  0  0  0  0  0  0  0  0  0  0
    1.6282   -2.0278    0.0000 C   0  0  0  0  0  0  0  0  0  0  0  0
    2.3427   -2.4403    0.0000 C   0  0  0  0  0  0  0  0  0  0  0  0
  1  2  1  0  0  0  0
  2  3  2  0  0  0  0
  3  4  1  0  0  0  0
  4  5  1  0  0  0  0
  5  6  2  0  0  0  0
  6  7  1  0  0  0  0
  7  8  2  0  0  0  0
  8  9  1  0  0  0  0
  1  9  1  0  0  0  0
  4  9  2  0  0  0  0
M  END
>  <cdx:groupId>
30

>  <cdx:fragmentId>
5

$$$$
