7981.cdx
  Mrv1902 05222410262D          

 19 21  0  0  0  0            999 V2000
    8.5883   -7.2250    0.0000 C   0  0  0  0  0  0  0  0  0  0  0  0
    9.6528   -8.6702    0.0000 O   0  0  0  0  0  0  0  0  0  0  0  0
    8.3472   -9.3462    0.0000 O   0  0  0  0  0  0  0  0  0  0  0  0
    8.8278   -8.6756    0.0000 C   0  0  0  0  0  0  0  0  0  0  0  0
    8.3385   -8.0113    0.0000 C   0  0  0  0  0  0  0  0  0  0  0  0
    6.1213   -7.4557    0.0000 H   0  0  0  0  0  0  0  0  0  0  0  0
    7.5663   -9.9213    0.0000 O   0  0  0  0  0  0  0  0  0  0  0  0
    6.1374   -9.9306    0.0000 C   0  0  0  0  0  0  0  0  0  0  0  0
    5.4042   -7.0478    0.0000 C   0  0  0  0  0  0  0  0  0  0  0  0
    6.8492   -9.5135    0.0000 C   0  0  0  0  0  0  0  0  0  0  0  0
    7.5610   -9.0963    0.0000 C   0  0  1  0  0  0  0  0  0  0  0  0
    7.5556   -8.2714    0.0000 C   0  0  0  0  0  0  0  0  0  0  0  0
    6.8384   -7.8635    0.0000 C   0  0  0  0  0  0  0  0  0  0  0  0
    5.4203   -9.5228    0.0000 C   0  0  0  0  0  0  0  0  0  0  0  0
    6.1320   -9.1056    0.0000 C   0  0  2  0  0  0  0  0  0  0  0  0
    6.1267   -8.2807    0.0000 C   0  0  2  0  0  0  0  0  0  0  0  0
    5.4095   -7.8728    0.0000 C   0  0  0  0  0  0  0  0  0  0  0  0
    4.6978   -8.2900    0.0000 C   0  0  0  0  0  0  0  0  0  0  0  0
    4.7031   -9.1150    0.0000 C   0  0  0  0  0  0  0  0  0  0  0  0
  5  1  1  0  0  0  0
  4  2  2  0  0  0  0
  3 11  1  0  0  0  0
  4  3  1  0  0  0  0
  5  4  1  0  0  0  0
 12  5  2  0  0  0  0
 16  6  1  1  0  0  0
 11  7  1  6  0  0  0
 15  8  1  6  0  0  0
 17  9  2  0  0  0  0
 10 15  1  0  0  0  0
 11 10  1  0  0  0  0
 12 11  1  0  0  0  0
 13 12  1  0  0  0  0
 16 13  1  0  0  0  0
 14 19  1  0  0  0  0
 15 14  1  0  0  0  0
 16 15  1  0  0  0  0
 17 16  1  0  0  0  0
 18 17  1  0  0  0  0
 19 18  1  0  0  0  0
M  END
>  <cdx:fragmentId>
57

$$$$
