79828.cdx
  Mrv1902 05222410222D          

  6  5  0  0  0  0            999 V2000
    8.9802   -2.8058    0.0000 C   0  0  0  0  0  0  0  0  0  0  0  0
    6.1223   -2.8058    0.0000 S   0  0  0  0  0  0  0  0  0  0  0  0
    6.8368   -3.2183    0.0000 S   0  0  0  0  0  0  0  0  0  0  0  0
    7.5512   -2.8058    0.0000 S   0  0  0  0  0  0  0  0  0  0  0  0
    8.2657   -3.2183    0.0000 S   0  0  0  0  0  0  0  0  0  0  0  0
    5.4078   -3.2183    0.0000 C   0  0  0  0  0  0  0  0  0  0  0  0
  2  3  1  0  0  0  0
  3  4  1  0  0  0  0
  4  5  1  0  0  0  0
  2  6  1  0  0  0  0
  1  5  1  0  0  0  0
M  END
>  <cdx:groupId>
19

>  <cdx:fragmentId>
7

$$$$
