9798203.cdx
  Mrv1902 05222410242D          

 26 30  0  0  0  0            999 V2000
    7.5906  -13.0829    0.0000 C   0  0  0  0  0  0  0  0  0  0  0  0
    6.8059  -12.8279    0.0000 C   0  0  0  0  0  0  0  0  0  0  0  0
    6.0915  -13.2404    0.0000 C   0  0  0  0  0  0  0  0  0  0  0  0
    5.3770  -12.8279    0.0000 C   0  0  0  0  0  0  0  0  0  0  0  0
    4.6625  -13.2404    0.0000 C   0  0  0  0  0  0  0  0  0  0  0  0
    3.9480  -12.8279    0.0000 C   0  0  0  0  0  0  0  0  0  0  0  0
    3.9480  -12.0029    0.0000 C   0  0  0  0  0  0  0  0  0  0  0  0
    4.6625  -11.5904    0.0000 C   0  0  0  0  0  0  0  0  0  0  0  0
    5.3770  -12.0029    0.0000 C   0  0  0  0  0  0  0  0  0  0  0  0
    6.0915  -11.5904    0.0000 C   0  0  0  0  0  0  0  0  0  0  0  0
    6.8059  -12.0029    0.0000 C   0  0  0  0  0  0  0  0  0  0  0  0
    7.5906  -11.7480    0.0000 O   0  0  0  0  0  0  0  0  0  0  0  0
    8.0755  -12.4154    0.0000 C   0  0  0  0  0  0  0  0  0  0  0  0
    8.8960  -12.5017    0.0000 C   0  0  0  0  0  0  0  0  0  0  0  0
    9.3809  -11.8342    0.0000 C   0  0  0  0  0  0  0  0  0  0  0  0
   10.2014  -11.9204    0.0000 C   0  0  0  0  0  0  0  0  0  0  0  0
   10.5369  -12.6741    0.0000 C   0  0  0  0  0  0  0  0  0  0  0  0
   10.0520  -13.3416    0.0000 C   0  0  0  0  0  0  0  0  0  0  0  0
    9.2315  -13.2553    0.0000 C   0  0  0  0  0  0  0  0  0  0  0  0
    8.7466  -13.9228    0.0000 C   0  0  0  0  0  0  0  0  0  0  0  0
    7.9261  -13.8365    0.0000 C   0  0  0  0  0  0  0  0  0  0  0  0
    6.0915  -14.0654    0.0000 O   0  0  0  0  0  0  0  0  0  0  0  0
    6.0915  -10.7654    0.0000 O   0  0  0  0  0  0  0  0  0  0  0  0
    7.4412  -14.5040    0.0000 O   0  0  0  0  0  0  0  0  0  0  0  0
    6.6207  -14.4177    0.0000 C   0  0  0  0  0  0  0  0  0  0  0  0
    9.0821  -14.6764    0.0000 O   0  0  0  0  0  0  0  0  0  0  0  0
  1  2  1  0  0  0  0
  2  3  1  0  0  0  0
  3  4  1  0  0  0  0
  4  5  2  0  0  0  0
  5  6  1  0  0  0  0
  6  7  2  0  0  0  0
  7  8  1  0  0  0  0
  8  9  2  0  0  0  0
  9 10  1  0  0  0  0
 10 11  1  0  0  0  0
 11 12  1  0  0  0  0
 12 13  1  0  0  0  0
 13 14  1  0  0  0  0
 14 15  2  0  0  0  0
 15 16  1  0  0  0  0
 16 17  2  0  0  0  0
 17 18  1  0  0  0  0
 18 19  2  0  0  0  0
 19 20  1  0  0  0  0
 20 21  2  0  0  0  0
  1 21  1  0  0  0  0
  1 13  2  0  0  0  0
 14 19  1  0  0  0  0
  2 11  2  0  0  0  0
  4  9  1  0  0  0  0
  3 22  2  0  0  0  0
 10 23  2  0  0  0  0
 24 25  1  0  0  0  0
 21 24  1  0  0  0  0
 20 26  1  0  0  0  0
M  END
>  <cdx:groupId>
28459

>  <cdx:fragmentId>
28380

$$$$
