798255.cdx
  Mrv1902 05222410192D          

 15 16  0  0  0  0            999 V2000
    8.3118   -9.1020    0.0000 C   0  0  1  0  0  0  0  0  0  0  0  0
    9.0262   -8.6895    0.0000 C   0  0  0  0  0  0  0  0  0  0  0  0
    9.0262   -7.8645    0.0000 C   0  0  0  0  0  0  0  0  0  0  0  0
    8.3118   -7.4520    0.0000 C   0  0  1  0  0  0  0  0  0  0  0  0
    7.5973   -7.8645    0.0000 C   0  0  0  0  0  0  0  0  0  0  0  0
    6.8828   -7.4520    0.0000 C   0  0  0  0  0  0  0  0  0  0  0  0
    6.1684   -7.8645    0.0000 C   0  0  0  0  0  0  0  0  0  0  0  0
    6.1684   -8.6895    0.0000 C   0  0  0  0  0  0  0  0  0  0  0  0
    6.8828   -9.1020    0.0000 C   0  0  0  0  0  0  0  0  0  0  0  0
    7.5973   -8.6895    0.0000 C   0  0  0  0  0  0  0  0  0  0  0  0
    7.5973  -10.3395    0.0000 C   0  0  0  0  0  0  0  0  0  0  0  0
    8.3118   -9.9270    0.0000 C   0  0  0  0  0  0  0  0  0  0  0  0
    9.0262  -10.3395    0.0000 C   0  0  0  0  0  0  0  0  0  0  0  0
    5.4539   -9.1020    0.0000 C   0  0  0  0  0  0  0  0  0  0  0  0
    8.3118   -6.6270    0.0000 C   0  0  0  0  0  0  0  0  0  0  0  0
  1  2  1  0  0  0  0
  2  3  1  0  0  0  0
  3  4  1  0  0  0  0
  4  5  1  0  0  0  0
  5  6  1  0  0  0  0
  6  7  1  0  0  0  0
  7  8  1  0  0  0  0
  8  9  2  0  0  0  0
  9 10  1  0  0  0  0
  1 10  1  0  0  0  0
  5 10  2  0  0  0  0
 11 12  1  0  0  0  0
 12 13  1  0  0  0  0
  1 12  1  6  0  0  0
  8 14  1  0  0  0  0
  4 15  1  1  0  0  0
M  END
>  <cdx:fragmentId>
59913

$$$$
