7983.cdx
  Mrv1902 05222410262D          

 10  9  0  0  0  0            999 V2000
    3.7158   -4.6277    0.0000 C   0  0  0  0  0  0  0  0  0  0  0  0
    3.0013   -5.0402    0.0000 C   0  0  0  0  0  0  0  0  0  0  0  0
    2.2868   -4.6277    0.0000 C   0  0  0  0  0  0  0  0  0  0  0  0
    1.5724   -5.0402    0.0000 C   0  0  0  0  0  0  0  0  0  0  0  0
    3.7158   -3.8027    0.0000 O   0  0  0  0  0  0  0  0  0  0  0  0
    4.4302   -5.0402    0.0000 O   0  0  0  0  0  0  0  0  0  0  0  0
    5.1447   -4.6277    0.0000 C   0  0  0  0  0  0  0  0  0  0  0  0
    5.8592   -5.0402    0.0000 C   0  0  0  0  0  0  0  0  0  0  0  0
    6.5737   -4.6277    0.0000 C   0  0  0  0  0  0  0  0  0  0  0  0
    7.2881   -5.0402    0.0000 C   0  0  0  0  0  0  0  0  0  0  0  0
  1  2  1  0  0  0  0
  2  3  1  0  0  0  0
  3  4  1  0  0  0  0
  1  5  2  0  0  0  0
  1  6  1  0  0  0  0
  7  8  1  0  0  0  0
  8  9  1  0  0  0  0
  9 10  1  0  0  0  0
  6  7  1  0  0  0  0
M  END
>  <cdx:groupId>
31

>  <cdx:fragmentId>
5

$$$$
