10798883.cdx
  Mrv1902 05222410262D          

 16 17  0  0  0  0            999 V2000
    8.3118   -9.0317    0.0000 C   0  0  2  0  0  0  0  0  0  0  0  0
    9.0262   -8.6192    0.0000 C   0  0  0  0  0  0  0  0  0  0  0  0
    9.0262   -7.7942    0.0000 C   0  0  0  0  0  0  0  0  0  0  0  0
    8.3118   -7.3817    0.0000 C   0  0  2  0  0  0  0  0  0  0  0  0
    7.5973   -7.7942    0.0000 C   0  0  0  0  0  0  0  0  0  0  0  0
    6.8828   -7.3817    0.0000 C   0  0  0  0  0  0  0  0  0  0  0  0
    6.1684   -7.7942    0.0000 C   0  0  0  0  0  0  0  0  0  0  0  0
    6.1684   -8.6192    0.0000 C   0  0  0  0  0  0  0  0  0  0  0  0
    6.8828   -9.0317    0.0000 C   0  0  0  0  0  0  0  0  0  0  0  0
    7.5973   -8.6192    0.0000 C   0  0  0  0  0  0  0  0  0  0  0  0
    8.7243   -9.7462    0.0000 O   0  0  0  0  0  0  0  0  0  0  0  0
    7.5973   -6.1442    0.0000 C   0  0  0  0  0  0  0  0  0  0  0  0
    8.3118   -6.5567    0.0000 C   0  0  0  0  0  0  0  0  0  0  0  0
    9.0262   -6.1442    0.0000 C   0  0  0  0  0  0  0  0  0  0  0  0
    5.4539   -7.3817    0.0000 C   0  0  0  0  0  0  0  0  0  0  0  0
    7.8993   -9.7462    0.0000 C   0  0  0  0  0  0  0  0  0  0  0  0
  1  2  1  0  0  0  0
  2  3  1  0  0  0  0
  3  4  1  0  0  0  0
  4  5  1  0  0  0  0
  5  6  1  0  0  0  0
  6  7  2  0  0  0  0
  7  8  1  0  0  0  0
  8  9  2  0  0  0  0
  9 10  1  0  0  0  0
  1 10  1  0  0  0  0
  5 10  2  0  0  0  0
  1 11  1  1  0  0  0
 12 13  1  0  0  0  0
 13 14  1  0  0  0  0
  4 13  1  6  0  0  0
  7 15  1  0  0  0  0
  1 16  1  6  0  0  0
M  END
>  <cdx:groupId>
60009

>  <cdx:fragmentId>
59963

$$$$
