7990.cdx
  Mrv1902 05222410272D          

 35 38  0  0  0  0            999 V2000
    5.8526   -9.0083    0.0000 C   0  0  0  0  0  0  0  0  0  0  0  0
    5.8625   -8.1833    0.0000 C   0  0  0  0  0  0  0  0  0  0  0  0
    6.5621   -9.4293    0.0000 C   0  0  0  0  0  0  0  0  0  0  0  0
    7.2814   -9.0253    0.0000 C   0  0  0  0  0  0  0  0  0  0  0  0
    7.2913   -8.2004    0.0000 C   0  0  0  0  0  0  0  0  0  0  0  0
    6.5818   -7.7794    0.0000 C   0  0  0  0  0  0  0  0  0  0  0  0
    7.9909   -9.4463    0.0000 C   0  0  0  0  0  0  0  0  0  0  0  0
    8.7103   -9.0424    0.0000 C   0  0  0  0  0  0  0  0  0  0  0  0
    8.7201   -8.2175    0.0000 C   0  0  0  0  0  0  0  0  0  0  0  0
    8.0107   -7.7965    0.0000 C   0  0  0  0  0  0  0  0  0  0  0  0
    9.4198   -9.4634    0.0000 C   0  0  0  0  0  0  0  0  0  0  0  0
   10.1391   -9.0595    0.0000 C   0  0  0  0  0  0  0  0  0  0  0  0
   10.1490   -8.2346    0.0000 C   0  0  0  0  0  0  0  0  0  0  0  0
    9.4395   -7.8135    0.0000 C   0  0  0  0  0  0  0  0  0  0  0  0
   10.8486   -9.4805    0.0000 C   0  0  0  0  0  0  0  0  0  0  0  0
    7.9811  -10.2713    0.0000 O   0  0  0  0  0  0  0  0  0  0  0  0
    8.0205   -6.9715    0.0000 O   0  0  0  0  0  0  0  0  0  0  0  0
    6.5818   -6.9544    0.0000 O   0  0  0  0  0  0  0  0  0  0  0  0
    9.4395   -6.9885    0.0000 O   0  0  0  0  0  0  0  0  0  0  0  0
   10.1540   -6.5760    0.0000 C   0  0  0  0  0  0  0  0  0  0  0  0
   10.8635   -7.8221    0.0000 O   0  0  0  0  0  0  0  0  0  0  0  0
    5.1480   -7.7708    0.0000 O   0  0  0  0  0  0  0  0  0  0  0  0
    5.1480   -6.9458    0.0000 C   0  0  0  0  0  0  0  0  0  0  0  0
    5.1381   -9.4208    0.0000 O   0  0  0  0  0  0  0  0  0  0  0  0
    4.4237   -9.0083    0.0000 C   0  0  2  0  0  0  0  0  0  0  0  0
    4.4237   -8.1833    0.0000 O   0  0  0  0  0  0  0  0  0  0  0  0
    3.7092   -7.7708    0.0000 C   0  0  1  0  0  0  0  0  0  0  0  0
    2.9947   -8.1833    0.0000 C   0  0  2  0  0  0  0  0  0  0  0  0
    2.9947   -9.0083    0.0000 C   0  0  1  0  0  0  0  0  0  0  0  0
    3.7092   -9.4208    0.0000 C   0  0  1  0  0  0  0  0  0  0  0  0
    3.7092   -6.9458    0.0000 C   0  0  0  0  0  0  0  0  0  0  0  0
    2.9947   -6.5333    0.0000 O   0  0  0  0  0  0  0  0  0  0  0  0
    2.2802   -9.4208    0.0000 O   0  0  0  0  0  0  0  0  0  0  0  0
    3.7092  -10.2458    0.0000 O   0  0  0  0  0  0  0  0  0  0  0  0
    2.2802   -7.7708    0.0000 O   0  0  0  0  0  0  0  0  0  0  0  0
  1  2  2  0  0  0  0
  1  3  1  0  0  0  0
  3  4  2  0  0  0  0
  4  5  1  0  0  0  0
  5  6  2  0  0  0  0
  6  2  1  0  0  0  0
  4  7  1  0  0  0  0
  7  8  1  0  0  0  0
  8  9  2  0  0  0  0
  9 10  1  0  0  0  0
 10  5  1  0  0  0  0
  8 11  1  0  0  0  0
 11 12  2  0  0  0  0
 12 13  1  0  0  0  0
 13 14  2  0  0  0  0
 14  9  1  0  0  0  0
 12 15  1  0  0  0  0
  7 16  2  0  0  0  0
 10 17  2  0  0  0  0
  6 18  1  0  0  0  0
 14 19  1  0  0  0  0
 19 20  1  0  0  0  0
 13 21  1  0  0  0  0
  2 22  1  0  0  0  0
 22 23  1  0  0  0  0
  1 24  1  0  0  0  0
 25 24  1  1  0  0  0
 25 26  1  0  0  0  0
 26 27  1  0  0  0  0
 27 28  1  0  0  0  0
 28 29  1  0  0  0  0
 29 30  1  0  0  0  0
 30 25  1  0  0  0  0
 27 31  1  1  0  0  0
 31 32  1  0  0  0  0
 29 33  1  1  0  0  0
 30 34  1  6  0  0  0
 28 35  1  6  0  0  0
M  END
>  <cdx:fragmentId>
5

$$$$
