799229.cdx
  Mrv1902 05222410192D          

143157  0  0  0  0            999 V2000
   21.5245   -4.8400    0.0000 C   0  0  0  0  0  0  0  0  0  0  0  0
   22.2390   -4.4275    0.0000 C   0  0  0  0  0  0  0  0  0  0  0  0
   22.9535   -4.8400    0.0000 C   0  0  0  0  0  0  0  0  0  0  0  0
   22.9535   -5.6650    0.0000 C   0  0  0  0  0  0  0  0  0  0  0  0
   22.2390   -6.0775    0.0000 C   0  0  2  0  0  0  0  0  0  0  0  0
   22.2390   -6.9025    0.0000 C   0  0  0  0  0  0  0  0  0  0  0  0
   21.5245   -7.3150    0.0000 C   0  0  0  0  0  0  0  0  0  0  0  0
   20.8100   -6.9025    0.0000 C   0  0  1  0  0  0  0  0  0  0  0  0
   20.0956   -7.3150    0.0000 C   0  0  2  0  0  0  0  0  0  0  0  0
   20.0956   -8.1400    0.0000 C   0  0  0  0  0  0  0  0  0  0  0  0
   19.3811   -8.5525    0.0000 C   0  0  0  0  0  0  0  0  0  0  0  0
   18.6666   -8.1400    0.0000 C   0  0  1  0  0  0  0  0  0  0  0  0
   17.9522   -8.5525    0.0000 C   0  0  1  0  0  0  0  0  0  0  0  0
   17.2377   -8.1400    0.0000 C   0  0  2  0  0  0  0  0  0  0  0  0
   17.2377   -7.3150    0.0000 C   0  0  0  0  0  0  0  0  0  0  0  0
   17.9522   -6.9025    0.0000 C   0  0  0  0  0  0  0  0  0  0  0  0
   18.6666   -7.3150    0.0000 C   0  0  2  0  0  0  0  0  0  0  0  0
   19.3811   -6.9025    0.0000 C   0  0  1  0  0  0  0  0  0  0  0  0
   19.3811   -6.0775    0.0000 C   0  0  0  0  0  0  0  0  0  0  0  0
   20.0956   -5.6650    0.0000 C   0  0  0  0  0  0  0  0  0  0  0  0
   20.8100   -6.0775    0.0000 C   0  0  0  0  0  0  0  0  0  0  0  0
   21.5245   -5.6650    0.0000 C   0  0  2  0  0  0  0  0  0  0  0  0
   22.9535   -6.4900    0.0000 C   0  0  0  0  0  0  0  0  0  0  0  0
   22.9535   -7.3150    0.0000 O   0  0  0  0  0  0  0  0  0  0  0  0
   18.3647   -9.2669    0.0000 C   0  0  0  0  0  0  0  0  0  0  0  0
   17.5397   -9.2669    0.0000 C   0  0  0  0  0  0  0  0  0  0  0  0
   21.8265   -3.7130    0.0000 C   0  0  0  0  0  0  0  0  0  0  0  0
   22.6515   -3.7130    0.0000 C   0  0  0  0  0  0  0  0  0  0  0  0
   16.5232   -8.5525    0.0000 O   0  0  0  0  0  0  0  0  0  0  0  0
   15.8087   -7.3150    0.0000 O   0  0  0  0  0  0  0  0  0  0  0  0
   15.8087   -8.1400    0.0000 C   0  0  2  0  0  0  0  0  0  0  0  0
   15.0943   -8.5525    0.0000 C   0  0  1  0  0  0  0  0  0  0  0  0
   14.3798   -8.1400    0.0000 C   0  0  2  0  0  0  0  0  0  0  0  0
   14.3798   -7.3150    0.0000 C   0  0  2  0  0  0  0  0  0  0  0  0
   15.0943   -6.9025    0.0000 C   0  0  0  0  0  0  0  0  0  0  0  0
   13.6653   -6.9025    0.0000 O   0  0  0  0  0  0  0  0  0  0  0  0
   13.6653   -8.5525    0.0000 O   0  0  0  0  0  0  0  0  0  0  0  0
   15.0943   -9.3775    0.0000 O   0  0  0  0  0  0  0  0  0  0  0  0
   13.6653   -9.3775    0.0000 O   0  0  0  0  0  0  0  0  0  0  0  0
   14.3798   -9.7900    0.0000 C   0  0  2  0  0  0  0  0  0  0  0  0
   14.3798  -10.6150    0.0000 C   0  0  1  0  0  0  0  0  0  0  0  0
   13.6653  -11.0275    0.0000 C   0  0  1  0  0  0  0  0  0  0  0  0
   12.9509  -10.6150    0.0000 C   0  0  2  0  0  0  0  0  0  0  0  0
   12.9509   -9.7900    0.0000 C   0  0  2  0  0  0  0  0  0  0  0  0
   12.2364   -9.3775    0.0000 C   0  0  0  0  0  0  0  0  0  0  0  0
   12.2364  -11.0275    0.0000 O   0  0  0  0  0  0  0  0  0  0  0  0
   15.0943  -11.0275    0.0000 O   0  0  0  0  0  0  0  0  0  0  0  0
   10.7991  -13.4854    0.0000 O   0  0  0  0  0  0  0  0  0  0  0  0
   10.0982  -12.2401    0.0000 O   0  0  0  0  0  0  0  0  0  0  0  0
   10.0892  -13.0651    0.0000 C   0  0  2  0  0  0  0  0  0  0  0  0
    9.3702  -13.4698    0.0000 C   0  0  1  0  0  0  0  0  0  0  0  0
    8.6603  -13.0495    0.0000 C   0  0  2  0  0  0  0  0  0  0  0  0
    8.6693  -12.2246    0.0000 C   0  0  1  0  0  0  0  0  0  0  0  0
    9.3882  -11.8199    0.0000 C   0  0  1  0  0  0  0  0  0  0  0  0
    9.3972  -10.9949    0.0000 C   0  0  0  0  0  0  0  0  0  0  0  0
   10.1117  -10.5824    0.0000 O   0  0  0  0  0  0  0  0  0  0  0  0
    7.9414  -13.4542    0.0000 O   0  0  0  0  0  0  0  0  0  0  0  0
    9.3612  -14.2947    0.0000 O   0  0  0  0  0  0  0  0  0  0  0  0
    7.9594  -11.8043    0.0000 O   0  0  0  0  0  0  0  0  0  0  0  0
    8.6603  -10.5591    0.0000 O   0  0  0  0  0  0  0  0  0  0  0  0
    7.9504  -10.9793    0.0000 C   0  0  2  0  0  0  0  0  0  0  0  0
    7.2315  -10.5746    0.0000 C   0  0  1  0  0  0  0  0  0  0  0  0
    7.2225   -9.7497    0.0000 C   0  0  2  0  0  0  0  0  0  0  0  0
    7.9325   -9.3294    0.0000 C   0  0  1  0  0  0  0  0  0  0  0  0
    8.6514   -9.7341    0.0000 C   0  0  1  0  0  0  0  0  0  0  0  0
    9.3613   -9.3139    0.0000 C   0  0  0  0  0  0  0  0  0  0  0  0
    9.3450   -8.4890    0.0000 O   0  0  0  0  0  0  0  0  0  0  0  0
    6.5215  -10.9949    0.0000 O   0  0  0  0  0  0  0  0  0  0  0  0
    7.9235   -8.5045    0.0000 O   0  0  0  0  0  0  0  0  0  0  0  0
    6.5036   -9.3450    0.0000 O   0  0  0  0  0  0  0  0  0  0  0  0
   18.6666   -8.9650    0.0000 H   0  0  0  0  0  0  0  0  0  0  0  0
   21.5245   -6.4900    0.0000 H   0  0  0  0  0  0  0  0  0  0  0  0
   25.8184   -8.9597    0.0000 O   0  0  0  0  0  0  0  0  0  0  0  0
   25.0876  -10.1876    0.0000 O   0  0  0  0  0  0  0  0  0  0  0  0
   25.8075   -9.7846    0.0000 C   0  0  2  0  0  0  0  0  0  0  0  0
   26.5165  -10.2065    0.0000 C   0  0  1  0  0  0  0  0  0  0  0  0
   26.5055  -11.0315    0.0000 C   0  0  2  0  0  0  0  0  0  0  0  0
   25.7857  -11.4345    0.0000 C   0  0  1  0  0  0  0  0  0  0  0  0
   25.0767  -11.0126    0.0000 C   0  0  1  0  0  0  0  0  0  0  0  0
   24.3569  -11.4156    0.0000 C   0  0  0  0  0  0  0  0  0  0  0  0
   23.6424  -11.0031    0.0000 O   0  0  0  0  0  0  0  0  0  0  0  0
   27.2145  -11.4534    0.0000 O   0  0  0  0  0  0  0  0  0  0  0  0
   27.2363   -9.8035    0.0000 O   0  0  0  0  0  0  0  0  0  0  0  0
    1.5220  -10.5617    0.0000 O   0  0  0  0  0  0  0  0  0  0  0  0
    0.8024  -11.7963    0.0000 C   0  0  0  0  0  0  0  0  0  0  0  0
    1.5152  -12.2117    0.0000 O   0  0  0  0  0  0  0  0  0  0  0  0
    3.6603  -11.8081    0.0000 C   0  0  0  0  0  0  0  0  0  0  0  0
    2.9441  -12.2176    0.0000 C   0  0  0  0  0  0  0  0  0  0  0  0
    2.2313  -11.8022    0.0000 C   0  0  0  0  0  0  0  0  0  0  0  0
    2.2348  -10.9772    0.0000 C   0  0  0  0  0  0  0  0  0  0  0  0
    2.9509  -10.5676    0.0000 C   0  0  0  0  0  0  0  0  0  0  0  0
    3.6637  -10.9831    0.0000 C   0  0  0  0  0  0  0  0  0  0  0  0
    5.8122   -9.7544    0.0000 O   0  0  0  0  0  0  0  0  0  0  0  0
    4.3799  -10.5735    0.0000 C   0  0  0  0  0  0  0  0  0  0  0  0
    5.0926  -10.9890    0.0000 C   0  0  0  0  0  0  0  0  0  0  0  0
    5.8088  -10.5794    0.0000 C   0  0  0  0  0  0  0  0  0  0  0  0
   13.6653  -13.5025    0.0000 O   0  0  0  0  0  0  0  0  0  0  0  0
   11.5219  -12.2650    0.0000 C   0  0  0  0  0  0  0  0  0  0  0  0
   11.5219  -13.0900    0.0000 C   0  0  2  0  0  0  0  0  0  0  0  0
   12.2364  -13.5025    0.0000 C   0  0  2  0  0  0  0  0  0  0  0  0
   12.9509  -13.0900    0.0000 C   0  0  2  0  0  0  0  0  0  0  0  0
   12.9509  -12.2650    0.0000 C   0  0  1  0  0  0  0  0  0  0  0  0
   12.2364  -11.8525    0.0000 O   0  0  0  0  0  0  0  0  0  0  0  0
   13.6653  -11.8525    0.0000 O   0  0  0  0  0  0  0  0  0  0  0  0
   25.7765  -13.9094    0.0000 O   0  0  0  0  0  0  0  0  0  0  0  0
   24.3484  -14.7359    0.0000 O   0  0  0  0  0  0  0  0  0  0  0  0
   22.9186  -13.9124    0.0000 O   0  0  0  0  0  0  0  0  0  0  0  0
   22.9169  -12.2624    0.0000 C   0  0  0  0  0  0  0  0  0  0  0  0
   23.6318  -12.6741    0.0000 C   0  0  1  0  0  0  0  0  0  0  0  0
   23.6326  -13.4991    0.0000 C   0  0  1  0  0  0  0  0  0  0  0  0
   24.3475  -13.9109    0.0000 C   0  0  2  0  0  0  0  0  0  0  0  0
   25.0616  -13.4977    0.0000 C   0  0  2  0  0  0  0  0  0  0  0  0
   25.0607  -12.6727    0.0000 C   0  0  1  0  0  0  0  0  0  0  0  0
   24.3458  -12.2609    0.0000 O   0  0  0  0  0  0  0  0  0  0  0  0
   25.7748  -12.2594    0.0000 O   0  0  0  0  0  0  0  0  0  0  0  0
   25.1030   -8.5490    0.0000 C   0  0  0  0  0  0  0  0  0  0  0  0
   25.0948   -5.2490    0.0000 O   0  0  0  0  0  0  0  0  0  0  0  0
   26.5258   -6.0704    0.0000 O   0  0  0  0  0  0  0  0  0  0  0  0
   26.5299   -7.7204    0.0000 O   0  0  0  0  0  0  0  0  0  0  0  0
   25.1009   -7.7240    0.0000 C   0  0  2  0  0  0  0  0  0  0  0  0
   25.8144   -7.3097    0.0000 C   0  0  2  0  0  0  0  0  0  0  0  0
   25.8123   -6.4847    0.0000 C   0  0  1  0  0  0  0  0  0  0  0  0
   25.0969   -6.0740    0.0000 C   0  0  2  0  0  0  0  0  0  0  0  0
   24.3834   -6.4882    0.0000 C   0  0  1  0  0  0  0  0  0  0  0  0
   24.3854   -7.3132    0.0000 O   0  0  0  0  0  0  0  0  0  0  0  0
   23.6679   -6.0775    0.0000 O   0  0  0  0  0  0  0  0  0  0  0  0
   18.6666   -6.4900    0.0000 C   0  0  0  0  0  0  0  0  0  0  0  0
   20.0956   -6.4900    0.0000 C   0  0  0  0  0  0  0  0  0  0  0  0
   20.8100   -7.7275    0.0000 C   0  0  0  0  0  0  0  0  0  0  0  0
   19.3811   -7.7275    0.0000 H   0  0  0  0  0  0  0  0  0  0  0  0
   12.2364  -14.3275    0.0000 O   0  0  0  0  0  0  0  0  0  0  0  0
   17.9522   -9.9814    0.0000 O   0  0  0  0  0  0  0  0  0  0  0  0
    6.5036   -8.5200    0.0000 C   0  0  2  0  0  0  0  0  0  0  0  0
    7.2181   -8.1075    0.0000 O   0  0  0  0  0  0  0  0  0  0  0  0
    7.2181   -7.2825    0.0000 C   0  0  1  0  0  0  0  0  0  0  0  0
    6.5036   -6.8700    0.0000 C   0  0  2  0  0  0  0  0  0  0  0  0
    5.7891   -7.2825    0.0000 C   0  0  1  0  0  0  0  0  0  0  0  0
    5.7891   -8.1075    0.0000 C   0  0  1  0  0  0  0  0  0  0  0  0
    7.9325   -6.8700    0.0000 C   0  0  0  0  0  0  0  0  0  0  0  0
    5.0747   -6.8700    0.0000 O   0  0  0  0  0  0  0  0  0  0  0  0
    5.0747   -8.5200    0.0000 O   0  0  0  0  0  0  0  0  0  0  0  0
    6.5036   -6.0450    0.0000 O   0  0  0  0  0  0  0  0  0  0  0  0
    7.9325   -6.0450    0.0000 O   0  0  0  0  0  0  0  0  0  0  0  0
124126  1  1  0  0  0
102104  1  1  0  0  0
 94 92  1  0  0  0  0
 90 84  1  0  0  0  0
 89 86  1  0  0  0  0
 86 85  1  0  0  0  0
 92 87  2  0  0  0  0
 88 87  1  0  0  0  0
 89 88  2  0  0  0  0
 90 89  1  0  0  0  0
 91 90  2  0  0  0  0
 92 91  1  0  0  0  0
 96 93  2  0  0  0  0
 95 94  2  0  0  0  0
 96 95  1  0  0  0  0
 49 50  1  0  0  0  0
 50 51  1  0  0  0  0
101 97  1  6  0  0  0
103 98  1  0  0  0  0
 99 98  1  0  0  0  0
100 99  1  0  0  0  0
120116  1  1  0  0  0
116 73  1  0  0  0  0
113115  1  1  0  0  0
112105  1  6  0  0  0
111106  1  6  0  0  0
110107  1  1  0  0  0
109108  1  6  0  0  0
114109  1  0  0  0  0
110109  1  0  0  0  0
111110  1  0  0  0  0
112111  1  0  0  0  0
113112  1  0  0  0  0
114113  1  0  0  0  0
 74 75  1  0  0  0  0
123117  1  6  0  0  0
122118  1  1  0  0  0
121119  1  6  0  0  0
125120  1  0  0  0  0
121120  1  0  0  0  0
122121  1  0  0  0  0
123122  1  0  0  0  0
  1  2  1  0  0  0  0
  2  3  1  0  0  0  0
  3  4  1  0  0  0  0
  4  5  1  0  0  0  0
  5  6  1  0  0  0  0
  6  7  1  0  0  0  0
  7  8  1  0  0  0  0
  8  9  1  0  0  0  0
  9 10  1  0  0  0  0
 10 11  1  0  0  0  0
 11 12  1  0  0  0  0
 12 13  1  0  0  0  0
 13 14  1  0  0  0  0
 14 15  1  0  0  0  0
 15 16  1  0  0  0  0
 16 17  1  0  0  0  0
 12 17  1  0  0  0  0
 17 18  1  0  0  0  0
  9 18  1  0  0  0  0
 18 19  1  0  0  0  0
 19 20  1  0  0  0  0
 20 21  2  0  0  0  0
  8 21  1  0  0  0  0
 21 22  1  0  0  0  0
  5 22  1  0  0  0  0
  1 22  1  0  0  0  0
 23 24  2  0  0  0  0
 23126  1  0  0  0  0
  5 23  1  1  0  0  0
 13 25  1  0  0  0  0
 13 26  1  1  0  0  0
  2 27  1  0  0  0  0
  2 28  1  0  0  0  0
 30 31  1  0  0  0  0
 31 32  1  0  0  0  0
 32 33  1  0  0  0  0
 33 34  1  0  0  0  0
 34 35  1  0  0  0  0
 30 35  1  0  0  0  0
 34 36  1  1  0  0  0
 33 37  1  1  0  0  0
 39 40  1  0  0  0  0
 40 41  1  0  0  0  0
 41 42  1  0  0  0  0
 42 43  1  0  0  0  0
 43 44  1  0  0  0  0
 39 44  1  0  0  0  0
 44 45  1  6  0  0  0
 43 46  1  1  0  0  0
 41 47  1  6  0  0  0
101100  1  0  0  0  0
102101  1  0  0  0  0
103102  1  0  0  0  0
 51 52  1  0  0  0  0
 52 53  1  0  0  0  0
 53 54  1  0  0  0  0
 49 54  1  0  0  0  0
 55 56  1  0  0  0  0
 54 55  1  1  0  0  0
 52 57  1  1  0  0  0
 51 58  1  6  0  0  0
 60 61  1  0  0  0  0
 61 62  1  0  0  0  0
 62 63  1  0  0  0  0
 63 64  1  0  0  0  0
 64 65  1  0  0  0  0
 60 65  1  0  0  0  0
 66 67  1  0  0  0  0
 65 66  1  1  0  0  0
 68 96  1  0  0  0  0
 62 68  1  6  0  0  0
 64 69  1  6  0  0  0
 63 70  1  1  0  0  0
 61 59  1  1  0  0  0
 53 59  1  6  0  0  0
 50 48  1  1  0  0  0
 42104  1  6  0  0  0
 40 38  1  1  0  0  0
 32 38  1  6  0  0  0
 31 29  1  1  0  0  0
 14 29  1  1  0  0  0
 12 71  1  6  0  0  0
 22 72  1  1  0  0  0
124123  1  0  0  0  0
125124  1  0  0  0  0
 75 76  1  0  0  0  0
 76 77  1  0  0  0  0
 77 78  1  0  0  0  0
 78 79  1  0  0  0  0
 74 79  1  0  0  0  0
 78115  1  6  0  0  0
 80 81  1  0  0  0  0
 79 80  1  1  0  0  0
 77 82  1  1  0  0  0
 76 83  1  6  0  0  0
 75 73  1  1  0  0  0
 17127  1  1  0  0  0
  9128  1  1  0  0  0
  8129  1  6  0  0  0
 18130  1  6  0  0  0
100131  1  6  0  0  0
 99 48  1  6  0  0  0
 25132  1  0  0  0  0
133 70  1  1  0  0  0
133134  1  0  0  0  0
134135  1  0  0  0  0
135136  1  0  0  0  0
136137  1  0  0  0  0
137138  1  0  0  0  0
138133  1  0  0  0  0
135139  1  1  0  0  0
137140  1  1  0  0  0
138141  1  6  0  0  0
136142  1  6  0  0  0
139143  1  0  0  0  0
M  END
>  <cdx:groupId>
181687

>  <cdx:fragmentId>
181457

$$$$
