799269.cdx
  Mrv1902 05222410232D          

 96106  0  0  0  0            999 V2000
   16.5195   -5.7475    0.0000 C   0  0  0  0  0  0  0  0  0  0  0  0
   17.2340   -5.3350    0.0000 C   0  0  0  0  0  0  0  0  0  0  0  0
   17.9485   -5.7475    0.0000 C   0  0  0  0  0  0  0  0  0  0  0  0
   17.9485   -6.5725    0.0000 C   0  0  0  0  0  0  0  0  0  0  0  0
   17.2340   -6.9850    0.0000 C   0  0  2  0  0  0  0  0  0  0  0  0
   17.2340   -7.8100    0.0000 C   0  0  0  0  0  0  0  0  0  0  0  0
   16.5195   -8.2225    0.0000 C   0  0  0  0  0  0  0  0  0  0  0  0
   15.8050   -7.8100    0.0000 C   0  0  1  0  0  0  0  0  0  0  0  0
   15.0906   -8.2225    0.0000 C   0  0  2  0  0  0  0  0  0  0  0  0
   15.0906   -9.0475    0.0000 C   0  0  0  0  0  0  0  0  0  0  0  0
   14.3761   -9.4600    0.0000 C   0  0  0  0  0  0  0  0  0  0  0  0
   13.6616   -9.0475    0.0000 C   0  0  1  0  0  0  0  0  0  0  0  0
   12.9472   -9.4600    0.0000 C   0  0  0  0  0  0  0  0  0  0  0  0
   12.2327   -9.0475    0.0000 C   0  0  2  0  0  0  0  0  0  0  0  0
   12.2327   -8.2225    0.0000 C   0  0  0  0  0  0  0  0  0  0  0  0
   12.9472   -7.8100    0.0000 C   0  0  0  0  0  0  0  0  0  0  0  0
   13.6616   -8.2225    0.0000 C   0  0  2  0  0  0  0  0  0  0  0  0
   14.3761   -7.8100    0.0000 C   0  0  1  0  0  0  0  0  0  0  0  0
   14.3761   -6.9850    0.0000 C   0  0  0  0  0  0  0  0  0  0  0  0
   15.0906   -6.5725    0.0000 C   0  0  0  0  0  0  0  0  0  0  0  0
   15.8050   -6.9850    0.0000 C   0  0  0  0  0  0  0  0  0  0  0  0
   16.5195   -6.5725    0.0000 C   0  0  2  0  0  0  0  0  0  0  0  0
   17.9485   -7.3975    0.0000 C   0  0  0  0  0  0  0  0  0  0  0  0
   17.9485   -8.2225    0.0000 O   0  0  0  0  0  0  0  0  0  0  0  0
   13.3597  -10.1744    0.0000 C   0  0  0  0  0  0  0  0  0  0  0  0
   12.5347  -10.1744    0.0000 C   0  0  0  0  0  0  0  0  0  0  0  0
   16.8215   -4.6205    0.0000 C   0  0  0  0  0  0  0  0  0  0  0  0
   17.6465   -4.6205    0.0000 C   0  0  0  0  0  0  0  0  0  0  0  0
   11.5182   -9.4600    0.0000 O   0  0  0  0  0  0  0  0  0  0  0  0
   10.8037   -8.2225    0.0000 O   0  0  0  0  0  0  0  0  0  0  0  0
   10.8037   -9.0475    0.0000 C   0  0  2  0  0  0  0  0  0  0  0  0
   10.0893   -9.4600    0.0000 C   0  0  1  0  0  0  0  0  0  0  0  0
    9.3748   -9.0475    0.0000 C   0  0  2  0  0  0  0  0  0  0  0  0
    9.3748   -8.2225    0.0000 C   0  0  2  0  0  0  0  0  0  0  0  0
   10.0893   -7.8100    0.0000 C   0  0  0  0  0  0  0  0  0  0  0  0
    8.6603   -7.8100    0.0000 O   0  0  0  0  0  0  0  0  0  0  0  0
    8.6603   -9.4600    0.0000 O   0  0  0  0  0  0  0  0  0  0  0  0
   10.0893  -10.2850    0.0000 O   0  0  0  0  0  0  0  0  0  0  0  0
    8.6603  -10.2850    0.0000 O   0  0  0  0  0  0  0  0  0  0  0  0
    9.3748  -10.6975    0.0000 C   0  0  2  0  0  0  0  0  0  0  0  0
    9.3748  -11.5225    0.0000 C   0  0  1  0  0  0  0  0  0  0  0  0
    8.6603  -11.9350    0.0000 C   0  0  1  0  0  0  0  0  0  0  0  0
    7.9459  -11.5225    0.0000 C   0  0  2  0  0  0  0  0  0  0  0  0
    7.9459  -10.6975    0.0000 C   0  0  2  0  0  0  0  0  0  0  0  0
    7.2314  -10.2850    0.0000 C   0  0  0  0  0  0  0  0  0  0  0  0
    7.2314  -11.9350    0.0000 O   0  0  0  0  0  0  0  0  0  0  0  0
   10.0893  -11.9350    0.0000 O   0  0  0  0  0  0  0  0  0  0  0  0
    5.7941  -14.3929    0.0000 O   0  0  0  0  0  0  0  0  0  0  0  0
   13.6616   -9.8725    0.0000 H   0  0  0  0  0  0  0  0  0  0  0  0
   16.5195   -7.3975    0.0000 H   0  0  0  0  0  0  0  0  0  0  0  0
   20.8134   -9.8672    0.0000 O   0  0  0  0  0  0  0  0  0  0  0  0
   20.0826  -11.0951    0.0000 O   0  0  0  0  0  0  0  0  0  0  0  0
   20.8025  -10.6921    0.0000 C   0  0  2  0  0  0  0  0  0  0  0  0
   21.5115  -11.1140    0.0000 C   0  0  1  0  0  0  0  0  0  0  0  0
   21.5005  -11.9390    0.0000 C   0  0  2  0  0  0  0  0  0  0  0  0
   20.7807  -12.3420    0.0000 C   0  0  1  0  0  0  0  0  0  0  0  0
   20.0717  -11.9201    0.0000 C   0  0  1  0  0  0  0  0  0  0  0  0
   19.3519  -12.3231    0.0000 C   0  0  0  0  0  0  0  0  0  0  0  0
   18.6374  -11.9106    0.0000 O   0  0  0  0  0  0  0  0  0  0  0  0
   22.2095  -12.3609    0.0000 O   0  0  0  0  0  0  0  0  0  0  0  0
   22.2313  -10.7110    0.0000 O   0  0  0  0  0  0  0  0  0  0  0  0
    8.6603  -14.4100    0.0000 O   0  0  0  0  0  0  0  0  0  0  0  0
    6.5169  -13.1725    0.0000 C   0  0  0  0  0  0  0  0  0  0  0  0
    6.5169  -13.9975    0.0000 C   0  0  2  0  0  0  0  0  0  0  0  0
    7.2314  -14.4100    0.0000 C   0  0  2  0  0  0  0  0  0  0  0  0
    7.9459  -13.9975    0.0000 C   0  0  2  0  0  0  0  0  0  0  0  0
    7.9459  -13.1725    0.0000 C   0  0  1  0  0  0  0  0  0  0  0  0
    7.2314  -12.7600    0.0000 O   0  0  0  0  0  0  0  0  0  0  0  0
    8.6603  -12.7600    0.0000 O   0  0  0  0  0  0  0  0  0  0  0  0
   20.7715  -14.8169    0.0000 O   0  0  0  0  0  0  0  0  0  0  0  0
   19.3434  -15.6434    0.0000 O   0  0  0  0  0  0  0  0  0  0  0  0
   17.9136  -14.8199    0.0000 O   0  0  0  0  0  0  0  0  0  0  0  0
   17.9119  -13.1699    0.0000 C   0  0  0  0  0  0  0  0  0  0  0  0
   18.6268  -13.5816    0.0000 C   0  0  1  0  0  0  0  0  0  0  0  0
   18.6276  -14.4066    0.0000 C   0  0  1  0  0  0  0  0  0  0  0  0
   19.3425  -14.8184    0.0000 C   0  0  2  0  0  0  0  0  0  0  0  0
   20.0566  -14.4052    0.0000 C   0  0  2  0  0  0  0  0  0  0  0  0
   20.0557  -13.5802    0.0000 C   0  0  1  0  0  0  0  0  0  0  0  0
   19.3408  -13.1684    0.0000 O   0  0  0  0  0  0  0  0  0  0  0  0
   20.7698  -13.1669    0.0000 O   0  0  0  0  0  0  0  0  0  0  0  0
   20.0980   -9.4565    0.0000 C   0  0  0  0  0  0  0  0  0  0  0  0
   20.0898   -6.1565    0.0000 O   0  0  0  0  0  0  0  0  0  0  0  0
   21.5208   -6.9779    0.0000 O   0  0  0  0  0  0  0  0  0  0  0  0
   21.5249   -8.6279    0.0000 O   0  0  0  0  0  0  0  0  0  0  0  0
   20.0959   -8.6315    0.0000 C   0  0  2  0  0  0  0  0  0  0  0  0
   20.8094   -8.2172    0.0000 C   0  0  2  0  0  0  0  0  0  0  0  0
   20.8073   -7.3922    0.0000 C   0  0  1  0  0  0  0  0  0  0  0  0
   20.0919   -6.9815    0.0000 C   0  0  2  0  0  0  0  0  0  0  0  0
   19.3784   -7.3957    0.0000 C   0  0  1  0  0  0  0  0  0  0  0  0
   19.3804   -8.2207    0.0000 O   0  0  0  0  0  0  0  0  0  0  0  0
   18.6629   -6.9850    0.0000 O   0  0  0  0  0  0  0  0  0  0  0  0
   13.6616   -7.3975    0.0000 C   0  0  0  0  0  0  0  0  0  0  0  0
   15.0906   -7.3975    0.0000 C   0  0  0  0  0  0  0  0  0  0  0  0
   15.8050   -8.6350    0.0000 C   0  0  0  0  0  0  0  0  0  0  0  0
   14.3761   -8.6350    0.0000 H   0  0  0  0  0  0  0  0  0  0  0  0
    7.2314  -15.2350    0.0000 O   0  0  0  0  0  0  0  0  0  0  0  0
 89 91  1  1  0  0  0
 67 69  1  1  0  0  0
 66 62  1  6  0  0  0
 68 63  1  0  0  0  0
 64 63  1  0  0  0  0
 65 64  1  0  0  0  0
 85 81  1  1  0  0  0
 81 51  1  0  0  0  0
 78 80  1  1  0  0  0
 77 70  1  6  0  0  0
 76 71  1  6  0  0  0
 75 72  1  1  0  0  0
 74 73  1  6  0  0  0
 79 74  1  0  0  0  0
 75 74  1  0  0  0  0
 76 75  1  0  0  0  0
 77 76  1  0  0  0  0
 78 77  1  0  0  0  0
 79 78  1  0  0  0  0
 52 53  1  0  0  0  0
 88 82  1  6  0  0  0
 87 83  1  1  0  0  0
 86 84  1  6  0  0  0
 90 85  1  0  0  0  0
 86 85  1  0  0  0  0
 87 86  1  0  0  0  0
 88 87  1  0  0  0  0
  1  2  1  0  0  0  0
  2  3  1  0  0  0  0
  3  4  1  0  0  0  0
  4  5  1  0  0  0  0
  5  6  1  0  0  0  0
  6  7  1  0  0  0  0
  7  8  1  0  0  0  0
  8  9  1  0  0  0  0
  9 10  1  0  0  0  0
 10 11  1  0  0  0  0
 11 12  1  0  0  0  0
 12 13  1  0  0  0  0
 13 14  1  0  0  0  0
 14 15  1  0  0  0  0
 15 16  1  0  0  0  0
 16 17  1  0  0  0  0
 12 17  1  0  0  0  0
 17 18  1  0  0  0  0
  9 18  1  0  0  0  0
 18 19  1  0  0  0  0
 19 20  1  0  0  0  0
 20 21  2  0  0  0  0
  8 21  1  0  0  0  0
 21 22  1  0  0  0  0
  5 22  1  0  0  0  0
  1 22  1  0  0  0  0
 23 24  2  0  0  0  0
 23 91  1  0  0  0  0
  5 23  1  1  0  0  0
 13 25  1  0  0  0  0
 13 26  1  0  0  0  0
  2 27  1  0  0  0  0
  2 28  1  0  0  0  0
 30 31  1  0  0  0  0
 31 32  1  0  0  0  0
 32 33  1  0  0  0  0
 33 34  1  0  0  0  0
 34 35  1  0  0  0  0
 30 35  1  0  0  0  0
 34 36  1  1  0  0  0
 33 37  1  1  0  0  0
 39 40  1  0  0  0  0
 40 41  1  0  0  0  0
 41 42  1  0  0  0  0
 42 43  1  0  0  0  0
 43 44  1  0  0  0  0
 39 44  1  0  0  0  0
 44 45  1  6  0  0  0
 43 46  1  1  0  0  0
 41 47  1  6  0  0  0
 66 65  1  0  0  0  0
 67 66  1  0  0  0  0
 68 67  1  0  0  0  0
 42 69  1  6  0  0  0
 40 38  1  1  0  0  0
 32 38  1  6  0  0  0
 31 29  1  1  0  0  0
 14 29  1  1  0  0  0
 12 49  1  6  0  0  0
 22 50  1  1  0  0  0
 89 88  1  0  0  0  0
 90 89  1  0  0  0  0
 53 54  1  0  0  0  0
 54 55  1  0  0  0  0
 55 56  1  0  0  0  0
 56 57  1  0  0  0  0
 52 57  1  0  0  0  0
 56 80  1  6  0  0  0
 58 59  1  0  0  0  0
 57 58  1  1  0  0  0
 55 60  1  1  0  0  0
 54 61  1  6  0  0  0
 53 51  1  1  0  0  0
 17 92  1  1  0  0  0
  9 93  1  1  0  0  0
  8 94  1  6  0  0  0
 18 95  1  6  0  0  0
 65 96  1  6  0  0  0
 64 48  1  6  0  0  0
M  END
>  <cdx:groupId>
181687

>  <cdx:fragmentId>
181457

$$$$
