7993.cdx
  Mrv1902 05222410282D          

 16 17  0  0  0  0            999 V2000
    5.9731   -6.1009    0.0000 C   0  0  1  0  0  0  0  0  0  0  0  0
    5.6538   -6.8617    0.0000 C   0  0  0  0  0  0  0  0  0  0  0  0
    6.0495   -7.5856    0.0000 C   0  0  0  0  0  0  0  0  0  0  0  0
    6.8622   -7.7276    0.0000 C   0  0  2  0  0  0  0  0  0  0  0  0
    7.4799   -7.1807    0.0000 C   0  0  1  0  0  0  0  0  0  0  0  0
    7.4375   -6.3568    0.0000 C   0  0  0  0  0  0  0  0  0  0  0  0
    6.7669   -5.8762    0.0000 C   0  0  0  0  0  0  0  0  0  0  0  0
    8.2766   -7.3950    0.0000 C   0  0  0  0  0  0  0  0  0  0  0  0
    8.7266   -6.7035    0.0000 C   0  0  0  0  0  0  0  0  0  0  0  0
    8.2080   -6.0618    0.0000 C   0  0  1  0  0  0  0  0  0  0  0  0
    8.4215   -5.2650    0.0000 C   0  0  0  0  0  0  0  0  0  0  0  0
    7.4799   -8.0057    0.0000 H   0  0  0  0  0  0  0  0  0  0  0  0
    7.0757   -8.5244    0.0000 C   0  0  0  0  0  0  0  0  0  0  0  0
    4.5928   -5.7311    0.0000 C   0  0  0  0  0  0  0  0  0  0  0  0
    5.6032   -4.7207    0.0000 C   0  0  0  0  0  0  0  0  0  0  0  0
    5.3897   -5.5176    0.0000 C   0  0  0  0  0  0  0  0  0  0  0  0
  1  2  1  0  0  0  0
  2  3  1  0  0  0  0
  3  4  1  0  0  0  0
  4  5  1  0  0  0  0
  5  6  1  0  0  0  0
  6  7  2  0  0  0  0
  7  1  1  0  0  0  0
  5  8  1  0  0  0  0
  8  9  1  0  0  0  0
  9 10  1  0  0  0  0
 10  6  1  0  0  0  0
 10 11  1  6  0  0  0
  5 12  1  6  0  0  0
  4 13  1  6  0  0  0
 16 14  2  0  0  0  0
  1 16  1  6  0  0  0
 16 15  1  0  0  0  0
M  END
>  <cdx:fragmentId>
5

$$$$
