7998.cdx
  Mrv1902 05222410192D          

 32 35  0  0  0  0            999 V2000
    7.6139   -6.2700    0.0000 C   0  0  0  0  0  0  0  0  0  0  0  0
    7.6139   -7.0950    0.0000 C   0  0  0  0  0  0  0  0  0  0  0  0
    8.3284   -7.5075    0.0000 C   0  0  0  0  0  0  0  0  0  0  0  0
    9.0428   -7.0950    0.0000 C   0  0  0  0  0  0  0  0  0  0  0  0
    9.0428   -6.2700    0.0000 C   0  0  0  0  0  0  0  0  0  0  0  0
    8.3284   -5.8575    0.0000 C   0  0  0  0  0  0  0  0  0  0  0  0
    9.7573   -7.5075    0.0000 C   0  0  0  0  0  0  0  0  0  0  0  0
   10.4718   -7.0950    0.0000 C   0  0  0  0  0  0  0  0  0  0  0  0
   10.4718   -6.2700    0.0000 C   0  0  0  0  0  0  0  0  0  0  0  0
    9.7573   -5.8575    0.0000 O   0  0  0  0  0  0  0  0  0  0  0  0
   11.1863   -5.8575    0.0000 C   0  0  0  0  0  0  0  0  0  0  0  0
   11.1863   -5.0325    0.0000 C   0  0  0  0  0  0  0  0  0  0  0  0
   11.9007   -6.2700    0.0000 C   0  0  0  0  0  0  0  0  0  0  0  0
   12.6152   -5.8575    0.0000 C   0  0  0  0  0  0  0  0  0  0  0  0
   12.6152   -5.0325    0.0000 C   0  0  0  0  0  0  0  0  0  0  0  0
   11.9007   -4.6200    0.0000 C   0  0  0  0  0  0  0  0  0  0  0  0
    9.7573   -8.3325    0.0000 O   0  0  0  0  0  0  0  0  0  0  0  0
    6.8994   -5.8575    0.0000 O   0  0  0  0  0  0  0  0  0  0  0  0
    6.8994   -7.5075    0.0000 O   0  0  0  0  0  0  0  0  0  0  0  0
    8.3284   -8.3325    0.0000 O   0  0  0  0  0  0  0  0  0  0  0  0
    4.8403   -6.7571    0.0000 C   0  0  2  0  0  0  0  0  0  0  0  0
    4.4170   -7.4652    0.0000 C   0  0  2  0  0  0  0  0  0  0  0  0
    4.8186   -8.1858    0.0000 C   0  0  1  0  0  0  0  0  0  0  0  0
    5.6435   -8.1984    0.0000 C   0  0  2  0  0  0  0  0  0  0  0  0
    6.0668   -7.4903    0.0000 C   0  0  1  0  0  0  0  0  0  0  0  0
    5.6653   -6.7696    0.0000 O   0  0  0  0  0  0  0  0  0  0  0  0
    4.4388   -6.0364    0.0000 C   0  0  0  0  0  0  0  0  0  0  0  0
    4.3952   -8.8939    0.0000 O   0  0  0  0  0  0  0  0  0  0  0  0
    6.0450   -8.9191    0.0000 O   0  0  0  0  0  0  0  0  0  0  0  0
    3.5921   -7.4526    0.0000 O   0  0  0  0  0  0  0  0  0  0  0  0
    3.6139   -6.0238    0.0000 O   0  0  0  0  0  0  0  0  0  0  0  0
    4.8621   -5.3283    0.0000 O   0  0  0  0  0  0  0  0  0  0  0  0
  1  2  2  0  0  0  0
  2  3  1  0  0  0  0
  3  4  2  0  0  0  0
  4  5  1  0  0  0  0
  5  6  2  0  0  0  0
  6  1  1  0  0  0  0
  4  7  1  0  0  0  0
  7  8  1  0  0  0  0
  8  9  2  0  0  0  0
  9 10  1  0  0  0  0
 10  5  1  0  0  0  0
  9 11  1  0  0  0  0
 11 12  1  0  0  0  0
 11 13  2  0  0  0  0
 13 14  1  0  0  0  0
 14 15  2  0  0  0  0
 15 16  1  0  0  0  0
 16 12  2  0  0  0  0
  7 17  2  0  0  0  0
  1 18  1  0  0  0  0
  2 19  1  0  0  0  0
  3 20  1  0  0  0  0
 21 22  1  0  0  0  0
 22 23  1  0  0  0  0
 23 24  1  0  0  0  0
 24 25  1  0  0  0  0
 25 26  1  0  0  0  0
 26 21  1  0  0  0  0
 21 27  1  1  0  0  0
 23 28  1  1  0  0  0
 24 29  1  6  0  0  0
 22 30  1  6  0  0  0
 27 31  1  0  0  0  0
 27 32  2  0  0  0  0
 25 19  1  1  0  0  0
M  END
>  <cdx:fragmentId>
112

$$$$
