8.cdx
  Mrv1902 05222410212D          

 34 39  0  0  0  0            999 V2000
    4.1723   -6.2336    0.0000 C   0  0  0  0  0  0  0  0  0  0  0  0
    4.1723   -7.0586    0.0000 C   0  0  1  0  0  0  0  0  0  0  0  0
    4.8867   -7.4711    0.0000 C   0  0  0  0  0  0  0  0  0  0  0  0
    5.6012   -7.0586    0.0000 C   0  0  2  0  0  0  0  0  0  0  0  0
    5.6012   -6.2336    0.0000 C   0  0  2  0  0  0  0  0  0  0  0  0
    4.8867   -5.8211    0.0000 C   0  0  0  0  0  0  0  0  0  0  0  0
    6.3157   -7.4711    0.0000 C   0  0  0  0  0  0  0  0  0  0  0  0
    7.0301   -7.0586    0.0000 C   0  0  0  0  0  0  0  0  0  0  0  0
    7.0301   -6.2336    0.0000 C   0  0  2  0  0  0  0  0  0  0  0  0
    6.3157   -5.8211    0.0000 C   0  0  2  0  0  0  0  0  0  0  0  0
    7.7446   -5.8211    0.0000 C   0  0  2  0  0  0  0  0  0  0  0  0
    7.7446   -4.9961    0.0000 C   0  0  2  0  0  0  0  0  0  0  0  0
    7.0301   -4.5836    0.0000 C   0  0  2  0  0  0  0  0  0  0  0  0
    6.3157   -4.9961    0.0000 C   0  0  0  0  0  0  0  0  0  0  0  0
    8.5292   -6.0761    0.0000 C   0  0  1  0  0  0  0  0  0  0  0  0
    9.0142   -5.4086    0.0000 C   0  0  2  0  0  0  0  0  0  0  0  0
    8.5292   -4.7412    0.0000 C   0  0  2  0  0  0  0  0  0  0  0  0
    8.7842   -3.9566    0.0000 C   0  0  0  0  0  0  0  0  0  0  0  0
    9.5911   -3.7851    0.0000 C   0  0  0  0  0  0  0  0  0  0  0  0
    8.2321   -3.3435    0.0000 C   0  0  0  0  0  0  0  0  0  0  0  0
    9.8461   -3.0004    0.0000 C   0  0  0  0  0  0  0  0  0  0  0  0
    8.4871   -2.5589    0.0000 O   0  0  0  0  0  0  0  0  0  0  0  0
    9.2940   -2.3873    0.0000 C   0  0  0  0  0  0  0  0  0  0  0  0
    9.5490   -1.6027    0.0000 O   0  0  0  0  0  0  0  0  0  0  0  0
    3.4578   -7.4711    0.0000 O   0  0  0  0  0  0  0  0  0  0  0  0
    5.6012   -5.4086    0.0000 C   0  0  0  0  0  0  0  0  0  0  0  0
    5.6012   -7.8836    0.0000 H   0  0  0  0  0  0  0  0  0  0  0  0
    7.0301   -3.7586    0.0000 H   0  0  0  0  0  0  0  0  0  0  0  0
    7.8308   -4.1757    0.0000 C   0  0  0  0  0  0  0  0  0  0  0  0
    9.8392   -5.4086    0.0000 H   0  0  0  0  0  0  0  0  0  0  0  0
    7.8308   -6.6416    0.0000 O   0  0  0  0  0  0  0  0  0  0  0  0
    5.6012   -4.5836    0.0000 O   0  0  0  0  0  0  0  0  0  0  0  0
    6.3157   -6.6461    0.0000 H   0  0  0  0  0  0  0  0  0  0  0  0
    7.0301   -5.4086    0.0000 H   0  0  0  0  0  0  0  0  0  0  0  0
  1  2  1  0  0  0  0
  2  3  1  0  0  0  0
  3  4  1  0  0  0  0
  4  5  1  0  0  0  0
  5  6  1  0  0  0  0
  6  1  1  0  0  0  0
  4  7  1  0  0  0  0
  7  8  1  0  0  0  0
  8  9  1  0  0  0  0
  9 10  1  0  0  0  0
 10  5  1  0  0  0  0
  9 11  1  0  0  0  0
 11 12  1  0  0  0  0
 12 13  1  0  0  0  0
 13 14  1  0  0  0  0
 14 10  1  0  0  0  0
 11 15  1  0  0  0  0
 15 16  1  0  0  0  0
 16 17  1  0  0  0  0
 17 12  1  0  0  0  0
 17 18  1  1  0  0  0
 18 19  1  0  0  0  0
 18 20  2  0  0  0  0
 19 21  2  0  0  0  0
 20 22  1  0  0  0  0
 21 23  1  0  0  0  0
 22 23  1  0  0  0  0
 23 24  2  0  0  0  0
  2 25  1  1  0  0  0
  5 26  1  1  0  0  0
  4 27  1  1  0  0  0
 13 28  1  1  0  0  0
 12 29  1  1  0  0  0
 16 30  1  1  0  0  0
 11 31  1  1  0  0  0
 15 31  1  1  0  0  0
 14 32  1  0  0  0  0
 10 33  1  6  0  0  0
  9 34  1  1  0  0  0
M  END
>  <cdx:fragmentId>
206

$$$$
