10097848.cdx
  Mrv1902 05222410272D          

 38 43  0  0  0  0            999 V2000
    8.5230  -11.3679    0.0000 C   0  0  0  0  0  0  0  0  0  0  0  0
    9.2374  -11.7804    0.0000 C   0  0  0  0  0  0  0  0  0  0  0  0
    9.2374  -12.6054    0.0000 C   0  0  0  0  0  0  0  0  0  0  0  0
    8.5230  -13.0179    0.0000 C   0  0  0  0  0  0  0  0  0  0  0  0
    7.8085  -12.6054    0.0000 C   0  0  0  0  0  0  0  0  0  0  0  0
    7.0940  -13.0179    0.0000 C   0  0  0  0  0  0  0  0  0  0  0  0
    6.3795  -12.6054    0.0000 C   0  0  0  0  0  0  0  0  0  0  0  0
    5.6651  -13.0179    0.0000 C   0  0  0  0  0  0  0  0  0  0  0  0
    4.9506  -12.6054    0.0000 C   0  0  0  0  0  0  0  0  0  0  0  0
    4.9506  -11.7804    0.0000 C   0  0  0  0  0  0  0  0  0  0  0  0
    5.6651  -11.3679    0.0000 C   0  0  0  0  0  0  0  0  0  0  0  0
    6.3795  -11.7804    0.0000 C   0  0  0  0  0  0  0  0  0  0  0  0
    7.0940  -11.3679    0.0000 C   0  0  0  0  0  0  0  0  0  0  0  0
    7.8085  -11.7804    0.0000 C   0  0  0  0  0  0  0  0  0  0  0  0
    7.0940  -10.5429    0.0000 O   0  0  0  0  0  0  0  0  0  0  0  0
    8.5230  -13.8429    0.0000 C   0  0  0  0  0  0  0  0  0  0  0  0
    9.2374  -14.2554    0.0000 C   0  0  0  0  0  0  0  0  0  0  0  0
    9.2374  -15.0804    0.0000 C   0  0  0  0  0  0  0  0  0  0  0  0
    8.5230  -15.4929    0.0000 C   0  0  0  0  0  0  0  0  0  0  0  0
    7.8085  -15.0804    0.0000 C   0  0  0  0  0  0  0  0  0  0  0  0
    7.0940  -15.4929    0.0000 C   0  0  0  0  0  0  0  0  0  0  0  0
    6.3795  -15.0804    0.0000 C   0  0  0  0  0  0  0  0  0  0  0  0
    5.6651  -15.4929    0.0000 C   0  0  0  0  0  0  0  0  0  0  0  0
    4.9506  -15.0804    0.0000 C   0  0  0  0  0  0  0  0  0  0  0  0
    4.9506  -14.2554    0.0000 C   0  0  0  0  0  0  0  0  0  0  0  0
    5.6651  -13.8429    0.0000 C   0  0  0  0  0  0  0  0  0  0  0  0
    6.3795  -14.2554    0.0000 C   0  0  0  0  0  0  0  0  0  0  0  0
    7.0940  -13.8429    0.0000 C   0  0  0  0  0  0  0  0  0  0  0  0
    7.8085  -14.2554    0.0000 C   0  0  0  0  0  0  0  0  0  0  0  0
    7.0940  -16.3179    0.0000 O   0  0  0  0  0  0  0  0  0  0  0  0
    4.2361  -13.8429    0.0000 C   0  0  0  0  0  0  0  0  0  0  0  0
    5.6651  -16.3179    0.0000 O   0  0  0  0  0  0  0  0  0  0  0  0
    8.5230  -16.3179    0.0000 O   0  0  0  0  0  0  0  0  0  0  0  0
    9.9519  -13.8429    0.0000 O   0  0  0  0  0  0  0  0  0  0  0  0
    4.2361  -13.0179    0.0000 C   0  0  0  0  0  0  0  0  0  0  0  0
    5.6651  -10.5429    0.0000 O   0  0  0  0  0  0  0  0  0  0  0  0
    9.9519  -13.0179    0.0000 O   0  0  0  0  0  0  0  0  0  0  0  0
    8.5230  -10.5429    0.0000 O   0  0  0  0  0  0  0  0  0  0  0  0
  1  2  1  0  0  0  0
  2  3  2  0  0  0  0
  3  4  1  0  0  0  0
  4  5  2  0  0  0  0
  5  6  1  0  0  0  0
  6  7  1  0  0  0  0
  7  8  1  0  0  0  0
  8  9  2  0  0  0  0
  9 10  1  0  0  0  0
 10 11  2  0  0  0  0
 11 12  1  0  0  0  0
  7 12  2  0  0  0  0
 12 13  1  0  0  0  0
 13 14  1  0  0  0  0
  5 14  1  0  0  0  0
  1 14  2  0  0  0  0
 13 15  2  0  0  0  0
 16 17  1  0  0  0  0
 17 18  2  0  0  0  0
 18 19  1  0  0  0  0
 19 20  2  0  0  0  0
 20 21  1  0  0  0  0
 21 22  1  0  0  0  0
 22 23  1  0  0  0  0
 23 24  2  0  0  0  0
 24 25  1  0  0  0  0
 25 26  2  0  0  0  0
 26 27  1  0  0  0  0
 22 27  2  0  0  0  0
 27 28  1  0  0  0  0
 28 29  1  0  0  0  0
 20 29  1  0  0  0  0
 16 29  2  0  0  0  0
 21 30  2  0  0  0  0
 25 31  1  0  0  0  0
 23 32  1  0  0  0  0
 19 33  1  0  0  0  0
 17 34  1  0  0  0  0
  6 28  1  0  0  0  0
  9 35  1  0  0  0  0
 11 36  1  0  0  0  0
  3 37  1  0  0  0  0
  1 38  1  0  0  0  0
M  END
>  <cdx:groupId>
41036

>  <cdx:fragmentId>
40950

$$$$
