102303099.cdx
  Mrv1902 05222410202D          

 36 40  0  0  0  0            999 V2000
    9.6028   -9.9150    0.0000 C   0  0  2  0  0  0  0  0  0  0  0  0
   10.0877  -10.5825    0.0000 C   0  0  0  0  0  0  0  0  0  0  0  0
    9.3732  -10.1700    0.0000 O   0  0  0  0  0  0  0  0  0  0  0  0
    8.6588  -10.5825    0.0000 C   0  0  0  0  0  0  0  0  0  0  0  0
    7.9443  -10.1700    0.0000 C   0  0  0  0  0  0  0  0  0  0  0  0
    7.2298  -10.5825    0.0000 C   0  0  0  0  0  0  0  0  0  0  0  0
    7.2298  -11.4075    0.0000 C   0  0  0  0  0  0  0  0  0  0  0  0
    7.9443  -11.8200    0.0000 C   0  0  0  0  0  0  0  0  0  0  0  0
    8.6588  -11.4075    0.0000 C   0  0  0  0  0  0  0  0  0  0  0  0
    9.3732  -11.8200    0.0000 C   0  0  0  0  0  0  0  0  0  0  0  0
   10.0877  -11.4075    0.0000 C   0  0  0  0  0  0  0  0  0  0  0  0
   10.8022  -11.8200    0.0000 C   0  0  0  0  0  0  0  0  0  0  0  0
   11.5167  -11.4075    0.0000 C   0  0  1  0  0  0  0  0  0  0  0  0
   11.5167  -10.5825    0.0000 C   0  0  0  0  0  0  0  0  0  0  0  0
   10.8022  -10.1700    0.0000 C   0  0  2  0  0  0  0  0  0  0  0  0
   10.7722   -9.3454    0.0000 O   0  0  0  0  0  0  0  0  0  0  0  0
    9.9653   -9.1739    0.0000 C   0  0  0  0  0  0  0  0  0  0  0  0
    9.8440  -10.7509    0.0000 C   0  0  0  0  0  0  0  0  0  0  0  0
    9.3732  -12.6450    0.0000 O   0  0  0  0  0  0  0  0  0  0  0  0
   12.2311  -10.1700    0.0000 O   0  0  0  0  0  0  0  0  0  0  0  0
   11.5167   -9.7575    0.0000 C   0  0  0  0  0  0  0  0  0  0  0  0
   11.5167   -8.9325    0.0000 C   0  0  0  0  0  0  0  0  0  0  0  0
   12.2311   -8.5200    0.0000 C   0  0  0  0  0  0  0  0  0  0  0  0
   12.9456   -8.9325    0.0000 C   0  0  0  0  0  0  0  0  0  0  0  0
   12.2311   -7.6950    0.0000 C   0  0  0  0  0  0  0  0  0  0  0  0
    7.9443   -9.3450    0.0000 C   0  0  0  0  0  0  0  0  0  0  0  0
    7.2298   -8.9325    0.0000 C   0  0  0  0  0  0  0  0  0  0  0  0
    7.2298   -8.1075    0.0000 C   0  0  0  0  0  0  0  0  0  0  0  0
    7.9443   -7.6950    0.0000 C   0  0  0  0  0  0  0  0  0  0  0  0
    6.5154   -7.6950    0.0000 C   0  0  0  0  0  0  0  0  0  0  0  0
    9.2508   -8.7614    0.0000 C   0  0  0  0  0  0  0  0  0  0  0  0
    9.9653   -8.3489    0.0000 C   0  0  0  0  0  0  0  0  0  0  0  0
    7.9443  -12.6450    0.0000 O   0  0  0  0  0  0  0  0  0  0  0  0
    6.5154  -10.1700    0.0000 O   0  0  0  0  0  0  0  0  0  0  0  0
    8.9708   -9.3847    0.0000 H   0  0  0  0  0  0  0  0  0  0  0  0
   12.2311  -11.8200    0.0000 H   0  0  0  0  0  0  0  0  0  0  0  0
  1  2  1  0  0  0  0
  2  3  1  0  0  0  0
  3  4  1  0  0  0  0
  4  5  2  0  0  0  0
  5  6  1  0  0  0  0
  6  7  2  0  0  0  0
  7  8  1  0  0  0  0
  8  9  2  0  0  0  0
  9 10  1  0  0  0  0
 10 11  1  0  0  0  0
 11 12  2  0  0  0  0
 12 13  1  0  0  0  0
 13 14  1  0  0  0  0
 14 15  1  0  0  0  0
 15 16  1  0  0  0  0
 16 17  1  0  0  0  0
  1 17  1  0  0  0  0
  1 18  1  1  0  0  0
 13 18  1  1  0  0  0
  2 15  1  0  0  0  0
  2 11  1  0  0  0  0
  4  9  1  0  0  0  0
 10 19  2  0  0  0  0
 14 20  2  0  0  0  0
 21 22  1  0  0  0  0
 22 23  2  0  0  0  0
 23 24  1  0  0  0  0
 23 25  1  0  0  0  0
 15 21  1  6  0  0  0
 26 27  1  0  0  0  0
 27 28  2  0  0  0  0
 28 29  1  0  0  0  0
 28 30  1  0  0  0  0
  5 26  1  0  0  0  0
 17 31  1  0  0  0  0
 17 32  1  0  0  0  0
  8 33  1  0  0  0  0
  6 34  1  0  0  0  0
  1 35  1  0  0  0  0
 13 36  1  0  0  0  0
M  END
>  <cdx:groupId>
18814

>  <cdx:fragmentId>
18705

$$$$
