800019.cdx
  Mrv1902 05222410262D          

 16 17  0  0  0  0            999 V2000
    9.7525   -7.8934    0.0000 O   0  0  0  0  0  0  0  0  0  0  0  0
    2.9985   -6.2774    0.0000 C   0  0  0  0  0  0  0  0  0  0  0  0
    3.7814   -6.5374    0.0000 C   0  0  0  0  0  0  0  0  0  0  0  0
    4.5644   -6.7975    0.0000 C   0  0  0  0  0  0  0  0  0  0  0  0
    6.0179   -6.5770    0.0000 S   0  0  0  0  0  0  0  0  0  0  0  0
    5.3473   -7.0576    0.0000 C   0  0  0  0  0  0  0  0  0  0  0  0
    5.5971   -7.8439    0.0000 C   0  0  0  0  0  0  0  0  0  0  0  0
    6.4221   -7.8493    0.0000 C   0  0  0  0  0  0  0  0  0  0  0  0
    6.6822   -7.0663    0.0000 C   0  0  0  0  0  0  0  0  0  0  0  0
    8.1327   -7.3058    0.0000 S   0  0  0  0  0  0  0  0  0  0  0  0
    7.4684   -6.8165    0.0000 C   0  0  0  0  0  0  0  0  0  0  0  0
    7.7285   -6.0336    0.0000 C   0  0  0  0  0  0  0  0  0  0  0  0
    8.5535   -6.0390    0.0000 C   0  0  0  0  0  0  0  0  0  0  0  0
    8.8033   -6.8253    0.0000 C   0  0  0  0  0  0  0  0  0  0  0  0
   10.2029   -6.5373    0.0000 C   0  0  0  0  0  0  0  0  0  0  0  0
    9.5862   -7.0853    0.0000 C   0  0  0  0  0  0  0  0  0  0  0  0
 16  1  2  0  0  0  0
 16 14  1  0  0  0  0
 11  9  1  0  0  0  0
  6  4  1  0  0  0  0
  3  2  1  0  0  0  0
  4  3  3  0  0  0  0
  9  5  1  0  0  0  0
  6  5  1  0  0  0  0
  7  6  2  0  0  0  0
  8  7  1  0  0  0  0
  9  8  2  0  0  0  0
 14 10  1  0  0  0  0
 11 10  1  0  0  0  0
 12 11  2  0  0  0  0
 13 12  1  0  0  0  0
 14 13  2  0  0  0  0
 16 15  1  0  0  0  0
M  END
>  <cdx:fragmentId>
35701

$$$$
