11030188.cdx
  Mrv1902 05222410182D          

 13 14  0  0  0  0            999 V2000
    8.2650  -12.3117    0.0000 C   0  0  2  0  0  0  0  0  0  0  0  0
    7.5505  -12.7242    0.0000 C   0  0  0  0  0  0  0  0  0  0  0  0
    6.8361  -12.3117    0.0000 C   0  0  0  0  0  0  0  0  0  0  0  0
    6.8361  -11.4867    0.0000 C   0  0  1  0  0  0  0  0  0  0  0  0
    7.5505  -11.0742    0.0000 C   0  0  0  0  0  0  0  0  0  0  0  0
    8.2650  -11.4867    0.0000 C   0  0  2  0  0  0  0  0  0  0  0  0
    8.9795  -11.8992    0.0000 O   0  0  0  0  0  0  0  0  0  0  0  0
    7.5505  -13.5492    0.0000 O   0  0  0  0  0  0  0  0  0  0  0  0
    6.1216  -10.2492    0.0000 C   0  0  0  0  0  0  0  0  0  0  0  0
    6.1216  -11.0742    0.0000 C   0  0  0  0  0  0  0  0  0  0  0  0
    5.4071  -11.4867    0.0000 C   0  0  0  0  0  0  0  0  0  0  0  0
    8.6775  -13.0262    0.0000 C   0  0  0  0  0  0  0  0  0  0  0  0
    8.6775  -10.7723    0.0000 H   0  0  0  0  0  0  0  0  0  0  0  0
  1  2  1  0  0  0  0
  2  3  1  0  0  0  0
  3  4  1  0  0  0  0
  4  5  1  0  0  0  0
  5  6  1  0  0  0  0
  6  7  1  0  0  0  0
  1  7  1  0  0  0  0
  1  6  1  0  0  0  0
  2  8  2  0  0  0  0
  9 10  2  0  0  0  0
 10 11  1  0  0  0  0
  4 10  1  6  0  0  0
  1 12  1  1  0  0  0
  6 13  1  1  0  0  0
M  END
>  <cdx:groupId>
65442

>  <cdx:fragmentId>
65405

$$$$
