800078.cdx
  Mrv1902 05222410232D          

 44 48  0  0  0  0            999 V2000
    9.0539  -11.1545    0.0000 O   0  0  0  0  0  0  0  0  0  0  0  0
    7.6247  -11.9790    0.0000 O   0  0  0  0  0  0  0  0  0  0  0  0
    6.1960  -11.9786    0.0000 O   0  0  0  0  0  0  0  0  0  0  0  0
    6.1960  -11.1536    0.0000 C   0  0  0  0  0  0  0  0  0  0  0  0
   10.4836   -8.6799    0.0000 O   0  0  0  0  0  0  0  0  0  0  0  0
   11.9123   -9.5054    0.0000 O   0  0  0  0  0  0  0  0  0  0  0  0
   11.9118  -11.1554    0.0000 O   0  0  0  0  0  0  0  0  0  0  0  0
   11.1969  -12.3927    0.0000 O   0  0  0  0  0  0  0  0  0  0  0  0
   10.4826  -11.9799    0.0000 C   0  0  0  0  0  0  0  0  0  0  0  0
   10.4828  -11.1549    0.0000 C   0  0  2  0  0  0  0  0  0  0  0  0
   11.1974  -10.7427    0.0000 C   0  0  2  0  0  0  0  0  0  0  0  0
   11.1977   -9.9177    0.0000 C   0  0  1  0  0  0  0  0  0  0  0  0
   10.4834   -9.5049    0.0000 C   0  0  2  0  0  0  0  0  0  0  0  0
    9.7688   -9.9172    0.0000 C   0  0  1  0  0  0  0  0  0  0  0  0
    9.7685  -10.7422    0.0000 O   0  0  0  0  0  0  0  0  0  0  0  0
    9.0544   -9.5045    0.0000 O   0  0  0  0  0  0  0  0  0  0  0  0
    6.9106  -10.7413    0.0000 C   0  0  2  0  0  0  0  0  0  0  0  0
    7.6250  -11.1540    0.0000 C   0  0  2  0  0  0  0  0  0  0  0  0
    8.3396  -10.7418    0.0000 C   0  0  1  0  0  0  0  0  0  0  0  0
    8.3398   -9.9168    0.0000 C   0  0  2  0  0  0  0  0  0  0  0  0
    7.6255   -9.5040    0.0000 C   0  0  1  0  0  0  0  0  0  0  0  0
    6.9109   -9.9163    0.0000 O   0  0  0  0  0  0  0  0  0  0  0  0
    7.6257   -8.6790    0.0000 O   0  0  0  0  0  0  0  0  0  0  0  0
    9.7696   -7.4422    0.0000 O   0  0  0  0  0  0  0  0  0  0  0  0
    9.7701   -5.7922    0.0000 O   0  0  0  0  0  0  0  0  0  0  0  0
    7.6265   -6.2040    0.0000 C   0  0  0  0  0  0  0  0  0  0  0  0
    8.3411   -5.7918    0.0000 C   0  0  0  0  0  0  0  0  0  0  0  0
    9.0555   -6.2045    0.0000 C   0  0  0  0  0  0  0  0  0  0  0  0
    9.0552   -7.0295    0.0000 C   0  0  0  0  0  0  0  0  0  0  0  0
    8.3406   -7.4418    0.0000 C   0  0  0  0  0  0  0  0  0  0  0  0
    7.6263   -7.0290    0.0000 C   0  0  0  0  0  0  0  0  0  0  0  0
    4.7676   -9.5031    0.0000 O   0  0  0  0  0  0  0  0  0  0  0  0
    3.3394   -7.0277    0.0000 O   0  0  0  0  0  0  0  0  0  0  0  0
    6.1965   -9.5036    0.0000 O   0  0  0  0  0  0  0  0  0  0  0  0
    6.1973   -7.0286    0.0000 O   0  0  0  0  0  0  0  0  0  0  0  0
    5.4827   -7.4409    0.0000 C   0  0  0  0  0  0  0  0  0  0  0  0
    4.7684   -7.0281    0.0000 C   0  0  0  0  0  0  0  0  0  0  0  0
    4.0538   -7.4404    0.0000 C   0  0  0  0  0  0  0  0  0  0  0  0
    4.0535   -8.2654    0.0000 C   0  0  0  0  0  0  0  0  0  0  0  0
    4.7679   -8.6781    0.0000 C   0  0  0  0  0  0  0  0  0  0  0  0
    5.4825   -8.2659    0.0000 C   0  0  0  0  0  0  0  0  0  0  0  0
    6.1968   -8.6786    0.0000 C   0  0  0  0  0  0  0  0  0  0  0  0
    6.9114   -8.2663    0.0000 C   0  0  1  0  0  0  0  0  0  0  0  0
    6.9117   -7.4413    0.0000 C   0  0  1  0  0  0  0  0  0  0  0  0
 43 23  1  1  0  0  0
 21 23  1  1  0  0  0
 19  1  1  1  0  0  0
 18  2  1  6  0  0  0
 17  4  1  1  0  0  0
  4  3  1  0  0  0  0
 20 16  1  6  0  0  0
 14 16  1  1  0  0  0
 13  5  1  6  0  0  0
 12  6  1  1  0  0  0
 11  7  1  6  0  0  0
 10  9  1  1  0  0  0
  9  8  1  0  0  0  0
 15 10  1  0  0  0  0
 11 10  1  0  0  0  0
 12 11  1  0  0  0  0
 13 12  1  0  0  0  0
 14 13  1  0  0  0  0
 15 14  1  0  0  0  0
 22 17  1  0  0  0  0
 18 17  1  0  0  0  0
 19 18  1  0  0  0  0
 20 19  1  0  0  0  0
 21 20  1  0  0  0  0
 22 21  1  0  0  0  0
 44 31  1  6  0  0  0
 29 24  1  0  0  0  0
 28 25  1  0  0  0  0
 31 26  2  0  0  0  0
 27 26  1  0  0  0  0
 28 27  2  0  0  0  0
 29 28  1  0  0  0  0
 30 29  2  0  0  0  0
 31 30  1  0  0  0  0
 40 32  1  0  0  0  0
 38 33  1  0  0  0  0
 42 34  2  0  0  0  0
 44 35  1  0  0  0  0
 36 35  1  0  0  0  0
 41 36  2  0  0  0  0
 37 36  1  0  0  0  0
 38 37  2  0  0  0  0
 39 38  1  0  0  0  0
 40 39  2  0  0  0  0
 41 40  1  0  0  0  0
 42 41  1  0  0  0  0
 43 42  1  0  0  0  0
 44 43  1  0  0  0  0
M  END
>  <cdx:groupId>
228287

>  <cdx:fragmentId>
228212

$$$$
