800052.cdx
  Mrv1902 05222410242D          

 69 76  0  0  0  0            999 V2000
   11.5380   -7.4028    0.0000 C   0  0  0  0  0  0  0  0  0  0  0  0
   12.2525   -6.9903    0.0000 C   0  0  2  0  0  0  0  0  0  0  0  0
   12.9669   -7.4028    0.0000 C   0  0  0  0  0  0  0  0  0  0  0  0
   12.9669   -8.2278    0.0000 C   0  0  0  0  0  0  0  0  0  0  0  0
   12.2525   -8.6403    0.0000 C   0  0  2  0  0  0  0  0  0  0  0  0
   12.2525   -9.4653    0.0000 C   0  0  1  0  0  0  0  0  0  0  0  0
   11.5380   -9.8778    0.0000 C   0  0  0  0  0  0  0  0  0  0  0  0
   10.8235   -9.4653    0.0000 C   0  0  1  0  0  0  0  0  0  0  0  0
   10.1091   -9.8778    0.0000 C   0  0  2  0  0  0  0  0  0  0  0  0
   10.1091  -10.7028    0.0000 C   0  0  0  0  0  0  0  0  0  0  0  0
    9.3946  -11.1153    0.0000 C   0  0  0  0  0  0  0  0  0  0  0  0
    8.6801  -10.7028    0.0000 C   0  0  1  0  0  0  0  0  0  0  0  0
    7.9656  -11.1153    0.0000 C   0  0  1  0  0  0  0  0  0  0  0  0
    7.2512  -10.7028    0.0000 C   0  0  2  0  0  0  0  0  0  0  0  0
    7.2512   -9.8778    0.0000 C   0  0  0  0  0  0  0  0  0  0  0  0
    7.9656   -9.4653    0.0000 C   0  0  0  0  0  0  0  0  0  0  0  0
    8.6801   -9.8778    0.0000 C   0  0  2  0  0  0  0  0  0  0  0  0
    9.3946   -9.4653    0.0000 C   0  0  1  0  0  0  0  0  0  0  0  0
    9.3946   -8.6403    0.0000 C   0  0  1  0  0  0  0  0  0  0  0  0
   10.1091   -8.2278    0.0000 C   0  0  0  0  0  0  0  0  0  0  0  0
   10.8235   -8.6403    0.0000 C   0  0  0  0  0  0  0  0  0  0  0  0
   11.5380   -8.2278    0.0000 C   0  0  2  0  0  0  0  0  0  0  0  0
   13.6814   -6.9903    0.0000 O   0  0  0  0  0  0  0  0  0  0  0  0
    8.6801   -9.0528    0.0000 C   0  0  0  0  0  0  0  0  0  0  0  0
    8.3781  -11.8298    0.0000 C   0  0  0  0  0  0  0  0  0  0  0  0
    7.5531  -11.8298    0.0000 C   0  0  0  0  0  0  0  0  0  0  0  0
   11.8400   -6.2758    0.0000 C   0  0  0  0  0  0  0  0  0  0  0  0
   12.6650   -6.2758    0.0000 C   0  0  0  0  0  0  0  0  0  0  0  0
    8.6801   -8.2278    0.0000 O   0  0  0  0  0  0  0  0  0  0  0  0
    7.9656   -8.6403    0.0000 C   0  0  0  0  0  0  0  0  0  0  0  0
   12.9669   -9.0528    0.0000 C   0  0  0  0  0  0  0  0  0  0  0  0
   13.6814   -8.6403    0.0000 O   0  0  0  0  0  0  0  0  0  0  0  0
   12.9669   -9.8778    0.0000 O   0  0  0  0  0  0  0  0  0  0  0  0
    5.1078  -11.9403    0.0000 O   0  0  0  0  0  0  0  0  0  0  0  0
    3.6626  -11.9678    0.0000 O   0  0  0  0  0  0  0  0  0  0  0  0
    4.3771  -12.3803    0.0000 C   0  0  2  0  0  0  0  0  0  0  0  0
    4.3771  -13.2053    0.0000 C   0  0  1  0  0  0  0  0  0  0  0  0
    3.6626  -13.6178    0.0000 C   0  0  2  0  0  0  0  0  0  0  0  0
    2.9482  -13.2053    0.0000 C   0  0  1  0  0  0  0  0  0  0  0  0
    2.9482  -12.3803    0.0000 C   0  0  1  0  0  0  0  0  0  0  0  0
    5.0916  -13.6178    0.0000 O   0  0  0  0  0  0  0  0  0  0  0  0
    4.3771  -14.8553    0.0000 O   0  0  0  0  0  0  0  0  0  0  0  0
    5.0916  -14.4428    0.0000 C   0  0  2  0  0  0  0  0  0  0  0  0
    5.8061  -14.8553    0.0000 C   0  0  1  0  0  0  0  0  0  0  0  0
    5.8061  -15.6803    0.0000 C   0  0  2  0  0  0  0  0  0  0  0  0
    5.0916  -16.0928    0.0000 C   0  0  1  0  0  0  0  0  0  0  0  0
    4.3771  -15.6803    0.0000 C   0  0  0  0  0  0  0  0  0  0  0  0
    5.0916  -16.9178    0.0000 O   0  0  0  0  0  0  0  0  0  0  0  0
    6.5205  -16.0928    0.0000 O   0  0  0  0  0  0  0  0  0  0  0  0
    6.5205  -14.4428    0.0000 O   0  0  0  0  0  0  0  0  0  0  0  0
    2.2337  -11.9678    0.0000 C   0  0  0  0  0  0  0  0  0  0  0  0
    2.2337  -11.1428    0.0000 O   0  0  0  0  0  0  0  0  0  0  0  0
    2.2337  -13.6178    0.0000 O   0  0  0  0  0  0  0  0  0  0  0  0
    3.6626  -14.4428    0.0000 O   0  0  0  0  0  0  0  0  0  0  0  0
    8.6801  -11.5278    0.0000 H   0  0  0  0  0  0  0  0  0  0  0  0
   11.5380   -9.0528    0.0000 H   0  0  0  0  0  0  0  0  0  0  0  0
    3.6788  -11.1153    0.0000 O   0  0  0  0  0  0  0  0  0  0  0  0
    3.6788   -9.4653    0.0000 O   0  0  0  0  0  0  0  0  0  0  0  0
    5.1078   -8.6403    0.0000 C   0  0  0  0  0  0  0  0  0  0  0  0
    5.1078   -9.4653    0.0000 C   0  0  2  0  0  0  0  0  0  0  0  0
    4.3933   -9.8778    0.0000 C   0  0  1  0  0  0  0  0  0  0  0  0
    4.3933  -10.7028    0.0000 C   0  0  1  0  0  0  0  0  0  0  0  0
    5.1078  -11.1153    0.0000 C   0  0  2  0  0  0  0  0  0  0  0  0
    5.8222  -10.7028    0.0000 C   0  0  1  0  0  0  0  0  0  0  0  0
    5.8222   -9.8778    0.0000 O   0  0  0  0  0  0  0  0  0  0  0  0
    6.5367  -11.1153    0.0000 O   0  0  0  0  0  0  0  0  0  0  0  0
   10.8235  -10.2903    0.0000 C   0  0  0  0  0  0  0  0  0  0  0  0
   10.1091   -9.0528    0.0000 C   0  0  0  0  0  0  0  0  0  0  0  0
    9.3946  -10.2903    0.0000 H   0  0  0  0  0  0  0  0  0  0  0  0
 64 66  1  1  0  0  0
 63 34  1  6  0  0  0
 35 36  1  0  0  0  0
 62 57  1  1  0  0  0
 61 58  1  1  0  0  0
 60 59  1  1  0  0  0
 65 60  1  0  0  0  0
 61 60  1  0  0  0  0
 62 61  1  0  0  0  0
 63 62  1  0  0  0  0
  1  2  1  0  0  0  0
  2  3  1  0  0  0  0
  3  4  1  0  0  0  0
  4  5  1  0  0  0  0
  5  6  1  0  0  0  0
  6  7  1  0  0  0  0
  7  8  1  0  0  0  0
  8  9  1  0  0  0  0
  9 10  1  0  0  0  0
 10 11  1  0  0  0  0
 11 12  1  0  0  0  0
 12 13  1  0  0  0  0
 13 14  1  0  0  0  0
 14 15  1  0  0  0  0
 15 16  1  0  0  0  0
 16 17  1  0  0  0  0
 12 17  1  0  0  0  0
 17 18  1  0  0  0  0
  9 18  1  0  0  0  0
 18 19  1  0  0  0  0
 19 20  1  0  0  0  0
 20 21  2  0  0  0  0
  8 21  1  0  0  0  0
 21 22  1  0  0  0  0
  5 22  1  0  0  0  0
  1 22  1  0  0  0  0
  3 23  2  0  0  0  0
 17 24  1  1  0  0  0
 13 25  1  6  0  0  0
 13 26  1  1  0  0  0
  2 27  1  1  0  0  0
  2 28  1  6  0  0  0
 29 30  1  0  0  0  0
 19 29  1  6  0  0  0
 31 32  1  0  0  0  0
  5 31  1  1  0  0  0
  6 33  1  6  0  0  0
 64 63  1  0  0  0  0
 65 64  1  0  0  0  0
 36 37  1  0  0  0  0
 37 38  1  0  0  0  0
 38 39  1  0  0  0  0
 39 40  1  0  0  0  0
 35 40  1  0  0  0  0
 42 43  1  0  0  0  0
 43 44  1  0  0  0  0
 44 45  1  0  0  0  0
 45 46  1  0  0  0  0
 46 47  1  0  0  0  0
 42 47  1  0  0  0  0
 46 48  1  6  0  0  0
 45 49  1  1  0  0  0
 44 50  1  6  0  0  0
 43 41  1  1  0  0  0
 37 41  1  6  0  0  0
 51 52  1  0  0  0  0
 40 51  1  1  0  0  0
 39 53  1  6  0  0  0
 38 54  1  1  0  0  0
 14 66  1  1  0  0  0
 12 55  1  6  0  0  0
 22 56  1  1  0  0  0
  8 67  1  6  0  0  0
  9 68  1  1  0  0  0
 18 69  1  6  0  0  0
 36 34  1  1  0  0  0
M  END
>  <cdx:fragmentId>
118727

$$$$
