atractylone(3080635).cdx
  Mrv1902 05222410192D          

 17 19  0  0  0  0            999 V2000
    4.7470   -7.3012    0.0000 C   0  0  0  0  0  0  0  0  0  0  0  0
    4.7470   -8.1263    0.0000 C   0  0  0  0  0  0  0  0  0  0  0  0
    5.4615   -8.5388    0.0000 C   0  0  0  0  0  0  0  0  0  0  0  0
    6.1760   -8.1263    0.0000 C   0  0  1  0  0  0  0  0  0  0  0  0
    6.1760   -7.3012    0.0000 C   0  0  2  0  0  0  0  0  0  0  0  0
    5.4615   -6.8888    0.0000 C   0  0  0  0  0  0  0  0  0  0  0  0
    6.8904   -8.5388    0.0000 C   0  0  0  0  0  0  0  0  0  0  0  0
    7.6049   -8.1263    0.0000 C   0  0  0  0  0  0  0  0  0  0  0  0
    7.6049   -7.3012    0.0000 C   0  0  0  0  0  0  0  0  0  0  0  0
    6.8904   -6.8888    0.0000 C   0  0  0  0  0  0  0  0  0  0  0  0
    8.3895   -8.3812    0.0000 O   0  0  0  0  0  0  0  0  0  0  0  0
    8.8745   -7.7138    0.0000 C   0  0  0  0  0  0  0  0  0  0  0  0
    8.3895   -7.0463    0.0000 C   0  0  0  0  0  0  0  0  0  0  0  0
    5.4615   -6.0638    0.0000 C   0  0  0  0  0  0  0  0  0  0  0  0
    8.6031   -6.2494    0.0000 C   0  0  0  0  0  0  0  0  0  0  0  0
    6.1760   -6.4763    0.0000 H   0  0  0  0  0  0  0  0  0  0  0  0
    6.1760   -8.9513    0.0000 C   0  0  0  0  0  0  0  0  0  0  0  0
  1  2  1  0  0  0  0
  2  3  1  0  0  0  0
  3  4  1  0  0  0  0
  4  5  1  0  0  0  0
  5  6  1  0  0  0  0
  6  1  1  0  0  0  0
  4  7  1  0  0  0  0
  7  8  1  0  0  0  0
  8  9  2  0  0  0  0
  9 10  1  0  0  0  0
 10  5  1  0  0  0  0
  8 11  1  0  0  0  0
 11 12  1  0  0  0  0
 12 13  2  0  0  0  0
 13  9  1  0  0  0  0
  6 14  2  0  0  0  0
 13 15  1  0  0  0  0
  5 16  1  1  0  0  0
  4 17  1  6  0  0  0
M  END
>  <cdx:fragmentId>
5

$$$$
