3230-2.cdx
  Mrv1902 05222410182D          

 23 22  0  0  0  0            999 V2000
    4.9241   -5.0394    0.0000 C   0  0  0  0  0  0  0  0  0  0  0  0
    4.9241   -5.8644    0.0000 C   0  0  0  0  0  0  0  0  0  0  0  0
    5.6385   -6.2769    0.0000 C   0  0  0  0  0  0  0  0  0  0  0  0
    5.6385   -7.1019    0.0000 C   0  0  0  0  0  0  0  0  0  0  0  0
    4.2096   -6.2769    0.0000 C   0  0  0  0  0  0  0  0  0  0  0  0
    4.2096   -7.1019    0.0000 O   0  0  0  0  0  0  0  0  0  0  0  0
    3.4951   -5.8644    0.0000 O   0  0  0  0  0  0  0  0  0  0  0  0
    3.4951   -7.5144    0.0000 C   0  0  0  0  0  0  0  0  0  0  0  0
    3.4951   -8.3394    0.0000 C   0  0  0  0  0  0  0  0  0  0  0  0
    4.2096   -8.7519    0.0000 C   0  0  0  0  0  0  0  0  0  0  0  0
    4.9241   -8.3394    0.0000 O   0  0  0  0  0  0  0  0  0  0  0  0
    4.2096   -9.5769    0.0000 C   0  0  0  0  0  0  0  0  0  0  0  0
    4.9241   -9.9894    0.0000 C   0  0  0  0  0  0  0  0  0  0  0  0
    4.9241  -10.8144    0.0000 C   0  0  0  0  0  0  0  0  0  0  0  0
    5.6385  -11.2269    0.0000 C   0  0  0  0  0  0  0  0  0  0  0  0
    6.3530  -10.8144    0.0000 C   0  0  0  0  0  0  0  0  0  0  0  0
    7.0675  -11.2269    0.0000 C   0  0  0  0  0  0  0  0  0  0  0  0
    7.7819  -10.8144    0.0000 C   0  0  0  0  0  0  0  0  0  0  0  0
    8.4964  -11.2269    0.0000 C   0  0  0  0  0  0  0  0  0  0  0  0
    9.2109  -10.8144    0.0000 C   0  0  0  0  0  0  0  0  0  0  0  0
    9.9254  -11.2269    0.0000 C   0  0  0  0  0  0  0  0  0  0  0  0
   10.6398  -10.8144    0.0000 C   0  0  0  0  0  0  0  0  0  0  0  0
   11.3543  -11.2269    0.0000 O   0  0  0  0  0  0  0  0  0  0  0  0
  1  2  1  0  0  0  0
  2  3  1  0  0  0  0
  3  4  1  0  0  0  0
  2  5  1  0  0  0  0
  5  6  1  0  0  0  0
  5  7  2  0  0  0  0
  6  8  1  0  0  0  0
  8  9  1  0  0  0  0
  9 10  1  0  0  0  0
 10 11  1  0  0  0  0
 10 12  1  0  0  0  0
 12 13  2  0  0  0  0
 13 14  1  0  0  0  0
 14 15  2  0  0  0  0
 15 16  1  0  0  0  0
 16 17  3  0  0  0  0
 17 18  1  0  0  0  0
 18 19  3  0  0  0  0
 19 20  1  0  0  0  0
 20 21  2  0  0  0  0
 21 22  1  0  0  0  0
 22 23  1  0  0  0  0
M  END
>  <cdx:fragmentId>
69

$$$$
