800053.cdx
  Mrv1902 05222410242D          

 25 27  0  0  0  0            999 V2000
    5.7011   -8.4360    0.0000 C   0  0  0  0  0  0  0  0  0  0  0  0
    4.9866   -8.0235    0.0000 C   0  0  0  0  0  0  0  0  0  0  0  0
    4.2722   -8.4360    0.0000 C   0  0  0  0  0  0  0  0  0  0  0  0
    3.5577   -8.0235    0.0000 C   0  0  0  0  0  0  0  0  0  0  0  0
    5.7011   -9.2610    0.0000 O   0  0  0  0  0  0  0  0  0  0  0  0
    6.4156   -8.0235    0.0000 O   0  0  0  0  0  0  0  0  0  0  0  0
    4.9866   -7.1985    0.0000 C   0  0  0  0  0  0  0  0  0  0  0  0
    7.1301   -9.2610    0.0000 C   0  0  0  0  0  0  0  0  0  0  0  0
    7.1301   -8.4360    0.0000 C   0  0  2  0  0  0  0  0  0  0  0  0
    7.8445   -8.0235    0.0000 C   0  0  0  0  0  0  0  0  0  0  0  0
    8.5590   -8.4360    0.0000 C   0  0  0  0  0  0  0  0  0  0  0  0
    9.2735   -8.0235    0.0000 C   0  0  0  0  0  0  0  0  0  0  0  0
    9.9879   -8.4360    0.0000 C   0  0  0  0  0  0  0  0  0  0  0  0
    9.9879   -9.2610    0.0000 C   0  0  0  0  0  0  0  0  0  0  0  0
    9.2735   -9.6735    0.0000 C   0  0  0  0  0  0  0  0  0  0  0  0
    8.5590   -9.2610    0.0000 C   0  0  0  0  0  0  0  0  0  0  0  0
    7.8445   -9.6735    0.0000 O   0  0  0  0  0  0  0  0  0  0  0  0
   10.7024   -8.0235    0.0000 C   0  0  0  0  0  0  0  0  0  0  0  0
   10.7024   -7.1985    0.0000 C   0  0  0  0  0  0  0  0  0  0  0  0
    9.9879   -6.7860    0.0000 C   0  0  0  0  0  0  0  0  0  0  0  0
    9.2735   -7.1985    0.0000 O   0  0  0  0  0  0  0  0  0  0  0  0
    7.8445   -7.1985    0.0000 O   0  0  0  0  0  0  0  0  0  0  0  0
    9.9879   -5.9610    0.0000 O   0  0  0  0  0  0  0  0  0  0  0  0
    6.7176   -9.9755    0.0000 C   0  0  0  0  0  0  0  0  0  0  0  0
    6.3051   -9.2610    0.0000 C   0  0  0  0  0  0  0  0  0  0  0  0
  1  2  1  0  0  0  0
  2  3  2  0  0  0  0
  3  4  1  0  0  0  0
  1  5  2  0  0  0  0
  1  6  1  0  0  0  0
  2  7  1  0  0  0  0
  8  9  1  0  0  0  0
  9 10  1  0  0  0  0
 10 11  1  0  0  0  0
 11 12  1  0  0  0  0
 12 13  2  0  0  0  0
 13 14  1  0  0  0  0
 14 15  2  0  0  0  0
 15 16  1  0  0  0  0
 11 16  2  0  0  0  0
 16 17  1  0  0  0  0
  8 17  1  0  0  0  0
 18 19  2  0  0  0  0
 19 20  1  0  0  0  0
 20 21  1  0  0  0  0
 21 12  1  0  0  0  0
 18 13  1  0  0  0  0
 10 22  2  0  0  0  0
 20 23  2  0  0  0  0
  8 24  1  0  0  0  0
  8 25  1  0  0  0  0
  9  6  1  1  0  0  0
M  END
>  <cdx:fragmentId>
11478

$$$$
