800038.cdx
  Mrv1902 05222410182D          

 31 33  0  0  0  0            999 V2000
    5.8195   -6.8681    0.0000 C   0  0  1  0  0  0  0  0  0  0  0  0
    5.8195   -7.6931    0.0000 C   0  0  0  0  0  0  0  0  0  0  0  0
    6.5340   -8.1056    0.0000 O   0  0  0  0  0  0  0  0  0  0  0  0
    7.2485   -7.6931    0.0000 C   0  0  0  0  0  0  0  0  0  0  0  0
    7.2485   -6.8681    0.0000 C   0  0  0  0  0  0  0  0  0  0  0  0
    6.5340   -6.4556    0.0000 C   0  0  1  0  0  0  0  0  0  0  0  0
    7.9629   -8.1056    0.0000 C   0  0  0  0  0  0  0  0  0  0  0  0
    8.6774   -7.6931    0.0000 C   0  0  0  0  0  0  0  0  0  0  0  0
    8.6774   -6.8681    0.0000 C   0  0  0  0  0  0  0  0  0  0  0  0
    7.9629   -6.4556    0.0000 C   0  0  0  0  0  0  0  0  0  0  0  0
    9.3919   -6.4556    0.0000 C   0  0  0  0  0  0  0  0  0  0  0  0
    6.5340   -5.6306    0.0000 O   0  0  0  0  0  0  0  0  0  0  0  0
    5.1051   -5.6306    0.0000 O   0  0  0  0  0  0  0  0  0  0  0  0
    5.1051   -6.4556    0.0000 O   0  0  0  0  0  0  0  0  0  0  0  0
    4.3906   -6.8681    0.0000 C   0  0  0  0  0  0  0  0  0  0  0  0
    4.3906   -7.6931    0.0000 O   0  0  0  0  0  0  0  0  0  0  0  0
    3.6761   -6.4556    0.0000 C   0  0  0  0  0  0  0  0  0  0  0  0
    2.9616   -6.8681    0.0000 C   0  0  0  0  0  0  0  0  0  0  0  0
    2.9616   -7.6931    0.0000 C   0  0  0  0  0  0  0  0  0  0  0  0
    9.3919   -5.6306    0.0000 C   0  0  0  0  0  0  0  0  0  0  0  0
    8.6774   -5.2181    0.0000 C   0  0  0  0  0  0  0  0  0  0  0  0
    7.9629   -5.6306    0.0000 O   0  0  0  0  0  0  0  0  0  0  0  0
    8.6774   -4.3931    0.0000 O   0  0  0  0  0  0  0  0  0  0  0  0
    5.8195   -4.3931    0.0000 C   0  0  0  0  0  0  0  0  0  0  0  0
    5.8195   -5.2181    0.0000 C   0  0  0  0  0  0  0  0  0  0  0  0
    4.9945   -7.6931    0.0000 C   0  0  0  0  0  0  0  0  0  0  0  0
    5.2362   -8.2765    0.0000 C   0  0  0  0  0  0  0  0  0  0  0  0
    3.6761   -5.6306    0.0000 C   0  0  0  0  0  0  0  0  0  0  0  0
    6.5340   -3.9806    0.0000 C   0  0  0  0  0  0  0  0  0  0  0  0
    7.2485   -4.3931    0.0000 C   0  0  0  0  0  0  0  0  0  0  0  0
    6.5340   -3.1556    0.0000 C   0  0  0  0  0  0  0  0  0  0  0  0
  1  2  1  0  0  0  0
  2  3  1  0  0  0  0
  3  4  1  0  0  0  0
  4  5  2  0  0  0  0
  5  6  1  0  0  0  0
  6  1  1  0  0  0  0
  4  7  1  0  0  0  0
  7  8  2  0  0  0  0
  8  9  1  0  0  0  0
  9 10  2  0  0  0  0
 10  5  1  0  0  0  0
 11  9  1  0  0  0  0
 25 13  2  0  0  0  0
  6 12  1  6  0  0  0
 12 25  1  0  0  0  0
 25 24  1  0  0  0  0
  1 14  1  6  0  0  0
 14 15  1  0  0  0  0
 15 16  2  0  0  0  0
 15 17  1  0  0  0  0
 17 18  2  0  0  0  0
 18 19  1  0  0  0  0
 11 20  2  0  0  0  0
 20 21  1  0  0  0  0
 21 22  1  0  0  0  0
 22 10  1  0  0  0  0
 21 23  2  0  0  0  0
  2 26  1  0  0  0  0
  2 27  1  0  0  0  0
 17 28  1  0  0  0  0
 24 29  1  0  0  0  0
 29 30  1  0  0  0  0
 29 31  1  0  0  0  0
M  END
>  <cdx:fragmentId>
5

$$$$
