800069.cdx
  Mrv1902 05222410262D          

 27 29  0  0  0  0            999 V2000
    4.2385   -7.9947    0.0000 C   0  0  0  0  0  0  0  0  0  0  0  0
    4.2385   -8.8197    0.0000 C   0  0  0  0  0  0  0  0  0  0  0  0
    4.9529   -9.2322    0.0000 C   0  0  0  0  0  0  0  0  0  0  0  0
    5.6674   -8.8197    0.0000 C   0  0  0  0  0  0  0  0  0  0  0  0
    6.3819   -9.2322    0.0000 C   0  0  0  0  0  0  0  0  0  0  0  0
    7.0964   -8.8197    0.0000 C   0  0  0  0  0  0  0  0  0  0  0  0
    7.0964   -7.9947    0.0000 C   0  0  0  0  0  0  0  0  0  0  0  0
    6.3819   -7.5822    0.0000 C   0  0  0  0  0  0  0  0  0  0  0  0
    5.6674   -7.9947    0.0000 C   0  0  0  0  0  0  0  0  0  0  0  0
    4.9529   -7.5822    0.0000 O   0  0  0  0  0  0  0  0  0  0  0  0
    3.5240   -7.5822    0.0000 O   0  0  0  0  0  0  0  0  0  0  0  0
    7.8108   -7.5822    0.0000 O   0  0  0  0  0  0  0  0  0  0  0  0
    8.5253   -8.8197    0.0000 O   0  0  0  0  0  0  0  0  0  0  0  0
    8.5253   -7.9947    0.0000 C   0  0  1  0  0  0  0  0  0  0  0  0
    9.2398   -7.5822    0.0000 C   0  0  1  0  0  0  0  0  0  0  0  0
    9.9542   -7.9947    0.0000 C   0  0  2  0  0  0  0  0  0  0  0  0
    9.9542   -8.8197    0.0000 C   0  0  1  0  0  0  0  0  0  0  0  0
    9.2398   -9.2322    0.0000 C   0  0  1  0  0  0  0  0  0  0  0  0
    9.2398  -10.0572    0.0000 C   0  0  0  0  0  0  0  0  0  0  0  0
    9.9542  -10.4697    0.0000 O   0  0  0  0  0  0  0  0  0  0  0  0
   10.6687   -9.2322    0.0000 O   0  0  0  0  0  0  0  0  0  0  0  0
   10.6687   -7.5822    0.0000 O   0  0  0  0  0  0  0  0  0  0  0  0
    9.2398   -6.7572    0.0000 O   0  0  0  0  0  0  0  0  0  0  0  0
    6.3819   -6.7572    0.0000 O   0  0  0  0  0  0  0  0  0  0  0  0
    7.0964   -6.3447    0.0000 C   0  0  0  0  0  0  0  0  0  0  0  0
    7.8108   -9.2322    0.0000 O   0  0  0  0  0  0  0  0  0  0  0  0
    7.8108  -10.0572    0.0000 C   0  0  0  0  0  0  0  0  0  0  0  0
  1  2  1  0  0  0  0
  2  3  2  0  0  0  0
  3  4  1  0  0  0  0
  4  5  1  0  0  0  0
  5  6  2  0  0  0  0
  6  7  1  0  0  0  0
  7  8  2  0  0  0  0
  8  9  1  0  0  0  0
  4  9  2  0  0  0  0
  9 10  1  0  0  0  0
  1 10  1  0  0  0  0
  1 11  2  0  0  0  0
 13 14  1  0  0  0  0
 14 15  1  0  0  0  0
 15 16  1  0  0  0  0
 16 17  1  0  0  0  0
 17 18  1  0  0  0  0
 13 18  1  0  0  0  0
 19 20  1  0  0  0  0
 18 19  1  1  0  0  0
 17 21  1  6  0  0  0
 16 22  1  1  0  0  0
 15 23  1  6  0  0  0
 14 12  1  6  0  0  0
  7 12  1  0  0  0  0
 24 25  1  0  0  0  0
  8 24  1  0  0  0  0
 26 27  1  0  0  0  0
  6 26  1  0  0  0  0
M  END
>  <cdx:fragmentId>
29

$$$$
