9991528.cdx
  Mrv1902 05222410222D          

 17 18  0  0  0  0            999 V2000
    6.5290  -12.5403    0.0000 C   0  0  0  0  0  0  0  0  0  0  0  0
    5.8146  -12.9528    0.0000 C   0  0  0  0  0  0  0  0  0  0  0  0
    5.8146  -13.7778    0.0000 C   0  0  0  0  0  0  0  0  0  0  0  0
    6.5290  -14.1903    0.0000 C   0  0  0  0  0  0  0  0  0  0  0  0
    7.2435  -13.7778    0.0000 C   0  0  0  0  0  0  0  0  0  0  0  0
    7.9580  -14.1903    0.0000 C   0  0  0  0  0  0  0  0  0  0  0  0
    8.6724  -13.7778    0.0000 C   0  0  0  0  0  0  0  0  0  0  0  0
    8.6724  -12.9528    0.0000 C   0  0  0  0  0  0  0  0  0  0  0  0
    7.9580  -12.5403    0.0000 C   0  0  0  0  0  0  0  0  0  0  0  0
    7.2435  -12.9528    0.0000 C   0  0  0  0  0  0  0  0  0  0  0  0
    6.5290  -11.7153    0.0000 C   0  0  0  0  0  0  0  0  0  0  0  0
    5.8146  -11.3028    0.0000 O   0  0  0  0  0  0  0  0  0  0  0  0
    9.3869  -14.1903    0.0000 C   0  0  0  0  0  0  0  0  0  0  0  0
    7.9580  -11.7153    0.0000 O   0  0  0  0  0  0  0  0  0  0  0  0
    8.6724  -11.3028    0.0000 C   0  0  0  0  0  0  0  0  0  0  0  0
    9.3869  -12.5403    0.0000 O   0  0  0  0  0  0  0  0  0  0  0  0
    5.1001  -12.5403    0.0000 O   0  0  0  0  0  0  0  0  0  0  0  0
  1  2  1  0  0  0  0
  2  3  2  0  0  0  0
  3  4  1  0  0  0  0
  4  5  2  0  0  0  0
  5  6  1  0  0  0  0
  6  7  2  0  0  0  0
  7  8  1  0  0  0  0
  8  9  2  0  0  0  0
  9 10  1  0  0  0  0
  1 10  2  0  0  0  0
  5 10  1  0  0  0  0
 11 12  2  0  0  0  0
  1 11  1  0  0  0  0
  7 13  1  0  0  0  0
 14 15  1  0  0  0  0
  9 14  1  0  0  0  0
  8 16  1  0  0  0  0
  2 17  1  0  0  0  0
M  END
>  <cdx:groupId>
34411

>  <cdx:fragmentId>
34362

$$$$
