800042.cdx
  Mrv1902 05222410252D          

108119  0  0  0  0            999 V2000
   10.8200  -12.1055    0.0000 O   0  0  0  0  0  0  0  0  0  0  0  0
   11.5345  -12.5180    0.0000 C   0  0  2  0  0  0  0  0  0  0  0  0
   11.5345  -13.3430    0.0000 C   0  0  1  0  0  0  0  0  0  0  0  0
   10.8200  -13.7555    0.0000 C   0  0  1  0  0  0  0  0  0  0  0  0
   10.1056  -13.3430    0.0000 C   0  0  2  0  0  0  0  0  0  0  0  0
   10.1056  -12.5180    0.0000 C   0  0  2  0  0  0  0  0  0  0  0  0
   12.2490  -13.7555    0.0000 O   0  0  0  0  0  0  0  0  0  0  0  0
   10.8200  -14.5805    0.0000 O   0  0  0  0  0  0  0  0  0  0  0  0
    9.3911  -13.7555    0.0000 O   0  0  0  0  0  0  0  0  0  0  0  0
    9.3911  -12.1055    0.0000 C   0  0  0  0  0  0  0  0  0  0  0  0
   12.2490  -12.1055    0.0000 O   0  0  0  0  0  0  0  0  0  0  0  0
   12.9634  -10.0430    0.0000 O   0  0  0  0  0  0  0  0  0  0  0  0
   12.9634  -10.8680    0.0000 C   0  0  2  0  0  0  0  0  0  0  0  0
   12.2490  -11.2805    0.0000 C   0  0  1  0  0  0  0  0  0  0  0  0
   11.5345  -10.8680    0.0000 C   0  0  2  0  0  0  0  0  0  0  0  0
   11.5345  -10.0430    0.0000 C   0  0  1  0  0  0  0  0  0  0  0  0
   12.2490   -9.6305    0.0000 C   0  0  1  0  0  0  0  0  0  0  0  0
   12.2490   -8.8055    0.0000 C   0  0  0  0  0  0  0  0  0  0  0  0
   11.5345   -8.3930    0.0000 O   0  0  0  0  0  0  0  0  0  0  0  0
   10.8200   -9.6305    0.0000 O   0  0  0  0  0  0  0  0  0  0  0  0
   10.8200  -11.2805    0.0000 O   0  0  0  0  0  0  0  0  0  0  0  0
   13.6779  -11.2805    0.0000 O   0  0  0  0  0  0  0  0  0  0  0  0
   17.2503  -10.0430    0.0000 C   0  0  1  0  0  0  0  0  0  0  0  0
   17.9647   -9.6305    0.0000 C   0  0  2  0  0  0  0  0  0  0  0  0
   18.7494   -9.8854    0.0000 C   0  0  0  0  0  0  0  0  0  0  0  0
   19.2343   -9.2180    0.0000 C   0  0  2  0  0  0  0  0  0  0  0  0
   20.0189   -8.9631    0.0000 O   0  0  0  0  0  0  0  0  0  0  0  0
   20.0189   -8.1381    0.0000 C   0  0  0  0  0  0  0  0  0  0  0  0
   19.2343   -7.8831    0.0000 C   0  0  2  0  0  0  0  0  0  0  0  0
   18.7494   -8.5506    0.0000 C   0  0  2  0  0  0  0  0  0  0  0  0
   17.9647   -8.8055    0.0000 C   0  0  1  0  0  0  0  0  0  0  0  0
   17.2503   -8.3930    0.0000 C   0  0  0  0  0  0  0  0  0  0  0  0
   16.5358   -8.8055    0.0000 C   0  0  0  0  0  0  0  0  0  0  0  0
   16.5358   -9.6305    0.0000 C   0  0  2  0  0  0  0  0  0  0  0  0
   15.8213  -10.0430    0.0000 C   0  0  1  0  0  0  0  0  0  0  0  0
   15.1069   -9.6305    0.0000 C   0  0  0  0  0  0  0  0  0  0  0  0
   14.3924  -10.0430    0.0000 C   0  0  0  0  0  0  0  0  0  0  0  0
   14.3924  -10.8680    0.0000 C   0  0  1  0  0  0  0  0  0  0  0  0
   15.1069  -11.2805    0.0000 C   0  0  0  0  0  0  0  0  0  0  0  0
   15.8213  -10.8680    0.0000 C   0  0  0  0  0  0  0  0  0  0  0  0
   16.5358  -11.2805    0.0000 C   0  0  0  0  0  0  0  0  0  0  0  0
   17.2503  -10.8680    0.0000 C   0  0  0  0  0  0  0  0  0  0  0  0
   20.8394   -8.0518    0.0000 C   0  0  0  0  0  0  0  0  0  0  0  0
   21.3243   -8.7193    0.0000 C   0  0  0  0  0  0  0  0  0  0  0  0
   22.1448   -8.6330    0.0000 C   0  0  2  0  0  0  0  0  0  0  0  0
   22.6297   -9.3005    0.0000 C   0  0  0  0  0  0  0  0  0  0  0  0
   22.4803   -7.8793    0.0000 C   0  0  0  0  0  0  0  0  0  0  0  0
   15.8213   -9.2180    0.0000 C   0  0  0  0  0  0  0  0  0  0  0  0
   17.9647   -7.9805    0.0000 C   0  0  0  0  0  0  0  0  0  0  0  0
   18.9793   -7.0985    0.0000 C   0  0  0  0  0  0  0  0  0  0  0  0
   20.3545   -7.3844    0.0000 O   0  0  0  0  0  0  0  0  0  0  0  0
   17.2503   -9.2180    0.0000 H   0  0  0  0  0  0  0  0  0  0  0  0
   17.9647  -10.4555    0.0000 H   0  0  0  0  0  0  0  0  0  0  0  0
   19.7192   -9.8854    0.0000 H   0  0  0  0  0  0  0  0  0  0  0  0
   18.3877   -7.8091    0.0000 H   0  0  0  0  0  0  0  0  0  0  0  0
   16.5358  -10.4555    0.0000 H   0  0  0  0  0  0  0  0  0  0  0  0
   25.1002   -9.2108    0.0000 O   0  0  0  0  0  0  0  0  0  0  0  0
   25.9282  -10.6380    0.0000 O   0  0  0  0  0  0  0  0  0  0  0  0
   25.1062  -12.0686    0.0000 O   0  0  0  0  0  0  0  0  0  0  0  0
   23.8702  -12.7857    0.0000 O   0  0  0  0  0  0  0  0  0  0  0  0
   23.4562  -12.0721    0.0000 C   0  0  0  0  0  0  0  0  0  0  0  0
   23.8672  -11.3568    0.0000 C   0  0  2  0  0  0  0  0  0  0  0  0
   24.6922  -11.3550    0.0000 C   0  0  2  0  0  0  0  0  0  0  0  0
   25.1032  -10.6397    0.0000 C   0  0  1  0  0  0  0  0  0  0  0  0
   24.6892   -9.9261    0.0000 C   0  0  2  0  0  0  0  0  0  0  0  0
   23.8642   -9.9278    0.0000 C   0  0  1  0  0  0  0  0  0  0  0  0
   23.4532  -10.6432    0.0000 O   0  0  0  0  0  0  0  0  0  0  0  0
   23.4502   -9.2142    0.0000 O   0  0  0  0  0  0  0  0  0  0  0  0
    9.9951   -9.6172    0.0000 C   0  0  2  0  0  0  0  0  0  0  0  0
    9.5942   -8.8961    0.0000 O   0  0  0  0  0  0  0  0  0  0  0  0
    8.7693   -8.8828    0.0000 C   0  0  1  0  0  0  0  0  0  0  0  0
    8.3453   -9.5905    0.0000 C   0  0  2  0  0  0  0  0  0  0  0  0
    8.7462  -10.3115    0.0000 C   0  0  1  0  0  0  0  0  0  0  0  0
    9.5711  -10.3249    0.0000 C   0  0  1  0  0  0  0  0  0  0  0  0
    8.3684   -8.1617    0.0000 C   0  0  0  0  0  0  0  0  0  0  0  0
    7.5205   -9.5772    0.0000 O   0  0  0  0  0  0  0  0  0  0  0  0
    9.9720  -11.0459    0.0000 O   0  0  0  0  0  0  0  0  0  0  0  0
    8.3223  -11.0193    0.0000 O   0  0  0  0  0  0  0  0  0  0  0  0
    7.5435   -8.1484    0.0000 O   0  0  0  0  0  0  0  0  0  0  0  0
    7.4974  -11.0059    0.0000 C   0  0  2  0  0  0  0  0  0  0  0  0
    7.1020  -10.2818    0.0000 O   0  0  0  0  0  0  0  0  0  0  0  0
    6.2773  -10.2818    0.0000 C   0  0  1  0  0  0  0  0  0  0  0  0
    5.8478  -11.0059    0.0000 C   0  0  2  0  0  0  0  0  0  0  0  0
    6.2432  -11.7300    0.0000 C   0  0  1  0  0  0  0  0  0  0  0  0
    7.0679  -11.7300    0.0000 C   0  0  1  0  0  0  0  0  0  0  0  0
    5.8690   -9.5649    0.0000 C   0  0  0  0  0  0  0  0  0  0  0  0
    5.8222  -12.4395    0.0000 O   0  0  0  0  0  0  0  0  0  0  0  0
    7.4762  -12.4469    0.0000 O   0  0  0  0  0  0  0  0  0  0  0  0
    5.0230  -10.9913    0.0000 O   0  0  0  0  0  0  0  0  0  0  0  0
    5.0440   -9.5601    0.0000 O   0  0  0  0  0  0  0  0  0  0  0  0
    4.6357   -8.8432    0.0000 C   0  0  2  0  0  0  0  0  0  0  0  0
    5.0565   -8.1336    0.0000 O   0  0  0  0  0  0  0  0  0  0  0  0
    4.6357   -7.4144    0.0000 C   0  0  0  0  0  0  0  0  0  0  0  0
    3.8107   -7.4144    0.0000 C   0  0  2  0  0  0  0  0  0  0  0  0
    3.3899   -8.1336    0.0000 C   0  0  1  0  0  0  0  0  0  0  0  0
    3.8107   -8.8432    0.0000 C   0  0  1  0  0  0  0  0  0  0  0  0
    2.5649   -8.1361    0.0000 O   0  0  0  0  0  0  0  0  0  0  0  0
    3.4003   -6.6987    0.0000 O   0  0  0  0  0  0  0  0  0  0  0  0
    3.4024   -9.5601    0.0000 O   0  0  0  0  0  0  0  0  0  0  0  0
    4.3032  -11.3944    0.0000 C   0  0  2  0  0  0  0  0  0  0  0  0
    3.5979  -10.9665    0.0000 O   0  0  0  0  0  0  0  0  0  0  0  0
    2.8746  -11.3634    0.0000 C   0  0  0  0  0  0  0  0  0  0  0  0
    2.8567  -12.1882    0.0000 C   0  0  2  0  0  0  0  0  0  0  0  0
    3.5729  -12.5971    0.0000 C   0  0  1  0  0  0  0  0  0  0  0  0
    4.3070  -12.1812    0.0000 C   0  0  1  0  0  0  0  0  0  0  0  0
    5.0208  -12.5949    0.0000 O   0  0  0  0  0  0  0  0  0  0  0  0
    3.5715  -13.4221    0.0000 O   0  0  0  0  0  0  0  0  0  0  0  0
    2.1387  -12.5946    0.0000 O   0  0  0  0  0  0  0  0  0  0  0  0
 66 68  1  1  0  0  0
 65 57  1  6  0  0  0
 64 58  1  1  0  0  0
 63 59  1  6  0  0  0
 62 61  1  1  0  0  0
 61 60  1  0  0  0  0
 67 62  1  0  0  0  0
 63 62  1  0  0  0  0
 64 63  1  0  0  0  0
 65 64  1  0  0  0  0
 66 65  1  0  0  0  0
 67 66  1  0  0  0  0
  1  2  1  0  0  0  0
  2  3  1  0  0  0  0
  3  4  1  0  0  0  0
  4  5  1  0  0  0  0
  5  6  1  0  0  0  0
  1  6  1  0  0  0  0
  3  7  1  6  0  0  0
  4  8  1  6  0  0  0
  5  9  1  1  0  0  0
  6 10  1  6  0  0  0
 12 13  1  0  0  0  0
 13 14  1  0  0  0  0
 14 15  1  0  0  0  0
 15 16  1  0  0  0  0
 16 17  1  0  0  0  0
 12 17  1  0  0  0  0
 18 19  1  0  0  0  0
 17 18  1  1  0  0  0
 16 20  1  6  0  0  0
 15 21  1  1  0  0  0
 23 24  1  0  0  0  0
 24 25  1  0  0  0  0
 25 26  1  0  0  0  0
 26 27  1  0  0  0  0
 27 28  1  0  0  0  0
 28 29  1  0  0  0  0
 29 30  1  0  0  0  0
 30 31  1  0  0  0  0
 31 32  1  0  0  0  0
 32 33  1  0  0  0  0
 33 34  1  0  0  0  0
 34 35  1  0  0  0  0
 35 36  1  0  0  0  0
 36 37  1  0  0  0  0
 37 38  1  0  0  0  0
 38 39  1  0  0  0  0
 39 40  1  0  0  0  0
 40 41  2  0  0  0  0
 41 42  1  0  0  0  0
 23 42  1  0  0  0  0
 23 34  1  0  0  0  0
 35 40  1  0  0  0  0
 24 31  1  0  0  0  0
 26 30  1  0  0  0  0
 43 44  1  0  0  0  0
 44 45  1  0  0  0  0
 45 46  1  0  0  0  0
 46 68  1  0  0  0  0
 45 47  1  1  0  0  0
 28 43  1  0  0  0  0
 35 48  1  1  0  0  0
 31 49  1  1  0  0  0
 29 50  1  6  0  0  0
 28 51  1  0  0  0  0
 38 22  1  1  0  0  0
 13 22  1  1  0  0  0
 14 11  1  6  0  0  0
  2 11  1  1  0  0  0
 23 52  1  1  0  0  0
 24 53  1  6  0  0  0
 26 54  1  6  0  0  0
 30 55  1  6  0  0  0
 34 56  1  6  0  0  0
 69 20  1  1  0  0  0
 69 70  1  0  0  0  0
 70 71  1  0  0  0  0
 71 72  1  0  0  0  0
 72 73  1  0  0  0  0
 73 74  1  0  0  0  0
 74 69  1  0  0  0  0
 71 75  1  1  0  0  0
 72 76  1  6  0  0  0
 74 77  1  6  0  0  0
 73 78  1  1  0  0  0
 75 79  1  0  0  0  0
 80 78  1  1  0  0  0
 80 81  1  0  0  0  0
 81 82  1  0  0  0  0
 82 83  1  0  0  0  0
 83 84  1  0  0  0  0
 84 85  1  0  0  0  0
 85 80  1  0  0  0  0
 82 86  1  1  0  0  0
 84 87  1  1  0  0  0
 85 88  1  6  0  0  0
 83 89  1  6  0  0  0
 86 90  1  0  0  0  0
 91 90  1  1  0  0  0
 91 92  1  0  0  0  0
 92 93  1  0  0  0  0
 93 94  1  0  0  0  0
 94 95  1  0  0  0  0
 95 96  1  0  0  0  0
 96 91  1  0  0  0  0
 95 97  1  1  0  0  0
 94 98  1  6  0  0  0
 96 99  1  6  0  0  0
100 89  1  1  0  0  0
100101  1  0  0  0  0
101102  1  0  0  0  0
102103  1  0  0  0  0
103104  1  0  0  0  0
104105  1  0  0  0  0
105100  1  0  0  0  0
105106  1  6  0  0  0
104107  1  1  0  0  0
103108  1  6  0  0  0
M  END
>  <cdx:fragmentId>
60899

$$$$
