800032.cdx
  Mrv1902 05222410262D          

 47 53  0  0  0  0            999 V2000
    6.2694  -11.2789    0.0000 H   0  0  0  0  0  0  0  0  0  0  0  0
    8.2818  -10.2189    0.0000 H   0  0  0  0  0  0  0  0  0  0  0  0
   10.1093   -7.8365    0.0000 H   0  0  0  0  0  0  0  0  0  0  0  0
   10.2617   -6.4157    0.0000 H   0  0  0  0  0  0  0  0  0  0  0  0
    7.6731   -7.4421    0.0000 H   0  0  0  0  0  0  0  0  0  0  0  0
    7.4025   -7.7400    0.0000 H   0  0  0  0  0  0  0  0  0  0  0  0
    8.4397   -4.0645    0.0000 C   0  0  0  0  0  0  0  0  0  0  0  0
   10.5298   -6.7482    0.0000 C   0  0  0  0  0  0  0  0  0  0  0  0
    6.2780   -8.8039    0.0000 C   0  0  0  0  0  0  0  0  0  0  0  0
    5.5541  -11.6898    0.0000 O   0  0  0  0  0  0  0  0  0  0  0  0
    4.1269  -10.8617    0.0000 O   0  0  0  0  0  0  0  0  0  0  0  0
    8.7244   -9.7982    0.0000 O   0  0  0  0  0  0  0  0  0  0  0  0
    9.4705   -9.9237    0.0000 O   0  0  0  0  0  0  0  0  0  0  0  0
   10.4432   -8.5909    0.0000 O   0  0  0  0  0  0  0  0  0  0  0  0
   10.4417   -7.5685    0.0000 O   0  0  0  0  0  0  0  0  0  0  0  0
    7.1617   -8.4113    0.0000 C   0  0  0  0  0  0  0  0  0  0  0  0
    6.9884   -9.2179    0.0000 C   0  0  2  0  0  0  0  0  0  0  0  0
    5.7639   -9.5988    0.0000 O   0  0  0  0  0  0  0  0  0  0  0  0
    5.5559  -10.8648    0.0000 C   0  0  1  0  0  0  0  0  0  0  0  0
    4.8423  -10.4508    0.0000 C   0  0  2  0  0  0  0  0  0  0  0  0
    4.8441   -9.6258    0.0000 C   0  0  0  0  0  0  0  0  0  0  0  0
    5.5595   -9.2148    0.0000 C   0  0  0  0  0  0  0  0  0  0  0  0
    6.2730   -9.6289    0.0000 C   0  0  2  0  0  0  0  0  0  0  0  0
    6.2712  -10.4539    0.0000 C   0  0  2  0  0  0  0  0  0  0  0  0
    6.9848  -10.8679    0.0000 C   0  0  0  0  0  0  0  0  0  0  0  0
    7.7002  -10.4570    0.0000 C   0  0  0  0  0  0  0  0  0  0  0  0
    7.7020   -9.6320    0.0000 C   0  0  1  0  0  0  0  0  0  0  0  0
    8.3163   -9.0813    0.0000 C   0  0  1  0  0  0  0  0  0  0  0  0
    9.1365   -9.1693    0.0000 C   0  0  2  0  0  0  0  0  0  0  0  0
    9.6229   -8.5029    0.0000 C   0  0  1  0  0  0  0  0  0  0  0  0
    9.2890   -7.7485    0.0000 C   0  0  2  0  0  0  0  0  0  0  0  0
    9.7754   -7.0821    0.0000 C   0  0  2  0  0  0  0  0  0  0  0  0
    9.4414   -6.3277    0.0000 C   0  0  2  0  0  0  0  0  0  0  0  0
    9.9278   -5.6613    0.0000 C   0  0  0  0  0  0  0  0  0  0  0  0
    9.5939   -4.9069    0.0000 C   0  0  0  0  0  0  0  0  0  0  0  0
    8.7736   -4.8189    0.0000 C   0  0  1  0  0  0  0  0  0  0  0  0
    8.2872   -5.4853    0.0000 C   0  0  0  0  0  0  0  0  0  0  0  0
    8.6211   -6.2397    0.0000 N   0  0  0  0  0  0  0  0  0  0  0  0
    8.1348   -6.9061    0.0000 C   0  0  0  0  0  0  0  0  0  0  0  0
    8.4687   -7.6605    0.0000 C   0  0  1  0  0  0  0  0  0  0  0  0
    7.9823   -8.3269    0.0000 C   0  0  2  0  0  0  0  0  0  0  0  0
    3.4134  -10.4477    0.0000 C   0  0  0  0  0  0  0  0  0  0  0  0
    2.6980  -10.8586    0.0000 C   0  0  0  0  0  0  0  0  0  0  0  0
    3.4151   -9.6227    0.0000 O   0  0  0  0  0  0  0  0  0  0  0  0
    1.9844  -10.4446    0.0000 C   0  0  0  0  0  0  0  0  0  0  0  0
    2.6962  -11.6836    0.0000 C   0  0  0  0  0  0  0  0  0  0  0  0
    1.9894   -9.6196    0.0000 C   0  0  0  0  0  0  0  0  0  0  0  0
 24  1  1  1  0  0  0
 27  2  1  1  0  0  0
 31  3  1  6  0  0  0
 33  4  1  6  0  0  0
 40  5  1  1  0  0  0
 41  6  1  6  0  0  0
 36  7  1  1  0  0  0
 32  8  1  6  0  0  0
 23  9  1  1  0  0  0
 19 10  1  6  0  0  0
 20 11  1  1  0  0  0
 28 12  1  6  0  0  0
 29 13  1  6  0  0  0
 30 14  1  1  0  0  0
 32 15  1  1  0  0  0
 38 33  1  0  0  0  0
 40 31  1  0  0  0  0
 24 19  1  0  0  0  0
 27 17  1  0  0  0  0
 23 17  1  0  0  0  0
 41 28  1  0  0  0  0
 41 16  1  0  0  0  0
 17 16  1  1  0  0  0
 17 18  1  0  0  0  0
 19 18  1  0  0  0  0
 20 19  1  0  0  0  0
 21 20  1  0  0  0  0
 22 21  1  0  0  0  0
 23 22  1  0  0  0  0
 24 23  1  0  0  0  0
 25 24  1  0  0  0  0
 26 25  1  0  0  0  0
 27 26  1  0  0  0  0
 28 27  1  0  0  0  0
 29 28  1  0  0  0  0
 30 29  1  0  0  0  0
 31 30  1  0  0  0  0
 32 31  1  0  0  0  0
 33 32  1  0  0  0  0
 34 33  1  0  0  0  0
 35 34  1  0  0  0  0
 36 35  1  0  0  0  0
 37 36  1  0  0  0  0
 38 37  1  0  0  0  0
 39 38  1  0  0  0  0
 40 39  1  0  0  0  0
 41 40  1  0  0  0  0
 11 42  1  0  0  0  0
 42 43  1  0  0  0  0
 42 44  2  0  0  0  0
 43 45  2  0  0  0  0
 43 46  1  0  0  0  0
 45 47  1  0  0  0  0
M  END
>  <cdx:groupId>
13730

>  <cdx:fragmentId>
13604

$$$$
