800021.cdx
  Mrv1902 05222410272D          

 58 64  0  0  0  0            999 V2000
    7.4638   -9.2642    0.0000 C   0  0  0  0  0  0  0  0  0  0  0  0
    6.7493   -9.6767    0.0000 C   0  0  0  0  0  0  0  0  0  0  0  0
    6.7493  -10.5017    0.0000 C   0  0  1  0  0  0  0  0  0  0  0  0
    7.4638  -10.9142    0.0000 C   0  0  0  0  0  0  0  0  0  0  0  0
    8.1782  -10.5017    0.0000 C   0  0  2  0  0  0  0  0  0  0  0  0
    8.8927  -10.9142    0.0000 C   0  0  0  0  0  0  0  0  0  0  0  0
    9.6072  -10.5017    0.0000 C   0  0  0  0  0  0  0  0  0  0  0  0
    9.6072   -9.6767    0.0000 C   0  0  1  0  0  0  0  0  0  0  0  0
   10.3216   -9.2642    0.0000 C   0  0  2  0  0  0  0  0  0  0  0  0
   11.0361   -9.6767    0.0000 C   0  0  0  0  0  0  0  0  0  0  0  0
   11.7506   -9.2642    0.0000 C   0  0  0  0  0  0  0  0  0  0  0  0
   11.7506   -8.4392    0.0000 C   0  0  1  0  0  0  0  0  0  0  0  0
   12.4651   -8.0267    0.0000 C   0  0  1  0  0  0  0  0  0  0  0  0
   12.4651   -7.2017    0.0000 C   0  0  0  0  0  0  0  0  0  0  0  0
   11.7506   -6.7892    0.0000 C   0  0  0  0  0  0  0  0  0  0  0  0
   11.0361   -7.2017    0.0000 C   0  0  0  0  0  0  0  0  0  0  0  0
   11.0361   -8.0267    0.0000 C   0  0  1  0  0  0  0  0  0  0  0  0
   10.3216   -8.4392    0.0000 C   0  0  0  0  0  0  0  0  0  0  0  0
    9.6072   -8.0267    0.0000 C   0  0  0  0  0  0  0  0  0  0  0  0
    8.8927   -8.4392    0.0000 C   0  0  0  0  0  0  0  0  0  0  0  0
    8.8927   -9.2642    0.0000 C   0  0  2  0  0  0  0  0  0  0  0  0
    8.1782   -9.6767    0.0000 C   0  0  1  0  0  0  0  0  0  0  0  0
    8.1782   -8.8517    0.0000 C   0  0  0  0  0  0  0  0  0  0  0  0
   11.3381   -6.0747    0.0000 C   0  0  0  0  0  0  0  0  0  0  0  0
   12.1631   -6.0747    0.0000 C   0  0  0  0  0  0  0  0  0  0  0  0
   12.4651   -8.8517    0.0000 C   0  0  0  0  0  0  0  0  0  0  0  0
   10.3216  -10.0892    0.0000 C   0  0  0  0  0  0  0  0  0  0  0  0
    9.6072   -8.8517    0.0000 C   0  0  0  0  0  0  0  0  0  0  0  0
    7.8763  -11.6286    0.0000 C   0  0  0  0  0  0  0  0  0  0  0  0
    7.0513  -11.6286    0.0000 C   0  0  0  0  0  0  0  0  0  0  0  0
   13.1795   -8.4392    0.0000 O   0  0  0  0  0  0  0  0  0  0  0  0
    8.1782  -11.3267    0.0000 H   0  0  0  0  0  0  0  0  0  0  0  0
   11.0361   -8.8517    0.0000 H   0  0  0  0  0  0  0  0  0  0  0  0
    8.8927  -10.0892    0.0000 H   0  0  0  0  0  0  0  0  0  0  0  0
    6.0348  -10.9142    0.0000 O   0  0  0  0  0  0  0  0  0  0  0  0
    3.1960   -9.2316    0.0000 O   0  0  0  0  0  0  0  0  0  0  0  0
    3.1771  -10.8815    0.0000 O   0  0  0  0  0  0  0  0  0  0  0  0
    4.5776  -13.3727    0.0000 O   0  0  0  0  0  0  0  0  0  0  0  0
    3.1393  -14.1812    0.0000 O   0  0  0  0  0  0  0  0  0  0  0  0
    1.7199  -13.3399    0.0000 O   0  0  0  0  0  0  0  0  0  0  0  0
    1.0244  -12.1025    0.0000 O   0  0  0  0  0  0  0  0  0  0  0  0
    1.7388  -11.6900    0.0000 C   0  0  0  0  0  0  0  0  0  0  0  0
    2.4485  -12.1107    0.0000 C   0  0  2  0  0  0  0  0  0  0  0  0
    2.4391  -12.9356    0.0000 C   0  0  1  0  0  0  0  0  0  0  0  0
    3.1488  -13.3563    0.0000 C   0  0  1  0  0  0  0  0  0  0  0  0
    3.8679  -12.9520    0.0000 C   0  0  2  0  0  0  0  0  0  0  0  0
    3.8774  -12.1271    0.0000 C   0  0  1  0  0  0  0  0  0  0  0  0
    3.1677  -11.7064    0.0000 O   0  0  0  0  0  0  0  0  0  0  0  0
    4.5965  -11.7228    0.0000 O   0  0  0  0  0  0  0  0  0  0  0  0
    3.9246   -8.0023    0.0000 O   0  0  0  0  0  0  0  0  0  0  0  0
    5.3535   -8.0187    0.0000 O   0  0  0  0  0  0  0  0  0  0  0  0
    4.6343   -8.4230    0.0000 C   0  0  0  0  0  0  0  0  0  0  0  0
    5.3251  -10.4935    0.0000 C   0  0  1  0  0  0  0  0  0  0  0  0
    4.6060  -10.8978    0.0000 C   0  0  1  0  0  0  0  0  0  0  0  0
    3.8963  -10.4772    0.0000 C   0  0  2  0  0  0  0  0  0  0  0  0
    3.9057   -9.6522    0.0000 C   0  0  1  0  0  0  0  0  0  0  0  0
    4.6249   -9.2479    0.0000 C   0  0  2  0  0  0  0  0  0  0  0  0
    5.3346   -9.6686    0.0000 O   0  0  0  0  0  0  0  0  0  0  0  0
 53 35  1  1  0  0  0
 56 36  1  6  0  0  0
 55 37  1  1  0  0  0
 54 49  1  6  0  0  0
 47 49  1  1  0  0  0
 46 38  1  6  0  0  0
 45 39  1  1  0  0  0
 44 40  1  1  0  0  0
 43 42  1  1  0  0  0
 42 41  1  0  0  0  0
 48 43  1  0  0  0  0
 44 43  1  0  0  0  0
 45 44  1  0  0  0  0
 46 45  1  0  0  0  0
 47 46  1  0  0  0  0
 48 47  1  0  0  0  0
 57 52  1  1  0  0  0
 52 50  1  0  0  0  0
 52 51  2  0  0  0  0
 58 53  1  0  0  0  0
 54 53  1  0  0  0  0
 55 54  1  0  0  0  0
 56 55  1  0  0  0  0
 57 56  1  0  0  0  0
 58 57  1  0  0  0  0
  1  2  1  0  0  0  0
  2  3  1  0  0  0  0
  3  4  1  0  0  0  0
  4  5  1  0  0  0  0
  5  6  1  0  0  0  0
  6  7  1  0  0  0  0
  7  8  1  0  0  0  0
  8  9  1  0  0  0  0
  9 10  1  0  0  0  0
 10 11  1  0  0  0  0
 11 12  1  0  0  0  0
 12 13  1  0  0  0  0
 13 14  1  0  0  0  0
 14 15  1  0  0  0  0
 15 16  1  0  0  0  0
 16 17  1  0  0  0  0
 12 17  1  0  0  0  0
 17 18  1  0  0  0  0
  9 18  1  0  0  0  0
 18 19  2  0  0  0  0
 19 20  1  0  0  0  0
 20 21  1  0  0  0  0
  8 21  1  0  0  0  0
 21 22  1  0  0  0  0
  5 22  1  0  0  0  0
  1 22  1  0  0  0  0
 22 23  1  1  0  0  0
 15 24  1  0  0  0  0
 15 25  1  0  0  0  0
 12 26  1  1  0  0  0
  9 27  1  6  0  0  0
  8 28  1  1  0  0  0
  4 29  1  0  0  0  0
  4 30  1  0  0  0  0
 13 31  1  1  0  0  0
  3 35  1  1  0  0  0
  5 32  1  6  0  0  0
 17 33  1  1  0  0  0
 21 34  1  6  0  0  0
M  END
>  <cdx:groupId>
20179

>  <cdx:fragmentId>
20050

$$$$
