800050.cdx
  Mrv1902 05222410232D          

 20 21  0  0  0  0            999 V2000
    6.7068   -5.9384    0.0000 N   0  0  0  0  0  0  0  0  0  0  0  0
    7.4213   -6.3509    0.0000 C   0  0  0  0  0  0  0  0  0  0  0  0
    7.4213   -7.1759    0.0000 C   0  0  1  0  0  0  0  0  0  0  0  0
    6.7068   -7.5884    0.0000 N   0  0  0  0  0  0  0  0  0  0  0  0
    5.9923   -7.1759    0.0000 C   0  0  0  0  0  0  0  0  0  0  0  0
    5.9923   -6.3509    0.0000 C   0  0  2  0  0  0  0  0  0  0  0  0
    8.1357   -5.9384    0.0000 O   0  0  0  0  0  0  0  0  0  0  0  0
    5.2779   -7.5884    0.0000 O   0  0  0  0  0  0  0  0  0  0  0  0
    5.2779   -5.9384    0.0000 C   0  0  0  0  0  0  0  0  0  0  0  0
    4.5634   -6.3509    0.0000 C   0  0  0  0  0  0  0  0  0  0  0  0
    4.5634   -7.1759    0.0000 C   0  0  0  0  0  0  0  0  0  0  0  0
    3.8489   -5.9384    0.0000 C   0  0  0  0  0  0  0  0  0  0  0  0
    8.1357   -7.5884    0.0000 C   0  0  0  0  0  0  0  0  0  0  0  0
    8.8502   -7.1759    0.0000 C   0  0  0  0  0  0  0  0  0  0  0  0
    8.8502   -6.3509    0.0000 C   0  0  0  0  0  0  0  0  0  0  0  0
    9.5647   -5.9384    0.0000 C   0  0  0  0  0  0  0  0  0  0  0  0
   10.2791   -6.3509    0.0000 C   0  0  0  0  0  0  0  0  0  0  0  0
   10.2791   -7.1759    0.0000 C   0  0  0  0  0  0  0  0  0  0  0  0
    9.5647   -7.5884    0.0000 C   0  0  0  0  0  0  0  0  0  0  0  0
   10.9936   -5.9384    0.0000 O   0  0  0  0  0  0  0  0  0  0  0  0
  1  2  1  0  0  0  0
  2  3  1  0  0  0  0
  3  4  1  0  0  0  0
  4  5  1  0  0  0  0
  5  6  1  0  0  0  0
  1  6  1  0  0  0  0
  2  7  2  0  0  0  0
  5  8  2  0  0  0  0
  9 10  1  0  0  0  0
 10 11  1  0  0  0  0
 10 12  1  0  0  0  0
  6  9  1  6  0  0  0
 14 15  1  0  0  0  0
 15 16  2  0  0  0  0
 16 17  1  0  0  0  0
 17 18  2  0  0  0  0
 18 19  1  0  0  0  0
 14 19  2  0  0  0  0
 17 20  1  0  0  0  0
 13 14  1  0  0  0  0
  3 13  1  6  0  0  0
M  END
>  <cdx:fragmentId>
113898

$$$$
