800023.cdx
  Mrv1902 05222410282D          

 26 28  0  0  0  0            999 V2000
    9.6751   -9.3082    0.0000 C   0  0  1  0  0  0  0  0  0  0  0  0
    9.6751   -8.4832    0.0000 C   0  0  0  0  0  0  0  0  0  0  0  0
    8.9607   -8.0707    0.0000 C   0  0  0  0  0  0  0  0  0  0  0  0
    8.2462   -8.4832    0.0000 C   0  0  0  0  0  0  0  0  0  0  0  0
    8.2462   -9.3082    0.0000 C   0  0  1  0  0  0  0  0  0  0  0  0
    7.5317   -9.7207    0.0000 C   0  0  2  0  0  0  0  0  0  0  0  0
    6.8172   -9.3082    0.0000 C   0  0  0  0  0  0  0  0  0  0  0  0
    6.1028   -9.7207    0.0000 C   0  0  0  0  0  0  0  0  0  0  0  0
    6.1028  -10.5457    0.0000 C   0  0  2  0  0  0  0  0  0  0  0  0
    6.8172  -10.9582    0.0000 C   0  0  0  0  0  0  0  0  0  0  0  0
    7.5317  -10.5457    0.0000 C   0  0  0  0  0  0  0  0  0  0  0  0
    8.2462  -10.9582    0.0000 C   0  0  0  0  0  0  0  0  0  0  0  0
    8.9607  -10.5457    0.0000 C   0  0  0  0  0  0  0  0  0  0  0  0
    8.9607   -9.7207    0.0000 C   0  0  2  0  0  0  0  0  0  0  0  0
    8.9607   -7.2457    0.0000 O   0  0  0  0  0  0  0  0  0  0  0  0
    6.1028  -11.3707    0.0000 C   0  0  0  0  0  0  0  0  0  0  0  0
    8.2462  -10.1332    0.0000 C   0  0  0  0  0  0  0  0  0  0  0  0
   10.0876  -10.0226    0.0000 C   0  0  0  0  0  0  0  0  0  0  0  0
   10.5001   -9.3082    0.0000 C   0  0  0  0  0  0  0  0  0  0  0  0
   10.9126  -10.0226    0.0000 O   0  0  0  0  0  0  0  0  0  0  0  0
    5.3883  -10.9582    0.0000 C   0  0  0  0  0  0  0  0  0  0  0  0
    4.6738  -10.5457    0.0000 C   0  0  0  0  0  0  0  0  0  0  0  0
    3.9594  -10.9582    0.0000 O   0  0  0  0  0  0  0  0  0  0  0  0
    5.3883  -11.7832    0.0000 O   0  0  0  0  0  0  0  0  0  0  0  0
    7.5317   -8.8957    0.0000 H   0  0  0  0  0  0  0  0  0  0  0  0
    8.9607   -8.8957    0.0000 H   0  0  0  0  0  0  0  0  0  0  0  0
  1  2  1  0  0  0  0
  2  3  1  0  0  0  0
  3  4  1  0  0  0  0
  4  5  1  0  0  0  0
  5  6  1  0  0  0  0
  6  7  1  0  0  0  0
  7  8  1  0  0  0  0
  8  9  1  0  0  0  0
  9 10  1  0  0  0  0
 10 11  2  0  0  0  0
  6 11  1  0  0  0  0
 11 12  1  0  0  0  0
 12 13  1  0  0  0  0
 13 14  1  0  0  0  0
  1 14  1  0  0  0  0
  5 14  1  0  0  0  0
  3 15  2  0  0  0  0
  9 16  1  6  0  0  0
  5 17  1  1  0  0  0
  1 18  1  6  0  0  0
 19 20  1  0  0  0  0
  1 19  1  1  0  0  0
 21 22  1  0  0  0  0
 22 23  1  0  0  0  0
 21 24  1  0  0  0  0
  9 21  1  0  0  0  0
  6 25  1  6  0  0  0
 14 26  1  6  0  0  0
M  END
>  <cdx:groupId>
69608

>  <cdx:fragmentId>
69531

$$$$
