800004.cdx
  Mrv1902 05222410182D          

 12 13  0  0  0  0            999 V2000
    8.3758   -8.4763    0.0000 H   0  0  0  0  0  0  0  0  0  0  0  0
    8.3450   -6.2225    0.0000 H   0  0  0  0  0  0  0  0  0  0  0  0
    5.7934   -6.5594    0.0000 C   0  0  0  0  0  0  0  0  0  0  0  0
    9.3711   -6.9230    0.0000 C   0  0  0  0  0  0  0  0  0  0  0  0
    9.3823   -7.7480    0.0000 C   0  0  0  0  0  0  0  0  0  0  0  0
    8.6623   -7.3453    0.0000 C   0  0  0  0  0  0  0  0  0  0  0  0
    7.9535   -7.7675    0.0000 C   0  0  1  0  0  0  0  0  0  0  0  0
    7.2448   -8.1897    0.0000 C   0  0  0  0  0  0  0  0  0  0  0  0
    6.5247   -7.7870    0.0000 C   0  0  0  0  0  0  0  0  0  0  0  0
    6.5134   -6.9621    0.0000 C   0  0  1  0  0  0  0  0  0  0  0  0
    7.2222   -6.5399    0.0000 C   0  0  0  0  0  0  0  0  0  0  0  0
    7.9423   -6.9426    0.0000 C   0  0  1  0  0  0  0  0  0  0  0  0
  7  1  1  6  0  0  0
 12  2  1  6  0  0  0
 10  3  1  6  0  0  0
  6  4  1  0  0  0  0
  6  5  1  0  0  0  0
 12  7  1  0  0  0  0
 12  6  1  0  0  0  0
  7  6  1  0  0  0  0
  8  7  1  0  0  0  0
  9  8  1  0  0  0  0
 10  9  1  0  0  0  0
 11 10  1  0  0  0  0
 12 11  1  0  0  0  0
M  END
>  <cdx:fragmentId>
87903

$$$$
