15098566.cdx
  Mrv1902 05222410192D          

 21 22  0  0  0  0            999 V2000
    6.1965  -14.1740    0.0000 O   0  0  0  0  0  0  0  0  0  0  0  0
    6.9110  -14.5865    0.0000 C   0  0  2  0  0  0  0  0  0  0  0  0
    6.9110  -15.4115    0.0000 C   0  0  1  0  0  0  0  0  0  0  0  0
    6.1965  -15.8240    0.0000 C   0  0  2  0  0  0  0  0  0  0  0  0
    5.4821  -15.4115    0.0000 C   0  0  1  0  0  0  0  0  0  0  0  0
    5.4821  -14.5865    0.0000 C   0  0  1  0  0  0  0  0  0  0  0  0
    7.6255  -15.8240    0.0000 O   0  0  0  0  0  0  0  0  0  0  0  0
    6.1965  -16.6490    0.0000 O   0  0  0  0  0  0  0  0  0  0  0  0
    4.7676  -15.8240    0.0000 O   0  0  0  0  0  0  0  0  0  0  0  0
    4.7676  -14.1740    0.0000 C   0  0  0  0  0  0  0  0  0  0  0  0
    4.0531  -14.5865    0.0000 O   0  0  0  0  0  0  0  0  0  0  0  0
    7.6255  -14.1740    0.0000 O   0  0  0  0  0  0  0  0  0  0  0  0
    8.3400  -14.5865    0.0000 C   0  0  0  0  0  0  0  0  0  0  0  0
    9.0544  -14.1740    0.0000 C   0  0  0  0  0  0  0  0  0  0  0  0
    9.7689  -14.5865    0.0000 C   0  0  0  0  0  0  0  0  0  0  0  0
    9.7689  -15.4115    0.0000 C   0  0  0  0  0  0  0  0  0  0  0  0
    9.0544  -15.8240    0.0000 C   0  0  0  0  0  0  0  0  0  0  0  0
    8.3400  -15.4115    0.0000 C   0  0  0  0  0  0  0  0  0  0  0  0
    9.0544  -13.3490    0.0000 O   0  0  0  0  0  0  0  0  0  0  0  0
    9.7689  -12.9365    0.0000 C   0  0  0  0  0  0  0  0  0  0  0  0
   10.4834  -15.8240    0.0000 O   0  0  0  0  0  0  0  0  0  0  0  0
  1  2  1  0  0  0  0
  2  3  1  0  0  0  0
  3  4  1  0  0  0  0
  4  5  1  0  0  0  0
  5  6  1  0  0  0  0
  1  6  1  0  0  0  0
  3  7  1  6  0  0  0
  4  8  1  1  0  0  0
  5  9  1  6  0  0  0
 10 11  1  0  0  0  0
  6 10  1  1  0  0  0
 13 14  1  0  0  0  0
 14 15  2  0  0  0  0
 15 16  1  0  0  0  0
 16 17  2  0  0  0  0
 17 18  1  0  0  0  0
 13 18  2  0  0  0  0
 12 13  1  0  0  0  0
 19 20  1  0  0  0  0
 14 19  1  0  0  0  0
 16 21  1  0  0  0  0
  2 12  1  1  0  0  0
M  END
>  <cdx:groupId>
110740

>  <cdx:fragmentId>
110679

$$$$
