102004807.cdx
  Mrv1902 05222410262D          

 47 51  0  0  0  0            999 V2000
   14.7900   -8.3825    0.0000 C   0  0  0  0  0  0  0  0  0  0  0  0
   14.0756   -7.9700    0.0000 C   0  0  0  0  0  0  0  0  0  0  0  0
   13.3611   -8.3825    0.0000 C   0  0  0  0  0  0  0  0  0  0  0  0
   13.3611   -9.2075    0.0000 C   0  0  0  0  0  0  0  0  0  0  0  0
   14.7900   -9.2075    0.0000 O   0  0  0  0  0  0  0  0  0  0  0  0
   15.5045   -7.9700    0.0000 O   0  0  0  0  0  0  0  0  0  0  0  0
   14.0756   -7.1450    0.0000 C   0  0  0  0  0  0  0  0  0  0  0  0
   11.4472   -9.3650    0.0000 C   0  0  0  0  0  0  0  0  0  0  0  0
   11.9322  -10.0325    0.0000 C   0  0  2  0  0  0  0  0  0  0  0  0
   11.2177   -9.6200    0.0000 O   0  0  0  0  0  0  0  0  0  0  0  0
   10.5032  -10.0325    0.0000 C   0  0  0  0  0  0  0  0  0  0  0  0
    9.7887   -9.6200    0.0000 C   0  0  0  0  0  0  0  0  0  0  0  0
    9.0743  -10.0325    0.0000 C   0  0  0  0  0  0  0  0  0  0  0  0
    9.0743  -10.8575    0.0000 C   0  0  0  0  0  0  0  0  0  0  0  0
    9.7887  -11.2700    0.0000 C   0  0  0  0  0  0  0  0  0  0  0  0
   10.5032  -10.8575    0.0000 C   0  0  0  0  0  0  0  0  0  0  0  0
   11.2177  -11.2700    0.0000 C   0  0  0  0  0  0  0  0  0  0  0  0
   11.9322  -10.8575    0.0000 C   0  0  0  0  0  0  0  0  0  0  0  0
   12.6466  -11.2700    0.0000 C   0  0  0  0  0  0  0  0  0  0  0  0
   13.3611  -10.8575    0.0000 C   0  0  1  0  0  0  0  0  0  0  0  0
   13.3611  -10.0325    0.0000 C   0  0  0  0  0  0  0  0  0  0  0  0
   12.6466   -9.6200    0.0000 C   0  0  0  0  0  0  0  0  0  0  0  0
   12.6169   -8.7955    0.0000 O   0  0  0  0  0  0  0  0  0  0  0  0
   11.8100   -8.6240    0.0000 C   0  0  0  0  0  0  0  0  0  0  0  0
   12.3102   -9.3462    0.0000 C   0  0  0  0  0  0  0  0  0  0  0  0
   14.0756   -9.6200    0.0000 O   0  0  0  0  0  0  0  0  0  0  0  0
   11.2177  -12.0950    0.0000 O   0  0  0  0  0  0  0  0  0  0  0  0
    9.7887   -8.7950    0.0000 C   0  0  0  0  0  0  0  0  0  0  0  0
    9.0743   -8.3825    0.0000 C   0  0  0  0  0  0  0  0  0  0  0  0
    9.0743   -7.5575    0.0000 C   0  0  0  0  0  0  0  0  0  0  0  0
    9.7887   -7.1450    0.0000 C   0  0  0  0  0  0  0  0  0  0  0  0
    8.3598   -7.1450    0.0000 C   0  0  0  0  0  0  0  0  0  0  0  0
   11.0955   -8.2115    0.0000 C   0  0  0  0  0  0  0  0  0  0  0  0
   11.8100   -7.7990    0.0000 C   0  0  0  0  0  0  0  0  0  0  0  0
    9.7887  -12.0950    0.0000 O   0  0  0  0  0  0  0  0  0  0  0  0
    8.3598   -9.6200    0.0000 O   0  0  0  0  0  0  0  0  0  0  0  0
    8.3598  -11.2700    0.0000 C   0  0  0  0  0  0  0  0  0  0  0  0
    7.6453  -10.8575    0.0000 C   0  0  0  0  0  0  0  0  0  0  0  0
    6.9309  -11.2700    0.0000 C   0  0  0  0  0  0  0  0  0  0  0  0
    6.2164  -10.8575    0.0000 C   0  0  0  0  0  0  0  0  0  0  0  0
    5.5019  -11.2700    0.0000 C   0  0  0  0  0  0  0  0  0  0  0  0
    4.7875  -10.8575    0.0000 C   0  0  0  0  0  0  0  0  0  0  0  0
    4.0730  -11.2700    0.0000 C   0  0  0  0  0  0  0  0  0  0  0  0
    4.0730  -12.0950    0.0000 C   0  0  0  0  0  0  0  0  0  0  0  0
    3.3585  -10.8575    0.0000 C   0  0  0  0  0  0  0  0  0  0  0  0
    6.9309  -12.0950    0.0000 C   0  0  0  0  0  0  0  0  0  0  0  0
   14.0756  -11.2700    0.0000 H   0  0  0  0  0  0  0  0  0  0  0  0
  1  2  1  0  0  0  0
  2  3  2  0  0  0  0
  3  4  1  0  0  0  0
  1  5  2  0  0  0  0
  1  6  1  0  0  0  0
  2  7  1  0  0  0  0
  8  9  1  0  0  0  0
  9 10  1  6  0  0  0
 10 11  1  0  0  0  0
 11 12  2  0  0  0  0
 12 13  1  0  0  0  0
 13 14  2  0  0  0  0
 14 15  1  0  0  0  0
 15 16  2  0  0  0  0
 16 17  1  0  0  0  0
 17 18  1  0  0  0  0
 18 19  2  0  0  0  0
 19 20  1  0  0  0  0
 20 21  1  0  0  0  0
 21 22  1  0  0  0  0
 22 23  1  0  0  0  0
 23 24  1  0  0  0  0
  8 24  1  0  0  0  0
  8 25  1  0  0  0  0
 20 25  1  1  0  0  0
  9 22  1  0  0  0  0
  9 18  1  0  0  0  0
 11 16  1  0  0  0  0
 21 26  2  0  0  0  0
 17 27  2  0  0  0  0
 28 29  1  0  0  0  0
 29 30  2  0  0  0  0
 30 31  1  0  0  0  0
 30 32  1  0  0  0  0
 12 28  1  0  0  0  0
 24 33  1  0  0  0  0
 24 34  1  0  0  0  0
 15 35  1  0  0  0  0
 13 36  1  0  0  0  0
 37 38  1  0  0  0  0
 38 39  2  0  0  0  0
 39 40  1  0  0  0  0
 40 41  1  0  0  0  0
 41 42  1  0  0  0  0
 42 43  2  0  0  0  0
 43 44  1  0  0  0  0
 43 45  1  0  0  0  0
 39 46  1  0  0  0  0
 14 37  1  0  0  0  0
  4 22  1  0  0  0  0
 20 47  1  0  0  0  0
M  END
>  <cdx:groupId>
3988

>  <cdx:fragmentId>
3860

$$$$
