800013.cdx
  Mrv1902 05222410182D          

 41 45  0  0  0  0            999 V2000
    7.2007   -8.1889    0.0000 C   0  0  2  0  0  0  0  0  0  0  0  0
    7.9152   -7.7764    0.0000 C   0  0  1  0  0  0  0  0  0  0  0  0
    8.6302   -8.1880    0.0000 C   0  0  2  0  0  0  0  0  0  0  0  0
    8.6300   -9.0130    0.0000 C   0  0  0  0  0  0  0  0  0  0  0  0
    7.9156   -9.4257    0.0000 O   0  0  0  0  0  0  0  0  0  0  0  0
    7.2007   -9.0139    0.0000 C   0  0  2  0  0  0  0  0  0  0  0  0
    6.4863   -9.4264    0.0000 C   0  0  0  0  0  0  0  0  0  0  0  0
    5.7718   -9.0139    0.0000 C   0  0  1  0  0  0  0  0  0  0  0  0
    5.0573   -9.4264    0.0000 C   0  0  0  0  0  0  0  0  0  0  0  0
    4.3429   -9.0139    0.0000 C   0  0  0  0  0  0  0  0  0  0  0  0
    4.3429   -8.1889    0.0000 C   0  0  0  0  0  0  0  0  0  0  0  0
    5.0573   -7.7764    0.0000 C   0  0  0  0  0  0  0  0  0  0  0  0
    5.7718   -8.1889    0.0000 C   0  0  2  0  0  0  0  0  0  0  0  0
    6.4863   -7.7764    0.0000 C   0  0  1  0  0  0  0  0  0  0  0  0
    6.4863   -6.9514    0.0000 C   0  0  2  0  0  0  0  0  0  0  0  0
    7.2007   -6.5389    0.0000 C   0  0  1  0  0  0  0  0  0  0  0  0
    7.9152   -6.9514    0.0000 C   0  0  1  0  0  0  0  0  0  0  0  0
    7.2358   -6.9926    0.0000 O   0  0  0  0  0  0  0  0  0  0  0  0
    6.8955   -7.5820    0.0000 C   0  0  0  0  0  0  0  0  0  0  0  0
    8.6297   -6.5389    0.0000 C   0  0  0  0  0  0  0  0  0  0  0  0
    8.6297   -5.7139    0.0000 O   0  0  0  0  0  0  0  0  0  0  0  0
    9.3442   -6.9514    0.0000 O   0  0  0  0  0  0  0  0  0  0  0  0
    3.6284   -7.7764    0.0000 O   0  0  0  0  0  0  0  0  0  0  0  0
    9.3444   -9.4255    0.0000 O   0  0  0  0  0  0  0  0  0  0  0  0
    9.3447   -7.7755    0.0000 O   0  0  0  0  0  0  0  0  0  0  0  0
   10.0592   -8.1880    0.0000 C   0  0  0  0  0  0  0  0  0  0  0  0
   10.7736   -7.7755    0.0000 C   0  0  0  0  0  0  0  0  0  0  0  0
   11.4881   -8.1880    0.0000 C   0  0  0  0  0  0  0  0  0  0  0  0
   12.2026   -7.7755    0.0000 C   0  0  0  0  0  0  0  0  0  0  0  0
   10.0592   -9.0130    0.0000 O   0  0  0  0  0  0  0  0  0  0  0  0
   11.4881   -9.0130    0.0000 C   0  0  0  0  0  0  0  0  0  0  0  0
    5.7718   -7.3639    0.0000 C   0  0  0  0  0  0  0  0  0  0  0  0
    5.0573  -10.2514    0.0000 C   0  0  0  0  0  0  0  0  0  0  0  0
    7.2007   -5.7139    0.0000 O   0  0  0  0  0  0  0  0  0  0  0  0
    5.7718   -6.5389    0.0000 O   0  0  0  0  0  0  0  0  0  0  0  0
    3.6284   -9.4264    0.0000 O   0  0  0  0  0  0  0  0  0  0  0  0
    8.6297   -7.3639    0.0000 H   0  0  0  0  0  0  0  0  0  0  0  0
    7.2007   -9.8389    0.0000 H   0  0  0  0  0  0  0  0  0  0  0  0
    5.7718   -9.8389    0.0000 H   0  0  0  0  0  0  0  0  0  0  0  0
    6.4863   -8.6014    0.0000 H   0  0  0  0  0  0  0  0  0  0  0  0
   10.0586   -6.5389    0.0000 C   0  0  0  0  0  0  0  0  0  0  0  0
  1  2  1  0  0  0  0
  2  3  1  0  0  0  0
  3  4  1  0  0  0  0
  4  5  1  0  0  0  0
  5  6  1  0  0  0  0
  6  7  1  0  0  0  0
  7  8  1  0  0  0  0
  8  9  1  0  0  0  0
  9 10  2  0  0  0  0
 10 11  1  0  0  0  0
 11 12  1  0  0  0  0
 12 13  1  0  0  0  0
 13 14  1  0  0  0  0
 14 15  1  0  0  0  0
 15 16  1  0  0  0  0
 16 17  1  0  0  0  0
 17 18  1  0  0  0  0
 18 19  1  0  0  0  0
  1 19  1  1  0  0  0
  1 14  1  0  0  0  0
  2 17  1  0  0  0  0
  8 13  1  0  0  0  0
  1  6  1  0  0  0  0
 20 21  2  0  0  0  0
 20 22  1  0  0  0  0
 17 20  1  1  0  0  0
 11 23  2  0  0  0  0
  4 24  2  0  0  0  0
 26 27  1  0  0  0  0
 27 28  2  0  0  0  0
 28 29  1  0  0  0  0
 26 30  2  0  0  0  0
 25 26  1  0  0  0  0
 28 31  1  0  0  0  0
  3 25  1  1  0  0  0
 13 32  1  1  0  0  0
  9 33  1  0  0  0  0
 16 34  1  6  0  0  0
 15 35  1  1  0  0  0
 10 36  1  0  0  0  0
  2 37  1  1  0  0  0
  6 38  1  1  0  0  0
  8 39  1  6  0  0  0
 14 40  1  6  0  0  0
 22 41  1  0  0  0  0
M  END
>  <cdx:fragmentId>
21910

$$$$
