800043.cdx
  Mrv1902 05222410242D          

 56 60  0  0  0  0            999 V2000
   10.9924   -6.3382    0.0000 C   0  0  0  0  0  0  0  0  0  0  0  0
   11.7005   -5.9149    0.0000 C   0  0  0  0  0  0  0  0  0  0  0  0
   12.4212   -6.3166    0.0000 C   0  0  2  0  0  0  0  0  0  0  0  0
   12.4337   -7.1415    0.0000 C   0  0  2  0  0  0  0  0  0  0  0  0
   11.7255   -7.5647    0.0000 C   0  0  1  0  0  0  0  0  0  0  0  0
   11.0049   -7.1631    0.0000 O   0  0  0  0  0  0  0  0  0  0  0  0
   11.6880   -5.0900    0.0000 C   0  0  0  0  0  0  0  0  0  0  0  0
   13.1293   -5.8933    0.0000 C   0  0  0  0  0  0  0  0  0  0  0  0
   13.1168   -5.0684    0.0000 C   0  0  0  0  0  0  0  0  0  0  0  0
   12.3962   -4.6668    0.0000 O   0  0  0  0  0  0  0  0  0  0  0  0
   10.9674   -4.6884    0.0000 O   0  0  0  0  0  0  0  0  0  0  0  0
   13.1418   -6.7182    0.0000 O   0  0  0  0  0  0  0  0  0  0  0  0
   13.1543   -7.5431    0.0000 C   0  0  0  0  0  0  0  0  0  0  0  0
   13.1668   -8.3680    0.0000 C   0  0  0  0  0  0  0  0  0  0  0  0
    8.8652  -10.8473    0.0000 C   0  0  0  0  0  0  0  0  0  0  0  0
    9.5721  -12.0891    0.0000 O   0  0  0  0  0  0  0  0  0  0  0  0
    9.5772  -11.2641    0.0000 C   0  0  0  0  0  0  0  0  0  0  0  0
   10.2941  -10.8559    0.0000 O   0  0  0  0  0  0  0  0  0  0  0  0
   12.4350  -11.2814    0.0000 C   0  0  0  0  0  0  0  0  0  0  0  0
   11.0061  -11.2728    0.0000 O   0  0  0  0  0  0  0  0  0  0  0  0
   11.7230  -10.8646    0.0000 C   0  0  0  0  0  0  0  0  0  0  0  0
   11.7280  -10.0396    0.0000 O   0  0  0  0  0  0  0  0  0  0  0  0
    7.4563   -7.5387    0.0000 C   0  0  0  0  0  0  0  0  0  0  0  0
    8.1783   -6.3055    0.0000 O   0  0  0  0  0  0  0  0  0  0  0  0
    8.1733   -7.1305    0.0000 C   0  0  0  0  0  0  0  0  0  0  0  0
    8.8852   -7.5473    0.0000 O   0  0  0  0  0  0  0  0  0  0  0  0
    8.8802   -8.3723    0.0000 C   0  0  0  0  0  0  0  0  0  0  0  0
   11.7380   -8.3896    0.0000 O   0  0  0  0  0  0  0  0  0  0  0  0
   11.0211   -8.7978    0.0000 C   0  0  1  0  0  0  0  0  0  0  0  0
   11.0161   -9.6228    0.0000 C   0  0  1  0  0  0  0  0  0  0  0  0
   10.2991  -10.0310    0.0000 C   0  0  2  0  0  0  0  0  0  0  0  0
    9.5872   -9.6141    0.0000 C   0  0  1  0  0  0  0  0  0  0  0  0
    9.5922   -8.7891    0.0000 C   0  0  2  0  0  0  0  0  0  0  0  0
   10.3091   -8.3810    0.0000 O   0  0  0  0  0  0  0  0  0  0  0  0
    6.7343   -8.7718    0.0000 O   0  0  0  0  0  0  0  0  0  0  0  0
    5.2904  -11.2381    0.0000 O   0  0  0  0  0  0  0  0  0  0  0  0
    3.8565  -12.0544    0.0000 O   0  0  0  0  0  0  0  0  0  0  0  0
    2.4326  -11.2208    0.0000 O   0  0  0  0  0  0  0  0  0  0  0  0
    1.7256   -9.9789    0.0000 O   0  0  0  0  0  0  0  0  0  0  0  0
    2.4426   -9.5708    0.0000 C   0  0  0  0  0  0  0  0  0  0  0  0
    3.1545   -9.9876    0.0000 C   0  0  2  0  0  0  0  0  0  0  0  0
    3.1495  -10.8126    0.0000 C   0  0  2  0  0  0  0  0  0  0  0  0
    3.8615  -11.2294    0.0000 C   0  0  1  0  0  0  0  0  0  0  0  0
    4.5785  -10.8213    0.0000 C   0  0  2  0  0  0  0  0  0  0  0  0
    4.5835   -9.9963    0.0000 C   0  0  1  0  0  0  0  0  0  0  0  0
    3.8715   -9.5795    0.0000 O   0  0  0  0  0  0  0  0  0  0  0  0
    5.3004   -9.5881    0.0000 O   0  0  0  0  0  0  0  0  0  0  0  0
    8.8702  -10.0223    0.0000 O   0  0  0  0  0  0  0  0  0  0  0  0
    8.1633   -8.7805    0.0000 O   0  0  0  0  0  0  0  0  0  0  0  0
    7.4363  -10.8386    0.0000 C   0  0  0  0  0  0  0  0  0  0  0  0
    6.7193  -11.2468    0.0000 C   0  0  0  0  0  0  0  0  0  0  0  0
    6.0074  -10.8299    0.0000 C   0  0  0  0  0  0  0  0  0  0  0  0
    6.0124  -10.0049    0.0000 C   0  0  0  0  0  0  0  0  0  0  0  0
    6.7293   -9.5968    0.0000 C   0  0  0  0  0  0  0  0  0  0  0  0
    7.4413  -10.0136    0.0000 C   0  0  0  0  0  0  0  0  0  0  0  0
    8.1582   -9.6055    0.0000 C   0  0  0  0  0  0  0  0  0  0  0  0
 32 48  1  6  0  0  0
 31 18  1  1  0  0  0
 18 17  1  0  0  0  0
 17 15  1  0  0  0  0
 17 16  2  0  0  0  0
 30 22  1  6  0  0  0
 22 21  1  0  0  0  0
 21 19  1  0  0  0  0
 21 20  2  0  0  0  0
 33 27  1  1  0  0  0
 27 26  1  0  0  0  0
 26 25  1  0  0  0  0
 25 23  1  0  0  0  0
 25 24  2  0  0  0  0
 29 28  1  1  0  0  0
 34 29  1  0  0  0  0
 30 29  1  0  0  0  0
 31 30  1  0  0  0  0
 32 31  1  0  0  0  0
 33 32  1  0  0  0  0
 34 33  1  0  0  0  0
 54 35  1  0  0  0  0
 53 47  1  0  0  0  0
 45 47  1  1  0  0  0
 44 36  1  6  0  0  0
 43 37  1  1  0  0  0
 42 38  1  6  0  0  0
 41 40  1  1  0  0  0
 40 39  1  0  0  0  0
 46 41  1  0  0  0  0
 42 41  1  0  0  0  0
 43 42  1  0  0  0  0
 44 43  1  0  0  0  0
 45 44  1  0  0  0  0
 46 45  1  0  0  0  0
 56 48  1  0  0  0  0
 56 49  2  0  0  0  0
 55 50  2  0  0  0  0
 51 50  1  0  0  0  0
 52 51  2  0  0  0  0
 53 52  1  0  0  0  0
 54 53  2  0  0  0  0
 55 54  1  0  0  0  0
 56 55  1  0  0  0  0
  1  2  2  0  0  0  0
  2  3  1  0  0  0  0
  3  4  1  0  0  0  0
  4  5  1  0  0  0  0
  5  6  1  0  0  0  0
  1  6  1  0  0  0  0
  8  9  1  0  0  0  0
  9 10  1  0  0  0  0
  7 10  1  0  0  0  0
  7  2  1  0  0  0  0
  8  3  1  0  0  0  0
  7 11  2  0  0  0  0
  3 12  1  6  0  0  0
 13 14  2  0  0  0  0
  4 13  1  1  0  0  0
  5 28  1  6  0  0  0
M  END
>  <cdx:fragmentId>
176199

$$$$
