800080.cdx
  Mrv1902 05222410242D          

 70 77  0  0  0  0            999 V2000
    8.6737   -9.9499    0.0000 O   0  0  0  0  0  0  0  0  0  0  0  0
   10.1026   -8.2999    0.0000 C   0  0  0  0  0  0  0  0  0  0  0  0
    9.3881   -8.7124    0.0000 C   0  0  0  0  0  0  0  0  0  0  0  0
    9.3881   -9.5374    0.0000 C   0  0  1  0  0  0  0  0  0  0  0  0
   10.1026   -9.9499    0.0000 C   0  0  0  0  0  0  0  0  0  0  0  0
   10.8171   -9.5374    0.0000 C   0  0  2  0  0  0  0  0  0  0  0  0
   11.5315   -9.9499    0.0000 C   0  0  0  0  0  0  0  0  0  0  0  0
   12.2460   -9.5374    0.0000 C   0  0  0  0  0  0  0  0  0  0  0  0
   12.2460   -8.7124    0.0000 C   0  0  1  0  0  0  0  0  0  0  0  0
   12.9605   -8.2999    0.0000 C   0  0  2  0  0  0  0  0  0  0  0  0
   13.6750   -8.7124    0.0000 C   0  0  0  0  0  0  0  0  0  0  0  0
   14.3894   -8.2999    0.0000 C   0  0  0  0  0  0  0  0  0  0  0  0
   14.3894   -7.4749    0.0000 C   0  0  1  0  0  0  0  0  0  0  0  0
   15.1039   -7.0624    0.0000 C   0  0  0  0  0  0  0  0  0  0  0  0
   15.1039   -6.2374    0.0000 C   0  0  0  0  0  0  0  0  0  0  0  0
   14.3894   -5.8249    0.0000 C   0  0  0  0  0  0  0  0  0  0  0  0
   13.6750   -6.2374    0.0000 C   0  0  0  0  0  0  0  0  0  0  0  0
   13.6750   -7.0624    0.0000 C   0  0  1  0  0  0  0  0  0  0  0  0
   12.9605   -7.4749    0.0000 C   0  0  0  0  0  0  0  0  0  0  0  0
   12.2460   -7.0624    0.0000 C   0  0  0  0  0  0  0  0  0  0  0  0
   11.5315   -7.4749    0.0000 C   0  0  0  0  0  0  0  0  0  0  0  0
   11.5315   -8.2999    0.0000 C   0  0  2  0  0  0  0  0  0  0  0  0
   10.8171   -8.7124    0.0000 C   0  0  1  0  0  0  0  0  0  0  0  0
   15.1039   -7.8874    0.0000 C   0  0  0  0  0  0  0  0  0  0  0  0
   15.1039   -8.7124    0.0000 O   0  0  0  0  0  0  0  0  0  0  0  0
   10.8171   -7.8874    0.0000 C   0  0  0  0  0  0  0  0  0  0  0  0
   13.9769   -5.1105    0.0000 C   0  0  0  0  0  0  0  0  0  0  0  0
   14.8019   -5.1105    0.0000 C   0  0  0  0  0  0  0  0  0  0  0  0
   12.9605   -9.1249    0.0000 C   0  0  0  0  0  0  0  0  0  0  0  0
   12.2460   -7.8874    0.0000 C   0  0  0  0  0  0  0  0  0  0  0  0
   10.5151  -10.6644    0.0000 C   0  0  0  0  0  0  0  0  0  0  0  0
    9.6901  -10.6644    0.0000 C   0  0  0  0  0  0  0  0  0  0  0  0
   10.8171  -10.3624    0.0000 H   0  0  0  0  0  0  0  0  0  0  0  0
   12.9605   -6.6499    0.0000 H   0  0  0  0  0  0  0  0  0  0  0  0
   11.5315   -9.1249    0.0000 H   0  0  0  0  0  0  0  0  0  0  0  0
   17.2357   -6.6301    0.0000 O   0  0  0  0  0  0  0  0  0  0  0  0
   18.6760   -7.4351    0.0000 O   0  0  0  0  0  0  0  0  0  0  0  0
   18.6990   -9.0849    0.0000 O   0  0  0  0  0  0  0  0  0  0  0  0
   18.0018  -10.3323    0.0000 O   0  0  0  0  0  0  0  0  0  0  0  0
   17.2817   -9.9298    0.0000 C   0  0  0  0  0  0  0  0  0  0  0  0
   17.2702   -9.1049    0.0000 C   0  0  2  0  0  0  0  0  0  0  0  0
   17.9788   -8.6824    0.0000 C   0  0  2  0  0  0  0  0  0  0  0  0
   17.9673   -7.8575    0.0000 C   0  0  1  0  0  0  0  0  0  0  0  0
   17.2472   -7.4550    0.0000 C   0  0  2  0  0  0  0  0  0  0  0  0
   16.5385   -7.8774    0.0000 C   0  0  1  0  0  0  0  0  0  0  0  0
   16.5500   -8.7023    0.0000 O   0  0  0  0  0  0  0  0  0  0  0  0
   15.8184   -7.4749    0.0000 O   0  0  0  0  0  0  0  0  0  0  0  0
    7.9592   -9.5374    0.0000 C   0  0  2  0  0  0  0  0  0  0  0  0
    7.9592   -8.7124    0.0000 O   0  0  0  0  0  0  0  0  0  0  0  0
    7.2447   -8.2999    0.0000 C   0  0  1  0  0  0  0  0  0  0  0  0
    6.5302   -8.7124    0.0000 C   0  0  2  0  0  0  0  0  0  0  0  0
    6.5302   -9.5374    0.0000 C   0  0  1  0  0  0  0  0  0  0  0  0
    7.2447   -9.9499    0.0000 C   0  0  1  0  0  0  0  0  0  0  0  0
    7.2447   -7.4749    0.0000 C   0  0  0  0  0  0  0  0  0  0  0  0
    5.8158   -9.9499    0.0000 O   0  0  0  0  0  0  0  0  0  0  0  0
    7.2447  -10.7749    0.0000 O   0  0  0  0  0  0  0  0  0  0  0  0
    5.8158   -8.2999    0.0000 O   0  0  0  0  0  0  0  0  0  0  0  0
    7.9592   -7.0624    0.0000 O   0  0  0  0  0  0  0  0  0  0  0  0
    6.5302   -7.0624    0.0000 O   0  0  0  0  0  0  0  0  0  0  0  0
    5.8158  -10.7749    0.0000 C   0  0  0  0  0  0  0  0  0  0  0  0
    6.5302  -11.1874    0.0000 C   0  0  0  0  0  0  0  0  0  0  0  0
    5.1013  -10.3624    0.0000 O   0  0  0  0  0  0  0  0  0  0  0  0
    5.1013  -11.1874    0.0000 C   0  0  0  0  0  0  0  0  0  0  0  0
    6.5302  -12.0124    0.0000 O   0  0  0  0  0  0  0  0  0  0  0  0
    5.8158  -12.4249    0.0000 C   0  0  0  0  0  0  0  0  0  0  0  0
    5.8158  -13.2499    0.0000 C   0  0  0  0  0  0  0  0  0  0  0  0
    5.1013  -13.6624    0.0000 O   0  0  0  0  0  0  0  0  0  0  0  0
    6.5302  -13.6624    0.0000 O   0  0  0  0  0  0  0  0  0  0  0  0
    4.3868  -10.7749    0.0000 O   0  0  0  0  0  0  0  0  0  0  0  0
    5.1013  -12.0124    0.0000 O   0  0  0  0  0  0  0  0  0  0  0  0
 45 47  1  1  0  0  0
 44 36  1  6  0  0  0
 43 37  1  1  0  0  0
 42 38  1  6  0  0  0
 41 40  1  1  0  0  0
 40 39  1  0  0  0  0
 46 41  1  0  0  0  0
 42 41  1  0  0  0  0
 43 42  1  0  0  0  0
 44 43  1  0  0  0  0
 45 44  1  0  0  0  0
 46 45  1  0  0  0  0
  2  3  1  0  0  0  0
  4  3  1  0  0  0  0
  4  5  1  0  0  0  0
  5  6  1  0  0  0  0
  6  7  1  0  0  0  0
  7  8  1  0  0  0  0
  8  9  1  0  0  0  0
  9 10  1  0  0  0  0
 10 11  1  0  0  0  0
 11 12  1  0  0  0  0
 12 13  1  0  0  0  0
 13 14  1  0  0  0  0
 14 15  1  0  0  0  0
 15 16  1  0  0  0  0
 16 17  1  0  0  0  0
 17 18  1  0  0  0  0
 13 18  1  0  0  0  0
 18 19  1  0  0  0  0
 10 19  1  0  0  0  0
 19 20  2  0  0  0  0
 20 21  1  0  0  0  0
 21 22  1  0  0  0  0
  9 22  1  0  0  0  0
 22 23  1  0  0  0  0
  6 23  1  0  0  0  0
  2 23  1  0  0  0  0
 24 25  2  0  0  0  0
 24 47  1  0  0  0  0
 13 24  1  1  0  0  0
 23 26  1  1  0  0  0
 16 27  1  0  0  0  0
 16 28  1  0  0  0  0
 10 29  1  6  0  0  0
  9 30  1  1  0  0  0
  5 31  1  0  0  0  0
  5 32  1  0  0  0  0
  4  1  1  1  0  0  0
  6 33  1  6  0  0  0
 18 34  1  1  0  0  0
 22 35  1  6  0  0  0
 48  1  1  1  0  0  0
 48 49  1  0  0  0  0
 49 50  1  0  0  0  0
 50 51  1  0  0  0  0
 51 52  1  0  0  0  0
 52 53  1  0  0  0  0
 53 48  1  0  0  0  0
 50 54  1  1  0  0  0
 52 55  1  1  0  0  0
 53 56  1  6  0  0  0
 51 57  1  6  0  0  0
 54 58  2  0  0  0  0
 54 59  1  0  0  0  0
 55 60  1  0  0  0  0
 56 61  1  0  0  0  0
 61 60  1  0  0  0  0
 60 62  1  0  0  0  0
 60 63  1  0  0  0  0
 61 64  1  0  0  0  0
 64 65  1  0  0  0  0
 65 66  1  0  0  0  0
 66 67  1  0  0  0  0
 66 68  2  0  0  0  0
 63 69  2  0  0  0  0
 63 70  1  0  0  0  0
M  END
>  <cdx:fragmentId>
230993

$$$$
