800058.cdx
  Mrv1902 05222410202D          

 36 39  0  0  0  0            999 V2000
    4.5811   -7.4228    0.0000 C   0  0  0  0  0  0  0  0  0  0  0  0
    3.8666   -7.8353    0.0000 C   0  0  0  0  0  0  0  0  0  0  0  0
    3.8666   -8.6603    0.0000 C   0  0  0  0  0  0  0  0  0  0  0  0
    4.5811   -9.0728    0.0000 C   0  0  0  0  0  0  0  0  0  0  0  0
    5.2956   -8.6603    0.0000 C   0  0  2  0  0  0  0  0  0  0  0  0
    6.0100   -9.0728    0.0000 C   0  0  0  0  0  0  0  0  0  0  0  0
    6.7245   -8.6603    0.0000 C   0  0  0  0  0  0  0  0  0  0  0  0
    6.7245   -7.8353    0.0000 C   0  0  0  0  0  0  0  0  0  0  0  0
    7.4390   -7.4228    0.0000 C   0  0  2  0  0  0  0  0  0  0  0  0
    8.2236   -7.6777    0.0000 C   0  0  0  0  0  0  0  0  0  0  0  0
    8.7085   -7.0103    0.0000 C   0  0  0  0  0  0  0  0  0  0  0  0
    8.2236   -6.3428    0.0000 C   0  0  1  0  0  0  0  0  0  0  0  0
    7.4390   -6.5978    0.0000 C   0  0  1  0  0  0  0  0  0  0  0  0
    6.7245   -6.1853    0.0000 C   0  0  0  0  0  0  0  0  0  0  0  0
    6.0100   -6.5978    0.0000 C   0  0  0  0  0  0  0  0  0  0  0  0
    6.0100   -7.4228    0.0000 C   0  0  0  0  0  0  0  0  0  0  0  0
    5.2956   -7.8353    0.0000 C   0  0  1  0  0  0  0  0  0  0  0  0
    3.1521   -9.0728    0.0000 O   0  0  0  0  0  0  0  0  0  0  0  0
    7.9265   -4.9451    0.0000 C   0  0  0  0  0  0  0  0  0  0  0  0
    8.4785   -5.5582    0.0000 C   0  0  2  0  0  0  0  0  0  0  0  0
    9.2855   -5.3867    0.0000 C   0  0  0  0  0  0  0  0  0  0  0  0
    9.5404   -4.6020    0.0000 C   0  0  0  0  0  0  0  0  0  0  0  0
   10.3474   -4.4305    0.0000 C   0  0  1  0  0  0  0  0  0  0  0  0
   10.6024   -3.6459    0.0000 C   0  0  0  0  0  0  0  0  0  0  0  0
    9.8055   -3.4324    0.0000 C   0  0  0  0  0  0  0  0  0  0  0  0
   11.3992   -3.8594    0.0000 O   0  0  0  0  0  0  0  0  0  0  0  0
   10.8994   -5.0436    0.0000 O   0  0  0  0  0  0  0  0  0  0  0  0
    7.4390   -8.2478    0.0000 C   0  0  0  0  0  0  0  0  0  0  0  0
    7.4390   -5.7728    0.0000 C   0  0  0  0  0  0  0  0  0  0  0  0
    5.2956   -7.0103    0.0000 C   0  0  0  0  0  0  0  0  0  0  0  0
    4.9936   -9.7872    0.0000 C   0  0  0  0  0  0  0  0  0  0  0  0
    4.1686   -9.7872    0.0000 C   0  0  0  0  0  0  0  0  0  0  0  0
    5.2956   -9.4853    0.0000 H   0  0  0  0  0  0  0  0  0  0  0  0
    9.0205   -6.1293    0.0000 H   0  0  0  0  0  0  0  0  0  0  0  0
   10.8159   -2.8490    0.0000 C   0  0  0  0  0  0  0  0  0  0  0  0
   11.6128   -2.6355    0.0000 O   0  0  0  0  0  0  0  0  0  0  0  0
  1  2  1  0  0  0  0
  2  3  1  0  0  0  0
  3  4  1  0  0  0  0
  4  5  1  0  0  0  0
  5  6  1  0  0  0  0
  6  7  1  0  0  0  0
  7  8  2  0  0  0  0
  8  9  1  0  0  0  0
  9 10  1  0  0  0  0
 10 11  1  0  0  0  0
 12 11  1  0  0  0  0
 12 13  1  0  0  0  0
  9 13  1  0  0  0  0
 13 14  1  0  0  0  0
 14 15  1  0  0  0  0
 15 16  2  0  0  0  0
  8 16  1  0  0  0  0
 16 17  1  0  0  0  0
  5 17  1  0  0  0  0
  1 17  1  0  0  0  0
  3 18  2  0  0  0  0
 20 19  1  6  0  0  0
 20 21  1  0  0  0  0
 21 22  1  0  0  0  0
 22 23  1  0  0  0  0
 23 24  1  0  0  0  0
 24 25  1  0  0  0  0
 24 26  1  6  0  0  0
 23 27  1  1  0  0  0
 12 20  1  0  0  0  0
  9 28  1  6  0  0  0
 13 29  1  1  0  0  0
 17 30  1  1  0  0  0
  4 31  1  0  0  0  0
  4 32  1  0  0  0  0
  5 33  1  6  0  0  0
 12 34  1  6  0  0  0
 24 35  1  0  0  0  0
 35 36  1  0  0  0  0
M  END
>  <cdx:groupId>
226

>  <cdx:fragmentId>
121

$$$$
