1000012.cdx
  Mrv1902 05222410232D          

 26 25  0  0  0  0            999 V2000
    3.6189   -5.2877    0.0000 O   0  0  0  0  0  0  0  0  0  0  0  0
    4.3333   -5.7002    0.0000 C   0  0  0  0  0  0  0  0  0  0  0  0
    5.0478   -5.2877    0.0000 C   0  0  0  0  0  0  0  0  0  0  0  0
    4.3333   -6.5252    0.0000 O   0  0  0  0  0  0  0  0  0  0  0  0
    3.6189   -6.9377    0.0000 C   0  0  0  0  0  0  0  0  0  0  0  0
    3.6189   -7.7627    0.0000 C   0  0  0  0  0  0  0  0  0  0  0  0
    4.3333   -8.1752    0.0000 C   0  0  0  0  0  0  0  0  0  0  0  0
    5.0478   -7.7627    0.0000 O   0  0  0  0  0  0  0  0  0  0  0  0
    5.7623   -8.1752    0.0000 C   0  0  0  0  0  0  0  0  0  0  0  0
    6.4767   -7.7627    0.0000 C   0  0  0  0  0  0  0  0  0  0  0  0
    7.1912   -8.1752    0.0000 C   0  0  0  0  0  0  0  0  0  0  0  0
    6.4767   -6.9377    0.0000 C   0  0  0  0  0  0  0  0  0  0  0  0
    7.1912   -9.0002    0.0000 C   0  0  0  0  0  0  0  0  0  0  0  0
    5.7623   -9.0002    0.0000 O   0  0  0  0  0  0  0  0  0  0  0  0
    4.3333   -9.0002    0.0000 C   0  0  0  0  0  0  0  0  0  0  0  0
    5.0478   -9.4127    0.0000 C   0  0  0  0  0  0  0  0  0  0  0  0
    5.0478  -10.2377    0.0000 C   0  0  0  0  0  0  0  0  0  0  0  0
    5.7623  -10.6502    0.0000 C   0  0  0  0  0  0  0  0  0  0  0  0
    6.4767  -10.2377    0.0000 C   0  0  0  0  0  0  0  0  0  0  0  0
    7.1912  -10.6502    0.0000 C   0  0  0  0  0  0  0  0  0  0  0  0
    7.9057  -11.0627    0.0000 C   0  0  0  0  0  0  0  0  0  0  0  0
    8.6202  -11.4752    0.0000 C   0  0  0  0  0  0  0  0  0  0  0  0
    9.3346  -11.8877    0.0000 C   0  0  0  0  0  0  0  0  0  0  0  0
   10.0491  -11.4752    0.0000 C   0  0  0  0  0  0  0  0  0  0  0  0
   10.7636  -11.8877    0.0000 C   0  0  0  0  0  0  0  0  0  0  0  0
   11.4780  -11.4752    0.0000 O   0  0  0  0  0  0  0  0  0  0  0  0
  1  2  2  0  0  0  0
  2  3  1  0  0  0  0
  2  4  1  0  0  0  0
  4  5  1  0  0  0  0
  5  6  1  0  0  0  0
  6  7  1  0  0  0  0
  7  8  1  0  0  0  0
  8  9  1  0  0  0  0
  9 10  1  0  0  0  0
 10 11  1  0  0  0  0
 10 12  1  0  0  0  0
 11 13  1  0  0  0  0
  9 14  2  0  0  0  0
  7 15  1  0  0  0  0
 15 16  2  0  0  0  0
 16 17  1  0  0  0  0
 17 18  2  0  0  0  0
 18 19  1  0  0  0  0
 19 20  3  0  0  0  0
 20 21  1  0  0  0  0
 21 22  3  0  0  0  0
 22 23  1  0  0  0  0
 23 24  2  0  0  0  0
 24 25  1  0  0  0  0
 25 26  1  0  0  0  0
M  END
>  <cdx:fragmentId>
75

$$$$
