800054.cdx
  Mrv1902 05222410252D          

 53 56  0  0  0  0            999 V2000
    7.8651   -9.5590    0.0000 O   0  0  0  0  0  0  0  0  0  0  0  0
    7.8381   -8.7344    0.0000 C   0  0  0  0  0  0  0  0  0  0  0  0
    8.5387   -8.2988    0.0000 C   0  0  0  0  0  0  0  0  0  0  0  0
    8.5118   -7.4743    0.0000 C   0  0  0  0  0  0  0  0  0  0  0  0
    7.1105   -8.3455    0.0000 O   0  0  0  0  0  0  0  0  0  0  0  0
    9.2124   -7.0386    0.0000 C   0  0  0  0  0  0  0  0  0  0  0  0
    9.1854   -6.2141    0.0000 C   0  0  0  0  0  0  0  0  0  0  0  0
    9.8860   -5.7784    0.0000 C   0  0  0  0  0  0  0  0  0  0  0  0
   10.6136   -6.1674    0.0000 C   0  0  0  0  0  0  0  0  0  0  0  0
   10.6406   -6.9919    0.0000 C   0  0  0  0  0  0  0  0  0  0  0  0
    9.9399   -7.4276    0.0000 C   0  0  0  0  0  0  0  0  0  0  0  0
   11.3681   -7.3809    0.0000 O   0  0  0  0  0  0  0  0  0  0  0  0
   12.0687   -6.9453    0.0000 C   0  0  0  0  0  0  0  0  0  0  0  0
    9.8591   -4.9539    0.0000 O   0  0  0  0  0  0  0  0  0  0  0  0
   10.5597   -4.5183    0.0000 C   0  0  0  0  0  0  0  0  0  0  0  0
   11.3142   -5.7318    0.0000 O   0  0  0  0  0  0  0  0  0  0  0  0
    4.2927   -9.9715    0.0000 O   0  0  0  0  0  0  0  0  0  0  0  0
    3.5763   -8.7351    0.0000 O   0  0  0  0  0  0  0  0  0  0  0  0
    3.5776   -9.5601    0.0000 C   0  0  2  0  0  0  0  0  0  0  0  0
    2.8638   -9.9737    0.0000 C   0  0  1  0  0  0  0  0  0  0  0  0
    2.1487   -9.5623    0.0000 C   0  0  2  0  0  0  0  0  0  0  0  0
    2.1474   -8.7373    0.0000 C   0  0  1  0  0  0  0  0  0  0  0  0
    2.8612   -8.3237    0.0000 C   0  0  1  0  0  0  0  0  0  0  0  0
    2.8600   -7.4987    0.0000 C   0  0  0  0  0  0  0  0  0  0  0  0
    2.1449   -7.0873    0.0000 O   0  0  0  0  0  0  0  0  0  0  0  0
    1.4323   -8.3259    0.0000 O   0  0  0  0  0  0  0  0  0  0  0  0
    1.4348   -9.9759    0.0000 O   0  0  0  0  0  0  0  0  0  0  0  0
    2.8650  -10.7987    0.0000 O   0  0  0  0  0  0  0  0  0  0  0  0
    6.4361  -12.0340    0.0000 O   0  0  0  0  0  0  0  0  0  0  0  0
    5.0072  -11.2090    0.0000 O   0  0  0  0  0  0  0  0  0  0  0  0
    5.0072   -9.5590    0.0000 C   0  0  0  0  0  0  0  0  0  0  0  0
    5.7217   -9.9715    0.0000 C   0  0  2  0  0  0  0  0  0  0  0  0
    5.7217  -10.7965    0.0000 C   0  0  2  0  0  0  0  0  0  0  0  0
    6.4361  -11.2090    0.0000 C   0  0  1  0  0  0  0  0  0  0  0  0
    7.1506  -10.7965    0.0000 C   0  0  2  0  0  0  0  0  0  0  0  0
    7.1506   -9.9715    0.0000 C   0  0  1  0  0  0  0  0  0  0  0  0
    6.4361   -9.5590    0.0000 O   0  0  0  0  0  0  0  0  0  0  0  0
   12.8664  -12.4465    0.0000 O   0  0  0  0  0  0  0  0  0  0  0  0
   12.1519  -13.6840    0.0000 C   0  0  0  0  0  0  0  0  0  0  0  0
   11.4374  -13.2715    0.0000 O   0  0  0  0  0  0  0  0  0  0  0  0
   13.5808  -11.2090    0.0000 C   0  0  0  0  0  0  0  0  0  0  0  0
   12.8664  -10.7965    0.0000 O   0  0  0  0  0  0  0  0  0  0  0  0
   11.4374  -10.7965    0.0000 C   0  0  0  0  0  0  0  0  0  0  0  0
   12.1519  -11.2090    0.0000 C   0  0  0  0  0  0  0  0  0  0  0  0
   12.1519  -12.0340    0.0000 C   0  0  0  0  0  0  0  0  0  0  0  0
   11.4374  -12.4465    0.0000 C   0  0  0  0  0  0  0  0  0  0  0  0
   10.7230  -12.0340    0.0000 C   0  0  0  0  0  0  0  0  0  0  0  0
   10.7230  -11.2090    0.0000 C   0  0  0  0  0  0  0  0  0  0  0  0
    7.8651  -11.2090    0.0000 O   0  0  0  0  0  0  0  0  0  0  0  0
    8.5795   -9.9715    0.0000 O   0  0  0  0  0  0  0  0  0  0  0  0
   10.0085  -10.7965    0.0000 C   0  0  0  0  0  0  0  0  0  0  0  0
    9.2940  -11.2090    0.0000 C   0  0  0  0  0  0  0  0  0  0  0  0
    8.5795  -10.7965    0.0000 C   0  0  0  0  0  0  0  0  0  0  0  0
 35 49  1  6  0  0  0
 34 29  1  1  0  0  0
 33 30  1  6  0  0  0
 36  1  1  1  0  0  0
 32 31  1  1  0  0  0
 31 17  1  0  0  0  0
 37 32  1  0  0  0  0
 33 32  1  0  0  0  0
 34 33  1  0  0  0  0
 35 34  1  0  0  0  0
 36 35  1  0  0  0  0
 37 36  1  0  0  0  0
 51 48  1  0  0  0  0
 45 38  1  0  0  0  0
 46 40  1  0  0  0  0
 40 39  1  0  0  0  0
 44 42  1  0  0  0  0
 42 41  1  0  0  0  0
 48 43  2  0  0  0  0
 44 43  1  0  0  0  0
 45 44  2  0  0  0  0
 46 45  1  0  0  0  0
 47 46  2  0  0  0  0
 48 47  1  0  0  0  0
 53 49  1  0  0  0  0
 53 50  2  0  0  0  0
 52 51  2  0  0  0  0
 53 52  1  0  0  0  0
  2  3  1  0  0  0  0
  3  4  2  0  0  0  0
  2  5  2  0  0  0  0
  6  7  1  0  0  0  0
  7  8  2  0  0  0  0
  8  9  1  0  0  0  0
  9 10  2  0  0  0  0
 10 11  1  0  0  0  0
  6 11  2  0  0  0  0
 12 13  1  0  0  0  0
 10 12  1  0  0  0  0
 14 15  1  0  0  0  0
  8 14  1  0  0  0  0
  9 16  1  0  0  0  0
  4  6  1  0  0  0  0
  1  2  1  0  0  0  0
 18 19  1  0  0  0  0
 19 20  1  0  0  0  0
 20 21  1  0  0  0  0
 21 22  1  0  0  0  0
 22 23  1  0  0  0  0
 18 23  1  0  0  0  0
 24 25  1  0  0  0  0
 23 24  1  1  0  0  0
 22 26  1  6  0  0  0
 21 27  1  1  0  0  0
 20 28  1  6  0  0  0
 19 17  1  1  0  0  0
M  END
>  <cdx:fragmentId>
10288

$$$$
