800070.cdx
  Mrv1902 05222410202D          

 24 26  0  0  0  0            999 V2000
    8.2639   -7.4335    0.0000 H   0  0  0  0  0  0  0  0  0  0  0  0
    6.1205  -10.3210    0.0000 O   0  0  0  0  0  0  0  0  0  0  0  0
    8.2639   -6.6085    0.0000 O   0  0  0  0  0  0  0  0  0  0  0  0
    9.6929   -8.2585    0.0000 C   0  0  0  0  0  0  0  0  0  0  0  0
   10.4073   -7.8460    0.0000 C   0  0  0  0  0  0  0  0  0  0  0  0
   10.4073   -7.0210    0.0000 C   0  0  0  0  0  0  0  0  0  0  0  0
    9.6929   -6.6085    0.0000 C   0  0  0  0  0  0  0  0  0  0  0  0
    8.9784   -7.0210    0.0000 C   0  0  0  0  0  0  0  0  0  0  0  0
    8.9784   -7.8460    0.0000 C   0  0  0  0  0  0  0  0  0  0  0  0
    3.9771   -8.2585    0.0000 C   0  0  0  0  0  0  0  0  0  0  0  0
    4.6916   -7.8460    0.0000 O   0  0  0  0  0  0  0  0  0  0  0  0
    5.4060   -6.6085    0.0000 C   0  0  0  0  0  0  0  0  0  0  0  0
    6.1205   -7.0210    0.0000 O   0  0  0  0  0  0  0  0  0  0  0  0
    7.5494  -10.3210    0.0000 O   0  0  0  0  0  0  0  0  0  0  0  0
    7.5494   -7.8460    0.0000 O   0  0  0  0  0  0  0  0  0  0  0  0
    6.8350   -8.2585    0.0000 C   0  0  0  0  0  0  0  0  0  0  0  0
    6.1205   -7.8460    0.0000 C   0  0  0  0  0  0  0  0  0  0  0  0
    5.4060   -8.2585    0.0000 C   0  0  0  0  0  0  0  0  0  0  0  0
    5.4060   -9.0835    0.0000 C   0  0  0  0  0  0  0  0  0  0  0  0
    6.1205   -9.4960    0.0000 C   0  0  0  0  0  0  0  0  0  0  0  0
    6.8350   -9.0835    0.0000 C   0  0  0  0  0  0  0  0  0  0  0  0
    7.5494   -9.4960    0.0000 C   0  0  0  0  0  0  0  0  0  0  0  0
    8.2639   -9.0835    0.0000 C   0  0  0  0  0  0  0  0  0  0  0  0
    8.2639   -8.2585    0.0000 C   0  0  1  0  0  0  0  0  0  0  0  0
 24  1  1  1  0  0  0
 20  2  1  0  0  0  0
 24  9  1  0  0  0  0
  8  3  1  0  0  0  0
  9  4  2  0  0  0  0
  5  4  1  0  0  0  0
  6  5  2  0  0  0  0
  7  6  1  0  0  0  0
  8  7  2  0  0  0  0
  9  8  1  0  0  0  0
 18 11  1  0  0  0  0
 11 10  1  0  0  0  0
 17 13  1  0  0  0  0
 13 12  1  0  0  0  0
 22 14  2  0  0  0  0
 24 15  1  0  0  0  0
 16 15  1  0  0  0  0
 21 16  2  0  0  0  0
 17 16  1  0  0  0  0
 18 17  2  0  0  0  0
 19 18  1  0  0  0  0
 20 19  2  0  0  0  0
 21 20  1  0  0  0  0
 22 21  1  0  0  0  0
 23 22  1  0  0  0  0
 24 23  1  0  0  0  0
M  END
>  <cdx:fragmentId>
5

$$$$
