800010.cdx
  Mrv1902 05222410182D          

 50 55  0  0  0  0            999 V2000
    7.0441   -6.2541    0.0000 C   0  0  0  0  0  0  0  0  0  0  0  0
    6.4931   -7.1743    0.0000 C   0  0  2  0  0  0  0  0  0  0  0  0
    6.8941   -7.8952    0.0000 C   0  0  0  0  0  0  0  0  0  0  0  0
    6.4703   -8.6030    0.0000 C   0  0  0  0  0  0  0  0  0  0  0  0
    5.6454   -8.5899    0.0000 C   0  0  0  0  0  0  0  0  0  0  0  0
    5.2444   -7.8689    0.0000 C   0  0  2  0  0  0  0  0  0  0  0  0
    4.4195   -7.8558    0.0000 C   0  0  2  0  0  0  0  0  0  0  0  0
    4.0184   -7.1348    0.0000 C   0  0  1  0  0  0  0  0  0  0  0  0
    4.4422   -6.4270    0.0000 C   0  0  0  0  0  0  0  0  0  0  0  0
    5.2671   -6.4402    0.0000 C   0  0  0  0  0  0  0  0  0  0  0  0
    5.6682   -7.1611    0.0000 C   0  0  2  0  0  0  0  0  0  0  0  0
    7.7190   -7.9084    0.0000 C   0  0  0  0  0  0  0  0  0  0  0  0
    6.0920   -6.4533    0.0000 C   0  0  0  0  0  0  0  0  0  0  0  0
    3.6985   -8.2568    0.0000 C   0  0  0  0  0  0  0  0  0  0  0  0
    4.4063   -8.6807    0.0000 C   0  0  0  0  0  0  0  0  0  0  0  0
    3.6854   -9.0817    0.0000 O   0  0  0  0  0  0  0  0  0  0  0  0
    3.1935   -7.1217    0.0000 O   0  0  0  0  0  0  0  0  0  0  0  0
    4.8205   -8.5767    0.0000 H   0  0  0  0  0  0  0  0  0  0  0  0
    7.4074  -12.2256    0.0000 H   0  0  0  0  0  0  0  0  0  0  0  0
    5.2598  -11.8355    0.0000 O   0  0  0  0  0  0  0  0  0  0  0  0
    6.6962  -13.2538    0.0000 O   0  0  0  0  0  0  0  0  0  0  0  0
    6.2837  -12.5393    0.0000 C   0  0  0  0  0  0  0  0  0  0  0  0
    7.1086  -12.5307    0.0000 C   0  0  0  0  0  0  0  0  0  0  0  0
    7.3816   -9.7507    0.0000 C   0  0  0  0  0  0  0  0  0  0  0  0
    9.5292  -10.1409    0.0000 C   0  0  0  0  0  0  0  0  0  0  0  0
    7.3902  -10.5757    0.0000 C   0  0  1  0  0  0  0  0  0  0  0  0
    6.6715  -10.1707    0.0000 C   0  0  0  0  0  0  0  0  0  0  0  0
    5.9614  -10.5906    0.0000 C   0  0  0  0  0  0  0  0  0  0  0  0
    5.9700  -11.4155    0.0000 C   0  0  2  0  0  0  0  0  0  0  0  0
    6.6887  -11.8206    0.0000 C   0  0  2  0  0  0  0  0  0  0  0  0
    7.3988  -11.4006    0.0000 C   0  0  1  0  0  0  0  0  0  0  0  0
    8.1176  -11.8057    0.0000 C   0  0  0  0  0  0  0  0  0  0  0  0
    8.8277  -11.3857    0.0000 C   0  0  0  0  0  0  0  0  0  0  0  0
    8.8191  -10.5608    0.0000 C   0  0  0  0  0  0  0  0  0  0  0  0
    8.1004  -10.1558    0.0000 C   0  0  1  0  0  0  0  0  0  0  0  0
    8.0918   -9.3308    0.0000 C   0  0  0  0  0  0  0  0  0  0  0  0
    8.8019   -8.9109    0.0000 C   0  0  0  0  0  0  0  0  0  0  0  0
    9.6274   -5.7669    0.0000 O   0  0  0  0  0  0  0  0  0  0  0  0
    9.0085   -5.2213    0.0000 C   0  0  0  0  0  0  0  0  0  0  0  0
    8.2034   -5.4013    0.0000 C   0  0  0  0  0  0  0  0  0  0  0  0
    7.7835   -4.6911    0.0000 C   0  0  0  0  0  0  0  0  0  0  0  0
    8.3291   -4.0723    0.0000 C   0  0  0  0  0  0  0  0  0  0  0  0
    9.0862   -4.4000    0.0000 O   0  0  0  0  0  0  0  0  0  0  0  0
    7.8757   -6.1584    0.0000 C   0  0  0  0  0  0  0  0  0  0  0  0
   10.2429   -7.8408    0.0000 O   0  0  0  0  0  0  0  0  0  0  0  0
    9.4556   -7.5941    0.0000 C   0  0  0  0  0  0  0  0  0  0  0  0
    8.7933   -8.0859    0.0000 C   0  0  0  0  0  0  0  0  0  0  0  0
    8.1208   -7.6080    0.0000 C   0  0  0  0  0  0  0  0  0  0  0  0
    8.3676   -6.8207    0.0000 C   0  0  0  0  0  0  0  0  0  0  0  0
    9.1925   -6.8121    0.0000 O   0  0  0  0  0  0  0  0  0  0  0  0
 31 19  1  1  0  0  0
 47 37  1  0  0  0  0
 35 36  1  6  0  0  0
 29 20  1  6  0  0  0
 30 22  1  6  0  0  0
 22 21  1  0  0  0  0
 30 23  1  1  0  0  0
 26 24  1  6  0  0  0
 34 25  2  0  0  0  0
 31 26  1  0  0  0  0
 35 26  1  0  0  0  0
 27 26  1  0  0  0  0
 28 27  1  0  0  0  0
 29 28  1  0  0  0  0
 30 29  1  0  0  0  0
 31 30  1  0  0  0  0
 32 31  1  0  0  0  0
 33 32  1  0  0  0  0
 34 33  1  0  0  0  0
 35 34  1  0  0  0  0
 37 36  2  0  0  0  0
 49 44  1  0  0  0  0
  2  3  1  0  0  0  0
 44 40  1  0  0  0  0
 39 38  2  0  0  0  0
 43 39  1  0  0  0  0
 40 39  1  0  0  0  0
 41 40  2  0  0  0  0
 42 41  1  0  0  0  0
 43 42  1  0  0  0  0
 44  1  1  0  0  0  0
 46 45  2  0  0  0  0
 50 46  1  0  0  0  0
 47 46  1  0  0  0  0
 48 47  2  0  0  0  0
 49 48  1  0  0  0  0
 50 49  1  0  0  0  0
  3  4  1  0  0  0  0
  4  5  1  0  0  0  0
  5  6  1  0  0  0  0
  6  7  1  0  0  0  0
  7  8  1  0  0  0  0
  8  9  1  0  0  0  0
  9 10  1  0  0  0  0
 10 11  1  0  0  0  0
  2 11  1  0  0  0  0
  6 11  1  0  0  0  0
  3 12  2  0  0  0  0
 11 13  1  1  0  0  0
  7 14  1  1  0  0  0
 15 16  1  0  0  0  0
  7 15  1  6  0  0  0
  8 17  1  6  0  0  0
  2  1  1  6  0  0  0
  6 18  1  1  0  0  0
M  END
>  <cdx:fragmentId>
86079

$$$$
