800028.cdx
  Mrv1902 05222410192D          

 34 36  0  0  0  0            999 V2000
    8.5096   -8.6616    0.0000 C   0  0  0  0  0  0  0  0  0  0  0  0
    8.5096   -9.4866    0.0000 C   0  0  0  0  0  0  0  0  0  0  0  0
    7.7951   -9.8991    0.0000 C   0  0  0  0  0  0  0  0  0  0  0  0
    7.0807   -9.4866    0.0000 C   0  0  0  0  0  0  0  0  0  0  0  0
    6.3662   -9.8991    0.0000 C   0  0  0  0  0  0  0  0  0  0  0  0
    5.6517   -9.4866    0.0000 C   0  0  0  0  0  0  0  0  0  0  0  0
    5.6517   -8.6616    0.0000 C   0  0  0  0  0  0  0  0  0  0  0  0
    6.3662   -8.2491    0.0000 C   0  0  0  0  0  0  0  0  0  0  0  0
    7.0807   -8.6616    0.0000 C   0  0  0  0  0  0  0  0  0  0  0  0
    7.7951   -8.2491    0.0000 O   0  0  0  0  0  0  0  0  0  0  0  0
    7.7951  -10.7241    0.0000 O   0  0  0  0  0  0  0  0  0  0  0  0
    6.3662  -10.7241    0.0000 O   0  0  0  0  0  0  0  0  0  0  0  0
    5.6517  -11.1366    0.0000 C   0  0  0  0  0  0  0  0  0  0  0  0
    6.3662   -7.4241    0.0000 C   0  0  0  0  0  0  0  0  0  0  0  0
    5.6517   -7.0116    0.0000 C   0  0  0  0  0  0  0  0  0  0  0  0
    4.9373   -7.4241    0.0000 C   0  0  0  0  0  0  0  0  0  0  0  0
    4.2228   -7.0116    0.0000 C   0  0  0  0  0  0  0  0  0  0  0  0
    3.5083   -7.4241    0.0000 C   0  0  0  0  0  0  0  0  0  0  0  0
    3.5083   -8.2491    0.0000 C   0  0  0  0  0  0  0  0  0  0  0  0
    4.9373   -5.7741    0.0000 C   0  0  0  0  0  0  0  0  0  0  0  0
    5.6517   -6.1866    0.0000 C   0  0  0  0  0  0  0  0  0  0  0  0
    6.3662   -5.7741    0.0000 C   0  0  0  0  0  0  0  0  0  0  0  0
    2.7938   -7.0116    0.0000 C   0  0  0  0  0  0  0  0  0  0  0  0
    2.7938   -7.8366    0.0000 O   0  0  0  0  0  0  0  0  0  0  0  0
    9.2241   -8.2491    0.0000 C   0  0  0  0  0  0  0  0  0  0  0  0
    9.2241   -7.4241    0.0000 C   0  0  0  0  0  0  0  0  0  0  0  0
    9.9386   -7.0116    0.0000 C   0  0  0  0  0  0  0  0  0  0  0  0
   10.6530   -7.4241    0.0000 C   0  0  0  0  0  0  0  0  0  0  0  0
   10.6530   -8.2491    0.0000 C   0  0  0  0  0  0  0  0  0  0  0  0
    9.9386   -8.6616    0.0000 C   0  0  0  0  0  0  0  0  0  0  0  0
    8.5096   -7.0116    0.0000 O   0  0  0  0  0  0  0  0  0  0  0  0
    7.7951   -7.4241    0.0000 C   0  0  0  0  0  0  0  0  0  0  0  0
   11.3675   -7.0116    0.0000 O   0  0  0  0  0  0  0  0  0  0  0  0
    4.9373   -8.2491    0.0000 O   0  0  0  0  0  0  0  0  0  0  0  0
  1  2  1  0  0  0  0
  2  3  1  0  0  0  0
  3  4  1  0  0  0  0
  4  5  1  0  0  0  0
  5  6  2  0  0  0  0
  6  7  1  0  0  0  0
  7  8  2  0  0  0  0
  8  9  1  0  0  0  0
  4  9  2  0  0  0  0
  9 10  1  0  0  0  0
  1 10  1  0  0  0  0
  3 11  2  0  0  0  0
 12 13  1  0  0  0  0
  5 12  1  0  0  0  0
 14 15  1  0  0  0  0
 15 16  1  0  0  0  0
 16 17  1  0  0  0  0
 17 18  1  0  0  0  0
 18 19  1  0  0  0  0
 20 21  2  0  0  0  0
 21 22  1  0  0  0  0
 15 21  1  0  0  0  0
 18 23  1  0  0  0  0
 18 24  1  0  0  0  0
  8 14  1  0  0  0  0
 25 26  1  0  0  0  0
 26 27  2  0  0  0  0
 27 28  1  0  0  0  0
 28 29  2  0  0  0  0
 29 30  1  0  0  0  0
 25 30  2  0  0  0  0
 31 32  1  0  0  0  0
 26 31  1  0  0  0  0
 28 33  1  0  0  0  0
  1 25  1  0  0  0  0
  7 34  1  0  0  0  0
M  END
>  <cdx:fragmentId>
16116

$$$$
