800025.cdx
  Mrv1902 05222410262D          

 30 33  0  0  0  0            999 V2000
    3.4683   -8.9513    0.0000 C   0  0  0  0  0  0  0  0  0  0  0  0
    3.4683   -9.7763    0.0000 C   0  0  1  0  0  0  0  0  0  0  0  0
    4.1827  -10.1888    0.0000 C   0  0  0  0  0  0  0  0  0  0  0  0
    4.8972   -9.7763    0.0000 C   0  0  0  0  0  0  0  0  0  0  0  0
    4.8972   -8.9513    0.0000 C   0  0  0  0  0  0  0  0  0  0  0  0
    4.1827   -8.5388    0.0000 C   0  0  0  0  0  0  0  0  0  0  0  0
    5.6117  -10.1888    0.0000 C   0  0  0  0  0  0  0  0  0  0  0  0
    6.3262   -9.7763    0.0000 C   0  0  0  0  0  0  0  0  0  0  0  0
    6.3262   -8.9513    0.0000 C   0  0  0  0  0  0  0  0  0  0  0  0
    5.6117   -8.5388    0.0000 C   0  0  0  0  0  0  0  0  0  0  0  0
    7.0406   -8.5388    0.0000 C   0  0  1  0  0  0  0  0  0  0  0  0
    7.0406   -7.7138    0.0000 C   0  0  2  0  0  0  0  0  0  0  0  0
    6.3262   -7.3012    0.0000 C   0  0  0  0  0  0  0  0  0  0  0  0
    5.6117   -7.7138    0.0000 C   0  0  0  0  0  0  0  0  0  0  0  0
    7.8253   -8.7937    0.0000 C   0  0  0  0  0  0  0  0  0  0  0  0
    8.3102   -8.1263    0.0000 C   0  0  0  0  0  0  0  0  0  0  0  0
    7.8253   -7.4588    0.0000 C   0  0  2  0  0  0  0  0  0  0  0  0
    7.0406   -9.3637    0.0000 H   0  0  0  0  0  0  0  0  0  0  0  0
    2.7538  -10.1888    0.0000 O   0  0  0  0  0  0  0  0  0  0  0  0
    7.0406   -6.8888    0.0000 C   0  0  0  0  0  0  0  0  0  0  0  0
    8.0802   -6.6742    0.0000 C   0  0  2  0  0  0  0  0  0  0  0  0
    7.5282   -6.0611    0.0000 C   0  0  0  0  0  0  0  0  0  0  0  0
    8.8872   -6.5027    0.0000 C   0  0  0  0  0  0  0  0  0  0  0  0
    9.1421   -5.7180    0.0000 C   0  0  0  0  0  0  0  0  0  0  0  0
    9.9491   -5.5465    0.0000 C   0  0  2  0  0  0  0  0  0  0  0  0
   10.5011   -6.1596    0.0000 C   0  0  0  0  0  0  0  0  0  0  0  0
   10.2040   -4.7619    0.0000 C   0  0  0  0  0  0  0  0  0  0  0  0
    9.6520   -4.1488    0.0000 C   0  0  0  0  0  0  0  0  0  0  0  0
   11.0110   -4.5904    0.0000 C   0  0  0  0  0  0  0  0  0  0  0  0
    8.6221   -7.2453    0.0000 H   0  0  0  0  0  0  0  0  0  0  0  0
  1  2  1  0  0  0  0
  2  3  1  0  0  0  0
  3  4  1  0  0  0  0
  4  5  2  0  0  0  0
  5  6  1  0  0  0  0
  6  1  1  0  0  0  0
  4  7  1  0  0  0  0
  7  8  2  0  0  0  0
  8  9  1  0  0  0  0
  9 10  2  0  0  0  0
 10  5  1  0  0  0  0
  9 11  1  0  0  0  0
 11 12  1  0  0  0  0
 12 13  1  0  0  0  0
 13 14  1  0  0  0  0
 14 10  1  0  0  0  0
 11 15  1  0  0  0  0
 15 16  1  0  0  0  0
 16 17  1  0  0  0  0
 17 12  1  0  0  0  0
 11 18  1  6  0  0  0
  2 19  1  1  0  0  0
 12 20  1  1  0  0  0
 17 21  1  0  0  0  0
 21 22  1  6  0  0  0
 21 23  1  0  0  0  0
 23 24  2  0  0  0  0
 24 25  1  0  0  0  0
 25 26  1  1  0  0  0
 25 27  1  0  0  0  0
 27 28  1  0  0  0  0
 27 29  1  0  0  0  0
 17 30  1  6  0  0  0
M  END
>  <cdx:fragmentId>
5

$$$$
