800035.cdx
  Mrv1902 05222410272D          

 34 37  0  0  0  0            999 V2000
    3.9330  -10.6905    0.0000 C   0  0  1  0  0  0  0  0  0  0  0  0
    3.9330   -9.8655    0.0000 C   0  0  0  0  0  0  0  0  0  0  0  0
    4.6475   -9.4530    0.0000 C   0  0  0  0  0  0  0  0  0  0  0  0
    4.6475  -11.1030    0.0000 C   0  0  0  0  0  0  0  0  0  0  0  0
    5.0600  -11.8174    0.0000 C   0  0  0  0  0  0  0  0  0  0  0  0
    4.2350  -11.8174    0.0000 C   0  0  0  0  0  0  0  0  0  0  0  0
    5.3620  -10.6905    0.0000 C   0  0  2  0  0  0  0  0  0  0  0  0
    6.0764  -11.1030    0.0000 C   0  0  0  0  0  0  0  0  0  0  0  0
    6.7909  -10.6905    0.0000 C   0  0  0  0  0  0  0  0  0  0  0  0
    6.7909   -9.8655    0.0000 C   0  0  0  0  0  0  0  0  0  0  0  0
    7.5054   -9.4530    0.0000 C   0  0  1  0  0  0  0  0  0  0  0  0
    7.5054  -10.2780    0.0000 C   0  0  0  0  0  0  0  0  0  0  0  0
    8.2900   -9.7079    0.0000 C   0  0  0  0  0  0  0  0  0  0  0  0
    8.7749   -9.0405    0.0000 C   0  0  0  0  0  0  0  0  0  0  0  0
    8.2900   -8.3730    0.0000 C   0  0  2  0  0  0  0  0  0  0  0  0
    8.5449   -7.5884    0.0000 C   0  0  2  0  0  0  0  0  0  0  0  0
    9.3519   -7.4169    0.0000 C   0  0  0  0  0  0  0  0  0  0  0  0
    9.6069   -6.6323    0.0000 C   0  0  0  0  0  0  0  0  0  0  0  0
   10.4138   -6.4607    0.0000 C   0  0  0  0  0  0  0  0  0  0  0  0
   10.6688   -5.6761    0.0000 C   0  0  0  0  0  0  0  0  0  0  0  0
   10.1167   -5.0630    0.0000 C   0  0  0  0  0  0  0  0  0  0  0  0
   11.4757   -5.5046    0.0000 C   0  0  0  0  0  0  0  0  0  0  0  0
    7.9929   -6.9753    0.0000 C   0  0  0  0  0  0  0  0  0  0  0  0
    7.5054   -8.6280    0.0000 C   0  0  1  0  0  0  0  0  0  0  0  0
    7.5054   -7.8030    0.0000 C   0  0  0  0  0  0  0  0  0  0  0  0
    6.7909   -8.2155    0.0000 C   0  0  0  0  0  0  0  0  0  0  0  0
    6.0764   -8.6280    0.0000 C   0  0  0  0  0  0  0  0  0  0  0  0
    6.0764   -9.4530    0.0000 C   0  0  2  0  0  0  0  0  0  0  0  0
    5.3620   -9.8655    0.0000 C   0  0  1  0  0  0  0  0  0  0  0  0
    5.3620   -9.0405    0.0000 C   0  0  0  0  0  0  0  0  0  0  0  0
    3.2186  -11.1030    0.0000 O   0  0  0  0  0  0  0  0  0  0  0  0
    6.0764  -10.2780    0.0000 H   0  0  0  0  0  0  0  0  0  0  0  0
    9.0746   -8.1181    0.0000 H   0  0  0  0  0  0  0  0  0  0  0  0
    5.3620  -11.5155    0.0000 H   0  0  0  0  0  0  0  0  0  0  0  0
  1  2  1  0  0  0  0
  2  3  1  0  0  0  0
  1  4  1  0  0  0  0
  4  5  1  0  0  0  0
  4  6  1  0  0  0  0
  4  7  1  0  0  0  0
  7  8  1  0  0  0  0
  8  9  1  0  0  0  0
  9 10  2  0  0  0  0
 10 11  1  0  0  0  0
 11 12  1  1  0  0  0
 11 13  1  0  0  0  0
 13 14  1  0  0  0  0
 15 14  1  0  0  0  0
 15 16  1  0  0  0  0
 16 17  1  0  0  0  0
 17 18  1  0  0  0  0
 18 19  1  0  0  0  0
 19 20  2  0  0  0  0
 20 21  1  0  0  0  0
 20 22  1  0  0  0  0
 16 23  1  1  0  0  0
 15 24  1  0  0  0  0
 11 24  1  0  0  0  0
 24 25  1  6  0  0  0
 24 26  1  0  0  0  0
 26 27  1  0  0  0  0
 27 28  1  0  0  0  0
 10 28  1  0  0  0  0
 28 29  1  0  0  0  0
  3 29  1  0  0  0  0
  7 29  1  0  0  0  0
 29 30  1  1  0  0  0
  1 31  1  1  0  0  0
 28 32  1  6  0  0  0
 15 33  1  6  0  0  0
  7 34  1  6  0  0  0
M  END
>  <cdx:groupId>
107

>  <cdx:fragmentId>
5

$$$$
