800037.cdx
  Mrv1902 05222410282D          

 19 22  0  0  0  0            999 V2000
    7.3037   -7.3552    0.0000 C   0  0  0  0  0  0  0  0  0  0  0  0
    6.4787   -7.3481    0.0000 C   0  0  0  0  0  0  0  0  0  0  0  0
    5.9666   -7.9949    0.0000 C   0  0  0  0  0  0  0  0  0  0  0  0
    6.1627   -8.7962    0.0000 C   0  0  0  0  0  0  0  0  0  0  0  0
    5.4447   -9.2025    0.0000 C   0  0  0  0  0  0  0  0  0  0  0  0
    5.4376  -10.0275    0.0000 C   0  0  0  0  0  0  0  0  0  0  0  0
    6.1484  -10.4462    0.0000 C   0  0  0  0  0  0  0  0  0  0  0  0
    6.8665  -10.0399    0.0000 C   0  0  0  0  0  0  0  0  0  0  0  0
    7.5773  -10.4585    0.0000 C   0  0  0  0  0  0  0  0  0  0  0  0
    8.2954  -10.0522    0.0000 C   0  0  0  0  0  0  0  0  0  0  0  0
    8.3025   -9.2273    0.0000 O   0  0  0  0  0  0  0  0  0  0  0  0
    7.5916   -8.8086    0.0000 C   0  0  0  0  0  0  0  0  0  0  0  0
    6.8736   -9.2149    0.0000 C   0  0  0  0  0  0  0  0  0  0  0  0
    6.6221   -8.1757    0.0000 O   0  0  0  0  0  0  0  0  0  0  0  0
    7.8045   -8.0108    0.0000 O   0  0  0  0  0  0  0  0  0  0  0  0
    9.0062  -10.4709    0.0000 O   0  0  0  0  0  0  0  0  0  0  0  0
    7.5702  -11.2835    0.0000 C   0  0  0  0  0  0  0  0  0  0  0  0
    4.7339   -8.7838    0.0000 C   0  0  0  0  0  0  0  0  0  0  0  0
    7.7224   -6.6444    0.0000 C   0  0  0  0  0  0  0  0  0  0  0  0
  1  2  1  0  0  0  0
  2  3  1  0  0  0  0
  3  4  1  0  0  0  0
  4  5  1  0  0  0  0
  5  6  1  0  0  0  0
  6  7  1  0  0  0  0
  7  8  1  0  0  0  0
  8  9  1  0  0  0  0
  9 10  1  0  0  0  0
 10 11  1  0  0  0  0
 11 12  1  0  0  0  0
 12 13  1  0  0  0  0
 13 14  1  0  0  0  0
  1 14  1  0  0  0  0
  1 15  1  0  0  0  0
 15 12  1  0  0  0  0
  8 13  1  0  0  0  0
  4 13  1  0  0  0  0
 10 16  2  0  0  0  0
  9 17  1  0  0  0  0
  5 18  1  0  0  0  0
  1 19  1  0  0  0  0
M  END
>  <cdx:fragmentId>
5

$$$$
