2-[(2E)-3,7-dimethyl-2,6-octadienyl]-6-methyl-2,5 cyclohexadiene-1,4-dione.cdx
  Mrv1902 05222410202D          

 19 19  0  0  0  0            999 V2000
    3.9220   -7.1981    0.0000 C   0  0  0  0  0  0  0  0  0  0  0  0
    3.9220   -8.0231    0.0000 C   0  0  0  0  0  0  0  0  0  0  0  0
    4.6365   -8.4356    0.0000 C   0  0  0  0  0  0  0  0  0  0  0  0
    5.3510   -8.0231    0.0000 C   0  0  0  0  0  0  0  0  0  0  0  0
    5.3510   -7.1981    0.0000 C   0  0  0  0  0  0  0  0  0  0  0  0
    4.6365   -6.7856    0.0000 C   0  0  0  0  0  0  0  0  0  0  0  0
    3.2076   -6.7856    0.0000 C   0  0  0  0  0  0  0  0  0  0  0  0
    4.6365   -5.9606    0.0000 O   0  0  0  0  0  0  0  0  0  0  0  0
    4.6365   -9.2606    0.0000 O   0  0  0  0  0  0  0  0  0  0  0  0
    6.0654   -6.7856    0.0000 C   0  0  0  0  0  0  0  0  0  0  0  0
    6.7799   -7.1981    0.0000 C   0  0  0  0  0  0  0  0  0  0  0  0
    7.4944   -6.7856    0.0000 C   0  0  0  0  0  0  0  0  0  0  0  0
    8.2089   -7.1981    0.0000 C   0  0  0  0  0  0  0  0  0  0  0  0
    7.4944   -5.9606    0.0000 C   0  0  0  0  0  0  0  0  0  0  0  0
    8.9233   -6.7856    0.0000 C   0  0  0  0  0  0  0  0  0  0  0  0
    9.6378   -7.1981    0.0000 C   0  0  0  0  0  0  0  0  0  0  0  0
   10.3523   -6.7856    0.0000 C   0  0  0  0  0  0  0  0  0  0  0  0
   11.0667   -7.1981    0.0000 C   0  0  0  0  0  0  0  0  0  0  0  0
   10.3523   -5.9606    0.0000 C   0  0  0  0  0  0  0  0  0  0  0  0
  1  2  2  0  0  0  0
  2  3  1  0  0  0  0
  3  4  1  0  0  0  0
  4  5  2  0  0  0  0
  5  6  1  0  0  0  0
  6  1  1  0  0  0  0
  1  7  1  0  0  0  0
  6  8  2  0  0  0  0
  3  9  2  0  0  0  0
  5 10  1  0  0  0  0
 10 11  1  0  0  0  0
 11 12  2  0  0  0  0
 12 13  1  0  0  0  0
 12 14  1  0  0  0  0
 13 15  1  0  0  0  0
 15 16  1  0  0  0  0
 16 17  2  0  0  0  0
 17 18  1  0  0  0  0
 17 19  1  0  0  0  0
M  END
>  <cdx:fragmentId>
5

$$$$
