102004811.cdx
  Mrv1902 05222410242D          

 91 99  0  0  0  0            999 V2000
   16.9360  -10.1646    0.0000 O   0  0  0  0  0  0  0  0  0  0  0  0
   16.1290  -10.3361    0.0000 C   0  0  2  0  0  0  0  0  0  0  0  0
   15.8741  -11.1208    0.0000 C   0  0  1  0  0  0  0  0  0  0  0  0
   16.4261  -11.7339    0.0000 C   0  0  2  0  0  0  0  0  0  0  0  0
   17.2331  -11.5623    0.0000 C   0  0  1  0  0  0  0  0  0  0  0  0
   17.4880  -10.7777    0.0000 C   0  0  1  0  0  0  0  0  0  0  0  0
   15.0671  -11.2923    0.0000 O   0  0  0  0  0  0  0  0  0  0  0  0
   16.1712  -12.5185    0.0000 O   0  0  0  0  0  0  0  0  0  0  0  0
   17.7851  -12.1754    0.0000 O   0  0  0  0  0  0  0  0  0  0  0  0
   18.2950  -10.6062    0.0000 C   0  0  0  0  0  0  0  0  0  0  0  0
   18.8470  -11.2193    0.0000 O   0  0  0  0  0  0  0  0  0  0  0  0
   15.5770   -9.7230    0.0000 O   0  0  0  0  0  0  0  0  0  0  0  0
   14.7700   -9.8946    0.0000 C   0  0  0  0  0  0  0  0  0  0  0  0
   13.4110   -9.4530    0.0000 O   0  0  0  0  0  0  0  0  0  0  0  0
   14.2180   -9.2815    0.0000 C   0  0  1  0  0  0  0  0  0  0  0  0
   14.4729   -8.4969    0.0000 C   0  0  2  0  0  0  0  0  0  0  0  0
   13.9209   -7.8838    0.0000 C   0  0  1  0  0  0  0  0  0  0  0  0
   13.1139   -8.0553    0.0000 C   0  0  2  0  0  0  0  0  0  0  0  0
   12.8590   -8.8399    0.0000 C   0  0  2  0  0  0  0  0  0  0  0  0
   12.5619   -7.4422    0.0000 O   0  0  0  0  0  0  0  0  0  0  0  0
   13.6238   -6.4860    0.0000 O   0  0  0  0  0  0  0  0  0  0  0  0
   12.8168   -6.6576    0.0000 C   0  0  2  0  0  0  0  0  0  0  0  0
   12.2648   -6.0445    0.0000 C   0  0  1  0  0  0  0  0  0  0  0  0
   12.5197   -5.2599    0.0000 C   0  0  2  0  0  0  0  0  0  0  0  0
   13.3267   -5.0883    0.0000 C   0  0  1  0  0  0  0  0  0  0  0  0
   13.8787   -5.7014    0.0000 C   0  0  1  0  0  0  0  0  0  0  0  0
   14.6857   -5.5299    0.0000 C   0  0  0  0  0  0  0  0  0  0  0  0
   15.2377   -6.1430    0.0000 O   0  0  0  0  0  0  0  0  0  0  0  0
   13.5816   -4.3037    0.0000 O   0  0  0  0  0  0  0  0  0  0  0  0
   11.9677   -4.6468    0.0000 O   0  0  0  0  0  0  0  0  0  0  0  0
   11.4578   -6.2160    0.0000 O   0  0  0  0  0  0  0  0  0  0  0  0
   14.1758   -7.0991    0.0000 O   0  0  0  0  0  0  0  0  0  0  0  0
   15.2799   -8.3253    0.0000 O   0  0  0  0  0  0  0  0  0  0  0  0
   12.0520   -9.0114    0.0000 O   0  0  0  0  0  0  0  0  0  0  0  0
   13.1561  -10.2376    0.0000 C   0  0  0  0  0  0  0  0  0  0  0  0
   12.3491  -10.4092    0.0000 C   0  0  0  0  0  0  0  0  0  0  0  0
   11.7971   -9.7961    0.0000 C   0  0  1  0  0  0  0  0  0  0  0  0
   10.9901   -9.9676    0.0000 C   0  0  0  0  0  0  0  0  0  0  0  0
   10.7352  -10.7522    0.0000 C   0  0  0  0  0  0  0  0  0  0  0  0
    9.9282  -10.9237    0.0000 C   0  0  1  0  0  0  0  0  0  0  0  0
    9.3762  -10.3106    0.0000 C   0  0  0  0  0  0  0  0  0  0  0  0
   12.0942  -11.1938    0.0000 C   0  0  0  0  0  0  0  0  0  0  0  0
   12.9011  -11.0223    0.0000 O   0  0  0  0  0  0  0  0  0  0  0  0
    6.0307  -12.7883    0.0000 C   0  0  0  0  0  0  0  0  0  0  0  0
    5.3163  -13.2008    0.0000 C   0  0  0  0  0  0  0  0  0  0  0  0
    5.3163  -14.0258    0.0000 C   0  0  1  0  0  0  0  0  0  0  0  0
    6.0307  -14.4383    0.0000 C   0  0  0  0  0  0  0  0  0  0  0  0
    6.7452  -14.0258    0.0000 C   0  0  0  0  0  0  0  0  0  0  0  0
    7.4597  -14.4383    0.0000 C   0  0  0  0  0  0  0  0  0  0  0  0
    8.1742  -14.0258    0.0000 C   0  0  0  0  0  0  0  0  0  0  0  0
    8.1742  -13.2008    0.0000 C   0  0  2  0  0  0  0  0  0  0  0  0
    8.8886  -12.7883    0.0000 C   0  0  2  0  0  0  0  0  0  0  0  0
    9.6732  -13.0432    0.0000 C   0  0  0  0  0  0  0  0  0  0  0  0
   10.1582  -12.3758    0.0000 C   0  0  0  0  0  0  0  0  0  0  0  0
    9.6732  -11.7084    0.0000 C   0  0  1  0  0  0  0  0  0  0  0  0
    8.8886  -11.9633    0.0000 C   0  0  1  0  0  0  0  0  0  0  0  0
    8.1742  -11.5508    0.0000 C   0  0  0  0  0  0  0  0  0  0  0  0
    7.4597  -11.9633    0.0000 C   0  0  2  0  0  0  0  0  0  0  0  0
    7.4597  -12.7883    0.0000 C   0  0  1  0  0  0  0  0  0  0  0  0
    6.7452  -13.2008    0.0000 C   0  0  2  0  0  0  0  0  0  0  0  0
    8.8886  -13.6133    0.0000 C   0  0  0  0  0  0  0  0  0  0  0  0
    8.9749  -11.1428    0.0000 C   0  0  0  0  0  0  0  0  0  0  0  0
    7.4597  -13.6133    0.0000 C   0  0  0  0  0  0  0  0  0  0  0  0
    6.4432  -15.1528    0.0000 C   0  0  0  0  0  0  0  0  0  0  0  0
    5.6182  -15.1528    0.0000 C   0  0  0  0  0  0  0  0  0  0  0  0
    6.7452  -11.5508    0.0000 O   0  0  0  0  0  0  0  0  0  0  0  0
    4.6018  -14.4383    0.0000 O   0  0  0  0  0  0  0  0  0  0  0  0
    3.1729  -14.4383    0.0000 O   0  0  0  0  0  0  0  0  0  0  0  0
    3.8873  -14.0258    0.0000 C   0  0  2  0  0  0  0  0  0  0  0  0
    3.8873  -13.2008    0.0000 C   0  0  1  0  0  0  0  0  0  0  0  0
    3.1729  -12.7883    0.0000 C   0  0  2  0  0  0  0  0  0  0  0  0
    2.4584  -13.2008    0.0000 C   0  0  1  0  0  0  0  0  0  0  0  0
    2.4584  -14.0258    0.0000 C   0  0  1  0  0  0  0  0  0  0  0  0
    1.7439  -12.7883    0.0000 O   0  0  0  0  0  0  0  0  0  0  0  0
    2.4584  -11.5508    0.0000 O   0  0  0  0  0  0  0  0  0  0  0  0
    1.7439  -11.9633    0.0000 C   0  0  2  0  0  0  0  0  0  0  0  0
    1.0294  -11.5508    0.0000 C   0  0  1  0  0  0  0  0  0  0  0  0
    1.0294  -10.7258    0.0000 C   0  0  2  0  0  0  0  0  0  0  0  0
    1.7439  -10.3133    0.0000 C   0  0  1  0  0  0  0  0  0  0  0  0
    2.4584  -10.7258    0.0000 C   0  0  1  0  0  0  0  0  0  0  0  0
    3.1729  -10.3133    0.0000 C   0  0  0  0  0  0  0  0  0  0  0  0
    3.8873  -10.7258    0.0000 O   0  0  0  0  0  0  0  0  0  0  0  0
    1.7439   -9.4883    0.0000 O   0  0  0  0  0  0  0  0  0  0  0  0
    0.3150  -10.3133    0.0000 O   0  0  0  0  0  0  0  0  0  0  0  0
    0.3150  -11.9633    0.0000 O   0  0  0  0  0  0  0  0  0  0  0  0
    1.7439  -14.4383    0.0000 C   0  0  0  0  0  0  0  0  0  0  0  0
    1.0294  -14.0258    0.0000 O   0  0  0  0  0  0  0  0  0  0  0  0
    3.1729  -11.9633    0.0000 O   0  0  0  0  0  0  0  0  0  0  0  0
    4.6018  -12.7883    0.0000 O   0  0  0  0  0  0  0  0  0  0  0  0
    8.1742  -12.3758    0.0000 H   0  0  0  0  0  0  0  0  0  0  0  0
    6.7452  -12.3758    0.0000 H   0  0  0  0  0  0  0  0  0  0  0  0
  1  2  1  0  0  0  0
  2  3  1  0  0  0  0
  3  4  1  0  0  0  0
  4  5  1  0  0  0  0
  5  6  1  0  0  0  0
  1  6  1  0  0  0  0
  3  7  1  1  0  0  0
  4  8  1  6  0  0  0
  5  9  1  1  0  0  0
 10 11  1  0  0  0  0
  6 10  1  6  0  0  0
 12 13  1  0  0  0  0
 14 15  1  0  0  0  0
 15 16  1  0  0  0  0
 16 17  1  0  0  0  0
 17 18  1  0  0  0  0
 18 19  1  0  0  0  0
 14 19  1  0  0  0  0
 21 22  1  0  0  0  0
 22 23  1  0  0  0  0
 23 24  1  0  0  0  0
 24 25  1  0  0  0  0
 25 26  1  0  0  0  0
 21 26  1  0  0  0  0
 27 28  1  0  0  0  0
 26 27  1  1  0  0  0
 25 29  1  6  0  0  0
 24 30  1  1  0  0  0
 23 31  1  6  0  0  0
 22 20  1  1  0  0  0
 18 20  1  6  0  0  0
 17 32  1  1  0  0  0
 16 33  1  6  0  0  0
 35 36  1  0  0  0  0
 36 37  1  0  0  0  0
 37 38  1  0  0  0  0
 38 39  1  0  0  0  0
 39 40  1  0  0  0  0
 40 41  1  6  0  0  0
 36 42  1  0  0  0  0
 36 43  1  0  0  0  0
 44 45  1  0  0  0  0
 45 46  1  0  0  0  0
 46 47  1  0  0  0  0
 47 48  1  0  0  0  0
 48 49  2  0  0  0  0
 49 50  1  0  0  0  0
 50 51  1  0  0  0  0
 51 52  1  0  0  0  0
 52 53  1  0  0  0  0
 53 54  1  0  0  0  0
 55 54  1  1  0  0  0
 55 56  1  0  0  0  0
 52 56  1  0  0  0  0
 56 57  1  0  0  0  0
 57 58  1  0  0  0  0
 58 59  1  0  0  0  0
 51 59  1  0  0  0  0
 59 60  1  0  0  0  0
 48 60  1  0  0  0  0
 44 60  1  0  0  0  0
 52 61  1  6  0  0  0
 56 62  1  1  0  0  0
 59 63  1  1  0  0  0
 47 64  1  0  0  0  0
 47 65  1  0  0  0  0
 58 66  1  6  0  0  0
 68 69  1  0  0  0  0
 69 70  1  0  0  0  0
 70 71  1  0  0  0  0
 71 72  1  0  0  0  0
 72 73  1  0  0  0  0
 68 73  1  0  0  0  0
 75 76  1  0  0  0  0
 76 77  1  0  0  0  0
 77 78  1  0  0  0  0
 78 79  1  0  0  0  0
 79 80  1  0  0  0  0
 75 80  1  0  0  0  0
 81 82  1  0  0  0  0
 80 81  1  1  0  0  0
 79 83  1  6  0  0  0
 78 84  1  1  0  0  0
 77 85  1  6  0  0  0
 76 74  1  1  0  0  0
 72 74  1  1  0  0  0
 86 87  1  0  0  0  0
 73 86  1  6  0  0  0
 71 88  1  6  0  0  0
 70 89  1  1  0  0  0
 69 67  1  6  0  0  0
 46 67  1  1  0  0  0
 40 55  1  0  0  0  0
 37 34  1  1  0  0  0
 19 34  1  1  0  0  0
 15 13  1  1  0  0  0
  2 12  1  6  0  0  0
 51 90  1  6  0  0  0
 60 91  1  6  0  0  0
M  END
>  <cdx:groupId>
5084

>  <cdx:fragmentId>
4892

$$$$
