800074.cdx
  Mrv1902 05222410232D          

 46 52  0  0  0  0            999 V2000
    4.4776   -9.8243    0.0000 C   0  0  2  0  0  0  0  0  0  0  0  0
    4.7597   -9.0490    0.0000 C   0  0  0  0  0  0  0  0  0  0  0  0
    5.2900   -8.4170    0.0000 C   0  0  0  0  0  0  0  0  0  0  0  0
    6.1026   -8.5599    0.0000 C   0  0  0  0  0  0  0  0  0  0  0  0
    6.9150   -8.4167    0.0000 C   0  0  0  0  0  0  0  0  0  0  0  0
    7.6294   -8.0045    0.0000 C   0  0  0  0  0  0  0  0  0  0  0  0
    8.3439   -8.4170    0.0000 O   0  0  0  0  0  0  0  0  0  0  0  0
    8.8742   -9.0490    0.0000 C   0  0  0  0  0  0  0  0  0  0  0  0
    9.4045   -8.4170    0.0000 C   0  0  0  0  0  0  0  0  0  0  0  0
   10.2170   -8.5603    0.0000 C   0  0  0  0  0  0  0  0  0  0  0  0
   10.4991   -9.3355    0.0000 C   0  0  0  0  0  0  0  0  0  0  0  0
    9.9688   -9.9675    0.0000 C   0  0  0  0  0  0  0  0  0  0  0  0
   10.6098  -10.4872    0.0000 C   0  0  0  0  0  0  0  0  0  0  0  0
   10.3774  -11.2788    0.0000 C   0  0  0  0  0  0  0  0  0  0  0  0
    9.5574  -11.3702    0.0000 N   0  0  0  0  0  0  0  0  0  0  0  0
    9.1564  -10.6493    0.0000 C   0  0  1  0  0  0  0  0  0  0  0  0
    8.8742  -11.4245    0.0000 C   0  0  0  0  0  0  0  0  0  0  0  0
    8.3439  -12.0565    0.0000 C   0  0  0  0  0  0  0  0  0  0  0  0
    7.9849  -11.3137    0.0000 C   0  0  0  0  0  0  0  0  0  0  0  0
    7.1681  -11.1979    0.0000 C   0  0  0  0  0  0  0  0  0  0  0  0
    6.6168  -11.8117    0.0000 C   0  0  0  0  0  0  0  0  0  0  0  0
    6.8170  -12.6123    0.0000 C   0  0  0  0  0  0  0  0  0  0  0  0
    6.0045  -12.4690    0.0000 O   0  0  0  0  0  0  0  0  0  0  0  0
    5.2900  -12.0565    0.0000 C   0  0  0  0  0  0  0  0  0  0  0  0
    4.5125  -12.3350    0.0000 C   0  0  0  0  0  0  0  0  0  0  0  0
    3.8212  -11.8847    0.0000 C   0  0  0  0  0  0  0  0  0  0  0  0
    3.7631  -11.0618    0.0000 C   0  0  0  0  0  0  0  0  0  0  0  0
    3.0486  -10.6493    0.0000 C   0  0  0  0  0  0  0  0  0  0  0  0
    3.0486   -9.8243    0.0000 C   0  0  0  0  0  0  0  0  0  0  0  0
    3.7631   -9.4118    0.0000 N   0  0  0  0  0  0  0  0  0  0  0  0
    4.4776  -10.6493    0.0000 C   0  0  0  0  0  0  0  0  0  0  0  0
    4.7597  -11.4245    0.0000 C   0  0  0  0  0  0  0  0  0  0  0  0
    7.6294  -12.4690    0.0000 C   0  0  0  0  0  0  0  0  0  0  0  0
    9.1564   -9.8243    0.0000 C   0  0  0  0  0  0  0  0  0  0  0  0
    6.8170   -7.8613    0.0000 C   0  0  0  0  0  0  0  0  0  0  0  0
    6.0045   -8.0045    0.0000 C   0  0  0  0  0  0  0  0  0  0  0  0
    9.1223   -7.6418    0.0000 O   0  0  0  0  0  0  0  0  0  0  0  0
    5.8161  -11.6128    0.0000 O   0  0  0  0  0  0  0  0  0  0  0  0
    3.7631   -8.5868    0.0000 C   0  0  0  0  0  0  0  0  0  0  0  0
    9.1449  -12.0847    0.0000 C   0  0  0  0  0  0  0  0  0  0  0  0
    4.4164  -13.1544    0.0000 O   0  0  0  0  0  0  0  0  0  0  0  0
    3.6588  -13.4809    0.0000 C   0  0  0  0  0  0  0  0  0  0  0  0
   10.7473   -7.9283    0.0000 O   0  0  0  0  0  0  0  0  0  0  0  0
   11.5597   -8.0716    0.0000 C   0  0  0  0  0  0  0  0  0  0  0  0
    4.1954   -9.0490    0.0000 H   0  0  0  0  0  0  0  0  0  0  0  0
    8.3439  -10.5060    0.0000 H   0  0  0  0  0  0  0  0  0  0  0  0
  1  2  1  0  0  0  0
  2  3  1  0  0  0  0
  3  4  1  0  0  0  0
  4  5  2  0  0  0  0
  5  6  1  0  0  0  0
  6  7  1  0  0  0  0
  7  8  1  0  0  0  0
  8  9  1  0  0  0  0
  9 10  2  0  0  0  0
 10 11  1  0  0  0  0
 11 12  2  0  0  0  0
 12 13  1  0  0  0  0
 13 14  1  0  0  0  0
 14 15  1  0  0  0  0
 15 16  1  0  0  0  0
 16 17  1  0  0  0  0
 17 18  1  0  0  0  0
 18 19  1  0  0  0  0
 19 20  2  0  0  0  0
 20 21  1  0  0  0  0
 21 22  2  0  0  0  0
 22 23  1  0  0  0  0
 23 24  1  0  0  0  0
 24 25  2  0  0  0  0
 25 26  1  0  0  0  0
 26 27  2  0  0  0  0
 27 28  1  0  0  0  0
 28 29  1  0  0  0  0
 29 30  1  0  0  0  0
 31 32  2  0  0  0  0
 35 36  1  0  0  0  0
  1 30  1  0  0  0  0
  1 31  1  0  0  0  0
 32 24  1  0  0  0  0
 27 31  1  0  0  0  0
 22 33  1  0  0  0  0
 33 18  2  0  0  0  0
 12 34  1  0  0  0  0
 34  8  2  0  0  0  0
  6 35  2  0  0  0  0
 36  3  2  0  0  0  0
 16 34  1  0  0  0  0
  9 37  1  0  0  0  0
 21 38  1  0  0  0  0
 30 39  1  0  0  0  0
 15 40  1  0  0  0  0
 41 42  1  0  0  0  0
 25 41  1  0  0  0  0
 43 44  1  0  0  0  0
 10 43  1  0  0  0  0
  1 45  1  6  0  0  0
 16 46  1  6  0  0  0
M  END
>  <cdx:fragmentId>
21171

$$$$
