800008.cdx
  Mrv1902 05222410272D          

 27 30  0  0  0  0            999 V2000
    9.2440  -11.1264    0.0000 C   0  0  0  0  0  0  0  0  0  0  0  0
    8.5345  -11.5475    0.0000 C   0  0  0  0  0  0  0  0  0  0  0  0
    8.5444  -12.3724    0.0000 C   0  0  0  0  0  0  0  0  0  0  0  0
    9.2638  -12.7763    0.0000 C   0  0  0  0  0  0  0  0  0  0  0  0
    9.9633  -11.5303    0.0000 C   0  0  0  0  0  0  0  0  0  0  0  0
    9.9733  -12.3552    0.0000 C   0  0  0  0  0  0  0  0  0  0  0  0
   10.7609  -12.6007    0.0000 O   0  0  0  0  0  0  0  0  0  0  0  0
   11.2378  -11.9275    0.0000 C   0  0  0  0  0  0  0  0  0  0  0  0
   10.7448  -11.2659    0.0000 O   0  0  0  0  0  0  0  0  0  0  0  0
    7.8350  -12.7935    0.0000 C   0  0  0  0  0  0  0  0  0  0  0  0
    3.5286  -11.1952    0.0000 O   0  0  0  0  0  0  0  0  0  0  0  0
    4.2778  -14.0739    0.0000 C   0  0  0  0  0  0  0  0  0  0  0  0
    4.9872  -13.6528    0.0000 O   0  0  0  0  0  0  0  0  0  0  0  0
    3.5485  -12.8450    0.0000 C   0  0  0  0  0  0  0  0  0  0  0  0
    6.4161  -13.6356    0.0000 O   0  0  0  0  0  0  0  0  0  0  0  0
    4.2281   -9.9492    0.0000 O   0  0  0  0  0  0  0  0  0  0  0  0
    4.9475  -10.3530    0.0000 C   0  0  0  0  0  0  0  0  0  0  0  0
    6.3863  -11.1608    0.0000 O   0  0  0  0  0  0  0  0  0  0  0  0
    5.6768  -11.5818    0.0000 C   0  0  0  0  0  0  0  0  0  0  0  0
    4.9574  -11.1780    0.0000 C   0  0  0  0  0  0  0  0  0  0  0  0
    4.2480  -11.5990    0.0000 C   0  0  0  0  0  0  0  0  0  0  0  0
    4.2579  -12.4240    0.0000 C   0  0  0  0  0  0  0  0  0  0  0  0
    4.9773  -12.8279    0.0000 C   0  0  0  0  0  0  0  0  0  0  0  0
    5.6867  -12.4068    0.0000 C   0  0  0  0  0  0  0  0  0  0  0  0
    6.4061  -12.8107    0.0000 C   0  0  0  0  0  0  0  0  0  0  0  0
    7.1156  -12.3896    0.0000 C   0  0  0  0  0  0  0  0  0  0  0  0
    7.1057  -11.5647    0.0000 C   0  0  0  0  0  0  0  0  0  0  0  0
 26 10  1  0  0  0  0
 10  3  1  0  0  0  0
  4  6  2  0  0  0  0
  1  5  2  0  0  0  0
  2  1  1  0  0  0  0
  3  2  2  0  0  0  0
  4  3  1  0  0  0  0
  9  5  1  0  0  0  0
  6  5  1  0  0  0  0
  7  6  1  0  0  0  0
  8  7  1  0  0  0  0
  9  8  1  0  0  0  0
 21 11  1  0  0  0  0
 23 13  1  0  0  0  0
 13 12  1  0  0  0  0
 22 14  1  0  0  0  0
 25 15  2  0  0  0  0
 20 17  1  0  0  0  0
 17 16  2  0  0  0  0
 27 18  1  0  0  0  0
 19 18  1  0  0  0  0
 24 19  2  0  0  0  0
 20 19  1  0  0  0  0
 21 20  2  0  0  0  0
 22 21  1  0  0  0  0
 23 22  2  0  0  0  0
 24 23  1  0  0  0  0
 25 24  1  0  0  0  0
 26 25  1  0  0  0  0
 27 26  1  0  0  0  0
M  END
>  <cdx:fragmentId>
64690

$$$$
