800036.cdx
  Mrv1902 05222410282D          

 28 30  0  0  0  0            999 V2000
    6.6861   -8.4806    0.0000 C   0  0  1  0  0  0  0  0  0  0  0  0
    6.8781   -7.6781    0.0000 C   0  0  2  0  0  0  0  0  0  0  0  0
    7.6539   -7.3964    0.0000 C   0  0  2  0  0  0  0  0  0  0  0  0
    8.3373   -7.8585    0.0000 C   0  0  0  0  0  0  0  0  0  0  0  0
    7.5177   -8.1994    0.0000 H   0  0  0  0  0  0  0  0  0  0  0  0
    6.3706   -7.0278    0.0000 C   0  0  2  0  0  0  0  0  0  0  0  0
    5.9875   -6.2970    0.0000 H   0  0  0  0  0  0  0  0  0  0  0  0
    6.8326   -6.3440    0.0000 O   0  0  0  0  0  0  0  0  0  0  0  0
    7.6257   -6.5723    0.0000 C   0  0  0  0  0  0  0  0  0  0  0  0
    8.2759   -6.0647    0.0000 O   0  0  0  0  0  0  0  0  0  0  0  0
    5.9389   -8.8304    0.0000 C   0  0  2  0  0  0  0  0  0  0  0  0
    6.5784   -9.3517    0.0000 C   0  0  0  0  0  0  0  0  0  0  0  0
    5.8195   -9.6468    0.0000 C   0  0  0  0  0  0  0  0  0  0  0  0
    5.0065   -9.7855    0.0000 C   0  0  0  0  0  0  0  0  0  0  0  0
    4.6229   -9.0548    0.0000 C   0  0  0  0  0  0  0  0  0  0  0  0
    5.1994   -8.4646    0.0000 C   0  0  1  0  0  0  0  0  0  0  0  0
    4.4066   -8.2365    0.0000 H   0  0  0  0  0  0  0  0  0  0  0  0
    5.0248   -7.6583    0.0000 C   0  0  2  0  0  0  0  0  0  0  0  0
    4.2101   -7.5267    0.0000 C   0  0  0  0  0  0  0  0  0  0  0  0
    5.5458   -7.0191    0.0000 C   0  0  0  0  0  0  0  0  0  0  0  0
    6.4097  -10.2232    0.0000 O   0  0  0  0  0  0  0  0  0  0  0  0
    9.4777   -9.6498    0.0000 C   0  0  0  0  0  0  0  0  0  0  0  0
    8.5164   -8.3090    0.0000 O   0  0  0  0  0  0  0  0  0  0  0  0
    7.3242   -9.0533    0.0000 O   0  0  0  0  0  0  0  0  0  0  0  0
    8.1761   -9.0604    0.0000 C   0  0  0  0  0  0  0  0  0  0  0  0
    8.6567   -9.7306    0.0000 C   0  0  0  0  0  0  0  0  0  0  0  0
    8.3163  -10.4825    0.0000 C   0  0  0  0  0  0  0  0  0  0  0  0
    9.8902   -8.9354    0.0000 C   0  0  0  0  0  0  0  0  0  0  0  0
 26 22  2  0  0  0  0
 25 23  2  0  0  0  0
 25 24  1  0  0  0  0
 26 25  1  0  0  0  0
 27 26  1  0  0  0  0
  1 24  1  6  0  0  0
  1  2  1  0  0  0  0
  2  3  1  0  0  0  0
  3  4  1  1  0  0  0
  2  5  1  6  0  0  0
  2  6  1  0  0  0  0
  6  7  1  6  0  0  0
  6  8  1  0  0  0  0
  8  9  1  0  0  0  0
  3  9  1  0  0  0  0
  9 10  2  0  0  0  0
  1 11  1  0  0  0  0
 11 12  1  1  0  0  0
 11 13  1  0  0  0  0
 13 14  1  0  0  0  0
 14 15  2  0  0  0  0
 15 16  1  0  0  0  0
 11 16  1  0  0  0  0
 16 17  1  6  0  0  0
 16 18  1  0  0  0  0
 18 19  1  6  0  0  0
 18 20  1  0  0  0  0
  6 20  1  0  0  0  0
 13 21  2  0  0  0  0
 22 28  1  0  0  0  0
M  END
>  <cdx:fragmentId>
1

$$$$
