800040.cdx
  Mrv1902 05222410252D          

107116  0  0  0  0            999 V2000
    4.3234  -12.9119    0.0000 C   0  0  1  0  0  0  0  0  0  0  0  0
    5.0379  -12.4994    0.0000 C   0  0  1  0  0  0  0  0  0  0  0  0
    5.0379  -11.6744    0.0000 C   0  0  1  0  0  0  0  0  0  0  0  0
    4.3234  -11.2619    0.0000 C   0  0  0  0  0  0  0  0  0  0  0  0
    3.6089  -11.6744    0.0000 C   0  0  0  0  0  0  0  0  0  0  0  0
    3.6089  -12.4994    0.0000 O   0  0  0  0  0  0  0  0  0  0  0  0
    5.8225  -11.4194    0.0000 C   0  0  0  0  0  0  0  0  0  0  0  0
    6.3074  -12.0869    0.0000 C   0  0  1  0  0  0  0  0  0  0  0  0
    5.8225  -12.7543    0.0000 C   0  0  2  0  0  0  0  0  0  0  0  0
    4.3234  -10.4369    0.0000 C   0  0  0  0  0  0  0  0  0  0  0  0
    5.0379  -10.0244    0.0000 O   0  0  0  0  0  0  0  0  0  0  0  0
    3.6089  -10.0244    0.0000 O   0  0  0  0  0  0  0  0  0  0  0  0
    4.3234  -13.7369    0.0000 O   0  0  0  0  0  0  0  0  0  0  0  0
    2.8944  -13.7369    0.0000 O   0  0  0  0  0  0  0  0  0  0  0  0
    3.6089  -14.1494    0.0000 C   0  0  2  0  0  0  0  0  0  0  0  0
    3.6089  -14.9744    0.0000 C   0  0  1  0  0  0  0  0  0  0  0  0
    2.8944  -15.3869    0.0000 C   0  0  2  0  0  0  0  0  0  0  0  0
    2.1800  -14.9744    0.0000 C   0  0  1  0  0  0  0  0  0  0  0  0
    2.1800  -14.1494    0.0000 C   0  0  1  0  0  0  0  0  0  0  0  0
    1.4655  -13.7369    0.0000 C   0  0  0  0  0  0  0  0  0  0  0  0
    0.7510  -14.1494    0.0000 O   0  0  0  0  0  0  0  0  0  0  0  0
    1.4655  -15.3869    0.0000 O   0  0  0  0  0  0  0  0  0  0  0  0
    2.8944  -16.2119    0.0000 O   0  0  0  0  0  0  0  0  0  0  0  0
    4.3234  -15.3869    0.0000 O   0  0  0  0  0  0  0  0  0  0  0  0
    6.0774  -13.5389    0.0000 C   0  0  0  0  0  0  0  0  0  0  0  0
    7.1324  -12.0869    0.0000 O   0  0  0  0  0  0  0  0  0  0  0  0
    7.5449  -11.3724    0.0000 C   0  0  0  0  0  0  0  0  0  0  0  0
    7.1324  -10.6579    0.0000 O   0  0  0  0  0  0  0  0  0  0  0  0
   10.0199  -11.3724    0.0000 C   0  0  1  0  0  0  0  0  0  0  0  0
    9.6074  -10.6579    0.0000 C   0  0  1  0  0  0  0  0  0  0  0  0
    8.7824  -10.6579    0.0000 C   0  0  1  0  0  0  0  0  0  0  0  0
    8.3699  -11.3724    0.0000 C   0  0  0  0  0  0  0  0  0  0  0  0
    8.7824  -12.0869    0.0000 C   0  0  0  0  0  0  0  0  0  0  0  0
    9.6074  -12.0869    0.0000 O   0  0  0  0  0  0  0  0  0  0  0  0
   10.0199   -9.9434    0.0000 C   0  0  0  0  0  0  0  0  0  0  0  0
   10.8449   -9.9434    0.0000 C   0  0  0  0  0  0  0  0  0  0  0  0
    8.3699   -9.9434    0.0000 C   0  0  0  0  0  0  0  0  0  0  0  0
    8.7824   -9.2290    0.0000 C   0  0  0  0  0  0  0  0  0  0  0  0
    8.3699   -8.5145    0.0000 C   0  0  0  0  0  0  0  0  0  0  0  0
    7.5449   -8.5145    0.0000 C   0  0  0  0  0  0  0  0  0  0  0  0
    7.1324   -9.2290    0.0000 O   0  0  0  0  0  0  0  0  0  0  0  0
   10.0199   -7.0856    0.0000 C   0  0  1  0  0  0  0  0  0  0  0  0
    9.6074   -7.8000    0.0000 C   0  0  1  0  0  0  0  0  0  0  0  0
    8.7824   -7.8000    0.0000 C   0  0  1  0  0  0  0  0  0  0  0  0
    8.3699   -7.0856    0.0000 C   0  0  0  0  0  0  0  0  0  0  0  0
    8.7824   -6.3711    0.0000 C   0  0  0  0  0  0  0  0  0  0  0  0
    9.6074   -6.3711    0.0000 O   0  0  0  0  0  0  0  0  0  0  0  0
   10.0199   -8.5145    0.0000 C   0  0  0  0  0  0  0  0  0  0  0  0
   10.8449   -8.5145    0.0000 C   0  0  0  0  0  0  0  0  0  0  0  0
    7.5449   -7.0856    0.0000 C   0  0  0  0  0  0  0  0  0  0  0  0
    7.1324   -7.8000    0.0000 O   0  0  0  0  0  0  0  0  0  0  0  0
    7.1324   -6.3711    0.0000 O   0  0  0  0  0  0  0  0  0  0  0  0
    4.3234   -5.5461    0.0000 C   0  0  1  0  0  0  0  0  0  0  0  0
    5.0379   -5.9586    0.0000 C   0  0  1  0  0  0  0  0  0  0  0  0
    5.0379   -6.7836    0.0000 C   0  0  1  0  0  0  0  0  0  0  0  0
    4.3234   -7.1961    0.0000 C   0  0  0  0  0  0  0  0  0  0  0  0
    3.6089   -6.7836    0.0000 C   0  0  0  0  0  0  0  0  0  0  0  0
    3.6089   -5.9586    0.0000 O   0  0  0  0  0  0  0  0  0  0  0  0
    5.8225   -7.0385    0.0000 C   0  0  0  0  0  0  0  0  0  0  0  0
    6.3074   -6.3711    0.0000 C   0  0  2  0  0  0  0  0  0  0  0  0
    5.8225   -5.7037    0.0000 C   0  0  2  0  0  0  0  0  0  0  0  0
    6.0774   -4.9190    0.0000 C   0  0  0  0  0  0  0  0  0  0  0  0
    4.3234   -8.0211    0.0000 C   0  0  0  0  0  0  0  0  0  0  0  0
    3.6089   -8.4336    0.0000 O   0  0  0  0  0  0  0  0  0  0  0  0
    5.0379   -8.4336    0.0000 O   0  0  0  0  0  0  0  0  0  0  0  0
    5.0379   -9.2586    0.0000 C   0  0  0  0  0  0  0  0  0  0  0  0
    5.1241  -10.8539    0.0000 H   0  0  0  0  0  0  0  0  0  0  0  0
    5.1241  -13.3198    0.0000 H   0  0  0  0  0  0  0  0  0  0  0  0
    3.6089   -9.1994    0.0000 C   0  0  0  0  0  0  0  0  0  0  0  0
    5.1241   -7.6041    0.0000 H   0  0  0  0  0  0  0  0  0  0  0  0
    5.1241   -5.1381    0.0000 H   0  0  0  0  0  0  0  0  0  0  0  0
   12.4949  -11.3763    0.0000 O   0  0  0  0  0  0  0  0  0  0  0  0
   13.3165  -12.8072    0.0000 O   0  0  0  0  0  0  0  0  0  0  0  0
   12.4882  -14.2342    0.0000 O   0  0  0  0  0  0  0  0  0  0  0  0
   11.2507  -14.9447    0.0000 O   0  0  0  0  0  0  0  0  0  0  0  0
   10.8382  -14.2303    0.0000 C   0  0  0  0  0  0  0  0  0  0  0  0
   11.2523  -13.5168    0.0000 C   0  0  2  0  0  0  0  0  0  0  0  0
   12.0773  -13.5187    0.0000 C   0  0  2  0  0  0  0  0  0  0  0  0
   12.4915  -12.8052    0.0000 C   0  0  1  0  0  0  0  0  0  0  0  0
   12.0807  -12.0898    0.0000 C   0  0  2  0  0  0  0  0  0  0  0  0
   11.2557  -12.0878    0.0000 C   0  0  1  0  0  0  0  0  0  0  0  0
   10.8415  -12.8013    0.0000 O   0  0  0  0  0  0  0  0  0  0  0  0
   10.8449  -11.3724    0.0000 O   0  0  0  0  0  0  0  0  0  0  0  0
    9.9973   -5.6699    0.0000 O   0  0  0  0  0  0  0  0  0  0  0  0
   10.7994   -4.2280    0.0000 O   0  0  0  0  0  0  0  0  0  0  0  0
   12.4492   -4.2018    0.0000 O   0  0  0  0  0  0  0  0  0  0  0  0
   13.7093   -4.9029    0.0000 O   0  0  0  0  0  0  0  0  0  0  0  0
   13.2968   -5.6174    0.0000 C   0  0  0  0  0  0  0  0  0  0  0  0
   12.4719   -5.6305    0.0000 C   0  0  2  0  0  0  0  0  0  0  0  0
   12.0481   -4.9227    0.0000 C   0  0  2  0  0  0  0  0  0  0  0  0
   11.2232   -4.9359    0.0000 C   0  0  1  0  0  0  0  0  0  0  0  0
   10.8222   -5.6568    0.0000 C   0  0  2  0  0  0  0  0  0  0  0  0
   11.2460   -6.3646    0.0000 C   0  0  1  0  0  0  0  0  0  0  0  0
   12.0709   -6.3515    0.0000 O   0  0  0  0  0  0  0  0  0  0  0  0
   10.8449   -7.0856    0.0000 O   0  0  0  0  0  0  0  0  0  0  0  0
    2.8816   -5.5235    0.0000 O   0  0  0  0  0  0  0  0  0  0  0  0
    1.4659   -4.6761    0.0000 O   0  0  0  0  0  0  0  0  0  0  0  0
    1.4918   -3.0263    0.0000 O   0  0  0  0  0  0  0  0  0  0  0  0
    2.2257   -1.8002    0.0000 O   0  0  0  0  0  0  0  0  0  0  0  0
    2.9336   -2.2239    0.0000 C   0  0  0  0  0  0  0  0  0  0  0  0
    2.9206   -3.0488    0.0000 C   0  0  2  0  0  0  0  0  0  0  0  0
    2.1997   -3.4500    0.0000 C   0  0  2  0  0  0  0  0  0  0  0  0
    2.1867   -4.2749    0.0000 C   0  0  1  0  0  0  0  0  0  0  0  0
    2.8946   -4.6986    0.0000 C   0  0  2  0  0  0  0  0  0  0  0  0
    3.6155   -4.2974    0.0000 C   0  0  1  0  0  0  0  0  0  0  0  0
    3.6285   -3.4725    0.0000 O   0  0  0  0  0  0  0  0  0  0  0  0
    4.3234   -4.7211    0.0000 O   0  0  0  0  0  0  0  0  0  0  0  0
 81 83  1  1  0  0  0
 80 72  1  6  0  0  0
 79 73  1  1  0  0  0
 78 74  1  6  0  0  0
 77 76  1  1  0  0  0
 76 75  1  0  0  0  0
 82 77  1  0  0  0  0
 78 77  1  0  0  0  0
 79 78  1  0  0  0  0
 80 79  1  0  0  0  0
 81 80  1  0  0  0  0
 82 81  1  0  0  0  0
 93 95  1  1  0  0  0
 92 84  1  6  0  0  0
 91 85  1  1  0  0  0
 90 86  1  6  0  0  0
 89 88  1  1  0  0  0
 88 87  1  0  0  0  0
 94 89  1  0  0  0  0
 90 89  1  0  0  0  0
 91 90  1  0  0  0  0
 92 91  1  0  0  0  0
 93 92  1  0  0  0  0
 94 93  1  0  0  0  0
105107  1  1  0  0  0
104 96  1  6  0  0  0
103 97  1  1  0  0  0
102 98  1  6  0  0  0
101100  1  1  0  0  0
100 99  1  0  0  0  0
106101  1  0  0  0  0
102101  1  0  0  0  0
103102  1  0  0  0  0
104103  1  0  0  0  0
105104  1  0  0  0  0
106105  1  0  0  0  0
  1  2  1  0  0  0  0
  2  3  1  0  0  0  0
  3  4  1  0  0  0  0
  4  5  2  0  0  0  0
  5  6  1  0  0  0  0
  1  6  1  0  0  0  0
  7  8  1  0  0  0  0
  8  9  1  0  0  0  0
  9  2  1  0  0  0  0
  7  3  1  0  0  0  0
 10 11  2  0  0  0  0
 10 12  1  0  0  0  0
  4 10  1  0  0  0  0
 14 15  1  0  0  0  0
 15 16  1  0  0  0  0
 16 17  1  0  0  0  0
 17 18  1  0  0  0  0
 18 19  1  0  0  0  0
 14 19  1  0  0  0  0
 20 21  1  0  0  0  0
 19 20  1  1  0  0  0
 18 22  1  6  0  0  0
 17 23  1  1  0  0  0
 16 24  1  6  0  0  0
 15 13  1  1  0  0  0
  1 13  1  6  0  0  0
  9 25  1  6  0  0  0
 27 28  2  0  0  0  0
 29 30  1  0  0  0  0
 30 31  1  0  0  0  0
 31 32  1  0  0  0  0
 32 33  2  0  0  0  0
 33 34  1  0  0  0  0
 29 34  1  0  0  0  0
 27 32  1  0  0  0  0
 29 83  1  6  0  0  0
 35 36  2  0  0  0  0
 30 35  1  1  0  0  0
 37 38  1  0  0  0  0
 38 39  2  0  0  0  0
 39 40  1  0  0  0  0
 40 41  2  0  0  0  0
 42 43  1  0  0  0  0
 43 44  1  0  0  0  0
 44 45  1  0  0  0  0
 45 46  2  0  0  0  0
 46 47  1  0  0  0  0
 42 47  1  0  0  0  0
 42 95  1  1  0  0  0
 48 49  2  0  0  0  0
 43 48  1  6  0  0  0
 50 51  2  0  0  0  0
 53 54  1  0  0  0  0
 54 55  1  0  0  0  0
 55 56  1  0  0  0  0
 56 57  2  0  0  0  0
 57 58  1  0  0  0  0
 53 58  1  0  0  0  0
 59 60  1  0  0  0  0
 60 61  1  0  0  0  0
 61 54  1  0  0  0  0
 59 55  1  0  0  0  0
 53107  1  1  0  0  0
 61 62  1  1  0  0  0
 63 64  2  0  0  0  0
 65 66  1  0  0  0  0
 63 65  1  0  0  0  0
 56 63  1  0  0  0  0
 60 52  1  6  0  0  0
 50 52  1  0  0  0  0
 45 50  1  0  0  0  0
 44 39  1  6  0  0  0
 31 37  1  1  0  0  0
 26 27  1  0  0  0  0
  8 26  1  6  0  0  0
  3 67  1  6  0  0  0
  2 68  1  6  0  0  0
 12 69  1  0  0  0  0
 55 70  1  1  0  0  0
 54 71  1  1  0  0  0
M  END
>  <cdx:fragmentId>
12979

$$$$
