800045.cdx
  Mrv1902 05222410232D          

 36 38  0  0  0  0            999 V2000
    5.0815  -12.3929    0.0000 C   0  0  0  0  0  0  0  0  0  0  0  0
    5.0716  -11.5679    0.0000 C   0  0  0  0  0  0  0  0  0  0  0  0
    8.3673   -7.4005    0.0000 C   0  0  0  0  0  0  0  0  0  0  0  0
    8.6537   -6.6268    0.0000 O   0  0  0  0  0  0  0  0  0  0  0  0
    2.9135  -10.3562    0.0000 O   0  0  0  0  0  0  0  0  0  0  0  0
    3.6131   -9.1102    0.0000 O   0  0  0  0  0  0  0  0  0  0  0  0
    3.6230   -9.9352    0.0000 C   0  0  0  0  0  0  0  0  0  0  0  0
    4.3423  -10.3391    0.0000 C   0  0  0  0  0  0  0  0  0  0  0  0
    5.0518   -9.9181    0.0000 C   0  0  0  0  0  0  0  0  0  0  0  0
    7.9036   -8.2339    0.0000 C   0  0  0  0  0  0  0  0  0  0  0  0
    5.7613   -9.4970    0.0000 C   0  0  0  0  0  0  0  0  0  0  0  0
    7.9055  -10.7088    0.0000 C   0  0  0  0  0  0  0  0  0  0  0  0
    4.3522  -11.1640    0.0000 C   0  0  0  0  0  0  0  0  0  0  0  0
    8.6971  -10.1293    0.0000 C   0  0  0  0  0  0  0  0  0  0  0  0
    9.1740   -9.4561    0.0000 C   0  0  2  0  0  0  0  0  0  0  0  0
    8.6811   -8.7945    0.0000 C   0  0  1  0  0  0  0  0  0  0  0  0
    7.2000  -10.3048    0.0000 C   0  0  0  0  0  0  0  0  0  0  0  0
    7.2099  -11.1298    0.0000 C   0  0  0  0  0  0  0  0  0  0  0  0
    6.5004  -11.5508    0.0000 C   0  0  0  0  0  0  0  0  0  0  0  0
    5.7810  -11.1469    0.0000 C   0  0  2  0  0  0  0  0  0  0  0  0
    5.7712  -10.3220    0.0000 C   0  0  1  0  0  0  0  0  0  0  0  0
    6.4806   -9.9009    0.0000 C   0  0  0  0  0  0  0  0  0  0  0  0
    6.4708   -9.0760    0.0000 C   0  0  0  0  0  0  0  0  0  0  0  0
    7.1802   -8.6550    0.0000 C   0  0  0  0  0  0  0  0  0  0  0  0
    7.8996   -9.0589    0.0000 C   0  0  2  0  0  0  0  0  0  0  0  0
    7.9095   -9.8838    0.0000 C   0  0  2  0  0  0  0  0  0  0  0  0
    9.7209   -7.7839    0.0000 C   0  0  0  0  0  0  0  0  0  0  0  0
    8.9266   -8.0069    0.0000 C   0  0  1  0  0  0  0  0  0  0  0  0
    9.4736   -8.5651    0.0000 H   0  0  0  0  0  0  0  0  0  0  0  0
    9.9249   -6.9845    0.0000 C   0  0  0  0  0  0  0  0  0  0  0  0
   10.7191   -6.7614    0.0000 C   0  0  0  0  0  0  0  0  0  0  0  0
   10.9231   -5.9620    0.0000 C   0  0  0  0  0  0  0  0  0  0  0  0
   10.3328   -5.3857    0.0000 C   0  0  0  0  0  0  0  0  0  0  0  0
   11.7174   -5.7390    0.0000 C   0  0  0  0  0  0  0  0  0  0  0  0
   11.3094   -7.3377    0.0000 C   0  0  0  0  0  0  0  0  0  0  0  0
    9.9989   -9.4462    0.0000 O   0  0  0  0  0  0  0  0  0  0  0  0
 28 16  1  0  0  0  0
 21  9  1  0  0  0  0
  8  7  1  0  0  0  0
  7  5  1  0  0  0  0
  7  6  2  0  0  0  0
  9  8  1  0  0  0  0
 25 10  1  1  0  0  0
 21 11  1  1  0  0  0
 26 12  1  6  0  0  0
 20  2  1  1  0  0  0
 16 25  1  0  0  0  0
 14 26  1  0  0  0  0
 15 14  1  0  0  0  0
 16 15  1  0  0  0  0
 22 17  1  0  0  0  0
 26 17  1  0  0  0  0
 18 17  2  0  0  0  0
 19 18  1  0  0  0  0
 20 19  1  0  0  0  0
 21 20  1  0  0  0  0
 22 21  1  0  0  0  0
 23 22  2  0  0  0  0
 24 23  1  0  0  0  0
 25 24  1  0  0  0  0
 26 25  1  0  0  0  0
 28  3  1  6  0  0  0
  1  2  2  0  0  0  0
  2 13  1  0  0  0  0
  3  4  1  0  0  0  0
 16 29  1  6  0  0  0
 27 30  1  0  0  0  0
 30 31  1  0  0  0  0
 31 32  1  0  0  0  0
 32 33  1  0  0  0  0
 32 34  1  0  0  0  0
 31 35  2  0  0  0  0
 15 36  1  6  0  0  0
 27 28  1  0  0  0  0
M  END
>  <cdx:fragmentId>
123564

$$$$
