800077.cdx
  Mrv1902 05222410222D          

 24 28  0  0  0  0            999 V2000
    8.5109   -8.0261    0.0000 H   0  0  0  0  0  0  0  0  0  0  0  0
    5.5961   -5.7476    0.0000 H   0  0  0  0  0  0  0  0  0  0  0  0
    5.5127   -8.0411    0.0000 H   0  0  0  0  0  0  0  0  0  0  0  0
    7.0183   -8.1169    0.0000 O   0  0  0  0  0  0  0  0  0  0  0  0
    7.5927   -6.7828    0.0000 C   0  0  0  0  0  0  0  0  0  0  0  0
    7.7579  -10.3373    0.0000 C   0  0  0  0  0  0  0  0  0  0  0  0
    7.0394   -9.9318    0.0000 C   0  0  0  0  0  0  0  0  0  0  0  0
    6.3290  -10.3513    0.0000 C   0  0  0  0  0  0  0  0  0  0  0  0
    5.6866   -9.9334    0.0000 O   0  0  0  0  0  0  0  0  0  0  0  0
    8.0311   -5.4918    0.0000 O   0  0  0  0  0  0  0  0  0  0  0  0
    7.0264   -8.9419    0.0000 C   0  0  2  0  0  0  0  0  0  0  0  0
    7.0094   -7.3662    0.0000 C   0  0  2  0  0  0  0  0  0  0  0  0
    6.2570   -8.4968    0.0000 C   0  0  2  0  0  0  0  0  0  0  0  0
    6.2700   -9.3500    0.0000 C   0  0  0  0  0  0  0  0  0  0  0  0
    7.7991   -9.3238    0.0000 O   0  0  0  0  0  0  0  0  0  0  0  0
    7.7961   -8.4434    0.0000 C   0  0  1  0  0  0  0  0  0  0  0  0
    7.7964   -7.6136    0.0000 C   0  0  1  0  0  0  0  0  0  0  0  0
    8.2749   -6.9416    0.0000 O   0  0  0  0  0  0  0  0  0  0  0  0
    7.7836   -6.2788    0.0000 C   0  0  0  0  0  0  0  0  0  0  0  0
    7.0015   -6.5412    0.0000 C   0  0  2  0  0  0  0  0  0  0  0  0
    6.8223   -5.7359    0.0000 O   0  0  0  0  0  0  0  0  0  0  0  0
    6.2145   -6.2938    0.0000 C   0  0  2  0  0  0  0  0  0  0  0  0
    5.7359   -6.9658    0.0000 C   0  0  0  0  0  0  0  0  0  0  0  0
    6.2272   -7.6286    0.0000 C   0  0  2  0  0  0  0  0  0  0  0  0
 17  1  1  1  0  0  0
 22  2  1  6  0  0  0
 24  3  1  1  0  0  0
 11  4  1  6  0  0  0
 12  5  1  1  0  0  0
 11  7  1  0  0  0  0
  7  6  1  0  0  0  0
  8  7  1  0  0  0  0
 14  9  2  0  0  0  0
 19 10  2  0  0  0  0
 20 12  1  0  0  0  0
 22 20  1  0  0  0  0
 11 16  1  0  0  0  0
 13 11  1  0  0  0  0
 12 17  1  0  0  0  0
 24 12  1  0  0  0  0
 24 13  1  0  0  0  0
 13 14  1  6  0  0  0
 15 14  1  0  0  0  0
 16 15  1  6  0  0  0
 17 16  1  0  0  0  0
 18 17  1  0  0  0  0
 19 18  1  0  0  0  0
 20 19  1  0  0  0  0
 20 21  1  1  0  0  0
 22 21  1  0  0  0  0
 23 22  1  0  0  0  0
 24 23  1  0  0  0  0
M  END
>  <cdx:fragmentId>
238828

$$$$
