3084336.cdx
  Mrv1902 05222410202D          

 23 23  0  0  0  0            999 V2000
   16.1832   -8.1703    0.0000 C   0  0  0  0  0  0  0  0  0  0  0  0
   15.4688   -8.5828    0.0000 C   0  0  0  0  0  0  0  0  0  0  0  0
   14.7543   -8.1703    0.0000 C   0  0  0  0  0  0  0  0  0  0  0  0
   14.0398   -8.5828    0.0000 C   0  0  0  0  0  0  0  0  0  0  0  0
   13.3253   -8.1703    0.0000 C   0  0  0  0  0  0  0  0  0  0  0  0
   12.6108   -8.5828    0.0000 C   0  0  0  0  0  0  0  0  0  0  0  0
   11.8963   -8.1703    0.0000 C   0  0  0  0  0  0  0  0  0  0  0  0
   11.1818   -8.5828    0.0000 C   0  0  0  0  0  0  0  0  0  0  0  0
   10.4673   -8.1703    0.0000 C   0  0  0  0  0  0  0  0  0  0  0  0
   10.4673   -7.3452    0.0000 C   0  0  0  0  0  0  0  0  0  0  0  0
   16.1832   -7.3452    0.0000 O   0  0  0  0  0  0  0  0  0  0  0  0
   16.8978   -8.5828    0.0000 N   0  0  0  0  0  0  0  0  0  0  0  0
    9.7529   -8.5828    0.0000 C   0  0  0  0  0  0  0  0  0  0  0  0
   17.6122   -8.1703    0.0000 C   0  0  0  0  0  0  0  0  0  0  0  0
   18.3267   -8.5828    0.0000 C   0  0  0  0  0  0  0  0  0  0  0  0
   19.0412   -8.1703    0.0000 C   0  0  0  0  0  0  0  0  0  0  0  0
   19.7557   -8.5828    0.0000 C   0  0  0  0  0  0  0  0  0  0  0  0
   19.7557   -9.4078    0.0000 C   0  0  0  0  0  0  0  0  0  0  0  0
   19.0412   -9.8203    0.0000 C   0  0  0  0  0  0  0  0  0  0  0  0
   18.3267   -9.4078    0.0000 C   0  0  0  0  0  0  0  0  0  0  0  0
   20.4701   -8.1703    0.0000 O   0  0  0  0  0  0  0  0  0  0  0  0
   21.1847   -8.5828    0.0000 C   0  0  0  0  0  0  0  0  0  0  0  0
   20.4701   -9.8203    0.0000 O   0  0  0  0  0  0  0  0  0  0  0  0
  1  2  1  0  0  0  0
  2  3  1  0  0  0  0
  3  4  1  0  0  0  0
  4  5  1  0  0  0  0
  5  6  1  0  0  0  0
  6  7  1  0  0  0  0
  7  8  1  0  0  0  0
  8  9  1  0  0  0  0
  9 10  1  0  0  0  0
  1 11  2  0  0  0  0
  1 12  1  0  0  0  0
  9 13  1  0  0  0  0
 15 16  1  0  0  0  0
 16 17  2  0  0  0  0
 17 18  1  0  0  0  0
 18 19  2  0  0  0  0
 19 20  1  0  0  0  0
 15 20  2  0  0  0  0
 21 22  1  0  0  0  0
 17 21  1  0  0  0  0
 18 23  1  0  0  0  0
 14 15  1  0  0  0  0
 12 14  1  0  0  0  0
M  END
>  <cdx:fragmentId>
3374

$$$$
