800060.cdx
  Mrv1902 05222410232D          

 29 32  0  0  0  0            999 V2000
    8.4810   -7.8020    0.0000 H   0  0  0  0  0  0  0  0  0  0  0  0
    7.7507   -5.7116    0.0000 C   0  0  0  0  0  0  0  0  0  0  0  0
    7.7507   -4.9057    0.0000 C   0  0  0  0  0  0  0  0  0  0  0  0
    7.7758   -6.5428    0.0000 H   0  0  0  0  0  0  0  0  0  0  0  0
    8.4810   -6.1398    0.0000 C   0  0  2  0  0  0  0  0  0  0  0  0
    9.1862   -5.7116    0.0000 N   0  0  0  0  0  0  0  0  0  0  0  0
    9.1862   -4.9057    0.0000 C   0  0  0  0  0  0  0  0  0  0  0  0
    8.4810   -4.4776    0.0000 C   0  0  0  0  0  0  0  0  0  0  0  0
    8.4810   -6.9708    0.0000 C   0  0  0  0  0  0  0  0  0  0  0  0
    9.1862   -7.3738    0.0000 C   0  0  1  0  0  0  0  0  0  0  0  0
    9.9165   -6.9708    0.0000 C   0  0  2  0  0  0  0  0  0  0  0  0
    9.9165   -6.1398    0.0000 C   0  0  0  0  0  0  0  0  0  0  0  0
    9.1862   -8.2050    0.0000 C   0  0  0  0  0  0  0  0  0  0  0  0
    9.9165   -8.6079    0.0000 C   0  0  0  0  0  0  0  0  0  0  0  0
   10.6217   -8.2050    0.0000 O   0  0  0  0  0  0  0  0  0  0  0  0
   10.6217   -7.3738    0.0000 C   0  0  0  0  0  0  0  0  0  0  0  0
   11.3270   -6.9708    0.0000 C   0  0  0  0  0  0  0  0  0  0  0  0
   11.3270   -8.6079    0.0000 C   0  0  0  0  0  0  0  0  0  0  0  0
    7.7314   -9.8337    0.0000 C   0  0  0  0  0  0  0  0  0  0  0  0
    7.8300   -8.2243    0.0000 O   0  0  0  0  0  0  0  0  0  0  0  0
    8.4573   -9.4417    0.0000 O   0  0  0  0  0  0  0  0  0  0  0  0
    8.4810   -8.6079    0.0000 C   0  0  0  0  0  0  0  0  0  0  0  0
    6.9842   -4.6567    0.0000 C   0  0  0  0  0  0  0  0  0  0  0  0
    6.5105   -5.3087    0.0000 C   0  0  0  0  0  0  0  0  0  0  0  0
    6.9842   -5.9607    0.0000 N   0  0  0  0  0  0  0  0  0  0  0  0
    6.6564   -3.9205    0.0000 C   0  0  0  0  0  0  0  0  0  0  0  0
    5.8549   -3.8362    0.0000 C   0  0  0  0  0  0  0  0  0  0  0  0
    5.3812   -4.4882    0.0000 C   0  0  0  0  0  0  0  0  0  0  0  0
    5.7090   -5.2245    0.0000 C   0  0  0  0  0  0  0  0  0  0  0  0
 21 19  1  0  0  0  0
 22 20  2  0  0  0  0
 22 21  1  0  0  0  0
 10  1  1  6  0  0  0
  2  3  2  0  0  0  0
  5  4  1  1  0  0  0
 13 22  1  0  0  0  0
  2  5  1  0  0  0  0
  5  6  1  0  0  0  0
  6  7  1  0  0  0  0
  7  8  1  0  0  0  0
  3  8  1  0  0  0  0
  5  9  1  0  0  0  0
  9 10  1  0  0  0  0
 10 11  1  0  0  0  0
 11 12  1  0  0  0  0
  6 12  1  0  0  0  0
 10 13  1  0  0  0  0
 13 14  2  0  0  0  0
 14 15  1  0  0  0  0
 11 16  1  6  0  0  0
 16 17  1  0  0  0  0
 15 18  1  0  0  0  0
  3 23  1  0  0  0  0
 23 24  2  0  0  0  0
 24 25  1  0  0  0  0
 25  2  1  0  0  0  0
 23 26  1  0  0  0  0
 26 27  2  0  0  0  0
 27 28  1  0  0  0  0
 28 29  2  0  0  0  0
 29 24  1  0  0  0  0
M  END
>  <cdx:fragmentId>
3

$$$$
