800084.cdx
  Mrv1902 05222410242D          

 35 41  0  0  0  0            999 V2000
    4.2080   -6.9025    0.0000 C   0  0  0  0  0  0  0  0  0  0  0  0
    4.2080   -7.7275    0.0000 C   0  0  1  0  0  0  0  0  0  0  0  0
    4.9225   -8.1400    0.0000 C   0  0  2  0  0  0  0  0  0  0  0  0
    5.6370   -7.7275    0.0000 C   0  0  2  0  0  0  0  0  0  0  0  0
    5.6370   -6.9025    0.0000 C   0  0  0  0  0  0  0  0  0  0  0  0
    4.9225   -6.4900    0.0000 N   0  0  0  0  0  0  0  0  0  0  0  0
    6.2820   -8.2419    0.0000 C   0  0  2  0  0  0  0  0  0  0  0  0
    7.0863   -8.0583    0.0000 C   0  0  1  0  0  0  0  0  0  0  0  0
    7.4443   -7.3150    0.0000 C   0  0  2  0  0  0  0  0  0  0  0  0
    7.0863   -6.5717    0.0000 C   0  0  2  0  0  0  0  0  0  0  0  0
    6.2820   -6.3881    0.0000 C   0  0  2  0  0  0  0  0  0  0  0  0
    4.2080   -8.5525    0.0000 C   0  0  0  0  0  0  0  0  0  0  0  0
    5.6370   -8.5525    0.0000 C   0  0  0  0  0  0  0  0  0  0  0  0
    4.9225   -8.9650    0.0000 C   0  0  1  0  0  0  0  0  0  0  0  0
    4.9225   -9.7900    0.0000 O   0  0  0  0  0  0  0  0  0  0  0  0
    4.2080  -10.2025    0.0000 C   0  0  0  0  0  0  0  0  0  0  0  0
    3.4936   -9.7900    0.0000 C   0  0  0  0  0  0  0  0  0  0  0  0
    4.2080  -11.0275    0.0000 O   0  0  0  0  0  0  0  0  0  0  0  0
    6.0984   -9.0462    0.0000 H   0  0  0  0  0  0  0  0  0  0  0  0
    7.6007   -8.7033    0.0000 O   0  0  0  0  0  0  0  0  0  0  0  0
    8.2693   -7.3150    0.0000 H   0  0  0  0  0  0  0  0  0  0  0  0
    7.6007   -5.9267    0.0000 O   0  0  0  0  0  0  0  0  0  0  0  0
    6.0984   -5.5838    0.0000 O   0  0  0  0  0  0  0  0  0  0  0  0
    7.2993   -5.1587    0.0000 C   0  0  0  0  0  0  0  0  0  0  0  0
    7.8136   -4.5137    0.0000 O   0  0  0  0  0  0  0  0  0  0  0  0
    6.4835   -5.0358    0.0000 C   0  0  0  0  0  0  0  0  0  0  0  0
    6.9850   -6.9300    0.0000 C   0  0  0  0  0  0  0  0  0  0  0  0
    5.9675   -7.3425    0.0000 C   0  0  2  0  0  0  0  0  0  0  0  0
    4.5650   -7.3150    0.0000 C   0  0  1  0  0  0  0  0  0  0  0  0
    6.3800   -6.9025    0.0000 C   0  0  0  0  0  0  0  0  0  0  0  0
    6.7715   -7.7269    0.0000 C   0  0  0  0  0  0  0  0  0  0  0  0
    5.2800   -7.0675    0.0000 C   0  0  0  0  0  0  0  0  0  0  0  0
    3.7681   -7.1015    0.0000 H   0  0  0  0  0  0  0  0  0  0  0  0
    3.3830   -7.7275    0.0000 C   0  0  0  0  0  0  0  0  0  0  0  0
    5.3350   -8.8545    0.0000 H   0  0  0  0  0  0  0  0  0  0  0  0
  1  2  1  0  0  0  0
  2  3  1  0  0  0  0
  3  4  1  0  0  0  0
  4  5  1  0  0  0  0
  5  6  1  0  0  0  0
  6  1  1  0  0  0  0
  4  7  1  0  0  0  0
  7  8  1  0  0  0  0
  8  9  1  0  0  0  0
  9 10  1  0  0  0  0
 10 11  1  0  0  0  0
 11  5  1  0  0  0  0
  2 12  1  0  0  0  0
  4 13  1  1  0  0  0
 12 14  1  0  0  0  0
 14 13  1  0  0  0  0
 14 15  1  1  0  0  0
 15 16  1  0  0  0  0
 16 17  1  0  0  0  0
 16 18  2  0  0  0  0
  7 19  1  6  0  0  0
  8 20  1  1  0  0  0
  9 21  1  6  0  0  0
 10 22  1  6  0  0  0
 11 23  1  6  0  0  0
 22 24  1  0  0  0  0
 24 25  2  0  0  0  0
 24 26  1  0  0  0  0
  9 27  1  0  0  0  0
 11 28  1  0  0  0  0
  3 29  1  0  0  0  0
 28 30  1  0  0  0  0
  7 28  1  0  0  0  0
 27 30  1  0  0  0  0
 27 31  2  0  0  0  0
 29  6  1  0  0  0  0
 28 32  1  1  0  0  0
 32 29  1  0  0  0  0
 29 33  1  6  0  0  0
  2 34  1  6  0  0  0
  3 35  1  6  0  0  0
M  END
>  <cdx:fragmentId>
156

$$$$
