1000246.cdx
  Mrv1902 05222410212D          

 28 28  0  0  0  0            999 V2000
    8.7843  -10.5451    0.0000 C   0  0  0  0  0  0  0  0  0  0  0  0
    8.7843  -11.3701    0.0000 C   0  0  0  0  0  0  0  0  0  0  0  0
    9.4988  -11.7826    0.0000 C   0  0  0  0  0  0  0  0  0  0  0  0
   10.2132  -11.3701    0.0000 C   0  0  0  0  0  0  0  0  0  0  0  0
   10.2132  -10.5451    0.0000 C   0  0  0  0  0  0  0  0  0  0  0  0
    9.4988  -10.1326    0.0000 C   0  0  0  0  0  0  0  0  0  0  0  0
    9.4988   -9.3076    0.0000 C   0  0  0  0  0  0  0  0  0  0  0  0
    8.7843   -8.8951    0.0000 O   0  0  0  0  0  0  0  0  0  0  0  0
   10.2132   -8.8951    0.0000 O   0  0  0  0  0  0  0  0  0  0  0  0
   10.2132   -8.0701    0.0000 C   0  0  0  0  0  0  0  0  0  0  0  0
   10.9277   -7.6576    0.0000 C   0  0  0  0  0  0  0  0  0  0  0  0
   10.9277   -6.8326    0.0000 C   0  0  0  0  0  0  0  0  0  0  0  0
   11.6422   -8.0701    0.0000 C   0  0  0  0  0  0  0  0  0  0  0  0
   12.3567   -7.6576    0.0000 C   0  0  0  0  0  0  0  0  0  0  0  0
   11.6422   -6.4201    0.0000 C   0  0  0  0  0  0  0  0  0  0  0  0
   11.6422   -5.5951    0.0000 C   0  0  0  0  0  0  0  0  0  0  0  0
   12.3567   -5.1826    0.0000 C   0  0  0  0  0  0  0  0  0  0  0  0
    8.0698  -10.1326    0.0000 C   0  0  0  0  0  0  0  0  0  0  0  0
    7.3554  -10.5451    0.0000 O   0  0  0  0  0  0  0  0  0  0  0  0
    8.0698   -9.3076    0.0000 O   0  0  0  0  0  0  0  0  0  0  0  0
    6.6409  -10.1326    0.0000 C   0  0  0  0  0  0  0  0  0  0  0  0
    5.9264  -10.5451    0.0000 C   0  0  0  0  0  0  0  0  0  0  0  0
    5.2119  -10.1326    0.0000 C   0  0  0  0  0  0  0  0  0  0  0  0
    4.4975  -10.5451    0.0000 C   0  0  0  0  0  0  0  0  0  0  0  0
    3.7830  -10.1326    0.0000 C   0  0  0  0  0  0  0  0  0  0  0  0
    3.0685  -10.5451    0.0000 C   0  0  0  0  0  0  0  0  0  0  0  0
    5.9264  -11.3701    0.0000 C   0  0  0  0  0  0  0  0  0  0  0  0
    5.2119  -11.7826    0.0000 C   0  0  0  0  0  0  0  0  0  0  0  0
  1  2  2  0  0  0  0
  2  3  1  0  0  0  0
  3  4  2  0  0  0  0
  4  5  1  0  0  0  0
  5  6  2  0  0  0  0
  6  1  1  0  0  0  0
  6  7  1  0  0  0  0
  7  8  2  0  0  0  0
  7  9  1  0  0  0  0
  9 10  1  0  0  0  0
 10 11  1  0  0  0  0
 11 12  1  0  0  0  0
 11 13  1  0  0  0  0
 13 14  1  0  0  0  0
 12 15  1  0  0  0  0
 15 16  1  0  0  0  0
 16 17  1  0  0  0  0
  1 18  1  0  0  0  0
 18 19  1  0  0  0  0
 18 20  2  0  0  0  0
 19 21  1  0  0  0  0
 21 22  1  0  0  0  0
 22 23  1  0  0  0  0
 23 24  1  0  0  0  0
 24 25  1  0  0  0  0
 25 26  1  0  0  0  0
 22 27  1  0  0  0  0
 27 28  1  0  0  0  0
M  END
>  <cdx:fragmentId>
5

$$$$
