1000011.cdx
  Mrv1902 05222410232D          

 26 25  0  0  0  0            999 V2000
    3.2105   -4.7308    0.0000 O   0  0  0  0  0  0  0  0  0  0  0  0
    3.9250   -5.1433    0.0000 C   0  0  0  0  0  0  0  0  0  0  0  0
    4.6394   -4.7308    0.0000 C   0  0  0  0  0  0  0  0  0  0  0  0
    3.9250   -5.9683    0.0000 O   0  0  0  0  0  0  0  0  0  0  0  0
    3.2105   -6.3808    0.0000 C   0  0  0  0  0  0  0  0  0  0  0  0
    3.2105   -7.2058    0.0000 C   0  0  0  0  0  0  0  0  0  0  0  0
    3.9250   -7.6183    0.0000 C   0  0  0  0  0  0  0  0  0  0  0  0
    4.6394   -7.2058    0.0000 O   0  0  0  0  0  0  0  0  0  0  0  0
    5.3539   -7.6183    0.0000 C   0  0  0  0  0  0  0  0  0  0  0  0
    5.3539   -8.4433    0.0000 O   0  0  0  0  0  0  0  0  0  0  0  0
    6.0684   -7.2058    0.0000 C   0  0  0  0  0  0  0  0  0  0  0  0
    6.7828   -7.6183    0.0000 C   0  0  0  0  0  0  0  0  0  0  0  0
    7.4973   -7.2058    0.0000 C   0  0  0  0  0  0  0  0  0  0  0  0
    6.7828   -8.4433    0.0000 C   0  0  0  0  0  0  0  0  0  0  0  0
    3.9250   -8.4433    0.0000 C   0  0  0  0  0  0  0  0  0  0  0  0
    4.6394   -8.8558    0.0000 C   0  0  0  0  0  0  0  0  0  0  0  0
    4.6394   -9.6808    0.0000 C   0  0  0  0  0  0  0  0  0  0  0  0
    5.3539  -10.0933    0.0000 C   0  0  0  0  0  0  0  0  0  0  0  0
    6.0684   -9.6808    0.0000 C   0  0  0  0  0  0  0  0  0  0  0  0
    6.7828  -10.0933    0.0000 C   0  0  0  0  0  0  0  0  0  0  0  0
    7.4973  -10.5058    0.0000 C   0  0  0  0  0  0  0  0  0  0  0  0
    8.2118  -10.9183    0.0000 C   0  0  0  0  0  0  0  0  0  0  0  0
    8.9263  -11.3308    0.0000 C   0  0  0  0  0  0  0  0  0  0  0  0
    9.6407  -10.9183    0.0000 C   0  0  0  0  0  0  0  0  0  0  0  0
   10.3552  -11.3308    0.0000 C   0  0  0  0  0  0  0  0  0  0  0  0
   11.0697  -10.9183    0.0000 O   0  0  0  0  0  0  0  0  0  0  0  0
  1  2  2  0  0  0  0
  2  3  1  0  0  0  0
  2  4  1  0  0  0  0
  4  5  1  0  0  0  0
  5  6  1  0  0  0  0
  6  7  1  0  0  0  0
  7  8  1  0  0  0  0
  8  9  1  0  0  0  0
  9 10  2  0  0  0  0
  9 11  1  0  0  0  0
 11 12  2  0  0  0  0
 12 13  1  0  0  0  0
 12 14  1  0  0  0  0
  7 15  1  0  0  0  0
 15 16  2  0  0  0  0
 16 17  1  0  0  0  0
 17 18  2  0  0  0  0
 18 19  1  0  0  0  0
 19 20  3  0  0  0  0
 20 21  1  0  0  0  0
 21 22  3  0  0  0  0
 22 23  1  0  0  0  0
 23 24  2  0  0  0  0
 24 25  1  0  0  0  0
 25 26  1  0  0  0  0
M  END
>  <cdx:fragmentId>
76

$$$$
