1000013.cdx
  Mrv1902 05222410212D          

 23 22  0  0  0  0            999 V2000
    3.9415   -4.6741    0.0000 C   0  0  0  0  0  0  0  0  0  0  0  0
    4.6559   -5.0866    0.0000 C   0  0  0  0  0  0  0  0  0  0  0  0
    5.3704   -4.6741    0.0000 C   0  0  0  0  0  0  0  0  0  0  0  0
    4.6559   -5.9116    0.0000 C   0  0  0  0  0  0  0  0  0  0  0  0
    3.9415   -6.3241    0.0000 C   0  0  0  0  0  0  0  0  0  0  0  0
    3.9415   -7.1491    0.0000 O   0  0  0  0  0  0  0  0  0  0  0  0
    3.2270   -5.9116    0.0000 O   0  0  0  0  0  0  0  0  0  0  0  0
    3.2270   -7.5616    0.0000 C   0  0  0  0  0  0  0  0  0  0  0  0
    3.2270   -8.3866    0.0000 C   0  0  0  0  0  0  0  0  0  0  0  0
    3.9415   -8.7991    0.0000 C   0  0  0  0  0  0  0  0  0  0  0  0
    4.6559   -8.3866    0.0000 O   0  0  0  0  0  0  0  0  0  0  0  0
    3.9415   -9.6241    0.0000 C   0  0  0  0  0  0  0  0  0  0  0  0
    4.6559  -10.0366    0.0000 C   0  0  0  0  0  0  0  0  0  0  0  0
    4.6559  -10.8616    0.0000 C   0  0  0  0  0  0  0  0  0  0  0  0
    5.3704  -11.2741    0.0000 C   0  0  0  0  0  0  0  0  0  0  0  0
    6.0849  -10.8616    0.0000 C   0  0  0  0  0  0  0  0  0  0  0  0
    6.7993  -11.2741    0.0000 C   0  0  0  0  0  0  0  0  0  0  0  0
    7.5138  -11.6866    0.0000 C   0  0  0  0  0  0  0  0  0  0  0  0
    8.2283  -12.0991    0.0000 C   0  0  0  0  0  0  0  0  0  0  0  0
    8.9428  -12.5116    0.0000 C   0  0  0  0  0  0  0  0  0  0  0  0
    9.6572  -12.0991    0.0000 C   0  0  0  0  0  0  0  0  0  0  0  0
   10.3717  -12.5116    0.0000 C   0  0  0  0  0  0  0  0  0  0  0  0
   11.0862  -12.0991    0.0000 O   0  0  0  0  0  0  0  0  0  0  0  0
  1  2  1  0  0  0  0
  2  3  1  0  0  0  0
  2  4  1  0  0  0  0
  4  5  1  0  0  0  0
  5  6  1  0  0  0  0
  5  7  2  0  0  0  0
  6  8  1  0  0  0  0
  8  9  1  0  0  0  0
  9 10  1  0  0  0  0
 10 11  1  0  0  0  0
 10 12  1  0  0  0  0
 12 13  2  0  0  0  0
 13 14  1  0  0  0  0
 14 15  2  0  0  0  0
 15 16  1  0  0  0  0
 16 17  3  0  0  0  0
 17 18  1  0  0  0  0
 18 19  3  0  0  0  0
 19 20  1  0  0  0  0
 20 21  2  0  0  0  0
 21 22  1  0  0  0  0
 22 23  1  0  0  0  0
M  END
>  <cdx:fragmentId>
69

$$$$
