14038848.cdx
  Mrv1902 05222410222D          

 16 18  0  0  0  0            999 V2000
   15.5786  -10.2725    0.0000 C   0  0  0  0  0  0  0  0  0  0  0  0
   16.0635   -9.6051    0.0000 C   0  0  0  0  0  0  0  0  0  0  0  0
   15.5786   -8.9377    0.0000 C   0  0  0  0  0  0  0  0  0  0  0  0
   14.7940   -9.1926    0.0000 C   0  0  0  0  0  0  0  0  0  0  0  0
   14.1490   -8.6782    0.0000 C   0  0  0  0  0  0  0  0  0  0  0  0
   13.3447   -8.8618    0.0000 C   0  0  0  0  0  0  0  0  0  0  0  0
   12.9867   -9.6051    0.0000 C   0  0  0  0  0  0  0  0  0  0  0  0
   13.3447  -10.3484    0.0000 C   0  0  0  0  0  0  0  0  0  0  0  0
   14.1490  -10.5320    0.0000 C   0  0  0  0  0  0  0  0  0  0  0  0
   14.7940  -10.0176    0.0000 C   0  0  0  0  0  0  0  0  0  0  0  0
   13.5878  -11.1368    0.0000 C   0  0  0  0  0  0  0  0  0  0  0  0
   16.1917  -10.8246    0.0000 O   0  0  0  0  0  0  0  0  0  0  0  0
   15.4071  -11.0795    0.0000 C   0  0  0  0  0  0  0  0  0  0  0  0
   14.3326   -7.8739    0.0000 C   0  0  0  0  0  0  0  0  0  0  0  0
   13.8310  -11.9251    0.0000 C   0  0  0  0  0  0  0  0  0  0  0  0
   13.0267  -11.7415    0.0000 C   0  0  0  0  0  0  0  0  0  0  0  0
  1  2  1  0  0  0  0
  2  3  1  0  0  0  0
  3  4  1  0  0  0  0
  4  5  2  0  0  0  0
  5  6  1  0  0  0  0
  6  7  1  0  0  0  0
  7  8  1  0  0  0  0
  8  9  1  0  0  0  0
  9 10  1  0  0  0  0
  1 10  1  0  0  0  0
  4 10  1  0  0  0  0
 11  8  1  0  0  0  0
 11  9  1  0  0  0  0
  1 12  1  0  0  0  0
  1 13  1  0  0  0  0
  5 14  1  0  0  0  0
 11 15  1  0  0  0  0
 11 16  1  0  0  0  0
M  END
>  <cdx:groupId>
110011

>  <cdx:fragmentId>
109964

$$$$
