800072.cdx
  Mrv1902 05222410212D          

 16 16  0  0  0  0            999 V2000
    6.7829   -9.2120    0.0000 C   0  0  2  0  0  0  0  0  0  0  0  0
    7.5061   -9.6090    0.0000 C   0  0  0  0  0  0  0  0  0  0  0  0
    7.5239  -10.4339    0.0000 C   0  0  0  0  0  0  0  0  0  0  0  0
    6.8185  -10.8616    0.0000 C   0  0  0  0  0  0  0  0  0  0  0  0
    6.0953  -10.4646    0.0000 C   0  0  0  0  0  0  0  0  0  0  0  0
    6.0775   -9.6398    0.0000 C   0  0  0  0  0  0  0  0  0  0  0  0
    6.8362  -11.6865    0.0000 C   0  0  0  0  0  0  0  0  0  0  0  0
    6.3704   -8.4976    0.0000 O   0  0  0  0  0  0  0  0  0  0  0  0
    7.2781   -8.5521    0.0000 C   0  0  1  0  0  0  0  0  0  0  0  0
    6.9542   -7.7934    0.0000 C   0  0  0  0  0  0  0  0  0  0  0  0
    8.0972   -8.6510    0.0000 C   0  0  0  0  0  0  0  0  0  0  0  0
    8.5923   -7.9911    0.0000 C   0  0  0  0  0  0  0  0  0  0  0  0
    9.4114   -8.0900    0.0000 C   0  0  0  0  0  0  0  0  0  0  0  0
    9.9065   -7.4301    0.0000 C   0  0  0  0  0  0  0  0  0  0  0  0
   10.7256   -7.5290    0.0000 C   0  0  0  0  0  0  0  0  0  0  0  0
    9.5826   -6.6714    0.0000 C   0  0  0  0  0  0  0  0  0  0  0  0
  1  2  1  0  0  0  0
  2  3  1  0  0  0  0
  3  4  2  0  0  0  0
  4  5  1  0  0  0  0
  5  6  1  0  0  0  0
  1  6  1  0  0  0  0
  4  7  1  0  0  0  0
  1  8  1  6  0  0  0
  1  9  1  0  0  0  0
  9 10  1  1  0  0  0
  9 11  1  0  0  0  0
 11 12  1  0  0  0  0
 12 13  1  0  0  0  0
 13 14  2  0  0  0  0
 14 15  1  0  0  0  0
 14 16  1  0  0  0  0
M  END
>  <cdx:fragmentId>
3526

$$$$
