800049.cdx
  Mrv1902 05222410222D          

112123  0  0  0  0            999 V2000
   10.8200  -11.6655    0.0000 O   0  0  0  0  0  0  0  0  0  0  0  0
   11.5345  -12.0780    0.0000 C   0  0  2  0  0  0  0  0  0  0  0  0
   11.5345  -12.9030    0.0000 C   0  0  1  0  0  0  0  0  0  0  0  0
   10.8200  -13.3155    0.0000 C   0  0  1  0  0  0  0  0  0  0  0  0
   10.1056  -12.9030    0.0000 C   0  0  2  0  0  0  0  0  0  0  0  0
   10.1056  -12.0780    0.0000 C   0  0  2  0  0  0  0  0  0  0  0  0
   12.2490  -13.3155    0.0000 O   0  0  0  0  0  0  0  0  0  0  0  0
   10.8200  -14.1405    0.0000 O   0  0  0  0  0  0  0  0  0  0  0  0
    9.3911  -13.3155    0.0000 O   0  0  0  0  0  0  0  0  0  0  0  0
    9.3911  -11.6655    0.0000 C   0  0  0  0  0  0  0  0  0  0  0  0
   12.2490  -11.6655    0.0000 O   0  0  0  0  0  0  0  0  0  0  0  0
   12.9634   -9.6030    0.0000 O   0  0  0  0  0  0  0  0  0  0  0  0
   12.9634  -10.4280    0.0000 C   0  0  2  0  0  0  0  0  0  0  0  0
   12.2490  -10.8405    0.0000 C   0  0  1  0  0  0  0  0  0  0  0  0
   11.5345  -10.4280    0.0000 C   0  0  2  0  0  0  0  0  0  0  0  0
   11.5345   -9.6030    0.0000 C   0  0  1  0  0  0  0  0  0  0  0  0
   12.2490   -9.1905    0.0000 C   0  0  1  0  0  0  0  0  0  0  0  0
   12.2490   -8.3655    0.0000 C   0  0  0  0  0  0  0  0  0  0  0  0
   11.5345   -7.9530    0.0000 O   0  0  0  0  0  0  0  0  0  0  0  0
   10.8200   -9.1905    0.0000 O   0  0  0  0  0  0  0  0  0  0  0  0
   10.8200  -10.8405    0.0000 O   0  0  0  0  0  0  0  0  0  0  0  0
   13.6779  -10.8405    0.0000 O   0  0  0  0  0  0  0  0  0  0  0  0
   17.2503   -9.6030    0.0000 C   0  0  1  0  0  0  0  0  0  0  0  0
   17.9647   -9.1905    0.0000 C   0  0  2  0  0  0  0  0  0  0  0  0
   18.7494   -9.4454    0.0000 C   0  0  0  0  0  0  0  0  0  0  0  0
   19.2343   -8.7780    0.0000 C   0  0  2  0  0  0  0  0  0  0  0  0
   20.0189   -8.5231    0.0000 O   0  0  0  0  0  0  0  0  0  0  0  0
   20.0189   -7.6981    0.0000 C   0  0  0  0  0  0  0  0  0  0  0  0
   19.2343   -7.4431    0.0000 C   0  0  2  0  0  0  0  0  0  0  0  0
   18.7494   -8.1106    0.0000 C   0  0  2  0  0  0  0  0  0  0  0  0
   17.9647   -8.3655    0.0000 C   0  0  1  0  0  0  0  0  0  0  0  0
   17.2503   -7.9530    0.0000 C   0  0  0  0  0  0  0  0  0  0  0  0
   16.5358   -8.3655    0.0000 C   0  0  0  0  0  0  0  0  0  0  0  0
   16.5358   -9.1905    0.0000 C   0  0  2  0  0  0  0  0  0  0  0  0
   15.8213   -9.6030    0.0000 C   0  0  1  0  0  0  0  0  0  0  0  0
   15.1069   -9.1905    0.0000 C   0  0  0  0  0  0  0  0  0  0  0  0
   14.3924   -9.6030    0.0000 C   0  0  2  0  0  0  0  0  0  0  0  0
   14.3924  -10.4280    0.0000 C   0  0  1  0  0  0  0  0  0  0  0  0
   15.1069  -10.8405    0.0000 C   0  0  0  0  0  0  0  0  0  0  0  0
   15.8213  -10.4280    0.0000 C   0  0  2  0  0  0  0  0  0  0  0  0
   16.5358  -10.8405    0.0000 C   0  0  0  0  0  0  0  0  0  0  0  0
   17.2503  -10.4280    0.0000 C   0  0  0  0  0  0  0  0  0  0  0  0
   20.8394   -7.6118    0.0000 C   0  0  0  0  0  0  0  0  0  0  0  0
   21.3243   -8.2793    0.0000 C   0  0  0  0  0  0  0  0  0  0  0  0
   22.1448   -8.1930    0.0000 C   0  0  1  0  0  0  0  0  0  0  0  0
   22.6297   -8.8605    0.0000 C   0  0  0  0  0  0  0  0  0  0  0  0
   22.4803   -7.4393    0.0000 C   0  0  0  0  0  0  0  0  0  0  0  0
   15.8213   -8.7780    0.0000 C   0  0  0  0  0  0  0  0  0  0  0  0
   17.9647   -7.5405    0.0000 C   0  0  0  0  0  0  0  0  0  0  0  0
   18.9793   -6.6585    0.0000 C   0  0  0  0  0  0  0  0  0  0  0  0
   20.3545   -6.9444    0.0000 O   0  0  0  0  0  0  0  0  0  0  0  0
   17.2503   -8.7780    0.0000 H   0  0  0  0  0  0  0  0  0  0  0  0
   17.9647  -10.0155    0.0000 H   0  0  0  0  0  0  0  0  0  0  0  0
   19.7192   -9.4454    0.0000 H   0  0  0  0  0  0  0  0  0  0  0  0
   18.3877   -7.3691    0.0000 H   0  0  0  0  0  0  0  0  0  0  0  0
   16.5358  -10.0155    0.0000 H   0  0  0  0  0  0  0  0  0  0  0  0
   25.1002   -8.7708    0.0000 O   0  0  0  0  0  0  0  0  0  0  0  0
   25.9282  -10.1980    0.0000 O   0  0  0  0  0  0  0  0  0  0  0  0
   25.1062  -11.6286    0.0000 O   0  0  0  0  0  0  0  0  0  0  0  0
   23.8702  -12.3457    0.0000 O   0  0  0  0  0  0  0  0  0  0  0  0
   23.4562  -11.6321    0.0000 C   0  0  0  0  0  0  0  0  0  0  0  0
   23.8672  -10.9168    0.0000 C   0  0  2  0  0  0  0  0  0  0  0  0
   24.6922  -10.9150    0.0000 C   0  0  2  0  0  0  0  0  0  0  0  0
   25.1032  -10.1997    0.0000 C   0  0  1  0  0  0  0  0  0  0  0  0
   24.6892   -9.4861    0.0000 C   0  0  2  0  0  0  0  0  0  0  0  0
   23.8642   -9.4878    0.0000 C   0  0  1  0  0  0  0  0  0  0  0  0
   23.4532  -10.2032    0.0000 O   0  0  0  0  0  0  0  0  0  0  0  0
   23.4502   -8.7742    0.0000 O   0  0  0  0  0  0  0  0  0  0  0  0
   10.3983   -8.4814    0.0000 C   0  0  2  0  0  0  0  0  0  0  0  0
   10.8015   -7.7617    0.0000 O   0  0  0  0  0  0  0  0  0  0  0  0
   10.3798   -7.0526    0.0000 C   0  0  1  0  0  0  0  0  0  0  0  0
    9.5548   -7.0633    0.0000 C   0  0  2  0  0  0  0  0  0  0  0  0
    9.1516   -7.7831    0.0000 C   0  0  1  0  0  0  0  0  0  0  0  0
    9.5734   -8.4921    0.0000 C   0  0  1  0  0  0  0  0  0  0  0  0
   10.7830   -6.3329    0.0000 C   0  0  0  0  0  0  0  0  0  0  0  0
   10.3613   -5.6238    0.0000 O   0  0  0  0  0  0  0  0  0  0  0  0
    8.3267   -7.7938    0.0000 O   0  0  0  0  0  0  0  0  0  0  0  0
    9.1702   -9.2119    0.0000 O   0  0  0  0  0  0  0  0  0  0  0  0
    9.1331   -6.3542    0.0000 O   0  0  0  0  0  0  0  0  0  0  0  0
    7.6142   -8.2096    0.0000 C   0  0  2  0  0  0  0  0  0  0  0  0
    6.8951   -7.8052    0.0000 O   0  0  0  0  0  0  0  0  0  0  0  0
    6.1853   -8.2257    0.0000 C   0  0  1  0  0  0  0  0  0  0  0  0
    6.1946   -9.0506    0.0000 C   0  0  2  0  0  0  0  0  0  0  0  0
    6.9055   -9.4689    0.0000 C   0  0  1  0  0  0  0  0  0  0  0  0
    7.6071   -9.0623    0.0000 C   0  0  1  0  0  0  0  0  0  0  0  0
    5.4663   -7.8212    0.0000 C   0  0  0  0  0  0  0  0  0  0  0  0
    6.9028  -10.2939    0.0000 O   0  0  0  0  0  0  0  0  0  0  0  0
    5.4808   -9.4642    0.0000 O   0  0  0  0  0  0  0  0  0  0  0  0
    4.7565   -8.2417    0.0000 O   0  0  0  0  0  0  0  0  0  0  0  0
    8.3202   -9.4772    0.0000 O   0  0  0  0  0  0  0  0  0  0  0  0
   15.8213  -11.2530    0.0000 H   0  0  0  0  0  0  0  0  0  0  0  0
   13.6779   -9.1905    0.0000 O   0  0  0  0  0  0  0  0  0  0  0  0
    4.0374   -7.8373    0.0000 C   0  0  2  0  0  0  0  0  0  0  0  0
    4.0235   -7.0124    0.0000 O   0  0  0  0  0  0  0  0  0  0  0  0
    3.3021   -6.6121    0.0000 C   0  0  1  0  0  0  0  0  0  0  0  0
    2.5947   -7.0124    0.0000 C   0  0  2  0  0  0  0  0  0  0  0  0
    2.5947   -7.8373    0.0000 C   0  0  1  0  0  0  0  0  0  0  0  0
    3.3021   -8.2377    0.0000 C   0  0  1  0  0  0  0  0  0  0  0  0
    3.2987   -5.7871    0.0000 C   0  0  0  0  0  0  0  0  0  0  0  0
    1.8820   -8.2529    0.0000 O   0  0  0  0  0  0  0  0  0  0  0  0
    3.2953   -9.0626    0.0000 O   0  0  0  0  0  0  0  0  0  0  0  0
    1.8820   -6.5969    0.0000 O   0  0  0  0  0  0  0  0  0  0  0  0
    2.5825   -5.3776    0.0000 O   0  0  0  0  0  0  0  0  0  0  0  0
    5.1017  -10.1970    0.0000 C   0  0  2  0  0  0  0  0  0  0  0  0
    4.2775  -10.2333    0.0000 O   0  0  0  0  0  0  0  0  0  0  0  0
    3.8974  -10.9655    0.0000 C   0  0  0  0  0  0  0  0  0  0  0  0
    4.3415  -11.6614    0.0000 C   0  0  2  0  0  0  0  0  0  0  0  0
    5.1662  -11.6241    0.0000 C   0  0  1  0  0  0  0  0  0  0  0  0
    5.5463  -10.8919    0.0000 C   0  0  1  0  0  0  0  0  0  0  0  0
    6.3704  -10.8547    0.0000 O   0  0  0  0  0  0  0  0  0  0  0  0
    5.6104  -12.3194    0.0000 O   0  0  0  0  0  0  0  0  0  0  0  0
    3.9614  -12.3936    0.0000 O   0  0  0  0  0  0  0  0  0  0  0  0
 66 68  1  1  0  0  0
 65 57  1  6  0  0  0
 64 58  1  1  0  0  0
 63 59  1  6  0  0  0
 62 61  1  1  0  0  0
 61 60  1  0  0  0  0
 67 62  1  0  0  0  0
 63 62  1  0  0  0  0
 64 63  1  0  0  0  0
 65 64  1  0  0  0  0
 66 65  1  0  0  0  0
 67 66  1  0  0  0  0
  1  2  1  0  0  0  0
  2  3  1  0  0  0  0
  3  4  1  0  0  0  0
  4  5  1  0  0  0  0
  5  6  1  0  0  0  0
  1  6  1  0  0  0  0
  3  7  1  6  0  0  0
  4  8  1  6  0  0  0
  5  9  1  1  0  0  0
  6 10  1  6  0  0  0
 12 13  1  0  0  0  0
 13 14  1  0  0  0  0
 14 15  1  0  0  0  0
 15 16  1  0  0  0  0
 16 17  1  0  0  0  0
 12 17  1  0  0  0  0
 18 19  1  0  0  0  0
 17 18  1  1  0  0  0
 16 20  1  6  0  0  0
 15 21  1  1  0  0  0
 23 24  1  0  0  0  0
 24 25  1  0  0  0  0
 25 26  1  0  0  0  0
 26 27  1  0  0  0  0
 27 28  1  0  0  0  0
 28 29  1  0  0  0  0
 29 30  1  0  0  0  0
 30 31  1  0  0  0  0
 31 32  1  0  0  0  0
 32 33  1  0  0  0  0
 33 34  1  0  0  0  0
 34 35  1  0  0  0  0
 35 36  1  0  0  0  0
 36 37  1  0  0  0  0
 37 38  1  0  0  0  0
 38 39  1  0  0  0  0
 39 40  1  0  0  0  0
 40 41  1  0  0  0  0
 41 42  1  0  0  0  0
 23 42  1  0  0  0  0
 23 34  1  0  0  0  0
 35 40  1  0  0  0  0
 24 31  1  0  0  0  0
 26 30  1  0  0  0  0
 43 44  1  0  0  0  0
 44 45  1  0  0  0  0
 45 46  1  0  0  0  0
 46 68  1  0  0  0  0
 45 47  1  6  0  0  0
 28 43  1  0  0  0  0
 35 48  1  1  0  0  0
 31 49  1  1  0  0  0
 29 50  1  6  0  0  0
 28 51  1  0  0  0  0
 38 22  1  1  0  0  0
 13 22  1  1  0  0  0
 14 11  1  6  0  0  0
  2 11  1  1  0  0  0
 23 52  1  1  0  0  0
 24 53  1  6  0  0  0
 26 54  1  6  0  0  0
 30 55  1  6  0  0  0
 34 56  1  6  0  0  0
 69 20  1  1  0  0  0
 69 70  1  0  0  0  0
 70 71  1  0  0  0  0
 71 72  1  0  0  0  0
 72 73  1  0  0  0  0
 73 74  1  0  0  0  0
 74 69  1  0  0  0  0
 71 75  1  1  0  0  0
 75 76  1  0  0  0  0
 73 77  1  1  0  0  0
 74 78  1  6  0  0  0
 72 79  1  6  0  0  0
 80 77  1  1  0  0  0
 80 81  1  0  0  0  0
 81 82  1  0  0  0  0
 82 83  1  0  0  0  0
 83 84  1  0  0  0  0
 84 85  1  0  0  0  0
 85 80  1  0  0  0  0
 82 86  1  1  0  0  0
 84 87  1  1  0  0  0
 83 88  1  6  0  0  0
 86 89  1  0  0  0  0
 85 90  1  6  0  0  0
 40 91  1  6  0  0  0
 37 92  1  6  0  0  0
 93 89  1  1  0  0  0
 93 94  1  0  0  0  0
 94 95  1  0  0  0  0
 95 96  1  0  0  0  0
 96 97  1  0  0  0  0
 97 98  1  0  0  0  0
 98 93  1  0  0  0  0
 95 99  1  1  0  0  0
 97100  1  1  0  0  0
 98101  1  6  0  0  0
 96102  1  6  0  0  0
 99103  1  0  0  0  0
104 88  1  1  0  0  0
104105  1  0  0  0  0
105106  1  0  0  0  0
106107  1  0  0  0  0
107108  1  0  0  0  0
108109  1  0  0  0  0
109104  1  0  0  0  0
109110  1  6  0  0  0
108111  1  1  0  0  0
107112  1  6  0  0  0
M  END
>  <cdx:fragmentId>
60899

$$$$
