800033.cdx
  Mrv1902 05222410262D          

 22 25  0  0  0  0            999 V2000
    7.6849   -7.7991    0.0000 C   0  0  0  0  0  0  0  0  0  0  0  0
    7.6849   -8.6241    0.0000 C   0  0  0  0  0  0  0  0  0  0  0  0
    6.9704   -9.0366    0.0000 C   0  0  0  0  0  0  0  0  0  0  0  0
    6.2559   -8.6241    0.0000 C   0  0  0  0  0  0  0  0  0  0  0  0
    5.5415   -9.0366    0.0000 C   0  0  0  0  0  0  0  0  0  0  0  0
    4.8270   -8.6241    0.0000 C   0  0  0  0  0  0  0  0  0  0  0  0
    4.8270   -7.7991    0.0000 C   0  0  0  0  0  0  0  0  0  0  0  0
    5.5415   -7.3866    0.0000 C   0  0  0  0  0  0  0  0  0  0  0  0
    6.2559   -7.7991    0.0000 C   0  0  0  0  0  0  0  0  0  0  0  0
    6.9704   -7.3866    0.0000 O   0  0  0  0  0  0  0  0  0  0  0  0
    6.9704   -9.8616    0.0000 O   0  0  0  0  0  0  0  0  0  0  0  0
    4.1125   -7.3866    0.0000 O   0  0  0  0  0  0  0  0  0  0  0  0
    5.5415   -9.8616    0.0000 O   0  0  0  0  0  0  0  0  0  0  0  0
   10.6129  -10.1165    0.0000 O   0  0  0  0  0  0  0  0  0  0  0  0
   11.0978   -9.4491    0.0000 C   0  0  0  0  0  0  0  0  0  0  0  0
   10.6129   -8.7817    0.0000 O   0  0  0  0  0  0  0  0  0  0  0  0
    9.8283   -9.0366    0.0000 C   0  0  0  0  0  0  0  0  0  0  0  0
    9.8283   -9.8616    0.0000 C   0  0  0  0  0  0  0  0  0  0  0  0
    9.1138   -8.6241    0.0000 C   0  0  0  0  0  0  0  0  0  0  0  0
    8.3993   -9.0366    0.0000 C   0  0  0  0  0  0  0  0  0  0  0  0
    8.3993   -9.8616    0.0000 C   0  0  0  0  0  0  0  0  0  0  0  0
    9.1138  -10.2741    0.0000 C   0  0  0  0  0  0  0  0  0  0  0  0
  1  2  2  0  0  0  0
  2  3  1  0  0  0  0
  3  4  1  0  0  0  0
  4  5  1  0  0  0  0
  5  6  2  0  0  0  0
  6  7  1  0  0  0  0
  7  8  2  0  0  0  0
  8  9  1  0  0  0  0
  4  9  2  0  0  0  0
  9 10  1  0  0  0  0
  1 10  1  0  0  0  0
  3 11  2  0  0  0  0
  7 12  1  0  0  0  0
  5 13  1  0  0  0  0
 14 15  1  0  0  0  0
 15 16  1  0  0  0  0
 16 17  1  0  0  0  0
 17 18  1  0  0  0  0
 14 18  1  0  0  0  0
 19 20  1  0  0  0  0
 20 21  2  0  0  0  0
 21 22  1  0  0  0  0
 22 18  2  0  0  0  0
 19 17  2  0  0  0  0
  2 20  1  0  0  0  0
M  END
>  <cdx:groupId>
113108

>  <cdx:fragmentId>
113042

$$$$
