800055.cdx
  Mrv1902 05222410252D          

105116  0  0  0  0            999 V2000
   11.8751   -7.6815    0.0000 C   0  0  0  0  0  0  0  0  0  0  0  0
   12.5896   -7.2690    0.0000 C   0  0  0  0  0  0  0  0  0  0  0  0
   13.3041   -7.6815    0.0000 C   0  0  0  0  0  0  0  0  0  0  0  0
   13.3041   -8.5065    0.0000 C   0  0  0  0  0  0  0  0  0  0  0  0
   12.5896   -8.9190    0.0000 C   0  0  2  0  0  0  0  0  0  0  0  0
   12.5896   -9.7440    0.0000 C   0  0  0  0  0  0  0  0  0  0  0  0
   11.8751  -10.1565    0.0000 C   0  0  0  0  0  0  0  0  0  0  0  0
   11.1606   -9.7440    0.0000 C   0  0  1  0  0  0  0  0  0  0  0  0
   10.4462  -10.1565    0.0000 C   0  0  2  0  0  0  0  0  0  0  0  0
   10.4462  -10.9815    0.0000 C   0  0  0  0  0  0  0  0  0  0  0  0
    9.7317  -11.3940    0.0000 C   0  0  0  0  0  0  0  0  0  0  0  0
    9.0172  -10.9815    0.0000 C   0  0  1  0  0  0  0  0  0  0  0  0
    8.3028  -11.3940    0.0000 C   0  0  2  0  0  0  0  0  0  0  0  0
    7.5883  -10.9815    0.0000 C   0  0  2  0  0  0  0  0  0  0  0  0
    7.5883  -10.1565    0.0000 C   0  0  2  0  0  0  0  0  0  0  0  0
    8.3028   -9.7440    0.0000 C   0  0  0  0  0  0  0  0  0  0  0  0
    9.0172  -10.1565    0.0000 C   0  0  2  0  0  0  0  0  0  0  0  0
    9.7317   -9.7440    0.0000 C   0  0  1  0  0  0  0  0  0  0  0  0
    9.7317   -8.9190    0.0000 C   0  0  0  0  0  0  0  0  0  0  0  0
   10.4462   -8.5065    0.0000 C   0  0  0  0  0  0  0  0  0  0  0  0
   11.1606   -8.9190    0.0000 C   0  0  0  0  0  0  0  0  0  0  0  0
   11.8751   -8.5065    0.0000 C   0  0  2  0  0  0  0  0  0  0  0  0
   13.3041   -9.3315    0.0000 C   0  0  0  0  0  0  0  0  0  0  0  0
   13.3041  -10.1565    0.0000 O   0  0  0  0  0  0  0  0  0  0  0  0
   14.0185   -8.9190    0.0000 O   0  0  0  0  0  0  0  0  0  0  0  0
    9.0172   -9.3315    0.0000 C   0  0  0  0  0  0  0  0  0  0  0  0
    7.8903  -12.1085    0.0000 C   0  0  0  0  0  0  0  0  0  0  0  0
   11.1606  -10.5690    0.0000 C   0  0  0  0  0  0  0  0  0  0  0  0
   12.1771   -6.5545    0.0000 C   0  0  0  0  0  0  0  0  0  0  0  0
   13.0021   -6.5545    0.0000 C   0  0  0  0  0  0  0  0  0  0  0  0
    8.7153  -12.1085    0.0000 C   0  0  0  0  0  0  0  0  0  0  0  0
    8.3028  -12.8230    0.0000 O   0  0  0  0  0  0  0  0  0  0  0  0
    6.8738   -9.7440    0.0000 O   0  0  0  0  0  0  0  0  0  0  0  0
    6.8738  -11.3940    0.0000 O   0  0  0  0  0  0  0  0  0  0  0  0
    6.1593  -10.1565    0.0000 O   0  0  0  0  0  0  0  0  0  0  0  0
    6.1593  -10.9815    0.0000 C   0  0  2  0  0  0  0  0  0  0  0  0
    5.4449  -11.3940    0.0000 C   0  0  1  0  0  0  0  0  0  0  0  0
    4.7304  -10.9815    0.0000 C   0  0  2  0  0  0  0  0  0  0  0  0
    4.7304  -10.1565    0.0000 C   0  0  1  0  0  0  0  0  0  0  0  0
    5.4449   -9.7440    0.0000 C   0  0  1  0  0  0  0  0  0  0  0  0
    4.0159  -11.3940    0.0000 O   0  0  0  0  0  0  0  0  0  0  0  0
    3.3015  -10.1565    0.0000 O   0  0  0  0  0  0  0  0  0  0  0  0
    3.3015  -10.9815    0.0000 C   0  0  2  0  0  0  0  0  0  0  0  0
    2.5870  -11.3940    0.0000 C   0  0  1  0  0  0  0  0  0  0  0  0
    1.8725  -10.9815    0.0000 C   0  0  2  0  0  0  0  0  0  0  0  0
    1.8725  -10.1565    0.0000 C   0  0  1  0  0  0  0  0  0  0  0  0
    2.5870   -9.7440    0.0000 C   0  0  0  0  0  0  0  0  0  0  0  0
    1.1580   -9.7440    0.0000 O   0  0  0  0  0  0  0  0  0  0  0  0
    1.1580  -11.3940    0.0000 O   0  0  0  0  0  0  0  0  0  0  0  0
    2.5870  -12.2190    0.0000 O   0  0  0  0  0  0  0  0  0  0  0  0
    5.4449   -8.9190    0.0000 C   0  0  0  0  0  0  0  0  0  0  0  0
    4.7304   -8.5065    0.0000 O   0  0  0  0  0  0  0  0  0  0  0  0
    4.0159   -9.7440    0.0000 O   0  0  0  0  0  0  0  0  0  0  0  0
    5.4449  -12.2190    0.0000 O   0  0  0  0  0  0  0  0  0  0  0  0
    9.0172  -11.8065    0.0000 H   0  0  0  0  0  0  0  0  0  0  0  0
   11.8751   -9.3315    0.0000 H   0  0  0  0  0  0  0  0  0  0  0  0
   14.7330  -10.1565    0.0000 O   0  0  0  0  0  0  0  0  0  0  0  0
   14.7330   -9.3315    0.0000 C   0  0  2  0  0  0  0  0  0  0  0  0
   15.4475   -8.9190    0.0000 C   0  0  1  0  0  0  0  0  0  0  0  0
   16.1619   -9.3315    0.0000 C   0  0  2  0  0  0  0  0  0  0  0  0
   16.1619  -10.1565    0.0000 C   0  0  2  0  0  0  0  0  0  0  0  0
   15.4475  -10.5690    0.0000 C   0  0  0  0  0  0  0  0  0  0  0  0
   16.8764  -10.5690    0.0000 O   0  0  0  0  0  0  0  0  0  0  0  0
   16.8764   -8.9190    0.0000 O   0  0  0  0  0  0  0  0  0  0  0  0
   15.4475   -8.0940    0.0000 O   0  0  0  0  0  0  0  0  0  0  0  0
   16.8764   -8.0940    0.0000 O   0  0  0  0  0  0  0  0  0  0  0  0
   16.1619   -7.6815    0.0000 C   0  0  2  0  0  0  0  0  0  0  0  0
   16.1619   -6.8565    0.0000 C   0  0  1  0  0  0  0  0  0  0  0  0
   16.8764   -6.4440    0.0000 C   0  0  1  0  0  0  0  0  0  0  0  0
   17.5909   -6.8565    0.0000 C   0  0  2  0  0  0  0  0  0  0  0  0
   17.5909   -7.6815    0.0000 C   0  0  2  0  0  0  0  0  0  0  0  0
   16.8764   -5.6190    0.0000 O   0  0  0  0  0  0  0  0  0  0  0  0
   18.3054   -8.0940    0.0000 C   0  0  0  0  0  0  0  0  0  0  0  0
   15.4475   -6.4440    0.0000 O   0  0  0  0  0  0  0  0  0  0  0  0
   18.3054   -6.4440    0.0000 O   0  0  0  0  0  0  0  0  0  0  0  0
   19.0198   -7.6815    0.0000 O   0  0  0  0  0  0  0  0  0  0  0  0
   19.0198   -6.8565    0.0000 C   0  0  2  0  0  0  0  0  0  0  0  0
   19.7343   -6.4440    0.0000 C   0  0  1  0  0  0  0  0  0  0  0  0
   20.4488   -6.8565    0.0000 C   0  0  2  0  0  0  0  0  0  0  0  0
   20.4488   -7.6815    0.0000 C   0  0  1  0  0  0  0  0  0  0  0  0
   19.7343   -8.0940    0.0000 C   0  0  0  0  0  0  0  0  0  0  0  0
   21.1632   -8.0940    0.0000 O   0  0  0  0  0  0  0  0  0  0  0  0
   19.7343   -5.6190    0.0000 O   0  0  0  0  0  0  0  0  0  0  0  0
   21.1632   -6.4440    0.0000 O   0  0  0  0  0  0  0  0  0  0  0  0
   10.4462   -9.3315    0.0000 C   0  0  0  0  0  0  0  0  0  0  0  0
    9.7317  -10.5690    0.0000 H   0  0  0  0  0  0  0  0  0  0  0  0
   18.3254   -5.3938    0.0000 O   0  0  0  0  0  0  0  0  0  0  0  0
   17.5408   -5.1386    0.0000 C   0  0  2  0  0  0  0  0  0  0  0  0
   17.5411   -4.3136    0.0000 C   0  0  1  0  0  0  0  0  0  0  0  0
   18.3258   -4.0589    0.0000 C   0  0  2  0  0  0  0  0  0  0  0  0
   18.8105   -4.7265    0.0000 C   0  0  0  0  0  0  0  0  0  0  0  0
   18.9390   -3.5071    0.0000 C   0  0  0  0  0  0  0  0  0  0  0  0
   18.7677   -2.7000    0.0000 O   0  0  0  0  0  0  0  0  0  0  0  0
   18.1545   -3.2519    0.0000 O   0  0  0  0  0  0  0  0  0  0  0  0
   16.8738   -3.8285    0.0000 O   0  0  0  0  0  0  0  0  0  0  0  0
   21.8691   -7.6768    0.0000 O   0  0  0  0  0  0  0  0  0  0  0  0
   21.8691   -6.8518    0.0000 C   0  0  2  0  0  0  0  0  0  0  0  0
   22.5835   -6.4393    0.0000 C   0  0  1  0  0  0  0  0  0  0  0  0
   23.2980   -6.8517    0.0000 C   0  0  1  0  0  0  0  0  0  0  0  0
   23.2981   -7.6767    0.0000 C   0  0  2  0  0  0  0  0  0  0  0  0
   22.5836   -8.0893    0.0000 C   0  0  2  0  0  0  0  0  0  0  0  0
   24.0124   -6.4391    0.0000 O   0  0  0  0  0  0  0  0  0  0  0  0
   22.5837   -8.9143    0.0000 C   0  0  0  0  0  0  0  0  0  0  0  0
   22.5834   -5.6143    0.0000 O   0  0  0  0  0  0  0  0  0  0  0  0
   24.0126   -8.0891    0.0000 O   0  0  0  0  0  0  0  0  0  0  0  0
  1  2  1  0  0  0  0
  2  3  1  0  0  0  0
  3  4  1  0  0  0  0
  4  5  1  0  0  0  0
  5  6  1  0  0  0  0
  6  7  1  0  0  0  0
  7  8  1  0  0  0  0
  8  9  1  0  0  0  0
  9 10  1  0  0  0  0
 10 11  1  0  0  0  0
 11 12  1  0  0  0  0
 12 13  1  0  0  0  0
 13 14  1  0  0  0  0
 14 15  1  0  0  0  0
 15 16  1  0  0  0  0
 16 17  1  0  0  0  0
 12 17  1  0  0  0  0
 17 18  1  0  0  0  0
  9 18  1  0  0  0  0
 18 19  1  0  0  0  0
 19 20  1  0  0  0  0
 20 21  2  0  0  0  0
  8 21  1  0  0  0  0
 21 22  1  0  0  0  0
  5 22  1  0  0  0  0
  1 22  1  0  0  0  0
 23 24  2  0  0  0  0
 23 25  1  0  0  0  0
  5 23  1  1  0  0  0
 17 26  1  1  0  0  0
 13 27  1  1  0  0  0
  8 28  1  6  0  0  0
  2 29  1  0  0  0  0
  2 30  1  0  0  0  0
 31 32  1  0  0  0  0
 13 31  1  0  0  0  0
 15 33  1  1  0  0  0
 35 36  1  0  0  0  0
 36 37  1  0  0  0  0
 37 38  1  0  0  0  0
 38 39  1  0  0  0  0
 39 40  1  0  0  0  0
 35 40  1  0  0  0  0
 42 43  1  0  0  0  0
 43 44  1  0  0  0  0
 44 45  1  0  0  0  0
 45 46  1  0  0  0  0
 46 47  1  0  0  0  0
 42 47  1  0  0  0  0
 46 48  1  6  0  0  0
 45 49  1  1  0  0  0
 44 50  1  6  0  0  0
 43 41  1  1  0  0  0
 38 41  1  1  0  0  0
 51 52  1  0  0  0  0
 40 51  1  1  0  0  0
 39 53  1  6  0  0  0
 37 54  1  6  0  0  0
 36 34  1  1  0  0  0
 14 34  1  1  0  0  0
 12 55  1  6  0  0  0
 22 56  1  1  0  0  0
 57 58  1  0  0  0  0
 58 59  1  0  0  0  0
 59 60  1  0  0  0  0
 60 61  1  0  0  0  0
 61 62  1  0  0  0  0
 57 62  1  0  0  0  0
 61 63  1  1  0  0  0
 60 64  1  1  0  0  0
 66 67  1  0  0  0  0
 67 68  1  0  0  0  0
 68 69  1  0  0  0  0
 69 70  1  0  0  0  0
 70 71  1  0  0  0  0
 66 71  1  0  0  0  0
 69 72  1  6  0  0  0
 71 73  1  6  0  0  0
 68 74  1  6  0  0  0
 76 77  1  0  0  0  0
 77 78  1  0  0  0  0
 78 79  1  0  0  0  0
 79 80  1  0  0  0  0
 80 81  1  0  0  0  0
 76 81  1  0  0  0  0
 80 82  1  6  0  0  0
 78 83  1  6  0  0  0
 79 84  1  1  0  0  0
 77 75  1  1  0  0  0
 70 75  1  1  0  0  0
 67 65  1  1  0  0  0
 59 65  1  6  0  0  0
 58 25  1  1  0  0  0
  9 85  1  1  0  0  0
 18 86  1  6  0  0  0
 87 88  1  0  0  0  0
 88 89  1  0  0  0  0
 89 90  1  0  0  0  0
 90 91  1  0  0  0  0
 87 91  1  0  0  0  0
 92 93  1  0  0  0  0
 90 92  1  1  0  0  0
 90 94  1  6  0  0  0
 89 95  1  6  0  0  0
 96 97  1  0  0  0  0
 97 98  1  0  0  0  0
 98 99  1  0  0  0  0
 99100  1  0  0  0  0
100101  1  0  0  0  0
 96101  1  0  0  0  0
 99102  1  6  0  0  0
101103  1  6  0  0  0
 98104  1  6  0  0  0
100105  1  1  0  0  0
 97 84  1  1  0  0  0
 88 72  1  1  0  0  0
M  END
>  <cdx:fragmentId>
5

$$$$
