800057.cdx
  Mrv1902 05222410242D          

 28 30  0  0  0  0            999 V2000
    4.8292   -9.5526    0.0000 C   0  0  0  0  0  0  0  0  0  0  0  0
    5.5035   -9.0773    0.0000 O   0  0  0  0  0  0  0  0  0  0  0  0
    5.0340  -11.2347    0.0000 C   0  0  0  0  0  0  0  0  0  0  0  0
    5.2451  -10.4372    0.0000 O   0  0  0  0  0  0  0  0  0  0  0  0
    6.4154  -11.6003    0.0000 O   0  0  0  0  0  0  0  0  0  0  0  0
    5.5018   -8.5226    0.0000 O   0  0  0  0  0  0  0  0  0  0  0  0
    9.7547   -9.6139    0.0000 C   0  0  0  0  0  0  0  0  0  0  0  0
    9.7989   -8.0583    0.0000 C   0  0  0  0  0  0  0  0  0  0  0  0
    6.2484   -8.1716    0.0000 C   0  0  0  0  0  0  0  0  0  0  0  0
    6.0324   -7.3754    0.0000 C   0  0  0  0  0  0  0  0  0  0  0  0
    6.6139   -6.7902    0.0000 C   0  0  0  0  0  0  0  0  0  0  0  0
    7.4115   -7.0012    0.0000 C   0  0  0  0  0  0  0  0  0  0  0  0
    7.6275   -7.7974    0.0000 C   0  0  0  0  0  0  0  0  0  0  0  0
    8.4525   -7.7948    0.0000 C   0  0  0  0  0  0  0  0  0  0  0  0
    9.0377   -8.3764    0.0000 C   0  0  1  0  0  0  0  0  0  0  0  0
    9.0402   -9.2014    0.0000 C   0  0  1  0  0  0  0  0  0  0  0  0
    8.4587   -9.7865    0.0000 C   0  0  0  0  0  0  0  0  0  0  0  0
    7.6337   -9.7891    0.0000 C   0  0  0  0  0  0  0  0  0  0  0  0
    7.4227  -10.5867    0.0000 C   0  0  0  0  0  0  0  0  0  0  0  0
    6.6265  -10.8027    0.0000 C   0  0  0  0  0  0  0  0  0  0  0  0
    6.0413  -10.2212    0.0000 C   0  0  0  0  0  0  0  0  0  0  0  0
    6.2523   -9.4236    0.0000 C   0  0  0  0  0  0  0  0  0  0  0  0
    7.0485   -9.2076    0.0000 C   0  0  0  0  0  0  0  0  0  0  0  0
    7.0459   -8.3826    0.0000 C   0  0  0  0  0  0  0  0  0  0  0  0
    6.3979   -5.9939    0.0000 O   0  0  0  0  0  0  0  0  0  0  0  0
    5.2348   -7.1643    0.0000 O   0  0  0  0  0  0  0  0  0  0  0  0
    5.0213   -6.3674    0.0000 C   0  0  0  0  0  0  0  0  0  0  0  0
    4.8245   -8.0515    0.0000 C   0  0  0  0  0  0  0  0  0  0  0  0
 22  2  1  0  0  0  0
  2  1  1  0  0  0  0
 21  4  1  0  0  0  0
  4  3  1  0  0  0  0
 20  5  1  0  0  0  0
  9  6  1  0  0  0  0
 16  7  1  6  0  0  0
 15  8  1  6  0  0  0
 11 10  2  0  0  0  0
 23 18  1  0  0  0  0
 24 13  1  0  0  0  0
 24  9  2  0  0  0  0
 10  9  1  0  0  0  0
 12 11  1  0  0  0  0
 13 12  2  0  0  0  0
 14 13  1  0  0  0  0
 15 14  1  0  0  0  0
 16 15  1  0  0  0  0
 17 16  1  0  0  0  0
 18 17  1  0  0  0  0
 19 18  2  0  0  0  0
 20 19  1  0  0  0  0
 21 20  2  0  0  0  0
 22 21  1  0  0  0  0
 23 22  2  0  0  0  0
 24 23  1  0  0  0  0
 11 25  1  0  0  0  0
 10 26  1  0  0  0  0
 26 27  1  0  0  0  0
  6 28  1  0  0  0  0
M  END
>  <cdx:fragmentId>
8019

$$$$
