800061.cdx
  Mrv1902 05222410222D          

 58 64  0  0  0  0            999 V2000
   11.4825   -6.2875    0.0000 C   0  0  0  0  0  0  0  0  0  0  0  0
   12.1969   -5.8750    0.0000 C   0  0  0  0  0  0  0  0  0  0  0  0
   12.9114   -6.2875    0.0000 C   0  0  0  0  0  0  0  0  0  0  0  0
   12.9114   -7.1125    0.0000 C   0  0  0  0  0  0  0  0  0  0  0  0
   12.1969   -7.5250    0.0000 C   0  0  2  0  0  0  0  0  0  0  0  0
   12.1969   -8.3500    0.0000 C   0  0  0  0  0  0  0  0  0  0  0  0
   11.4825   -8.7625    0.0000 C   0  0  0  0  0  0  0  0  0  0  0  0
   10.7680   -8.3500    0.0000 C   0  0  1  0  0  0  0  0  0  0  0  0
   10.0535   -8.7625    0.0000 C   0  0  2  0  0  0  0  0  0  0  0  0
   10.0535   -9.5875    0.0000 C   0  0  0  0  0  0  0  0  0  0  0  0
    9.3391  -10.0000    0.0000 C   0  0  0  0  0  0  0  0  0  0  0  0
    8.6246   -9.5875    0.0000 C   0  0  1  0  0  0  0  0  0  0  0  0
    7.9101  -10.0000    0.0000 C   0  0  2  0  0  0  0  0  0  0  0  0
    7.1956   -9.5875    0.0000 C   0  0  2  0  0  0  0  0  0  0  0  0
    7.1956   -8.7625    0.0000 C   0  0  2  0  0  0  0  0  0  0  0  0
    7.9101   -8.3500    0.0000 C   0  0  0  0  0  0  0  0  0  0  0  0
    8.6246   -8.7625    0.0000 C   0  0  2  0  0  0  0  0  0  0  0  0
    9.3391   -8.3500    0.0000 C   0  0  1  0  0  0  0  0  0  0  0  0
    9.3391   -7.5250    0.0000 C   0  0  0  0  0  0  0  0  0  0  0  0
   10.0535   -7.1125    0.0000 C   0  0  0  0  0  0  0  0  0  0  0  0
   10.7680   -7.5250    0.0000 C   0  0  0  0  0  0  0  0  0  0  0  0
   11.4825   -7.1125    0.0000 C   0  0  2  0  0  0  0  0  0  0  0  0
   12.9114   -7.9375    0.0000 C   0  0  0  0  0  0  0  0  0  0  0  0
   12.9114   -8.7625    0.0000 O   0  0  0  0  0  0  0  0  0  0  0  0
   13.6259   -7.5250    0.0000 O   0  0  0  0  0  0  0  0  0  0  0  0
    8.6246   -7.9375    0.0000 C   0  0  0  0  0  0  0  0  0  0  0  0
    7.4976  -10.7144    0.0000 C   0  0  0  0  0  0  0  0  0  0  0  0
   10.7680   -9.1750    0.0000 C   0  0  0  0  0  0  0  0  0  0  0  0
   11.7844   -5.1605    0.0000 C   0  0  0  0  0  0  0  0  0  0  0  0
   12.6094   -5.1605    0.0000 C   0  0  0  0  0  0  0  0  0  0  0  0
    8.3226  -10.7144    0.0000 C   0  0  0  0  0  0  0  0  0  0  0  0
    7.9101  -11.4289    0.0000 O   0  0  0  0  0  0  0  0  0  0  0  0
    6.4812   -8.3500    0.0000 O   0  0  0  0  0  0  0  0  0  0  0  0
    6.4812  -10.0000    0.0000 O   0  0  0  0  0  0  0  0  0  0  0  0
    5.7667   -8.7625    0.0000 O   0  0  0  0  0  0  0  0  0  0  0  0
    5.7667   -9.5875    0.0000 C   0  0  2  0  0  0  0  0  0  0  0  0
    5.0522  -10.0000    0.0000 C   0  0  1  0  0  0  0  0  0  0  0  0
    4.3378   -9.5875    0.0000 C   0  0  2  0  0  0  0  0  0  0  0  0
    4.3378   -8.7625    0.0000 C   0  0  1  0  0  0  0  0  0  0  0  0
    5.0522   -8.3500    0.0000 C   0  0  1  0  0  0  0  0  0  0  0  0
    3.6233  -10.0000    0.0000 O   0  0  0  0  0  0  0  0  0  0  0  0
    2.9088   -8.7625    0.0000 O   0  0  0  0  0  0  0  0  0  0  0  0
    2.9088   -9.5875    0.0000 C   0  0  2  0  0  0  0  0  0  0  0  0
    2.1944  -10.0000    0.0000 C   0  0  1  0  0  0  0  0  0  0  0  0
    1.4799   -9.5875    0.0000 C   0  0  2  0  0  0  0  0  0  0  0  0
    1.4799   -8.7625    0.0000 C   0  0  1  0  0  0  0  0  0  0  0  0
    2.1944   -8.3500    0.0000 C   0  0  0  0  0  0  0  0  0  0  0  0
    0.7654   -8.3500    0.0000 O   0  0  0  0  0  0  0  0  0  0  0  0
    0.7654  -10.0000    0.0000 O   0  0  0  0  0  0  0  0  0  0  0  0
    2.1944  -10.8250    0.0000 O   0  0  0  0  0  0  0  0  0  0  0  0
    5.0522   -7.5250    0.0000 C   0  0  0  0  0  0  0  0  0  0  0  0
    4.3378   -7.1125    0.0000 O   0  0  0  0  0  0  0  0  0  0  0  0
    3.6233   -8.3500    0.0000 O   0  0  0  0  0  0  0  0  0  0  0  0
    5.0522  -10.8250    0.0000 O   0  0  0  0  0  0  0  0  0  0  0  0
    8.6246  -10.4125    0.0000 H   0  0  0  0  0  0  0  0  0  0  0  0
   11.4825   -7.9375    0.0000 H   0  0  0  0  0  0  0  0  0  0  0  0
    9.3391   -9.1750    0.0000 H   0  0  0  0  0  0  0  0  0  0  0  0
   10.0535   -7.9375    0.0000 C   0  0  0  0  0  0  0  0  0  0  0  0
  1  2  1  0  0  0  0
  2  3  1  0  0  0  0
  3  4  1  0  0  0  0
  4  5  1  0  0  0  0
  5  6  1  0  0  0  0
  6  7  1  0  0  0  0
  7  8  1  0  0  0  0
  8  9  1  0  0  0  0
  9 10  1  0  0  0  0
 10 11  1  0  0  0  0
 11 12  1  0  0  0  0
 12 13  1  0  0  0  0
 13 14  1  0  0  0  0
 14 15  1  0  0  0  0
 15 16  1  0  0  0  0
 16 17  1  0  0  0  0
 12 17  1  0  0  0  0
 17 18  1  0  0  0  0
  9 18  1  0  0  0  0
 18 19  1  0  0  0  0
 19 20  1  0  0  0  0
 20 21  2  0  0  0  0
  8 21  1  0  0  0  0
 21 22  1  0  0  0  0
  5 22  1  0  0  0  0
  1 22  1  0  0  0  0
 23 24  2  0  0  0  0
 23 25  1  0  0  0  0
  5 23  1  1  0  0  0
 17 26  1  1  0  0  0
 13 27  1  1  0  0  0
  8 28  1  6  0  0  0
  2 29  1  0  0  0  0
  2 30  1  0  0  0  0
 31 32  1  0  0  0  0
 13 31  1  0  0  0  0
 15 33  1  1  0  0  0
 35 36  1  0  0  0  0
 36 37  1  0  0  0  0
 37 38  1  0  0  0  0
 38 39  1  0  0  0  0
 39 40  1  0  0  0  0
 35 40  1  0  0  0  0
 42 43  1  0  0  0  0
 43 44  1  0  0  0  0
 44 45  1  0  0  0  0
 45 46  1  0  0  0  0
 46 47  1  0  0  0  0
 42 47  1  0  0  0  0
 46 48  1  6  0  0  0
 45 49  1  1  0  0  0
 44 50  1  6  0  0  0
 43 41  1  1  0  0  0
 38 41  1  1  0  0  0
 51 52  1  0  0  0  0
 40 51  1  1  0  0  0
 39 53  1  6  0  0  0
 37 54  1  6  0  0  0
 36 34  1  1  0  0  0
 14 34  1  1  0  0  0
 12 55  1  6  0  0  0
 22 56  1  1  0  0  0
 18 57  1  6  0  0  0
  9 58  1  1  0  0  0
M  END
>  <cdx:fragmentId>
5

$$$$
