800029.cdx
  Mrv1902 05222410192D          

110121  0  0  0  0            999 V2000
    5.0531   -9.7909    0.0000 O   0  0  0  0  0  0  0  0  0  0  0  0
    5.0263   -8.3622    0.0000 O   0  0  0  0  0  0  0  0  0  0  0  0
    4.6273   -9.0843    0.0000 C   0  0  2  0  0  0  0  0  0  0  0  0
    3.8024   -9.0997    0.0000 C   0  0  1  0  0  0  0  0  0  0  0  0
    3.3766   -8.3931    0.0000 C   0  0  2  0  0  0  0  0  0  0  0  0
    3.7756   -7.6711    0.0000 C   0  0  1  0  0  0  0  0  0  0  0  0
    4.6005   -7.6556    0.0000 C   0  0  1  0  0  0  0  0  0  0  0  0
    4.9995   -6.9335    0.0000 C   0  0  0  0  0  0  0  0  0  0  0  0
   17.2366  -10.2162    0.0000 C   0  0  1  0  0  0  0  0  0  0  0  0
   17.9511   -9.8037    0.0000 C   0  0  2  0  0  0  0  0  0  0  0  0
   18.7357  -10.0587    0.0000 C   0  0  0  0  0  0  0  0  0  0  0  0
   19.2206   -9.3912    0.0000 C   0  0  2  0  0  0  0  0  0  0  0  0
   20.0053   -9.1363    0.0000 O   0  0  0  0  0  0  0  0  0  0  0  0
   20.0053   -8.3113    0.0000 C   0  0  0  0  0  0  0  0  0  0  0  0
   19.2206   -8.0563    0.0000 C   0  0  2  0  0  0  0  0  0  0  0  0
   18.7357   -8.7238    0.0000 C   0  0  2  0  0  0  0  0  0  0  0  0
   17.9511   -8.9787    0.0000 C   0  0  1  0  0  0  0  0  0  0  0  0
   17.2366   -8.5662    0.0000 C   0  0  0  0  0  0  0  0  0  0  0  0
   16.5221   -8.9787    0.0000 C   0  0  0  0  0  0  0  0  0  0  0  0
   16.5221   -9.8037    0.0000 C   0  0  2  0  0  0  0  0  0  0  0  0
   15.8077  -10.2162    0.0000 C   0  0  1  0  0  0  0  0  0  0  0  0
   15.0932   -9.8037    0.0000 C   0  0  0  0  0  0  0  0  0  0  0  0
   14.3787  -10.2162    0.0000 C   0  0  0  0  0  0  0  0  0  0  0  0
   14.3787  -11.0412    0.0000 C   0  0  1  0  0  0  0  0  0  0  0  0
   15.0932  -11.4537    0.0000 C   0  0  0  0  0  0  0  0  0  0  0  0
   15.8077  -11.0412    0.0000 C   0  0  0  0  0  0  0  0  0  0  0  0
   16.5221  -11.4537    0.0000 C   0  0  0  0  0  0  0  0  0  0  0  0
   17.2366  -11.0412    0.0000 C   0  0  0  0  0  0  0  0  0  0  0  0
   20.8257   -8.2251    0.0000 C   0  0  0  0  0  0  0  0  0  0  0  0
   21.3107   -8.8925    0.0000 C   0  0  0  0  0  0  0  0  0  0  0  0
   22.1311   -8.8063    0.0000 C   0  0  0  0  0  0  0  0  0  0  0  0
   22.4667   -8.0526    0.0000 C   0  0  0  0  0  0  0  0  0  0  0  0
   22.6161   -9.4737    0.0000 C   0  0  0  0  0  0  0  0  0  0  0  0
   15.8077   -9.3912    0.0000 C   0  0  0  0  0  0  0  0  0  0  0  0
   17.9511   -8.1537    0.0000 C   0  0  0  0  0  0  0  0  0  0  0  0
   18.9657   -7.2717    0.0000 C   0  0  0  0  0  0  0  0  0  0  0  0
   20.3408   -7.5576    0.0000 O   0  0  0  0  0  0  0  0  0  0  0  0
    4.5748   -6.2262    0.0000 O   0  0  0  0  0  0  0  0  0  0  0  0
    3.3498   -6.9644    0.0000 O   0  0  0  0  0  0  0  0  0  0  0  0
    2.5517   -8.4086    0.0000 O   0  0  0  0  0  0  0  0  0  0  0  0
    3.4034   -9.8218    0.0000 O   0  0  0  0  0  0  0  0  0  0  0  0
    5.0591  -11.2198    0.0000 O   0  0  0  0  0  0  0  0  0  0  0  0
    3.6302  -11.2146    0.0000 O   0  0  0  0  0  0  0  0  0  0  0  0
    4.3431  -11.6297    0.0000 C   0  0  2  0  0  0  0  0  0  0  0  0
    4.3401  -12.4547    0.0000 C   0  0  1  0  0  0  0  0  0  0  0  0
    3.6242  -12.8646    0.0000 C   0  0  2  0  0  0  0  0  0  0  0  0
    2.9112  -12.4495    0.0000 C   0  0  1  0  0  0  0  0  0  0  0  0
    2.9142  -11.6245    0.0000 C   0  0  0  0  0  0  0  0  0  0  0  0
    2.1952  -12.8594    0.0000 O   0  0  0  0  0  0  0  0  0  0  0  0
    3.6212  -13.6896    0.0000 O   0  0  0  0  0  0  0  0  0  0  0  0
    5.0531  -12.8698    0.0000 O   0  0  0  0  0  0  0  0  0  0  0  0
   17.2366   -9.3912    0.0000 H   0  0  0  0  0  0  0  0  0  0  0  0
   17.9511  -10.6287    0.0000 H   0  0  0  0  0  0  0  0  0  0  0  0
   19.7056  -10.0587    0.0000 H   0  0  0  0  0  0  0  0  0  0  0  0
   18.3741   -7.9823    0.0000 H   0  0  0  0  0  0  0  0  0  0  0  0
   16.5221  -10.6287    0.0000 H   0  0  0  0  0  0  0  0  0  0  0  0
    7.5401  -12.6384    0.0000 O   0  0  0  0  0  0  0  0  0  0  0  0
    5.8901  -12.6453    0.0000 O   0  0  0  0  0  0  0  0  0  0  0  0
   25.0865   -9.3919    0.0000 O   0  0  0  0  0  0  0  0  0  0  0  0
   25.9077  -10.8230    0.0000 O   0  0  0  0  0  0  0  0  0  0  0  0
   25.0789  -12.2497    0.0000 O   0  0  0  0  0  0  0  0  0  0  0  0
   23.8395  -12.9609    0.0000 O   0  0  0  0  0  0  0  0  0  0  0  0
   23.4289  -12.2453    0.0000 C   0  0  0  0  0  0  0  0  0  0  0  0
   23.8433  -11.5320    0.0000 C   0  0  2  0  0  0  0  0  0  0  0  0
   24.6683  -11.5342    0.0000 C   0  0  2  0  0  0  0  0  0  0  0  0
   25.0827  -10.8208    0.0000 C   0  0  1  0  0  0  0  0  0  0  0  0
   24.6721  -10.1052    0.0000 C   0  0  2  0  0  0  0  0  0  0  0  0
   23.8471  -10.1030    0.0000 C   0  0  1  0  0  0  0  0  0  0  0  0
   23.4327  -10.8164    0.0000 O   0  0  0  0  0  0  0  0  0  0  0  0
   23.4365   -9.3875    0.0000 O   0  0  0  0  0  0  0  0  0  0  0  0
    5.8781   -9.7874    0.0000 C   0  0  0  0  0  0  0  0  0  0  0  0
    6.2936  -10.5002    0.0000 C   0  0  2  0  0  0  0  0  0  0  0  0
    5.8841  -11.2164    0.0000 C   0  0  2  0  0  0  0  0  0  0  0  0
    6.2996  -11.9291    0.0000 C   0  0  1  0  0  0  0  0  0  0  0  0
    7.1246  -11.9256    0.0000 C   0  0  2  0  0  0  0  0  0  0  0  0
    7.5341  -11.2095    0.0000 C   0  0  1  0  0  0  0  0  0  0  0  0
    7.1186  -10.4967    0.0000 O   0  0  0  0  0  0  0  0  0  0  0  0
    8.3591  -11.2060    0.0000 O   0  0  0  0  0  0  0  0  0  0  0  0
   10.0091  -11.1991    0.0000 O   0  0  0  0  0  0  0  0  0  0  0  0
    7.5281   -9.7805    0.0000 O   0  0  0  0  0  0  0  0  0  0  0  0
    7.5221   -8.3516    0.0000 O   0  0  0  0  0  0  0  0  0  0  0  0
    8.3471   -8.3481    0.0000 C   0  0  0  0  0  0  0  0  0  0  0  0
    8.7626   -9.0609    0.0000 C   0  0  2  0  0  0  0  0  0  0  0  0
    8.3531   -9.7771    0.0000 C   0  0  2  0  0  0  0  0  0  0  0  0
    8.7686  -10.4898    0.0000 C   0  0  1  0  0  0  0  0  0  0  0  0
    9.5936  -10.4864    0.0000 C   0  0  2  0  0  0  0  0  0  0  0  0
   10.0031   -9.7702    0.0000 C   0  0  1  0  0  0  0  0  0  0  0  0
    9.5876   -9.0574    0.0000 O   0  0  0  0  0  0  0  0  0  0  0  0
   10.8281   -9.7667    0.0000 O   0  0  0  0  0  0  0  0  0  0  0  0
   10.8066  -11.4166    0.0000 O   0  0  0  0  0  0  0  0  0  0  0  0
   11.5531   -8.5479    0.0000 O   0  0  0  0  0  0  0  0  0  0  0  0
   12.2676   -8.9604    0.0000 C   0  0  0  0  0  0  0  0  0  0  0  0
   13.6643  -11.4537    0.0000 O   0  0  0  0  0  0  0  0  0  0  0  0
   12.2569   -9.7853    0.0000 C   0  0  2  0  0  0  0  0  0  0  0  0
   11.5371  -10.1885    0.0000 C   0  0  2  0  0  0  0  0  0  0  0  0
   11.5264  -11.0134    0.0000 C   0  0  1  0  0  0  0  0  0  0  0  0
   12.2354  -11.4352    0.0000 C   0  0  2  0  0  0  0  0  0  0  0  0
   12.9552  -11.0320    0.0000 C   0  0  1  0  0  0  0  0  0  0  0  0
   12.9659  -10.2070    0.0000 O   0  0  0  0  0  0  0  0  0  0  0  0
   12.2247  -12.2601    0.0000 O   0  0  0  0  0  0  0  0  0  0  0  0
    9.3671  -12.2229    0.0000 C   0  0  0  0  0  0  0  0  0  0  0  0
    9.3456  -13.8728    0.0000 O   0  0  0  0  0  0  0  0  0  0  0  0
   10.7637  -14.7163    0.0000 O   0  0  0  0  0  0  0  0  0  0  0  0
   12.2033  -13.9099    0.0000 O   0  0  0  0  0  0  0  0  0  0  0  0
   10.0761  -12.6447    0.0000 C   0  0  1  0  0  0  0  0  0  0  0  0
   10.0654  -13.4696    0.0000 C   0  0  1  0  0  0  0  0  0  0  0  0
   10.7745  -13.8914    0.0000 C   0  0  2  0  0  0  0  0  0  0  0  0
   11.4942  -13.4882    0.0000 C   0  0  2  0  0  0  0  0  0  0  0  0
   11.5049  -12.6633    0.0000 C   0  0  1  0  0  0  0  0  0  0  0  0
   10.7959  -12.2415    0.0000 O   0  0  0  0  0  0  0  0  0  0  0  0
109100  1  1  0  0  0
 97100  1  6  0  0  0
 95 89  1  6  0  0  0
 87 89  1  1  0  0  0
 85 78  1  1  0  0  0
 76 78  1  1  0  0  0
 75 57  1  6  0  0  0
 74 58  1  1  0  0  0
 72 71  1  1  0  0  0
 71  1  1  0  0  0  0
 68 70  1  1  0  0  0
 67 59  1  6  0  0  0
 66 60  1  1  0  0  0
 65 61  1  6  0  0  0
 64 63  1  1  0  0  0
 63 62  1  0  0  0  0
 69 64  1  0  0  0  0
 65 64  1  0  0  0  0
 66 65  1  0  0  0  0
 67 66  1  0  0  0  0
 68 67  1  0  0  0  0
 69 68  1  0  0  0  0
 73 42  1  6  0  0  0
 77 72  1  0  0  0  0
 73 72  1  0  0  0  0
 74 73  1  0  0  0  0
 75 74  1  0  0  0  0
 76 75  1  0  0  0  0
 77 76  1  0  0  0  0
 86 79  1  6  0  0  0
 84 80  1  6  0  0  0
 83 82  1  1  0  0  0
 82 81  1  0  0  0  0
 88 83  1  0  0  0  0
 84 83  1  0  0  0  0
 85 84  1  0  0  0  0
 86 85  1  0  0  0  0
 87 86  1  0  0  0  0
 88 87  1  0  0  0  0
 96 90  1  1  0  0  0
 94 92  1  1  0  0  0
 92 91  1  0  0  0  0
 98 93  1  1  0  0  0
 99 94  1  0  0  0  0
 95 94  1  0  0  0  0
 96 95  1  0  0  0  0
 97 96  1  0  0  0  0
 98 97  1  0  0  0  0
 99 98  1  0  0  0  0
105101  1  6  0  0  0
106102  1  1  0  0  0
107103  1  6  0  0  0
108104  1  6  0  0  0
110105  1  0  0  0  0
106105  1  0  0  0  0
107106  1  0  0  0  0
108107  1  0  0  0  0
109108  1  0  0  0  0
110109  1  0  0  0  0
  2  3  1  0  0  0  0
  3  4  1  0  0  0  0
  4  5  1  0  0  0  0
  5  6  1  0  0  0  0
  6  7  1  0  0  0  0
  2  7  1  0  0  0  0
  8 38  1  0  0  0  0
  7  8  1  1  0  0  0
  6 39  1  6  0  0  0
  9 10  1  0  0  0  0
 10 11  1  0  0  0  0
 11 12  1  0  0  0  0
 12 13  1  0  0  0  0
 13 14  1  0  0  0  0
 14 15  1  0  0  0  0
 15 16  1  0  0  0  0
 16 17  1  0  0  0  0
 17 18  1  0  0  0  0
 18 19  1  0  0  0  0
 19 20  1  0  0  0  0
 20 21  1  0  0  0  0
 21 22  1  0  0  0  0
 22 23  1  0  0  0  0
 23 24  1  0  0  0  0
 24 25  1  0  0  0  0
 25 26  1  0  0  0  0
 26 27  2  0  0  0  0
 27 28  1  0  0  0  0
  9 28  1  0  0  0  0
  9 20  1  0  0  0  0
 21 26  1  0  0  0  0
 10 17  1  0  0  0  0
 12 16  1  0  0  0  0
 29 30  1  0  0  0  0
 30 31  1  0  0  0  0
 31 32  2  0  0  0  0
 33 70  1  0  0  0  0
 31 33  1  0  0  0  0
 14 29  1  0  0  0  0
 21 34  1  1  0  0  0
 17 35  1  1  0  0  0
 15 36  1  6  0  0  0
 14 37  1  0  0  0  0
 24 93  1  1  0  0  0
  5 40  1  1  0  0  0
  4 41  1  6  0  0  0
  3  1  1  1  0  0  0
 43 44  1  0  0  0  0
 44 45  1  0  0  0  0
 45 46  1  0  0  0  0
 46 47  1  0  0  0  0
 47 48  1  0  0  0  0
 43 48  1  0  0  0  0
 47 49  1  6  0  0  0
 46 50  1  1  0  0  0
 45 51  1  6  0  0  0
 44 42  1  1  0  0  0
  9 52  1  1  0  0  0
 10 53  1  6  0  0  0
 12 54  1  6  0  0  0
 16 55  1  6  0  0  0
 20 56  1  6  0  0  0
M  END
>  <cdx:groupId>
17321

>  <cdx:fragmentId>
17019

$$$$
