800085.cdx
  Mrv1902 05222410242D          

 35 38  0  0  0  0            999 V2000
    3.4064   -8.6831    0.0000 C   0  0  0  0  0  0  0  0  0  0  0  0
    3.4064   -9.5081    0.0000 C   0  0  1  0  0  0  0  0  0  0  0  0
    4.1209   -9.9206    0.0000 C   0  0  0  0  0  0  0  0  0  0  0  0
    4.8353   -9.5081    0.0000 C   0  0  1  0  0  0  0  0  0  0  0  0
    4.8353   -8.6831    0.0000 C   0  0  2  0  0  0  0  0  0  0  0  0
    4.1209   -8.2706    0.0000 C   0  0  0  0  0  0  0  0  0  0  0  0
    5.5498   -9.9206    0.0000 C   0  0  1  0  0  0  0  0  0  0  0  0
    6.2643   -9.5081    0.0000 C   0  0  0  0  0  0  0  0  0  0  0  0
    6.2643   -8.6831    0.0000 C   0  0  0  0  0  0  0  0  0  0  0  0
    5.5498   -8.2706    0.0000 C   0  0  2  0  0  0  0  0  0  0  0  0
    6.9788   -8.2706    0.0000 C   0  0  1  0  0  0  0  0  0  0  0  0
    6.9788   -7.4456    0.0000 C   0  0  2  0  0  0  0  0  0  0  0  0
    6.2643   -7.0331    0.0000 C   0  0  0  0  0  0  0  0  0  0  0  0
    5.5498   -7.4456    0.0000 C   0  0  0  0  0  0  0  0  0  0  0  0
    7.7634   -8.5256    0.0000 C   0  0  0  0  0  0  0  0  0  0  0  0
    8.2483   -7.8581    0.0000 C   0  0  0  0  0  0  0  0  0  0  0  0
    7.7634   -7.1907    0.0000 C   0  0  2  0  0  0  0  0  0  0  0  0
    2.6919   -9.9206    0.0000 O   0  0  0  0  0  0  0  0  0  0  0  0
    5.5498  -10.7456    0.0000 O   0  0  0  0  0  0  0  0  0  0  0  0
    4.8353   -7.8581    0.0000 C   0  0  0  0  0  0  0  0  0  0  0  0
    6.9788   -6.6206    0.0000 C   0  0  0  0  0  0  0  0  0  0  0  0
    4.8353  -10.3331    0.0000 O   0  0  0  0  0  0  0  0  0  0  0  0
    8.0183   -6.4061    0.0000 C   0  0  2  0  0  0  0  0  0  0  0  0
    7.4663   -5.7930    0.0000 C   0  0  0  0  0  0  0  0  0  0  0  0
    8.8253   -6.2345    0.0000 C   0  0  0  0  0  0  0  0  0  0  0  0
    9.0802   -5.4499    0.0000 C   0  0  0  0  0  0  0  0  0  0  0  0
    9.8872   -5.2784    0.0000 C   0  0  0  0  0  0  0  0  0  0  0  0
   10.4392   -5.8915    0.0000 C   0  0  0  0  0  0  0  0  0  0  0  0
   10.1421   -4.4938    0.0000 C   0  0  0  0  0  0  0  0  0  0  0  0
    9.5901   -3.8807    0.0000 C   0  0  0  0  0  0  0  0  0  0  0  0
   10.9491   -4.3222    0.0000 C   0  0  0  0  0  0  0  0  0  0  0  0
    8.5603   -6.9772    0.0000 H   0  0  0  0  0  0  0  0  0  0  0  0
    5.5498   -9.0956    0.0000 H   0  0  0  0  0  0  0  0  0  0  0  0
    6.9788   -9.0956    0.0000 H   0  0  0  0  0  0  0  0  0  0  0  0
   11.2462   -5.7200    0.0000 C   0  0  0  0  0  0  0  0  0  0  0  0
  1  2  1  0  0  0  0
  2  3  1  0  0  0  0
  3  4  1  0  0  0  0
  4  5  1  0  0  0  0
  5  6  1  0  0  0  0
  6  1  1  0  0  0  0
  4  7  1  0  0  0  0
  7  8  1  0  0  0  0
  8  9  2  0  0  0  0
  9 10  1  0  0  0  0
 10  5  1  0  0  0  0
  9 11  1  0  0  0  0
 11 12  1  0  0  0  0
 12 13  1  0  0  0  0
 13 14  1  0  0  0  0
 14 10  1  0  0  0  0
 11 15  1  0  0  0  0
 15 16  1  0  0  0  0
 16 17  1  0  0  0  0
 17 12  1  0  0  0  0
  2 18  1  1  0  0  0
  7 19  1  1  0  0  0
  5 20  1  1  0  0  0
 12 21  1  1  0  0  0
  4 22  1  6  0  0  0
 17 23  1  0  0  0  0
 23 24  1  6  0  0  0
 23 25  1  0  0  0  0
 25 26  2  0  0  0  0
 26 27  1  0  0  0  0
 27 28  1  0  0  0  0
 27 29  1  0  0  0  0
 29 30  1  0  0  0  0
 29 31  1  0  0  0  0
 17 32  1  6  0  0  0
 10 33  1  6  0  0  0
 11 34  1  6  0  0  0
 28 35  1  0  0  0  0
M  END
>  <cdx:fragmentId>
5

$$$$
