800027.cdx
  Mrv1902 05222410262D          

104115  0  0  0  0            999 V2000
   15.1270   -8.8640    0.0000 C   0  0  0  0  0  0  0  0  0  0  0  0
   15.8414   -8.4515    0.0000 C   0  0  0  0  0  0  0  0  0  0  0  0
   16.5559   -8.8640    0.0000 C   0  0  0  0  0  0  0  0  0  0  0  0
   16.5559   -9.6890    0.0000 C   0  0  0  0  0  0  0  0  0  0  0  0
   15.8414  -10.1015    0.0000 C   0  0  2  0  0  0  0  0  0  0  0  0
   15.8414  -10.9265    0.0000 C   0  0  0  0  0  0  0  0  0  0  0  0
   15.1270  -11.3390    0.0000 C   0  0  0  0  0  0  0  0  0  0  0  0
   14.4125  -10.9265    0.0000 C   0  0  1  0  0  0  0  0  0  0  0  0
   13.6980  -11.3390    0.0000 C   0  0  2  0  0  0  0  0  0  0  0  0
   13.6980  -12.1640    0.0000 C   0  0  0  0  0  0  0  0  0  0  0  0
   12.9836  -12.5765    0.0000 C   0  0  0  0  0  0  0  0  0  0  0  0
   12.2691  -12.1640    0.0000 C   0  0  1  0  0  0  0  0  0  0  0  0
   11.5546  -12.5765    0.0000 C   0  0  2  0  0  0  0  0  0  0  0  0
   10.8401  -12.1640    0.0000 C   0  0  2  0  0  0  0  0  0  0  0  0
   10.8401  -11.3390    0.0000 C   0  0  2  0  0  0  0  0  0  0  0  0
   11.5546  -10.9265    0.0000 C   0  0  0  0  0  0  0  0  0  0  0  0
   12.2691  -11.3390    0.0000 C   0  0  2  0  0  0  0  0  0  0  0  0
   12.9836  -10.9265    0.0000 C   0  0  1  0  0  0  0  0  0  0  0  0
   12.9836  -10.1015    0.0000 C   0  0  0  0  0  0  0  0  0  0  0  0
   13.6980   -9.6890    0.0000 C   0  0  0  0  0  0  0  0  0  0  0  0
   14.4125  -10.1015    0.0000 C   0  0  0  0  0  0  0  0  0  0  0  0
   15.1270   -9.6890    0.0000 C   0  0  2  0  0  0  0  0  0  0  0  0
   16.5559  -10.5140    0.0000 C   0  0  0  0  0  0  0  0  0  0  0  0
   16.5559  -11.3390    0.0000 O   0  0  0  0  0  0  0  0  0  0  0  0
   17.2704  -10.1015    0.0000 O   0  0  0  0  0  0  0  0  0  0  0  0
   12.2691  -10.5140    0.0000 C   0  0  0  0  0  0  0  0  0  0  0  0
   11.1421  -13.2910    0.0000 C   0  0  0  0  0  0  0  0  0  0  0  0
   14.4125  -11.7515    0.0000 C   0  0  0  0  0  0  0  0  0  0  0  0
   15.4289   -7.7370    0.0000 C   0  0  0  0  0  0  0  0  0  0  0  0
   16.2539   -7.7370    0.0000 C   0  0  0  0  0  0  0  0  0  0  0  0
   11.9671  -13.2910    0.0000 C   0  0  0  0  0  0  0  0  0  0  0  0
   11.5546  -14.0055    0.0000 O   0  0  0  0  0  0  0  0  0  0  0  0
   10.1257  -10.9265    0.0000 O   0  0  0  0  0  0  0  0  0  0  0  0
   10.1257  -12.5765    0.0000 O   0  0  0  0  0  0  0  0  0  0  0  0
    9.4112  -11.3390    0.0000 O   0  0  0  0  0  0  0  0  0  0  0  0
    9.4112  -12.1640    0.0000 C   0  0  2  0  0  0  0  0  0  0  0  0
    8.6967  -12.5765    0.0000 C   0  0  1  0  0  0  0  0  0  0  0  0
    7.9823  -12.1640    0.0000 C   0  0  2  0  0  0  0  0  0  0  0  0
    7.9823  -11.3390    0.0000 C   0  0  1  0  0  0  0  0  0  0  0  0
    8.6967  -10.9265    0.0000 C   0  0  1  0  0  0  0  0  0  0  0  0
    7.2678  -12.5765    0.0000 O   0  0  0  0  0  0  0  0  0  0  0  0
    6.5533  -11.3390    0.0000 O   0  0  0  0  0  0  0  0  0  0  0  0
    6.5533  -12.1640    0.0000 C   0  0  2  0  0  0  0  0  0  0  0  0
    5.8389  -12.5765    0.0000 C   0  0  1  0  0  0  0  0  0  0  0  0
    5.1244  -12.1640    0.0000 C   0  0  2  0  0  0  0  0  0  0  0  0
    5.1244  -11.3390    0.0000 C   0  0  1  0  0  0  0  0  0  0  0  0
    5.8389  -10.9265    0.0000 C   0  0  0  0  0  0  0  0  0  0  0  0
    4.4099  -10.9265    0.0000 O   0  0  0  0  0  0  0  0  0  0  0  0
    4.4099  -12.5765    0.0000 O   0  0  0  0  0  0  0  0  0  0  0  0
    5.8389  -13.4015    0.0000 O   0  0  0  0  0  0  0  0  0  0  0  0
    8.6967  -10.1015    0.0000 C   0  0  0  0  0  0  0  0  0  0  0  0
    7.9823   -9.6890    0.0000 O   0  0  0  0  0  0  0  0  0  0  0  0
    7.2678  -10.9265    0.0000 O   0  0  0  0  0  0  0  0  0  0  0  0
    8.6967  -13.4015    0.0000 O   0  0  0  0  0  0  0  0  0  0  0  0
   12.2691  -12.9890    0.0000 H   0  0  0  0  0  0  0  0  0  0  0  0
   15.1270  -10.5140    0.0000 H   0  0  0  0  0  0  0  0  0  0  0  0
   17.9849  -11.3390    0.0000 O   0  0  0  0  0  0  0  0  0  0  0  0
   17.9849  -10.5140    0.0000 C   0  0  2  0  0  0  0  0  0  0  0  0
   18.6993  -10.1015    0.0000 C   0  0  1  0  0  0  0  0  0  0  0  0
   19.4138  -10.5140    0.0000 C   0  0  2  0  0  0  0  0  0  0  0  0
   19.4138  -11.3390    0.0000 C   0  0  2  0  0  0  0  0  0  0  0  0
   18.6993  -11.7515    0.0000 C   0  0  0  0  0  0  0  0  0  0  0  0
   20.1283  -11.7515    0.0000 O   0  0  0  0  0  0  0  0  0  0  0  0
   20.1283  -10.1015    0.0000 O   0  0  0  0  0  0  0  0  0  0  0  0
   18.6993   -9.2765    0.0000 O   0  0  0  0  0  0  0  0  0  0  0  0
   20.1283   -9.2765    0.0000 O   0  0  0  0  0  0  0  0  0  0  0  0
   19.4138   -8.8640    0.0000 C   0  0  2  0  0  0  0  0  0  0  0  0
   19.4138   -8.0390    0.0000 C   0  0  1  0  0  0  0  0  0  0  0  0
   20.1283   -7.6265    0.0000 C   0  0  1  0  0  0  0  0  0  0  0  0
   20.8427   -8.0390    0.0000 C   0  0  2  0  0  0  0  0  0  0  0  0
   20.8427   -8.8640    0.0000 C   0  0  2  0  0  0  0  0  0  0  0  0
   20.1283   -6.8015    0.0000 O   0  0  0  0  0  0  0  0  0  0  0  0
   21.5572   -6.8015    0.0000 O   0  0  0  0  0  0  0  0  0  0  0  0
   20.8427   -6.3890    0.0000 C   0  0  2  0  0  0  0  0  0  0  0  0
   20.8427   -5.5640    0.0000 C   0  0  1  0  0  0  0  0  0  0  0  0
   21.5572   -5.1515    0.0000 C   0  0  2  0  0  0  0  0  0  0  0  0
   22.2717   -5.5640    0.0000 C   0  0  2  0  0  0  0  0  0  0  0  0
   22.2717   -6.3890    0.0000 C   0  0  0  0  0  0  0  0  0  0  0  0
   22.9862   -5.1515    0.0000 O   0  0  0  0  0  0  0  0  0  0  0  0
   21.5572   -4.3265    0.0000 O   0  0  0  0  0  0  0  0  0  0  0  0
   20.1283   -5.1515    0.0000 O   0  0  0  0  0  0  0  0  0  0  0  0
   21.5572   -9.2765    0.0000 C   0  0  0  0  0  0  0  0  0  0  0  0
   18.6993   -7.6265    0.0000 O   0  0  0  0  0  0  0  0  0  0  0  0
   21.5572   -7.6265    0.0000 O   0  0  0  0  0  0  0  0  0  0  0  0
   22.2717   -8.8640    0.0000 O   0  0  0  0  0  0  0  0  0  0  0  0
   22.2717   -8.0390    0.0000 C   0  0  2  0  0  0  0  0  0  0  0  0
   22.9862   -7.6265    0.0000 C   0  0  1  0  0  0  0  0  0  0  0  0
   23.7006   -8.0390    0.0000 C   0  0  2  0  0  0  0  0  0  0  0  0
   23.7006   -8.8640    0.0000 C   0  0  1  0  0  0  0  0  0  0  0  0
   22.9862   -9.2765    0.0000 C   0  0  0  0  0  0  0  0  0  0  0  0
   24.4151   -9.2765    0.0000 O   0  0  0  0  0  0  0  0  0  0  0  0
   22.9862   -6.8015    0.0000 O   0  0  0  0  0  0  0  0  0  0  0  0
   24.4151   -7.6265    0.0000 O   0  0  0  0  0  0  0  0  0  0  0  0
   25.2158   -8.8595    0.0000 O   0  0  0  0  0  0  0  0  0  0  0  0
   25.1296   -8.0390    0.0000 C   0  0  2  0  0  0  0  0  0  0  0  0
   25.8832   -7.7035    0.0000 C   0  0  1  0  0  0  0  0  0  0  0  0
   26.4353   -8.3165    0.0000 C   0  0  2  0  0  0  0  0  0  0  0  0
   26.0228   -9.0310    0.0000 C   0  0  0  0  0  0  0  0  0  0  0  0
   27.1890   -8.6521    0.0000 C   0  0  0  0  0  0  0  0  0  0  0  0
   27.8564   -8.1672    0.0000 O   0  0  0  0  0  0  0  0  0  0  0  0
   27.1027   -7.8316    0.0000 O   0  0  0  0  0  0  0  0  0  0  0  0
   26.0548   -6.8965    0.0000 O   0  0  0  0  0  0  0  0  0  0  0  0
   13.6980  -10.5140    0.0000 C   0  0  0  0  0  0  0  0  0  0  0  0
   12.9836  -11.7515    0.0000 H   0  0  0  0  0  0  0  0  0  0  0  0
  1  2  1  0  0  0  0
  2  3  1  0  0  0  0
  3  4  1  0  0  0  0
  4  5  1  0  0  0  0
  5  6  1  0  0  0  0
  6  7  1  0  0  0  0
  7  8  1  0  0  0  0
  8  9  1  0  0  0  0
  9 10  1  0  0  0  0
 10 11  1  0  0  0  0
 11 12  1  0  0  0  0
 12 13  1  0  0  0  0
 13 14  1  0  0  0  0
 14 15  1  0  0  0  0
 15 16  1  0  0  0  0
 16 17  1  0  0  0  0
 12 17  1  0  0  0  0
 17 18  1  0  0  0  0
  9 18  1  0  0  0  0
 18 19  1  0  0  0  0
 19 20  1  0  0  0  0
 20 21  2  0  0  0  0
  8 21  1  0  0  0  0
 21 22  1  0  0  0  0
  5 22  1  0  0  0  0
  1 22  1  0  0  0  0
 23 24  2  0  0  0  0
 23 25  1  0  0  0  0
  5 23  1  1  0  0  0
 17 26  1  1  0  0  0
 13 27  1  1  0  0  0
  8 28  1  6  0  0  0
  2 29  1  0  0  0  0
  2 30  1  0  0  0  0
 31 32  1  0  0  0  0
 13 31  1  0  0  0  0
 15 33  1  1  0  0  0
 35 36  1  0  0  0  0
 36 37  1  0  0  0  0
 37 38  1  0  0  0  0
 38 39  1  0  0  0  0
 39 40  1  0  0  0  0
 35 40  1  0  0  0  0
 42 43  1  0  0  0  0
 43 44  1  0  0  0  0
 44 45  1  0  0  0  0
 45 46  1  0  0  0  0
 46 47  1  0  0  0  0
 42 47  1  0  0  0  0
 46 48  1  6  0  0  0
 45 49  1  1  0  0  0
 44 50  1  6  0  0  0
 43 41  1  1  0  0  0
 38 41  1  1  0  0  0
 51 52  1  0  0  0  0
 40 51  1  1  0  0  0
 39 53  1  6  0  0  0
 37 54  1  6  0  0  0
 36 34  1  1  0  0  0
 14 34  1  1  0  0  0
 12 55  1  6  0  0  0
 22 56  1  1  0  0  0
 57 58  1  0  0  0  0
 58 59  1  0  0  0  0
 59 60  1  0  0  0  0
 60 61  1  0  0  0  0
 61 62  1  0  0  0  0
 57 62  1  0  0  0  0
 61 63  1  1  0  0  0
 60 64  1  1  0  0  0
 66 67  1  0  0  0  0
 67 68  1  0  0  0  0
 68 69  1  0  0  0  0
 69 70  1  0  0  0  0
 70 71  1  0  0  0  0
 66 71  1  0  0  0  0
 73 74  1  0  0  0  0
 74 75  1  0  0  0  0
 75 76  1  0  0  0  0
 76 77  1  0  0  0  0
 77 78  1  0  0  0  0
 73 78  1  0  0  0  0
 77 79  1  1  0  0  0
 76 80  1  1  0  0  0
 75 81  1  6  0  0  0
 74 72  1  1  0  0  0
 69 72  1  6  0  0  0
 71 82  1  6  0  0  0
 68 83  1  6  0  0  0
 85 86  1  0  0  0  0
 86 87  1  0  0  0  0
 87 88  1  0  0  0  0
 88 89  1  0  0  0  0
 89 90  1  0  0  0  0
 85 90  1  0  0  0  0
 89 91  1  6  0  0  0
 87 92  1  6  0  0  0
 94 95  1  0  0  0  0
 95 96  1  0  0  0  0
 96 97  1  0  0  0  0
 97 98  1  0  0  0  0
 94 98  1  0  0  0  0
 99100  1  0  0  0  0
 97 99  1  1  0  0  0
 97101  1  6  0  0  0
 96102  1  6  0  0  0
 95 93  1  1  0  0  0
 88 93  1  1  0  0  0
 86 84  1  1  0  0  0
 70 84  1  1  0  0  0
 67 65  1  1  0  0  0
 59 65  1  6  0  0  0
 58 25  1  1  0  0  0
  9103  1  1  0  0  0
 18104  1  6  0  0  0
M  END
>  <cdx:fragmentId>
5

$$$$
