800079.cdx
  Mrv1902 05222410232D          

 95105  0  0  0  0            999 V2000
   13.6695   -6.8840    0.0000 C   0  0  0  0  0  0  0  0  0  0  0  0
   14.3839   -6.4715    0.0000 C   0  0  0  0  0  0  0  0  0  0  0  0
   15.0984   -6.8840    0.0000 C   0  0  0  0  0  0  0  0  0  0  0  0
   15.0984   -7.7090    0.0000 C   0  0  0  0  0  0  0  0  0  0  0  0
   14.3839   -8.1215    0.0000 C   0  0  2  0  0  0  0  0  0  0  0  0
   14.3839   -8.9465    0.0000 C   0  0  0  0  0  0  0  0  0  0  0  0
   13.6695   -9.3590    0.0000 C   0  0  0  0  0  0  0  0  0  0  0  0
   12.9550   -8.9465    0.0000 C   0  0  1  0  0  0  0  0  0  0  0  0
   12.2405   -9.3590    0.0000 C   0  0  2  0  0  0  0  0  0  0  0  0
   12.2405  -10.1840    0.0000 C   0  0  0  0  0  0  0  0  0  0  0  0
   11.5261  -10.5965    0.0000 C   0  0  0  0  0  0  0  0  0  0  0  0
   10.8116  -10.1840    0.0000 C   0  0  1  0  0  0  0  0  0  0  0  0
   10.0971  -10.5965    0.0000 C   0  0  2  0  0  0  0  0  0  0  0  0
    9.3826  -10.1840    0.0000 C   0  0  2  0  0  0  0  0  0  0  0  0
    9.3826   -9.3590    0.0000 C   0  0  2  0  0  0  0  0  0  0  0  0
   10.0971   -8.9465    0.0000 C   0  0  0  0  0  0  0  0  0  0  0  0
   10.8116   -9.3590    0.0000 C   0  0  2  0  0  0  0  0  0  0  0  0
   11.5261   -8.9465    0.0000 C   0  0  1  0  0  0  0  0  0  0  0  0
   11.5261   -8.1215    0.0000 C   0  0  0  0  0  0  0  0  0  0  0  0
   12.2405   -7.7090    0.0000 C   0  0  0  0  0  0  0  0  0  0  0  0
   12.9550   -8.1215    0.0000 C   0  0  0  0  0  0  0  0  0  0  0  0
   13.6695   -7.7090    0.0000 C   0  0  2  0  0  0  0  0  0  0  0  0
   15.0984   -8.5340    0.0000 C   0  0  0  0  0  0  0  0  0  0  0  0
   15.0984   -9.3590    0.0000 O   0  0  0  0  0  0  0  0  0  0  0  0
   15.8129   -8.1215    0.0000 O   0  0  0  0  0  0  0  0  0  0  0  0
   10.8116   -8.5340    0.0000 C   0  0  0  0  0  0  0  0  0  0  0  0
    9.6846  -11.3110    0.0000 C   0  0  0  0  0  0  0  0  0  0  0  0
   13.9714   -5.7570    0.0000 C   0  0  0  0  0  0  0  0  0  0  0  0
   14.7964   -5.7570    0.0000 C   0  0  0  0  0  0  0  0  0  0  0  0
   10.5096  -11.3110    0.0000 C   0  0  0  0  0  0  0  0  0  0  0  0
   10.0971  -12.0255    0.0000 O   0  0  0  0  0  0  0  0  0  0  0  0
    8.6682   -8.9465    0.0000 O   0  0  0  0  0  0  0  0  0  0  0  0
    8.6682  -10.5965    0.0000 O   0  0  0  0  0  0  0  0  0  0  0  0
    7.9537   -9.3590    0.0000 O   0  0  0  0  0  0  0  0  0  0  0  0
    7.9537  -10.1840    0.0000 C   0  0  2  0  0  0  0  0  0  0  0  0
    7.2392  -10.5965    0.0000 C   0  0  1  0  0  0  0  0  0  0  0  0
    6.5248  -10.1840    0.0000 C   0  0  2  0  0  0  0  0  0  0  0  0
    6.5248   -9.3590    0.0000 C   0  0  1  0  0  0  0  0  0  0  0  0
    7.2392   -8.9465    0.0000 C   0  0  1  0  0  0  0  0  0  0  0  0
    5.8103  -10.5965    0.0000 O   0  0  0  0  0  0  0  0  0  0  0  0
    5.0958   -9.3590    0.0000 O   0  0  0  0  0  0  0  0  0  0  0  0
    5.0958  -10.1840    0.0000 C   0  0  2  0  0  0  0  0  0  0  0  0
    4.3814  -10.5965    0.0000 C   0  0  1  0  0  0  0  0  0  0  0  0
    3.6669  -10.1840    0.0000 C   0  0  2  0  0  0  0  0  0  0  0  0
    3.6669   -9.3590    0.0000 C   0  0  1  0  0  0  0  0  0  0  0  0
    4.3814   -8.9465    0.0000 C   0  0  0  0  0  0  0  0  0  0  0  0
    2.9524   -8.9465    0.0000 O   0  0  0  0  0  0  0  0  0  0  0  0
    2.9524  -10.5965    0.0000 O   0  0  0  0  0  0  0  0  0  0  0  0
    4.3814  -11.4215    0.0000 O   0  0  0  0  0  0  0  0  0  0  0  0
    7.2392   -8.1215    0.0000 C   0  0  0  0  0  0  0  0  0  0  0  0
    6.5248   -7.7090    0.0000 O   0  0  0  0  0  0  0  0  0  0  0  0
    5.8103   -8.9465    0.0000 O   0  0  0  0  0  0  0  0  0  0  0  0
    7.2392  -11.4215    0.0000 O   0  0  0  0  0  0  0  0  0  0  0  0
   10.8116  -11.0090    0.0000 H   0  0  0  0  0  0  0  0  0  0  0  0
   13.6695   -8.5340    0.0000 H   0  0  0  0  0  0  0  0  0  0  0  0
   16.5274   -9.3590    0.0000 O   0  0  0  0  0  0  0  0  0  0  0  0
   16.5274   -8.5340    0.0000 C   0  0  2  0  0  0  0  0  0  0  0  0
   17.2418   -8.1215    0.0000 C   0  0  1  0  0  0  0  0  0  0  0  0
   17.9563   -8.5340    0.0000 C   0  0  2  0  0  0  0  0  0  0  0  0
   17.9563   -9.3590    0.0000 C   0  0  2  0  0  0  0  0  0  0  0  0
   17.2418   -9.7715    0.0000 C   0  0  0  0  0  0  0  0  0  0  0  0
   18.6708   -9.7715    0.0000 O   0  0  0  0  0  0  0  0  0  0  0  0
   18.6708   -8.1215    0.0000 O   0  0  0  0  0  0  0  0  0  0  0  0
   17.2418   -7.2965    0.0000 O   0  0  0  0  0  0  0  0  0  0  0  0
   18.6708   -7.2965    0.0000 O   0  0  0  0  0  0  0  0  0  0  0  0
   17.9563   -6.8840    0.0000 C   0  0  2  0  0  0  0  0  0  0  0  0
   17.9563   -6.0590    0.0000 C   0  0  1  0  0  0  0  0  0  0  0  0
   18.6708   -5.6465    0.0000 C   0  0  1  0  0  0  0  0  0  0  0  0
   19.3852   -6.0590    0.0000 C   0  0  2  0  0  0  0  0  0  0  0  0
   19.3852   -6.8840    0.0000 C   0  0  2  0  0  0  0  0  0  0  0  0
   20.0997   -7.2965    0.0000 C   0  0  0  0  0  0  0  0  0  0  0  0
   18.6708   -4.8215    0.0000 O   0  0  0  0  0  0  0  0  0  0  0  0
   17.2418   -5.6465    0.0000 O   0  0  0  0  0  0  0  0  0  0  0  0
   20.0997   -5.6465    0.0000 O   0  0  0  0  0  0  0  0  0  0  0  0
   20.8142   -6.8840    0.0000 O   0  0  0  0  0  0  0  0  0  0  0  0
   20.8142   -6.0590    0.0000 C   0  0  2  0  0  0  0  0  0  0  0  0
   21.5287   -5.6465    0.0000 C   0  0  1  0  0  0  0  0  0  0  0  0
   22.2431   -6.0590    0.0000 C   0  0  2  0  0  0  0  0  0  0  0  0
   22.2431   -6.8840    0.0000 C   0  0  1  0  0  0  0  0  0  0  0  0
   21.5287   -7.2965    0.0000 C   0  0  0  0  0  0  0  0  0  0  0  0
   22.9576   -7.2965    0.0000 O   0  0  0  0  0  0  0  0  0  0  0  0
   21.5287   -4.8215    0.0000 O   0  0  0  0  0  0  0  0  0  0  0  0
   22.9576   -5.6465    0.0000 O   0  0  0  0  0  0  0  0  0  0  0  0
   23.7583   -6.8795    0.0000 O   0  0  0  0  0  0  0  0  0  0  0  0
   23.6721   -6.0590    0.0000 C   0  0  2  0  0  0  0  0  0  0  0  0
   24.4257   -5.7235    0.0000 C   0  0  1  0  0  0  0  0  0  0  0  0
   24.9778   -6.3365    0.0000 C   0  0  2  0  0  0  0  0  0  0  0  0
   24.5653   -7.0510    0.0000 C   0  0  0  0  0  0  0  0  0  0  0  0
   25.7315   -6.6721    0.0000 C   0  0  0  0  0  0  0  0  0  0  0  0
   26.3989   -6.1872    0.0000 O   0  0  0  0  0  0  0  0  0  0  0  0
   25.6452   -5.8516    0.0000 O   0  0  0  0  0  0  0  0  0  0  0  0
   24.5973   -4.9165    0.0000 O   0  0  0  0  0  0  0  0  0  0  0  0
   12.2405   -8.5340    0.0000 C   0  0  0  0  0  0  0  0  0  0  0  0
   11.5261   -9.7715    0.0000 H   0  0  0  0  0  0  0  0  0  0  0  0
   12.9550   -9.7715    0.0000 C   0  0  0  0  0  0  0  0  0  0  0  0
  1  2  1  0  0  0  0
  2  3  1  0  0  0  0
  3  4  1  0  0  0  0
  4  5  1  0  0  0  0
  5  6  1  0  0  0  0
  6  7  1  0  0  0  0
  7  8  1  0  0  0  0
  8  9  1  0  0  0  0
  9 10  1  0  0  0  0
 10 11  1  0  0  0  0
 11 12  1  0  0  0  0
 12 13  1  0  0  0  0
 13 14  1  0  0  0  0
 14 15  1  0  0  0  0
 15 16  1  0  0  0  0
 16 17  1  0  0  0  0
 12 17  1  0  0  0  0
 17 18  1  0  0  0  0
  9 18  1  0  0  0  0
 18 19  1  0  0  0  0
 19 20  1  0  0  0  0
 20 21  2  0  0  0  0
  8 21  1  0  0  0  0
 21 22  1  0  0  0  0
  5 22  1  0  0  0  0
  1 22  1  0  0  0  0
 23 24  2  0  0  0  0
 23 25  1  0  0  0  0
  5 23  1  1  0  0  0
 17 26  1  1  0  0  0
 13 27  1  1  0  0  0
  2 28  1  0  0  0  0
  2 29  1  0  0  0  0
 30 31  1  0  0  0  0
 13 30  1  0  0  0  0
 15 32  1  1  0  0  0
 34 35  1  0  0  0  0
 35 36  1  0  0  0  0
 36 37  1  0  0  0  0
 37 38  1  0  0  0  0
 38 39  1  0  0  0  0
 34 39  1  0  0  0  0
 41 42  1  0  0  0  0
 42 43  1  0  0  0  0
 43 44  1  0  0  0  0
 44 45  1  0  0  0  0
 45 46  1  0  0  0  0
 41 46  1  0  0  0  0
 45 47  1  6  0  0  0
 44 48  1  1  0  0  0
 43 49  1  6  0  0  0
 42 40  1  1  0  0  0
 37 40  1  1  0  0  0
 50 51  1  0  0  0  0
 39 50  1  1  0  0  0
 38 52  1  6  0  0  0
 36 53  1  6  0  0  0
 35 33  1  1  0  0  0
 14 33  1  1  0  0  0
 12 54  1  6  0  0  0
 22 55  1  1  0  0  0
 56 57  1  0  0  0  0
 57 58  1  0  0  0  0
 58 59  1  0  0  0  0
 59 60  1  0  0  0  0
 60 61  1  0  0  0  0
 56 61  1  0  0  0  0
 60 62  1  1  0  0  0
 59 63  1  1  0  0  0
 65 66  1  0  0  0  0
 66 67  1  0  0  0  0
 67 68  1  0  0  0  0
 68 69  1  0  0  0  0
 69 70  1  0  0  0  0
 65 70  1  0  0  0  0
 70 71  1  6  0  0  0
 68 72  1  6  0  0  0
 67 73  1  6  0  0  0
 75 76  1  0  0  0  0
 76 77  1  0  0  0  0
 77 78  1  0  0  0  0
 78 79  1  0  0  0  0
 79 80  1  0  0  0  0
 75 80  1  0  0  0  0
 79 81  1  6  0  0  0
 77 82  1  6  0  0  0
 84 85  1  0  0  0  0
 85 86  1  0  0  0  0
 86 87  1  0  0  0  0
 87 88  1  0  0  0  0
 84 88  1  0  0  0  0
 89 90  1  0  0  0  0
 87 89  1  1  0  0  0
 87 91  1  6  0  0  0
 86 92  1  6  0  0  0
 85 83  1  1  0  0  0
 78 83  1  1  0  0  0
 76 74  1  1  0  0  0
 69 74  1  1  0  0  0
 66 64  1  1  0  0  0
 58 64  1  6  0  0  0
 57 25  1  1  0  0  0
  9 93  1  1  0  0  0
 18 94  1  6  0  0  0
  8 95  1  6  0  0  0
M  END
>  <cdx:fragmentId>
5

$$$$
