atractylochromene(10244247).cdx
  Mrv1902 05222410272D          

 19 20  0  0  0  0            999 V2000
    5.1183   -6.8888    0.0000 C   0  0  0  0  0  0  0  0  0  0  0  0
    5.1183   -7.7138    0.0000 C   0  0  0  0  0  0  0  0  0  0  0  0
    5.8327   -8.1263    0.0000 C   0  0  0  0  0  0  0  0  0  0  0  0
    6.5472   -7.7138    0.0000 C   0  0  0  0  0  0  0  0  0  0  0  0
    6.5472   -6.8888    0.0000 C   0  0  0  0  0  0  0  0  0  0  0  0
    5.8327   -6.4763    0.0000 C   0  0  0  0  0  0  0  0  0  0  0  0
    7.2617   -8.1263    0.0000 O   0  0  0  0  0  0  0  0  0  0  0  0
    7.9762   -7.7138    0.0000 C   0  0  0  0  0  0  0  0  0  0  0  0
    7.9762   -6.8888    0.0000 C   0  0  0  0  0  0  0  0  0  0  0  0
    7.2617   -6.4763    0.0000 C   0  0  0  0  0  0  0  0  0  0  0  0
    4.4038   -6.4763    0.0000 O   0  0  0  0  0  0  0  0  0  0  0  0
    5.8327   -8.9513    0.0000 C   0  0  0  0  0  0  0  0  0  0  0  0
    8.8012   -7.7138    0.0000 C   0  0  0  0  0  0  0  0  0  0  0  0
    9.2137   -6.9993    0.0000 C   0  0  0  0  0  0  0  0  0  0  0  0
   10.0387   -6.9993    0.0000 C   0  0  0  0  0  0  0  0  0  0  0  0
   10.4512   -6.2848    0.0000 C   0  0  0  0  0  0  0  0  0  0  0  0
   11.2762   -6.2848    0.0000 C   0  0  0  0  0  0  0  0  0  0  0  0
    9.8678   -5.7014    0.0000 C   0  0  0  0  0  0  0  0  0  0  0  0
    8.1897   -8.5106    0.0000 C   0  0  0  0  0  0  0  0  0  0  0  0
  1  2  2  0  0  0  0
  2  3  1  0  0  0  0
  3  4  2  0  0  0  0
  4  5  1  0  0  0  0
  5  6  2  0  0  0  0
  6  1  1  0  0  0  0
  4  7  1  0  0  0  0
  7  8  1  0  0  0  0
  8  9  1  0  0  0  0
  9 10  2  0  0  0  0
 10  5  1  0  0  0  0
  1 11  1  0  0  0  0
  3 12  1  0  0  0  0
  8 13  1  0  0  0  0
 13 14  1  0  0  0  0
 14 15  1  0  0  0  0
 15 16  2  0  0  0  0
 16 17  1  0  0  0  0
 16 18  1  0  0  0  0
  8 19  1  0  0  0  0
M  END
>  <cdx:fragmentId>
5

$$$$
