800062.cdx
  Mrv1902 05222410222D          

 23 26  0  0  0  0            999 V2000
    9.5987   -8.3781    0.0000 O   0  0  0  0  0  0  0  0  0  0  0  0
   10.0836   -7.7107    0.0000 C   0  0  0  0  0  0  0  0  0  0  0  0
    9.5987   -7.0433    0.0000 C   0  0  0  0  0  0  0  0  0  0  0  0
    8.8141   -7.2982    0.0000 C   0  0  0  0  0  0  0  0  0  0  0  0
    8.0996   -6.8857    0.0000 C   0  0  0  0  0  0  0  0  0  0  0  0
    7.3851   -7.2982    0.0000 C   0  0  0  0  0  0  0  0  0  0  0  0
    7.3851   -8.1232    0.0000 C   0  0  0  0  0  0  0  0  0  0  0  0
    8.0996   -8.5357    0.0000 C   0  0  0  0  0  0  0  0  0  0  0  0
    8.8141   -8.1232    0.0000 C   0  0  0  0  0  0  0  0  0  0  0  0
    8.0996   -9.3607    0.0000 C   0  0  0  0  0  0  0  0  0  0  0  0
    7.3851   -9.7732    0.0000 C   0  0  0  0  0  0  0  0  0  0  0  0
    6.6707   -9.3607    0.0000 C   0  0  0  0  0  0  0  0  0  0  0  0
    5.9562   -9.7732    0.0000 C   0  0  1  0  0  0  0  0  0  0  0  0
    5.2417   -9.3607    0.0000 C   0  0  1  0  0  0  0  0  0  0  0  0
    5.2417   -8.5357    0.0000 C   0  0  0  0  0  0  0  0  0  0  0  0
    5.9562   -8.1232    0.0000 C   0  0  0  0  0  0  0  0  0  0  0  0
    6.6707   -8.5357    0.0000 C   0  0  0  0  0  0  0  0  0  0  0  0
    6.6707   -6.8857    0.0000 O   0  0  0  0  0  0  0  0  0  0  0  0
    8.0996   -6.0607    0.0000 O   0  0  0  0  0  0  0  0  0  0  0  0
    6.3687  -10.4877    0.0000 C   0  0  0  0  0  0  0  0  0  0  0  0
    9.8536   -6.2586    0.0000 C   0  0  0  0  0  0  0  0  0  0  0  0
    4.5272   -9.7732    0.0000 O   0  0  0  0  0  0  0  0  0  0  0  0
    5.5437  -10.4877    0.0000 O   0  0  0  0  0  0  0  0  0  0  0  0
  1  2  1  0  0  0  0
  2  3  1  0  0  0  0
  3  4  1  0  0  0  0
  4  5  1  0  0  0  0
  5  6  1  0  0  0  0
  6  7  1  0  0  0  0
  7  8  1  0  0  0  0
  8  9  1  0  0  0  0
  4  9  2  0  0  0  0
  1  9  1  0  0  0  0
 10 11  1  0  0  0  0
 11 12  2  0  0  0  0
 12 13  1  0  0  0  0
 13 14  1  0  0  0  0
 14 15  1  0  0  0  0
 15 16  1  0  0  0  0
 16 17  1  0  0  0  0
 12 17  1  0  0  0  0
 17  7  2  0  0  0  0
 10  8  2  0  0  0  0
  6 18  2  0  0  0  0
  5 19  2  0  0  0  0
 13 20  1  6  0  0  0
  3 21  1  0  0  0  0
 14 22  1  6  0  0  0
 13 23  1  1  0  0  0
M  END
>  <cdx:fragmentId>
11962

$$$$
