800026.cdx
  Mrv1902 05222410262D          

 39 44  0  0  0  0            999 V2000
    6.5651   -8.9424    0.0000 C   0  0  0  0  0  0  0  0  0  0  0  0
    7.2795   -9.3549    0.0000 C   0  0  0  0  0  0  0  0  0  0  0  0
    7.2795  -10.1799    0.0000 C   0  0  0  0  0  0  0  0  0  0  0  0
    6.5651  -10.5924    0.0000 C   0  0  0  0  0  0  0  0  0  0  0  0
    5.8506  -10.1799    0.0000 C   0  0  0  0  0  0  0  0  0  0  0  0
    5.1361  -10.5924    0.0000 C   0  0  0  0  0  0  0  0  0  0  0  0
    4.4217  -10.1799    0.0000 C   0  0  0  0  0  0  0  0  0  0  0  0
    3.7072  -10.5924    0.0000 C   0  0  0  0  0  0  0  0  0  0  0  0
    2.9927  -10.1799    0.0000 C   0  0  0  0  0  0  0  0  0  0  0  0
    2.9927   -9.3549    0.0000 C   0  0  0  0  0  0  0  0  0  0  0  0
    3.7072   -8.9424    0.0000 C   0  0  0  0  0  0  0  0  0  0  0  0
    4.4217   -9.3549    0.0000 C   0  0  0  0  0  0  0  0  0  0  0  0
    5.1361   -8.9424    0.0000 C   0  0  0  0  0  0  0  0  0  0  0  0
    5.8506   -9.3549    0.0000 C   0  0  0  0  0  0  0  0  0  0  0  0
    5.1361   -8.1174    0.0000 O   0  0  0  0  0  0  0  0  0  0  0  0
    5.1361  -11.4174    0.0000 O   0  0  0  0  0  0  0  0  0  0  0  0
    7.9940  -10.5924    0.0000 C   0  0  0  0  0  0  0  0  0  0  0  0
    3.7072   -8.1174    0.0000 O   0  0  0  0  0  0  0  0  0  0  0  0
    2.2783  -10.5924    0.0000 O   0  0  0  0  0  0  0  0  0  0  0  0
    6.5651   -8.1174    0.0000 O   0  0  0  0  0  0  0  0  0  0  0  0
    8.7085   -9.3549    0.0000 C   0  0  0  0  0  0  0  0  0  0  0  0
    7.9940   -8.9424    0.0000 C   0  0  0  0  0  0  0  0  0  0  0  0
    7.9940   -8.1174    0.0000 C   0  0  0  0  0  0  0  0  0  0  0  0
    8.7085   -7.7049    0.0000 C   0  0  0  0  0  0  0  0  0  0  0  0
    9.4230   -8.1174    0.0000 C   0  0  0  0  0  0  0  0  0  0  0  0
   10.1374   -7.7049    0.0000 C   0  0  0  0  0  0  0  0  0  0  0  0
   10.8519   -8.1174    0.0000 C   0  0  0  0  0  0  0  0  0  0  0  0
   11.5664   -7.7049    0.0000 C   0  0  0  0  0  0  0  0  0  0  0  0
   12.2808   -8.1174    0.0000 C   0  0  0  0  0  0  0  0  0  0  0  0
   12.2808   -8.9424    0.0000 C   0  0  0  0  0  0  0  0  0  0  0  0
   11.5664   -9.3549    0.0000 C   0  0  0  0  0  0  0  0  0  0  0  0
   10.8519   -8.9424    0.0000 C   0  0  0  0  0  0  0  0  0  0  0  0
   10.1374   -9.3549    0.0000 C   0  0  0  0  0  0  0  0  0  0  0  0
    9.4230   -8.9424    0.0000 C   0  0  0  0  0  0  0  0  0  0  0  0
   10.1374   -6.8799    0.0000 O   0  0  0  0  0  0  0  0  0  0  0  0
   10.1374  -10.1799    0.0000 O   0  0  0  0  0  0  0  0  0  0  0  0
    7.2795   -7.7049    0.0000 C   0  0  0  0  0  0  0  0  0  0  0  0
   11.5664  -10.1799    0.0000 O   0  0  0  0  0  0  0  0  0  0  0  0
    8.7085  -10.1799    0.0000 O   0  0  0  0  0  0  0  0  0  0  0  0
  1  2  1  0  0  0  0
  2  3  2  0  0  0  0
  3  4  1  0  0  0  0
  4  5  2  0  0  0  0
  5  6  1  0  0  0  0
  6  7  1  0  0  0  0
  7  8  1  0  0  0  0
  8  9  2  0  0  0  0
  9 10  1  0  0  0  0
 10 11  2  0  0  0  0
 11 12  1  0  0  0  0
  7 12  2  0  0  0  0
 12 13  1  0  0  0  0
 13 14  1  0  0  0  0
  5 14  1  0  0  0  0
  1 14  2  0  0  0  0
 13 15  2  0  0  0  0
  6 16  2  0  0  0  0
  3 17  1  0  0  0  0
 11 18  1  0  0  0  0
  9 19  1  0  0  0  0
  1 20  1  0  0  0  0
 21 22  1  0  0  0  0
 22 23  2  0  0  0  0
 23 24  1  0  0  0  0
 24 25  2  0  0  0  0
 25 26  1  0  0  0  0
 26 27  1  0  0  0  0
 27 28  1  0  0  0  0
 28 29  2  0  0  0  0
 29 30  1  0  0  0  0
 30 31  2  0  0  0  0
 31 32  1  0  0  0  0
 27 32  2  0  0  0  0
 32 33  1  0  0  0  0
 33 34  1  0  0  0  0
 25 34  1  0  0  0  0
 21 34  2  0  0  0  0
 26 35  2  0  0  0  0
 33 36  2  0  0  0  0
 23 37  1  0  0  0  0
 31 38  1  0  0  0  0
 21 39  1  0  0  0  0
  2 22  1  0  0  0  0
M  END
>  <cdx:fragmentId>
87942

$$$$
