800009.cdx
  Mrv1902 05222410272D          

 24 25  0  0  0  0            999 V2000
    6.8988   -7.1714    0.0000 C   0  0  0  0  0  0  0  0  0  0  0  0
    6.1843   -7.5839    0.0000 C   0  0  0  0  0  0  0  0  0  0  0  0
    5.4698   -7.1714    0.0000 C   0  0  0  0  0  0  0  0  0  0  0  0
    6.8988   -6.3464    0.0000 O   0  0  0  0  0  0  0  0  0  0  0  0
    7.6132   -7.5839    0.0000 N   0  0  0  0  0  0  0  0  0  0  0  0
    4.7554   -7.5839    0.0000 C   0  0  0  0  0  0  0  0  0  0  0  0
    4.0409   -7.1714    0.0000 C   0  0  0  0  0  0  0  0  0  0  0  0
    3.3264   -7.5839    0.0000 C   0  0  0  0  0  0  0  0  0  0  0  0
    3.3264   -8.4089    0.0000 C   0  0  0  0  0  0  0  0  0  0  0  0
    4.0409   -8.8214    0.0000 C   0  0  0  0  0  0  0  0  0  0  0  0
    4.7554   -8.4089    0.0000 C   0  0  0  0  0  0  0  0  0  0  0  0
    2.6119   -7.1714    0.0000 O   0  0  0  0  0  0  0  0  0  0  0  0
    1.8975   -7.5839    0.0000 C   0  0  0  0  0  0  0  0  0  0  0  0
    2.6119   -8.8214    0.0000 O   0  0  0  0  0  0  0  0  0  0  0  0
    8.3277   -7.1714    0.0000 C   0  0  0  0  0  0  0  0  0  0  0  0
    9.0422   -7.5839    0.0000 C   0  0  2  0  0  0  0  0  0  0  0  0
    9.7566   -7.1714    0.0000 C   0  0  0  0  0  0  0  0  0  0  0  0
    9.7566   -6.3464    0.0000 C   0  0  0  0  0  0  0  0  0  0  0  0
   10.4711   -5.9339    0.0000 C   0  0  0  0  0  0  0  0  0  0  0  0
   11.1856   -6.3464    0.0000 C   0  0  0  0  0  0  0  0  0  0  0  0
   11.1856   -7.1714    0.0000 C   0  0  0  0  0  0  0  0  0  0  0  0
   10.4711   -7.5839    0.0000 C   0  0  0  0  0  0  0  0  0  0  0  0
   11.9001   -5.9339    0.0000 O   0  0  0  0  0  0  0  0  0  0  0  0
    9.0422   -8.4089    0.0000 O   0  0  0  0  0  0  0  0  0  0  0  0
  1  2  1  0  0  0  0
  2  3  2  0  0  0  0
  1  4  2  0  0  0  0
  1  5  1  0  0  0  0
  6  7  1  0  0  0  0
  7  8  2  0  0  0  0
  8  9  1  0  0  0  0
  9 10  2  0  0  0  0
 10 11  1  0  0  0  0
  6 11  2  0  0  0  0
 12 13  1  0  0  0  0
  8 12  1  0  0  0  0
  9 14  1  0  0  0  0
  3  6  1  0  0  0  0
 15 16  1  0  0  0  0
 17 18  1  0  0  0  0
 18 19  2  0  0  0  0
 19 20  1  0  0  0  0
 20 21  2  0  0  0  0
 21 22  1  0  0  0  0
 17 22  2  0  0  0  0
 20 23  1  0  0  0  0
 16 17  1  0  0  0  0
 16 24  1  6  0  0  0
  5 15  1  0  0  0  0
M  END
>  <cdx:fragmentId>
145849

$$$$
