80017.cdx
  Mrv1902 05222410272D          

 10  9  0  0  0  0            999 V2000
    7.2599   -1.7325    0.0000 C   0  0  0  0  0  0  0  0  0  0  0  0
    6.5454   -2.1450    0.0000 C   0  0  0  0  0  0  0  0  0  0  0  0
    5.8310   -2.5575    0.0000 C   0  0  0  0  0  0  0  0  0  0  0  0
    5.1165   -2.9700    0.0000 C   0  0  0  0  0  0  0  0  0  0  0  0
    4.4020   -2.5575    0.0000 C   0  0  0  0  0  0  0  0  0  0  0  0
    3.6876   -2.9700    0.0000 C   0  0  0  0  0  0  0  0  0  0  0  0
    2.9731   -2.5575    0.0000 C   0  0  0  0  0  0  0  0  0  0  0  0
    2.2586   -2.9700    0.0000 C   0  0  0  0  0  0  0  0  0  0  0  0
    1.5441   -2.5575    0.0000 C   0  0  0  0  0  0  0  0  0  0  0  0
    7.9744   -2.1450    0.0000 O   0  0  0  0  0  0  0  0  0  0  0  0
  1  2  1  0  0  0  0
  2  3  3  0  0  0  0
  3  4  1  0  0  0  0
  4  5  1  0  0  0  0
  5  6  1  0  0  0  0
  6  7  1  0  0  0  0
  7  8  1  0  0  0  0
  8  9  1  0  0  0  0
  1 10  1  0  0  0  0
M  END
>  <cdx:groupId>
31

>  <cdx:fragmentId>
5

$$$$
