8001.cdx
  Mrv1902 05222410222D          

 31 34  0  0  0  0            999 V2000
    5.7164   -7.7550    0.0000 C   0  0  0  0  0  0  0  0  0  0  0  0
    5.7164   -8.5800    0.0000 C   0  0  0  0  0  0  0  0  0  0  0  0
    6.4309   -8.9925    0.0000 C   0  0  0  0  0  0  0  0  0  0  0  0
    7.1453   -8.5800    0.0000 C   0  0  0  0  0  0  0  0  0  0  0  0
    7.1453   -7.7550    0.0000 C   0  0  0  0  0  0  0  0  0  0  0  0
    6.4309   -7.3425    0.0000 C   0  0  0  0  0  0  0  0  0  0  0  0
    7.8598   -8.9925    0.0000 C   0  0  0  0  0  0  0  0  0  0  0  0
    8.5743   -8.5800    0.0000 C   0  0  0  0  0  0  0  0  0  0  0  0
    8.5743   -7.7550    0.0000 C   0  0  0  0  0  0  0  0  0  0  0  0
    7.8598   -7.3425    0.0000 O   0  0  0  0  0  0  0  0  0  0  0  0
    9.2888   -7.3425    0.0000 C   0  0  0  0  0  0  0  0  0  0  0  0
    9.2888   -6.5175    0.0000 C   0  0  0  0  0  0  0  0  0  0  0  0
   10.0032   -7.7550    0.0000 C   0  0  0  0  0  0  0  0  0  0  0  0
   10.7177   -7.3425    0.0000 C   0  0  0  0  0  0  0  0  0  0  0  0
   10.7177   -6.5175    0.0000 C   0  0  0  0  0  0  0  0  0  0  0  0
   10.0032   -6.1050    0.0000 C   0  0  0  0  0  0  0  0  0  0  0  0
    7.8598   -9.8175    0.0000 O   0  0  0  0  0  0  0  0  0  0  0  0
    6.4309   -9.8175    0.0000 O   0  0  0  0  0  0  0  0  0  0  0  0
    5.0019   -7.3425    0.0000 O   0  0  0  0  0  0  0  0  0  0  0  0
    5.0019   -8.9925    0.0000 O   0  0  0  0  0  0  0  0  0  0  0  0
    5.7414   -5.2817    0.0000 C   0  0  2  0  0  0  0  0  0  0  0  0
    5.0332   -4.8586    0.0000 C   0  0  2  0  0  0  0  0  0  0  0  0
    4.3127   -5.2605    0.0000 C   0  0  1  0  0  0  0  0  0  0  0  0
    4.3004   -6.0854    0.0000 C   0  0  2  0  0  0  0  0  0  0  0  0
    5.0086   -6.5085    0.0000 C   0  0  1  0  0  0  0  0  0  0  0  0
    5.7292   -6.1067    0.0000 O   0  0  0  0  0  0  0  0  0  0  0  0
    6.4620   -4.8799    0.0000 C   0  0  0  0  0  0  0  0  0  0  0  0
    3.6044   -4.8373    0.0000 O   0  0  0  0  0  0  0  0  0  0  0  0
    3.5798   -6.4872    0.0000 O   0  0  0  0  0  0  0  0  0  0  0  0
    5.0455   -4.0337    0.0000 O   0  0  0  0  0  0  0  0  0  0  0  0
    6.4743   -4.0550    0.0000 O   0  0  0  0  0  0  0  0  0  0  0  0
  1  2  2  0  0  0  0
  2  3  1  0  0  0  0
  3  4  2  0  0  0  0
  4  5  1  0  0  0  0
  5  6  2  0  0  0  0
  6  1  1  0  0  0  0
  4  7  1  0  0  0  0
  7  8  1  0  0  0  0
  8  9  2  0  0  0  0
  9 10  1  0  0  0  0
 10  5  1  0  0  0  0
  9 11  1  0  0  0  0
 11 12  1  0  0  0  0
 11 13  2  0  0  0  0
 13 14  1  0  0  0  0
 14 15  2  0  0  0  0
 15 16  1  0  0  0  0
 16 12  2  0  0  0  0
  7 17  2  0  0  0  0
  3 18  1  0  0  0  0
  1 19  1  0  0  0  0
  2 20  1  0  0  0  0
 21 22  1  0  0  0  0
 22 23  1  0  0  0  0
 23 24  1  0  0  0  0
 24 25  1  0  0  0  0
 25 26  1  0  0  0  0
 26 21  1  0  0  0  0
 21 27  1  1  0  0  0
 23 28  1  1  0  0  0
 24 29  1  6  0  0  0
 22 30  1  6  0  0  0
 27 31  1  0  0  0  0
 25 19  1  1  0  0  0
M  END
>  <cdx:fragmentId>
5

$$$$
