80064.cdx
  Mrv1902 05222410242D          

 43 47  0  0  0  0            999 V2000
   12.0691   -3.5469    0.0000 O   0  0  0  0  0  0  0  0  0  0  0  0
    9.9256   -3.9594    0.0000 C   0  0  0  0  0  0  0  0  0  0  0  0
   10.6401   -3.5469    0.0000 C   0  0  0  0  0  0  0  0  0  0  0  0
   11.3546   -3.9594    0.0000 C   0  0  0  0  0  0  0  0  0  0  0  0
   11.3546   -4.7844    0.0000 C   0  0  0  0  0  0  0  0  0  0  0  0
   10.6401   -5.1969    0.0000 C   0  0  0  0  0  0  0  0  0  0  0  0
    9.9256   -4.7844    0.0000 C   0  0  0  0  0  0  0  0  0  0  0  0
    7.0678   -7.2594    0.0000 O   0  0  0  0  0  0  0  0  0  0  0  0
   11.3546   -7.2594    0.0000 O   0  0  0  0  0  0  0  0  0  0  0  0
   11.3546   -8.9094    0.0000 O   0  0  0  0  0  0  0  0  0  0  0  0
    9.9256   -9.7344    0.0000 O   0  0  0  0  0  0  0  0  0  0  0  0
    8.4967   -9.7344    0.0000 O   0  0  0  0  0  0  0  0  0  0  0  0
    8.4967   -8.9094    0.0000 C   0  0  0  0  0  0  0  0  0  0  0  0
    9.2112   -8.4969    0.0000 C   0  0  2  0  0  0  0  0  0  0  0  0
    9.9256   -8.9094    0.0000 C   0  0  2  0  0  0  0  0  0  0  0  0
   10.6401   -8.4969    0.0000 C   0  0  1  0  0  0  0  0  0  0  0  0
   10.6401   -7.6719    0.0000 C   0  0  2  0  0  0  0  0  0  0  0  0
    9.9256   -7.2594    0.0000 C   0  0  1  0  0  0  0  0  0  0  0  0
    9.2112   -7.6719    0.0000 O   0  0  0  0  0  0  0  0  0  0  0  0
    9.9256   -6.4344    0.0000 O   0  0  0  0  0  0  0  0  0  0  0  0
    5.6388   -6.4344    0.0000 O   0  0  0  0  0  0  0  0  0  0  0  0
    4.2099   -7.2594    0.0000 O   0  0  0  0  0  0  0  0  0  0  0  0
    2.7809   -6.4344    0.0000 O   0  0  0  0  0  0  0  0  0  0  0  0
    2.7809   -4.7844    0.0000 C   0  0  0  0  0  0  0  0  0  0  0  0
    3.4954   -5.1969    0.0000 C   0  0  1  0  0  0  0  0  0  0  0  0
    3.4954   -6.0219    0.0000 C   0  0  1  0  0  0  0  0  0  0  0  0
    4.2099   -6.4344    0.0000 C   0  0  2  0  0  0  0  0  0  0  0  0
    4.9244   -6.0219    0.0000 C   0  0  2  0  0  0  0  0  0  0  0  0
    4.9244   -5.1969    0.0000 C   0  0  1  0  0  0  0  0  0  0  0  0
    4.2099   -4.7844    0.0000 O   0  0  0  0  0  0  0  0  0  0  0  0
    5.6388   -4.7844    0.0000 O   0  0  0  0  0  0  0  0  0  0  0  0
    8.4967   -7.2594    0.0000 O   0  0  0  0  0  0  0  0  0  0  0  0
    8.4967   -4.7844    0.0000 O   0  0  0  0  0  0  0  0  0  0  0  0
    7.7822   -5.1969    0.0000 C   0  0  0  0  0  0  0  0  0  0  0  0
    7.0678   -4.7844    0.0000 C   0  0  0  0  0  0  0  0  0  0  0  0
    6.3533   -5.1969    0.0000 C   0  0  0  0  0  0  0  0  0  0  0  0
    6.3533   -6.0219    0.0000 C   0  0  0  0  0  0  0  0  0  0  0  0
    7.0678   -6.4344    0.0000 C   0  0  0  0  0  0  0  0  0  0  0  0
    7.7822   -6.0219    0.0000 C   0  0  0  0  0  0  0  0  0  0  0  0
    8.4967   -6.4344    0.0000 C   0  0  0  0  0  0  0  0  0  0  0  0
    9.2112   -6.0219    0.0000 C   0  0  0  0  0  0  0  0  0  0  0  0
    9.2112   -5.1969    0.0000 C   0  0  0  0  0  0  0  0  0  0  0  0
   10.6401   -2.7219    0.0000 O   0  0  0  0  0  0  0  0  0  0  0  0
 42  7  1  0  0  0  0
  4  1  1  0  0  0  0
  7  2  2  0  0  0  0
  3  2  1  0  0  0  0
  4  3  2  0  0  0  0
  5  4  1  0  0  0  0
  6  5  2  0  0  0  0
  7  6  1  0  0  0  0
 38  8  1  0  0  0  0
 41 20  1  0  0  0  0
 18 20  1  1  0  0  0
 17  9  1  6  0  0  0
 16 10  1  1  0  0  0
 15 11  1  6  0  0  0
 14 13  1  1  0  0  0
 13 12  1  0  0  0  0
 19 14  1  0  0  0  0
 15 14  1  0  0  0  0
 16 15  1  0  0  0  0
 17 16  1  0  0  0  0
 18 17  1  0  0  0  0
 19 18  1  0  0  0  0
 36 31  1  0  0  0  0
 29 31  1  1  0  0  0
 28 21  1  6  0  0  0
 27 22  1  6  0  0  0
 26 23  1  1  0  0  0
 25 24  1  6  0  0  0
 30 25  1  0  0  0  0
 26 25  1  0  0  0  0
 27 26  1  0  0  0  0
 28 27  1  0  0  0  0
 29 28  1  0  0  0  0
 30 29  1  0  0  0  0
 40 32  2  0  0  0  0
 42 33  1  0  0  0  0
 34 33  1  0  0  0  0
 39 34  2  0  0  0  0
 35 34  1  0  0  0  0
 36 35  2  0  0  0  0
 37 36  1  0  0  0  0
 38 37  2  0  0  0  0
 39 38  1  0  0  0  0
 40 39  1  0  0  0  0
 41 40  1  0  0  0  0
 42 41  2  0  0  0  0
  3 43  1  0  0  0  0
M  END
>  <cdx:fragmentId>
5

$$$$
