80103.cdx
  Mrv1902 05222410252D          

 19 21  0  0  0  0            999 V2000
    7.9710   -5.3496    0.0000 C   0  0  0  0  0  0  0  0  0  0  0  0
    7.9710   -4.5246    0.0000 O   0  0  0  0  0  0  0  0  0  0  0  0
    8.6855   -5.7621    0.0000 C   0  0  0  0  0  0  0  0  0  0  0  0
    9.4000   -5.3496    0.0000 O   0  0  0  0  0  0  0  0  0  0  0  0
    8.6855   -6.5871    0.0000 C   0  0  0  0  0  0  0  0  0  0  0  0
    7.9710   -6.9996    0.0000 C   0  0  0  0  0  0  0  0  0  0  0  0
    7.2566   -6.5871    0.0000 C   0  0  0  0  0  0  0  0  0  0  0  0
    6.5421   -6.9996    0.0000 C   0  0  0  0  0  0  0  0  0  0  0  0
    6.5421   -7.8246    0.0000 O   0  0  0  0  0  0  0  0  0  0  0  0
    5.8276   -6.5871    0.0000 C   0  0  0  0  0  0  0  0  0  0  0  0
    5.1131   -6.9996    0.0000 C   0  0  0  0  0  0  0  0  0  0  0  0
    4.3987   -6.5871    0.0000 C   0  0  0  0  0  0  0  0  0  0  0  0
    4.3987   -5.7621    0.0000 C   0  0  0  0  0  0  0  0  0  0  0  0
    5.1131   -5.3496    0.0000 C   0  0  0  0  0  0  0  0  0  0  0  0
    5.8276   -5.7621    0.0000 C   0  0  0  0  0  0  0  0  0  0  0  0
    6.5421   -5.3496    0.0000 C   0  0  0  0  0  0  0  0  0  0  0  0
    6.5421   -4.5246    0.0000 O   0  0  0  0  0  0  0  0  0  0  0  0
    7.2566   -5.7621    0.0000 C   0  0  0  0  0  0  0  0  0  0  0  0
   10.1144   -5.7621    0.0000 C   0  0  0  0  0  0  0  0  0  0  0  0
  1  2  1  0  0  0  0
  1  3  1  0  0  0  0
  3  4  1  0  0  0  0
  3  5  2  0  0  0  0
  5  6  1  0  0  0  0
  6  7  2  0  0  0  0
  7  8  1  0  0  0  0
  8  9  2  0  0  0  0
  8 10  1  0  0  0  0
 10 11  1  0  0  0  0
 11 12  2  0  0  0  0
 12 13  1  0  0  0  0
 13 14  2  0  0  0  0
 14 15  1  0  0  0  0
 10 15  2  0  0  0  0
 15 16  1  0  0  0  0
 16 17  2  0  0  0  0
 16 18  1  0  0  0  0
  7 18  1  0  0  0  0
  1 18  2  0  0  0  0
  4 19  1  0  0  0  0
M  END
>  <cdx:groupId>
61

>  <cdx:fragmentId>
5

$$$$
