sinapyl aldehyde glucoside.cdx
  Mrv1902 05222410222D          

 26 27  0  0  0  0            999 V2000
    6.7952  -13.0515    0.0000 O   0  0  0  0  0  0  0  0  0  0  0  0
    4.5490  -11.7150    0.0000 C   0  0  2  0  0  0  0  0  0  0  0  0
    4.5490  -12.5400    0.0000 C   0  0  2  0  0  0  0  0  0  0  0  0
    5.2635  -12.9525    0.0000 C   0  0  1  0  0  0  0  0  0  0  0  0
    5.9780  -12.5400    0.0000 C   0  0  2  0  0  0  0  0  0  0  0  0
    5.9780  -11.7150    0.0000 C   0  0  1  0  0  0  0  0  0  0  0  0
    5.2635  -11.3025    0.0000 O   0  0  0  0  0  0  0  0  0  0  0  0
    3.8346  -11.3025    0.0000 C   0  0  0  0  0  0  0  0  0  0  0  0
    5.2635  -13.7775    0.0000 O   0  0  0  0  0  0  0  0  0  0  0  0
    3.8346  -12.9525    0.0000 O   0  0  0  0  0  0  0  0  0  0  0  0
    3.1201  -11.7150    0.0000 O   0  0  0  0  0  0  0  0  0  0  0  0
    6.6924  -11.3025    0.0000 O   0  0  0  0  0  0  0  0  0  0  0  0
    6.6924  -10.4775    0.0000 C   0  0  0  0  0  0  0  0  0  0  0  0
    7.4069  -10.0650    0.0000 C   0  0  0  0  0  0  0  0  0  0  0  0
    7.4069   -9.2400    0.0000 C   0  0  0  0  0  0  0  0  0  0  0  0
    5.9780   -9.2400    0.0000 C   0  0  0  0  0  0  0  0  0  0  0  0
    5.9780  -10.0650    0.0000 C   0  0  0  0  0  0  0  0  0  0  0  0
    6.6924   -8.8275    0.0000 C   0  0  0  0  0  0  0  0  0  0  0  0
    6.6924   -8.0025    0.0000 C   0  0  0  0  0  0  0  0  0  0  0  0
    7.4063   -7.5890    0.0000 C   0  0  0  0  0  0  0  0  0  0  0  0
    7.4063   -6.7640    0.0000 C   0  0  0  0  0  0  0  0  0  0  0  0
    8.1202   -6.3504    0.0000 O   0  0  0  0  0  0  0  0  0  0  0  0
    5.2635  -10.4775    0.0000 O   0  0  0  0  0  0  0  0  0  0  0  0
    4.5490  -10.0650    0.0000 C   0  0  0  0  0  0  0  0  0  0  0  0
    8.1214  -10.4775    0.0000 O   0  0  0  0  0  0  0  0  0  0  0  0
    8.8359  -10.0650    0.0000 C   0  0  0  0  0  0  0  0  0  0  0  0
  2  3  1  0  0  0  0
  3  4  1  0  0  0  0
  4  5  1  0  0  0  0
  5  6  1  0  0  0  0
  6  7  1  0  0  0  0
  7  2  1  0  0  0  0
  2  8  1  1  0  0  0
  4  9  1  1  0  0  0
  3 10  1  6  0  0  0
  5  1  1  6  0  0  0
  8 11  1  0  0  0  0
  6 12  1  1  0  0  0
 12 13  1  0  0  0  0
 13 14  2  0  0  0  0
 14 15  1  0  0  0  0
 15 18  2  0  0  0  0
 18 16  1  0  0  0  0
 16 17  2  0  0  0  0
 17 13  1  0  0  0  0
 18 19  1  0  0  0  0
 19 20  2  0  0  0  0
 20 21  1  0  0  0  0
 21 22  2  0  0  0  0
 17 23  1  0  0  0  0
 23 24  1  0  0  0  0
 14 25  1  0  0  0  0
 25 26  1  0  0  0  0
M  END
>  <cdx:fragmentId>
5

$$$$
