80131.cdx
  Mrv1902 05222410212D          

 20 21  0  0  0  0            999 V2000
    7.0751   -5.0333    0.0000 O   0  0  0  0  0  0  0  0  0  0  0  0
    7.0751   -4.2083    0.0000 C   0  0  0  0  0  0  0  0  0  0  0  0
    6.3606   -3.7958    0.0000 C   0  0  0  0  0  0  0  0  0  0  0  0
    6.3606   -2.9708    0.0000 C   0  0  0  0  0  0  0  0  0  0  0  0
    7.0751   -2.5583    0.0000 C   0  0  0  0  0  0  0  0  0  0  0  0
    7.7895   -2.9708    0.0000 C   0  0  0  0  0  0  0  0  0  0  0  0
    7.7895   -3.7958    0.0000 C   0  0  0  0  0  0  0  0  0  0  0  0
    7.0751   -1.7333    0.0000 O   0  0  0  0  0  0  0  0  0  0  0  0
    7.7895   -1.3208    0.0000 C   0  0  0  0  0  0  0  0  0  0  0  0
    3.5027   -5.4458    0.0000 O   0  0  0  0  0  0  0  0  0  0  0  0
    4.2172   -5.0333    0.0000 C   0  0  0  0  0  0  0  0  0  0  0  0
    7.0751   -6.6833    0.0000 O   0  0  0  0  0  0  0  0  0  0  0  0
    5.6461   -7.5083    0.0000 O   0  0  0  0  0  0  0  0  0  0  0  0
    4.2172   -6.6833    0.0000 O   0  0  0  0  0  0  0  0  0  0  0  0
    6.3606   -5.4458    0.0000 C   0  0  1  0  0  0  0  0  0  0  0  0
    6.3606   -6.2708    0.0000 C   0  0  1  0  0  0  0  0  0  0  0  0
    5.6461   -6.6833    0.0000 C   0  0  2  0  0  0  0  0  0  0  0  0
    4.9316   -6.2708    0.0000 C   0  0  1  0  0  0  0  0  0  0  0  0
    4.9316   -5.4458    0.0000 C   0  0  2  0  0  0  0  0  0  0  0  0
    5.6461   -5.0333    0.0000 O   0  0  0  0  0  0  0  0  0  0  0  0
 19 11  1  1  0  0  0
 11 10  1  0  0  0  0
 15  1  1  1  0  0  0
 16 12  1  6  0  0  0
 17 13  1  1  0  0  0
 18 14  1  6  0  0  0
 20 15  1  0  0  0  0
 16 15  1  0  0  0  0
 17 16  1  0  0  0  0
 18 17  1  0  0  0  0
 19 18  1  0  0  0  0
 20 19  1  0  0  0  0
  2  3  1  0  0  0  0
  3  4  2  0  0  0  0
  4  5  1  0  0  0  0
  5  6  2  0  0  0  0
  6  7  1  0  0  0  0
  2  7  2  0  0  0  0
  1  2  1  0  0  0  0
  8  9  1  0  0  0  0
  5  8  1  0  0  0  0
M  END
>  <cdx:groupId>
63

>  <cdx:fragmentId>
25

$$$$
