801844.cdx
  Mrv1902 05222410262D          

 44 48  0  0  0  0            999 V2000
    5.7335   -6.2220    0.0000 O   0  0  0  0  0  0  0  0  0  0  0  0
    7.1630   -5.3980    0.0000 O   0  0  0  0  0  0  0  0  0  0  0  0
    8.5914   -5.3990    0.0000 O   0  0  0  0  0  0  0  0  0  0  0  0
    8.5914   -6.2240    0.0000 C   0  0  0  0  0  0  0  0  0  0  0  0
    4.3028   -8.6960    0.0000 O   0  0  0  0  0  0  0  0  0  0  0  0
    2.8745   -7.8700    0.0000 O   0  0  0  0  0  0  0  0  0  0  0  0
    2.8756   -6.2200    0.0000 O   0  0  0  0  0  0  0  0  0  0  0  0
    3.5910   -4.9830    0.0000 O   0  0  0  0  0  0  0  0  0  0  0  0
    4.3051   -5.3960    0.0000 C   0  0  0  0  0  0  0  0  0  0  0  0
    4.3046   -6.2210    0.0000 C   0  0  2  0  0  0  0  0  0  0  0  0
    3.5898   -6.6330    0.0000 C   0  0  2  0  0  0  0  0  0  0  0  0
    3.5892   -7.4580    0.0000 C   0  0  1  0  0  0  0  0  0  0  0  0
    4.3034   -7.8710    0.0000 C   0  0  2  0  0  0  0  0  0  0  0  0
    5.0182   -7.4590    0.0000 C   0  0  1  0  0  0  0  0  0  0  0  0
    5.0187   -6.6340    0.0000 O   0  0  0  0  0  0  0  0  0  0  0  0
    5.7323   -7.8720    0.0000 O   0  0  0  0  0  0  0  0  0  0  0  0
    7.8766   -6.6360    0.0000 C   0  0  2  0  0  0  0  0  0  0  0  0
    7.1624   -6.2230    0.0000 C   0  0  2  0  0  0  0  0  0  0  0  0
    6.4477   -6.6350    0.0000 C   0  0  1  0  0  0  0  0  0  0  0  0
    6.4471   -7.4600    0.0000 C   0  0  2  0  0  0  0  0  0  0  0  0
    7.1613   -7.8730    0.0000 C   0  0  1  0  0  0  0  0  0  0  0  0
    7.8760   -7.4610    0.0000 O   0  0  0  0  0  0  0  0  0  0  0  0
    7.1589  -11.1730    0.0000 O   0  0  0  0  0  0  0  0  0  0  0  0
   12.1629   -7.4641    0.0000 O   0  0  0  0  0  0  0  0  0  0  0  0
   10.0192   -7.8751    0.0000 C   0  0  0  0  0  0  0  0  0  0  0  0
   10.7339   -7.4631    0.0000 C   0  0  0  0  0  0  0  0  0  0  0  0
   11.4481   -7.8761    0.0000 C   0  0  0  0  0  0  0  0  0  0  0  0
   11.4475   -8.7011    0.0000 C   0  0  0  0  0  0  0  0  0  0  0  0
   10.7328   -9.1131    0.0000 C   0  0  0  0  0  0  0  0  0  0  0  0
   10.0186   -8.7001    0.0000 C   0  0  0  0  0  0  0  0  0  0  0  0
    5.0170   -9.1090    0.0000 C   0  0  0  0  0  0  0  0  0  0  0  0
    5.7317   -8.6970    0.0000 O   0  0  0  0  0  0  0  0  0  0  0  0
    8.5879  -11.1740    0.0000 O   0  0  0  0  0  0  0  0  0  0  0  0
    8.5896   -8.6990    0.0000 O   0  0  0  0  0  0  0  0  0  0  0  0
    7.8749   -9.1110    0.0000 C   0  0  0  0  0  0  0  0  0  0  0  0
    7.1607   -8.6980    0.0000 C   0  0  0  0  0  0  0  0  0  0  0  0
    6.4459   -9.1100    0.0000 C   0  0  0  0  0  0  0  0  0  0  0  0
    6.4453   -9.9350    0.0000 C   0  0  0  0  0  0  0  0  0  0  0  0
    7.1595  -10.3480    0.0000 C   0  0  0  0  0  0  0  0  0  0  0  0
    7.8743   -9.9360    0.0000 C   0  0  0  0  0  0  0  0  0  0  0  0
    8.5885  -10.3490    0.0000 C   0  0  0  0  0  0  0  0  0  0  0  0
    9.3032   -9.9370    0.0000 C   0  0  0  0  0  0  0  0  0  0  0  0
    9.3038   -9.1120    0.0000 C   0  0  0  0  0  0  0  0  0  0  0  0
    7.8757   -8.2855    0.0000 H   0  0  0  0  0  0  0  0  0  0  0  0
 21 36  1  0  0  0  0
 19  1  1  1  0  0  0
 18  2  1  6  0  0  0
 17  4  1  1  0  0  0
  4  3  1  0  0  0  0
 20 16  1  6  0  0  0
 14 16  1  1  0  0  0
 13  5  1  6  0  0  0
 12  6  1  1  0  0  0
 11  7  1  6  0  0  0
 10  9  1  1  0  0  0
  9  8  1  0  0  0  0
 15 10  1  0  0  0  0
 11 10  1  0  0  0  0
 12 11  1  0  0  0  0
 13 12  1  0  0  0  0
 14 13  1  0  0  0  0
 15 14  1  0  0  0  0
 22 17  1  0  0  0  0
 18 17  1  0  0  0  0
 19 18  1  0  0  0  0
 20 19  1  0  0  0  0
 21 20  1  0  0  0  0
 22 21  1  0  0  0  0
 39 23  1  0  0  0  0
 43 30  1  0  0  0  0
 27 24  1  0  0  0  0
 30 25  2  0  0  0  0
 26 25  1  0  0  0  0
 27 26  2  0  0  0  0
 28 27  1  0  0  0  0
 29 28  2  0  0  0  0
 30 29  1  0  0  0  0
 37 32  1  0  0  0  0
 32 31  1  0  0  0  0
 41 33  2  0  0  0  0
 43 34  1  0  0  0  0
 35 34  1  0  0  0  0
 40 35  2  0  0  0  0
 36 35  1  0  0  0  0
 37 36  2  0  0  0  0
 38 37  1  0  0  0  0
 39 38  2  0  0  0  0
 40 39  1  0  0  0  0
 41 40  1  0  0  0  0
 42 41  1  0  0  0  0
 43 42  2  0  0  0  0
 21 44  1  6  0  0  0
M  END
>  <cdx:fragmentId>
81675

$$$$
