802156.cdx
  Mrv1902 05222410262D          

 23 24  0  0  0  0            999 V2000
    7.2450   -7.3892    0.0000 O   0  0  0  0  0  0  0  0  0  0  0  0
    5.8161   -6.5642    0.0000 O   0  0  0  0  0  0  0  0  0  0  0  0
    4.3871   -7.3892    0.0000 O   0  0  0  0  0  0  0  0  0  0  0  0
    3.6726   -8.6267    0.0000 O   0  0  0  0  0  0  0  0  0  0  0  0
    4.3871   -9.0392    0.0000 C   0  0  0  0  0  0  0  0  0  0  0  0
    5.1016   -8.6267    0.0000 C   0  0  2  0  0  0  0  0  0  0  0  0
    5.1016   -7.8017    0.0000 C   0  0  2  0  0  0  0  0  0  0  0  0
    5.8161   -7.3892    0.0000 C   0  0  1  0  0  0  0  0  0  0  0  0
    6.5305   -7.8017    0.0000 C   0  0  2  0  0  0  0  0  0  0  0  0
    6.5305   -8.6267    0.0000 C   0  0  1  0  0  0  0  0  0  0  0  0
    5.8161   -9.0392    0.0000 O   0  0  0  0  0  0  0  0  0  0  0  0
    7.2450   -9.0392    0.0000 O   0  0  0  0  0  0  0  0  0  0  0  0
    7.9595   -8.6267    0.0000 C   0  0  0  0  0  0  0  0  0  0  0  0
    7.9595  -10.2767    0.0000 O   0  0  0  0  0  0  0  0  0  0  0  0
    9.3884  -11.1017    0.0000 O   0  0  0  0  0  0  0  0  0  0  0  0
   10.8174  -10.2767    0.0000 O   0  0  0  0  0  0  0  0  0  0  0  0
   10.8174   -8.6267    0.0000 O   0  0  0  0  0  0  0  0  0  0  0  0
    8.6739   -9.0392    0.0000 C   0  0  2  0  0  0  0  0  0  0  0  0
    8.6739   -9.8642    0.0000 C   0  0  2  0  0  0  0  0  0  0  0  0
    9.3884  -10.2767    0.0000 C   0  0  1  0  0  0  0  0  0  0  0  0
   10.1029   -9.8642    0.0000 C   0  0  2  0  0  0  0  0  0  0  0  0
   10.1029   -9.0392    0.0000 C   0  0  0  0  0  0  0  0  0  0  0  0
    9.3884   -8.6267    0.0000 O   0  0  0  0  0  0  0  0  0  0  0  0
 18 13  1  1  0  0  0
 13 12  1  0  0  0  0
 10 12  1  6  0  0  0
  9  1  1  1  0  0  0
  8  2  1  6  0  0  0
  7  3  1  1  0  0  0
  6  5  1  6  0  0  0
  5  4  1  0  0  0  0
 11  6  1  0  0  0  0
  7  6  1  0  0  0  0
  8  7  1  0  0  0  0
  9  8  1  0  0  0  0
 10  9  1  0  0  0  0
 11 10  1  0  0  0  0
 19 14  1  6  0  0  0
 20 15  1  1  0  0  0
 21 16  1  6  0  0  0
 22 17  1  0  0  0  0
 23 18  1  0  0  0  0
 19 18  1  0  0  0  0
 20 19  1  0  0  0  0
 21 20  1  0  0  0  0
 22 21  1  0  0  0  0
 23 22  1  0  0  0  0
M  END
>  <cdx:fragmentId>
15698

$$$$
