80307.cdx
  Mrv1902 05222410242D          

  5  4  0  0  0  0            999 V2000
    7.6327   -7.3041    0.0000 C   0  0  0  0  0  0  0  0  0  0  0  0
    6.9183   -6.8916    0.0000 C   0  0  2  0  0  0  0  0  0  0  0  0
    6.2038   -7.3041    0.0000 C   0  0  0  0  0  0  0  0  0  0  0  0
    8.3472   -6.8916    0.0000 O   0  0  0  0  0  0  0  0  0  0  0  0
    6.9183   -6.0666    0.0000 N   0  0  0  0  0  0  0  0  0  0  0  0
  1  2  1  0  0  0  0
  2  3  1  0  0  0  0
  1  4  1  0  0  0  0
  2  5  1  6  0  0  0
M  END
>  <cdx:groupId>
16

>  <cdx:fragmentId>
5

$$$$
