8031.cdx
  Mrv1902 05222410242D          

 23 26  0  0  0  0            999 V2000
    3.9220   -6.8475    0.0000 C   0  0  0  0  0  0  0  0  0  0  0  0
    3.9220   -7.6725    0.0000 C   0  0  0  0  0  0  0  0  0  0  0  0
    4.6365   -8.0850    0.0000 C   0  0  0  0  0  0  0  0  0  0  0  0
    5.3510   -7.6725    0.0000 C   0  0  0  0  0  0  0  0  0  0  0  0
    5.3510   -6.8475    0.0000 C   0  0  0  0  0  0  0  0  0  0  0  0
    4.6365   -6.4350    0.0000 O   0  0  0  0  0  0  0  0  0  0  0  0
    6.0654   -8.0850    0.0000 C   0  0  0  0  0  0  0  0  0  0  0  0
    6.7799   -7.6725    0.0000 C   0  0  0  0  0  0  0  0  0  0  0  0
    6.7799   -6.8475    0.0000 C   0  0  0  0  0  0  0  0  0  0  0  0
    6.0654   -6.4350    0.0000 C   0  0  0  0  0  0  0  0  0  0  0  0
    7.5645   -7.9274    0.0000 C   0  0  0  0  0  0  0  0  0  0  0  0
    8.0495   -7.2600    0.0000 C   0  0  0  0  0  0  0  0  0  0  0  0
    7.5645   -6.5926    0.0000 O   0  0  0  0  0  0  0  0  0  0  0  0
    3.2076   -6.4350    0.0000 O   0  0  0  0  0  0  0  0  0  0  0  0
    6.0654   -8.9100    0.0000 O   0  0  0  0  0  0  0  0  0  0  0  0
    6.7799   -9.3225    0.0000 C   0  0  0  0  0  0  0  0  0  0  0  0
    6.0654   -5.6100    0.0000 O   0  0  0  0  0  0  0  0  0  0  0  0
    6.7799   -5.1975    0.0000 C   0  0  0  0  0  0  0  0  0  0  0  0
    6.7799   -4.3725    0.0000 C   0  0  1  0  0  0  0  0  0  0  0  0
    7.1924   -3.6580    0.0000 O   0  0  0  0  0  0  0  0  0  0  0  0
    6.3674   -3.6580    0.0000 C   0  0  0  0  0  0  0  0  0  0  0  0
    6.3674   -2.8330    0.0000 C   0  0  0  0  0  0  0  0  0  0  0  0
    5.6529   -4.0705    0.0000 C   0  0  0  0  0  0  0  0  0  0  0  0
  1  2  1  0  0  0  0
  2  3  2  0  0  0  0
  3  4  1  0  0  0  0
  4  5  2  0  0  0  0
  5  6  1  0  0  0  0
  6  1  1  0  0  0  0
  4  7  1  0  0  0  0
  7  8  2  0  0  0  0
  8  9  1  0  0  0  0
  9 10  2  0  0  0  0
 10  5  1  0  0  0  0
  8 11  1  0  0  0  0
 11 12  2  0  0  0  0
 12 13  1  0  0  0  0
 13  9  1  0  0  0  0
  1 14  2  0  0  0  0
  7 15  1  0  0  0  0
 15 16  1  0  0  0  0
 10 17  1  0  0  0  0
 17 18  1  0  0  0  0
 19 18  1  6  0  0  0
 19 20  1  0  0  0  0
 20 21  1  0  0  0  0
 21 19  1  0  0  0  0
 21 22  1  0  0  0  0
 21 23  1  0  0  0  0
M  END
>  <cdx:fragmentId>
5

$$$$
