8033.cdx
  Mrv1902 05222410232D          

 15 15  0  0  0  0            999 V2000
    5.3313   -8.7907    0.0000 C   0  0  0  0  0  0  0  0  0  0  0  0
    6.0459   -9.2029    0.0000 C   0  0  0  0  0  0  0  0  0  0  0  0
    6.7602   -8.7902    0.0000 C   0  0  0  0  0  0  0  0  0  0  0  0
    6.7599   -7.9652    0.0000 C   0  0  0  0  0  0  0  0  0  0  0  0
    6.0453   -7.5529    0.0000 C   0  0  2  0  0  0  0  0  0  0  0  0
    5.3310   -7.9657    0.0000 C   0  0  0  0  0  0  0  0  0  0  0  0
    6.0450   -6.7279    0.0000 C   0  0  0  0  0  0  0  0  0  0  0  0
    6.0462  -10.0279    0.0000 C   0  0  0  0  0  0  0  0  0  0  0  0
    5.3304   -6.3157    0.0000 C   0  0  0  0  0  0  0  0  0  0  0  0
    6.7593   -6.3152    0.0000 C   0  0  0  0  0  0  0  0  0  0  0  0
    6.7590   -5.4902    0.0000 C   0  0  0  0  0  0  0  0  0  0  0  0
    7.4733   -5.0774    0.0000 C   0  0  0  0  0  0  0  0  0  0  0  0
    7.4730   -4.2524    0.0000 C   0  0  0  0  0  0  0  0  0  0  0  0
    8.1873   -3.8396    0.0000 C   0  0  0  0  0  0  0  0  0  0  0  0
    6.7584   -3.8402    0.0000 C   0  0  0  0  0  0  0  0  0  0  0  0
  1  2  1  0  0  0  0
  2  3  2  0  0  0  0
  3  4  1  0  0  0  0
  4  5  1  0  0  0  0
  5  6  1  0  0  0  0
  6  1  1  0  0  0  0
  5  7  1  6  0  0  0
  2  8  1  0  0  0  0
  7  9  2  0  0  0  0
  7 10  1  0  0  0  0
 10 11  1  0  0  0  0
 11 12  1  0  0  0  0
 12 13  2  0  0  0  0
 13 14  1  0  0  0  0
 13 15  1  0  0  0  0
M  END
>  <cdx:fragmentId>
5

$$$$
