80345.cdx
  Mrv1902 05222410192D          

 11 11  0  0  0  0            999 V2000
    9.8013   -5.3636    0.0000 O   0  0  0  0  0  0  0  0  0  0  0  0
    4.8000   -6.6011    0.0000 C   0  0  0  0  0  0  0  0  0  0  0  0
    5.5145   -6.1886    0.0000 C   0  0  0  0  0  0  0  0  0  0  0  0
    6.2289   -6.6011    0.0000 O   0  0  0  0  0  0  0  0  0  0  0  0
    8.3724   -6.1886    0.0000 C   0  0  0  0  0  0  0  0  0  0  0  0
    7.6579   -6.6011    0.0000 C   0  0  0  0  0  0  0  0  0  0  0  0
    6.9434   -6.1886    0.0000 C   0  0  0  0  0  0  0  0  0  0  0  0
    6.9434   -5.3636    0.0000 C   0  0  0  0  0  0  0  0  0  0  0  0
    7.6579   -4.9511    0.0000 C   0  0  0  0  0  0  0  0  0  0  0  0
    8.3724   -5.3636    0.0000 C   0  0  0  0  0  0  0  0  0  0  0  0
    9.0868   -4.9511    0.0000 C   0  0  0  0  0  0  0  0  0  0  0  0
 11  1  1  0  0  0  0
  7  4  1  0  0  0  0
  4  3  1  0  0  0  0
  3  2  1  0  0  0  0
 10  5  2  0  0  0  0
  6  5  1  0  0  0  0
  7  6  2  0  0  0  0
  8  7  1  0  0  0  0
  9  8  2  0  0  0  0
 10  9  1  0  0  0  0
 11 10  1  0  0  0  0
M  END
>  <cdx:fragmentId>
5

$$$$
