1803558.cdx
  Mrv1902 05222410232D          

 19 21  0  0  0  0            999 V2000
    5.5819   -7.2512    0.0000 C   0  0  0  0  0  0  0  0  0  0  0  0
    5.5819   -8.0762    0.0000 C   0  0  0  0  0  0  0  0  0  0  0  0
    6.2964   -8.4887    0.0000 C   0  0  0  0  0  0  0  0  0  0  0  0
    7.0109   -8.0762    0.0000 C   0  0  0  0  0  0  0  0  0  0  0  0
    7.7253   -8.4887    0.0000 C   0  0  0  0  0  0  0  0  0  0  0  0
    8.4398   -8.0762    0.0000 C   0  0  0  0  0  0  0  0  0  0  0  0
    8.4398   -7.2512    0.0000 C   0  0  0  0  0  0  0  0  0  0  0  0
    7.7253   -6.8387    0.0000 C   0  0  0  0  0  0  0  0  0  0  0  0
    7.0109   -7.2512    0.0000 C   0  0  0  0  0  0  0  0  0  0  0  0
    6.2964   -6.8387    0.0000 O   0  0  0  0  0  0  0  0  0  0  0  0
    4.8674   -6.8387    0.0000 O   0  0  0  0  0  0  0  0  0  0  0  0
    9.1543   -6.8387    0.0000 O   0  0  0  0  0  0  0  0  0  0  0  0
    9.8687   -7.2512    0.0000 C   0  0  0  0  0  0  0  0  0  0  0  0
    7.7253   -6.0137    0.0000 C   0  0  0  0  0  0  0  0  0  0  0  0
    8.8523   -4.8868    0.0000 O   0  0  0  0  0  0  0  0  0  0  0  0
    8.4398   -5.6012    0.0000 C   0  0  2  0  0  0  0  0  0  0  0  0
    9.2648   -5.6012    0.0000 C   0  0  0  0  0  0  0  0  0  0  0  0
   10.0898   -5.6012    0.0000 C   0  0  0  0  0  0  0  0  0  0  0  0
    9.6773   -6.3157    0.0000 C   0  0  0  0  0  0  0  0  0  0  0  0
  1  2  1  0  0  0  0
  2  3  2  0  0  0  0
  3  4  1  0  0  0  0
  4  5  1  0  0  0  0
  5  6  2  0  0  0  0
  6  7  1  0  0  0  0
  7  8  2  0  0  0  0
  8  9  1  0  0  0  0
  4  9  2  0  0  0  0
  9 10  1  0  0  0  0
  1 10  1  0  0  0  0
  1 11  2  0  0  0  0
 12 13  1  0  0  0  0
  7 12  1  0  0  0  0
 15 16  1  0  0  0  0
 16 17  1  0  0  0  0
 15 17  1  0  0  0  0
 17 18  1  0  0  0  0
 17 19  1  0  0  0  0
 16 14  1  6  0  0  0
  8 14  1  0  0  0  0
M  END
>  <cdx:groupId>
61

>  <cdx:fragmentId>
5

$$$$
