8038.cdx
  Mrv1902 05222410212D          

  8  7  0  0  0  0            999 V2000
    1.9354   -2.7852    0.0000 C   0  0  0  0  0  0  0  0  0  0  0  0
    1.2209   -3.1977    0.0000 C   0  0  0  0  0  0  0  0  0  0  0  0
    1.9354   -1.9602    0.0000 O   0  0  0  0  0  0  0  0  0  0  0  0
    2.6499   -3.1977    0.0000 O   0  0  0  0  0  0  0  0  0  0  0  0
    3.3644   -2.7852    0.0000 C   0  0  0  0  0  0  0  0  0  0  0  0
    4.0788   -3.1977    0.0000 C   0  0  0  0  0  0  0  0  0  0  0  0
    4.7933   -2.7852    0.0000 C   0  0  0  0  0  0  0  0  0  0  0  0
    4.0788   -4.0227    0.0000 C   0  0  0  0  0  0  0  0  0  0  0  0
  1  2  1  0  0  0  0
  1  3  2  0  0  0  0
  1  4  1  0  0  0  0
  5  6  1  0  0  0  0
  6  7  1  0  0  0  0
  6  8  1  0  0  0  0
  4  5  1  0  0  0  0
M  END
>  <cdx:groupId>
25

>  <cdx:fragmentId>
13

$$$$
