belleric acid.cdx
  Mrv1902 05222410212D          

 39 43  0  0  0  0            999 V2000
    2.8289   -8.7656    0.0000 C   0  0  1  0  0  0  0  0  0  0  0  0
    2.8289   -9.5906    0.0000 C   0  0  1  0  0  0  0  0  0  0  0  0
    3.5434  -10.0031    0.0000 C   0  0  2  0  0  0  0  0  0  0  0  0
    4.2578   -9.5906    0.0000 C   0  0  1  0  0  0  0  0  0  0  0  0
    4.2578   -8.7656    0.0000 C   0  0  2  0  0  0  0  0  0  0  0  0
    3.5434   -8.3531    0.0000 C   0  0  0  0  0  0  0  0  0  0  0  0
    4.9723  -10.0031    0.0000 C   0  0  0  0  0  0  0  0  0  0  0  0
    5.6868   -9.5906    0.0000 C   0  0  0  0  0  0  0  0  0  0  0  0
    5.6868   -8.7656    0.0000 C   0  0  2  0  0  0  0  0  0  0  0  0
    4.9723   -8.3531    0.0000 C   0  0  2  0  0  0  0  0  0  0  0  0
    6.4013   -8.3531    0.0000 C   0  0  1  0  0  0  0  0  0  0  0  0
    6.4013   -7.5281    0.0000 C   0  0  0  0  0  0  0  0  0  0  0  0
    5.6868   -7.1156    0.0000 C   0  0  0  0  0  0  0  0  0  0  0  0
    4.9723   -7.5281    0.0000 C   0  0  0  0  0  0  0  0  0  0  0  0
    7.1157   -8.7656    0.0000 C   0  0  0  0  0  0  0  0  0  0  0  0
    7.8302   -8.3531    0.0000 C   0  0  0  0  0  0  0  0  0  0  0  0
    7.8302   -7.5281    0.0000 C   0  0  2  0  0  0  0  0  0  0  0  0
    7.1157   -7.1156    0.0000 C   0  0  1  0  0  0  0  0  0  0  0  0
    8.5447   -7.1156    0.0000 C   0  0  0  0  0  0  0  0  0  0  0  0
    8.5447   -6.2906    0.0000 C   0  0  0  0  0  0  0  0  0  0  0  0
    7.8302   -5.8781    0.0000 C   0  0  2  0  0  0  0  0  0  0  0  0
    7.1157   -6.2906    0.0000 C   0  0  0  0  0  0  0  0  0  0  0  0
    2.1144   -8.3531    0.0000 O   0  0  0  0  0  0  0  0  0  0  0  0
    3.9559  -10.7176    0.0000 C   0  0  0  0  0  0  0  0  0  0  0  0
    4.2578  -10.4156    0.0000 H   0  0  0  0  0  0  0  0  0  0  0  0
    4.9723   -9.1781    0.0000 H   0  0  0  0  0  0  0  0  0  0  0  0
    6.4013   -9.1781    0.0000 C   0  0  0  0  0  0  0  0  0  0  0  0
    8.2427   -5.1637    0.0000 C   0  0  0  0  0  0  0  0  0  0  0  0
    2.1144  -10.0031    0.0000 O   0  0  0  0  0  0  0  0  0  0  0  0
    3.1309  -10.7176    0.0000 C   0  0  0  0  0  0  0  0  0  0  0  0
    4.2578   -7.9406    0.0000 C   0  0  0  0  0  0  0  0  0  0  0  0
    5.6868   -7.9406    0.0000 C   0  0  0  0  0  0  0  0  0  0  0  0
    6.4013   -6.7031    0.0000 H   0  0  0  0  0  0  0  0  0  0  0  0
    8.5447   -7.9406    0.0000 C   0  0  0  0  0  0  0  0  0  0  0  0
    7.4177   -5.1637    0.0000 C   0  0  0  0  0  0  0  0  0  0  0  0
    2.3059  -10.7176    0.0000 O   0  0  0  0  0  0  0  0  0  0  0  0
    4.7809  -10.7176    0.0000 O   0  0  0  0  0  0  0  0  0  0  0  0
    9.2591   -7.5281    0.0000 O   0  0  0  0  0  0  0  0  0  0  0  0
    8.5447   -8.7656    0.0000 O   0  0  0  0  0  0  0  0  0  0  0  0
  1  2  1  0  0  0  0
  2  3  1  0  0  0  0
  3  4  1  0  0  0  0
  4  5  1  0  0  0  0
  5  6  1  0  0  0  0
  6  1  1  0  0  0  0
  4  7  1  0  0  0  0
  7  8  1  0  0  0  0
  8  9  1  0  0  0  0
  9 10  1  0  0  0  0
 10  5  1  0  0  0  0
  9 11  1  0  0  0  0
 11 12  1  0  0  0  0
 12 13  2  0  0  0  0
 13 14  1  0  0  0  0
 14 10  1  0  0  0  0
 11 15  1  0  0  0  0
 15 16  1  0  0  0  0
 16 17  1  0  0  0  0
 17 18  1  0  0  0  0
 18 12  1  0  0  0  0
 17 19  1  0  0  0  0
 19 20  1  0  0  0  0
 20 21  1  0  0  0  0
 21 22  1  0  0  0  0
 22 18  1  0  0  0  0
  1 23  1  6  0  0  0
  3 24  1  6  0  0  0
  4 25  1  6  0  0  0
 10 26  1  6  0  0  0
 11 27  1  6  0  0  0
 21 28  1  6  0  0  0
  2 29  1  1  0  0  0
  3 30  1  1  0  0  0
  5 31  1  1  0  0  0
  9 32  1  1  0  0  0
 18 33  1  1  0  0  0
 17 34  1  1  0  0  0
 21 35  1  1  0  0  0
 30 36  1  0  0  0  0
 24 37  1  0  0  0  0
 34 38  1  0  0  0  0
 34 39  2  0  0  0  0
M  END
>  <cdx:fragmentId>
5

$$$$
