8041.cdx
  Mrv1902 05222410282D          

 10 10  0  0  0  0            999 V2000
    3.5021   -4.4418    0.0000 C   0  0  0  0  0  0  0  0  0  0  0  0
    3.0896   -5.1563    0.0000 C   0  0  0  0  0  0  0  0  0  0  0  0
    3.5021   -5.8707    0.0000 C   0  0  0  0  0  0  0  0  0  0  0  0
    4.3271   -5.8707    0.0000 C   0  0  0  0  0  0  0  0  0  0  0  0
    4.7396   -5.1563    0.0000 C   0  0  0  0  0  0  0  0  0  0  0  0
    4.3271   -4.4418    0.0000 C   0  0  0  0  0  0  0  0  0  0  0  0
    4.7396   -6.5852    0.0000 C   0  0  0  0  0  0  0  0  0  0  0  0
    5.5646   -6.5852    0.0000 C   0  0  0  0  0  0  0  0  0  0  0  0
    5.9771   -7.2997    0.0000 C   0  0  0  0  0  0  0  0  0  0  0  0
    6.8021   -7.2997    0.0000 O   0  0  0  0  0  0  0  0  0  0  0  0
  1  2  2  0  0  0  0
  2  3  1  0  0  0  0
  3  4  2  0  0  0  0
  4  5  1  0  0  0  0
  5  6  2  0  0  0  0
  6  1  1  0  0  0  0
  4  7  1  0  0  0  0
  7  8  1  0  0  0  0
  8  9  1  0  0  0  0
  9 10  2  0  0  0  0
M  END
>  <cdx:fragmentId>
5

$$$$
