804259.cdx
  Mrv1902 05222410202D          

 11 12  0  0  0  0            999 V2000
    8.5655   -5.6991    0.0000 O   0  0  0  0  0  0  0  0  0  0  0  0
    8.0806   -6.3665    0.0000 C   0  0  0  0  0  0  0  0  0  0  0  0
    7.2959   -6.1116    0.0000 C   0  0  0  0  0  0  0  0  0  0  0  0
    7.2959   -5.2866    0.0000 C   0  0  0  0  0  0  0  0  0  0  0  0
    8.0806   -5.0317    0.0000 C   0  0  0  0  0  0  0  0  0  0  0  0
    6.5815   -4.8741    0.0000 C   0  0  0  0  0  0  0  0  0  0  0  0
    5.8670   -5.2866    0.0000 C   0  0  0  0  0  0  0  0  0  0  0  0
    5.8670   -6.1116    0.0000 C   0  0  0  0  0  0  0  0  0  0  0  0
    6.5815   -6.5241    0.0000 C   0  0  0  0  0  0  0  0  0  0  0  0
    8.3355   -7.1512    0.0000 O   0  0  0  0  0  0  0  0  0  0  0  0
    8.3355   -4.2470    0.0000 O   0  0  0  0  0  0  0  0  0  0  0  0
  1  2  1  0  0  0  0
  2  3  1  0  0  0  0
  3  4  1  0  0  0  0
  4  5  1  0  0  0  0
  1  5  1  0  0  0  0
  6  7  1  0  0  0  0
  7  8  2  0  0  0  0
  8  9  1  0  0  0  0
  9  3  2  0  0  0  0
  6  4  2  0  0  0  0
  2 10  2  0  0  0  0
  5 11  1  0  0  0  0
M  END
>  <cdx:fragmentId>
5250

$$$$
