8042.cdx
  Mrv1902 05222410272D          

 19 18  0  0  0  0            999 V2000
   10.8530   -3.0602    0.0000 C   0  0  0  0  0  0  0  0  0  0  0  0
   10.1385   -3.4727    0.0000 C   0  0  0  0  0  0  0  0  0  0  0  0
    9.4240   -3.0602    0.0000 C   0  0  0  0  0  0  0  0  0  0  0  0
    8.7096   -3.4727    0.0000 C   0  0  0  0  0  0  0  0  0  0  0  0
    7.9951   -3.0602    0.0000 C   0  0  0  0  0  0  0  0  0  0  0  0
    7.2806   -3.4727    0.0000 C   0  0  0  0  0  0  0  0  0  0  0  0
    6.5662   -3.0602    0.0000 C   0  0  0  0  0  0  0  0  0  0  0  0
    5.8517   -3.4727    0.0000 C   0  0  0  0  0  0  0  0  0  0  0  0
    5.1372   -3.0602    0.0000 C   0  0  0  0  0  0  0  0  0  0  0  0
    4.4227   -3.4727    0.0000 C   0  0  0  0  0  0  0  0  0  0  0  0
    3.7083   -3.0602    0.0000 C   0  0  0  0  0  0  0  0  0  0  0  0
    2.9938   -3.4727    0.0000 C   0  0  0  0  0  0  0  0  0  0  0  0
    2.2793   -3.0602    0.0000 C   0  0  0  0  0  0  0  0  0  0  0  0
    1.5649   -3.4727    0.0000 C   0  0  0  0  0  0  0  0  0  0  0  0
   10.8530   -2.2352    0.0000 O   0  0  0  0  0  0  0  0  0  0  0  0
   11.5675   -3.4727    0.0000 O   0  0  0  0  0  0  0  0  0  0  0  0
   12.2819   -2.2352    0.0000 C   0  0  0  0  0  0  0  0  0  0  0  0
   12.2819   -3.0602    0.0000 C   0  0  0  0  0  0  0  0  0  0  0  0
   12.9964   -3.4727    0.0000 C   0  0  0  0  0  0  0  0  0  0  0  0
  1  2  1  0  0  0  0
  2  3  1  0  0  0  0
  3  4  1  0  0  0  0
  4  5  1  0  0  0  0
  5  6  1  0  0  0  0
  6  7  1  0  0  0  0
  7  8  1  0  0  0  0
  8  9  1  0  0  0  0
  9 10  1  0  0  0  0
 10 11  1  0  0  0  0
 11 12  1  0  0  0  0
 12 13  1  0  0  0  0
 13 14  1  0  0  0  0
  1 15  2  0  0  0  0
  1 16  1  0  0  0  0
 17 18  1  0  0  0  0
 18 19  1  0  0  0  0
 16 18  1  0  0  0  0
M  END
>  <cdx:groupId>
58

>  <cdx:fragmentId>
5

$$$$
