8046.cdx
  Mrv1902 05222410272D          

 10 10  0  0  0  0            999 V2000
    4.9533   -8.1263    0.0000 C   0  0  0  0  0  0  0  0  0  0  0  0
    4.9533   -8.9513    0.0000 C   0  0  0  0  0  0  0  0  0  0  0  0
    5.6677   -9.3637    0.0000 C   0  0  0  0  0  0  0  0  0  0  0  0
    6.3822   -8.9513    0.0000 C   0  0  0  0  0  0  0  0  0  0  0  0
    6.3822   -8.1263    0.0000 C   0  0  0  0  0  0  0  0  0  0  0  0
    5.6677   -7.7138    0.0000 C   0  0  0  0  0  0  0  0  0  0  0  0
    5.6677   -6.8888    0.0000 C   0  0  0  0  0  0  0  0  0  0  0  0
    7.0967   -7.7138    0.0000 C   0  0  0  0  0  0  0  0  0  0  0  0
    7.8112   -8.1263    0.0000 C   0  0  0  0  0  0  0  0  0  0  0  0
    7.0967   -6.8888    0.0000 C   0  0  0  0  0  0  0  0  0  0  0  0
  1  2  2  0  0  0  0
  2  3  1  0  0  0  0
  3  4  2  0  0  0  0
  4  5  1  0  0  0  0
  5  6  2  0  0  0  0
  6  1  1  0  0  0  0
  6  7  1  0  0  0  0
  5  8  1  0  0  0  0
  8  9  1  0  0  0  0
  8 10  2  0  0  0  0
M  END
>  <cdx:fragmentId>
5

$$$$
