8048.cdx
  Mrv1902 05222410202D          

 14 13  0  0  0  0            999 V2000
    2.9278   -4.0021    0.0000 C   0  0  0  0  0  0  0  0  0  0  0  0
    3.6423   -4.4146    0.0000 C   0  0  0  0  0  0  0  0  0  0  0  0
    4.3567   -4.0021    0.0000 O   0  0  0  0  0  0  0  0  0  0  0  0
    5.0712   -5.2396    0.0000 O   0  0  0  0  0  0  0  0  0  0  0  0
   11.5015   -4.0021    0.0000 C   0  0  0  0  0  0  0  0  0  0  0  0
   10.7870   -4.4146    0.0000 C   0  0  0  0  0  0  0  0  0  0  0  0
   10.0725   -4.0021    0.0000 C   0  0  0  0  0  0  0  0  0  0  0  0
    9.3580   -4.4146    0.0000 C   0  0  0  0  0  0  0  0  0  0  0  0
    8.6436   -4.0021    0.0000 C   0  0  0  0  0  0  0  0  0  0  0  0
    7.9291   -4.4146    0.0000 C   0  0  0  0  0  0  0  0  0  0  0  0
    7.2146   -4.0021    0.0000 C   0  0  0  0  0  0  0  0  0  0  0  0
    6.5002   -4.4146    0.0000 C   0  0  0  0  0  0  0  0  0  0  0  0
    5.7857   -4.0021    0.0000 C   0  0  0  0  0  0  0  0  0  0  0  0
    5.0712   -4.4146    0.0000 C   0  0  0  0  0  0  0  0  0  0  0  0
  3  2  1  0  0  0  0
  2  1  1  0  0  0  0
 14  3  1  0  0  0  0
 14  4  2  0  0  0  0
  6  5  1  0  0  0  0
  7  6  1  0  0  0  0
  8  7  1  0  0  0  0
  9  8  1  0  0  0  0
 10  9  1  0  0  0  0
 11 10  1  0  0  0  0
 12 11  1  0  0  0  0
 13 12  1  0  0  0  0
 14 13  1  0  0  0  0
M  END
>  <cdx:fragmentId>
5

$$$$
