102080494.cdx
  Mrv1902 05222410212D          

 38 41  0  0  0  0            999 V2000
    3.9880  -14.1570    0.0000 C   0  0  2  0  0  0  0  0  0  0  0  0
    3.9880  -14.9820    0.0000 C   0  0  2  0  0  0  0  0  0  0  0  0
    4.7025  -15.3945    0.0000 C   0  0  1  0  0  0  0  0  0  0  0  0
    5.4170  -14.9820    0.0000 C   0  0  2  0  0  0  0  0  0  0  0  0
    5.4170  -14.1570    0.0000 C   0  0  1  0  0  0  0  0  0  0  0  0
    4.7025  -13.7445    0.0000 O   0  0  0  0  0  0  0  0  0  0  0  0
    3.2736  -13.7445    0.0000 C   0  0  0  0  0  0  0  0  0  0  0  0
    3.2736  -15.3945    0.0000 O   0  0  0  0  0  0  0  0  0  0  0  0
    4.7025  -16.2195    0.0000 O   0  0  0  0  0  0  0  0  0  0  0  0
    6.1314  -15.3945    0.0000 O   0  0  0  0  0  0  0  0  0  0  0  0
    6.1314  -13.7445    0.0000 O   0  0  0  0  0  0  0  0  0  0  0  0
    2.6902  -14.3279    0.0000 O   0  0  0  0  0  0  0  0  0  0  0  0
    6.1314  -12.9195    0.0000 C   0  0  0  0  0  0  0  0  0  0  0  0
    6.8459  -12.5070    0.0000 C   0  0  0  0  0  0  0  0  0  0  0  0
    6.8459  -11.6820    0.0000 C   0  0  0  0  0  0  0  0  0  0  0  0
    6.1314  -11.2695    0.0000 C   0  0  1  0  0  0  0  0  0  0  0  0
    5.4170  -11.6820    0.0000 C   0  0  0  0  0  0  0  0  0  0  0  0
    5.4170  -12.5070    0.0000 C   0  0  0  0  0  0  0  0  0  0  0  0
    7.5604  -11.2695    0.0000 C   0  0  0  0  0  0  0  0  0  0  0  0
    7.5604  -10.4445    0.0000 C   0  0  0  0  0  0  0  0  0  0  0  0
    6.8459  -10.0320    0.0000 C   0  0  0  0  0  0  0  0  0  0  0  0
    6.1314  -10.4445    0.0000 C   0  0  0  0  0  0  0  0  0  0  0  0
    6.8459   -9.2070    0.0000 C   0  0  0  0  0  0  0  0  0  0  0  0
    6.1314   -8.7945    0.0000 C   0  0  2  0  0  0  0  0  0  0  0  0
    5.4170   -9.2070    0.0000 C   0  0  0  0  0  0  0  0  0  0  0  0
    5.4170  -10.0320    0.0000 C   0  0  0  0  0  0  0  0  0  0  0  0
    7.6709  -12.5070    0.0000 C   0  0  0  0  0  0  0  0  0  0  0  0
    7.0594  -13.3039    0.0000 C   0  0  0  0  0  0  0  0  0  0  0  0
    5.4170  -10.8570    0.0000 C   0  0  0  0  0  0  0  0  0  0  0  0
    6.8459  -10.8570    0.0000 H   0  0  0  0  0  0  0  0  0  0  0  0
    5.5481   -8.2111    0.0000 C   0  0  2  0  0  0  0  0  0  0  0  0
    6.7148   -8.2111    0.0000 C   0  0  0  0  0  0  0  0  0  0  0  0
    4.7231   -8.2111    0.0000 C   0  0  0  0  0  0  0  0  0  0  0  0
    5.8638   -7.4489    0.0000 O   0  0  0  0  0  0  0  0  0  0  0  0
    4.3106   -7.4967    0.0000 O   0  0  0  0  0  0  0  0  0  0  0  0
    3.4856   -7.4967    0.0000 C   0  0  0  0  0  0  0  0  0  0  0  0
    3.0731   -6.7822    0.0000 C   0  0  0  0  0  0  0  0  0  0  0  0
    3.0731   -8.2111    0.0000 O   0  0  0  0  0  0  0  0  0  0  0  0
  1  2  1  0  0  0  0
  2  3  1  0  0  0  0
  3  4  1  0  0  0  0
  4  5  1  0  0  0  0
  5  6  1  0  0  0  0
  6  1  1  0  0  0  0
  1  7  1  1  0  0  0
  2  8  1  6  0  0  0
  3  9  1  1  0  0  0
  4 10  1  6  0  0  0
  5 11  1  1  0  0  0
  7 12  1  0  0  0  0
 11 13  1  6  0  0  0
 13 14  1  0  0  0  0
 14 15  1  0  0  0  0
 15 16  1  0  0  0  0
 16 17  1  0  0  0  0
 17 18  1  0  0  0  0
 18 13  1  0  0  0  0
 15 19  1  0  0  0  0
 19 20  1  0  0  0  0
 20 21  1  0  0  0  0
 21 22  1  0  0  0  0
 22 16  1  0  0  0  0
 21 23  2  0  0  0  0
 23 24  1  0  0  0  0
 24 25  1  0  0  0  0
 25 26  1  0  0  0  0
 26 22  1  0  0  0  0
 14 27  1  0  0  0  0
 14 28  1  0  0  0  0
 16 29  1  6  0  0  0
 22 30  1  0  0  0  0
 24 31  1  0  0  0  0
 24 32  1  1  0  0  0
 31 33  1  0  0  0  0
 31 34  1  6  0  0  0
 33 35  1  0  0  0  0
 35 36  1  0  0  0  0
 36 37  1  0  0  0  0
 36 38  2  0  0  0  0
M  END
>  <cdx:fragmentId>
51385

$$$$
