80500.cdx
  Mrv1902 05222410242D          

 23 22  0  0  0  0            999 V2000
    2.9164   -8.6014    0.0000 C   0  0  0  0  0  0  0  0  0  0  0  0
    3.6309   -8.1889    0.0000 C   0  0  0  0  0  0  0  0  0  0  0  0
    4.3454   -8.6014    0.0000 C   0  0  0  0  0  0  0  0  0  0  0  0
    5.0598   -8.1889    0.0000 O   0  0  0  0  0  0  0  0  0  0  0  0
    5.7743   -9.4264    0.0000 O   0  0  0  0  0  0  0  0  0  0  0  0
   17.9203   -8.1889    0.0000 C   0  0  0  0  0  0  0  0  0  0  0  0
   17.2058   -8.6014    0.0000 C   0  0  0  0  0  0  0  0  0  0  0  0
   16.4914   -8.1889    0.0000 C   0  0  0  0  0  0  0  0  0  0  0  0
   15.7769   -8.6014    0.0000 C   0  0  0  0  0  0  0  0  0  0  0  0
   15.0624   -8.1889    0.0000 C   0  0  0  0  0  0  0  0  0  0  0  0
   14.3480   -8.6014    0.0000 C   0  0  0  0  0  0  0  0  0  0  0  0
   13.6335   -8.1889    0.0000 C   0  0  0  0  0  0  0  0  0  0  0  0
   12.9190   -8.6014    0.0000 C   0  0  0  0  0  0  0  0  0  0  0  0
   12.2046   -8.1889    0.0000 C   0  0  0  0  0  0  0  0  0  0  0  0
   11.4901   -8.6014    0.0000 C   0  0  0  0  0  0  0  0  0  0  0  0
   10.7756   -8.1889    0.0000 C   0  0  0  0  0  0  0  0  0  0  0  0
   10.0611   -8.6014    0.0000 C   0  0  0  0  0  0  0  0  0  0  0  0
    9.3467   -8.1889    0.0000 C   0  0  0  0  0  0  0  0  0  0  0  0
    8.6322   -8.6014    0.0000 C   0  0  0  0  0  0  0  0  0  0  0  0
    7.9177   -8.1889    0.0000 C   0  0  0  0  0  0  0  0  0  0  0  0
    7.2033   -8.6014    0.0000 C   0  0  0  0  0  0  0  0  0  0  0  0
    6.4888   -8.1889    0.0000 C   0  0  0  0  0  0  0  0  0  0  0  0
    5.7743   -8.6014    0.0000 C   0  0  0  0  0  0  0  0  0  0  0  0
  4  3  1  0  0  0  0
  2  1  2  0  0  0  0
  3  2  1  0  0  0  0
 23  4  1  0  0  0  0
 23  5  2  0  0  0  0
  7  6  1  0  0  0  0
  8  7  1  0  0  0  0
  9  8  1  0  0  0  0
 10  9  1  0  0  0  0
 11 10  1  0  0  0  0
 12 11  1  0  0  0  0
 13 12  1  0  0  0  0
 14 13  1  0  0  0  0
 15 14  1  0  0  0  0
 16 15  1  0  0  0  0
 17 16  1  0  0  0  0
 18 17  1  0  0  0  0
 19 18  1  0  0  0  0
 20 19  1  0  0  0  0
 21 20  1  0  0  0  0
 22 21  1  0  0  0  0
 23 22  1  0  0  0  0
M  END
>  <cdx:fragmentId>
5

$$$$
