10080594.cdx
  Mrv1902 05222410192D          

 11 11  0  0  0  0            999 V2000
    6.8691  -14.1927    0.0000 C   0  0  1  0  0  0  0  0  0  0  0  0
    6.8691  -13.3677    0.0000 C   0  0  0  0  0  0  0  0  0  0  0  0
    7.5835  -12.9552    0.0000 C   0  0  0  0  0  0  0  0  0  0  0  0
    8.2980  -13.3677    0.0000 C   0  0  0  0  0  0  0  0  0  0  0  0
    8.2980  -14.1927    0.0000 C   0  0  2  0  0  0  0  0  0  0  0  0
    7.5835  -14.6052    0.0000 C   0  0  0  0  0  0  0  0  0  0  0  0
    6.1546  -14.6052    0.0000 O   0  0  0  0  0  0  0  0  0  0  0  0
    6.1546  -12.1302    0.0000 C   0  0  0  0  0  0  0  0  0  0  0  0
    6.1546  -12.9552    0.0000 C   0  0  0  0  0  0  0  0  0  0  0  0
    5.4401  -13.3677    0.0000 C   0  0  0  0  0  0  0  0  0  0  0  0
    9.0125  -14.6052    0.0000 C   0  0  0  0  0  0  0  0  0  0  0  0
  1  2  1  0  0  0  0
  2  3  1  0  0  0  0
  3  4  1  0  0  0  0
  4  5  1  0  0  0  0
  5  6  1  0  0  0  0
  1  6  1  0  0  0  0
  1  7  1  1  0  0  0
  8  9  1  0  0  0  0
  9 10  1  0  0  0  0
  2  9  2  0  0  0  0
  5 11  1  1  0  0  0
M  END
>  <cdx:groupId>
40155

>  <cdx:fragmentId>
40125

$$$$
