806114.cdx
  Mrv1902 05222410192D          

 10  9  0  0  0  0            999 V2000
    8.7580   -6.4553    0.0000 C   0  0  0  0  0  0  0  0  0  0  0  0
    8.0435   -7.6928    0.0000 O   0  0  0  0  0  0  0  0  0  0  0  0
    7.3290   -5.6303    0.0000 O   0  0  0  0  0  0  0  0  0  0  0  0
    8.0435   -6.8678    0.0000 C   0  0  0  0  0  0  0  0  0  0  0  0
    7.3290   -6.4553    0.0000 C   0  0  0  0  0  0  0  0  0  0  0  0
    6.6145   -6.8678    0.0000 C   0  0  0  0  0  0  0  0  0  0  0  0
    8.7580   -5.6303    0.0000 O   0  0  0  0  0  0  0  0  0  0  0  0
    9.4724   -6.8678    0.0000 O   0  5  0  0  0  0  0  0  0  0  0  0
    6.6145   -7.6928    0.0000 O   0  0  0  0  0  0  0  0  0  0  0  0
    5.9001   -6.4553    0.0000 O   0  5  0  0  0  0  0  0  0  0  0  0
  1  4  1  0  0  0  0
  2  4  1  0  0  0  0
  4  5  1  0  0  0  0
  3  5  1  0  0  0  0
  5  6  1  0  0  0  0
  1  7  2  0  0  0  0
  1  8  1  0  0  0  0
  6  9  2  0  0  0  0
  6 10  1  0  0  0  0
M  CHG  2   8  -1  10  -1
M  END
>  <cdx:fragmentId>
5290

$$$$
