80626.cdx
  Mrv1902 05222410202D          

 30 31  0  0  0  0            999 V2000
    2.0630   -8.4975    0.0000 C   0  0  0  0  0  0  0  0  0  0  0  0
    2.0630   -9.3225    0.0000 C   0  0  1  0  0  0  0  0  0  0  0  0
    2.7775   -9.7350    0.0000 C   0  0  0  0  0  0  0  0  0  0  0  0
    3.4920   -9.3225    0.0000 C   0  0  1  0  0  0  0  0  0  0  0  0
    3.4920   -8.4975    0.0000 C   0  0  1  0  0  0  0  0  0  0  0  0
    2.7775   -8.0850    0.0000 C   0  0  2  0  0  0  0  0  0  0  0  0
    4.2064   -8.0850    0.0000 C   0  0  0  0  0  0  0  0  0  0  0  0
    4.9209   -8.4975    0.0000 C   0  0  0  0  0  0  0  0  0  0  0  0
    5.6354   -8.0850    0.0000 C   0  0  0  0  0  0  0  0  0  0  0  0
    6.3499   -8.4975    0.0000 C   0  0  0  0  0  0  0  0  0  0  0  0
    5.6354   -7.2600    0.0000 C   0  0  0  0  0  0  0  0  0  0  0  0
    6.3499   -9.3225    0.0000 C   0  0  0  0  0  0  0  0  0  0  0  0
    5.6354   -9.7350    0.0000 O   0  0  0  0  0  0  0  0  0  0  0  0
    7.0643   -9.7350    0.0000 O   0  0  0  0  0  0  0  0  0  0  0  0
    7.7788   -9.3225    0.0000 C   0  0  1  0  0  0  0  0  0  0  0  0
    8.4933   -9.7350    0.0000 C   0  0  1  0  0  0  0  0  0  0  0  0
    9.2077   -9.3225    0.0000 C   0  0  2  0  0  0  0  0  0  0  0  0
    9.2077   -8.4975    0.0000 C   0  0  1  0  0  0  0  0  0  0  0  0
    8.4933   -8.0850    0.0000 C   0  0  2  0  0  0  0  0  0  0  0  0
    7.7788   -8.4975    0.0000 O   0  0  0  0  0  0  0  0  0  0  0  0
    8.4933   -7.2600    0.0000 C   0  0  0  0  0  0  0  0  0  0  0  0
    9.9222   -9.7350    0.0000 O   0  0  0  0  0  0  0  0  0  0  0  0
    8.4933  -10.5600    0.0000 O   0  0  0  0  0  0  0  0  0  0  0  0
    9.9222   -8.0850    0.0000 O   0  0  0  0  0  0  0  0  0  0  0  0
    9.2077   -6.8475    0.0000 O   0  0  0  0  0  0  0  0  0  0  0  0
    1.3486   -9.7350    0.0000 O   0  0  0  0  0  0  0  0  0  0  0  0
    2.3650   -7.3705    0.0000 C   0  0  0  0  0  0  0  0  0  0  0  0
    3.1900   -7.3705    0.0000 C   0  0  0  0  0  0  0  0  0  0  0  0
    4.2064   -9.7350    0.0000 C   0  0  0  0  0  0  0  0  0  0  0  0
    4.2064   -8.9100    0.0000 O   0  0  0  0  0  0  0  0  0  0  0  0
  1  2  1  0  0  0  0
  2  3  1  0  0  0  0
  3  4  1  0  0  0  0
  4  5  1  0  0  0  0
  5  6  1  0  0  0  0
  6  1  1  0  0  0  0
  5  7  1  1  0  0  0
  7  8  2  0  0  0  0
  8  9  1  0  0  0  0
  9 10  2  0  0  0  0
  9 11  1  0  0  0  0
 10 12  1  0  0  0  0
 12 13  2  0  0  0  0
 12 14  1  0  0  0  0
 15 14  1  6  0  0  0
 15 16  1  0  0  0  0
 16 17  1  0  0  0  0
 17 18  1  0  0  0  0
 18 19  1  0  0  0  0
 19 20  1  0  0  0  0
 20 15  1  0  0  0  0
 19 21  1  6  0  0  0
 17 22  1  6  0  0  0
 16 23  1  1  0  0  0
 18 24  1  1  0  0  0
 21 25  1  0  0  0  0
  2 26  1  1  0  0  0
  6 27  1  1  0  0  0
  6 28  1  6  0  0  0
  4 29  1  1  0  0  0
  5 30  1  6  0  0  0
M  END
>  <cdx:fragmentId>
157

$$$$
