80627.cdx
  Mrv1902 05222410202D          

 10 10  0  0  0  0            999 V2000
    4.2408   -9.2515    0.0000 C   0  0  0  0  0  0  0  0  0  0  0  0
    5.0657   -9.2624    0.0000 C   0  0  0  0  0  0  0  0  0  0  0  0
    5.3310   -8.4812    0.0000 C   0  0  2  0  0  0  0  0  0  0  0  0
    4.6700   -7.9875    0.0000 N   0  0  0  0  0  0  0  0  0  0  0  0
    3.9962   -8.4636    0.0000 C   0  0  0  0  0  0  0  0  0  0  0  0
    3.2151   -8.1983    0.0000 O   0  0  0  0  0  0  0  0  0  0  0  0
    3.7471   -9.9125    0.0000 C   0  0  0  0  0  0  0  0  0  0  0  0
    6.1189   -8.2366    0.0000 C   0  0  0  0  0  0  0  0  0  0  0  0
    6.7247   -8.7967    0.0000 O   0  0  0  0  0  0  0  0  0  0  0  0
    6.3011   -7.4320    0.0000 O   0  0  0  0  0  0  0  0  0  0  0  0
  1  2  1  0  0  0  0
  2  3  1  0  0  0  0
  3  4  1  0  0  0  0
  4  5  1  0  0  0  0
  5  1  1  0  0  0  0
  5  6  2  0  0  0  0
  1  7  2  0  0  0  0
  3  8  1  6  0  0  0
  8  9  1  0  0  0  0
  8 10  2  0  0  0  0
M  END
>  <cdx:fragmentId>
273

$$$$
