80628.cdx
  Mrv1902 05222410272D          

 23 24  0  0  0  0            999 V2000
    3.3555   -8.8000    0.0000 C   0  0  0  0  0  0  0  0  0  0  0  0
    3.3555   -9.6250    0.0000 C   0  0  0  0  0  0  0  0  0  0  0  0
    4.0700  -10.0375    0.0000 C   0  0  0  0  0  0  0  0  0  0  0  0
    4.7845   -9.6250    0.0000 C   0  0  0  0  0  0  0  0  0  0  0  0
    4.7845   -8.8000    0.0000 C   0  0  0  0  0  0  0  0  0  0  0  0
    4.0700   -8.3875    0.0000 C   0  0  0  0  0  0  0  0  0  0  0  0
    2.6411  -10.0375    0.0000 O   0  0  0  0  0  0  0  0  0  0  0  0
    5.4989   -8.3875    0.0000 C   0  0  0  0  0  0  0  0  0  0  0  0
    6.2134   -8.8000    0.0000 C   0  0  0  0  0  0  0  0  0  0  0  0
    6.9279   -8.3875    0.0000 C   0  0  0  0  0  0  0  0  0  0  0  0
    7.6424   -8.8000    0.0000 O   0  0  0  0  0  0  0  0  0  0  0  0
    6.9279   -7.5625    0.0000 O   0  0  0  0  0  0  0  0  0  0  0  0
    8.3568   -8.3875    0.0000 C   0  0  0  0  0  0  0  0  0  0  0  0
    9.0713   -8.8000    0.0000 C   0  0  0  0  0  0  0  0  0  0  0  0
    9.7858   -8.3875    0.0000 C   0  0  2  0  0  0  0  0  0  0  0  0
    9.0713   -9.6250    0.0000 O   0  0  0  0  0  0  0  0  0  0  0  0
   10.5394   -8.7231    0.0000 C   0  0  2  0  0  0  0  0  0  0  0  0
   11.0915   -8.1100    0.0000 C   0  0  1  0  0  0  0  0  0  0  0  0
   10.6790   -7.3955    0.0000 C   0  0  0  0  0  0  0  0  0  0  0  0
    9.8720   -7.5670    0.0000 O   0  0  0  0  0  0  0  0  0  0  0  0
   11.0145   -6.6418    0.0000 O   0  0  0  0  0  0  0  0  0  0  0  0
   11.9120   -8.1962    0.0000 O   0  0  0  0  0  0  0  0  0  0  0  0
   10.7110   -9.5300    0.0000 O   0  0  0  0  0  0  0  0  0  0  0  0
  1  2  2  0  0  0  0
  2  3  1  0  0  0  0
  3  4  2  0  0  0  0
  4  5  1  0  0  0  0
  5  6  2  0  0  0  0
  6  1  1  0  0  0  0
  2  7  1  0  0  0  0
  5  8  1  0  0  0  0
  8  9  2  0  0  0  0
  9 10  1  0  0  0  0
 10 11  1  0  0  0  0
 10 12  2  0  0  0  0
 11 13  1  0  0  0  0
 13 14  1  0  0  0  0
 15 14  1  1  0  0  0
 14 16  1  0  0  0  0
 15 17  1  0  0  0  0
 17 18  1  0  0  0  0
 18 19  1  0  0  0  0
 19 20  1  0  0  0  0
 20 15  1  0  0  0  0
 19 21  2  0  0  0  0
 18 22  1  1  0  0  0
 17 23  1  6  0  0  0
M  END
>  <cdx:fragmentId>
310

$$$$
