806253.cdx
  Mrv1902 05222410272D          

 29 34  0  0  0  0            999 V2000
    7.2679   -6.9380    0.0000 C   0  0  2  0  0  0  0  0  0  0  0  0
    7.9823   -6.5254    0.0000 C   0  0  0  0  0  0  0  0  0  0  0  0
    8.6968   -6.9378    0.0000 C   0  0  0  0  0  0  0  0  0  0  0  0
    9.4112   -6.5252    0.0000 C   0  0  0  0  0  0  0  0  0  0  0  0
   10.1959   -6.7801    0.0000 O   0  0  0  0  0  0  0  0  0  0  0  0
   10.6807   -6.1126    0.0000 C   0  0  0  0  0  0  0  0  0  0  0  0
   10.1957   -5.4452    0.0000 O   0  0  0  0  0  0  0  0  0  0  0  0
    9.4111   -5.7002    0.0000 C   0  0  0  0  0  0  0  0  0  0  0  0
    8.6966   -5.2878    0.0000 C   0  0  0  0  0  0  0  0  0  0  0  0
    7.9822   -5.7004    0.0000 C   0  0  0  0  0  0  0  0  0  0  0  0
    7.2677   -5.2880    0.0000 C   0  0  0  0  0  0  0  0  0  0  0  0
    6.5532   -5.7006    0.0000 C   0  0  1  0  0  0  0  0  0  0  0  0
    6.5533   -6.5256    0.0000 C   0  0  2  0  0  0  0  0  0  0  0  0
    5.8389   -6.9381    0.0000 C   0  0  0  0  0  0  0  0  0  0  0  0
    5.1244   -6.5257    0.0000 C   0  0  0  0  0  0  0  0  0  0  0  0
    4.4100   -6.9383    0.0000 C   0  0  0  0  0  0  0  0  0  0  0  0
    4.4101   -7.7633    0.0000 C   0  0  0  0  0  0  0  0  0  0  0  0
    3.7970   -8.3154    0.0000 O   0  0  0  0  0  0  0  0  0  0  0  0
    4.1327   -9.0691    0.0000 C   0  0  0  0  0  0  0  0  0  0  0  0
    4.9532   -8.9827    0.0000 O   0  0  0  0  0  0  0  0  0  0  0  0
    5.1246   -8.1757    0.0000 C   0  0  0  0  0  0  0  0  0  0  0  0
    5.8390   -7.7631    0.0000 C   0  0  0  0  0  0  0  0  0  0  0  0
    6.5535   -8.1756    0.0000 C   0  0  0  0  0  0  0  0  0  0  0  0
    7.2680   -7.7630    0.0000 N   0  0  0  0  0  0  0  0  0  0  0  0
    7.2676   -4.4630    0.0000 O   0  0  0  0  0  0  0  0  0  0  0  0
    5.8387   -5.2881    0.0000 O   0  0  0  0  0  0  0  0  0  0  0  0
    7.9825   -8.1754    0.0000 C   0  0  0  0  0  0  0  0  0  0  0  0
    5.8388   -6.1131    0.0000 C   0  0  0  0  0  0  0  0  0  0  0  0
    7.9824   -7.3504    0.0000 H   0  0  0  0  0  0  0  0  0  0  0  0
  1  2  1  0  0  0  0
  2  3  2  0  0  0  0
  3  4  1  0  0  0  0
  4  5  1  0  0  0  0
  5  6  1  0  0  0  0
  6  7  1  0  0  0  0
  7  8  1  0  0  0  0
  8  9  1  0  0  0  0
  9 10  2  0  0  0  0
 10 11  1  0  0  0  0
 11 12  1  0  0  0  0
 12 13  1  0  0  0  0
 13 14  1  0  0  0  0
 14 15  1  0  0  0  0
 15 16  2  0  0  0  0
 16 17  1  0  0  0  0
 17 18  1  0  0  0  0
 18 19  1  0  0  0  0
 19 20  1  0  0  0  0
 20 21  1  0  0  0  0
 21 22  1  0  0  0  0
 22 23  1  0  0  0  0
 23 24  1  0  0  0  0
  1 24  1  0  0  0  0
  1 13  1  0  0  0  0
 14 22  2  0  0  0  0
 17 21  2  0  0  0  0
  2 10  1  0  0  0  0
  4  8  2  0  0  0  0
 11 25  1  0  0  0  0
 12 26  1  1  0  0  0
 24 27  1  0  0  0  0
 13 28  1  6  0  0  0
  1 29  1  6  0  0  0
M  END
>  <cdx:fragmentId>
2115

$$$$
