80642.cdx
  Mrv1902 05222410212D          

 10 10  0  0  0  0            999 V2000
    6.9015   -6.6169    0.0000 C   0  0  0  0  0  0  0  0  0  0  0  0
    7.1511   -7.4032    0.0000 C   0  0  0  0  0  0  0  0  0  0  0  0
    7.9761   -7.4088    0.0000 C   0  0  0  0  0  0  0  0  0  0  0  0
    8.2363   -6.6259    0.0000 C   0  0  0  0  0  0  0  0  0  0  0  0
    7.5722   -6.1365    0.0000 O   0  0  0  0  0  0  0  0  0  0  0  0
    6.1186   -6.3567    0.0000 C   0  0  0  0  0  0  0  0  0  0  0  0
    9.0227   -6.3763    0.0000 C   0  0  0  0  0  0  0  0  0  0  0  0
    9.6320   -6.9324    0.0000 O   0  0  0  0  0  0  0  0  0  0  0  0
    5.5018   -6.9046    0.0000 O   0  0  0  0  0  0  0  0  0  0  0  0
    9.1996   -5.5705    0.0000 O   0  0  0  0  0  0  0  0  0  0  0  0
  1  2  2  0  0  0  0
  2  3  1  0  0  0  0
  3  4  2  0  0  0  0
  4  5  1  0  0  0  0
  5  1  1  0  0  0  0
  1  6  1  0  0  0  0
  4  7  1  0  0  0  0
  7  8  1  0  0  0  0
  6  9  1  0  0  0  0
  7 10  2  0  0  0  0
M  END
>  <cdx:fragmentId>
41

$$$$
