98472.cdx
  Mrv1902 05222410182D          

 36 40  0  0  0  0            999 V2000
    6.9832  -11.1513    0.0000 O   0  0  0  0  0  0  0  0  0  0  0  0
    5.5543  -11.9762    0.0000 O   0  0  0  0  0  0  0  0  0  0  0  0
    7.7839   -9.0842    0.0000 H   0  0  0  0  0  0  0  0  0  0  0  0
    7.7839   -6.6183    0.0000 H   0  0  0  0  0  0  0  0  0  0  0  0
    8.7373   -6.3992    0.0000 O   0  0  0  0  0  0  0  0  0  0  0  0
    9.1968   -9.7562    0.0000 O   0  0  0  0  0  0  0  0  0  0  0  0
    8.4823   -9.3437    0.0000 C   0  0  0  0  0  0  0  0  0  0  0  0
    9.3798   -8.5657    0.0000 O   0  0  0  0  0  0  0  0  0  0  0  0
    8.4823   -8.5187    0.0000 C   0  0  2  0  0  0  0  0  0  0  0  0
    8.9673   -7.8513    0.0000 C   0  0  2  0  0  0  0  0  0  0  0  0
    8.4823   -7.1838    0.0000 C   0  0  2  0  0  0  0  0  0  0  0  0
    4.1254   -9.5013    0.0000 C   0  0  0  0  0  0  0  0  0  0  0  0
    3.4109   -9.9138    0.0000 O   0  0  0  0  0  0  0  0  0  0  0  0
    4.1254  -11.1513    0.0000 O   0  0  0  0  0  0  0  0  0  0  0  0
    4.8398   -9.9138    0.0000 C   0  0  2  0  0  0  0  0  0  0  0  0
    4.8398  -10.7387    0.0000 C   0  0  2  0  0  0  0  0  0  0  0  0
    5.5543  -11.1512    0.0000 C   0  0  1  0  0  0  0  0  0  0  0  0
    6.2688  -10.7387    0.0000 C   0  0  2  0  0  0  0  0  0  0  0  0
    5.5543   -9.5013    0.0000 O   0  0  0  0  0  0  0  0  0  0  0  0
    6.2688   -9.9138    0.0000 C   0  0  1  0  0  0  0  0  0  0  0  0
    6.9832   -9.5013    0.0000 O   0  0  0  0  0  0  0  0  0  0  0  0
    6.9832   -7.0263    0.0000 C   0  0  0  0  0  0  0  0  0  0  0  0
    6.2688   -7.4387    0.0000 C   0  0  0  0  0  0  0  0  0  0  0  0
    6.2688   -8.2637    0.0000 O   0  0  0  0  0  0  0  0  0  0  0  0
    6.9832   -8.6762    0.0000 C   0  0  2  0  0  0  0  0  0  0  0  0
    7.6977   -8.2637    0.0000 C   0  0  1  0  0  0  0  0  0  0  0  0
    7.6977   -7.4387    0.0000 C   0  0  2  0  0  0  0  0  0  0  0  0
    9.5506   -7.2679    0.0000 H   0  0  0  0  0  0  0  0  0  0  0  0
    9.5442   -6.2277    0.0000 C   0  0  0  0  0  0  0  0  0  0  0  0
   10.0963   -6.8408    0.0000 O   0  0  0  0  0  0  0  0  0  0  0  0
    9.7992   -5.4430    0.0000 C   0  0  0  0  0  0  0  0  0  0  0  0
   10.6062   -5.2715    0.0000 C   0  0  0  0  0  0  0  0  0  0  0  0
   10.8611   -4.4869    0.0000 C   0  0  0  0  0  0  0  0  0  0  0  0
   10.3091   -3.8738    0.0000 C   0  0  0  0  0  0  0  0  0  0  0  0
    9.5021   -4.0453    0.0000 C   0  0  0  0  0  0  0  0  0  0  0  0
    9.2471   -4.8299    0.0000 C   0  0  0  0  0  0  0  0  0  0  0  0
 18  1  1  6  0  0  0
 17  2  1  1  0  0  0
 26  3  1  6  0  0  0
 27  4  1  6  0  0  0
 11  5  1  6  0  0  0
  7  6  1  0  0  0  0
  9  7  1  1  0  0  0
  9  8  1  0  0  0  0
 10  8  1  0  0  0  0
  9 26  1  0  0  0  0
 10  9  1  0  0  0  0
 11 10  1  0  0  0  0
 27 11  1  0  0  0  0
 15 12  1  1  0  0  0
 13 12  1  0  0  0  0
 16 14  1  6  0  0  0
 15 19  1  0  0  0  0
 16 15  1  0  0  0  0
 17 16  1  0  0  0  0
 18 17  1  0  0  0  0
 20 18  1  0  0  0  0
 20 19  1  0  0  0  0
 20 21  1  1  0  0  0
 25 21  1  6  0  0  0
 22 27  1  0  0  0  0
 23 22  2  0  0  0  0
 24 23  1  0  0  0  0
 25 24  1  0  0  0  0
 26 25  1  0  0  0  0
 27 26  1  0  0  0  0
 10 28  1  1  0  0  0
  5 29  1  0  0  0  0
 29 30  2  0  0  0  0
 29 31  1  0  0  0  0
 31 32  2  0  0  0  0
 32 33  1  0  0  0  0
 33 34  2  0  0  0  0
 34 35  1  0  0  0  0
 35 36  2  0  0  0  0
 36 31  1  0  0  0  0
M  END
>  <cdx:fragmentId>
5

$$$$
