80714.cdx
  Mrv1902 05222410232D          

 31 34  0  0  0  0            999 V2000
    7.5529   -5.8899    0.0000 C   0  0  0  0  0  0  0  0  0  0  0  0
    7.5529   -6.7149    0.0000 C   0  0  0  0  0  0  0  0  0  0  0  0
    6.8384   -7.1274    0.0000 C   0  0  0  0  0  0  0  0  0  0  0  0
    6.1239   -6.7149    0.0000 C   0  0  0  0  0  0  0  0  0  0  0  0
    5.4095   -7.1274    0.0000 C   0  0  0  0  0  0  0  0  0  0  0  0
    5.4095   -7.9524    0.0000 O   0  0  0  0  0  0  0  0  0  0  0  0
    4.6950   -6.7149    0.0000 C   0  0  0  0  0  0  0  0  0  0  0  0
    4.6950   -5.8899    0.0000 C   0  0  0  0  0  0  0  0  0  0  0  0
    3.9805   -5.4774    0.0000 O   0  0  0  0  0  0  0  0  0  0  0  0
    5.4095   -5.4774    0.0000 C   0  0  0  0  0  0  0  0  0  0  0  0
    6.1239   -5.8899    0.0000 C   0  0  0  0  0  0  0  0  0  0  0  0
    6.8384   -5.4774    0.0000 O   0  3  0  0  0  0  0  0  0  0  0  0
    8.2674   -5.4774    0.0000 C   0  0  0  0  0  0  0  0  0  0  0  0
    8.2674   -4.6524    0.0000 C   0  0  0  0  0  0  0  0  0  0  0  0
    8.9818   -4.2399    0.0000 C   0  0  0  0  0  0  0  0  0  0  0  0
    9.6963   -4.6524    0.0000 C   0  0  0  0  0  0  0  0  0  0  0  0
   10.4108   -4.2399    0.0000 O   0  0  0  0  0  0  0  0  0  0  0  0
    9.6963   -5.4774    0.0000 C   0  0  0  0  0  0  0  0  0  0  0  0
    8.9818   -5.8899    0.0000 C   0  0  0  0  0  0  0  0  0  0  0  0
    8.2674   -7.1274    0.0000 O   0  0  0  0  0  0  0  0  0  0  0  0
    8.2674   -7.9524    0.0000 C   0  0  1  0  0  0  0  0  0  0  0  0
    8.9818   -8.3649    0.0000 C   0  0  2  0  0  0  0  0  0  0  0  0
    9.6963   -7.9524    0.0000 O   0  0  0  0  0  0  0  0  0  0  0  0
    8.9818   -9.1899    0.0000 C   0  0  1  0  0  0  0  0  0  0  0  0
    9.6963   -9.6024    0.0000 O   0  0  0  0  0  0  0  0  0  0  0  0
    8.2674   -9.6024    0.0000 C   0  0  2  0  0  0  0  0  0  0  0  0
    8.2674  -10.4274    0.0000 O   0  0  0  0  0  0  0  0  0  0  0  0
    7.5529   -9.1899    0.0000 C   0  0  2  0  0  0  0  0  0  0  0  0
    7.5529   -8.3649    0.0000 O   0  0  0  0  0  0  0  0  0  0  0  0
    6.8384   -9.6024    0.0000 C   0  0  0  0  0  0  0  0  0  0  0  0
    6.8384  -10.4274    0.0000 O   0  0  0  0  0  0  0  0  0  0  0  0
  1  2  2  0  0  0  0
  2  3  1  0  0  0  0
  3  4  2  0  0  0  0
  4  5  1  0  0  0  0
  5  6  1  0  0  0  0
  5  7  2  0  0  0  0
  7  8  1  0  0  0  0
  8  9  1  0  0  0  0
  8 10  2  0  0  0  0
 10 11  1  0  0  0  0
  4 11  1  0  0  0  0
 11 12  2  0  0  0  0
  1 12  1  0  0  0  0
  1 13  1  0  0  0  0
 13 14  1  0  0  0  0
 14 15  2  0  0  0  0
 15 16  1  0  0  0  0
 16 17  1  0  0  0  0
 16 18  2  0  0  0  0
 18 19  1  0  0  0  0
 13 19  2  0  0  0  0
 21 20  1  1  0  0  0
 21 22  1  0  0  0  0
 22 23  1  6  0  0  0
 22 24  1  0  0  0  0
 24 25  1  1  0  0  0
 24 26  1  0  0  0  0
 26 27  1  6  0  0  0
 26 28  1  0  0  0  0
 28 29  1  0  0  0  0
 28 30  1  1  0  0  0
 30 31  1  0  0  0  0
 21 29  1  0  0  0  0
  2 20  1  0  0  0  0
M  CHG  1  12   1
M  END
>  <cdx:fragmentId>
5

$$$$
