80750.cdx
  Mrv1902 05222410192D          

 27 29  0  0  0  0            999 V2000
   11.3683   -5.2965    0.0000 C   0  0  0  0  0  0  0  0  0  0  0  0
   10.6539   -4.8840    0.0000 O   0  0  0  0  0  0  0  0  0  0  0  0
    9.9394   -5.2965    0.0000 C   0  0  0  0  0  0  0  0  0  0  0  0
    9.9394   -6.1215    0.0000 C   0  0  0  0  0  0  0  0  0  0  0  0
   10.6539   -6.5340    0.0000 O   0  0  0  0  0  0  0  0  0  0  0  0
    9.2249   -6.5340    0.0000 C   0  0  0  0  0  0  0  0  0  0  0  0
    8.5105   -6.1215    0.0000 C   0  0  0  0  0  0  0  0  0  0  0  0
    8.5105   -5.2965    0.0000 C   0  0  0  0  0  0  0  0  0  0  0  0
    9.2249   -4.8840    0.0000 C   0  0  0  0  0  0  0  0  0  0  0  0
    7.7960   -6.5340    0.0000 C   0  0  0  0  0  0  0  0  0  0  0  0
    7.7960   -7.3590    0.0000 C   0  0  0  0  0  0  0  0  0  0  0  0
    7.0815   -7.7715    0.0000 C   0  0  0  0  0  0  0  0  0  0  0  0
    7.0815   -8.5965    0.0000 O   0  0  0  0  0  0  0  0  0  0  0  0
    6.3670   -7.3590    0.0000 C   0  0  0  0  0  0  0  0  0  0  0  0
    6.3670   -6.5340    0.0000 C   0  0  0  0  0  0  0  0  0  0  0  0
    7.0815   -6.1215    0.0000 O   0  0  0  0  0  0  0  0  0  0  0  0
    5.6526   -6.1215    0.0000 C   0  0  0  0  0  0  0  0  0  0  0  0
    5.6526   -5.2965    0.0000 O   0  0  0  0  0  0  0  0  0  0  0  0
    4.9381   -4.8840    0.0000 C   0  0  0  0  0  0  0  0  0  0  0  0
    4.9381   -6.5340    0.0000 C   0  0  0  0  0  0  0  0  0  0  0  0
    4.2236   -6.1215    0.0000 O   0  0  0  0  0  0  0  0  0  0  0  0
    3.5092   -6.5340    0.0000 C   0  0  0  0  0  0  0  0  0  0  0  0
    4.9381   -7.3590    0.0000 C   0  0  0  0  0  0  0  0  0  0  0  0
    4.2236   -7.7715    0.0000 O   0  0  0  0  0  0  0  0  0  0  0  0
    3.5092   -7.3590    0.0000 C   0  0  0  0  0  0  0  0  0  0  0  0
    5.6526   -7.7715    0.0000 C   0  0  0  0  0  0  0  0  0  0  0  0
    5.6526   -8.5965    0.0000 O   0  0  0  0  0  0  0  0  0  0  0  0
  1  2  1  0  0  0  0
  2  3  1  0  0  0  0
  3  4  2  0  0  0  0
  4  5  1  0  0  0  0
  4  6  1  0  0  0  0
  6  7  2  0  0  0  0
  7  8  1  0  0  0  0
  8  9  2  0  0  0  0
  3  9  1  0  0  0  0
  7 10  1  0  0  0  0
 10 11  2  0  0  0  0
 11 12  1  0  0  0  0
 12 13  2  0  0  0  0
 12 14  1  0  0  0  0
 14 15  2  0  0  0  0
 15 16  1  0  0  0  0
 10 16  1  0  0  0  0
 15 17  1  0  0  0  0
 17 18  1  0  0  0  0
 18 19  1  0  0  0  0
 17 20  2  0  0  0  0
 20 21  1  0  0  0  0
 21 22  1  0  0  0  0
 20 23  1  0  0  0  0
 23 24  1  0  0  0  0
 24 25  1  0  0  0  0
 23 26  2  0  0  0  0
 14 26  1  0  0  0  0
 26 27  1  0  0  0  0
M  END
>  <cdx:fragmentId>
641

$$$$
