3080775.cdx
  Mrv1902 05222410262D          

  9  8  0  0  0  0            999 V2000
   16.5834  -12.9952    0.0000 C   0  0  0  0  0  0  0  0  0  0  0  0
   15.8689  -14.2327    0.0000 N   0  0  0  0  0  0  0  0  0  0  0  0
   15.8689  -13.4077    0.0000 C   0  0  1  0  0  0  0  0  0  0  0  0
   15.1545  -12.9952    0.0000 C   0  0  0  0  0  0  0  0  0  0  0  0
   14.4400  -13.4077    0.0000 S   0  0  0  0  0  0  0  0  0  0  0  0
   16.5834  -12.1702    0.0000 O   0  0  0  0  0  0  0  0  0  0  0  0
   17.2979  -13.4077    0.0000 O   0  0  0  0  0  0  0  0  0  0  0  0
   13.7255  -12.9952    0.0000 S   0  0  0  0  0  0  0  0  0  0  0  0
   13.0111  -13.4077    0.0000 C   0  0  0  0  0  0  0  0  0  0  0  0
  3  2  1  1  0  0  0
  1  3  1  0  0  0  0
  3  4  1  0  0  0  0
  4  5  1  0  0  0  0
  1  6  2  0  0  0  0
  1  7  1  0  0  0  0
  8  9  1  0  0  0  0
  5  8  1  0  0  0  0
M  END
>  <cdx:groupId>
731

>  <cdx:fragmentId>
708

$$$$
