8078.cdx
  Mrv1902 05222410262D          

  6  6  0  0  0  0            999 V2000
    8.0735   -4.9225    0.0000 C   0  0  0  0  0  0  0  0  0  0  0  0
    7.3590   -5.3350    0.0000 C   0  0  0  0  0  0  0  0  0  0  0  0
    6.6445   -4.9225    0.0000 C   0  0  0  0  0  0  0  0  0  0  0  0
    6.6445   -4.0975    0.0000 C   0  0  0  0  0  0  0  0  0  0  0  0
    7.3590   -3.6850    0.0000 C   0  0  0  0  0  0  0  0  0  0  0  0
    8.0735   -4.0975    0.0000 C   0  0  0  0  0  0  0  0  0  0  0  0
  1  2  1  0  0  0  0
  2  3  1  0  0  0  0
  3  4  1  0  0  0  0
  4  5  1  0  0  0  0
  5  6  1  0  0  0  0
  1  6  1  0  0  0  0
M  END
>  <cdx:fragmentId>
5

$$$$
