8792.cdx
  Mrv1902 05222410192D          

 14 14  0  0  0  0            999 V2000
    4.6546   -3.1017    0.0000 C   0  0  0  0  0  0  0  0  0  0  0  0
    5.3691   -3.5142    0.0000 C   0  0  0  0  0  0  0  0  0  0  0  0
    6.0836   -3.1017    0.0000 C   0  0  0  0  0  0  0  0  0  0  0  0
    6.7981   -3.5142    0.0000 C   0  0  0  0  0  0  0  0  0  0  0  0
    6.7981   -4.3392    0.0000 C   0  0  0  0  0  0  0  0  0  0  0  0
    7.5125   -3.1017    0.0000 C   0  0  0  0  0  0  0  0  0  0  0  0
    6.0836   -2.2767    0.0000 C   0  0  0  0  0  0  0  0  0  0  0  0
    5.3691   -1.8642    0.0000 C   0  0  0  0  0  0  0  0  0  0  0  0
    4.6546   -2.2767    0.0000 C   0  0  0  0  0  0  0  0  0  0  0  0
    3.9402   -1.8642    0.0000 C   0  0  0  0  0  0  0  0  0  0  0  0
    3.2257   -3.1017    0.0000 C   0  0  0  0  0  0  0  0  0  0  0  0
    2.5112   -3.5142    0.0000 C   0  0  0  0  0  0  0  0  0  0  0  0
    3.2257   -2.2767    0.0000 O   0  0  0  0  0  0  0  0  0  0  0  0
    3.9402   -3.5142    0.0000 O   0  0  0  0  0  0  0  0  0  0  0  0
  1  2  1  0  0  0  0
  2  3  2  0  0  0  0
  3  4  1  0  0  0  0
  4  5  1  0  0  0  0
  4  6  1  0  0  0  0
  3  7  1  0  0  0  0
  7  8  2  0  0  0  0
  8  9  1  0  0  0  0
  9 10  1  0  0  0  0
  1  9  2  0  0  0  0
 11 12  1  0  0  0  0
 11 13  2  0  0  0  0
 11 14  1  0  0  0  0
  1 14  1  0  0  0  0
M  END
>  <cdx:groupId>
44

>  <cdx:fragmentId>
5

$$$$
