807986.cdx
  Mrv1902 05222410262D          

 17 16  0  0  0  0            999 V2000
   11.5623   -6.8912    0.0000 C   0  0  0  0  0  0  0  0  0  0  0  0
   10.8479   -6.4787    0.0000 C   0  0  0  0  0  0  0  0  0  0  0  0
   10.1334   -6.8912    0.0000 C   0  0  0  0  0  0  0  0  0  0  0  0
    9.4189   -6.4787    0.0000 C   0  0  0  0  0  0  0  0  0  0  0  0
    8.7045   -6.8912    0.0000 C   0  0  0  0  0  0  0  0  0  0  0  0
    7.9900   -6.4787    0.0000 C   0  0  0  0  0  0  0  0  0  0  0  0
    7.2755   -6.8912    0.0000 C   0  0  0  0  0  0  0  0  0  0  0  0
    6.5610   -6.4787    0.0000 C   0  0  0  0  0  0  0  0  0  0  0  0
    5.8466   -6.0662    0.0000 C   0  0  0  0  0  0  0  0  0  0  0  0
    5.1321   -5.6537    0.0000 C   0  0  0  0  0  0  0  0  0  0  0  0
    4.4176   -5.2412    0.0000 C   0  0  0  0  0  0  0  0  0  0  0  0
    3.7032   -4.8287    0.0000 C   0  0  0  0  0  0  0  0  0  0  0  0
    2.9887   -5.2412    0.0000 C   0  0  0  0  0  0  0  0  0  0  0  0
    2.2742   -4.8287    0.0000 C   0  0  0  0  0  0  0  0  0  0  0  0
   12.2768   -6.4787    0.0000 O   0  0  0  0  0  0  0  0  0  0  0  0
    7.9900   -5.6537    0.0000 O   0  0  0  0  0  0  0  0  0  0  0  0
    7.2755   -7.7162    0.0000 O   0  0  0  0  0  0  0  0  0  0  0  0
  1  2  1  0  0  0  0
  2  3  1  0  0  0  0
  3  4  1  0  0  0  0
  4  5  2  0  0  0  0
  5  6  1  0  0  0  0
  6  7  1  0  0  0  0
  7  8  1  0  0  0  0
  8  9  3  0  0  0  0
  9 10  1  0  0  0  0
 10 11  3  0  0  0  0
 11 12  1  0  0  0  0
 12 13  2  0  0  0  0
 13 14  1  0  0  0  0
  1 15  1  0  0  0  0
  6 16  1  0  0  0  0
  7 17  1  0  0  0  0
M  END
>  <cdx:fragmentId>
5

$$$$
