80796.cdx
  Mrv1902 05222410192D          

 18 17  0  0  0  0            999 V2000
    3.4170   -3.7614    0.0000 C   0  0  0  0  0  0  0  0  0  0  0  0
    2.7025   -4.1739    0.0000 C   0  0  0  0  0  0  0  0  0  0  0  0
    1.9881   -3.7614    0.0000 C   0  0  0  0  0  0  0  0  0  0  0  0
    3.4170   -2.9364    0.0000 O   0  0  0  0  0  0  0  0  0  0  0  0
    4.1315   -4.1739    0.0000 O   0  0  0  0  0  0  0  0  0  0  0  0
    1.2736   -4.1739    0.0000 S   0  0  0  0  0  0  0  0  0  0  0  0
    4.8459   -3.7614    0.0000 C   0  0  0  0  0  0  0  0  0  0  0  0
    5.5604   -4.1739    0.0000 C   0  0  0  0  0  0  0  0  0  0  0  0
    6.2749   -3.7614    0.0000 C   0  0  0  0  0  0  0  0  0  0  0  0
    6.9894   -4.1739    0.0000 C   0  0  0  0  0  0  0  0  0  0  0  0
    7.7038   -3.7614    0.0000 C   0  0  0  0  0  0  0  0  0  0  0  0
    8.4183   -4.1739    0.0000 C   0  0  0  0  0  0  0  0  0  0  0  0
    9.1328   -3.7614    0.0000 C   0  0  0  0  0  0  0  0  0  0  0  0
    9.8472   -4.1739    0.0000 C   0  0  0  0  0  0  0  0  0  0  0  0
   10.5617   -3.7614    0.0000 C   0  0  0  0  0  0  0  0  0  0  0  0
   11.2762   -4.1739    0.0000 C   0  0  0  0  0  0  0  0  0  0  0  0
   11.9906   -3.7614    0.0000 C   0  0  0  0  0  0  0  0  0  0  0  0
   12.7051   -4.1739    0.0000 C   0  0  0  0  0  0  0  0  0  0  0  0
  1  2  1  0  0  0  0
  2  3  1  0  0  0  0
  1  4  2  0  0  0  0
  1  5  1  0  0  0  0
  3  6  1  0  0  0  0
  7  8  1  0  0  0  0
  8  9  1  0  0  0  0
  9 10  1  0  0  0  0
 10 11  1  0  0  0  0
 11 12  1  0  0  0  0
 12 13  1  0  0  0  0
 13 14  1  0  0  0  0
 14 15  1  0  0  0  0
 15 16  1  0  0  0  0
 16 17  1  0  0  0  0
 17 18  1  0  0  0  0
  5  7  1  0  0  0  0
M  END
>  <cdx:groupId>
55

>  <cdx:fragmentId>
17

$$$$
