8079.cdx
  Mrv1902 05222410262D          

  6  6  0  0  0  0            999 V2000
    7.7778   -5.0256    0.0000 C   0  0  0  0  0  0  0  0  0  0  0  0
    7.0634   -5.4381    0.0000 C   0  0  0  0  0  0  0  0  0  0  0  0
    6.3489   -5.0256    0.0000 C   0  0  0  0  0  0  0  0  0  0  0  0
    6.3489   -4.2006    0.0000 C   0  0  0  0  0  0  0  0  0  0  0  0
    7.0634   -3.7881    0.0000 C   0  0  0  0  0  0  0  0  0  0  0  0
    7.7778   -4.2006    0.0000 C   0  0  0  0  0  0  0  0  0  0  0  0
  1  2  2  0  0  0  0
  2  3  1  0  0  0  0
  3  4  1  0  0  0  0
  4  5  1  0  0  0  0
  5  6  1  0  0  0  0
  1  6  1  0  0  0  0
M  END
>  <cdx:fragmentId>
5

$$$$
