8090.cdx
  Mrv1902 05222410272D          

 22 21  0  0  0  0            999 V2000
    2.8651   -8.6289    0.0000 C   0  0  0  0  0  0  0  0  0  0  0  0
    3.5796   -9.0414    0.0000 C   0  0  0  0  0  0  0  0  0  0  0  0
    4.2940   -8.6289    0.0000 C   0  0  0  0  0  0  0  0  0  0  0  0
    5.0085   -9.0414    0.0000 C   0  0  0  0  0  0  0  0  0  0  0  0
    5.7230   -8.6289    0.0000 O   0  0  0  0  0  0  0  0  0  0  0  0
    6.4374   -9.8664    0.0000 O   0  0  0  0  0  0  0  0  0  0  0  0
   17.1545   -8.6289    0.0000 C   0  0  0  0  0  0  0  0  0  0  0  0
   16.4400   -9.0414    0.0000 C   0  0  0  0  0  0  0  0  0  0  0  0
   15.7256   -8.6289    0.0000 C   0  0  0  0  0  0  0  0  0  0  0  0
   15.0111   -9.0414    0.0000 C   0  0  0  0  0  0  0  0  0  0  0  0
   14.2966   -8.6289    0.0000 C   0  0  0  0  0  0  0  0  0  0  0  0
   13.5821   -9.0414    0.0000 C   0  0  0  0  0  0  0  0  0  0  0  0
   12.8677   -8.6289    0.0000 C   0  0  0  0  0  0  0  0  0  0  0  0
   12.1532   -9.0414    0.0000 C   0  0  0  0  0  0  0  0  0  0  0  0
   11.4387   -8.6289    0.0000 C   0  0  0  0  0  0  0  0  0  0  0  0
   10.7243   -9.0414    0.0000 C   0  0  0  0  0  0  0  0  0  0  0  0
   10.0098   -8.6289    0.0000 C   0  0  0  0  0  0  0  0  0  0  0  0
    9.2953   -9.0414    0.0000 C   0  0  0  0  0  0  0  0  0  0  0  0
    8.5808   -8.6289    0.0000 C   0  0  0  0  0  0  0  0  0  0  0  0
    7.8664   -9.0414    0.0000 C   0  0  0  0  0  0  0  0  0  0  0  0
    7.1519   -8.6289    0.0000 C   0  0  0  0  0  0  0  0  0  0  0  0
    6.4374   -9.0414    0.0000 C   0  0  0  0  0  0  0  0  0  0  0  0
  5  4  1  0  0  0  0
  2  1  1  0  0  0  0
  3  2  1  0  0  0  0
  4  3  1  0  0  0  0
 22  5  1  0  0  0  0
 22  6  2  0  0  0  0
  8  7  1  0  0  0  0
  9  8  1  0  0  0  0
 10  9  1  0  0  0  0
 11 10  1  0  0  0  0
 12 11  1  0  0  0  0
 13 12  1  0  0  0  0
 14 13  1  0  0  0  0
 15 14  1  0  0  0  0
 16 15  1  0  0  0  0
 17 16  1  0  0  0  0
 18 17  1  0  0  0  0
 19 18  1  0  0  0  0
 20 19  1  0  0  0  0
 21 20  1  0  0  0  0
 22 21  1  0  0  0  0
M  END
>  <cdx:fragmentId>
5

$$$$
