8091.cdx
  Mrv1902 05222410272D          

 11 10  0  0  0  0            999 V2000
    6.7321   -3.3696    0.0000 C   0  0  0  0  0  0  0  0  0  0  0  0
    6.0176   -3.7821    0.0000 C   0  0  0  0  0  0  0  0  0  0  0  0
    5.3031   -3.3696    0.0000 C   0  0  0  0  0  0  0  0  0  0  0  0
    4.5886   -3.7821    0.0000 C   0  0  0  0  0  0  0  0  0  0  0  0
    3.8742   -3.3696    0.0000 C   0  0  0  0  0  0  0  0  0  0  0  0
    3.1597   -3.7821    0.0000 C   0  0  0  0  0  0  0  0  0  0  0  0
    2.4452   -3.3696    0.0000 C   0  0  0  0  0  0  0  0  0  0  0  0
    1.7308   -3.7821    0.0000 C   0  0  0  0  0  0  0  0  0  0  0  0
    6.7321   -2.5446    0.0000 O   0  0  0  0  0  0  0  0  0  0  0  0
    7.4465   -3.7821    0.0000 O   0  0  0  0  0  0  0  0  0  0  0  0
    8.1610   -3.3696    0.0000 C   0  0  0  0  0  0  0  0  0  0  0  0
  1  2  1  0  0  0  0
  2  3  1  0  0  0  0
  3  4  1  0  0  0  0
  4  5  1  0  0  0  0
  5  6  1  0  0  0  0
  6  7  1  0  0  0  0
  7  8  1  0  0  0  0
  1  9  2  0  0  0  0
  1 10  1  0  0  0  0
 10 11  1  0  0  0  0
M  END
>  <cdx:groupId>
34

>  <cdx:fragmentId>
5

$$$$
