809239.cdx
  Mrv1902 05222410282D          

 22 23  0  0  0  0            999 V2000
    8.5890   -4.1291    0.0000 C   0  0  0  0  0  0  0  0  0  0  0  0
    9.3074   -4.5346    0.0000 C   0  0  0  0  0  0  0  0  0  0  0  0
    9.3155   -5.3595    0.0000 C   0  0  0  0  0  0  0  0  0  0  0  0
    8.6051   -5.7790    0.0000 C   0  0  0  0  0  0  0  0  0  0  0  0
    7.8866   -5.3735    0.0000 C   0  0  0  0  0  0  0  0  0  0  0  0
    7.8786   -4.5486    0.0000 C   0  0  0  0  0  0  0  0  0  0  0  0
    8.5809   -3.3041    0.0000 O   0  0  0  0  0  0  0  0  0  0  0  0
    8.6132   -6.6040    0.0000 C   0  0  0  0  0  0  0  0  0  0  0  0
    7.9028   -7.0234    0.0000 C   0  0  0  0  0  0  0  0  0  0  0  0
    7.9109   -7.8484    0.0000 O   0  0  0  0  0  0  0  0  0  0  0  0
    9.3236   -6.1845    0.0000 O   0  0  0  0  0  0  0  0  0  0  0  0
    7.9271   -9.4983    0.0000 O   0  0  0  0  0  0  0  0  0  0  0  0
    6.5063  -10.3373    0.0000 O   0  0  0  0  0  0  0  0  0  0  0  0
    5.0693   -9.5263    0.0000 O   0  0  0  0  0  0  0  0  0  0  0  0
    4.3427   -8.2959    0.0000 O   0  0  0  0  0  0  0  0  0  0  0  0
    5.0531   -7.8764    0.0000 C   0  0  0  0  0  0  0  0  0  0  0  0
    5.7716   -8.2819    0.0000 C   0  0  2  0  0  0  0  0  0  0  0  0
    5.7797   -9.1068    0.0000 C   0  0  2  0  0  0  0  0  0  0  0  0
    6.4982   -9.5123    0.0000 C   0  0  1  0  0  0  0  0  0  0  0  0
    7.2086   -9.0928    0.0000 C   0  0  2  0  0  0  0  0  0  0  0  0
    7.2005   -8.2679    0.0000 C   0  0  1  0  0  0  0  0  0  0  0  0
    6.4820   -7.8624    0.0000 O   0  0  0  0  0  0  0  0  0  0  0  0
 21 10  1  1  0  0  0
 20 12  1  6  0  0  0
 19 13  1  1  0  0  0
 18 14  1  6  0  0  0
 17 16  1  1  0  0  0
 16 15  1  0  0  0  0
 22 17  1  0  0  0  0
 18 17  1  0  0  0  0
 19 18  1  0  0  0  0
 20 19  1  0  0  0  0
 21 20  1  0  0  0  0
 22 21  1  0  0  0  0
  1  2  1  0  0  0  0
  2  3  2  0  0  0  0
  3  4  1  0  0  0  0
  4  5  1  0  0  0  0
  5  6  2  0  0  0  0
  1  6  1  0  0  0  0
  1  7  2  0  0  0  0
  8  9  1  0  0  0  0
  9 10  1  0  0  0  0
  4  8  1  0  0  0  0
  4 11  1  0  0  0  0
M  END
>  <cdx:fragmentId>
82005

$$$$
