80922.cdx
  Mrv1902 05222410262D          

 13 13  0  0  0  0            999 V2000
    1.4404   -4.2410    0.0000 C   0  0  0  0  0  0  0  0  0  0  0  0
    2.8694   -3.4160    0.0000 C   0  0  0  0  0  0  0  0  0  0  0  0
    1.4404   -3.4160    0.0000 C   0  0  0  0  0  0  0  0  0  0  0  0
    2.1549   -4.6535    0.0000 C   0  0  0  0  0  0  0  0  0  0  0  0
    2.1549   -3.0035    0.0000 C   0  0  0  0  0  0  0  0  0  0  0  0
    2.8694   -4.2410    0.0000 C   0  0  0  0  0  0  0  0  0  0  0  0
    0.7259   -4.6535    0.0000 C   0  0  0  0  0  0  0  0  0  0  0  0
    3.5838   -4.6535    0.0000 O   0  0  0  0  0  0  0  0  0  0  0  0
    4.2983   -4.2410    0.0000 C   0  0  0  0  0  0  0  0  0  0  0  0
    3.5838   -3.0035    0.0000 O   0  0  0  0  0  0  0  0  0  0  0  0
    4.2983   -3.4160    0.0000 C   0  0  0  0  0  0  0  0  0  0  0  0
    2.1549   -2.1785    0.0000 O   0  0  0  0  0  0  0  0  0  0  0  0
    1.4404   -1.7660    0.0000 C   0  0  0  0  0  0  0  0  0  0  0  0
  1  3  1  0  0  0  0
  1  4  2  0  0  0  0
  3  5  2  0  0  0  0
  2  5  1  0  0  0  0
  2  6  2  0  0  0  0
  4  6  1  0  0  0  0
  1  7  1  0  0  0  0
  8  9  1  0  0  0  0
  6  8  1  0  0  0  0
 10 11  1  0  0  0  0
  2 10  1  0  0  0  0
 12 13  1  0  0  0  0
  5 12  1  0  0  0  0
M  END
>  <cdx:groupId>
41

>  <cdx:fragmentId>
7

$$$$
