8093.cdx
  Mrv1902 05222410262D          

  9  8  0  0  0  0            999 V2000
    7.9415   -5.1491    0.0000 C   0  0  0  0  0  0  0  0  0  0  0  0
    7.2271   -4.7366    0.0000 C   0  0  0  0  0  0  0  0  0  0  0  0
    6.5126   -5.1491    0.0000 C   0  0  0  0  0  0  0  0  0  0  0  0
    5.7981   -4.7366    0.0000 C   0  0  0  0  0  0  0  0  0  0  0  0
    5.0836   -5.1491    0.0000 C   0  0  0  0  0  0  0  0  0  0  0  0
    4.3692   -4.7366    0.0000 C   0  0  0  0  0  0  0  0  0  0  0  0
    3.6547   -5.1491    0.0000 C   0  0  0  0  0  0  0  0  0  0  0  0
    2.9402   -4.7366    0.0000 C   0  0  0  0  0  0  0  0  0  0  0  0
    7.2271   -3.9116    0.0000 O   0  0  0  0  0  0  0  0  0  0  0  0
  1  2  1  0  0  0  0
  2  3  1  0  0  0  0
  3  4  1  0  0  0  0
  4  5  1  0  0  0  0
  5  6  1  0  0  0  0
  6  7  1  0  0  0  0
  7  8  1  0  0  0  0
  2  9  2  0  0  0  0
M  END
>  <cdx:groupId>
28

>  <cdx:fragmentId>
5

$$$$
