809575.cdx
  Mrv1902 05222410272D          

 21 22  0  0  0  0            999 V2000
   11.0123   -6.5316    0.0000 C   0  0  0  0  0  0  0  0  0  0  0  0
   10.2904   -6.9310    0.0000 O   0  0  0  0  0  0  0  0  0  0  0  0
    7.4325   -6.9377    0.0000 C   0  0  0  0  0  0  0  0  0  0  0  0
    6.7171   -6.5269    0.0000 C   0  0  0  0  0  0  0  0  0  0  0  0
    6.0036   -6.9410    0.0000 C   0  0  0  0  0  0  0  0  0  0  0  0
    6.0055   -7.7660    0.0000 C   0  0  0  0  0  0  0  0  0  0  0  0
    5.2920   -8.1802    0.0000 C   0  0  0  0  0  0  0  0  0  0  0  0
    4.5766   -7.7694    0.0000 C   0  0  0  0  0  0  0  0  0  0  0  0
    4.5747   -6.9444    0.0000 C   0  0  0  0  0  0  0  0  0  0  0  0
    5.2882   -6.5302    0.0000 C   0  0  0  0  0  0  0  0  0  0  0  0
    3.8592   -6.5336    0.0000 O   0  0  0  0  0  0  0  0  0  0  0  0
    3.1457   -6.9478    0.0000 C   0  0  0  0  0  0  0  0  0  0  0  0
    5.2940   -9.0052    0.0000 O   0  0  0  0  0  0  0  0  0  0  0  0
    4.5805   -9.4194    0.0000 C   0  0  0  0  0  0  0  0  0  0  0  0
   10.2865   -5.2810    0.0000 O   0  0  0  0  0  0  0  0  0  0  0  0
    9.5750   -6.5202    0.0000 C   0  0  0  0  0  0  0  0  0  0  0  0
    8.8615   -6.9343    0.0000 C   0  0  0  0  0  0  0  0  0  0  0  0
    8.1460   -6.5235    0.0000 C   0  0  0  0  0  0  0  0  0  0  0  0
    8.1441   -5.6985    0.0000 C   0  0  0  0  0  0  0  0  0  0  0  0
    8.8576   -5.2843    0.0000 C   0  0  0  0  0  0  0  0  0  0  0  0
    9.5730   -5.6952    0.0000 C   0  0  0  0  0  0  0  0  0  0  0  0
  2  1  1  0  0  0  0
 16  2  1  0  0  0  0
 21 15  1  0  0  0  0
 21 16  2  0  0  0  0
 17 16  1  0  0  0  0
 18 17  2  0  0  0  0
 19 18  1  0  0  0  0
 20 19  2  0  0  0  0
 21 20  1  0  0  0  0
  3  4  2  0  0  0  0
  5  6  1  0  0  0  0
  6  7  2  0  0  0  0
  7  8  1  0  0  0  0
  8  9  2  0  0  0  0
  9 10  1  0  0  0  0
  5 10  2  0  0  0  0
 11 12  1  0  0  0  0
  9 11  1  0  0  0  0
 13 14  1  0  0  0  0
  7 13  1  0  0  0  0
  4  5  1  0  0  0  0
 18  3  1  0  0  0  0
M  END
>  <cdx:fragmentId>
8996

$$$$
