8100.cdx
  Mrv1902 05222410202D          

 38 44  0  0  0  0            999 V2000
    6.9030   -7.1225    0.0000 C   0  0  2  0  0  0  0  0  0  0  0  0
    6.9030   -7.9475    0.0000 C   0  0  2  0  0  0  0  0  0  0  0  0
    7.6175   -8.3600    0.0000 C   0  0  1  0  0  0  0  0  0  0  0  0
    8.3320   -7.9475    0.0000 C   0  0  2  0  0  0  0  0  0  0  0  0
    8.3320   -7.1225    0.0000 C   0  0  0  0  0  0  0  0  0  0  0  0
    7.6175   -6.7100    0.0000 C   0  0  1  0  0  0  0  0  0  0  0  0
    6.2580   -6.6081    0.0000 C   0  0  1  0  0  0  0  0  0  0  0  0
    5.4537   -6.7917    0.0000 C   0  0  0  0  0  0  0  0  0  0  0  0
    5.0957   -7.5350    0.0000 C   0  0  1  0  0  0  0  0  0  0  0  0
    5.4537   -8.2783    0.0000 C   0  0  2  0  0  0  0  0  0  0  0  0
    6.2580   -8.4619    0.0000 C   0  0  0  0  0  0  0  0  0  0  0  0
    7.6175   -9.1850    0.0000 C   0  0  2  0  0  0  0  0  0  0  0  0
    8.3320   -9.5975    0.0000 C   0  0  0  0  0  0  0  0  0  0  0  0
    9.0464   -9.1850    0.0000 C   0  0  0  0  0  0  0  0  0  0  0  0
    9.0464   -8.3600    0.0000 C   0  0  2  0  0  0  0  0  0  0  0  0
    7.2600   -7.5625    0.0000 C   0  0  0  0  0  0  0  0  0  0  0  0
    8.0575   -7.2600    0.0000 N   0  0  0  0  0  0  0  0  0  0  0  0
    4.9393   -6.1467    0.0000 C   0  0  0  0  0  0  0  0  0  0  0  0
    4.2707   -7.5350    0.0000 H   0  0  0  0  0  0  0  0  0  0  0  0
    6.4416   -5.8038    0.0000 O   0  0  0  0  0  0  0  0  0  0  0  0
    7.6175   -5.8850    0.0000 H   0  0  0  0  0  0  0  0  0  0  0  0
    6.9030   -9.5975    0.0000 O   0  0  0  0  0  0  0  0  0  0  0  0
    4.9393   -8.9233    0.0000 O   0  0  0  0  0  0  0  0  0  0  0  0
    6.9030   -8.7725    0.0000 H   0  0  0  0  0  0  0  0  0  0  0  0
    9.8714   -8.3600    0.0000 C   0  0  0  0  0  0  0  0  0  0  0  0
    8.3320   -8.7725    0.0000 H   0  0  0  0  0  0  0  0  0  0  0  0
    8.8275   -7.5075    0.0000 C   0  0  0  0  0  0  0  0  0  0  0  0
    8.0575   -6.4350    0.0000 C   0  0  0  0  0  0  0  0  0  0  0  0
    5.9400   -7.1500    0.0000 C   0  0  0  0  0  0  0  0  0  0  0  0
    8.7720   -6.0225    0.0000 C   0  0  0  0  0  0  0  0  0  0  0  0
    6.9030  -10.4225    0.0000 C   0  0  0  0  0  0  0  0  0  0  0  0
    6.1886  -10.8350    0.0000 C   0  0  0  0  0  0  0  0  0  0  0  0
    7.6175  -10.8350    0.0000 O   0  0  0  0  0  0  0  0  0  0  0  0
    5.4741  -10.4225    0.0000 C   0  0  0  0  0  0  0  0  0  0  0  0
    4.7596  -10.8350    0.0000 C   0  0  0  0  0  0  0  0  0  0  0  0
    4.7596  -11.6600    0.0000 C   0  0  0  0  0  0  0  0  0  0  0  0
    5.4741  -12.0725    0.0000 C   0  0  0  0  0  0  0  0  0  0  0  0
    6.1886  -11.6600    0.0000 C   0  0  0  0  0  0  0  0  0  0  0  0
  1  2  1  0  0  0  0
  2  3  1  0  0  0  0
  3  4  1  0  0  0  0
  4  5  1  0  0  0  0
  5  6  1  0  0  0  0
  6  1  1  0  0  0  0
  1  7  1  0  0  0  0
  7  8  1  0  0  0  0
  8  9  1  0  0  0  0
  9 10  1  0  0  0  0
 10 11  1  0  0  0  0
 11  2  1  0  0  0  0
  3 12  1  6  0  0  0
 12 13  1  0  0  0  0
 13 14  1  0  0  0  0
 14 15  1  0  0  0  0
 15  4  1  0  0  0  0
  6 16  1  0  0  0  0
 16  3  1  0  0  0  0
 16 17  1  0  0  0  0
  8 18  2  0  0  0  0
  9 19  1  1  0  0  0
  7 20  1  1  0  0  0
  6 21  1  6  0  0  0
 12 22  1  6  0  0  0
 10 23  1  6  0  0  0
  2 24  1  1  0  0  0
 15 25  1  1  0  0  0
  4 26  1  1  0  0  0
 17 27  1  0  0  0  0
 17 28  1  0  0  0  0
  1 29  1  6  0  0  0
 29  9  1  0  0  0  0
 15 27  1  0  0  0  0
 28 30  1  0  0  0  0
 22 31  1  0  0  0  0
 31 32  1  0  0  0  0
 31 33  2  0  0  0  0
 32 34  2  0  0  0  0
 34 35  1  0  0  0  0
 35 36  2  0  0  0  0
 36 37  1  0  0  0  0
 37 38  2  0  0  0  0
 38 32  1  0  0  0  0
M  END
>  <cdx:fragmentId>
255

$$$$
