81016.cdx
  Mrv1902 05222410232D          

 20 23  0  0  0  0            999 V2000
    7.3627   -8.7267    0.0000 C   0  0  0  0  0  0  0  0  0  0  0  0
    7.3855   -9.5514    0.0000 C   0  0  0  0  0  0  0  0  0  0  0  0
    6.6827   -9.9835    0.0000 C   0  0  0  0  0  0  0  0  0  0  0  0
    6.7055  -10.8082    0.0000 C   0  0  0  0  0  0  0  0  0  0  0  0
    7.4311  -11.2008    0.0000 C   0  0  0  0  0  0  0  0  0  0  0  0
    8.1339  -10.7687    0.0000 C   0  0  0  0  0  0  0  0  0  0  0  0
    8.1111   -9.9440    0.0000 C   0  0  0  0  0  0  0  0  0  0  0  0
    8.8139   -9.5119    0.0000 C   0  0  0  0  0  0  0  0  0  0  0  0
    8.7911   -8.6872    0.0000 C   0  0  0  0  0  0  0  0  0  0  0  0
    9.2868   -8.0265    0.0000 N   0  0  0  0  0  0  0  0  0  0  0  0
    8.8547   -7.3237    0.0000 C   0  0  0  0  0  0  0  0  0  0  0  0
    8.0427   -7.4699    0.0000 C   0  0  0  0  0  0  0  0  0  0  0  0
    7.3172   -7.0773    0.0000 C   0  0  0  0  0  0  0  0  0  0  0  0
    6.6143   -7.5094    0.0000 C   0  0  0  0  0  0  0  0  0  0  0  0
    6.6371   -8.3341    0.0000 C   0  0  0  0  0  0  0  0  0  0  0  0
    8.0655   -8.2946    0.0000 C   0  0  0  0  0  0  0  0  0  0  0  0
    9.2473   -6.5981    0.0000 O   0  0  0  0  0  0  0  0  0  0  0  0
    5.8888   -7.1168    0.0000 O   0  0  0  0  0  0  0  0  0  0  0  0
    5.1704   -7.5224    0.0000 C   0  0  0  0  0  0  0  0  0  0  0  0
    5.9343   -8.7662    0.0000 O   0  0  0  0  0  0  0  0  0  0  0  0
  1  2  1  0  0  0  0
  2  3  2  0  0  0  0
  3  4  1  0  0  0  0
  4  5  2  0  0  0  0
  5  6  1  0  0  0  0
  6  7  2  0  0  0  0
  7  8  1  0  0  0  0
  8  9  2  0  0  0  0
  9 10  1  0  0  0  0
 10 11  1  0  0  0  0
 11 12  1  0  0  0  0
 12 13  2  0  0  0  0
 13 14  1  0  0  0  0
 14 15  2  0  0  0  0
  1 15  1  0  0  0  0
  1 16  2  0  0  0  0
 16  9  1  0  0  0  0
  2  7  1  0  0  0  0
 12 16  1  0  0  0  0
 11 17  2  0  0  0  0
 18 19  1  0  0  0  0
 14 18  1  0  0  0  0
 15 20  1  0  0  0  0
M  END
>  <cdx:groupId>
799

>  <cdx:fragmentId>
739

$$$$
