81028.cdx
  Mrv1902 05222410222D          

 17 18  0  0  0  0            999 V2000
    8.4343   -9.8877    0.0000 C   0  0  0  0  0  0  0  0  0  0  0  0
    8.4300   -9.0627    0.0000 C   0  0  0  0  0  0  0  0  0  0  0  0
    7.7133   -8.6540    0.0000 C   0  0  2  0  0  0  0  0  0  0  0  0
    7.0010   -9.0702    0.0000 C   0  0  1  0  0  0  0  0  0  0  0  0
    7.0054   -9.8952    0.0000 C   0  0  2  0  0  0  0  0  0  0  0  0
    7.7220  -10.3040    0.0000 C   0  0  0  0  0  0  0  0  0  0  0  0
    6.2844   -8.6614    0.0000 C   0  0  0  0  0  0  0  0  0  0  0  0
    5.5721   -9.0777    0.0000 C   0  0  0  0  0  0  0  0  0  0  0  0
    5.5764   -9.9027    0.0000 C   0  0  0  0  0  0  0  0  0  0  0  0
    6.2930  -10.3114    0.0000 C   0  0  0  0  0  0  0  0  0  0  0  0
    7.7263  -11.1290    0.0000 C   0  0  0  0  0  0  0  0  0  0  0  0
    4.8555   -8.6689    0.0000 C   0  0  0  0  0  0  0  0  0  0  0  0
    7.7090   -7.8290    0.0000 C   0  0  0  0  0  0  0  0  0  0  0  0
    6.9924   -7.4202    0.0000 C   0  0  0  0  0  0  0  0  0  0  0  0
    8.4213   -7.4128    0.0000 C   0  0  0  0  0  0  0  0  0  0  0  0
    6.9967   -8.2452    0.0000 H   0  0  0  0  0  0  0  0  0  0  0  0
    7.0097  -10.7202    0.0000 H   0  0  0  0  0  0  0  0  0  0  0  0
  1  2  1  0  0  0  0
  2  3  1  0  0  0  0
  3  4  1  0  0  0  0
  4  5  1  0  0  0  0
  5  6  1  0  0  0  0
  6  1  2  0  0  0  0
  4  7  1  0  0  0  0
  7  8  2  0  0  0  0
  8  9  1  0  0  0  0
  9 10  1  0  0  0  0
 10  5  1  0  0  0  0
  6 11  1  0  0  0  0
  8 12  1  0  0  0  0
  3 13  1  6  0  0  0
 13 14  1  0  0  0  0
 13 15  1  0  0  0  0
  4 16  1  6  0  0  0
  5 17  1  1  0  0  0
M  END
>  <cdx:fragmentId>
5

$$$$
