8103.cdx
  Mrv1902 05222410202D          

  7  6  0  0  0  0            999 V2000
    1.6245   -3.1911    0.0000 C   0  0  0  0  0  0  0  0  0  0  0  0
    2.3390   -3.6036    0.0000 C   0  0  0  0  0  0  0  0  0  0  0  0
    3.0535   -3.1911    0.0000 C   0  0  0  0  0  0  0  0  0  0  0  0
    3.7680   -3.6036    0.0000 C   0  0  0  0  0  0  0  0  0  0  0  0
    4.4824   -3.1911    0.0000 C   0  0  0  0  0  0  0  0  0  0  0  0
    5.1969   -3.6036    0.0000 C   0  0  0  0  0  0  0  0  0  0  0  0
    0.9101   -3.6036    0.0000 O   0  0  0  0  0  0  0  0  0  0  0  0
  1  2  1  0  0  0  0
  2  3  1  0  0  0  0
  3  4  1  0  0  0  0
  4  5  1  0  0  0  0
  5  6  1  0  0  0  0
  1  7  1  0  0  0  0
M  END
>  <cdx:groupId>
22

>  <cdx:fragmentId>
5

$$$$
