8118.cdx
  Mrv1902 05222410262D          

  7  6  0  0  0  0            999 V2000
    6.3283   -3.4235    0.0000 C   0  0  0  0  0  0  0  0  0  0  0  0
    5.6138   -3.0110    0.0000 C   0  0  0  0  0  0  0  0  0  0  0  0
    4.8993   -3.4235    0.0000 C   0  0  0  0  0  0  0  0  0  0  0  0
    7.0427   -3.0110    0.0000 S   0  0  0  0  0  0  0  0  0  0  0  0
    7.7572   -3.4235    0.0000 C   0  0  0  0  0  0  0  0  0  0  0  0
    8.4717   -3.0110    0.0000 C   0  0  0  0  0  0  0  0  0  0  0  0
    9.1862   -3.4235    0.0000 C   0  0  0  0  0  0  0  0  0  0  0  0
  1  2  1  0  0  0  0
  2  3  1  0  0  0  0
  5  6  1  0  0  0  0
  6  7  1  0  0  0  0
  4  5  1  0  0  0  0
  1  4  1  0  0  0  0
M  END
>  <cdx:groupId>
22

>  <cdx:fragmentId>
13

$$$$
