8122.cdx
  Mrv1902 05222410272D          

 22 21  0  0  0  0            999 V2000
    0.1772   -6.6649    0.0000 C   0  0  0  0  0  0  0  0  0  0  0  0
    0.8745   -7.0675    0.0000 C   0  0  0  0  0  0  0  0  0  0  0  0
    1.5718   -6.6649    0.0000 O   0  0  0  0  0  0  0  0  0  0  0  0
    2.2691   -7.8727    0.0000 O   0  0  0  0  0  0  0  0  0  0  0  0
   14.1236   -6.6649    0.0000 C   0  0  0  0  0  0  0  0  0  0  0  0
   13.4263   -7.0675    0.0000 C   0  0  0  0  0  0  0  0  0  0  0  0
   12.7290   -6.6649    0.0000 C   0  0  0  0  0  0  0  0  0  0  0  0
   12.0317   -7.0675    0.0000 C   0  0  0  0  0  0  0  0  0  0  0  0
   11.3343   -6.6649    0.0000 C   0  0  0  0  0  0  0  0  0  0  0  0
   10.6370   -7.0675    0.0000 C   0  0  0  0  0  0  0  0  0  0  0  0
    9.9397   -6.6649    0.0000 C   0  0  0  0  0  0  0  0  0  0  0  0
    9.2424   -7.0675    0.0000 C   0  0  0  0  0  0  0  0  0  0  0  0
    8.5450   -6.6649    0.0000 C   0  0  0  0  0  0  0  0  0  0  0  0
    7.8477   -7.0675    0.0000 C   0  0  0  0  0  0  0  0  0  0  0  0
    7.1504   -6.6649    0.0000 C   0  0  0  0  0  0  0  0  0  0  0  0
    6.4531   -7.0675    0.0000 C   0  0  0  0  0  0  0  0  0  0  0  0
    5.7558   -6.6649    0.0000 C   0  0  0  0  0  0  0  0  0  0  0  0
    5.0584   -7.0675    0.0000 C   0  0  0  0  0  0  0  0  0  0  0  0
    4.3611   -6.6649    0.0000 C   0  0  0  0  0  0  0  0  0  0  0  0
    3.6638   -7.0675    0.0000 C   0  0  0  0  0  0  0  0  0  0  0  0
    2.9665   -6.6649    0.0000 C   0  0  0  0  0  0  0  0  0  0  0  0
    2.2691   -7.0675    0.0000 C   0  0  0  0  0  0  0  0  0  0  0  0
  3  2  1  0  0  0  0
  2  1  1  0  0  0  0
 22  3  1  0  0  0  0
 22  4  2  0  0  0  0
  6  5  1  0  0  0  0
  7  6  1  0  0  0  0
  8  7  1  0  0  0  0
  9  8  1  0  0  0  0
 10  9  1  0  0  0  0
 11 10  1  0  0  0  0
 12 11  1  0  0  0  0
 13 12  1  0  0  0  0
 14 13  1  0  0  0  0
 15 14  1  0  0  0  0
 16 15  1  0  0  0  0
 17 16  1  0  0  0  0
 18 17  1  0  0  0  0
 19 18  1  0  0  0  0
 20 19  1  0  0  0  0
 21 20  1  0  0  0  0
 22 21  1  0  0  0  0
M  END
>  <cdx:fragmentId>
5

$$$$
