81221.cdx
  Mrv1902 05222410252D          

 10 10  0  0  0  0            999 V2000
    5.6527   -5.6520    0.0000 C   0  0  0  0  0  0  0  0  0  0  0  0
    6.3672   -6.0645    0.0000 O   0  0  0  0  0  0  0  0  0  0  0  0
    7.0760   -5.6423    0.0000 C   0  0  0  0  0  0  0  0  0  0  0  0
    7.7960   -6.0451    0.0000 C   0  0  0  0  0  0  0  0  0  0  0  0
    8.5048   -5.6229    0.0000 C   0  0  0  0  0  0  0  0  0  0  0  0
    8.4936   -4.7980    0.0000 C   0  0  0  0  0  0  0  0  0  0  0  0
    7.7735   -4.3952    0.0000 C   0  0  0  0  0  0  0  0  0  0  0  0
    7.0648   -4.8174    0.0000 C   0  0  0  0  0  0  0  0  0  0  0  0
    9.2024   -4.3758    0.0000 C   0  0  0  0  0  0  0  0  0  0  0  0
    7.8072   -6.8700    0.0000 C   0  0  0  0  0  0  0  0  0  0  0  0
  1  2  1  0  0  0  0
  2  3  1  0  0  0  0
  3  4  1  0  0  0  0
  4  5  2  0  0  0  0
  5  6  1  0  0  0  0
  6  7  2  0  0  0  0
  7  8  1  0  0  0  0
  3  8  2  0  0  0  0
  6  9  1  0  0  0  0
  4 10  1  0  0  0  0
M  END
>  <cdx:fragmentId>
5

$$$$
