8129.cdx
  Mrv1902 05222410202D          

  8  7  0  0  0  0            999 V2000
    5.3244   -4.7572    0.0000 C   0  0  0  0  0  0  0  0  0  0  0  0
    4.6100   -4.3447    0.0000 C   0  0  0  0  0  0  0  0  0  0  0  0
    3.8955   -4.7572    0.0000 C   0  0  0  0  0  0  0  0  0  0  0  0
    3.1810   -4.3447    0.0000 C   0  0  0  0  0  0  0  0  0  0  0  0
    2.4666   -4.7572    0.0000 C   0  0  0  0  0  0  0  0  0  0  0  0
    1.7521   -4.3447    0.0000 C   0  0  0  0  0  0  0  0  0  0  0  0
    1.0376   -4.7572    0.0000 C   0  0  0  0  0  0  0  0  0  0  0  0
    6.0389   -4.3447    0.0000 O   0  0  0  0  0  0  0  0  0  0  0  0
  1  2  1  0  0  0  0
  2  3  1  0  0  0  0
  3  4  1  0  0  0  0
  4  5  1  0  0  0  0
  5  6  1  0  0  0  0
  6  7  1  0  0  0  0
  1  8  1  0  0  0  0
M  END
>  <cdx:groupId>
25

>  <cdx:fragmentId>
5

$$$$
