8130.cdx
  Mrv1902 05222410262D          

  8  7  0  0  0  0            999 V2000
    8.6674   -3.5412    0.0000 C   0  0  0  0  0  0  0  0  0  0  0  0
    7.9529   -3.1287    0.0000 C   0  0  0  0  0  0  0  0  0  0  0  0
    7.2384   -3.5412    0.0000 C   0  0  0  0  0  0  0  0  0  0  0  0
    6.5240   -3.1287    0.0000 C   0  0  0  0  0  0  0  0  0  0  0  0
    5.8095   -3.5412    0.0000 C   0  0  0  0  0  0  0  0  0  0  0  0
    5.0950   -3.1287    0.0000 C   0  0  0  0  0  0  0  0  0  0  0  0
    4.3805   -3.5412    0.0000 C   0  0  0  0  0  0  0  0  0  0  0  0
    9.3818   -3.1287    0.0000 O   0  0  0  0  0  0  0  0  0  0  0  0
  1  2  1  0  0  0  0
  2  3  1  0  0  0  0
  3  4  1  0  0  0  0
  4  5  1  0  0  0  0
  5  6  1  0  0  0  0
  6  7  1  0  0  0  0
  1  8  2  0  0  0  0
M  END
>  <cdx:fragmentId>
5

$$$$
