813266.cdx
  Mrv1902 05222410272D          

 39 42  0  0  0  0            999 V2000
   10.3713   -7.1356    0.0000 C   0  0  0  0  0  0  0  0  0  0  0  0
   10.1164   -7.9203    0.0000 C   0  0  0  0  0  0  0  0  0  0  0  0
    9.3094   -8.0918    0.0000 C   0  0  2  0  0  0  0  0  0  0  0  0
    9.0545   -8.8764    0.0000 C   0  0  0  0  0  0  0  0  0  0  0  0
    8.2475   -9.0479    0.0000 C   0  0  1  0  0  0  0  0  0  0  0  0
    7.6954   -8.4349    0.0000 C   0  0  0  0  0  0  0  0  0  0  0  0
   11.4332   -6.1795    0.0000 O   0  0  0  0  0  0  0  0  0  0  0  0
    9.8193   -6.5226    0.0000 C   0  0  0  0  0  0  0  0  0  0  0  0
    4.3500  -10.9125    0.0000 C   0  0  0  0  0  0  0  0  0  0  0  0
    3.6356  -11.3250    0.0000 C   0  0  0  0  0  0  0  0  0  0  0  0
    3.6356  -12.1500    0.0000 C   0  0  0  0  0  0  0  0  0  0  0  0
    4.3500  -12.5625    0.0000 C   0  0  0  0  0  0  0  0  0  0  0  0
    5.0645  -12.1500    0.0000 C   0  0  2  0  0  0  0  0  0  0  0  0
    5.7790  -12.5625    0.0000 C   0  0  0  0  0  0  0  0  0  0  0  0
    6.4935  -12.1500    0.0000 C   0  0  1  0  0  0  0  0  0  0  0  0
    6.4935  -11.3250    0.0000 C   0  0  0  0  0  0  0  0  0  0  0  0
    7.2079  -10.9125    0.0000 C   0  0  2  0  0  0  0  0  0  0  0  0
    7.9925  -11.1674    0.0000 C   0  0  0  0  0  0  0  0  0  0  0  0
    8.4775  -10.5000    0.0000 C   0  0  0  0  0  0  0  0  0  0  0  0
    7.9925   -9.8326    0.0000 C   0  0  1  0  0  0  0  0  0  0  0  0
    7.2079  -10.0875    0.0000 C   0  0  1  0  0  0  0  0  0  0  0  0
    6.4935   -9.6750    0.0000 C   0  0  0  0  0  0  0  0  0  0  0  0
    5.7790  -10.0875    0.0000 C   0  0  0  0  0  0  0  0  0  0  0  0
    5.7790  -10.9125    0.0000 C   0  0  0  0  0  0  0  0  0  0  0  0
    5.0645  -11.3250    0.0000 C   0  0  1  0  0  0  0  0  0  0  0  0
    8.2475  -11.9521    0.0000 O   0  0  0  0  0  0  0  0  0  0  0  0
    5.0645   -9.6750    0.0000 O   0  0  0  0  0  0  0  0  0  0  0  0
    2.9211  -12.5625    0.0000 O   0  0  0  0  0  0  0  0  0  0  0  0
    7.2079  -11.7375    0.0000 C   0  0  0  0  0  0  0  0  0  0  0  0
    7.2079   -9.2625    0.0000 C   0  0  0  0  0  0  0  0  0  0  0  0
    5.0645  -10.5000    0.0000 C   0  0  0  0  0  0  0  0  0  0  0  0
    4.7625  -13.2770    0.0000 C   0  0  0  0  0  0  0  0  0  0  0  0
    3.9375  -13.2770    0.0000 C   0  0  0  0  0  0  0  0  0  0  0  0
    7.2079  -12.5625    0.0000 O   0  0  0  0  0  0  0  0  0  0  0  0
    8.7574   -7.4787    0.0000 O   0  0  0  0  0  0  0  0  0  0  0  0
    5.0645  -12.9750    0.0000 H   0  0  0  0  0  0  0  0  0  0  0  0
   11.7303   -7.5772    0.0000 O   0  0  0  0  0  0  0  0  0  0  0  0
   11.1783   -6.9641    0.0000 C   0  0  0  0  0  0  0  0  0  0  0  0
    8.7772   -9.5776    0.0000 H   0  0  0  0  0  0  0  0  0  0  0  0
 38  7  1  0  0  0  0
 38 37  2  0  0  0  0
 38  1  1  0  0  0  0
  1  2  2  0  0  0  0
  2  3  1  0  0  0  0
  3  4  1  0  0  0  0
  4  5  1  0  0  0  0
  5  6  1  6  0  0  0
  1  8  1  0  0  0  0
  9 10  1  0  0  0  0
 10 11  1  0  0  0  0
 11 12  1  0  0  0  0
 12 13  1  0  0  0  0
 13 14  1  0  0  0  0
 14 15  1  0  0  0  0
 15 16  1  0  0  0  0
 16 17  1  0  0  0  0
 17 18  1  0  0  0  0
 18 19  1  0  0  0  0
 20 19  1  0  0  0  0
 20 21  1  0  0  0  0
 17 21  1  0  0  0  0
 21 22  1  0  0  0  0
 22 23  1  0  0  0  0
 23 24  1  0  0  0  0
 16 24  2  0  0  0  0
 24 25  1  0  0  0  0
 13 25  1  0  0  0  0
  9 25  1  0  0  0  0
 18 26  2  0  0  0  0
 23 27  2  0  0  0  0
 11 28  2  0  0  0  0
 17 29  1  6  0  0  0
 21 30  1  1  0  0  0
 25 31  1  1  0  0  0
 12 32  1  0  0  0  0
 12 33  1  0  0  0  0
 15 34  1  1  0  0  0
  5 20  1  0  0  0  0
  3 35  1  6  0  0  0
 13 36  1  6  0  0  0
 20 39  1  6  0  0  0
M  END
>  <cdx:groupId>
2617

>  <cdx:fragmentId>
2523

$$$$
