8137.cdx
  Mrv1902 05222410272D          

 25 28  0  0  0  0            999 V2000
    7.6210   -8.4410    0.0000 N   0  0  0  0  0  0  0  0  0  0  0  0
    8.3370   -8.8509    0.0000 C   0  0  0  0  0  0  0  0  0  0  0  0
    9.0499   -8.4358    0.0000 C   0  0  0  0  0  0  0  0  0  0  0  0
    9.0469   -7.6108    0.0000 C   0  0  0  0  0  0  0  0  0  0  0  0
    8.3310   -7.2009    0.0000 C   0  0  0  0  0  0  0  0  0  0  0  0
    7.6180   -7.6160    0.0000 C   0  0  0  0  0  0  0  0  0  0  0  0
    9.7599   -7.1958    0.0000 C   0  0  0  0  0  0  0  0  0  0  0  0
    9.7569   -6.3708    0.0000 C   0  0  0  0  0  0  0  0  0  0  0  0
    9.0410   -5.9608    0.0000 C   0  0  0  0  0  0  0  0  0  0  0  0
    8.3280   -6.3759    0.0000 C   0  0  0  0  0  0  0  0  0  0  0  0
   10.3680   -5.8165    0.0000 O   0  0  0  0  0  0  0  0  0  0  0  0
   10.0297   -5.0641    0.0000 C   0  0  0  0  0  0  0  0  0  0  0  0
    9.2096   -5.1533    0.0000 O   0  0  0  0  0  0  0  0  0  0  0  0
    6.9021   -7.2061    0.0000 C   0  0  0  0  0  0  0  0  0  0  0  0
    6.1891   -7.6212    0.0000 C   0  0  0  0  0  0  0  0  0  0  0  0
    6.1921   -8.4462    0.0000 C   0  0  0  0  0  0  0  0  0  0  0  0
    6.9080   -8.8561    0.0000 O   0  0  0  0  0  0  0  0  0  0  0  0
    5.4731   -7.2113    0.0000 C   0  0  0  0  0  0  0  0  0  0  0  0
    4.7602   -7.6264    0.0000 C   0  0  0  0  0  0  0  0  0  0  0  0
    4.7631   -8.4513    0.0000 C   0  0  0  0  0  0  0  0  0  0  0  0
    5.4791   -8.8613    0.0000 C   0  0  0  0  0  0  0  0  0  0  0  0
    4.0502   -8.8664    0.0000 O   0  0  0  0  0  0  0  0  0  0  0  0
    4.7691  -10.1013    0.0000 C   0  0  0  0  0  0  0  0  0  0  0  0
    5.4821   -9.6863    0.0000 O   0  0  0  0  0  0  0  0  0  0  0  0
    3.3342   -8.4565    0.0000 C   0  0  0  0  0  0  0  0  0  0  0  0
  1  2  1  0  0  0  0
  2  3  2  0  0  0  0
  3  4  1  0  0  0  0
  4  5  1  0  0  0  0
  5  6  1  0  0  0  0
  6  1  2  0  0  0  0
  4  7  2  0  0  0  0
  7  8  1  0  0  0  0
  8  9  2  0  0  0  0
  9 10  1  0  0  0  0
 10  5  2  0  0  0  0
  8 11  1  0  0  0  0
 11 12  1  0  0  0  0
 12 13  1  0  0  0  0
 13  9  1  0  0  0  0
  6 14  1  0  0  0  0
 14 15  1  0  0  0  0
 15 16  1  0  0  0  0
 16 17  1  0  0  0  0
 15 18  2  0  0  0  0
 18 19  1  0  0  0  0
 19 20  2  0  0  0  0
 20 21  1  0  0  0  0
 21 16  2  0  0  0  0
 20 22  1  0  0  0  0
 23 24  1  0  0  0  0
 24 21  1  0  0  0  0
 22 25  1  0  0  0  0
M  END
>  <cdx:fragmentId>
5

$$$$
