8138.cdx
  Mrv1902 05222410182D          

 14 13  0  0  0  0            999 V2000
    3.1382   -6.8469    0.0000 C   0  0  0  0  0  0  0  0  0  0  0  0
    3.8526   -7.2594    0.0000 O   0  0  0  0  0  0  0  0  0  0  0  0
    4.5671   -6.0219    0.0000 O   0  0  0  0  0  0  0  0  0  0  0  0
   11.7118   -6.8469    0.0000 C   0  0  0  0  0  0  0  0  0  0  0  0
   10.9974   -7.2594    0.0000 C   0  0  0  0  0  0  0  0  0  0  0  0
   10.2829   -6.8469    0.0000 C   0  0  0  0  0  0  0  0  0  0  0  0
    9.5684   -7.2594    0.0000 C   0  0  0  0  0  0  0  0  0  0  0  0
    8.8539   -6.8469    0.0000 C   0  0  0  0  0  0  0  0  0  0  0  0
    8.1395   -7.2594    0.0000 C   0  0  0  0  0  0  0  0  0  0  0  0
    7.4250   -6.8469    0.0000 C   0  0  0  0  0  0  0  0  0  0  0  0
    6.7105   -7.2594    0.0000 C   0  0  0  0  0  0  0  0  0  0  0  0
    5.9961   -6.8469    0.0000 C   0  0  0  0  0  0  0  0  0  0  0  0
    5.2816   -7.2594    0.0000 C   0  0  0  0  0  0  0  0  0  0  0  0
    4.5671   -6.8469    0.0000 C   0  0  0  0  0  0  0  0  0  0  0  0
  2  1  1  0  0  0  0
 14  2  1  0  0  0  0
 14  3  2  0  0  0  0
  5  4  2  0  0  0  0
  6  5  1  0  0  0  0
  7  6  1  0  0  0  0
  8  7  1  0  0  0  0
  9  8  1  0  0  0  0
 10  9  1  0  0  0  0
 11 10  1  0  0  0  0
 12 11  1  0  0  0  0
 13 12  1  0  0  0  0
 14 13  1  0  0  0  0
M  END
>  <cdx:groupId>
43

>  <cdx:fragmentId>
5

$$$$
