8139.cdx
  Mrv1902 05222410182D          

 15 14  0  0  0  0            999 V2000
    2.0591   -3.2046    0.0000 C   0  0  0  0  0  0  0  0  0  0  0  0
    2.7735   -3.6171    0.0000 O   0  0  0  0  0  0  0  0  0  0  0  0
    3.4880   -2.3796    0.0000 O   0  0  0  0  0  0  0  0  0  0  0  0
   11.3472   -3.6171    0.0000 C   0  0  0  0  0  0  0  0  0  0  0  0
   10.6327   -3.2046    0.0000 C   0  0  0  0  0  0  0  0  0  0  0  0
    9.9182   -3.6171    0.0000 C   0  0  0  0  0  0  0  0  0  0  0  0
    9.2038   -3.2046    0.0000 C   0  0  0  0  0  0  0  0  0  0  0  0
    8.4893   -3.6171    0.0000 C   0  0  0  0  0  0  0  0  0  0  0  0
    7.7748   -3.2046    0.0000 C   0  0  0  0  0  0  0  0  0  0  0  0
    7.0604   -3.6171    0.0000 C   0  0  0  0  0  0  0  0  0  0  0  0
    6.3459   -3.2046    0.0000 C   0  0  0  0  0  0  0  0  0  0  0  0
    5.6314   -3.6171    0.0000 C   0  0  0  0  0  0  0  0  0  0  0  0
    4.9169   -3.2046    0.0000 C   0  0  0  0  0  0  0  0  0  0  0  0
    4.2025   -3.6171    0.0000 C   0  0  0  0  0  0  0  0  0  0  0  0
    3.4880   -3.2046    0.0000 C   0  0  0  0  0  0  0  0  0  0  0  0
  2  1  1  0  0  0  0
 15  2  1  0  0  0  0
 15  3  2  0  0  0  0
  5  4  1  0  0  0  0
  6  5  1  0  0  0  0
  7  6  1  0  0  0  0
  8  7  1  0  0  0  0
  9  8  1  0  0  0  0
 10  9  1  0  0  0  0
 11 10  1  0  0  0  0
 12 11  1  0  0  0  0
 13 12  1  0  0  0  0
 14 13  1  0  0  0  0
 15 14  1  0  0  0  0
M  END
>  <cdx:groupId>
46

>  <cdx:fragmentId>
5

$$$$
