10813930.cdx
  Mrv1902 05222410262D          

 36 41  0  0  0  0            999 V2000
    5.8855  -13.0845    0.0000 C   0  0  0  0  0  0  0  0  0  0  0  0
    5.8855  -13.9095    0.0000 C   0  0  0  0  0  0  0  0  0  0  0  0
    6.6000  -14.3220    0.0000 C   0  0  1  0  0  0  0  0  0  0  0  0
    7.3145  -13.9095    0.0000 C   0  0  2  0  0  0  0  0  0  0  0  0
    7.3145  -13.0845    0.0000 C   0  0  0  0  0  0  0  0  0  0  0  0
    6.6000  -12.6720    0.0000 C   0  0  0  0  0  0  0  0  0  0  0  0
    6.6000  -15.1470    0.0000 C   0  0  0  0  0  0  0  0  0  0  0  0
    7.3145  -15.5595    0.0000 C   0  0  1  0  0  0  0  0  0  0  0  0
    8.0289  -15.1470    0.0000 C   0  0  0  0  0  0  0  0  0  0  0  0
    8.0289  -14.3220    0.0000 C   0  0  0  0  0  0  0  0  0  0  0  0
    7.4860  -16.3665    0.0000 O   0  0  0  0  0  0  0  0  0  0  0  0
    8.3065  -16.4527    0.0000 C   0  0  0  0  0  0  0  0  0  0  0  0
    8.6420  -15.6990    0.0000 C   0  0  0  0  0  0  0  0  0  0  0  0
    7.6435  -16.1876    0.0000 O   0  0  0  0  0  0  0  0  0  0  0  0
    6.8230  -16.1013    0.0000 C   0  0  2  0  0  0  0  0  0  0  0  0
    6.4874  -16.8550    0.0000 C   0  0  0  0  0  0  0  0  0  0  0  0
    7.1005  -17.4070    0.0000 C   0  0  0  0  0  0  0  0  0  0  0  0
    7.8150  -16.9945    0.0000 C   0  0  0  0  0  0  0  0  0  0  0  0
    6.3381  -15.4339    0.0000 C   0  0  0  0  0  0  0  0  0  0  0  0
    5.5176  -15.5201    0.0000 C   0  0  1  0  0  0  0  0  0  0  0  0
    5.1820  -16.2738    0.0000 C   0  0  2  0  0  0  0  0  0  0  0  0
    5.6669  -16.9412    0.0000 C   0  0  0  0  0  0  0  0  0  0  0  0
    5.0327  -14.8527    0.0000 C   0  0  0  0  0  0  0  0  0  0  0  0
    4.2122  -14.9389    0.0000 C   0  0  0  0  0  0  0  0  0  0  0  0
    3.8766  -15.6926    0.0000 C   0  0  0  0  0  0  0  0  0  0  0  0
    4.3615  -16.3600    0.0000 C   0  0  0  0  0  0  0  0  0  0  0  0
    5.8031  -14.5355    0.0000 C   0  0  0  0  0  0  0  0  0  0  0  0
    8.0289  -13.4970    0.0000 H   0  0  0  0  0  0  0  0  0  0  0  0
    8.0289  -12.6720    0.0000 C   0  0  0  0  0  0  0  0  0  0  0  0
    8.7190  -17.1672    0.0000 O   0  0  0  0  0  0  0  0  0  0  0  0
    8.5687  -17.3301    0.0000 O   0  0  0  0  0  0  0  0  0  0  0  0
    4.0260  -17.1137    0.0000 C   0  0  0  0  0  0  0  0  0  0  0  0
    4.7695  -16.9883    0.0000 H   0  0  0  0  0  0  0  0  0  0  0  0
    5.5176  -14.6951    0.0000 C   0  0  0  0  0  0  0  0  0  0  0  0
    7.1005  -18.2320    0.0000 C   0  0  0  0  0  0  0  0  0  0  0  0
    9.4670  -15.6990    0.0000 C   0  0  0  0  0  0  0  0  0  0  0  0
  1  2  1  0  0  0  0
  2  3  1  0  0  0  0
  3  4  1  0  0  0  0
  4  5  1  0  0  0  0
  5  6  1  0  0  0  0
  6  1  1  0  0  0  0
  3  7  1  0  0  0  0
  7  8  1  0  0  0  0
  8  9  1  0  0  0  0
  9 10  1  0  0  0  0
 10  4  1  0  0  0  0
  8 11  1  1  0  0  0
 11 12  1  0  0  0  0
 12 13  1  0  0  0  0
 13  9  2  0  0  0  0
 15 14  1  1  0  0  0
 15 16  1  0  0  0  0
 16 17  2  0  0  0  0
 17 18  1  0  0  0  0
 18 14  1  0  0  0  0
 15 19  1  0  0  0  0
 19 20  1  0  0  0  0
 20 21  1  0  0  0  0
 21 22  1  0  0  0  0
 22 16  1  0  0  0  0
 20 23  1  0  0  0  0
 23 24  1  0  0  0  0
 24 25  1  0  0  0  0
 25 26  1  0  0  0  0
 26 21  1  0  0  0  0
  3 27  1  6  0  0  0
  4 28  1  1  0  0  0
  5 29  2  0  0  0  0
 12 30  2  0  0  0  0
 18 31  2  0  0  0  0
 26 32  2  0  0  0  0
 21 33  1  1  0  0  0
 20 34  1  6  0  0  0
 17 35  1  0  0  0  0
 13 36  1  0  0  0  0
  8 15  1  0  0  0  0
M  END
>  <cdx:fragmentId>
46766

$$$$
