8140.cdx
  Mrv1902 05222410242D          

 26 29  0  0  0  0            999 V2000
    6.4589   -5.8575    0.0000 C   0  0  0  0  0  0  0  0  0  0  0  0
    6.4589   -6.6825    0.0000 C   0  0  0  0  0  0  0  0  0  0  0  0
    7.1734   -7.0950    0.0000 C   0  0  0  0  0  0  0  0  0  0  0  0
    7.8878   -6.6825    0.0000 C   0  0  0  0  0  0  0  0  0  0  0  0
    7.8878   -5.8575    0.0000 C   0  0  0  0  0  0  0  0  0  0  0  0
    7.1734   -5.4450    0.0000 C   0  0  0  0  0  0  0  0  0  0  0  0
    8.6023   -7.0950    0.0000 C   0  0  0  0  0  0  0  0  0  0  0  0
    9.3168   -6.6825    0.0000 C   0  0  0  0  0  0  0  0  0  0  0  0
    9.3168   -5.8575    0.0000 C   0  0  0  0  0  0  0  0  0  0  0  0
    8.6023   -5.4450    0.0000 O   0  0  0  0  0  0  0  0  0  0  0  0
    5.6743   -5.6026    0.0000 O   0  0  0  0  0  0  0  0  0  0  0  0
    5.1894   -6.2700    0.0000 C   0  0  0  0  0  0  0  0  0  0  0  0
    5.6743   -6.9374    0.0000 C   0  0  0  0  0  0  0  0  0  0  0  0
    7.1734   -7.9200    0.0000 O   0  0  0  0  0  0  0  0  0  0  0  0
   10.0313   -5.4450    0.0000 O   0  0  0  0  0  0  0  0  0  0  0  0
    6.4589   -8.3325    0.0000 C   0  0  2  0  0  0  0  0  0  0  0  0
    5.7444   -7.9200    0.0000 O   0  0  0  0  0  0  0  0  0  0  0  0
    5.0300   -8.3325    0.0000 C   0  0  1  0  0  0  0  0  0  0  0  0
    5.0300   -9.1575    0.0000 C   0  0  2  0  0  0  0  0  0  0  0  0
    5.7444   -9.5700    0.0000 C   0  0  1  0  0  0  0  0  0  0  0  0
    6.4589   -9.1575    0.0000 C   0  0  1  0  0  0  0  0  0  0  0  0
    4.3155   -7.9200    0.0000 C   0  0  0  0  0  0  0  0  0  0  0  0
    5.7444  -10.3950    0.0000 O   0  0  0  0  0  0  0  0  0  0  0  0
    7.1734   -9.5700    0.0000 O   0  0  0  0  0  0  0  0  0  0  0  0
    4.3155   -9.5700    0.0000 O   0  0  0  0  0  0  0  0  0  0  0  0
    3.6010   -8.3325    0.0000 O   0  0  0  0  0  0  0  0  0  0  0  0
  1  2  2  0  0  0  0
  2  3  1  0  0  0  0
  3  4  2  0  0  0  0
  4  5  1  0  0  0  0
  5  6  2  0  0  0  0
  6  1  1  0  0  0  0
  4  7  1  0  0  0  0
  7  8  2  0  0  0  0
  8  9  1  0  0  0  0
  9 10  1  0  0  0  0
 10  5  1  0  0  0  0
  1 11  1  0  0  0  0
 11 12  1  0  0  0  0
 12 13  2  0  0  0  0
 13  2  1  0  0  0  0
  3 14  1  0  0  0  0
  9 15  2  0  0  0  0
 16 14  1  1  0  0  0
 16 17  1  0  0  0  0
 17 18  1  0  0  0  0
 18 19  1  0  0  0  0
 19 20  1  0  0  0  0
 20 21  1  0  0  0  0
 21 16  1  0  0  0  0
 18 22  1  1  0  0  0
 20 23  1  1  0  0  0
 21 24  1  6  0  0  0
 19 25  1  6  0  0  0
 22 26  1  0  0  0  0
M  END
>  <cdx:fragmentId>
5

$$$$
