8141.cdx
  Mrv1902 05222410252D          

  9  8  0  0  0  0            999 V2000
    1.5724   -4.8262    0.0000 C   0  0  0  0  0  0  0  0  0  0  0  0
    2.2868   -4.4137    0.0000 C   0  0  0  0  0  0  0  0  0  0  0  0
    3.0013   -4.8262    0.0000 C   0  0  0  0  0  0  0  0  0  0  0  0
    3.7158   -4.4138    0.0000 C   0  0  0  0  0  0  0  0  0  0  0  0
    4.4302   -4.8263    0.0000 C   0  0  0  0  0  0  0  0  0  0  0  0
    5.1447   -4.4138    0.0000 C   0  0  0  0  0  0  0  0  0  0  0  0
    5.8592   -4.8263    0.0000 C   0  0  0  0  0  0  0  0  0  0  0  0
    6.5737   -4.4138    0.0000 C   0  0  0  0  0  0  0  0  0  0  0  0
    7.2881   -4.8263    0.0000 C   0  0  0  0  0  0  0  0  0  0  0  0
  1  2  1  0  0  0  0
  2  3  1  0  0  0  0
  3  4  1  0  0  0  0
  4  5  1  0  0  0  0
  5  6  1  0  0  0  0
  6  7  1  0  0  0  0
  7  8  1  0  0  0  0
  8  9  1  0  0  0  0
M  END
>  <cdx:groupId>
28

>  <cdx:fragmentId>
5

$$$$
