8146.cdx
  Mrv1902 05222410232D          

  9  8  0  0  0  0            999 V2000
    5.5782   -3.7339    0.0000 C   0  0  0  0  0  0  0  0  0  0  0  0
    6.2927   -4.1464    0.0000 C   0  0  0  0  0  0  0  0  0  0  0  0
    7.0071   -3.7339    0.0000 O   0  0  0  0  0  0  0  0  0  0  0  0
    7.7216   -4.1464    0.0000 C   0  0  0  0  0  0  0  0  0  0  0  0
    8.4361   -3.7339    0.0000 C   0  0  0  0  0  0  0  0  0  0  0  0
    9.1506   -4.1464    0.0000 O   0  0  0  0  0  0  0  0  0  0  0  0
    9.8650   -3.7339    0.0000 C   0  0  0  0  0  0  0  0  0  0  0  0
   10.5795   -4.1464    0.0000 C   0  0  0  0  0  0  0  0  0  0  0  0
    4.8637   -4.1464    0.0000 O   0  0  0  0  0  0  0  0  0  0  0  0
  1  2  1  0  0  0  0
  4  5  1  0  0  0  0
  3  4  1  0  0  0  0
  7  8  1  0  0  0  0
  6  7  1  0  0  0  0
  5  6  1  0  0  0  0
  2  3  1  0  0  0  0
  1  9  1  0  0  0  0
M  END
>  <cdx:fragmentId>
17

$$$$
