815293.cdx
  Mrv1902 05222410212D          

  7  6  0  0  0  0            999 V2000
    6.2238   -7.0567    0.0000 C   0  0  0  0  0  0  0  0  0  0  0  0
    6.9328   -6.6348    0.0000 C   0  0  0  0  0  0  0  0  0  0  0  0
    7.6527   -7.0377    0.0000 C   0  0  0  0  0  0  0  0  0  0  0  0
    8.3616   -6.6158    0.0000 C   0  0  0  0  0  0  0  0  0  0  0  0
    9.0815   -7.0188    0.0000 C   0  0  0  0  0  0  0  0  0  0  0  0
    6.2348   -7.8816    0.0000 O   0  0  0  0  0  0  0  0  0  0  0  0
    5.5040   -6.6537    0.0000 N   0  0  0  0  0  0  0  0  0  0  0  0
  1  2  1  0  0  0  0
  2  3  1  0  0  0  0
  3  4  1  0  0  0  0
  4  5  2  0  0  0  0
  1  6  2  0  0  0  0
  1  7  1  0  0  0  0
M  END
>  <cdx:fragmentId>
82057

$$$$
