10815442.cdx
  Mrv1902 05222410212D          

 37 42  0  0  0  0            999 V2000
    6.4573   -7.5239    0.0000 C   0  0  0  0  0  0  0  0  0  0  0  0
    5.6726   -7.2690    0.0000 C   0  0  0  0  0  0  0  0  0  0  0  0
    4.9582   -7.6815    0.0000 C   0  0  0  0  0  0  0  0  0  0  0  0
    4.2437   -7.2690    0.0000 C   0  0  0  0  0  0  0  0  0  0  0  0
    3.5292   -7.6815    0.0000 C   0  0  0  0  0  0  0  0  0  0  0  0
    2.8148   -7.2690    0.0000 C   0  0  0  0  0  0  0  0  0  0  0  0
    2.8148   -6.4440    0.0000 C   0  0  0  0  0  0  0  0  0  0  0  0
    3.5292   -6.0315    0.0000 C   0  0  0  0  0  0  0  0  0  0  0  0
    4.2437   -6.4440    0.0000 C   0  0  0  0  0  0  0  0  0  0  0  0
    4.9582   -6.0315    0.0000 C   0  0  0  0  0  0  0  0  0  0  0  0
    5.6726   -6.4440    0.0000 C   0  0  0  0  0  0  0  0  0  0  0  0
    6.4573   -6.1891    0.0000 O   0  0  0  0  0  0  0  0  0  0  0  0
    6.9422   -6.8565    0.0000 C   0  0  0  0  0  0  0  0  0  0  0  0
    7.7627   -6.9427    0.0000 C   0  0  0  0  0  0  0  0  0  0  0  0
    8.2476   -6.2753    0.0000 C   0  0  0  0  0  0  0  0  0  0  0  0
    9.0681   -6.3615    0.0000 C   0  0  0  0  0  0  0  0  0  0  0  0
    9.4036   -7.1152    0.0000 C   0  0  0  0  0  0  0  0  0  0  0  0
    8.9187   -7.7827    0.0000 C   0  0  0  0  0  0  0  0  0  0  0  0
    8.0982   -7.6964    0.0000 C   0  0  0  0  0  0  0  0  0  0  0  0
    7.6133   -8.3639    0.0000 C   0  0  0  0  0  0  0  0  0  0  0  0
    6.7928   -8.2776    0.0000 C   0  0  0  0  0  0  0  0  0  0  0  0
    4.9582   -8.5065    0.0000 O   0  0  0  0  0  0  0  0  0  0  0  0
    4.9582   -5.2065    0.0000 O   0  0  0  0  0  0  0  0  0  0  0  0
    7.9489   -9.1175    0.0000 O   0  0  0  0  0  0  0  0  0  0  0  0
    9.2543   -8.5363    0.0000 O   0  0  0  0  0  0  0  0  0  0  0  0
    8.7693   -9.2038    0.0000 C   0  0  2  0  0  0  0  0  0  0  0  0
    9.1049   -9.9574    0.0000 C   0  0  1  0  0  0  0  0  0  0  0  0
    9.9254  -10.0437    0.0000 C   0  0  2  0  0  0  0  0  0  0  0  0
   10.4103   -9.3762    0.0000 C   0  0  1  0  0  0  0  0  0  0  0  0
   10.0747   -8.6226    0.0000 C   0  0  1  0  0  0  0  0  0  0  0  0
   10.5597   -7.9551    0.0000 C   0  0  0  0  0  0  0  0  0  0  0  0
   11.3801   -8.0414    0.0000 O   0  0  0  0  0  0  0  0  0  0  0  0
   11.2308   -9.4625    0.0000 O   0  0  0  0  0  0  0  0  0  0  0  0
   10.2609  -10.7974    0.0000 O   0  0  0  0  0  0  0  0  0  0  0  0
    8.6200  -10.6249    0.0000 O   0  0  0  0  0  0  0  0  0  0  0  0
    6.3079   -8.9451    0.0000 O   0  0  0  0  0  0  0  0  0  0  0  0
    5.4874   -8.8588    0.0000 C   0  0  0  0  0  0  0  0  0  0  0  0
  1  2  1  0  0  0  0
  2  3  1  0  0  0  0
  3  4  1  0  0  0  0
  4  5  2  0  0  0  0
  5  6  1  0  0  0  0
  6  7  2  0  0  0  0
  7  8  1  0  0  0  0
  8  9  2  0  0  0  0
  9 10  1  0  0  0  0
 10 11  1  0  0  0  0
 11 12  1  0  0  0  0
 12 13  1  0  0  0  0
 13 14  1  0  0  0  0
 14 15  2  0  0  0  0
 15 16  1  0  0  0  0
 16 17  2  0  0  0  0
 17 18  1  0  0  0  0
 18 19  2  0  0  0  0
 19 20  1  0  0  0  0
 20 21  2  0  0  0  0
  1 21  1  0  0  0  0
  1 13  2  0  0  0  0
 14 19  1  0  0  0  0
  2 11  2  0  0  0  0
  4  9  1  0  0  0  0
  3 22  2  0  0  0  0
 10 23  2  0  0  0  0
 25 26  1  0  0  0  0
 26 27  1  0  0  0  0
 27 28  1  0  0  0  0
 28 29  1  0  0  0  0
 29 30  1  0  0  0  0
 25 30  1  0  0  0  0
 31 32  1  0  0  0  0
 30 31  1  6  0  0  0
 29 33  1  1  0  0  0
 28 34  1  6  0  0  0
 27 35  1  1  0  0  0
 26 24  1  6  0  0  0
 20 24  1  0  0  0  0
 36 37  1  0  0  0  0
 21 36  1  0  0  0  0
M  END
>  <cdx:groupId>
60352

>  <cdx:fragmentId>
60239

$$$$
