8159.cdx
  Mrv1902 05222410212D          

 11 10  0  0  0  0            999 V2000
    3.3527   -2.6477    0.0000 C   0  0  0  0  0  0  0  0  0  0  0  0
    2.6383   -3.0602    0.0000 C   0  0  0  0  0  0  0  0  0  0  0  0
    3.3527   -1.8227    0.0000 O   0  0  0  0  0  0  0  0  0  0  0  0
    4.0672   -3.0602    0.0000 O   0  0  0  0  0  0  0  0  0  0  0  0
    4.7817   -2.6477    0.0000 C   0  0  0  0  0  0  0  0  0  0  0  0
    5.4961   -3.0602    0.0000 C   0  0  0  0  0  0  0  0  0  0  0  0
    6.2106   -2.6477    0.0000 C   0  0  0  0  0  0  0  0  0  0  0  0
    6.9251   -3.0602    0.0000 C   0  0  0  0  0  0  0  0  0  0  0  0
    7.6396   -2.6477    0.0000 C   0  0  0  0  0  0  0  0  0  0  0  0
    8.3540   -3.0602    0.0000 C   0  0  0  0  0  0  0  0  0  0  0  0
    9.0685   -2.6477    0.0000 C   0  0  0  0  0  0  0  0  0  0  0  0
  1  2  1  0  0  0  0
  1  3  2  0  0  0  0
  1  4  1  0  0  0  0
  5  6  1  0  0  0  0
  6  7  1  0  0  0  0
  7  8  1  0  0  0  0
  8  9  1  0  0  0  0
  9 10  1  0  0  0  0
 10 11  1  0  0  0  0
  4  5  1  0  0  0  0
M  END
>  <cdx:groupId>
34

>  <cdx:fragmentId>
13

$$$$
