81591.cdx
  Mrv1902 05222410252D          

 16 16  0  0  0  0            999 V2000
    5.8004   -4.8466    0.0000 C   0  0  0  0  0  0  0  0  0  0  0  0
    5.0859   -5.2591    0.0000 C   0  0  0  0  0  0  0  0  0  0  0  0
    5.0859   -6.0841    0.0000 C   0  0  0  0  0  0  0  0  0  0  0  0
    4.3714   -6.4966    0.0000 C   0  0  0  0  0  0  0  0  0  0  0  0
    3.6570   -6.0841    0.0000 C   0  0  0  0  0  0  0  0  0  0  0  0
    3.6570   -5.2591    0.0000 C   0  0  0  0  0  0  0  0  0  0  0  0
    4.3714   -4.8466    0.0000 C   0  0  0  0  0  0  0  0  0  0  0  0
    5.8004   -4.0216    0.0000 O   0  0  0  0  0  0  0  0  0  0  0  0
    6.5149   -5.2591    0.0000 O   0  0  0  0  0  0  0  0  0  0  0  0
    7.2293   -4.8466    0.0000 C   0  0  0  0  0  0  0  0  0  0  0  0
    7.9438   -5.2591    0.0000 C   0  0  0  0  0  0  0  0  0  0  0  0
    8.6583   -4.8466    0.0000 C   0  0  0  0  0  0  0  0  0  0  0  0
    9.3727   -5.2591    0.0000 C   0  0  0  0  0  0  0  0  0  0  0  0
   10.0872   -4.8466    0.0000 C   0  0  0  0  0  0  0  0  0  0  0  0
   10.8017   -5.2591    0.0000 C   0  0  0  0  0  0  0  0  0  0  0  0
   11.5162   -4.8466    0.0000 C   0  0  0  0  0  0  0  0  0  0  0  0
  1  2  1  0  0  0  0
  2  3  1  0  0  0  0
  3  4  2  0  0  0  0
  4  5  1  0  0  0  0
  5  6  2  0  0  0  0
  6  7  1  0  0  0  0
  2  7  2  0  0  0  0
  1  8  2  0  0  0  0
  1  9  1  0  0  0  0
 10 11  1  0  0  0  0
 11 12  1  0  0  0  0
 12 13  1  0  0  0  0
 13 14  1  0  0  0  0
 14 15  1  0  0  0  0
 15 16  1  0  0  0  0
  9 10  1  0  0  0  0
M  END
>  <cdx:fragmentId>
5

$$$$
