8164.cdx
  Mrv1902 05222410212D          

 12 11  0  0  0  0            999 V2000
    3.5977   -3.3902    0.0000 C   0  0  0  0  0  0  0  0  0  0  0  0
    2.8833   -3.8027    0.0000 C   0  0  0  0  0  0  0  0  0  0  0  0
    3.5977   -2.5652    0.0000 O   0  0  0  0  0  0  0  0  0  0  0  0
    4.3122   -3.8027    0.0000 O   0  0  0  0  0  0  0  0  0  0  0  0
    5.0267   -3.3902    0.0000 C   0  0  0  0  0  0  0  0  0  0  0  0
    5.7412   -3.8027    0.0000 C   0  0  0  0  0  0  0  0  0  0  0  0
    6.4556   -3.3902    0.0000 C   0  0  0  0  0  0  0  0  0  0  0  0
    7.1701   -3.8027    0.0000 C   0  0  0  0  0  0  0  0  0  0  0  0
    7.8846   -3.3902    0.0000 C   0  0  0  0  0  0  0  0  0  0  0  0
    8.5990   -3.8027    0.0000 C   0  0  0  0  0  0  0  0  0  0  0  0
    9.3135   -3.3902    0.0000 C   0  0  0  0  0  0  0  0  0  0  0  0
   10.0280   -3.8027    0.0000 C   0  0  0  0  0  0  0  0  0  0  0  0
  1  2  1  0  0  0  0
  1  3  2  0  0  0  0
  1  4  1  0  0  0  0
  5  6  1  0  0  0  0
  6  7  1  0  0  0  0
  7  8  1  0  0  0  0
  8  9  1  0  0  0  0
  9 10  1  0  0  0  0
 10 11  1  0  0  0  0
 11 12  1  0  0  0  0
  4  5  1  0  0  0  0
M  END
>  <cdx:groupId>
37

>  <cdx:fragmentId>
13

$$$$
