8167.cdx
  Mrv1902 05222410202D          

 14 13  0  0  0  0            999 V2000
    2.9451   -2.4414    0.0000 C   0  0  0  0  0  0  0  0  0  0  0  0
    2.2307   -2.8539    0.0000 C   0  0  0  0  0  0  0  0  0  0  0  0
    2.9451   -1.6164    0.0000 O   0  0  0  0  0  0  0  0  0  0  0  0
    3.6596   -2.8539    0.0000 O   0  0  0  0  0  0  0  0  0  0  0  0
    4.3741   -2.4414    0.0000 C   0  0  0  0  0  0  0  0  0  0  0  0
    5.0886   -2.8539    0.0000 C   0  0  0  0  0  0  0  0  0  0  0  0
    5.8030   -2.4414    0.0000 C   0  0  0  0  0  0  0  0  0  0  0  0
    6.5175   -2.8539    0.0000 C   0  0  0  0  0  0  0  0  0  0  0  0
    7.2320   -2.4414    0.0000 C   0  0  0  0  0  0  0  0  0  0  0  0
    7.9464   -2.8539    0.0000 C   0  0  0  0  0  0  0  0  0  0  0  0
    8.6609   -2.4414    0.0000 C   0  0  0  0  0  0  0  0  0  0  0  0
    9.3754   -2.8539    0.0000 C   0  0  0  0  0  0  0  0  0  0  0  0
   10.0899   -2.4414    0.0000 C   0  0  0  0  0  0  0  0  0  0  0  0
   10.8043   -2.8539    0.0000 C   0  0  0  0  0  0  0  0  0  0  0  0
  1  2  1  0  0  0  0
  1  3  2  0  0  0  0
  1  4  1  0  0  0  0
  5  6  1  0  0  0  0
  6  7  1  0  0  0  0
  7  8  1  0  0  0  0
  8  9  1  0  0  0  0
  9 10  1  0  0  0  0
 10 11  1  0  0  0  0
 11 12  1  0  0  0  0
 12 13  1  0  0  0  0
 13 14  1  0  0  0  0
  4  5  1  0  0  0  0
M  END
>  <cdx:groupId>
43

>  <cdx:fragmentId>
13

$$$$
