817274.cdx
  Mrv1902 05222410242D          

 21 23  0  0  0  0            999 V2000
    7.1335   -8.4859    0.0000 C   0  0  0  0  0  0  0  0  0  0  0  0
    7.1335   -7.6609    0.0000 C   0  0  0  0  0  0  0  0  0  0  0  0
    6.4190   -7.2484    0.0000 C   0  0  0  0  0  0  0  0  0  0  0  0
    5.7046   -7.6609    0.0000 C   0  0  0  0  0  0  0  0  0  0  0  0
    4.9901   -7.2484    0.0000 C   0  0  0  0  0  0  0  0  0  0  0  0
    4.2756   -7.6609    0.0000 C   0  0  0  0  0  0  0  0  0  0  0  0
    4.2756   -8.4859    0.0000 C   0  0  0  0  0  0  0  0  0  0  0  0
    4.9901   -8.8984    0.0000 C   0  0  0  0  0  0  0  0  0  0  0  0
    5.7046   -8.4859    0.0000 C   0  0  0  0  0  0  0  0  0  0  0  0
    6.4190   -8.8984    0.0000 O   0  0  0  0  0  0  0  0  0  0  0  0
    6.4190   -6.4234    0.0000 O   0  0  0  0  0  0  0  0  0  0  0  0
    3.5611   -8.8984    0.0000 O   0  0  0  0  0  0  0  0  0  0  0  0
    7.8480   -7.2484    0.0000 C   0  0  0  0  0  0  0  0  0  0  0  0
    8.5624   -7.6609    0.0000 C   0  0  0  0  0  0  0  0  0  0  0  0
    9.2769   -7.2484    0.0000 C   0  0  0  0  0  0  0  0  0  0  0  0
    9.9914   -7.6609    0.0000 C   0  0  0  0  0  0  0  0  0  0  0  0
    9.9914   -8.4859    0.0000 C   0  0  0  0  0  0  0  0  0  0  0  0
    9.2769   -8.8984    0.0000 C   0  0  0  0  0  0  0  0  0  0  0  0
    8.5624   -8.4859    0.0000 C   0  0  0  0  0  0  0  0  0  0  0  0
   10.7059   -8.8984    0.0000 O   0  0  0  0  0  0  0  0  0  0  0  0
   10.7059   -7.2484    0.0000 O   0  0  0  0  0  0  0  0  0  0  0  0
  1  2  1  0  0  0  0
  2  3  1  0  0  0  0
  3  4  1  0  0  0  0
  4  5  1  0  0  0  0
  5  6  2  0  0  0  0
  6  7  1  0  0  0  0
  7  8  2  0  0  0  0
  8  9  1  0  0  0  0
  4  9  2  0  0  0  0
  9 10  1  0  0  0  0
  1 10  1  0  0  0  0
  3 11  2  0  0  0  0
  7 12  1  0  0  0  0
 14 15  1  0  0  0  0
 15 16  2  0  0  0  0
 16 17  1  0  0  0  0
 17 18  2  0  0  0  0
 18 19  1  0  0  0  0
 14 19  2  0  0  0  0
 17 20  1  0  0  0  0
 16 21  1  0  0  0  0
 13 14  1  0  0  0  0
  2 13  2  0  0  0  0
M  END
>  <cdx:fragmentId>
29110

$$$$
