817366.cdx
  Mrv1902 05222410272D          

 11 10  0  0  0  0            999 V2000
    6.3655   -7.2825    0.0000 N   0  0  0  0  0  0  0  0  0  0  0  0
    4.9576  -11.4148    0.0000 C   0  0  0  0  0  0  0  0  0  0  0  0
    5.6699  -10.9986    0.0000 C   0  0  0  0  0  0  0  0  0  0  0  0
    5.6657  -10.1736    0.0000 C   0  0  0  0  0  0  0  0  0  0  0  0
    6.3781   -9.7575    0.0000 C   0  0  0  0  0  0  0  0  0  0  0  0
    6.3739   -8.9325    0.0000 S   0  0  0  0  0  0  0  0  0  0  0  0
    7.7902   -6.4503    0.0000 O   0  0  0  0  0  0  0  0  0  0  0  0
    8.5110   -7.6841    0.0000 O   0  0  0  0  0  0  0  0  0  0  0  0
    7.0862   -8.5164    0.0000 C   0  0  0  0  0  0  0  0  0  0  0  0
    7.0820   -7.6914    0.0000 C   0  0  1  0  0  0  0  0  0  0  0  0
    7.7944   -7.2752    0.0000 C   0  0  0  0  0  0  0  0  0  0  0  0
 10  1  1  6  0  0  0
  9  6  1  0  0  0  0
  6  5  1  0  0  0  0
  3  2  1  0  0  0  0
  4  3  1  0  0  0  0
  5  4  1  0  0  0  0
 11  7  1  0  0  0  0
 11  8  2  0  0  0  0
 10  9  1  0  0  0  0
 11 10  1  0  0  0  0
M  END
>  <cdx:groupId>
96245

>  <cdx:fragmentId>
96228

$$$$
