8174.cdx
  Mrv1902 05222410222D          

 11 10  0  0  0  0            999 V2000
    1.8044   -4.3461    0.0000 C   0  0  0  0  0  0  0  0  0  0  0  0
    2.5188   -4.7586    0.0000 C   0  0  0  0  0  0  0  0  0  0  0  0
    3.2333   -4.3461    0.0000 C   0  0  0  0  0  0  0  0  0  0  0  0
    3.9478   -4.7586    0.0000 C   0  0  0  0  0  0  0  0  0  0  0  0
    4.6622   -4.3461    0.0000 C   0  0  0  0  0  0  0  0  0  0  0  0
    5.3767   -4.7586    0.0000 C   0  0  0  0  0  0  0  0  0  0  0  0
    6.0912   -4.3461    0.0000 C   0  0  0  0  0  0  0  0  0  0  0  0
    6.8056   -4.7586    0.0000 C   0  0  0  0  0  0  0  0  0  0  0  0
    7.5201   -4.3461    0.0000 C   0  0  0  0  0  0  0  0  0  0  0  0
    8.2346   -4.7586    0.0000 C   0  0  0  0  0  0  0  0  0  0  0  0
    1.0899   -4.7586    0.0000 O   0  0  0  0  0  0  0  0  0  0  0  0
  1  2  1  0  0  0  0
  2  3  1  0  0  0  0
  3  4  1  0  0  0  0
  4  5  1  0  0  0  0
  5  6  1  0  0  0  0
  6  7  1  0  0  0  0
  7  8  1  0  0  0  0
  8  9  1  0  0  0  0
  9 10  1  0  0  0  0
  1 11  1  0  0  0  0
M  END
>  <cdx:groupId>
34

>  <cdx:fragmentId>
5

$$$$
