8175.cdx
  Mrv1902 05222410222D          

 11 10  0  0  0  0            999 V2000
    3.7552   -2.9084    0.0000 C   0  0  0  0  0  0  0  0  0  0  0  0
    4.4696   -3.3209    0.0000 C   0  0  0  0  0  0  0  0  0  0  0  0
    5.1841   -2.9084    0.0000 C   0  0  0  0  0  0  0  0  0  0  0  0
    5.8986   -3.3209    0.0000 C   0  0  0  0  0  0  0  0  0  0  0  0
    6.6131   -2.9084    0.0000 C   0  0  0  0  0  0  0  0  0  0  0  0
    7.3275   -3.3209    0.0000 C   0  0  0  0  0  0  0  0  0  0  0  0
    8.0420   -2.9084    0.0000 C   0  0  0  0  0  0  0  0  0  0  0  0
    8.7565   -3.3209    0.0000 C   0  0  0  0  0  0  0  0  0  0  0  0
    9.4709   -2.9084    0.0000 C   0  0  0  0  0  0  0  0  0  0  0  0
   10.1854   -3.3209    0.0000 C   0  0  0  0  0  0  0  0  0  0  0  0
    3.0407   -3.3209    0.0000 O   0  0  0  0  0  0  0  0  0  0  0  0
  1  2  1  0  0  0  0
  2  3  1  0  0  0  0
  3  4  1  0  0  0  0
  4  5  1  0  0  0  0
  5  6  1  0  0  0  0
  6  7  1  0  0  0  0
  7  8  1  0  0  0  0
  8  9  1  0  0  0  0
  9 10  1  0  0  0  0
  1 11  2  0  0  0  0
M  END
>  <cdx:fragmentId>
5

$$$$
