8180.cdx
  Mrv1902 05222410252D          

 13 12  0  0  0  0            999 V2000
    9.0634   -2.6889    0.0000 C   0  0  0  0  0  0  0  0  0  0  0  0
    8.3489   -3.1014    0.0000 C   0  0  0  0  0  0  0  0  0  0  0  0
    7.6344   -2.6889    0.0000 C   0  0  0  0  0  0  0  0  0  0  0  0
    6.9200   -3.1014    0.0000 C   0  0  0  0  0  0  0  0  0  0  0  0
    6.2055   -2.6889    0.0000 C   0  0  0  0  0  0  0  0  0  0  0  0
    5.4910   -3.1014    0.0000 C   0  0  0  0  0  0  0  0  0  0  0  0
    4.7766   -2.6889    0.0000 C   0  0  0  0  0  0  0  0  0  0  0  0
    4.0621   -3.1014    0.0000 C   0  0  0  0  0  0  0  0  0  0  0  0
    3.3476   -2.6889    0.0000 C   0  0  0  0  0  0  0  0  0  0  0  0
    2.6331   -3.1014    0.0000 C   0  0  0  0  0  0  0  0  0  0  0  0
    1.9187   -2.6889    0.0000 C   0  0  0  0  0  0  0  0  0  0  0  0
    9.0634   -1.8639    0.0000 O   0  0  0  0  0  0  0  0  0  0  0  0
    9.7779   -3.1014    0.0000 O   0  0  0  0  0  0  0  0  0  0  0  0
  1  2  1  0  0  0  0
  2  3  1  0  0  0  0
  3  4  1  0  0  0  0
  4  5  1  0  0  0  0
  5  6  1  0  0  0  0
  6  7  1  0  0  0  0
  7  8  1  0  0  0  0
  8  9  1  0  0  0  0
  9 10  1  0  0  0  0
 10 11  1  0  0  0  0
  1 12  2  0  0  0  0
  1 13  1  0  0  0  0
M  END
>  <cdx:groupId>
40

>  <cdx:fragmentId>
5

$$$$
