8182.cdx
  Mrv1902 05222410252D          

 12 11  0  0  0  0            999 V2000
    9.1848   -2.0006    0.0000 C   0  0  0  0  0  0  0  0  0  0  0  0
    8.4704   -2.4131    0.0000 C   0  0  0  0  0  0  0  0  0  0  0  0
    7.7559   -2.0006    0.0000 C   0  0  0  0  0  0  0  0  0  0  0  0
    7.0414   -2.4131    0.0000 C   0  0  0  0  0  0  0  0  0  0  0  0
    6.3270   -2.0006    0.0000 C   0  0  0  0  0  0  0  0  0  0  0  0
    5.6125   -2.4131    0.0000 C   0  0  0  0  0  0  0  0  0  0  0  0
    4.8980   -2.0006    0.0000 C   0  0  0  0  0  0  0  0  0  0  0  0
    4.1835   -2.4131    0.0000 C   0  0  0  0  0  0  0  0  0  0  0  0
    3.4691   -2.0006    0.0000 C   0  0  0  0  0  0  0  0  0  0  0  0
    2.7546   -2.4131    0.0000 C   0  0  0  0  0  0  0  0  0  0  0  0
    2.0401   -2.0006    0.0000 C   0  0  0  0  0  0  0  0  0  0  0  0
    1.3257   -2.4131    0.0000 C   0  0  0  0  0  0  0  0  0  0  0  0
  1  2  1  0  0  0  0
  2  3  1  0  0  0  0
  3  4  1  0  0  0  0
  4  5  1  0  0  0  0
  5  6  1  0  0  0  0
  6  7  1  0  0  0  0
  7  8  1  0  0  0  0
  8  9  1  0  0  0  0
  9 10  1  0  0  0  0
 10 11  1  0  0  0  0
 11 12  1  0  0  0  0
M  END
>  <cdx:groupId>
37

>  <cdx:fragmentId>
5

$$$$
