8184.cdx
  Mrv1902 05222410242D          

 12 11  0  0  0  0            999 V2000
    8.4446   -2.4885    0.0000 C   0  0  0  0  0  0  0  0  0  0  0  0
    7.7302   -2.0760    0.0000 C   0  0  0  0  0  0  0  0  0  0  0  0
    7.0157   -2.4885    0.0000 C   0  0  0  0  0  0  0  0  0  0  0  0
    6.3012   -2.0760    0.0000 C   0  0  0  0  0  0  0  0  0  0  0  0
    5.5867   -2.4885    0.0000 C   0  0  0  0  0  0  0  0  0  0  0  0
    4.8723   -2.0760    0.0000 C   0  0  0  0  0  0  0  0  0  0  0  0
    4.1578   -2.4885    0.0000 C   0  0  0  0  0  0  0  0  0  0  0  0
    3.4433   -2.0760    0.0000 C   0  0  0  0  0  0  0  0  0  0  0  0
    2.7289   -2.4885    0.0000 C   0  0  0  0  0  0  0  0  0  0  0  0
    2.0144   -2.0760    0.0000 C   0  0  0  0  0  0  0  0  0  0  0  0
    1.2999   -2.4885    0.0000 C   0  0  0  0  0  0  0  0  0  0  0  0
    9.1591   -2.0760    0.0000 O   0  0  0  0  0  0  0  0  0  0  0  0
  1  2  1  0  0  0  0
  2  3  1  0  0  0  0
  3  4  1  0  0  0  0
  4  5  1  0  0  0  0
  5  6  1  0  0  0  0
  6  7  1  0  0  0  0
  7  8  1  0  0  0  0
  8  9  1  0  0  0  0
  9 10  1  0  0  0  0
 10 11  1  0  0  0  0
  1 12  1  0  0  0  0
M  END
>  <cdx:groupId>
37

>  <cdx:fragmentId>
5

$$$$
