15818599.cdx
  Mrv1902 05222410222D          

 31 33  0  0  0  0            999 V2000
    6.7033  -15.1047    0.0000 C   0  0  0  0  0  0  0  0  0  0  0  0
    6.7033  -14.2797    0.0000 C   0  0  0  0  0  0  0  0  0  0  0  0
    5.9888  -13.8672    0.0000 C   0  0  0  0  0  0  0  0  0  0  0  0
    5.2743  -14.2797    0.0000 C   0  0  0  0  0  0  0  0  0  0  0  0
    4.5599  -13.8672    0.0000 C   0  0  0  0  0  0  0  0  0  0  0  0
    3.8454  -14.2797    0.0000 C   0  0  0  0  0  0  0  0  0  0  0  0
    3.8454  -15.1047    0.0000 C   0  0  0  0  0  0  0  0  0  0  0  0
    4.5599  -15.5172    0.0000 C   0  0  0  0  0  0  0  0  0  0  0  0
    5.2743  -15.1047    0.0000 C   0  0  0  0  0  0  0  0  0  0  0  0
    5.9888  -15.5172    0.0000 O   0  0  0  0  0  0  0  0  0  0  0  0
    5.9888  -13.0422    0.0000 O   0  0  0  0  0  0  0  0  0  0  0  0
    4.5599  -16.3422    0.0000 C   0  0  0  0  0  0  0  0  0  0  0  0
    3.8454  -16.7547    0.0000 C   0  0  0  0  0  0  0  0  0  0  0  0
    3.8454  -17.5797    0.0000 C   0  0  0  0  0  0  0  0  0  0  0  0
    4.5599  -17.9922    0.0000 C   0  0  0  0  0  0  0  0  0  0  0  0
    3.1309  -17.9922    0.0000 C   0  0  0  0  0  0  0  0  0  0  0  0
    3.1309  -15.5172    0.0000 O   0  0  0  0  0  0  0  0  0  0  0  0
    4.5599  -13.0422    0.0000 O   0  0  0  0  0  0  0  0  0  0  0  0
    7.4177  -13.8672    0.0000 C   0  0  0  0  0  0  0  0  0  0  0  0
    7.4177  -13.0422    0.0000 C   0  0  0  0  0  0  0  0  0  0  0  0
    8.1322  -12.6297    0.0000 C   0  0  0  0  0  0  0  0  0  0  0  0
    8.8467  -13.0422    0.0000 C   0  0  0  0  0  0  0  0  0  0  0  0
    8.8467  -13.8672    0.0000 C   0  0  0  0  0  0  0  0  0  0  0  0
    8.1322  -14.2797    0.0000 C   0  0  0  0  0  0  0  0  0  0  0  0
    9.5611  -14.2797    0.0000 C   0  0  0  0  0  0  0  0  0  0  0  0
   10.2756  -13.8672    0.0000 C   0  0  0  0  0  0  0  0  0  0  0  0
   10.9901  -14.2797    0.0000 C   0  0  0  0  0  0  0  0  0  0  0  0
   10.9901  -15.1047    0.0000 C   0  0  0  0  0  0  0  0  0  0  0  0
   11.7046  -13.8672    0.0000 C   0  0  0  0  0  0  0  0  0  0  0  0
    9.5611  -12.6297    0.0000 O   0  0  0  0  0  0  0  0  0  0  0  0
    8.1322  -11.8047    0.0000 O   0  0  0  0  0  0  0  0  0  0  0  0
  1  2  2  0  0  0  0
  2  3  1  0  0  0  0
  3  4  1  0  0  0  0
  4  5  1  0  0  0  0
  5  6  2  0  0  0  0
  6  7  1  0  0  0  0
  7  8  2  0  0  0  0
  8  9  1  0  0  0  0
  4  9  2  0  0  0  0
  9 10  1  0  0  0  0
  1 10  1  0  0  0  0
  3 11  2  0  0  0  0
 12 13  1  0  0  0  0
 13 14  2  0  0  0  0
 14 15  1  0  0  0  0
 14 16  1  0  0  0  0
  8 12  1  0  0  0  0
  7 17  1  0  0  0  0
  5 18  1  0  0  0  0
 19 20  1  0  0  0  0
 20 21  2  0  0  0  0
 21 22  1  0  0  0  0
 22 23  2  0  0  0  0
 23 24  1  0  0  0  0
 19 24  2  0  0  0  0
 25 26  1  0  0  0  0
 26 27  2  0  0  0  0
 27 28  1  0  0  0  0
 27 29  1  0  0  0  0
 23 25  1  0  0  0  0
 22 30  1  0  0  0  0
 21 31  1  0  0  0  0
  2 19  1  0  0  0  0
M  END
>  <cdx:fragmentId>
116689

$$$$
