15818598.cdx
  Mrv1902 05222410222D          

 26 29  0  0  0  0            999 V2000
    7.4709  -17.2784    0.0000 C   0  0  0  0  0  0  0  0  0  0  0  0
    6.9189  -16.6653    0.0000 C   0  0  0  0  0  0  0  0  0  0  0  0
    7.1738  -15.8807    0.0000 C   0  0  0  0  0  0  0  0  0  0  0  0
    7.9808  -15.7092    0.0000 C   0  0  0  0  0  0  0  0  0  0  0  0
    8.2357  -14.9246    0.0000 C   0  0  0  0  0  0  0  0  0  0  0  0
    9.0427  -14.7530    0.0000 C   0  0  0  0  0  0  0  0  0  0  0  0
    9.5947  -15.3661    0.0000 C   0  0  0  0  0  0  0  0  0  0  0  0
    9.3398  -16.1508    0.0000 C   0  0  0  0  0  0  0  0  0  0  0  0
    8.5328  -16.3223    0.0000 C   0  0  0  0  0  0  0  0  0  0  0  0
    8.2779  -17.1069    0.0000 O   0  0  0  0  0  0  0  0  0  0  0  0
    6.5064  -15.3958    0.0000 O   0  0  0  0  0  0  0  0  0  0  0  0
    6.0939  -16.6653    0.0000 C   0  0  0  0  0  0  0  0  0  0  0  0
    5.5418  -17.2784    0.0000 C   0  0  0  0  0  0  0  0  0  0  0  0
    4.7349  -17.1069    0.0000 C   0  0  0  0  0  0  0  0  0  0  0  0
    4.4799  -16.3223    0.0000 C   0  0  0  0  0  0  0  0  0  0  0  0
    5.0320  -15.7092    0.0000 C   0  0  0  0  0  0  0  0  0  0  0  0
    5.8389  -15.8807    0.0000 C   0  0  0  0  0  0  0  0  0  0  0  0
   10.4017  -15.1946    0.0000 O   0  0  0  0  0  0  0  0  0  0  0  0
    3.6730  -16.1508    0.0000 O   0  0  0  0  0  0  0  0  0  0  0  0
    9.2976  -13.9684    0.0000 C   0  0  0  0  0  0  0  0  0  0  0  0
   10.1046  -13.7969    0.0000 C   0  0  0  0  0  0  0  0  0  0  0  0
   10.3596  -13.0123    0.0000 C   0  0  0  0  0  0  0  0  0  0  0  0
    9.8075  -12.3992    0.0000 C   0  0  0  0  0  0  0  0  0  0  0  0
   11.1665  -12.8407    0.0000 C   0  0  0  0  0  0  0  0  0  0  0  0
    7.6837  -14.3115    0.0000 O   0  0  0  0  0  0  0  0  0  0  0  0
    6.8767  -14.4830    0.0000 C   0  0  0  0  0  0  0  0  0  0  0  0
  1  2  1  0  0  0  0
  2  3  2  0  0  0  0
  3  4  1  0  0  0  0
  4  5  1  0  0  0  0
  5  6  2  0  0  0  0
  6  7  1  0  0  0  0
  7  8  2  0  0  0  0
  8  9  1  0  0  0  0
  4  9  2  0  0  0  0
  9 10  1  0  0  0  0
  1 10  1  0  0  0  0
 12 13  1  0  0  0  0
 13 14  2  0  0  0  0
 14 15  1  0  0  0  0
 15 16  2  0  0  0  0
 16 17  1  0  0  0  0
 12 17  2  0  0  0  0
 11 17  1  0  0  0  0
 12  2  1  0  0  0  0
 11  3  1  0  0  0  0
  7 18  1  0  0  0  0
 15 19  1  0  0  0  0
 20 21  1  0  0  0  0
 21 22  2  0  0  0  0
 22 23  1  0  0  0  0
 22 24  1  0  0  0  0
  6 20  1  0  0  0  0
 25 26  1  0  0  0  0
  5 25  1  0  0  0  0
M  END
>  <cdx:fragmentId>
116602

$$$$
