8186.cdx
  Mrv1902 05222410242D          

 12 11  0  0  0  0            999 V2000
    9.4019   -2.9637    0.0000 C   0  0  0  0  0  0  0  0  0  0  0  0
    8.6875   -2.5512    0.0000 C   0  0  0  0  0  0  0  0  0  0  0  0
    7.9730   -2.9637    0.0000 C   0  0  0  0  0  0  0  0  0  0  0  0
    7.2585   -2.5512    0.0000 C   0  0  0  0  0  0  0  0  0  0  0  0
    6.5440   -2.9637    0.0000 C   0  0  0  0  0  0  0  0  0  0  0  0
    5.8296   -2.5512    0.0000 C   0  0  0  0  0  0  0  0  0  0  0  0
    5.1151   -2.9637    0.0000 C   0  0  0  0  0  0  0  0  0  0  0  0
    4.4006   -2.5512    0.0000 C   0  0  0  0  0  0  0  0  0  0  0  0
    3.6862   -2.9637    0.0000 C   0  0  0  0  0  0  0  0  0  0  0  0
    2.9717   -2.5512    0.0000 C   0  0  0  0  0  0  0  0  0  0  0  0
    2.2572   -2.9637    0.0000 C   0  0  0  0  0  0  0  0  0  0  0  0
   10.1164   -2.5512    0.0000 O   0  0  0  0  0  0  0  0  0  0  0  0
  1  2  1  0  0  0  0
  2  3  1  0  0  0  0
  3  4  1  0  0  0  0
  4  5  1  0  0  0  0
  5  6  1  0  0  0  0
  6  7  1  0  0  0  0
  7  8  1  0  0  0  0
  8  9  1  0  0  0  0
  9 10  1  0  0  0  0
 10 11  1  0  0  0  0
  1 12  2  0  0  0  0
M  END
>  <cdx:groupId>
37

>  <cdx:fragmentId>
5

$$$$
