8188.cdx
  Mrv1902 05222410232D          

 12 11  0  0  0  0            999 V2000
    8.6571   -3.2733    0.0000 C   0  0  0  0  0  0  0  0  0  0  0  0
    9.3715   -2.8608    0.0000 C   0  0  0  0  0  0  0  0  0  0  0  0
   10.0860   -3.2733    0.0000 C   0  0  0  0  0  0  0  0  0  0  0  0
   10.8005   -2.8608    0.0000 C   0  0  0  0  0  0  0  0  0  0  0  0
    7.9426   -2.8608    0.0000 O   0  0  0  0  0  0  0  0  0  0  0  0
    7.2281   -3.2733    0.0000 C   0  0  0  0  0  0  0  0  0  0  0  0
    6.5136   -2.8608    0.0000 C   0  0  0  0  0  0  0  0  0  0  0  0
    5.7992   -3.2733    0.0000 O   0  0  0  0  0  0  0  0  0  0  0  0
    5.0847   -2.8608    0.0000 C   0  0  0  0  0  0  0  0  0  0  0  0
    4.3702   -3.2733    0.0000 C   0  0  0  0  0  0  0  0  0  0  0  0
    3.6558   -2.8608    0.0000 C   0  0  0  0  0  0  0  0  0  0  0  0
    2.9413   -3.2733    0.0000 C   0  0  0  0  0  0  0  0  0  0  0  0
  1  2  1  0  0  0  0
  2  3  1  0  0  0  0
  3  4  1  0  0  0  0
  6  7  1  0  0  0  0
  5  6  1  0  0  0  0
  9 10  1  0  0  0  0
 10 11  1  0  0  0  0
 11 12  1  0  0  0  0
  8  9  1  0  0  0  0
  7  8  1  0  0  0  0
  1  5  1  0  0  0  0
M  END
>  <cdx:groupId>
37

>  <cdx:fragmentId>
21

$$$$
