81907.cdx
  Mrv1902 05222410272D          

 25 27  0  0  0  0            999 V2000
    6.3725   -9.0478    0.0000 O   0  0  0  0  0  0  0  0  0  0  0  0
    7.0870   -9.4603    0.0000 C   0  0  2  0  0  0  0  0  0  0  0  0
    7.0870  -10.2853    0.0000 C   0  0  1  0  0  0  0  0  0  0  0  0
    6.3725  -10.6978    0.0000 C   0  0  2  0  0  0  0  0  0  0  0  0
    5.6580  -10.2853    0.0000 C   0  0  1  0  0  0  0  0  0  0  0  0
    5.6580   -9.4603    0.0000 C   0  0  1  0  0  0  0  0  0  0  0  0
    7.8014  -10.6978    0.0000 O   0  0  0  0  0  0  0  0  0  0  0  0
    6.3725  -11.5228    0.0000 O   0  0  0  0  0  0  0  0  0  0  0  0
    4.9435  -10.6978    0.0000 O   0  0  0  0  0  0  0  0  0  0  0  0
    4.9435   -9.0478    0.0000 C   0  0  0  0  0  0  0  0  0  0  0  0
    4.2291   -9.4603    0.0000 O   0  0  0  0  0  0  0  0  0  0  0  0
    7.8014   -9.0478    0.0000 O   0  0  0  0  0  0  0  0  0  0  0  0
    7.8014   -8.2228    0.0000 C   0  0  1  0  0  0  0  0  0  0  0  0
    8.5159   -7.8103    0.0000 C   0  0  1  0  0  0  0  0  0  0  0  0
    8.5159   -6.9853    0.0000 C   0  0  1  0  0  0  0  0  0  0  0  0
    7.8014   -6.5728    0.0000 C   0  0  0  0  0  0  0  0  0  0  0  0
    7.0870   -6.9853    0.0000 C   0  0  0  0  0  0  0  0  0  0  0  0
    7.0870   -7.8103    0.0000 O   0  0  0  0  0  0  0  0  0  0  0  0
    9.3005   -6.7303    0.0000 C   0  0  0  0  0  0  0  0  0  0  0  0
    9.7854   -7.3978    0.0000 C   0  0  0  0  0  0  0  0  0  0  0  0
    9.3005   -8.0652    0.0000 C   0  0  0  0  0  0  0  0  0  0  0  0
    9.5555   -8.8498    0.0000 C   0  0  0  0  0  0  0  0  0  0  0  0
   10.3624   -9.0213    0.0000 O   0  0  0  0  0  0  0  0  0  0  0  0
    8.6021   -6.1648    0.0000 H   0  0  0  0  0  0  0  0  0  0  0  0
    8.6021   -8.6307    0.0000 H   0  0  0  0  0  0  0  0  0  0  0  0
  1  2  1  0  0  0  0
  2  3  1  0  0  0  0
  3  4  1  0  0  0  0
  4  5  1  0  0  0  0
  5  6  1  0  0  0  0
  1  6  1  0  0  0  0
  3  7  1  6  0  0  0
  4  8  1  1  0  0  0
  5  9  1  6  0  0  0
 10 11  1  0  0  0  0
  6 10  1  1  0  0  0
 13 14  1  0  0  0  0
 14 15  1  0  0  0  0
 15 16  1  0  0  0  0
 16 17  2  0  0  0  0
 17 18  1  0  0  0  0
 13 18  1  0  0  0  0
 19 20  1  0  0  0  0
 20 21  2  0  0  0  0
 21 14  1  0  0  0  0
 19 15  1  0  0  0  0
 22 23  1  0  0  0  0
 21 22  1  0  0  0  0
 13 12  1  6  0  0  0
  2 12  1  1  0  0  0
 15 24  1  6  0  0  0
 14 25  1  6  0  0  0
M  END
>  <cdx:groupId>
101024

>  <cdx:fragmentId>
100974

$$$$
