819211.cdx
  Mrv1902 05222410262D          

 11 11  0  0  0  0            999 V2000
    7.2091  -13.5854    0.0000 C   0  0  0  0  0  0  0  0  0  0  0  0
    6.4947  -13.9979    0.0000 C   0  0  0  0  0  0  0  0  0  0  0  0
    5.7802  -13.5854    0.0000 C   0  0  0  0  0  0  0  0  0  0  0  0
    5.7802  -12.7604    0.0000 C   0  0  0  0  0  0  0  0  0  0  0  0
    6.4947  -12.3479    0.0000 C   0  0  0  0  0  0  0  0  0  0  0  0
    7.2091  -12.7604    0.0000 C   0  0  0  0  0  0  0  0  0  0  0  0
    7.9236  -13.9979    0.0000 C   0  0  0  0  0  0  0  0  0  0  0  0
    8.6381  -13.5854    0.0000 O   0  0  0  0  0  0  0  0  0  0  0  0
    7.6216  -12.0460    0.0000 C   0  0  0  0  0  0  0  0  0  0  0  0
    8.0341  -12.7604    0.0000 C   0  0  0  0  0  0  0  0  0  0  0  0
    6.4947  -14.8229    0.0000 C   0  0  0  0  0  0  0  0  0  0  0  0
  1  2  2  0  0  0  0
  2  3  1  0  0  0  0
  3  4  1  0  0  0  0
  4  5  2  0  0  0  0
  5  6  1  0  0  0  0
  1  6  1  0  0  0  0
  7  8  2  0  0  0  0
  1  7  1  0  0  0  0
  6  9  1  0  0  0  0
  6 10  1  0  0  0  0
  2 11  1  0  0  0  0
M  END
>  <cdx:fragmentId>
82306

$$$$
