8193.cdx
  Mrv1902 05222410242D          

 13 12  0  0  0  0            999 V2000
    4.0434   -2.1392    0.0000 C   0  0  0  0  0  0  0  0  0  0  0  0
    4.7579   -2.5517    0.0000 C   0  0  0  0  0  0  0  0  0  0  0  0
    5.4723   -2.1392    0.0000 C   0  0  0  0  0  0  0  0  0  0  0  0
    6.1868   -2.5517    0.0000 C   0  0  0  0  0  0  0  0  0  0  0  0
    6.9013   -2.1392    0.0000 C   0  0  0  0  0  0  0  0  0  0  0  0
    7.6157   -2.5517    0.0000 C   0  0  0  0  0  0  0  0  0  0  0  0
    8.3302   -2.1392    0.0000 C   0  0  0  0  0  0  0  0  0  0  0  0
    9.0447   -2.5517    0.0000 C   0  0  0  0  0  0  0  0  0  0  0  0
    9.7591   -2.1392    0.0000 C   0  0  0  0  0  0  0  0  0  0  0  0
   10.4736   -2.5517    0.0000 C   0  0  0  0  0  0  0  0  0  0  0  0
   11.1881   -2.1392    0.0000 C   0  0  0  0  0  0  0  0  0  0  0  0
   11.9026   -2.5517    0.0000 C   0  0  0  0  0  0  0  0  0  0  0  0
    3.3289   -2.5517    0.0000 O   0  0  0  0  0  0  0  0  0  0  0  0
  1  2  1  0  0  0  0
  2  3  1  0  0  0  0
  3  4  1  0  0  0  0
  4  5  1  0  0  0  0
  5  6  1  0  0  0  0
  6  7  1  0  0  0  0
  7  8  1  0  0  0  0
  8  9  1  0  0  0  0
  9 10  1  0  0  0  0
 10 11  1  0  0  0  0
 11 12  1  0  0  0  0
  1 13  1  0  0  0  0
M  END
>  <cdx:groupId>
40

>  <cdx:fragmentId>
5

$$$$
