9819306.cdx
  Mrv1902 05222410232D          

 26 30  0  0  0  0            999 V2000
    6.5055  -12.2240    0.0000 C   0  0  1  0  0  0  0  0  0  0  0  0
    5.7910  -12.6365    0.0000 C   0  0  0  0  0  0  0  0  0  0  0  0
    5.0766  -12.2240    0.0000 C   0  0  0  0  0  0  0  0  0  0  0  0
    5.0766  -11.3990    0.0000 C   0  0  0  0  0  0  0  0  0  0  0  0
    5.7910  -10.9865    0.0000 C   0  0  0  0  0  0  0  0  0  0  0  0
    6.5055  -11.3990    0.0000 C   0  0  0  0  0  0  0  0  0  0  0  0
    7.1505  -10.8846    0.0000 O   0  0  0  0  0  0  0  0  0  0  0  0
    7.9548  -11.0682    0.0000 C   0  0  1  0  0  0  0  0  0  0  0  0
    8.3128  -11.8115    0.0000 C   0  0  0  0  0  0  0  0  0  0  0  0
    7.9548  -12.5548    0.0000 C   0  0  1  0  0  0  0  0  0  0  0  0
    7.1505  -12.7384    0.0000 C   0  0  1  0  0  0  0  0  0  0  0  0
    7.5628  -12.0647    0.0000 C   0  0  0  0  0  0  0  0  0  0  0  0
    4.3621  -10.9865    0.0000 O   0  0  0  0  0  0  0  0  0  0  0  0
    6.9669  -13.5427    0.0000 C   0  0  0  0  0  0  0  0  0  0  0  0
    4.3621  -12.6365    0.0000 O   0  0  0  0  0  0  0  0  0  0  0  0
    3.6476  -12.2240    0.0000 C   0  0  0  0  0  0  0  0  0  0  0  0
   10.1352  -15.0138    0.0000 O   0  0  0  0  0  0  0  0  0  0  0  0
   10.8304  -14.5697    0.0000 C   0  0  0  0  0  0  0  0  0  0  0  0
   10.6229  -13.7712    0.0000 O   0  0  0  0  0  0  0  0  0  0  0  0
    9.7994  -13.7219    0.0000 C   0  0  0  0  0  0  0  0  0  0  0  0
    9.4980  -14.4899    0.0000 C   0  0  0  0  0  0  0  0  0  0  0  0
    9.2850  -13.0769    0.0000 C   0  0  0  0  0  0  0  0  0  0  0  0
    8.4692  -13.1998    0.0000 C   0  0  0  0  0  0  0  0  0  0  0  0
    8.1678  -13.9678    0.0000 C   0  0  0  0  0  0  0  0  0  0  0  0
    8.6822  -14.6128    0.0000 C   0  0  0  0  0  0  0  0  0  0  0  0
    8.4692  -10.4232    0.0000 H   0  0  0  0  0  0  0  0  0  0  0  0
  1  2  1  0  0  0  0
  2  3  2  0  0  0  0
  3  4  1  0  0  0  0
  4  5  1  0  0  0  0
  5  6  2  0  0  0  0
  6  7  1  0  0  0  0
  7  8  1  0  0  0  0
  8  9  1  0  0  0  0
  9 10  1  0  0  0  0
 10 11  1  0  0  0  0
  1 11  1  0  0  0  0
  1 12  1  6  0  0  0
  8 12  1  6  0  0  0
  1  6  1  0  0  0  0
  4 13  2  0  0  0  0
 11 14  1  1  0  0  0
 15 16  1  0  0  0  0
  3 15  1  0  0  0  0
 17 18  1  0  0  0  0
 18 19  1  0  0  0  0
 19 20  1  0  0  0  0
 20 21  1  0  0  0  0
 17 21  1  0  0  0  0
 22 23  1  0  0  0  0
 23 24  2  0  0  0  0
 24 25  1  0  0  0  0
 25 21  2  0  0  0  0
 22 20  2  0  0  0  0
 10 23  1  6  0  0  0
  8 26  1  0  0  0  0
M  END
>  <cdx:groupId>
29325

>  <cdx:fragmentId>
29246

$$$$
