81930.cdx
  Mrv1902 05222410182D          

 17 18  0  0  0  0            999 V2000
    5.1700   -9.0820    0.0000 C   0  0  0  0  0  0  0  0  0  0  0  0
    5.5873   -8.3704    0.0000 C   0  0  0  0  0  0  0  0  0  0  0  0
    8.8933   -6.5280    0.0000 C   0  0  0  0  0  0  0  0  0  0  0  0
    5.9950   -9.0876    0.0000 C   0  0  0  0  0  0  0  0  0  0  0  0
    4.9889   -7.5413    0.0000 C   0  0  0  0  0  0  0  0  0  0  0  0
    5.7062   -7.1336    0.0000 C   0  0  0  0  0  0  0  0  0  0  0  0
    5.7117   -6.3086    0.0000 C   0  0  0  0  0  0  0  0  0  0  0  0
    7.1406   -6.3182    0.0000 O   0  0  0  0  0  0  0  0  0  0  0  0
    7.1351   -7.1432    0.0000 C   0  0  0  0  0  0  0  0  0  0  0  0
    6.4179   -7.5509    0.0000 C   0  0  1  0  0  0  0  0  0  0  0  0
    6.4123   -8.3759    0.0000 C   0  0  2  0  0  0  0  0  0  0  0  0
    7.1240   -8.7932    0.0000 C   0  0  0  0  0  0  0  0  0  0  0  0
    7.8412   -8.3855    0.0000 C   0  0  0  0  0  0  0  0  0  0  0  0
    7.8468   -7.5605    0.0000 C   0  0  0  0  0  0  0  0  0  0  0  0
    8.6331   -7.3109    0.0000 C   0  0  0  0  0  0  0  0  0  0  0  0
    9.1135   -7.9815    0.0000 C   0  0  0  0  0  0  0  0  0  0  0  0
    8.6241   -8.6457    0.0000 O   0  0  0  0  0  0  0  0  0  0  0  0
 11  2  1  0  0  0  0
  2  1  2  0  0  0  0
 15  3  1  0  0  0  0
 11  4  1  1  0  0  0
 10  6  1  1  0  0  0
  6  5  1  0  0  0  0
  7  6  2  0  0  0  0
  9  8  2  0  0  0  0
 13 12  1  0  0  0  0
 14  9  1  0  0  0  0
 10  9  1  0  0  0  0
 11 10  1  0  0  0  0
 12 11  1  0  0  0  0
 17 13  1  0  0  0  0
 14 13  2  0  0  0  0
 15 14  1  0  0  0  0
 16 15  2  0  0  0  0
 17 16  1  0  0  0  0
M  END
>  <cdx:fragmentId>
14760

$$$$
