8194.cdx
  Mrv1902 05222410252D          

 13 12  0  0  0  0            999 V2000
    2.8138   -2.2828    0.0000 C   0  0  0  0  0  0  0  0  0  0  0  0
    3.5283   -2.6953    0.0000 C   0  0  0  0  0  0  0  0  0  0  0  0
    4.2428   -2.2828    0.0000 C   0  0  0  0  0  0  0  0  0  0  0  0
    4.9572   -2.6953    0.0000 C   0  0  0  0  0  0  0  0  0  0  0  0
    5.6717   -2.2828    0.0000 C   0  0  0  0  0  0  0  0  0  0  0  0
    6.3862   -2.6953    0.0000 C   0  0  0  0  0  0  0  0  0  0  0  0
    7.1007   -2.2828    0.0000 C   0  0  0  0  0  0  0  0  0  0  0  0
    7.8151   -2.6953    0.0000 C   0  0  0  0  0  0  0  0  0  0  0  0
    8.5296   -2.2828    0.0000 C   0  0  0  0  0  0  0  0  0  0  0  0
    9.2441   -2.6953    0.0000 C   0  0  0  0  0  0  0  0  0  0  0  0
    9.9585   -2.2828    0.0000 C   0  0  0  0  0  0  0  0  0  0  0  0
   10.6730   -2.6953    0.0000 C   0  0  0  0  0  0  0  0  0  0  0  0
    2.0994   -2.6953    0.0000 O   0  0  0  0  0  0  0  0  0  0  0  0
  1  2  1  0  0  0  0
  2  3  1  0  0  0  0
  3  4  1  0  0  0  0
  4  5  1  0  0  0  0
  5  6  1  0  0  0  0
  6  7  1  0  0  0  0
  7  8  1  0  0  0  0
  8  9  1  0  0  0  0
  9 10  1  0  0  0  0
 10 11  1  0  0  0  0
 11 12  1  0  0  0  0
  1 13  2  0  0  0  0
M  END
>  <cdx:groupId>
40

>  <cdx:fragmentId>
5

$$$$
