819499.cdx
  Mrv1902 05222410242D          

 62 66  0  0  0  0            999 V2000
    4.6407   -7.6601    0.0000 C   0  0  0  0  0  0  0  0  0  0  0  0
    4.6411   -8.4851    0.0000 C   0  0  0  0  0  0  0  0  0  0  0  0
    5.4661   -8.4847    0.0000 C   0  0  0  0  0  0  0  0  0  0  0  0
    5.8790   -9.1989    0.0000 C   0  0  0  0  0  0  0  0  0  0  0  0
    3.9260   -7.2480    0.0000 O   0  0  0  0  0  0  0  0  0  0  0  0
    5.3549   -7.2472    0.0000 O   0  0  0  0  0  0  0  0  0  0  0  0
    5.4669   -9.9136    0.0000 O   0  0  0  0  0  0  0  0  0  0  0  0
    6.7040   -9.1985    0.0000 O   0  0  0  0  0  0  0  0  0  0  0  0
    4.6415   -9.3101    0.0000 O   0  0  0  0  0  0  0  0  0  0  0  0
    3.2126   -9.3108    0.0000 O   0  0  0  0  0  0  0  0  0  0  0  0
    3.9273   -9.7230    0.0000 C   0  0  2  0  0  0  0  0  0  0  0  0
    3.9277  -10.5480    0.0000 C   0  0  1  0  0  0  0  0  0  0  0  0
    3.2135  -10.9608    0.0000 C   0  0  2  0  0  0  0  0  0  0  0  0
    2.4988  -10.5487    0.0000 C   0  0  1  0  0  0  0  0  0  0  0  0
    2.4983   -9.7237    0.0000 C   0  0  1  0  0  0  0  0  0  0  0  0
    1.7837   -9.3116    0.0000 C   0  0  0  0  0  0  0  0  0  0  0  0
    1.7832   -8.4866    0.0000 O   0  0  0  0  0  0  0  0  0  0  0  0
    1.7845  -10.9616    0.0000 O   0  0  0  0  0  0  0  0  0  0  0  0
    3.2139  -11.7858    0.0000 O   0  0  0  0  0  0  0  0  0  0  0  0
    4.6424  -10.9601    0.0000 O   0  0  0  0  0  0  0  0  0  0  0  0
    3.5686   -8.4857    0.0000 C   0  0  0  0  0  0  0  0  0  0  0  0
    3.0319   -7.5571    0.0000 C   0  0  0  0  0  0  0  0  0  0  0  0
    3.4440   -6.8424    0.0000 C   0  0  0  0  0  0  0  0  0  0  0  0
    2.2069   -7.5576    0.0000 C   0  0  0  0  0  0  0  0  0  0  0  0
    5.3545   -6.4222    0.0000 C   0  0  0  0  0  0  0  0  0  0  0  0
    6.0688   -6.0093    0.0000 C   0  0  0  0  0  0  0  0  0  0  0  0
    6.0683   -5.1843    0.0000 C   0  0  0  0  0  0  0  0  0  0  0  0
    6.7826   -4.7715    0.0000 C   0  0  0  0  0  0  0  0  0  0  0  0
    7.4973   -5.1836    0.0000 C   0  0  0  0  0  0  0  0  0  0  0  0
    7.4977   -6.0086    0.0000 C   0  0  0  0  0  0  0  0  0  0  0  0
    6.7834   -6.4215    0.0000 C   0  0  0  0  0  0  0  0  0  0  0  0
    8.2115   -4.7707    0.0000 O   0  0  0  0  0  0  0  0  0  0  0  0
    8.9266   -6.0078    0.0000 O   0  0  0  0  0  0  0  0  0  0  0  0
    8.9262   -5.1828    0.0000 C   0  0  2  0  0  0  0  0  0  0  0  0
    9.6405   -4.7700    0.0000 C   0  0  1  0  0  0  0  0  0  0  0  0
   10.3551   -5.1821    0.0000 C   0  0  2  0  0  0  0  0  0  0  0  0
   10.3556   -6.0071    0.0000 C   0  0  1  0  0  0  0  0  0  0  0  0
    9.6413   -6.4200    0.0000 C   0  0  1  0  0  0  0  0  0  0  0  0
    9.6418   -7.2450    0.0000 C   0  0  0  0  0  0  0  0  0  0  0  0
   10.3564   -7.6571    0.0000 O   0  0  0  0  0  0  0  0  0  0  0  0
   11.0703   -6.4192    0.0000 O   0  0  0  0  0  0  0  0  0  0  0  0
   11.0694   -4.7692    0.0000 O   0  0  0  0  0  0  0  0  0  0  0  0
    9.6400   -3.9450    0.0000 O   0  0  0  0  0  0  0  0  0  0  0  0
    7.1169   -9.9127    0.0000 C   0  0  0  0  0  0  0  0  0  0  0  0
    7.9419   -9.9123    0.0000 C   0  0  0  0  0  0  0  0  0  0  0  0
    8.3540   -9.1976    0.0000 C   0  0  0  0  0  0  0  0  0  0  0  0
    9.1790   -9.1972    0.0000 C   0  0  0  0  0  0  0  0  0  0  0  0
    9.5919   -9.9114    0.0000 C   0  0  0  0  0  0  0  0  0  0  0  0
    9.1797  -10.6261    0.0000 C   0  0  0  0  0  0  0  0  0  0  0  0
    8.3547  -10.6266    0.0000 C   0  0  0  0  0  0  0  0  0  0  0  0
   12.0669   -9.9090    0.0000 O   0  0  0  0  0  0  0  0  0  0  0  0
   12.8936  -11.3369    0.0000 O   0  0  0  0  0  0  0  0  0  0  0  0
   12.0704  -12.7669    0.0000 O   0  0  0  0  0  0  0  0  0  0  0  0
   10.8337  -13.4829    0.0000 O   0  0  0  0  0  0  0  0  0  0  0  0
   10.4204  -12.7689    0.0000 C   0  0  0  0  0  0  0  0  0  0  0  0
   10.8320  -12.0539    0.0000 C   0  0  2  0  0  0  0  0  0  0  0  0
   11.6570  -12.0529    0.0000 C   0  0  2  0  0  0  0  0  0  0  0  0
   12.0686  -11.3379    0.0000 C   0  0  1  0  0  0  0  0  0  0  0  0
   11.6552  -10.6240    0.0000 C   0  0  2  0  0  0  0  0  0  0  0  0
   10.8302  -10.6250    0.0000 C   0  0  1  0  0  0  0  0  0  0  0  0
   10.4186  -11.3400    0.0000 O   0  0  0  0  0  0  0  0  0  0  0  0
   10.4169   -9.9110    0.0000 O   0  0  0  0  0  0  0  0  0  0  0  0
 60 62  1  1  0  0  0
 59 51  1  6  0  0  0
 58 52  1  1  0  0  0
 57 53  1  6  0  0  0
 56 55  1  1  0  0  0
 55 54  1  0  0  0  0
 61 56  1  0  0  0  0
 57 56  1  0  0  0  0
 58 57  1  0  0  0  0
 59 58  1  0  0  0  0
 60 59  1  0  0  0  0
 61 60  1  0  0  0  0
  2  1  1  0  0  0  0
  2  3  1  0  0  0  0
  3  4  1  0  0  0  0
  1  5  2  0  0  0  0
  1  6  1  0  0  0  0
  4  7  2  0  0  0  0
  4  8  1  0  0  0  0
 10 11  1  0  0  0  0
 11 12  1  0  0  0  0
 12 13  1  0  0  0  0
 13 14  1  0  0  0  0
 14 15  1  0  0  0  0
 10 15  1  0  0  0  0
 16 17  1  0  0  0  0
 15 16  1  1  0  0  0
 14 18  1  6  0  0  0
 13 19  1  1  0  0  0
 12 20  1  6  0  0  0
 11  9  1  1  0  0  0
  2  9  1  1  0  0  0
 21 22  1  0  0  0  0
 22 23  1  0  0  0  0
 22 24  1  0  0  0  0
  2 21  1  0  0  0  0
 26 27  1  0  0  0  0
 27 28  2  0  0  0  0
 28 29  1  0  0  0  0
 29 30  2  0  0  0  0
 30 31  1  0  0  0  0
 26 31  2  0  0  0  0
 33 34  1  0  0  0  0
 34 35  1  0  0  0  0
 35 36  1  0  0  0  0
 36 37  1  0  0  0  0
 37 38  1  0  0  0  0
 33 38  1  0  0  0  0
 39 40  1  0  0  0  0
 38 39  1  1  0  0  0
 37 41  1  6  0  0  0
 36 42  1  1  0  0  0
 35 43  1  6  0  0  0
 34 32  1  1  0  0  0
 29 32  1  0  0  0  0
 25 26  1  0  0  0  0
  6 25  1  0  0  0  0
 45 46  1  0  0  0  0
 46 47  2  0  0  0  0
 47 48  1  0  0  0  0
 48 49  2  0  0  0  0
 49 50  1  0  0  0  0
 45 50  2  0  0  0  0
 48 62  1  0  0  0  0
 44 45  1  0  0  0  0
  8 44  1  0  0  0  0
M  END
>  <cdx:fragmentId>
23

$$$$
