819737.cdx
  Mrv1902 05222410202D          

 71 79  0  0  0  0            999 V2000
    3.2209  -11.0938    0.0000 C   0  0  0  0  0  0  0  0  0  0  0  0
    2.5064  -11.5063    0.0000 C   0  0  0  0  0  0  0  0  0  0  0  0
    3.9353  -11.5063    0.0000 O   0  0  0  0  0  0  0  0  0  0  0  0
    3.2209  -10.2688    0.0000 O   0  0  0  0  0  0  0  0  0  0  0  0
    5.3643   -9.0313    0.0000 O   0  0  0  0  0  0  0  0  0  0  0  0
    4.6498   -8.6188    0.0000 C   0  0  1  0  0  0  0  0  0  0  0  0
    3.9353   -9.0313    0.0000 C   0  0  2  0  0  0  0  0  0  0  0  0
    3.9353   -9.8563    0.0000 C   0  0  2  0  0  0  0  0  0  0  0  0
    4.6498  -10.2688    0.0000 C   0  0  0  0  0  0  0  0  0  0  0  0
    5.3643   -9.8563    0.0000 C   0  0  2  0  0  0  0  0  0  0  0  0
    3.2209   -8.6188    0.0000 O   0  0  0  0  0  0  0  0  0  0  0  0
    3.9353   -7.3813    0.0000 O   0  0  0  0  0  0  0  0  0  0  0  0
    3.2209   -7.7938    0.0000 C   0  0  2  0  0  0  0  0  0  0  0  0
    2.5064   -7.3813    0.0000 C   0  0  1  0  0  0  0  0  0  0  0  0
    2.5064   -6.5563    0.0000 C   0  0  2  0  0  0  0  0  0  0  0  0
    3.2209   -6.1438    0.0000 C   0  0  1  0  0  0  0  0  0  0  0  0
    3.9353   -6.5563    0.0000 C   0  0  1  0  0  0  0  0  0  0  0  0
    4.6498   -6.1438    0.0000 C   0  0  0  0  0  0  0  0  0  0  0  0
    4.6498   -5.3188    0.0000 O   0  0  0  0  0  0  0  0  0  0  0  0
    3.2209   -5.3188    0.0000 O   0  0  0  0  0  0  0  0  0  0  0  0
    1.7919   -6.1438    0.0000 O   0  0  0  0  0  0  0  0  0  0  0  0
    1.7919   -7.7938    0.0000 O   0  0  0  0  0  0  0  0  0  0  0  0
    4.6498   -7.7938    0.0000 C   0  0  0  0  0  0  0  0  0  0  0  0
    6.0788  -10.2688    0.0000 O   0  0  0  0  0  0  0  0  0  0  0  0
    8.2222   -9.8563    0.0000 O   0  0  0  0  0  0  0  0  0  0  0  0
    7.5077  -10.2688    0.0000 C   0  0  1  0  0  0  0  0  0  0  0  0
    6.7932   -9.8563    0.0000 C   0  0  2  0  0  0  0  0  0  0  0  0
    6.7932   -9.0313    0.0000 C   0  0  2  0  0  0  0  0  0  0  0  0
    7.5077   -8.6188    0.0000 C   0  0  0  0  0  0  0  0  0  0  0  0
    8.2222   -9.0313    0.0000 C   0  0  2  0  0  0  0  0  0  0  0  0
    7.5077  -11.0938    0.0000 C   0  0  0  0  0  0  0  0  0  0  0  0
    8.9366   -8.6188    0.0000 O   0  0  0  0  0  0  0  0  0  0  0  0
   10.3656  -10.2688    0.0000 O   0  0  0  0  0  0  0  0  0  0  0  0
    9.6511   -9.8563    0.0000 C   0  0  1  0  0  0  0  0  0  0  0  0
    9.6511   -9.0313    0.0000 C   0  0  2  0  0  0  0  0  0  0  0  0
   10.3656   -8.6188    0.0000 C   0  0  2  0  0  0  0  0  0  0  0  0
   11.0801   -9.0313    0.0000 C   0  0  0  0  0  0  0  0  0  0  0  0
   11.0801   -9.8563    0.0000 C   0  0  2  0  0  0  0  0  0  0  0  0
    8.9366  -10.2688    0.0000 C   0  0  0  0  0  0  0  0  0  0  0  0
   11.7945  -10.2688    0.0000 O   0  0  0  0  0  0  0  0  0  0  0  0
   13.2235   -8.6188    0.0000 C   0  0  0  0  0  0  0  0  0  0  0  0
   12.5090   -9.0313    0.0000 C   0  0  0  0  0  0  0  0  0  0  0  0
   12.5090   -9.8563    0.0000 C   0  0  1  0  0  0  0  0  0  0  0  0
   13.2235  -10.2688    0.0000 C   0  0  0  0  0  0  0  0  0  0  0  0
   13.9379   -9.8563    0.0000 C   0  0  1  0  0  0  0  0  0  0  0  0
   14.6524  -10.2688    0.0000 C   0  0  0  0  0  0  0  0  0  0  0  0
   15.3669   -9.8563    0.0000 C   0  0  0  0  0  0  0  0  0  0  0  0
   15.3669   -9.0313    0.0000 C   0  0  1  0  0  0  0  0  0  0  0  0
   16.0813   -8.6188    0.0000 C   0  0  1  0  0  0  0  0  0  0  0  0
   16.8660   -8.8738    0.0000 C   0  0  0  0  0  0  0  0  0  0  0  0
   17.3509   -8.2063    0.0000 C   0  0  0  0  0  0  0  0  0  0  0  0
   16.8660   -7.5389    0.0000 C   0  0  1  0  0  0  0  0  0  0  0  0
   16.0813   -7.7938    0.0000 C   0  0  1  0  0  0  0  0  0  0  0  0
   15.3669   -7.3813    0.0000 C   0  0  0  0  0  0  0  0  0  0  0  0
   14.6524   -7.7938    0.0000 C   0  0  0  0  0  0  0  0  0  0  0  0
   14.6524   -8.6188    0.0000 C   0  0  2  0  0  0  0  0  0  0  0  0
   13.9379   -9.0313    0.0000 C   0  0  1  0  0  0  0  0  0  0  0  0
   17.1209   -5.4194    0.0000 O   0  0  0  0  0  0  0  0  0  0  0  0
   16.6360   -6.0868    0.0000 C   0  0  0  0  0  0  0  0  0  0  0  0
   17.1209   -6.7543    0.0000 C   0  0  0  0  0  0  0  0  0  0  0  0
   17.9055   -6.4993    0.0000 C   0  0  0  0  0  0  0  0  0  0  0  0
   17.9055   -5.6743    0.0000 C   0  0  0  0  0  0  0  0  0  0  0  0
   18.5730   -5.1894    0.0000 O   0  0  0  0  0  0  0  0  0  0  0  0
   16.1676   -6.9733    0.0000 C   0  0  0  0  0  0  0  0  0  0  0  0
   13.9379   -8.2063    0.0000 C   0  0  0  0  0  0  0  0  0  0  0  0
   16.0813   -9.4438    0.0000 O   0  0  0  0  0  0  0  0  0  0  0  0
   10.3656   -7.7938    0.0000 O   0  0  0  0  0  0  0  0  0  0  0  0
    6.0788   -8.6188    0.0000 O   0  0  0  0  0  0  0  0  0  0  0  0
   13.9379  -10.6813    0.0000 H   0  0  0  0  0  0  0  0  0  0  0  0
   15.3669   -8.2063    0.0000 H   0  0  0  0  0  0  0  0  0  0  0  0
   14.6524   -9.4438    0.0000 H   0  0  0  0  0  0  0  0  0  0  0  0
  1  2  1  0  0  0  0
  1  3  2  0  0  0  0
  1  4  1  0  0  0  0
  5  6  1  0  0  0  0
  6  7  1  0  0  0  0
  7  8  1  0  0  0  0
  8  9  1  0  0  0  0
  9 10  1  0  0  0  0
  5 10  1  0  0  0  0
 12 13  1  0  0  0  0
 13 14  1  0  0  0  0
 14 15  1  0  0  0  0
 15 16  1  0  0  0  0
 16 17  1  0  0  0  0
 12 17  1  0  0  0  0
 18 19  1  0  0  0  0
 17 18  1  1  0  0  0
 16 20  1  6  0  0  0
 15 21  1  1  0  0  0
 14 22  1  6  0  0  0
 13 11  1  1  0  0  0
  7 11  1  6  0  0  0
  6 23  1  1  0  0  0
 25 26  1  0  0  0  0
 26 27  1  0  0  0  0
 27 28  1  0  0  0  0
 28 29  1  0  0  0  0
 29 30  1  0  0  0  0
 25 30  1  0  0  0  0
 26 31  1  6  0  0  0
 33 34  1  0  0  0  0
 34 35  1  0  0  0  0
 35 36  1  0  0  0  0
 36 37  1  0  0  0  0
 37 38  1  0  0  0  0
 33 38  1  0  0  0  0
 34 39  1  6  0  0  0
 41 42  1  0  0  0  0
 42 43  1  0  0  0  0
 43 44  1  0  0  0  0
 44 45  1  0  0  0  0
 45 46  1  0  0  0  0
 46 47  1  0  0  0  0
 47 48  1  0  0  0  0
 48 49  1  0  0  0  0
 49 50  1  0  0  0  0
 50 51  1  0  0  0  0
 51 52  1  0  0  0  0
 52 53  1  0  0  0  0
 49 53  1  0  0  0  0
 53 54  1  0  0  0  0
 54 55  1  0  0  0  0
 55 56  1  0  0  0  0
 48 56  1  0  0  0  0
 56 57  1  0  0  0  0
 45 57  1  0  0  0  0
 41 57  1  0  0  0  0
 58 59  1  0  0  0  0
 59 60  1  0  0  0  0
 60 61  2  0  0  0  0
 61 62  1  0  0  0  0
 58 62  1  0  0  0  0
 62 63  2  0  0  0  0
 52 60  1  1  0  0  0
 53 64  1  1  0  0  0
 57 65  1  1  0  0  0
 49 66  1  1  0  0  0
 43 40  1  1  0  0  0
 38 40  1  6  0  0  0
 36 67  1  1  0  0  0
 35 32  1  1  0  0  0
 30 32  1  6  0  0  0
 28 68  1  1  0  0  0
 27 24  1  1  0  0  0
 10 24  1  1  0  0  0
  8  4  1  6  0  0  0
 45 69  1  1  0  0  0
 48 70  1  1  0  0  0
 56 71  1  6  0  0  0
M  END
>  <cdx:fragmentId>
85

$$$$
