8201.cdx
  Mrv1902 05222410232D          

 21 20  0  0  0  0            999 V2000
   12.7835   -2.9364    0.0000 C   0  0  0  0  0  0  0  0  0  0  0  0
   12.0691   -3.3489    0.0000 C   0  0  0  0  0  0  0  0  0  0  0  0
   11.3546   -2.9364    0.0000 C   0  0  0  0  0  0  0  0  0  0  0  0
   10.6401   -3.3489    0.0000 C   0  0  0  0  0  0  0  0  0  0  0  0
    9.9256   -2.9364    0.0000 C   0  0  0  0  0  0  0  0  0  0  0  0
    9.2112   -3.3489    0.0000 C   0  0  0  0  0  0  0  0  0  0  0  0
    8.4967   -2.9364    0.0000 C   0  0  0  0  0  0  0  0  0  0  0  0
    7.7822   -3.3489    0.0000 C   0  0  0  0  0  0  0  0  0  0  0  0
    7.0678   -2.9364    0.0000 C   0  0  0  0  0  0  0  0  0  0  0  0
    6.3533   -3.3489    0.0000 C   0  0  0  0  0  0  0  0  0  0  0  0
    5.6388   -2.9364    0.0000 C   0  0  0  0  0  0  0  0  0  0  0  0
    4.9244   -3.3489    0.0000 C   0  0  0  0  0  0  0  0  0  0  0  0
    4.2099   -2.9364    0.0000 C   0  0  0  0  0  0  0  0  0  0  0  0
    3.4954   -3.3489    0.0000 C   0  0  0  0  0  0  0  0  0  0  0  0
    2.7809   -2.9364    0.0000 C   0  0  0  0  0  0  0  0  0  0  0  0
    2.0665   -3.3489    0.0000 C   0  0  0  0  0  0  0  0  0  0  0  0
    1.3520   -2.9364    0.0000 C   0  0  0  0  0  0  0  0  0  0  0  0
    0.6375   -3.3489    0.0000 C   0  0  0  0  0  0  0  0  0  0  0  0
   12.7835   -2.1114    0.0000 O   0  0  0  0  0  0  0  0  0  0  0  0
   13.4980   -3.3489    0.0000 O   0  0  0  0  0  0  0  0  0  0  0  0
   14.2125   -2.9364    0.0000 C   0  0  0  0  0  0  0  0  0  0  0  0
  1  2  1  0  0  0  0
  2  3  1  0  0  0  0
  3  4  1  0  0  0  0
  4  5  1  0  0  0  0
  5  6  1  0  0  0  0
  6  7  1  0  0  0  0
  7  8  1  0  0  0  0
  8  9  1  0  0  0  0
  9 10  1  0  0  0  0
 10 11  1  0  0  0  0
 11 12  1  0  0  0  0
 12 13  1  0  0  0  0
 13 14  1  0  0  0  0
 14 15  1  0  0  0  0
 15 16  1  0  0  0  0
 16 17  1  0  0  0  0
 17 18  1  0  0  0  0
  1 19  2  0  0  0  0
  1 20  1  0  0  0  0
 20 21  1  0  0  0  0
M  END
>  <cdx:groupId>
64

>  <cdx:fragmentId>
5

$$$$
