82025.cdx
  Mrv1902 05222410202D          

 59 62  0  0  0  0            999 V2000
    2.3606   -7.7425    0.0000 C   0  0  0  0  0  0  0  0  0  0  0  0
    3.0750   -7.3300    0.0000 C   0  0  0  0  0  0  0  0  0  0  0  0
    3.7896   -7.7425    0.0000 C   0  0  0  0  0  0  0  0  0  0  0  0
    4.5040   -7.3300    0.0000 C   0  0  0  0  0  0  0  0  0  0  0  0
    4.5040   -6.5050    0.0000 O   0  0  0  0  0  0  0  0  0  0  0  0
    5.2185   -7.7425    0.0000 C   0  0  0  0  0  0  0  0  0  0  0  0
    5.9330   -7.3300    0.0000 C   0  0  0  0  0  0  0  0  0  0  0  0
    6.6474   -7.7425    0.0000 C   0  0  0  0  0  0  0  0  0  0  0  0
    6.6474   -8.5675    0.0000 C   0  0  0  0  0  0  0  0  0  0  0  0
    5.9330   -8.9800    0.0000 C   0  0  0  0  0  0  0  0  0  0  0  0
    5.2185   -8.5675    0.0000 C   0  0  0  0  0  0  0  0  0  0  0  0
    4.5040   -8.9800    0.0000 O   0  0  0  0  0  0  0  0  0  0  0  0
    5.9330  -10.0525    0.0000 C   0  0  0  0  0  0  0  0  0  0  0  0
    5.0041  -10.5887    0.0000 C   0  0  0  0  0  0  0  0  0  0  0  0
    4.2897  -10.1762    0.0000 C   0  0  0  0  0  0  0  0  0  0  0  0
    3.5752  -10.5887    0.0000 C   0  0  0  0  0  0  0  0  0  0  0  0
    3.5752  -11.4137    0.0000 C   0  0  0  0  0  0  0  0  0  0  0  0
    2.8607  -11.8262    0.0000 O   0  0  0  0  0  0  0  0  0  0  0  0
    4.2897  -11.8262    0.0000 C   0  0  0  0  0  0  0  0  0  0  0  0
    5.0041  -11.4137    0.0000 C   0  0  0  0  0  0  0  0  0  0  0  0
    5.7186  -11.8262    0.0000 O   0  0  0  0  0  0  0  0  0  0  0  0
    4.2897  -12.6512    0.0000 C   0  0  0  0  0  0  0  0  0  0  0  0
    5.0041  -13.0637    0.0000 O   0  0  0  0  0  0  0  0  0  0  0  0
    3.5752  -13.0637    0.0000 C   0  0  0  0  0  0  0  0  0  0  0  0
    2.7502  -10.5887    0.0000 C   0  0  0  0  0  0  0  0  0  0  0  0
    3.1627   -9.8743    0.0000 C   0  0  0  0  0  0  0  0  0  0  0  0
    4.2897   -9.3512    0.0000 O   0  0  0  0  0  0  0  0  0  0  0  0
    7.2308   -9.1509    0.0000 O   0  0  0  0  0  0  0  0  0  0  0  0
    7.5763   -7.2062    0.0000 C   0  0  0  0  0  0  0  0  0  0  0  0
    8.5050   -7.7425    0.0000 C   0  0  0  0  0  0  0  0  0  0  0  0
    8.5050   -8.5675    0.0000 C   0  0  0  0  0  0  0  0  0  0  0  0
    9.2195   -8.9800    0.0000 C   0  0  0  0  0  0  0  0  0  0  0  0
    9.9340   -8.5675    0.0000 C   0  0  0  0  0  0  0  0  0  0  0  0
    9.9340   -7.7425    0.0000 C   0  0  0  0  0  0  0  0  0  0  0  0
    9.2195   -7.3300    0.0000 C   0  0  0  0  0  0  0  0  0  0  0  0
    9.2195   -6.5050    0.0000 O   0  0  0  0  0  0  0  0  0  0  0  0
   10.6485   -7.3300    0.0000 C   0  0  0  0  0  0  0  0  0  0  0  0
   10.6485   -6.5050    0.0000 O   0  0  0  0  0  0  0  0  0  0  0  0
   11.3629   -7.7425    0.0000 C   0  0  0  0  0  0  0  0  0  0  0  0
   12.0774   -7.3300    0.0000 C   0  0  0  0  0  0  0  0  0  0  0  0
   12.7919   -7.7425    0.0000 C   0  0  0  0  0  0  0  0  0  0  0  0
   10.6485   -8.9800    0.0000 O   0  0  0  0  0  0  0  0  0  0  0  0
    9.2195  -10.0525    0.0000 C   0  0  0  0  0  0  0  0  0  0  0  0
   10.1483  -10.5887    0.0000 C   0  0  0  0  0  0  0  0  0  0  0  0
   10.8628  -10.1762    0.0000 C   0  0  0  0  0  0  0  0  0  0  0  0
   11.5773  -10.5887    0.0000 C   0  0  0  0  0  0  0  0  0  0  0  0
   11.5773  -11.4137    0.0000 C   0  0  0  0  0  0  0  0  0  0  0  0
   12.2918  -11.8262    0.0000 O   0  0  0  0  0  0  0  0  0  0  0  0
   10.8628  -11.8262    0.0000 C   0  0  0  0  0  0  0  0  0  0  0  0
   10.1483  -11.4137    0.0000 C   0  0  0  0  0  0  0  0  0  0  0  0
    9.4339  -11.8262    0.0000 O   0  0  0  0  0  0  0  0  0  0  0  0
   10.8628  -12.6512    0.0000 C   0  0  0  0  0  0  0  0  0  0  0  0
   10.1483  -13.0637    0.0000 O   0  0  0  0  0  0  0  0  0  0  0  0
   11.5773  -13.0637    0.0000 C   0  0  0  0  0  0  0  0  0  0  0  0
   11.9898   -9.8743    0.0000 C   0  0  0  0  0  0  0  0  0  0  0  0
   12.4023  -10.5887    0.0000 C   0  0  0  0  0  0  0  0  0  0  0  0
   10.8628   -9.3512    0.0000 O   0  0  0  0  0  0  0  0  0  0  0  0
    7.9217   -9.1509    0.0000 O   0  0  0  0  0  0  0  0  0  0  0  0
    5.9330   -6.5050    0.0000 O   0  0  0  0  0  0  0  0  0  0  0  0
  1  2  1  0  0  0  0
  2  3  1  0  0  0  0
  3  4  1  0  0  0  0
  4  5  2  0  0  0  0
  4  6  1  0  0  0  0
  6  7  2  0  0  0  0
  7  8  1  0  0  0  0
  8  9  2  0  0  0  0
  9 10  1  0  0  0  0
 10 11  2  0  0  0  0
  6 11  1  0  0  0  0
 11 12  1  0  0  0  0
 10 13  1  0  0  0  0
 13 14  1  0  0  0  0
 14 15  2  0  0  0  0
 15 16  1  0  0  0  0
 16 17  1  0  0  0  0
 17 18  2  0  0  0  0
 17 19  1  0  0  0  0
 19 20  2  0  0  0  0
 14 20  1  0  0  0  0
 20 21  1  0  0  0  0
 19 22  1  0  0  0  0
 22 23  2  0  0  0  0
 22 24  1  0  0  0  0
 16 25  1  0  0  0  0
 16 26  1  0  0  0  0
 15 27  1  0  0  0  0
  9 28  1  0  0  0  0
  8 29  1  0  0  0  0
 29 30  1  0  0  0  0
 30 31  2  0  0  0  0
 31 32  1  0  0  0  0
 32 33  2  0  0  0  0
 33 34  1  0  0  0  0
 34 35  2  0  0  0  0
 30 35  1  0  0  0  0
 35 36  1  0  0  0  0
 34 37  1  0  0  0  0
 37 38  2  0  0  0  0
 37 39  1  0  0  0  0
 39 40  1  0  0  0  0
 40 41  1  0  0  0  0
 33 42  1  0  0  0  0
 32 43  1  0  0  0  0
 43 44  1  0  0  0  0
 44 45  2  0  0  0  0
 45 46  1  0  0  0  0
 46 47  1  0  0  0  0
 47 48  2  0  0  0  0
 47 49  1  0  0  0  0
 49 50  2  0  0  0  0
 44 50  1  0  0  0  0
 50 51  1  0  0  0  0
 49 52  1  0  0  0  0
 52 53  2  0  0  0  0
 52 54  1  0  0  0  0
 46 55  1  0  0  0  0
 46 56  1  0  0  0  0
 45 57  1  0  0  0  0
 31 58  1  0  0  0  0
  7 59  1  0  0  0  0
M  END
>  <cdx:fragmentId>
1176

$$$$
