8204.cdx
  Mrv1902 05222410212D          

 29 31  0  0  0  0            999 V2000
    3.1589   -9.6937    0.0000 C   0  0  2  0  0  0  0  0  0  0  0  0
    3.1589  -10.5188    0.0000 C   0  0  2  0  0  0  0  0  0  0  0  0
    3.8734  -10.9313    0.0000 C   0  0  1  0  0  0  0  0  0  0  0  0
    4.5878  -10.5188    0.0000 C   0  0  2  0  0  0  0  0  0  0  0  0
    4.5878   -9.6937    0.0000 C   0  0  1  0  0  0  0  0  0  0  0  0
    3.8734   -9.2813    0.0000 O   0  0  0  0  0  0  0  0  0  0  0  0
    3.8734  -11.7562    0.0000 O   0  0  0  0  0  0  0  0  0  0  0  0
    2.4444   -9.2813    0.0000 C   0  0  0  0  0  0  0  0  0  0  0  0
    5.3023   -9.2813    0.0000 O   0  0  0  0  0  0  0  0  0  0  0  0
    5.3023  -10.9313    0.0000 O   0  0  0  0  0  0  0  0  0  0  0  0
    2.4444  -10.9313    0.0000 O   0  0  0  0  0  0  0  0  0  0  0  0
    1.7300   -9.6937    0.0000 O   0  0  0  0  0  0  0  0  0  0  0  0
    6.0168   -8.8688    0.0000 C   0  0  0  0  0  0  0  0  0  0  0  0
    6.7313   -9.2813    0.0000 C   0  0  0  0  0  0  0  0  0  0  0  0
    6.7313  -10.1063    0.0000 C   0  0  0  0  0  0  0  0  0  0  0  0
    7.4457  -10.5188    0.0000 C   0  0  0  0  0  0  0  0  0  0  0  0
    8.1602  -10.1063    0.0000 C   0  0  0  0  0  0  0  0  0  0  0  0
    8.1602   -9.2813    0.0000 C   0  0  0  0  0  0  0  0  0  0  0  0
    7.4457   -8.8687    0.0000 C   0  0  0  0  0  0  0  0  0  0  0  0
    6.0168  -10.5188    0.0000 O   0  0  0  0  0  0  0  0  0  0  0  0
    8.8747  -10.5188    0.0000 O   0  0  0  0  0  0  0  0  0  0  0  0
    7.4457   -8.0437    0.0000 C   0  0  0  0  0  0  0  0  0  0  0  0
    8.1602   -7.6312    0.0000 C   0  0  0  0  0  0  0  0  0  0  0  0
    8.1602   -6.8062    0.0000 C   0  0  0  0  0  0  0  0  0  0  0  0
    7.4457   -6.3937    0.0000 C   0  0  0  0  0  0  0  0  0  0  0  0
    6.7313   -6.8062    0.0000 C   0  0  0  0  0  0  0  0  0  0  0  0
    6.7313   -7.6312    0.0000 C   0  0  0  0  0  0  0  0  0  0  0  0
    8.8747   -6.3937    0.0000 O   0  0  0  0  0  0  0  0  0  0  0  0
    6.0168   -8.0437    0.0000 O   0  0  0  0  0  0  0  0  0  0  0  0
  1  2  1  0  0  0  0
  2  3  1  0  0  0  0
  3  4  1  0  0  0  0
  4  5  1  0  0  0  0
  5  6  1  0  0  0  0
  6  1  1  0  0  0  0
  3  7  1  1  0  0  0
  1  8  1  1  0  0  0
  5  9  1  1  0  0  0
  4 10  1  6  0  0  0
  2 11  1  6  0  0  0
  8 12  1  0  0  0  0
  9 13  1  0  0  0  0
 13 14  1  0  0  0  0
 14 15  2  0  0  0  0
 15 16  1  0  0  0  0
 16 17  2  0  0  0  0
 17 18  1  0  0  0  0
 18 19  2  0  0  0  0
 19 14  1  0  0  0  0
 15 20  1  0  0  0  0
 17 21  1  0  0  0  0
 19 22  1  0  0  0  0
 22 23  2  0  0  0  0
 23 24  1  0  0  0  0
 24 25  2  0  0  0  0
 25 26  1  0  0  0  0
 26 27  2  0  0  0  0
 27 22  1  0  0  0  0
 24 28  1  0  0  0  0
 13 29  2  0  0  0  0
M  END
>  <cdx:fragmentId>
5

$$$$
