820572.cdx
  Mrv1902 05222410212D          

 22 23  0  0  0  0            999 V2000
    4.8680   -6.9850    0.0000 C   0  0  0  0  0  0  0  0  0  0  0  0
    4.8680   -7.8100    0.0000 C   0  0  0  0  0  0  0  0  0  0  0  0
    5.5825   -8.2225    0.0000 C   0  0  0  0  0  0  0  0  0  0  0  0
    6.2970   -7.8100    0.0000 C   0  0  0  0  0  0  0  0  0  0  0  0
    6.2970   -6.9850    0.0000 C   0  0  0  0  0  0  0  0  0  0  0  0
    5.5825   -6.5725    0.0000 C   0  0  0  0  0  0  0  0  0  0  0  0
    7.0114   -8.2225    0.0000 C   0  0  0  0  0  0  0  0  0  0  0  0
    7.7259   -7.8100    0.0000 C   0  0  0  0  0  0  0  0  0  0  0  0
    7.7259   -6.9850    0.0000 C   0  0  0  0  0  0  0  0  0  0  0  0
    7.0114   -6.5725    0.0000 C   0  0  2  0  0  0  0  0  0  0  0  0
    8.4404   -8.2225    0.0000 C   0  0  0  0  0  0  0  0  0  0  0  0
    9.1549   -7.8100    0.0000 C   0  0  2  0  0  0  0  0  0  0  0  0
    9.1549   -6.9850    0.0000 C   0  0  2  0  0  0  0  0  0  0  0  0
    8.4404   -6.5725    0.0000 C   0  0  0  0  0  0  0  0  0  0  0  0
    7.0114   -5.7475    0.0000 C   0  0  0  0  0  0  0  0  0  0  0  0
    6.2970   -5.3350    0.0000 C   0  0  0  0  0  0  0  0  0  0  0  0
    7.7259   -5.3350    0.0000 C   0  0  0  0  0  0  0  0  0  0  0  0
    4.1536   -6.5725    0.0000 C   0  0  0  0  0  0  0  0  0  0  0  0
    7.3975   -7.3975    0.0000 O   0  0  0  0  0  0  0  0  0  0  0  0
    9.8693   -6.5725    0.0000 C   0  0  0  0  0  0  0  0  0  0  0  0
    9.8693   -8.2225    0.0000 O   0  0  0  0  0  0  0  0  0  0  0  0
    7.0114   -9.0475    0.0000 C   0  0  0  0  0  0  0  0  0  0  0  0
  1  2  1  0  0  0  0
  2  3  1  0  0  0  0
  3  4  1  0  0  0  0
  5  6  1  0  0  0  0
  6  1  2  0  0  0  0
  4  7  2  0  0  0  0
  7  8  1  0  0  0  0
  9 10  1  0  0  0  0
 10  5  1  0  0  0  0
  8 11  1  0  0  0  0
 11 12  1  0  0  0  0
 12 13  1  0  0  0  0
 13 14  1  0  0  0  0
 14  9  1  0  0  0  0
 10 15  1  6  0  0  0
 15 16  1  0  0  0  0
 15 17  1  0  0  0  0
  1 18  1  0  0  0  0
 10 19  1  1  0  0  0
 13 20  1  6  0  0  0
 12 21  1  6  0  0  0
  7 22  1  0  0  0  0
 13 19  1  1  0  0  0
M  END
>  <cdx:fragmentId>
211174

$$$$
