8207.cdx
  Mrv1902 05222410212D          

 14 13  0  0  0  0            999 V2000
    2.8199   -1.9948    0.0000 C   0  0  0  0  0  0  0  0  0  0  0  0
    3.5344   -2.4073    0.0000 C   0  0  0  0  0  0  0  0  0  0  0  0
    4.2488   -1.9948    0.0000 C   0  0  0  0  0  0  0  0  0  0  0  0
    4.9633   -2.4073    0.0000 C   0  0  0  0  0  0  0  0  0  0  0  0
    5.6778   -1.9948    0.0000 C   0  0  0  0  0  0  0  0  0  0  0  0
    6.3922   -2.4073    0.0000 C   0  0  0  0  0  0  0  0  0  0  0  0
    7.1067   -1.9948    0.0000 C   0  0  0  0  0  0  0  0  0  0  0  0
    7.8212   -2.4073    0.0000 C   0  0  0  0  0  0  0  0  0  0  0  0
    8.5357   -1.9948    0.0000 C   0  0  0  0  0  0  0  0  0  0  0  0
    9.2501   -2.4073    0.0000 C   0  0  0  0  0  0  0  0  0  0  0  0
    9.9646   -1.9948    0.0000 C   0  0  0  0  0  0  0  0  0  0  0  0
   10.6791   -2.4073    0.0000 C   0  0  0  0  0  0  0  0  0  0  0  0
   11.3935   -1.9948    0.0000 C   0  0  0  0  0  0  0  0  0  0  0  0
    2.1054   -2.4073    0.0000 O   0  0  0  0  0  0  0  0  0  0  0  0
  1  2  1  0  0  0  0
  2  3  1  0  0  0  0
  3  4  1  0  0  0  0
  4  5  1  0  0  0  0
  5  6  1  0  0  0  0
  6  7  1  0  0  0  0
  7  8  1  0  0  0  0
  8  9  1  0  0  0  0
  9 10  1  0  0  0  0
 10 11  1  0  0  0  0
 11 12  1  0  0  0  0
 12 13  1  0  0  0  0
  1 14  1  0  0  0  0
M  END
>  <cdx:groupId>
43

>  <cdx:fragmentId>
5

$$$$
