8209.cdx
  Mrv1902 05222410252D          

 15 14  0  0  0  0            999 V2000
    3.2877   -2.4692    0.0000 C   0  0  0  0  0  0  0  0  0  0  0  0
    4.0021   -2.8817    0.0000 C   0  0  0  0  0  0  0  0  0  0  0  0
    4.7166   -2.4692    0.0000 C   0  0  0  0  0  0  0  0  0  0  0  0
    5.4311   -2.8817    0.0000 C   0  0  0  0  0  0  0  0  0  0  0  0
    6.1455   -2.4692    0.0000 C   0  0  0  0  0  0  0  0  0  0  0  0
    6.8600   -2.8817    0.0000 C   0  0  0  0  0  0  0  0  0  0  0  0
    7.5745   -2.4692    0.0000 C   0  0  0  0  0  0  0  0  0  0  0  0
    8.2890   -2.8817    0.0000 C   0  0  0  0  0  0  0  0  0  0  0  0
    9.0034   -2.4692    0.0000 C   0  0  0  0  0  0  0  0  0  0  0  0
    9.7179   -2.8817    0.0000 C   0  0  0  0  0  0  0  0  0  0  0  0
   10.4324   -2.4692    0.0000 C   0  0  0  0  0  0  0  0  0  0  0  0
   11.1468   -2.8817    0.0000 C   0  0  0  0  0  0  0  0  0  0  0  0
   11.8613   -2.4692    0.0000 C   0  0  0  0  0  0  0  0  0  0  0  0
   12.5758   -2.8817    0.0000 C   0  0  0  0  0  0  0  0  0  0  0  0
    2.5732   -2.8817    0.0000 O   0  0  0  0  0  0  0  0  0  0  0  0
  1  2  1  0  0  0  0
  2  3  1  0  0  0  0
  3  4  1  0  0  0  0
  4  5  1  0  0  0  0
  5  6  1  0  0  0  0
  6  7  1  0  0  0  0
  7  8  1  0  0  0  0
  8  9  1  0  0  0  0
  9 10  1  0  0  0  0
 10 11  1  0  0  0  0
 11 12  1  0  0  0  0
 12 13  1  0  0  0  0
 13 14  1  0  0  0  0
  1 15  1  0  0  0  0
M  END
>  <cdx:groupId>
46

>  <cdx:fragmentId>
5

$$$$
