821347.cdx
  Mrv1902 05222410192D          

 22 25  0  0  0  0            999 V2000
   16.8977  -11.0474    0.0000 C   0  0  0  0  0  0  0  0  0  0  0  0
   16.8977  -10.2224    0.0000 N   0  0  0  0  0  0  0  0  0  0  0  0
   17.6120   -9.8098    0.0000 C   0  0  0  0  0  0  0  0  0  0  0  0
   17.6122   -8.9850    0.0000 C   0  0  0  0  0  0  0  0  0  0  0  0
   16.8975   -8.5728    0.0000 C   0  0  0  0  0  0  0  0  0  0  0  0
   16.8975   -7.7476    0.0000 C   0  0  0  0  0  0  0  0  0  0  0  0
   16.1830   -7.3351    0.0000 C   0  0  0  0  0  0  0  0  0  0  0  0
   15.4686   -7.7476    0.0000 C   0  0  0  0  0  0  0  0  0  0  0  0
   15.4686   -8.5728    0.0000 C   0  0  0  0  0  0  0  0  0  0  0  0
   16.1830   -8.9852    0.0000 C   0  0  0  0  0  0  0  0  0  0  0  0
   16.1830   -9.8100    0.0000 C   0  0  0  0  0  0  0  0  0  0  0  0
   15.4686  -10.2224    0.0000 C   0  0  0  0  0  0  0  0  0  0  0  0
   14.7543   -9.8100    0.0000 C   0  0  0  0  0  0  0  0  0  0  0  0
   14.0398  -10.2224    0.0000 C   0  0  0  0  0  0  0  0  0  0  0  0
   13.3253   -9.8100    0.0000 C   0  0  0  0  0  0  0  0  0  0  0  0
   13.3253   -8.9852    0.0000 C   0  0  0  0  0  0  0  0  0  0  0  0
   14.0398   -8.5728    0.0000 C   0  0  0  0  0  0  0  0  0  0  0  0
   14.7543   -8.9852    0.0000 C   0  0  0  0  0  0  0  0  0  0  0  0
   14.7543   -7.3351    0.0000 O   0  0  0  0  0  0  0  0  0  0  0  0
   14.0398   -7.7476    0.0000 C   0  0  0  0  0  0  0  0  0  0  0  0
   16.1830   -6.5104    0.0000 O   0  0  0  0  0  0  0  0  0  0  0  0
   16.8975   -6.0977    0.0000 C   0  0  0  0  0  0  0  0  0  0  0  0
  1  2  1  0  0  0  0
  2  3  1  0  0  0  0
  3  4  1  0  0  0  0
  4  5  1  0  0  0  0
  5  6  2  0  0  0  0
  6  7  1  0  0  0  0
  7  8  2  0  0  0  0
  8  9  1  0  0  0  0
  9 10  2  0  0  0  0
  5 10  1  0  0  0  0
 10 11  1  0  0  0  0
  2 11  1  0  0  0  0
 11 12  2  0  0  0  0
 12 13  1  0  0  0  0
 13 14  2  0  0  0  0
 14 15  1  0  0  0  0
 15 16  2  0  0  0  0
 16 17  1  0  0  0  0
 17 18  2  0  0  0  0
 13 18  1  0  0  0  0
  9 18  1  0  0  0  0
  8 19  1  0  0  0  0
 19 20  1  0  0  0  0
  7 21  1  0  0  0  0
 21 22  1  0  0  0  0
M  END
>  <cdx:fragmentId>
14651

$$$$
