3082134.cdx
  Mrv1902 05222410212D          

 26 29  0  0  0  0            999 V2000
   16.4986  -13.4565    0.0000 C   0  0  0  0  0  0  0  0  0  0  0  0
   16.9139  -12.7415    0.0000 C   0  0  0  0  0  0  0  0  0  0  0  0
   16.4986  -12.0265    0.0000 C   0  0  0  0  0  0  0  0  0  0  0  0
   15.6736  -12.0265    0.0000 C   0  0  0  0  0  0  0  0  0  0  0  0
   15.2639  -12.7415    0.0000 N   0  3  1  0  0  0  0  0  0  0  0  0
   14.4389  -12.7415    0.0000 C   0  0  0  0  0  0  0  0  0  0  0  0
   14.0236  -13.4565    0.0000 C   0  0  0  0  0  0  0  0  0  0  0  0
   14.4389  -14.1715    0.0000 C   0  0  0  0  0  0  0  0  0  0  0  0
   15.2639  -14.1715    0.0000 C   0  0  0  0  0  0  0  0  0  0  0  0
   15.6736  -13.4565    0.0000 C   0  0  1  0  0  0  0  0  0  0  0  0
   17.7389  -12.7415    0.0000 C   0  0  0  0  0  0  0  0  0  0  0  0
   18.1486  -13.4565    0.0000 C   0  0  0  0  0  0  0  0  0  0  0  0
   17.7389  -14.1715    0.0000 C   0  0  0  0  0  0  0  0  0  0  0  0
   16.9139  -14.1715    0.0000 C   0  0  0  0  0  0  0  0  0  0  0  0
   14.0236  -14.8865    0.0000 C   0  0  0  0  0  0  0  0  0  0  0  0
   13.1986  -14.8865    0.0000 C   0  0  0  0  0  0  0  0  0  0  0  0
   12.7889  -14.1715    0.0000 C   0  0  0  0  0  0  0  0  0  0  0  0
   13.1986  -13.4565    0.0000 C   0  0  0  0  0  0  0  0  0  0  0  0
   14.8486  -12.0265    0.0000 C   0  0  0  0  0  0  0  0  0  0  0  0
   11.9639  -14.1715    0.0000 O   0  0  0  0  0  0  0  0  0  0  0  0
   11.5486  -14.8865    0.0000 C   0  0  0  0  0  0  0  0  0  0  0  0
   18.9736  -13.4565    0.0000 O   0  0  0  0  0  0  0  0  0  0  0  0
   19.3889  -12.7415    0.0000 C   0  0  0  0  0  0  0  0  0  0  0  0
   12.7889  -12.7415    0.0000 O   0  0  0  0  0  0  0  0  0  0  0  0
   18.1486  -14.8865    0.0000 O   0  0  0  0  0  0  0  0  0  0  0  0
   16.0889  -14.1715    0.0000 H   0  0  0  0  0  0  0  0  0  0  0  0
  1  2  1  0  0  0  0
  2  3  1  0  0  0  0
  3  4  1  0  0  0  0
  4  5  1  0  0  0  0
  5  6  1  0  0  0  0
  6  7  1  0  0  0  0
  7  8  1  0  0  0  0
  8  9  1  0  0  0  0
  9 10  1  0  0  0  0
  5 10  1  0  0  0  0
  1 10  1  0  0  0  0
 11 12  1  0  0  0  0
 12 13  2  0  0  0  0
 13 14  1  0  0  0  0
  1 14  2  0  0  0  0
  2 11  2  0  0  0  0
 15 16  1  0  0  0  0
 16 17  2  0  0  0  0
 17 18  1  0  0  0  0
  7 18  2  0  0  0  0
  8 15  2  0  0  0  0
  5 19  1  1  0  0  0
 20 21  1  0  0  0  0
 17 20  1  0  0  0  0
 22 23  1  0  0  0  0
 12 22  1  0  0  0  0
 18 24  1  0  0  0  0
 13 25  1  0  0  0  0
 10 26  1  1  0  0  0
M  CHG  1   5   1
M  END
>  <cdx:fragmentId>
1315

$$$$
