821423.cdx
  Mrv1902 05222410202D          

 23 26  0  0  0  0            999 V2000
    7.4823   -7.6056    0.0000 C   0  0  1  0  0  0  0  0  0  0  0  0
    6.6573   -7.6038    0.0000 C   0  0  0  0  0  0  0  0  0  0  0  0
    6.1494   -8.2540    0.0000 C   0  0  0  0  0  0  0  0  0  0  0  0
    6.3507   -9.0540    0.0000 C   0  0  1  0  0  0  0  0  0  0  0  0
    5.6354   -9.4650    0.0000 C   0  0  1  0  0  0  0  0  0  0  0  0
    5.6336  -10.2900    0.0000 C   0  0  0  0  0  0  0  0  0  0  0  0
    6.3472  -10.7040    0.0000 C   0  0  0  0  0  0  0  0  0  0  0  0
    7.0625  -10.2931    0.0000 C   0  0  1  0  0  0  0  0  0  0  0  0
    7.7761  -10.7071    0.0000 C   0  0  1  0  0  0  0  0  0  0  0  0
    8.4915  -10.2961    0.0000 C   0  0  0  0  0  0  0  0  0  0  0  0
    8.4932   -9.4711    0.0000 O   0  0  0  0  0  0  0  0  0  0  0  0
    7.7797   -9.0571    0.0000 C   0  0  1  0  0  0  0  0  0  0  0  0
    7.0643   -9.4681    0.0000 C   0  0  1  0  0  0  0  0  0  0  0  0
    6.7434   -8.7985    0.0000 O   0  0  0  0  0  0  0  0  0  0  0  0
    6.9060   -8.0740    0.0000 O   0  0  0  0  0  0  0  0  0  0  0  0
    7.9874   -8.2579    0.0000 O   0  0  0  0  0  0  0  0  0  0  0  0
    9.2050  -10.7102    0.0000 O   0  0  0  0  0  0  0  0  0  0  0  0
    7.7743  -11.5321    0.0000 C   0  0  0  0  0  0  0  0  0  0  0  0
    4.9218   -9.0509    0.0000 C   0  0  0  0  0  0  0  0  0  0  0  0
    7.8963   -6.8920    0.0000 C   0  0  0  0  0  0  0  0  0  0  0  0
    5.5913   -8.7317    0.0000 H   0  0  0  0  0  0  0  0  0  0  0  0
    7.0607  -11.1181    0.0000 H   0  0  0  0  0  0  0  0  0  0  0  0
    8.5410   -8.7394    0.0000 H   0  0  0  0  0  0  0  0  0  0  0  0
  1  2  1  0  0  0  0
  2  3  1  0  0  0  0
  3  4  1  0  0  0  0
  4  5  1  0  0  0  0
  5  6  1  0  0  0  0
  6  7  1  0  0  0  0
  7  8  1  0  0  0  0
  8  9  1  0  0  0  0
  9 10  1  0  0  0  0
 10 11  1  0  0  0  0
 11 12  1  0  0  0  0
 12 13  1  0  0  0  0
 13 14  1  1  0  0  0
 14 15  1  0  0  0  0
  1 15  1  0  0  0  0
  1 16  1  0  0  0  0
 16 12  1  0  0  0  0
  8 13  1  0  0  0  0
  4 13  1  0  0  0  0
 10 17  2  0  0  0  0
  9 18  1  1  0  0  0
  5 19  1  1  0  0  0
  1 20  1  1  0  0  0
  4 21  1  1  0  0  0
  8 22  1  1  0  0  0
 12 23  1  6  0  0  0
M  END
>  <cdx:fragmentId>
5

$$$$
