82142.cdx
  Mrv1902 05222410192D          

  9  8  0  0  0  0            999 V2000
    6.8460   -6.2865    0.0000 O   0  0  0  0  0  0  0  0  0  0  0  0
    6.1469   -7.5328    0.0000 C   0  0  1  0  0  0  0  0  0  0  0  0
    6.1570   -8.3577    0.0000 C   0  0  0  0  0  0  0  0  0  0  0  0
    5.4477   -8.7790    0.0000 S   0  0  0  0  0  0  0  0  0  0  0  0
    5.4579   -9.6039    0.0000 C   0  0  0  0  0  0  0  0  0  0  0  0
    6.8562   -7.1115    0.0000 C   0  0  0  0  0  0  0  0  0  0  0  0
    7.5757   -7.5151    0.0000 O   0  0  0  0  0  0  0  0  0  0  0  0
    5.4274   -7.1291    0.0000 N   0  0  0  0  0  0  0  0  0  0  0  0
    4.7282   -8.3753    0.0000 O   0  0  0  0  0  0  0  0  0  0  0  0
  6  1  2  0  0  0  0
  7  6  1  0  0  0  0
  6  2  1  0  0  0  0
  2  3  1  0  0  0  0
  3  4  1  0  0  0  0
  4  5  1  0  0  0  0
  2  8  1  6  0  0  0
  4  9  2  0  0  0  0
M  END
>  <cdx:fragmentId>
3

$$$$
