8214.cdx
  Mrv1902 05222410222D          

 23 24  0  0  0  0            999 V2000
    2.6639   -6.8681    0.0000 C   0  0  0  0  0  0  0  0  0  0  0  0
    2.6639   -7.6931    0.0000 C   0  0  0  0  0  0  0  0  0  0  0  0
    3.3784   -8.1056    0.0000 C   0  0  0  0  0  0  0  0  0  0  0  0
    4.0928   -7.6931    0.0000 C   0  0  0  0  0  0  0  0  0  0  0  0
    4.0928   -6.8681    0.0000 C   0  0  0  0  0  0  0  0  0  0  0  0
    3.3784   -6.4556    0.0000 C   0  0  0  0  0  0  0  0  0  0  0  0
    4.8147   -6.4556    0.0000 C   0  0  0  0  0  0  0  0  0  0  0  0
    5.5292   -6.8681    0.0000 C   0  0  0  0  0  0  0  0  0  0  0  0
    6.2437   -6.4556    0.0000 C   0  0  0  0  0  0  0  0  0  0  0  0
    6.9581   -6.8681    0.0000 C   0  0  0  0  0  0  0  0  0  0  0  0
    7.6726   -6.4556    0.0000 C   0  0  0  0  0  0  0  0  0  0  0  0
    8.3871   -6.8681    0.0000 C   0  0  0  0  0  0  0  0  0  0  0  0
    9.1015   -6.4556    0.0000 C   0  0  0  0  0  0  0  0  0  0  0  0
    9.8160   -6.8681    0.0000 C   0  0  0  0  0  0  0  0  0  0  0  0
    6.2437   -5.6306    0.0000 O   0  0  0  0  0  0  0  0  0  0  0  0
    7.6726   -5.6306    0.0000 O   0  0  0  0  0  0  0  0  0  0  0  0
    9.8160   -7.6931    0.0000 C   0  0  0  0  0  0  0  0  0  0  0  0
   10.5305   -8.1056    0.0000 C   0  0  0  0  0  0  0  0  0  0  0  0
   11.2450   -7.6931    0.0000 C   0  0  0  0  0  0  0  0  0  0  0  0
   11.2450   -6.8681    0.0000 C   0  0  0  0  0  0  0  0  0  0  0  0
   10.5305   -6.4556    0.0000 C   0  0  0  0  0  0  0  0  0  0  0  0
    1.9494   -8.1056    0.0000 O   0  0  0  0  0  0  0  0  0  0  0  0
   11.9594   -8.1056    0.0000 O   0  0  0  0  0  0  0  0  0  0  0  0
  1  2  2  0  0  0  0
  2  3  1  0  0  0  0
  3  4  2  0  0  0  0
  4  5  1  0  0  0  0
  5  6  2  0  0  0  0
  6  1  1  0  0  0  0
  7  8  2  0  0  0  0
  8  9  1  0  0  0  0
  9 10  1  0  0  0  0
 10 11  1  0  0  0  0
 11 12  1  0  0  0  0
 12 13  2  0  0  0  0
 13 14  1  0  0  0  0
  7  5  1  0  0  0  0
  9 15  2  0  0  0  0
 11 16  2  0  0  0  0
 14 17  2  0  0  0  0
 17 18  1  0  0  0  0
 18 19  2  0  0  0  0
 19 20  1  0  0  0  0
 20 21  2  0  0  0  0
 21 14  1  0  0  0  0
  2 22  1  0  0  0  0
 19 23  1  0  0  0  0
M  END
>  <cdx:fragmentId>
21

$$$$
