8215.cdx
  Mrv1902 05222410232D          

 24 23  0  0  0  0            999 V2000
   15.1173   -4.1121    0.0000 C   0  0  0  0  0  0  0  0  0  0  0  0
   14.4029   -4.5246    0.0000 C   0  0  0  0  0  0  0  0  0  0  0  0
   13.6884   -4.1121    0.0000 C   0  0  0  0  0  0  0  0  0  0  0  0
   12.9739   -4.5246    0.0000 C   0  0  0  0  0  0  0  0  0  0  0  0
   12.2595   -4.1121    0.0000 C   0  0  0  0  0  0  0  0  0  0  0  0
   11.5450   -4.5246    0.0000 C   0  0  0  0  0  0  0  0  0  0  0  0
   10.8305   -4.1121    0.0000 C   0  0  0  0  0  0  0  0  0  0  0  0
   10.1161   -4.5246    0.0000 C   0  0  0  0  0  0  0  0  0  0  0  0
    9.4016   -4.1121    0.0000 C   0  0  0  0  0  0  0  0  0  0  0  0
    8.6871   -4.5246    0.0000 C   0  0  0  0  0  0  0  0  0  0  0  0
    7.9726   -4.1121    0.0000 C   0  0  0  0  0  0  0  0  0  0  0  0
    7.2582   -4.5246    0.0000 C   0  0  0  0  0  0  0  0  0  0  0  0
    6.5437   -4.1121    0.0000 C   0  0  0  0  0  0  0  0  0  0  0  0
    5.8292   -4.5246    0.0000 C   0  0  0  0  0  0  0  0  0  0  0  0
    5.1148   -4.1121    0.0000 C   0  0  0  0  0  0  0  0  0  0  0  0
    4.4003   -4.5246    0.0000 C   0  0  0  0  0  0  0  0  0  0  0  0
    3.6858   -4.1121    0.0000 C   0  0  0  0  0  0  0  0  0  0  0  0
    2.9713   -4.5246    0.0000 C   0  0  0  0  0  0  0  0  0  0  0  0
    2.2569   -4.1121    0.0000 C   0  0  0  0  0  0  0  0  0  0  0  0
    1.5424   -4.5246    0.0000 C   0  0  0  0  0  0  0  0  0  0  0  0
    0.8279   -4.1121    0.0000 C   0  0  0  0  0  0  0  0  0  0  0  0
    0.1135   -4.5246    0.0000 C   0  0  0  0  0  0  0  0  0  0  0  0
   15.1173   -3.2871    0.0000 O   0  0  0  0  0  0  0  0  0  0  0  0
   15.8318   -4.5246    0.0000 O   0  0  0  0  0  0  0  0  0  0  0  0
  1  2  1  0  0  0  0
  2  3  1  0  0  0  0
  3  4  1  0  0  0  0
  4  5  1  0  0  0  0
  5  6  1  0  0  0  0
  6  7  1  0  0  0  0
  7  8  1  0  0  0  0
  8  9  1  0  0  0  0
  9 10  1  0  0  0  0
 10 11  1  0  0  0  0
 11 12  1  0  0  0  0
 12 13  1  0  0  0  0
 13 14  1  0  0  0  0
 14 15  1  0  0  0  0
 15 16  1  0  0  0  0
 16 17  1  0  0  0  0
 17 18  1  0  0  0  0
 18 19  1  0  0  0  0
 19 20  1  0  0  0  0
 20 21  1  0  0  0  0
 21 22  1  0  0  0  0
  1 23  2  0  0  0  0
  1 24  1  0  0  0  0
M  END
>  <cdx:groupId>
73

>  <cdx:fragmentId>
5

$$$$
