82158.cdx
  Mrv1902 05222410282D          

 16 16  0  0  0  0            999 V2000
    7.3145   -4.0503    0.0000 C   0  0  0  0  0  0  0  0  0  0  0  0
    6.6048   -4.4709    0.0000 C   0  0  0  0  0  0  0  0  0  0  0  0
    6.6143   -5.2959    0.0000 C   0  0  0  0  0  0  0  0  0  0  0  0
    7.3334   -5.7002    0.0000 C   0  0  0  0  0  0  0  0  0  0  0  0
    8.0431   -5.2795    0.0000 C   0  0  0  0  0  0  0  0  0  0  0  0
    8.0337   -4.4546    0.0000 C   0  0  0  0  0  0  0  0  0  0  0  0
    7.3051   -3.2253    0.0000 O   0  0  0  0  0  0  0  0  0  0  0  0
    8.7434   -4.0339    0.0000 C   0  0  0  0  0  0  0  0  0  0  0  0
    9.4625   -4.4382    0.0000 C   0  0  0  0  0  0  0  0  0  0  0  0
    8.7339   -3.2090    0.0000 C   0  0  0  0  0  0  0  0  0  0  0  0
    7.3429   -6.5251    0.0000 C   0  0  0  0  0  0  0  0  0  0  0  0
    8.0620   -6.9294    0.0000 C   0  0  0  0  0  0  0  0  0  0  0  0
    6.6331   -6.9458    0.0000 C   0  0  0  0  0  0  0  0  0  0  0  0
    5.8857   -4.0666    0.0000 C   0  0  0  0  0  0  0  0  0  0  0  0
    5.8763   -3.2417    0.0000 C   0  0  0  0  0  0  0  0  0  0  0  0
    5.1760   -4.4873    0.0000 C   0  0  0  0  0  0  0  0  0  0  0  0
  1  2  1  0  0  0  0
  2  3  2  0  0  0  0
  3  4  1  0  0  0  0
  4  5  2  0  0  0  0
  5  6  1  0  0  0  0
  1  6  2  0  0  0  0
  1  7  1  0  0  0  0
  8  9  1  0  0  0  0
  8 10  1  0  0  0  0
  6  8  1  0  0  0  0
 11 12  1  0  0  0  0
 11 13  1  0  0  0  0
  4 11  1  0  0  0  0
 14 15  1  0  0  0  0
 14 16  1  0  0  0  0
  2 14  1  0  0  0  0
M  END
>  <cdx:fragmentId>
5

$$$$
