8216.cdx
  Mrv1902 05222410222D          

 24 23  0  0  0  0            999 V2000
    2.9718   -9.0857    0.0000 C   0  0  0  0  0  0  0  0  0  0  0  0
    3.6847   -8.6704    0.0000 C   0  0  0  0  0  0  0  0  0  0  0  0
    4.4008   -9.0802    0.0000 C   0  0  0  0  0  0  0  0  0  0  0  0
    5.1137   -8.6650    0.0000 C   0  0  0  0  0  0  0  0  0  0  0  0
    5.8297   -9.0748    0.0000 C   0  0  0  0  0  0  0  0  0  0  0  0
    6.5426   -8.6595    0.0000 C   0  0  0  0  0  0  0  0  0  0  0  0
    7.2586   -9.0693    0.0000 C   0  0  0  0  0  0  0  0  0  0  0  0
    7.9715   -8.6541    0.0000 C   0  0  0  0  0  0  0  0  0  0  0  0
    8.6876   -9.0639    0.0000 C   0  0  0  0  0  0  0  0  0  0  0  0
    9.4005   -8.6486    0.0000 C   0  0  0  0  0  0  0  0  0  0  0  0
   10.1165   -9.0584    0.0000 C   0  0  0  0  0  0  0  0  0  0  0  0
   10.8294   -8.6432    0.0000 C   0  0  0  0  0  0  0  0  0  0  0  0
   11.5454   -9.0530    0.0000 C   0  0  0  0  0  0  0  0  0  0  0  0
   12.2583   -8.6377    0.0000 C   0  0  0  0  0  0  0  0  0  0  0  0
   12.9744   -9.0475    0.0000 C   0  0  0  0  0  0  0  0  0  0  0  0
   13.6873   -8.6323    0.0000 C   0  0  0  0  0  0  0  0  0  0  0  0
   14.4033   -9.0421    0.0000 C   0  0  0  0  0  0  0  0  0  0  0  0
   15.1162   -8.6268    0.0000 C   0  0  0  0  0  0  0  0  0  0  0  0
   15.8322   -9.0366    0.0000 C   0  0  0  0  0  0  0  0  0  0  0  0
   16.5451   -8.6214    0.0000 C   0  0  0  0  0  0  0  0  0  0  0  0
   17.2612   -9.0311    0.0000 C   0  0  0  0  0  0  0  0  0  0  0  0
   17.9740   -8.6159    0.0000 C   0  0  0  0  0  0  0  0  0  0  0  0
    2.9750   -9.9107    0.0000 O   0  0  0  0  0  0  0  0  0  0  0  0
    2.2558   -8.6759    0.0000 O   0  0  0  0  0  0  0  0  0  0  0  0
  1  2  1  0  0  0  0
  2  3  1  0  0  0  0
  3  4  1  0  0  0  0
  4  5  1  0  0  0  0
  5  6  1  0  0  0  0
  6  7  1  0  0  0  0
  7  8  1  0  0  0  0
  8  9  1  0  0  0  0
  9 10  1  0  0  0  0
 10 11  1  0  0  0  0
 11 12  1  0  0  0  0
 12 13  1  0  0  0  0
 13 14  2  0  0  0  0
 14 15  1  0  0  0  0
 15 16  1  0  0  0  0
 16 17  1  0  0  0  0
 17 18  1  0  0  0  0
 18 19  1  0  0  0  0
 19 20  1  0  0  0  0
 20 21  1  0  0  0  0
 21 22  1  0  0  0  0
  1 23  2  0  0  0  0
  1 24  1  0  0  0  0
M  END
>  <cdx:fragmentId>
5

$$$$
