82184.cdx
  Mrv1902 05222410192D          

 18 17  0  0  0  0            999 V2000
    1.8808   -5.1296    0.0000 C   0  0  0  0  0  0  0  0  0  0  0  0
    2.5953   -5.5421    0.0000 C   0  0  0  0  0  0  0  0  0  0  0  0
    3.3098   -5.1296    0.0000 C   0  0  0  0  0  0  0  0  0  0  0  0
    4.0243   -5.5421    0.0000 C   0  0  0  0  0  0  0  0  0  0  0  0
    4.7387   -5.1296    0.0000 C   0  0  0  0  0  0  0  0  0  0  0  0
    5.4532   -5.5421    0.0000 C   0  0  0  0  0  0  0  0  0  0  0  0
    6.1677   -5.1296    0.0000 C   0  0  0  0  0  0  0  0  0  0  0  0
    6.8821   -5.5421    0.0000 C   0  0  0  0  0  0  0  0  0  0  0  0
    7.5966   -5.1296    0.0000 C   0  0  0  0  0  0  0  0  0  0  0  0
    8.3111   -5.5421    0.0000 C   0  0  0  0  0  0  0  0  0  0  0  0
    9.0256   -5.1296    0.0000 C   0  0  0  0  0  0  0  0  0  0  0  0
    9.7400   -5.5421    0.0000 C   0  0  0  0  0  0  0  0  0  0  0  0
   10.4545   -5.1296    0.0000 C   0  0  0  0  0  0  0  0  0  0  0  0
   11.1690   -5.5421    0.0000 C   0  0  0  0  0  0  0  0  0  0  0  0
   11.8834   -5.1296    0.0000 C   0  0  0  0  0  0  0  0  0  0  0  0
   12.5979   -5.5421    0.0000 C   0  0  0  0  0  0  0  0  0  0  0  0
    1.1664   -5.5421    0.0000 O   0  0  0  0  0  0  0  0  0  0  0  0
   13.3124   -5.1296    0.0000 O   0  0  0  0  0  0  0  0  0  0  0  0
  1  2  1  0  0  0  0
  2  3  1  0  0  0  0
  3  4  1  0  0  0  0
  4  5  1  0  0  0  0
  5  6  1  0  0  0  0
  6  7  1  0  0  0  0
  7  8  1  0  0  0  0
  8  9  1  0  0  0  0
  9 10  1  0  0  0  0
 10 11  1  0  0  0  0
 11 12  1  0  0  0  0
 12 13  1  0  0  0  0
 13 14  1  0  0  0  0
 14 15  1  0  0  0  0
 15 16  1  0  0  0  0
  1 17  1  0  0  0  0
 16 18  1  0  0  0  0
M  END
>  <cdx:fragmentId>
5

$$$$
