821869.cdx
  Mrv1902 05222410232D          

 24 25  0  0  0  0            999 V2000
    8.7809   -5.7721    0.0000 C   0  0  0  0  0  0  0  0  0  0  0  0
    9.4954   -6.1845    0.0000 C   0  0  0  0  0  0  0  0  0  0  0  0
    9.4955   -7.0095    0.0000 C   0  0  2  0  0  0  0  0  0  0  0  0
    8.7811   -7.4221    0.0000 C   0  0  1  0  0  0  0  0  0  0  0  0
    8.0666   -7.0097    0.0000 C   0  0  1  0  0  0  0  0  0  0  0  0
    8.0665   -6.1847    0.0000 C   0  0  0  0  0  0  0  0  0  0  0  0
    8.7808   -4.9471    0.0000 C   0  0  0  0  0  0  0  0  0  0  0  0
    8.0662   -4.5347    0.0000 O   0  0  0  0  0  0  0  0  0  0  0  0
    9.4952   -4.5345    0.0000 O   0  0  0  0  0  0  0  0  0  0  0  0
    7.3522   -7.4223    0.0000 O   0  0  0  0  0  0  0  0  0  0  0  0
   10.2100   -7.4219    0.0000 O   0  0  0  0  0  0  0  0  0  0  0  0
    8.7812   -8.2471    0.0000 O   0  0  0  0  0  0  0  0  0  0  0  0
    8.0668   -8.6597    0.0000 C   0  0  0  0  0  0  0  0  0  0  0  0
    8.0669   -9.4847    0.0000 C   0  0  0  0  0  0  0  0  0  0  0  0
    7.3525   -9.8973    0.0000 C   0  0  0  0  0  0  0  0  0  0  0  0
    7.3523   -8.2473    0.0000 O   0  0  0  0  0  0  0  0  0  0  0  0
    7.3526  -10.7223    0.0000 C   0  0  0  0  0  0  0  0  0  0  0  0
    6.6382  -11.1349    0.0000 C   0  0  0  0  0  0  0  0  0  0  0  0
    6.6383  -11.9599    0.0000 C   0  0  0  0  0  0  0  0  0  0  0  0
    7.3528  -12.3723    0.0000 C   0  0  0  0  0  0  0  0  0  0  0  0
    8.0672  -11.9597    0.0000 C   0  0  0  0  0  0  0  0  0  0  0  0
    8.0671  -11.1347    0.0000 C   0  0  0  0  0  0  0  0  0  0  0  0
    7.3529  -13.1973    0.0000 O   0  0  0  0  0  0  0  0  0  0  0  0
    5.9239  -12.3725    0.0000 O   0  0  0  0  0  0  0  0  0  0  0  0
  1  2  1  0  0  0  0
  2  3  1  0  0  0  0
  3  4  1  0  0  0  0
  4  5  1  0  0  0  0
  5  6  1  0  0  0  0
  1  6  2  0  0  0  0
  7  8  2  0  0  0  0
  7  9  1  0  0  0  0
  1  7  1  0  0  0  0
  5 10  1  6  0  0  0
  3 11  1  1  0  0  0
 13 14  1  0  0  0  0
 14 15  2  0  0  0  0
 13 16  2  0  0  0  0
 17 18  1  0  0  0  0
 18 19  2  0  0  0  0
 19 20  1  0  0  0  0
 20 21  2  0  0  0  0
 21 22  1  0  0  0  0
 17 22  2  0  0  0  0
 20 23  1  0  0  0  0
 19 24  1  0  0  0  0
 15 17  1  0  0  0  0
 12 13  1  0  0  0  0
  4 12  1  6  0  0  0
M  END
>  <cdx:fragmentId>
183737

$$$$
