8219.cdx
  Mrv1902 05222410232D          

 17 17  0  0  0  0            999 V2000
    6.6445   -7.7756    0.0000 C   0  0  0  0  0  0  0  0  0  0  0  0
    6.6445   -8.6006    0.0000 C   0  0  0  0  0  0  0  0  0  0  0  0
    7.3590   -9.0131    0.0000 C   0  0  0  0  0  0  0  0  0  0  0  0
    8.0735   -8.6006    0.0000 C   0  0  0  0  0  0  0  0  0  0  0  0
    8.0735   -7.7756    0.0000 C   0  0  0  0  0  0  0  0  0  0  0  0
    7.3590   -7.3631    0.0000 C   0  0  1  0  0  0  0  0  0  0  0  0
    7.3590   -9.8381    0.0000 C   0  0  0  0  0  0  0  0  0  0  0  0
    5.9301   -7.3631    0.0000 O   0  0  0  0  0  0  0  0  0  0  0  0
    7.3590   -6.5381    0.0000 C   0  0  1  0  0  0  0  0  0  0  0  0
    8.0735   -6.1256    0.0000 C   0  0  0  0  0  0  0  0  0  0  0  0
    8.0735   -5.3006    0.0000 C   0  0  0  0  0  0  0  0  0  0  0  0
    8.7879   -4.8881    0.0000 C   0  0  0  0  0  0  0  0  0  0  0  0
    8.7879   -4.0631    0.0000 C   0  0  0  0  0  0  0  0  0  0  0  0
    8.0735   -3.6506    0.0000 C   0  0  0  0  0  0  0  0  0  0  0  0
    9.5024   -3.6506    0.0000 C   0  0  0  0  0  0  0  0  0  0  0  0
    6.6445   -6.1256    0.0000 C   0  0  0  0  0  0  0  0  0  0  0  0
    8.0735   -6.9506    0.0000 H   0  0  0  0  0  0  0  0  0  0  0  0
  1  2  1  0  0  0  0
  2  3  2  0  0  0  0
  3  4  1  0  0  0  0
  4  5  1  0  0  0  0
  5  6  1  0  0  0  0
  6  1  1  0  0  0  0
  3  7  1  0  0  0  0
  1  8  2  0  0  0  0
  6  9  1  0  0  0  0
  9 10  1  0  0  0  0
 10 11  1  0  0  0  0
 11 12  1  0  0  0  0
 12 13  2  0  0  0  0
 13 14  1  0  0  0  0
 13 15  1  0  0  0  0
  9 16  1  6  0  0  0
  6 17  1  1  0  0  0
M  END
>  <cdx:fragmentId>
5

$$$$
