8220.cdx
  Mrv1902 05222410252D          

 16 16  0  0  0  0            999 V2000
    4.2933   -6.7031    0.0000 C   0  0  0  0  0  0  0  0  0  0  0  0
    4.2933   -7.5281    0.0000 C   0  0  0  0  0  0  0  0  0  0  0  0
    5.0077   -7.9406    0.0000 C   0  0  0  0  0  0  0  0  0  0  0  0
    5.7222   -7.5281    0.0000 C   0  0  0  0  0  0  0  0  0  0  0  0
    5.7222   -6.7031    0.0000 C   0  0  0  0  0  0  0  0  0  0  0  0
    5.0077   -6.2906    0.0000 C   0  0  0  0  0  0  0  0  0  0  0  0
    6.4367   -7.9406    0.0000 C   0  0  0  0  0  0  0  0  0  0  0  0
    7.1512   -7.5281    0.0000 C   0  0  0  0  0  0  0  0  0  0  0  0
    7.1512   -6.7031    0.0000 C   0  0  0  0  0  0  0  0  0  0  0  0
    6.4367   -6.2906    0.0000 C   0  0  0  0  0  0  0  0  0  0  0  0
    5.0077   -5.4656    0.0000 C   0  0  0  0  0  0  0  0  0  0  0  0
    5.0077   -8.7656    0.0000 C   0  0  0  0  0  0  0  0  0  0  0  0
    4.2933   -9.1781    0.0000 C   0  0  0  0  0  0  0  0  0  0  0  0
    5.7222   -9.1781    0.0000 C   0  0  0  0  0  0  0  0  0  0  0  0
    4.2933   -8.3531    0.0000 O   0  0  0  0  0  0  0  0  0  0  0  0
    7.8656   -7.9406    0.0000 C   0  0  0  0  0  0  0  0  0  0  0  0
  1  2  1  0  0  0  0
  2  3  1  0  0  0  0
  5  6  1  0  0  0  0
  6  1  1  0  0  0  0
  4  7  1  0  0  0  0
  7  8  1  0  0  0  0
  8  9  2  0  0  0  0
  9 10  1  0  0  0  0
 10  5  1  0  0  0  0
  6 11  2  0  0  0  0
  3 12  1  0  0  0  0
 12 13  1  0  0  0  0
 12 14  2  0  0  0  0
  3 15  1  0  0  0  0
  8 16  1  0  0  0  0
  5  4  1  0  0  0  0
M  END
>  <cdx:fragmentId>
5

$$$$
