8221.cdx
  Mrv1902 05222410252D          

 19 18  0  0  0  0            999 V2000
    1.6525   -2.9436    0.0000 C   0  0  0  0  0  0  0  0  0  0  0  0
    2.3669   -3.3561    0.0000 C   0  0  0  0  0  0  0  0  0  0  0  0
    3.0814   -2.9436    0.0000 C   0  0  0  0  0  0  0  0  0  0  0  0
    3.7959   -3.3561    0.0000 C   0  0  0  0  0  0  0  0  0  0  0  0
    4.5104   -2.9436    0.0000 C   0  0  0  0  0  0  0  0  0  0  0  0
    5.2248   -3.3561    0.0000 C   0  0  0  0  0  0  0  0  0  0  0  0
    5.9393   -2.9436    0.0000 C   0  0  0  0  0  0  0  0  0  0  0  0
    6.6538   -3.3561    0.0000 C   0  0  0  0  0  0  0  0  0  0  0  0
    7.3682   -2.9436    0.0000 C   0  0  0  0  0  0  0  0  0  0  0  0
    8.0827   -3.3561    0.0000 C   0  0  0  0  0  0  0  0  0  0  0  0
    8.7972   -2.9436    0.0000 C   0  0  0  0  0  0  0  0  0  0  0  0
    9.5116   -3.3561    0.0000 C   0  0  0  0  0  0  0  0  0  0  0  0
   10.2261   -2.9436    0.0000 C   0  0  0  0  0  0  0  0  0  0  0  0
   10.9406   -3.3561    0.0000 C   0  0  0  0  0  0  0  0  0  0  0  0
   11.6551   -2.9436    0.0000 C   0  0  0  0  0  0  0  0  0  0  0  0
   12.3695   -3.3561    0.0000 C   0  0  0  0  0  0  0  0  0  0  0  0
   13.0840   -2.9436    0.0000 C   0  0  0  0  0  0  0  0  0  0  0  0
   13.7985   -3.3561    0.0000 C   0  0  0  0  0  0  0  0  0  0  0  0
    0.9380   -3.3561    0.0000 O   0  0  0  0  0  0  0  0  0  0  0  0
  1  2  1  0  0  0  0
  2  3  1  0  0  0  0
  3  4  1  0  0  0  0
  4  5  1  0  0  0  0
  5  6  1  0  0  0  0
  6  7  1  0  0  0  0
  7  8  1  0  0  0  0
  8  9  1  0  0  0  0
  9 10  1  0  0  0  0
 10 11  1  0  0  0  0
 11 12  1  0  0  0  0
 12 13  1  0  0  0  0
 13 14  1  0  0  0  0
 14 15  1  0  0  0  0
 15 16  1  0  0  0  0
 16 17  1  0  0  0  0
 17 18  1  0  0  0  0
  1 19  1  0  0  0  0
M  END
>  <cdx:groupId>
58

>  <cdx:fragmentId>
5

$$$$
