8222.cdx
  Mrv1902 05222410252D          

 20 19  0  0  0  0            999 V2000
    0.2457   -2.6812    0.0000 C   0  0  0  0  0  0  0  0  0  0  0  0
    0.9601   -2.2687    0.0000 C   0  0  0  0  0  0  0  0  0  0  0  0
    1.6746   -2.6812    0.0000 C   0  0  0  0  0  0  0  0  0  0  0  0
    2.3891   -2.2687    0.0000 C   0  0  0  0  0  0  0  0  0  0  0  0
    3.1035   -2.6812    0.0000 C   0  0  0  0  0  0  0  0  0  0  0  0
    3.8180   -2.2687    0.0000 C   0  0  0  0  0  0  0  0  0  0  0  0
    4.5325   -2.6812    0.0000 C   0  0  0  0  0  0  0  0  0  0  0  0
    5.2469   -2.2687    0.0000 C   0  0  0  0  0  0  0  0  0  0  0  0
    5.9614   -2.6812    0.0000 C   0  0  0  0  0  0  0  0  0  0  0  0
    6.6759   -2.2688    0.0000 C   0  0  0  0  0  0  0  0  0  0  0  0
    7.3904   -2.6812    0.0000 C   0  0  0  0  0  0  0  0  0  0  0  0
    8.1048   -2.2688    0.0000 C   0  0  0  0  0  0  0  0  0  0  0  0
    8.8193   -2.6812    0.0000 C   0  0  0  0  0  0  0  0  0  0  0  0
    9.5338   -2.2688    0.0000 C   0  0  0  0  0  0  0  0  0  0  0  0
   10.2482   -2.6812    0.0000 C   0  0  0  0  0  0  0  0  0  0  0  0
   10.9627   -2.2688    0.0000 C   0  0  0  0  0  0  0  0  0  0  0  0
   11.6772   -2.6812    0.0000 C   0  0  0  0  0  0  0  0  0  0  0  0
   12.3917   -2.2688    0.0000 C   0  0  0  0  0  0  0  0  0  0  0  0
   13.1061   -2.6812    0.0000 C   0  0  0  0  0  0  0  0  0  0  0  0
   13.8206   -2.2688    0.0000 C   0  0  0  0  0  0  0  0  0  0  0  0
  1  2  1  0  0  0  0
  2  3  1  0  0  0  0
  3  4  1  0  0  0  0
  4  5  1  0  0  0  0
  5  6  1  0  0  0  0
  6  7  1  0  0  0  0
  7  8  1  0  0  0  0
  8  9  1  0  0  0  0
  9 10  1  0  0  0  0
 10 11  1  0  0  0  0
 11 12  1  0  0  0  0
 12 13  1  0  0  0  0
 13 14  1  0  0  0  0
 14 15  1  0  0  0  0
 15 16  1  0  0  0  0
 16 17  1  0  0  0  0
 17 18  1  0  0  0  0
 18 19  1  0  0  0  0
 19 20  1  0  0  0  0
M  END
>  <cdx:groupId>
61

>  <cdx:fragmentId>
5

$$$$
