82330.cdx
  Mrv1902 05222410222D          

 21 23  0  0  0  0            999 V2000
    8.2157   -6.5997    0.0000 C   0  0  0  0  0  0  0  0  0  0  0  0
    8.2157   -7.4247    0.0000 C   0  0  0  0  0  0  0  0  0  0  0  0
    7.5013   -7.8372    0.0000 C   0  0  0  0  0  0  0  0  0  0  0  0
    7.5013   -8.6622    0.0000 O   0  0  0  0  0  0  0  0  0  0  0  0
    6.7868   -7.4247    0.0000 C   0  0  0  0  0  0  0  0  0  0  0  0
    6.0723   -7.8372    0.0000 C   0  0  0  0  0  0  0  0  0  0  0  0
    5.3578   -7.4247    0.0000 C   0  0  0  0  0  0  0  0  0  0  0  0
    5.3578   -6.5997    0.0000 C   0  0  0  0  0  0  0  0  0  0  0  0
    6.0723   -6.1872    0.0000 C   0  0  0  0  0  0  0  0  0  0  0  0
    6.7868   -6.5997    0.0000 C   0  0  0  0  0  0  0  0  0  0  0  0
    7.5013   -6.1872    0.0000 O   0  0  0  0  0  0  0  0  0  0  0  0
    8.9302   -6.1872    0.0000 C   0  0  0  0  0  0  0  0  0  0  0  0
    8.9302   -5.3622    0.0000 C   0  0  0  0  0  0  0  0  0  0  0  0
    9.6447   -4.9497    0.0000 C   0  0  0  0  0  0  0  0  0  0  0  0
   10.3591   -5.3622    0.0000 C   0  0  0  0  0  0  0  0  0  0  0  0
   10.3591   -6.1872    0.0000 C   0  0  0  0  0  0  0  0  0  0  0  0
    9.6447   -6.5997    0.0000 C   0  0  0  0  0  0  0  0  0  0  0  0
    4.6434   -6.1872    0.0000 O   0  0  0  0  0  0  0  0  0  0  0  0
    6.0723   -8.6622    0.0000 O   0  0  0  0  0  0  0  0  0  0  0  0
    8.9302   -7.8372    0.0000 O   0  0  0  0  0  0  0  0  0  0  0  0
    8.2157   -4.9497    0.0000 O   0  0  0  0  0  0  0  0  0  0  0  0
  1  2  1  0  0  0  0
  2  3  1  0  0  0  0
  3  4  2  0  0  0  0
  3  5  1  0  0  0  0
  5  6  1  0  0  0  0
  6  7  2  0  0  0  0
  7  8  1  0  0  0  0
  8  9  2  0  0  0  0
  9 10  1  0  0  0  0
  5 10  2  0  0  0  0
 10 11  1  0  0  0  0
  1 11  1  0  0  0  0
  1 12  1  0  0  0  0
 12 13  1  0  0  0  0
 13 14  2  0  0  0  0
 14 15  1  0  0  0  0
 15 16  2  0  0  0  0
 16 17  1  0  0  0  0
 12 17  2  0  0  0  0
  8 18  1  0  0  0  0
  6 19  1  0  0  0  0
  2 20  1  0  0  0  0
 13 21  1  0  0  0  0
M  END
>  <cdx:fragmentId>
1513

$$$$
