3082428.cdx
  Mrv1902 05222410282D          

 20 22  0  0  0  0            999 V2000
   16.5319  -12.8806    0.0000 O   0  0  0  0  0  0  0  0  0  0  0  0
   17.0168  -13.5481    0.0000 C   0  0  0  0  0  0  0  0  0  0  0  0
   16.5319  -14.2155    0.0000 C   0  0  0  0  0  0  0  0  0  0  0  0
   15.7473  -13.9606    0.0000 C   0  0  0  0  0  0  0  0  0  0  0  0
   15.0328  -14.3731    0.0000 C   0  0  0  0  0  0  0  0  0  0  0  0
   14.3184  -13.9606    0.0000 C   0  0  2  0  0  0  0  0  0  0  0  0
   14.3184  -13.1356    0.0000 C   0  0  1  0  0  0  0  0  0  0  0  0
   15.0328  -12.7231    0.0000 C   0  0  0  0  0  0  0  0  0  0  0  0
   15.7473  -13.1356    0.0000 C   0  0  2  0  0  0  0  0  0  0  0  0
   13.6039  -12.7231    0.0000 C   0  0  0  0  0  0  0  0  0  0  0  0
   12.8894  -13.1356    0.0000 C   0  0  0  0  0  0  0  0  0  0  0  0
   12.8894  -13.9606    0.0000 C   0  0  0  0  0  0  0  0  0  0  0  0
   13.6039  -14.3731    0.0000 C   0  0  1  0  0  0  0  0  0  0  0  0
   17.8418  -13.5481    0.0000 O   0  0  0  0  0  0  0  0  0  0  0  0
   13.6039  -11.8981    0.0000 O   0  0  0  0  0  0  0  0  0  0  0  0
   13.6039  -15.1981    0.0000 C   0  0  0  0  0  0  0  0  0  0  0  0
   14.3184  -14.7856    0.0000 C   0  0  0  0  0  0  0  0  0  0  0  0
   16.7869  -15.0001    0.0000 C   0  0  0  0  0  0  0  0  0  0  0  0
   15.8335  -12.3151    0.0000 O   0  0  0  0  0  0  0  0  0  0  0  0
   14.3184  -12.3106    0.0000 H   0  0  0  0  0  0  0  0  0  0  0  0
  1  2  1  0  0  0  0
  2  3  1  0  0  0  0
  3  4  2  0  0  0  0
  4  5  1  0  0  0  0
  5  6  1  0  0  0  0
  6  7  1  0  0  0  0
  7  8  1  0  0  0  0
  8  9  1  0  0  0  0
  4  9  1  0  0  0  0
  1  9  1  0  0  0  0
 10 11  1  0  0  0  0
 11 12  1  0  0  0  0
 12 13  1  0  0  0  0
 13  6  1  0  0  0  0
 10  7  1  0  0  0  0
  2 14  2  0  0  0  0
 10 15  2  0  0  0  0
 13 16  1  6  0  0  0
  6 17  1  6  0  0  0
  3 18  1  0  0  0  0
  9 19  1  1  0  0  0
  7 20  1  1  0  0  0
M  END
>  <cdx:groupId>
1647

>  <cdx:fragmentId>
1588

$$$$
