82436.cdx
  Mrv1902 05222410192D          

 24 23  0  0  0  0            999 V2000
    4.3538   -8.8622    0.0000 C   0  0  0  0  0  0  0  0  0  0  0  0
    5.0683   -8.4497    0.0000 C   0  0  0  0  0  0  0  0  0  0  0  0
    5.7828   -8.8622    0.0000 C   0  0  0  0  0  0  0  0  0  0  0  0
    6.4972   -8.4497    0.0000 C   0  0  0  0  0  0  0  0  0  0  0  0
    7.2117   -8.8622    0.0000 C   0  0  0  0  0  0  0  0  0  0  0  0
    7.9262   -8.4497    0.0000 C   0  0  0  0  0  0  0  0  0  0  0  0
    8.6407   -8.8622    0.0000 C   0  0  0  0  0  0  0  0  0  0  0  0
    9.3551   -8.4497    0.0000 C   0  0  0  0  0  0  0  0  0  0  0  0
   10.0696   -8.8622    0.0000 C   0  0  0  0  0  0  0  0  0  0  0  0
   10.7841   -8.4497    0.0000 C   0  0  0  0  0  0  0  0  0  0  0  0
   11.4985   -8.8622    0.0000 C   0  0  0  0  0  0  0  0  0  0  0  0
   12.2130   -8.4497    0.0000 C   0  0  0  0  0  0  0  0  0  0  0  0
   12.9275   -8.8622    0.0000 C   0  0  0  0  0  0  0  0  0  0  0  0
   13.6420   -8.4497    0.0000 C   0  0  0  0  0  0  0  0  0  0  0  0
   14.3564   -8.8622    0.0000 C   0  0  0  0  0  0  0  0  0  0  0  0
   15.0709   -8.4497    0.0000 C   0  0  0  0  0  0  0  0  0  0  0  0
   15.7854   -8.8622    0.0000 C   0  0  0  0  0  0  0  0  0  0  0  0
   16.4998   -8.4497    0.0000 C   0  0  0  0  0  0  0  0  0  0  0  0
   17.2143   -8.8622    0.0000 C   0  0  0  0  0  0  0  0  0  0  0  0
   17.9288   -8.4497    0.0000 C   0  0  0  0  0  0  0  0  0  0  0  0
   18.6433   -8.8622    0.0000 C   0  0  0  0  0  0  0  0  0  0  0  0
   19.3577   -8.4497    0.0000 C   0  0  0  0  0  0  0  0  0  0  0  0
   20.0722   -8.8622    0.0000 C   0  0  0  0  0  0  0  0  0  0  0  0
   20.7867   -8.4497    0.0000 C   0  0  0  0  0  0  0  0  0  0  0  0
  1  2  2  0  0  0  0
  2  3  1  0  0  0  0
  3  4  1  0  0  0  0
  4  5  1  0  0  0  0
  5  6  1  0  0  0  0
  6  7  1  0  0  0  0
  7  8  1  0  0  0  0
  8  9  1  0  0  0  0
  9 10  1  0  0  0  0
 10 11  1  0  0  0  0
 11 12  1  0  0  0  0
 12 13  1  0  0  0  0
 13 14  1  0  0  0  0
 14 15  1  0  0  0  0
 15 16  1  0  0  0  0
 16 17  1  0  0  0  0
 17 18  1  0  0  0  0
 18 19  1  0  0  0  0
 19 20  1  0  0  0  0
 20 21  1  0  0  0  0
 21 22  1  0  0  0  0
 22 23  1  0  0  0  0
 23 24  1  0  0  0  0
M  END
>  <cdx:groupId>
73

>  <cdx:fragmentId>
5

$$$$
