8247.cdx
  Mrv1902 05222410262D          

 12 13  0  0  0  0            999 V2000
    5.2452   -8.3414    0.0000 C   0  0  1  0  0  0  0  0  0  0  0  0
    6.0419   -8.1273    0.0000 C   0  0  1  0  0  0  0  0  0  0  0  0
    6.8386   -8.3414    0.0000 C   0  0  0  0  0  0  0  0  0  0  0  0
    7.2523   -7.6277    0.0000 C   0  0  0  0  0  0  0  0  0  0  0  0
    5.6588   -7.6277    0.0000 C   0  0  0  0  0  0  0  0  0  0  0  0
    6.4555   -7.4136    0.0000 C   0  0  1  0  0  0  0  0  0  0  0  0
    6.0433   -6.6999    0.0000 C   0  0  0  0  0  0  0  0  0  0  0  0
    6.6267   -6.1166    0.0000 C   0  0  0  0  0  0  0  0  0  0  0  0
    5.3289   -6.2874    0.0000 C   0  0  0  0  0  0  0  0  0  0  0  0
    5.8025   -8.8825    0.0000 C   0  0  0  0  0  0  0  0  0  0  0  0
    6.9300   -6.8200    0.0000 H   0  0  0  0  0  0  0  0  0  0  0  0
    4.8327   -9.0559    0.0000 O   0  0  0  0  0  0  0  0  0  0  0  0
  1  2  1  0  0  0  0
  2  3  1  0  0  0  0
  3  4  1  0  0  0  0
  1  5  1  0  0  0  0
  5  6  1  0  0  0  0
  4  6  1  0  0  0  0
  6  7  1  0  0  0  0
  2  7  1  0  0  0  0
  7  8  1  0  0  0  0
  7  9  1  0  0  0  0
  2 10  1  1  0  0  0
  6 11  1  6  0  0  0
  1 12  1  6  0  0  0
M  END
>  <cdx:groupId>
799

>  <cdx:fragmentId>
800

$$$$
