8250.cdx
  Mrv1902 05222410272D          

 15 16  0  0  0  0            999 V2000
    5.0802   -8.9189    0.0000 C   0  0  0  0  0  0  0  0  0  0  0  0
    5.8769   -8.7048    0.0000 C   0  0  0  0  0  0  0  0  0  0  0  0
    6.6736   -8.9189    0.0000 C   0  0  0  0  0  0  0  0  0  0  0  0
    7.0873   -8.2052    0.0000 C   0  0  0  0  0  0  0  0  0  0  0  0
    5.4938   -8.2052    0.0000 C   0  0  0  0  0  0  0  0  0  0  0  0
    6.2905   -7.9911    0.0000 C   0  0  0  0  0  0  0  0  0  0  0  0
    5.8783   -7.2774    0.0000 C   0  0  0  0  0  0  0  0  0  0  0  0
    5.1639   -6.8649    0.0000 C   0  0  0  0  0  0  0  0  0  0  0  0
    6.4617   -6.6941    0.0000 C   0  0  0  0  0  0  0  0  0  0  0  0
    7.0050   -7.5786    0.0000 C   0  0  0  0  0  0  0  0  0  0  0  0
    7.9123   -8.2052    0.0000 O   0  0  0  0  0  0  0  0  0  0  0  0
    8.7373   -8.2052    0.0000 C   0  0  0  0  0  0  0  0  0  0  0  0
    8.7373   -7.3802    0.0000 O   0  0  0  0  0  0  0  0  0  0  0  0
    9.5623   -8.2052    0.0000 C   0  0  0  0  0  0  0  0  0  0  0  0
   10.1456   -8.7886    0.0000 C   0  0  0  0  0  0  0  0  0  0  0  0
  1  2  1  0  0  0  0
  2  3  1  0  0  0  0
  3  4  1  0  0  0  0
  1  5  1  0  0  0  0
  5  6  1  0  0  0  0
  4  6  1  0  0  0  0
  6  7  1  0  0  0  0
  2  7  1  0  0  0  0
  7  8  1  0  0  0  0
  7  9  1  0  0  0  0
  6 10  1  0  0  0  0
  4 11  1  0  0  0  0
 11 12  1  0  0  0  0
 12 13  2  0  0  0  0
 12 14  1  0  0  0  0
 14 15  2  0  0  0  0
M  END
>  <cdx:groupId>
799

>  <cdx:fragmentId>
800

$$$$
