8251.cdx
  Mrv1902 05222410272D          

 16 17  0  0  0  0            999 V2000
    5.5445   -4.3106    0.0000 C   0  0  0  0  0  0  0  0  0  0  0  0
    5.5445   -5.1356    0.0000 C   0  0  0  0  0  0  0  0  0  0  0  0
    6.2590   -5.5481    0.0000 C   0  0  0  0  0  0  0  0  0  0  0  0
    6.9735   -5.1356    0.0000 C   0  0  0  0  0  0  0  0  0  0  0  0
    6.9735   -4.3106    0.0000 C   0  0  0  0  0  0  0  0  0  0  0  0
    6.2590   -3.8981    0.0000 C   0  0  0  0  0  0  0  0  0  0  0  0
    8.4024   -5.1356    0.0000 O   0  0  0  0  0  0  0  0  0  0  0  0
    8.4024   -4.3106    0.0000 C   0  0  0  0  0  0  0  0  0  0  0  0
    7.6879   -3.8981    0.0000 O   0  0  0  0  0  0  0  0  0  0  0  0
    9.8314   -4.3106    0.0000 C   0  0  0  0  0  0  0  0  0  0  0  0
    9.1169   -3.8981    0.0000 C   0  0  0  0  0  0  0  0  0  0  0  0
    9.1169   -3.0731    0.0000 C   0  0  0  0  0  0  0  0  0  0  0  0
    6.2590   -3.0731    0.0000 C   0  0  0  0  0  0  0  0  0  0  0  0
    6.0115   -4.6951    0.0000 C   0  0  0  0  0  0  0  0  0  0  0  0
    5.2146   -4.4816    0.0000 C   0  0  0  0  0  0  0  0  0  0  0  0
    5.2146   -4.9086    0.0000 C   0  0  0  0  0  0  0  0  0  0  0  0
  1  2  1  0  0  0  0
  2  3  1  0  0  0  0
  3  4  1  0  0  0  0
  4  5  1  0  0  0  0
  5  6  1  0  0  0  0
  6  1  1  0  0  0  0
  7  8  2  0  0  0  0
  8  9  1  0  0  0  0
  9  5  1  0  0  0  0
 10 11  1  0  0  0  0
 11  8  1  0  0  0  0
 11 12  1  0  0  0  0
  6 13  1  0  0  0  0
  6 14  1  0  0  0  0
  3 14  1  0  0  0  0
 14 15  1  0  0  0  0
 14 16  1  0  0  0  0
M  END
>  <cdx:fragmentId>
5

$$$$
