8252.cdx
  Mrv1902 05222410262D          

 15 16  0  0  0  0            999 V2000
    8.0779   -8.4483    0.0000 C   0  0  0  0  0  0  0  0  0  0  0  0
    8.7924   -8.0358    0.0000 C   0  0  0  0  0  0  0  0  0  0  0  0
    9.5069   -8.4483    0.0000 C   0  0  0  0  0  0  0  0  0  0  0  0
    8.0779   -9.2733    0.0000 O   0  0  0  0  0  0  0  0  0  0  0  0
    7.3634   -8.0358    0.0000 O   0  0  0  0  0  0  0  0  0  0  0  0
    5.9345   -8.0358    0.0000 C   0  0  0  0  0  0  0  0  0  0  0  0
    6.6490   -8.4483    0.0000 C   0  0  0  0  0  0  0  0  0  0  0  0
    6.6490   -9.2733    0.0000 C   0  0  0  0  0  0  0  0  0  0  0  0
    5.9345   -9.6858    0.0000 C   0  0  0  0  0  0  0  0  0  0  0  0
    5.2200   -9.2733    0.0000 C   0  0  0  0  0  0  0  0  0  0  0  0
    5.2200   -8.4483    0.0000 C   0  0  0  0  0  0  0  0  0  0  0  0
    5.5989   -8.8612    0.0000 C   0  0  0  0  0  0  0  0  0  0  0  0
    4.8844   -9.2737    0.0000 C   0  0  0  0  0  0  0  0  0  0  0  0
    4.8844   -8.4487    0.0000 C   0  0  0  0  0  0  0  0  0  0  0  0
    5.9345   -7.2108    0.0000 C   0  0  0  0  0  0  0  0  0  0  0  0
  1  2  1  0  0  0  0
  2  3  1  0  0  0  0
  1  4  2  0  0  0  0
  1  5  1  0  0  0  0
  6  7  1  0  0  0  0
  7  8  1  0  0  0  0
  8  9  1  0  0  0  0
  9 10  1  0  0  0  0
 10 11  1  0  0  0  0
  6 11  1  0  0  0  0
  6 12  1  0  0  0  0
 12  9  1  0  0  0  0
 12 13  1  0  0  0  0
 12 14  1  0  0  0  0
  6 15  1  0  0  0  0
  5  7  1  0  0  0  0
M  END
>  <cdx:fragmentId>
15

$$$$
