825675.cdx
  Mrv1902 05222410262D          

 71 78  0  0  0  0            999 V2000
   12.6964  -10.5861    0.0000 C   0  0  2  0  0  0  0  0  0  0  0  0
   12.7035   -9.7611    0.0000 C   0  0  2  0  0  0  0  0  0  0  0  0
   11.9926   -9.3425    0.0000 C   0  0  0  0  0  0  0  0  0  0  0  0
   11.2746   -9.7489    0.0000 C   0  0  2  0  0  0  0  0  0  0  0  0
   11.2675  -10.5738    0.0000 C   0  0  1  0  0  0  0  0  0  0  0  0
   11.9785  -10.9924    0.0000 C   0  0  2  0  0  0  0  0  0  0  0  0
   13.4073  -11.0047    0.0000 C   0  0  1  0  0  0  0  0  0  0  0  0
   14.1253  -10.5983    0.0000 C   0  0  0  0  0  0  0  0  0  0  0  0
   14.1324   -9.7734    0.0000 C   0  0  2  0  0  0  0  0  0  0  0  0
   13.4215   -9.3548    0.0000 C   0  0  2  0  0  0  0  0  0  0  0  0
   14.8504   -9.3670    0.0000 C   0  0  1  0  0  0  0  0  0  0  0  0
   14.8575   -8.5420    0.0000 C   0  0  0  0  0  0  0  0  0  0  0  0
   14.1465   -8.1234    0.0000 C   0  0  0  0  0  0  0  0  0  0  0  0
   13.4286   -8.5298    0.0000 C   0  0  0  0  0  0  0  0  0  0  0  0
   15.5613   -9.7856    0.0000 C   0  0  0  0  0  0  0  0  0  0  0  0
   16.2793   -9.3793    0.0000 C   0  0  0  0  0  0  0  0  0  0  0  0
   16.2863   -8.5543    0.0000 C   0  0  2  0  0  0  0  0  0  0  0  0
   15.5754   -8.1357    0.0000 C   0  0  1  0  0  0  0  0  0  0  0  0
   17.0043   -8.1479    0.0000 C   0  0  0  0  0  0  0  0  0  0  0  0
   17.0114   -7.3230    0.0000 C   0  0  0  0  0  0  0  0  0  0  0  0
   16.3005   -6.9044    0.0000 C   0  0  2  0  0  0  0  0  0  0  0  0
   15.5825   -7.3107    0.0000 C   0  0  2  0  0  0  0  0  0  0  0  0
   16.3076   -6.0794    0.0000 C   0  0  0  0  0  0  0  0  0  0  0  0
   14.8716   -6.8921    0.0000 C   0  0  0  0  0  0  0  0  0  0  0  0
   14.8645   -7.7171    0.0000 H   0  0  0  0  0  0  0  0  0  0  0  0
   16.9973   -8.9729    0.0000 C   0  0  0  0  0  0  0  0  0  0  0  0
   17.7152   -8.5665    0.0000 O   0  0  0  0  0  0  0  0  0  0  0  0
   16.9902   -9.7979    0.0000 O   0  0  0  0  0  0  0  0  0  0  0  0
   14.8433  -10.1920    0.0000 C   0  0  0  0  0  0  0  0  0  0  0  0
   14.1395   -8.9484    0.0000 C   0  0  0  0  0  0  0  0  0  0  0  0
   13.4144  -10.1797    0.0000 H   0  0  0  0  0  0  0  0  0  0  0  0
   12.7106   -8.9361    0.0000 C   0  0  0  0  0  0  0  0  0  0  0  0
   12.6894  -11.4111    0.0000 H   0  0  0  0  0  0  0  0  0  0  0  0
   13.4003  -11.8297    0.0000 O   0  0  0  0  0  0  0  0  0  0  0  0
   12.3848  -11.7104    0.0000 C   0  0  0  0  0  0  0  0  0  0  0  0
   11.5598  -11.7034    0.0000 C   0  0  0  0  0  0  0  0  0  0  0  0
   10.5496  -10.9802    0.0000 O   0  0  0  0  0  0  0  0  0  0  0  0
   10.5637   -9.3303    0.0000 O   0  0  0  0  0  0  0  0  0  0  0  0
   11.9662  -12.4213    0.0000 O   0  0  0  0  0  0  0  0  0  0  0  0
   18.4261   -8.9852    0.0000 C   0  0  2  0  0  0  0  0  0  0  0  0
   18.4156   -9.8101    0.0000 O   0  0  0  0  0  0  0  0  0  0  0  0
   19.1247  -10.2317    0.0000 C   0  0  1  0  0  0  0  0  0  0  0  0
   19.8444   -9.8101    0.0000 C   0  0  2  0  0  0  0  0  0  0  0  0
   19.8444   -8.9852    0.0000 C   0  0  1  0  0  0  0  0  0  0  0  0
   19.1247   -8.5635    0.0000 C   0  0  1  0  0  0  0  0  0  0  0  0
   19.1220  -11.0567    0.0000 C   0  0  0  0  0  0  0  0  0  0  0  0
   20.5602   -8.5749    0.0000 O   0  0  0  0  0  0  0  0  0  0  0  0
   19.1193   -7.7385    0.0000 O   0  0  0  0  0  0  0  0  0  0  0  0
   20.5602  -10.2203    0.0000 O   0  0  0  0  0  0  0  0  0  0  0  0
   19.8351  -11.4715    0.0000 O   0  0  0  0  0  0  0  0  0  0  0  0
   19.8325  -12.2965    0.0000 C   0  0  2  0  0  0  0  0  0  0  0  0
   19.1187  -12.7102    0.0000 O   0  0  0  0  0  0  0  0  0  0  0  0
   19.1187  -13.5352    0.0000 C   0  0  1  0  0  0  0  0  0  0  0  0
   19.8325  -13.9465    0.0000 C   0  0  2  0  0  0  0  0  0  0  0  0
   20.5462  -13.5352    0.0000 C   0  0  1  0  0  0  0  0  0  0  0  0
   20.5462  -12.7102    0.0000 C   0  0  1  0  0  0  0  0  0  0  0  0
   18.4044  -13.9480    0.0000 C   0  0  0  0  0  0  0  0  0  0  0  0
   21.2606  -13.9480    0.0000 O   0  0  0  0  0  0  0  0  0  0  0  0
   21.2611  -12.2983    0.0000 O   0  0  0  0  0  0  0  0  0  0  0  0
   19.8325  -14.7715    0.0000 O   0  0  0  0  0  0  0  0  0  0  0  0
   17.6897  -13.5358    0.0000 O   0  0  0  0  0  0  0  0  0  0  0  0
   19.1180  -15.1840    0.0000 C   0  0  2  0  0  0  0  0  0  0  0  0
   18.4035  -14.7715    0.0000 O   0  0  0  0  0  0  0  0  0  0  0  0
   17.6890  -15.1840    0.0000 C   0  0  2  0  0  0  0  0  0  0  0  0
   17.6890  -16.0090    0.0000 C   0  0  1  0  0  0  0  0  0  0  0  0
   18.4035  -16.4215    0.0000 C   0  0  2  0  0  0  0  0  0  0  0  0
   19.1180  -16.0090    0.0000 C   0  0  1  0  0  0  0  0  0  0  0  0
   16.9746  -16.4215    0.0000 O   0  0  0  0  0  0  0  0  0  0  0  0
   18.4035  -17.2465    0.0000 O   0  0  0  0  0  0  0  0  0  0  0  0
   19.8325  -16.4215    0.0000 O   0  0  0  0  0  0  0  0  0  0  0  0
   16.9746  -14.7715    0.0000 C   0  0  0  0  0  0  0  0  0  0  0  0
  1  2  1  0  0  0  0
  2  3  1  0  0  0  0
  3  4  1  0  0  0  0
  4  5  1  0  0  0  0
  5  6  1  0  0  0  0
  6  1  1  0  0  0  0
  1  7  1  0  0  0  0
  7  8  1  0  0  0  0
  8  9  1  0  0  0  0
  9 10  1  0  0  0  0
 10  2  1  0  0  0  0
  9 11  1  0  0  0  0
 11 12  1  0  0  0  0
 12 13  2  0  0  0  0
 13 14  1  0  0  0  0
 14 10  1  0  0  0  0
 11 15  1  0  0  0  0
 15 16  1  0  0  0  0
 16 17  1  0  0  0  0
 17 18  1  0  0  0  0
 18 12  1  0  0  0  0
 17 19  1  0  0  0  0
 19 20  1  0  0  0  0
 20 21  1  0  0  0  0
 21 22  1  0  0  0  0
 22 18  1  0  0  0  0
 21 23  1  6  0  0  0
 22 24  1  1  0  0  0
 18 25  1  1  0  0  0
 17 26  1  1  0  0  0
 26 27  1  0  0  0  0
 26 28  2  0  0  0  0
 11 29  1  6  0  0  0
  9 30  1  1  0  0  0
 10 31  1  6  0  0  0
  2 32  1  1  0  0  0
  1 33  1  6  0  0  0
  7 34  1  1  0  0  0
  6 35  1  1  0  0  0
  6 36  1  0  0  0  0
  5 37  1  1  0  0  0
  4 38  1  6  0  0  0
 36 39  1  0  0  0  0
 40 27  1  1  0  0  0
 40 41  1  0  0  0  0
 41 42  1  0  0  0  0
 42 43  1  0  0  0  0
 43 44  1  0  0  0  0
 44 45  1  0  0  0  0
 45 40  1  0  0  0  0
 42 46  1  1  0  0  0
 44 47  1  1  0  0  0
 45 48  1  6  0  0  0
 43 49  1  6  0  0  0
 46 50  1  0  0  0  0
 51 50  1  1  0  0  0
 51 52  1  0  0  0  0
 52 53  1  0  0  0  0
 53 54  1  0  0  0  0
 54 55  1  0  0  0  0
 55 56  1  0  0  0  0
 56 51  1  0  0  0  0
 53 57  1  1  0  0  0
 55 58  1  1  0  0  0
 56 59  1  6  0  0  0
 54 60  1  6  0  0  0
 57 61  1  0  0  0  0
 62 60  1  1  0  0  0
 62 63  1  0  0  0  0
 63 64  1  0  0  0  0
 64 65  1  0  0  0  0
 65 66  1  0  0  0  0
 66 67  1  0  0  0  0
 67 62  1  0  0  0  0
 65 68  1  1  0  0  0
 66 69  1  6  0  0  0
 67 70  1  6  0  0  0
 64 71  1  6  0  0  0
M  END
>  <cdx:fragmentId>
734

$$$$
