8256.cdx
  Mrv1902 05222410282D          

 32 34  0  0  0  0            999 V2000
    3.1795   -6.3731    0.0000 C   0  0  0  0  0  0  0  0  0  0  0  0
    3.1795   -7.1981    0.0000 C   0  0  0  0  0  0  0  0  0  0  0  0
    3.8940   -7.6106    0.0000 C   0  0  0  0  0  0  0  0  0  0  0  0
    4.6085   -7.1981    0.0000 C   0  0  0  0  0  0  0  0  0  0  0  0
    4.6085   -6.3731    0.0000 C   0  0  0  0  0  0  0  0  0  0  0  0
    3.8940   -5.9606    0.0000 C   0  0  0  0  0  0  0  0  0  0  0  0
    5.3229   -7.6106    0.0000 C   0  0  0  0  0  0  0  0  0  0  0  0
    6.0374   -7.1981    0.0000 C   0  0  0  0  0  0  0  0  0  0  0  0
    6.0374   -6.3731    0.0000 C   0  0  0  0  0  0  0  0  0  0  0  0
    5.3229   -5.9606    0.0000 O   0  0  0  0  0  0  0  0  0  0  0  0
    6.7519   -5.9606    0.0000 C   0  0  0  0  0  0  0  0  0  0  0  0
    6.7519   -5.1356    0.0000 C   0  0  0  0  0  0  0  0  0  0  0  0
    7.4664   -6.3731    0.0000 C   0  0  0  0  0  0  0  0  0  0  0  0
    8.1808   -5.9606    0.0000 C   0  0  0  0  0  0  0  0  0  0  0  0
    8.1808   -5.1356    0.0000 C   0  0  0  0  0  0  0  0  0  0  0  0
    7.4664   -4.7231    0.0000 C   0  0  0  0  0  0  0  0  0  0  0  0
    2.4651   -5.9606    0.0000 O   0  0  0  0  0  0  0  0  0  0  0  0
    3.8940   -8.4356    0.0000 O   0  0  0  0  0  0  0  0  0  0  0  0
    5.3229   -8.4356    0.0000 O   0  0  0  0  0  0  0  0  0  0  0  0
    8.8953   -4.7231    0.0000 O   0  0  0  0  0  0  0  0  0  0  0  0
    7.4664   -3.8981    0.0000 C   0  0  0  0  0  0  0  0  0  0  0  0
    6.7519   -3.4856    0.0000 C   0  0  0  0  0  0  0  0  0  0  0  0
    6.7519   -2.6606    0.0000 C   0  0  0  0  0  0  0  0  0  0  0  0
    7.4664   -2.2481    0.0000 C   0  0  0  0  0  0  0  0  0  0  0  0
    6.0374   -3.8981    0.0000 O   0  0  0  0  0  0  0  0  0  0  0  0
    6.0374   -2.2481    0.0000 C   0  0  0  0  0  0  0  0  0  0  0  0
    8.8953   -6.3731    0.0000 C   0  0  0  0  0  0  0  0  0  0  0  0
    8.8953   -7.1981    0.0000 C   0  0  0  0  0  0  0  0  0  0  0  0
    8.1808   -7.6106    0.0000 O   0  0  0  0  0  0  0  0  0  0  0  0
    9.6098   -7.6106    0.0000 C   0  0  0  0  0  0  0  0  0  0  0  0
   10.3242   -7.1981    0.0000 C   0  0  0  0  0  0  0  0  0  0  0  0
    9.6098   -8.4356    0.0000 C   0  0  0  0  0  0  0  0  0  0  0  0
  1  2  2  0  0  0  0
  2  3  1  0  0  0  0
  3  4  2  0  0  0  0
  4  5  1  0  0  0  0
  5  6  2  0  0  0  0
  6  1  1  0  0  0  0
  4  7  1  0  0  0  0
  7  8  1  0  0  0  0
  8  9  2  0  0  0  0
  9 10  1  0  0  0  0
 10  5  1  0  0  0  0
  9 11  1  0  0  0  0
 11 12  2  0  0  0  0
 11 13  1  0  0  0  0
 13 14  2  0  0  0  0
 14 15  1  0  0  0  0
 15 16  2  0  0  0  0
 16 12  1  0  0  0  0
  1 17  1  0  0  0  0
  3 18  1  0  0  0  0
  7 19  2  0  0  0  0
 15 20  1  0  0  0  0
 16 21  1  0  0  0  0
 21 22  1  0  0  0  0
 22 23  1  0  0  0  0
 23 24  1  0  0  0  0
 22 25  1  0  0  0  0
 23 26  2  0  0  0  0
 14 27  1  0  0  0  0
 27 28  1  0  0  0  0
 28 29  1  0  0  0  0
 28 30  1  0  0  0  0
 30 31  2  0  0  0  0
 30 32  1  0  0  0  0
M  END
>  <cdx:fragmentId>
5

$$$$
