8257.cdx
  Mrv1902 05222410282D          

  6  5  0  0  0  0            999 V2000
    4.3949   -4.0964    0.0000 C   0  0  0  0  0  0  0  0  0  0  0  0
    5.1094   -3.6839    0.0000 C   0  0  0  0  0  0  0  0  0  0  0  0
    5.8238   -4.0964    0.0000 C   0  0  0  0  0  0  0  0  0  0  0  0
    6.5383   -3.6839    0.0000 C   0  0  0  0  0  0  0  0  0  0  0  0
    4.3949   -3.2714    0.0000 O   0  0  0  0  0  0  0  0  0  0  0  0
    5.1094   -2.8589    0.0000 C   0  0  0  0  0  0  0  0  0  0  0  0
  1  2  1  0  0  0  0
  2  3  1  0  0  0  0
  3  4  2  0  0  0  0
  2  5  1  0  0  0  0
  2  6  1  0  0  0  0
M  END
>  <cdx:groupId>
19

>  <cdx:fragmentId>
5

$$$$
