826478.cdx
  Mrv1902 05222410232D          

 49 55  0  0  0  0            999 V2000
    3.8977  -10.2551    0.0000 C   0  0  0  0  0  0  0  0  0  0  0  0
    4.6122   -9.8426    0.0000 C   0  0  1  0  0  0  0  0  0  0  0  0
    4.6122   -9.0176    0.0000 C   0  0  2  0  0  0  0  0  0  0  0  0
    3.8977   -8.6051    0.0000 O   0  0  0  0  0  0  0  0  0  0  0  0
    5.3267  -10.2551    0.0000 O   0  0  0  0  0  0  0  0  0  0  0  0
    6.0411   -9.8426    0.0000 C   0  0  1  0  0  0  0  0  0  0  0  0
    6.0411   -9.0176    0.0000 C   0  0  0  0  0  0  0  0  0  0  0  0
    5.3267   -8.6051    0.0000 C   0  0  1  0  0  0  0  0  0  0  0  0
    6.7556  -10.2551    0.0000 O   0  0  0  0  0  0  0  0  0  0  0  0
    7.4701   -9.8426    0.0000 C   0  0  1  0  0  0  0  0  0  0  0  0
    7.4701   -9.0176    0.0000 C   0  0  0  0  0  0  0  0  0  0  0  0
    8.1845  -10.2551    0.0000 C   0  0  0  0  0  0  0  0  0  0  0  0
    8.8990   -9.8426    0.0000 C   0  0  2  0  0  0  0  0  0  0  0  0
    8.8990   -9.0176    0.0000 C   0  0  2  0  0  0  0  0  0  0  0  0
    8.1845   -8.6051    0.0000 C   0  0  0  0  0  0  0  0  0  0  0  0
    9.6135  -10.2551    0.0000 C   0  0  0  0  0  0  0  0  0  0  0  0
   10.3280   -9.8426    0.0000 C   0  0  0  0  0  0  0  0  0  0  0  0
   10.3280   -9.0176    0.0000 C   0  0  2  0  0  0  0  0  0  0  0  0
    9.6135   -8.6051    0.0000 C   0  0  2  0  0  0  0  0  0  0  0  0
   11.0424   -8.6051    0.0000 C   0  0  2  0  0  0  0  0  0  0  0  0
   11.0424   -7.7801    0.0000 C   0  0  2  0  0  0  0  0  0  0  0  0
   10.3280   -7.3676    0.0000 C   0  0  1  0  0  0  0  0  0  0  0  0
    9.6135   -7.7801    0.0000 C   0  0  0  0  0  0  0  0  0  0  0  0
   11.8270   -8.8600    0.0000 C   0  0  0  0  0  0  0  0  0  0  0  0
   12.3120   -8.1926    0.0000 C   0  0  0  0  0  0  0  0  0  0  0  0
   11.8270   -7.5252    0.0000 C   0  0  2  0  0  0  0  0  0  0  0  0
   12.0820   -6.7405    0.0000 C   0  0  0  0  0  0  0  0  0  0  0  0
   12.8666   -6.4856    0.0000 C   0  0  0  0  0  0  0  0  0  0  0  0
   12.8666   -5.6606    0.0000 C   0  0  0  0  0  0  0  0  0  0  0  0
   12.0820   -5.4057    0.0000 O   0  0  0  0  0  0  0  0  0  0  0  0
   11.5971   -6.0731    0.0000 C   0  0  0  0  0  0  0  0  0  0  0  0
   13.5341   -5.1757    0.0000 O   0  0  0  0  0  0  0  0  0  0  0  0
    8.8990   -8.1926    0.0000 C   0  0  0  0  0  0  0  0  0  0  0  0
    8.8990  -10.6676    0.0000 H   0  0  0  0  0  0  0  0  0  0  0  0
   10.3280   -8.1926    0.0000 H   0  0  0  0  0  0  0  0  0  0  0  0
   10.3280   -6.5426    0.0000 O   0  0  0  0  0  0  0  0  0  0  0  0
   11.1287   -6.9596    0.0000 C   0  0  0  0  0  0  0  0  0  0  0  0
   11.1287   -9.4256    0.0000 O   0  0  0  0  0  0  0  0  0  0  0  0
    5.3267   -7.7801    0.0000 O   0  0  0  0  0  0  0  0  0  0  0  0
    9.6135   -9.4301    0.0000 H   0  0  0  0  0  0  0  0  0  0  0  0
    2.4547  -11.0854    0.0000 O   0  0  0  0  0  0  0  0  0  0  0  0
    2.4549  -10.2604    0.0000 C   0  0  2  0  0  0  0  0  0  0  0  0
    3.1695   -9.8481    0.0000 C   0  0  0  0  0  0  0  0  0  0  0  0
    3.1697   -9.0231    0.0000 C   0  0  2  0  0  0  0  0  0  0  0  0
    2.4554   -8.6104    0.0000 O   0  0  0  0  0  0  0  0  0  0  0  0
    1.0260  -10.2600    0.0000 O   0  0  0  0  0  0  0  0  0  0  0  0
    1.7406   -9.8477    0.0000 C   0  0  1  0  0  0  0  0  0  0  0  0
    1.7408   -9.0227    0.0000 C   0  0  2  0  0  0  0  0  0  0  0  0
    1.0264   -8.6100    0.0000 C   0  0  0  0  0  0  0  0  0  0  0  0
  2  1  1  1  0  0  0
  2  3  1  0  0  0  0
  3  4  1  6  0  0  0
  2  5  1  0  0  0  0
  5  6  1  0  0  0  0
  6  7  1  0  0  0  0
  7  8  1  0  0  0  0
  8  3  1  0  0  0  0
  6  9  1  1  0  0  0
 10  9  1  1  0  0  0
 10 11  1  0  0  0  0
 10 12  1  0  0  0  0
 12 13  1  0  0  0  0
 13 14  1  0  0  0  0
 14 15  1  0  0  0  0
 15 11  1  0  0  0  0
 13 16  1  0  0  0  0
 16 17  1  0  0  0  0
 17 18  1  0  0  0  0
 18 19  1  0  0  0  0
 19 14  1  0  0  0  0
 18 20  1  0  0  0  0
 20 21  1  0  0  0  0
 21 22  1  0  0  0  0
 22 23  1  0  0  0  0
 23 19  1  0  0  0  0
 20 24  1  0  0  0  0
 24 25  1  0  0  0  0
 25 26  1  0  0  0  0
 26 21  1  0  0  0  0
 26 27  1  1  0  0  0
 27 28  2  0  0  0  0
 28 29  1  0  0  0  0
 29 30  1  0  0  0  0
 30 31  1  0  0  0  0
 31 27  1  0  0  0  0
 29 32  2  0  0  0  0
 14 33  1  1  0  0  0
 13 34  1  1  0  0  0
 18 35  1  1  0  0  0
 22 36  1  1  0  0  0
 21 37  1  1  0  0  0
 20 38  1  1  0  0  0
  8 39  1  6  0  0  0
 19 40  1  6  0  0  0
 42 41  1  1  0  0  0
 42 47  1  0  0  0  0
 43 42  1  0  0  0  0
 44 43  1  0  0  0  0
 45 44  1  0  0  0  0
 48 45  1  0  0  0  0
 47 46  1  1  0  0  0
 48 47  1  0  0  0  0
 48 49  1  6  0  0  0
 44  4  1  6  0  0  0
M  END
>  <cdx:fragmentId>
5

$$$$
