826550.cdx
  Mrv1902 05222410272D          

 57 63  0  0  0  0            999 V2000
    2.9072   -7.1482    0.0000 O   0  0  0  0  0  0  0  0  0  0  0  0
    2.9072   -7.9732    0.0000 C   0  0  2  0  0  0  0  0  0  0  0  0
    2.1927   -8.3857    0.0000 C   0  0  1  0  0  0  0  0  0  0  0  0
    1.4782   -7.9732    0.0000 C   0  0  2  0  0  0  0  0  0  0  0  0
    1.4782   -7.1482    0.0000 C   0  0  1  0  0  0  0  0  0  0  0  0
    2.1927   -6.7357    0.0000 C   0  0  1  0  0  0  0  0  0  0  0  0
    2.1927   -9.2107    0.0000 O   0  0  0  0  0  0  0  0  0  0  0  0
    0.7638   -8.3857    0.0000 O   0  0  0  0  0  0  0  0  0  0  0  0
    0.7638   -6.7357    0.0000 O   0  0  0  0  0  0  0  0  0  0  0  0
    2.1927   -5.9107    0.0000 C   0  0  0  0  0  0  0  0  0  0  0  0
    1.4782   -5.4982    0.0000 O   0  0  0  0  0  0  0  0  0  0  0  0
    3.6216   -8.3857    0.0000 O   0  0  0  0  0  0  0  0  0  0  0  0
    5.7651   -7.1482    0.0000 O   0  0  0  0  0  0  0  0  0  0  0  0
    5.7651   -7.9732    0.0000 C   0  0  2  0  0  0  0  0  0  0  0  0
    5.0506   -8.3857    0.0000 C   0  0  1  0  0  0  0  0  0  0  0  0
    4.3361   -7.9732    0.0000 C   0  0  2  0  0  0  0  0  0  0  0  0
    4.3361   -7.1482    0.0000 C   0  0  2  0  0  0  0  0  0  0  0  0
    5.0506   -6.7357    0.0000 C   0  0  1  0  0  0  0  0  0  0  0  0
    5.0506   -5.9107    0.0000 C   0  0  0  0  0  0  0  0  0  0  0  0
    3.6216   -6.7357    0.0000 O   0  0  0  0  0  0  0  0  0  0  0  0
    5.0506   -9.2107    0.0000 O   0  0  0  0  0  0  0  0  0  0  0  0
    6.4795   -8.3857    0.0000 O   0  0  0  0  0  0  0  0  0  0  0  0
    7.9085   -6.7357    0.0000 C   0  0  0  0  0  0  0  0  0  0  0  0
    7.1940   -7.1482    0.0000 C   0  0  0  0  0  0  0  0  0  0  0  0
    7.1940   -7.9732    0.0000 C   0  0  1  0  0  0  0  0  0  0  0  0
    7.9085   -8.3857    0.0000 C   0  0  1  0  0  0  0  0  0  0  0  0
    8.6229   -7.9732    0.0000 C   0  0  2  0  0  0  0  0  0  0  0  0
    9.3374   -8.3857    0.0000 C   0  0  0  0  0  0  0  0  0  0  0  0
   10.0519   -7.9732    0.0000 C   0  0  0  0  0  0  0  0  0  0  0  0
   10.0519   -7.1482    0.0000 C   0  0  1  0  0  0  0  0  0  0  0  0
   10.7664   -6.7357    0.0000 C   0  0  2  0  0  0  0  0  0  0  0  0
   11.4808   -7.1482    0.0000 C   0  0  0  0  0  0  0  0  0  0  0  0
   12.1953   -6.7357    0.0000 C   0  0  1  0  0  0  0  0  0  0  0  0
   12.1953   -5.9107    0.0000 C   0  0  1  0  0  0  0  0  0  0  0  0
   12.9098   -5.4982    0.0000 C   0  0  0  0  0  0  0  0  0  0  0  0
   12.9098   -4.6732    0.0000 C   0  0  0  0  0  0  0  0  0  0  0  0
   12.1953   -4.2607    0.0000 C   0  0  1  0  0  0  0  0  0  0  0  0
   11.4808   -4.6732    0.0000 C   0  0  0  0  0  0  0  0  0  0  0  0
   11.4808   -5.4982    0.0000 C   0  0  1  0  0  0  0  0  0  0  0  0
   10.7664   -5.9107    0.0000 C   0  0  0  0  0  0  0  0  0  0  0  0
   10.0519   -5.4982    0.0000 C   0  0  0  0  0  0  0  0  0  0  0  0
    9.3374   -5.9107    0.0000 C   0  0  0  0  0  0  0  0  0  0  0  0
    9.3374   -6.7357    0.0000 C   0  0  0  0  0  0  0  0  0  0  0  0
    8.6229   -7.1482    0.0000 C   0  0  1  0  0  0  0  0  0  0  0  0
    8.6229   -6.3232    0.0000 C   0  0  0  0  0  0  0  0  0  0  0  0
   11.7828   -3.5462    0.0000 C   0  0  0  0  0  0  0  0  0  0  0  0
   12.6078   -3.5462    0.0000 C   0  0  0  0  0  0  0  0  0  0  0  0
   10.7664   -7.5607    0.0000 C   0  0  0  0  0  0  0  0  0  0  0  0
   10.0519   -6.3232    0.0000 C   0  0  0  0  0  0  0  0  0  0  0  0
    7.4960   -9.1002    0.0000 C   0  0  0  0  0  0  0  0  0  0  0  0
   12.9098   -6.3232    0.0000 C   0  0  0  0  0  0  0  0  0  0  0  0
   13.6242   -5.9107    0.0000 O   0  0  0  0  0  0  0  0  0  0  0  0
    8.3210   -9.1002    0.0000 C   0  0  0  0  0  0  0  0  0  0  0  0
    7.9085   -9.8146    0.0000 O   0  0  0  0  0  0  0  0  0  0  0  0
   12.9098   -7.1482    0.0000 O   0  0  0  0  0  0  0  0  0  0  0  0
    8.6229   -8.7982    0.0000 H   0  0  0  0  0  0  0  0  0  0  0  0
   11.4808   -6.3232    0.0000 H   0  0  0  0  0  0  0  0  0  0  0  0
  1  2  1  0  0  0  0
  2  3  1  0  0  0  0
  3  4  1  0  0  0  0
  4  5  1  0  0  0  0
  5  6  1  0  0  0  0
  1  6  1  0  0  0  0
  3  7  1  6  0  0  0
  4  8  1  1  0  0  0
  5  9  1  6  0  0  0
 10 11  1  0  0  0  0
  6 10  1  1  0  0  0
 13 14  1  0  0  0  0
 14 15  1  0  0  0  0
 15 16  1  0  0  0  0
 16 17  1  0  0  0  0
 17 18  1  0  0  0  0
 13 18  1  0  0  0  0
 18 19  1  1  0  0  0
 17 20  1  1  0  0  0
 15 21  1  6  0  0  0
 23 24  1  0  0  0  0
 24 25  1  0  0  0  0
 25 26  1  0  0  0  0
 26 27  1  0  0  0  0
 27 28  1  0  0  0  0
 28 29  1  0  0  0  0
 29 30  1  0  0  0  0
 30 31  1  0  0  0  0
 31 32  1  0  0  0  0
 32 33  1  0  0  0  0
 33 34  1  0  0  0  0
 34 35  1  0  0  0  0
 35 36  1  0  0  0  0
 36 37  1  0  0  0  0
 37 38  1  0  0  0  0
 38 39  1  0  0  0  0
 34 39  1  0  0  0  0
 39 40  1  0  0  0  0
 31 40  1  0  0  0  0
 40 41  2  0  0  0  0
 41 42  1  0  0  0  0
 42 43  2  0  0  0  0
 30 43  1  0  0  0  0
 43 44  1  0  0  0  0
 27 44  1  0  0  0  0
 23 44  1  0  0  0  0
 44 45  1  1  0  0  0
 37 46  1  1  0  0  0
 37 47  1  6  0  0  0
 31 48  1  6  0  0  0
 30 49  1  1  0  0  0
 26 50  1  1  0  0  0
 51 52  1  0  0  0  0
 34 51  1  1  0  0  0
 53 54  1  0  0  0  0
 26 53  1  6  0  0  0
 33 55  1  1  0  0  0
 25 22  1  1  0  0  0
 14 22  1  1  0  0  0
 16 12  1  1  0  0  0
  2 12  1  1  0  0  0
 27 56  1  6  0  0  0
 39 57  1  1  0  0  0
M  END
>  <cdx:fragmentId>
2258

$$$$
