82666.cdx
  Mrv1902 05222410242D          

 19 21  0  0  0  0            999 V2000
    5.7755   -7.9200    0.0000 C   0  0  0  0  0  0  0  0  0  0  0  0
    5.7755   -8.7450    0.0000 C   0  0  0  0  0  0  0  0  0  0  0  0
    6.4900   -9.1575    0.0000 C   0  0  0  0  0  0  0  0  0  0  0  0
    7.2045   -8.7450    0.0000 C   0  0  0  0  0  0  0  0  0  0  0  0
    7.2045   -7.9200    0.0000 C   0  0  0  0  0  0  0  0  0  0  0  0
    6.4900   -7.5075    0.0000 C   0  0  0  0  0  0  0  0  0  0  0  0
    7.9189   -9.1575    0.0000 N   0  0  0  0  0  0  0  0  0  0  0  0
    8.6334   -8.7450    0.0000 C   0  0  0  0  0  0  0  0  0  0  0  0
    8.6334   -7.9200    0.0000 C   0  0  0  0  0  0  0  0  0  0  0  0
    7.9189   -7.5075    0.0000 C   0  0  0  0  0  0  0  0  0  0  0  0
    9.3479   -9.1575    0.0000 O   0  0  0  0  0  0  0  0  0  0  0  0
    7.9189   -6.6825    0.0000 C   0  0  0  0  0  0  0  0  0  0  0  0
    8.5864   -6.1976    0.0000 C   0  0  0  0  0  0  0  0  0  0  0  0
    8.3314   -5.4130    0.0000 C   0  0  0  0  0  0  0  0  0  0  0  0
    7.5064   -5.4130    0.0000 C   0  0  0  0  0  0  0  0  0  0  0  0
    7.2515   -6.1976    0.0000 O   0  0  0  0  0  0  0  0  0  0  0  0
    7.0215   -4.7455    0.0000 C   0  0  0  0  0  0  0  0  0  0  0  0
    6.2010   -4.8318    0.0000 O   0  0  0  0  0  0  0  0  0  0  0  0
    5.0611   -7.5075    0.0000 O   0  0  0  0  0  0  0  0  0  0  0  0
  1  2  2  0  0  0  0
  2  3  1  0  0  0  0
  3  4  2  0  0  0  0
  4  5  1  0  0  0  0
  5  6  2  0  0  0  0
  6  1  1  0  0  0  0
  4  7  1  0  0  0  0
  7  8  1  0  0  0  0
  8  9  1  0  0  0  0
  9 10  2  0  0  0  0
 10  5  1  0  0  0  0
  8 11  2  0  0  0  0
 10 12  1  0  0  0  0
 12 13  2  0  0  0  0
 13 14  1  0  0  0  0
 14 15  2  0  0  0  0
 15 16  1  0  0  0  0
 16 12  1  0  0  0  0
 15 17  1  0  0  0  0
 17 18  1  0  0  0  0
  1 19  1  0  0  0  0
M  END
>  <cdx:fragmentId>
430

$$$$
