82665.cdx
  Mrv1902 05222410232D          

 24 26  0  0  0  0            999 V2000
    4.5105   -7.3700    0.0000 C   0  0  0  0  0  0  0  0  0  0  0  0
    4.5105   -8.1950    0.0000 C   0  0  0  0  0  0  0  0  0  0  0  0
    5.2250   -8.6075    0.0000 C   0  0  0  0  0  0  0  0  0  0  0  0
    5.9395   -8.1950    0.0000 C   0  0  0  0  0  0  0  0  0  0  0  0
    5.9395   -7.3700    0.0000 C   0  0  0  0  0  0  0  0  0  0  0  0
    5.2250   -6.9575    0.0000 C   0  0  0  0  0  0  0  0  0  0  0  0
    6.6539   -8.6075    0.0000 N   0  0  0  0  0  0  0  0  0  0  0  0
    7.3684   -8.1950    0.0000 C   0  0  0  0  0  0  0  0  0  0  0  0
    7.3684   -7.3700    0.0000 C   0  0  0  0  0  0  0  0  0  0  0  0
    6.6539   -6.9575    0.0000 C   0  0  0  0  0  0  0  0  0  0  0  0
    6.6539   -6.1325    0.0000 O   0  0  0  0  0  0  0  0  0  0  0  0
    8.0829   -6.9575    0.0000 C   0  0  0  0  0  0  0  0  0  0  0  0
    8.7974   -7.3700    0.0000 O   0  0  0  0  0  0  0  0  0  0  0  0
    8.0829   -6.1325    0.0000 N   0  0  0  0  0  0  0  0  0  0  0  0
    8.7974   -5.7200    0.0000 C   0  0  0  0  0  0  0  0  0  0  0  0
    9.5118   -6.1325    0.0000 C   0  0  0  0  0  0  0  0  0  0  0  0
   10.2263   -5.7200    0.0000 C   0  0  0  0  0  0  0  0  0  0  0  0
   10.2263   -4.8950    0.0000 C   0  0  0  0  0  0  0  0  0  0  0  0
    9.5118   -4.4825    0.0000 C   0  0  0  0  0  0  0  0  0  0  0  0
    8.7974   -4.8950    0.0000 C   0  0  0  0  0  0  0  0  0  0  0  0
    8.0829   -4.4825    0.0000 C   0  0  0  0  0  0  0  0  0  0  0  0
    7.3684   -4.8950    0.0000 O   0  0  0  0  0  0  0  0  0  0  0  0
    8.0829   -3.6575    0.0000 O   0  0  0  0  0  0  0  0  0  0  0  0
    6.6539   -4.4825    0.0000 C   0  0  0  0  0  0  0  0  0  0  0  0
  1  2  2  0  0  0  0
  2  3  1  0  0  0  0
  3  4  2  0  0  0  0
  4  5  1  0  0  0  0
  5  6  2  0  0  0  0
  6  1  1  0  0  0  0
  4  7  1  0  0  0  0
  7  8  1  0  0  0  0
  8  9  2  0  0  0  0
  9 10  1  0  0  0  0
 10  5  1  0  0  0  0
 10 11  2  0  0  0  0
  9 12  1  0  0  0  0
 12 13  2  0  0  0  0
 12 14  1  0  0  0  0
 14 15  1  0  0  0  0
 15 16  2  0  0  0  0
 16 17  1  0  0  0  0
 17 18  2  0  0  0  0
 18 19  1  0  0  0  0
 19 20  2  0  0  0  0
 20 15  1  0  0  0  0
 20 21  1  0  0  0  0
 21 22  1  0  0  0  0
 21 23  2  0  0  0  0
 22 24  1  0  0  0  0
M  END
>  <cdx:fragmentId>
334

$$$$
