82669.cdx
  Mrv1902 05222410232D          

 13 14  0  0  0  0            999 V2000
    5.1705   -7.0400    0.0000 C   0  0  0  0  0  0  0  0  0  0  0  0
    5.1705   -7.8650    0.0000 O   0  0  0  0  0  0  0  0  0  0  0  0
    5.8850   -8.2775    0.0000 C   0  0  0  0  0  0  0  0  0  0  0  0
    6.5995   -7.8650    0.0000 C   0  0  0  0  0  0  0  0  0  0  0  0
    6.5995   -7.0400    0.0000 C   0  0  0  0  0  0  0  0  0  0  0  0
    5.8850   -6.6275    0.0000 C   0  0  0  0  0  0  0  0  0  0  0  0
    7.3139   -8.2775    0.0000 N   0  0  0  0  0  0  0  0  0  0  0  0
    8.0284   -7.8650    0.0000 C   0  0  0  0  0  0  0  0  0  0  0  0
    8.0284   -7.0400    0.0000 C   0  0  2  0  0  0  0  0  0  0  0  0
    7.3139   -6.6275    0.0000 O   0  0  0  0  0  0  0  0  0  0  0  0
    8.7429   -8.2775    0.0000 O   0  0  0  0  0  0  0  0  0  0  0  0
    5.8850   -9.1025    0.0000 O   0  0  0  0  0  0  0  0  0  0  0  0
    8.7429   -6.6275    0.0000 C   0  0  0  0  0  0  0  0  0  0  0  0
  1  2  1  0  0  0  0
  2  3  1  0  0  0  0
  3  4  1  0  0  0  0
  4  5  2  0  0  0  0
  5  6  1  0  0  0  0
  6  1  1  0  0  0  0
  4  7  1  0  0  0  0
  7  8  1  0  0  0  0
  8  9  1  0  0  0  0
  9 10  1  0  0  0  0
 10  5  1  0  0  0  0
  8 11  2  0  0  0  0
  3 12  2  0  0  0  0
  9 13  1  6  0  0  0
M  END
>  <cdx:fragmentId>
432

$$$$
