82667.cdx
  Mrv1902 05222410242D          

 23 25  0  0  0  0            999 V2000
    5.2805   -6.8200    0.0000 C   0  0  0  0  0  0  0  0  0  0  0  0
    5.2805   -7.6450    0.0000 C   0  0  0  0  0  0  0  0  0  0  0  0
    5.9950   -8.0575    0.0000 C   0  0  0  0  0  0  0  0  0  0  0  0
    6.7095   -7.6450    0.0000 C   0  0  0  0  0  0  0  0  0  0  0  0
    6.7095   -6.8200    0.0000 C   0  0  0  0  0  0  0  0  0  0  0  0
    5.9950   -6.4075    0.0000 C   0  0  0  0  0  0  0  0  0  0  0  0
    7.4941   -7.8999    0.0000 N   0  0  0  0  0  0  0  0  0  0  0  0
    7.9790   -7.2325    0.0000 C   0  0  0  0  0  0  0  0  0  0  0  0
    7.4941   -6.5651    0.0000 C   0  0  0  0  0  0  0  0  0  0  0  0
    7.7490   -5.7804    0.0000 C   0  0  0  0  0  0  0  0  0  0  0  0
    8.5560   -5.6089    0.0000 C   0  0  1  0  0  0  0  0  0  0  0  0
    9.3810   -5.6139    0.0000 C   0  0  0  0  0  0  0  0  0  0  0  0
    9.6406   -4.8308    0.0000 O   0  0  0  0  0  0  0  0  0  0  0  0
    8.9761   -4.3419    0.0000 C   0  0  1  0  0  0  0  0  0  0  0  0
    8.3058   -4.8228    0.0000 C   0  0  1  0  0  0  0  0  0  0  0  0
    7.5227   -4.5631    0.0000 O   0  0  0  0  0  0  0  0  0  0  0  0
    9.8619   -6.2842    0.0000 O   0  0  0  0  0  0  0  0  0  0  0  0
    8.5560   -6.4339    0.0000 O   0  0  0  0  0  0  0  0  0  0  0  0
    8.9810   -3.5169    0.0000 C   0  0  1  0  0  0  0  0  0  0  0  0
    8.2691   -3.1001    0.0000 O   0  0  0  0  0  0  0  0  0  0  0  0
    9.6980   -3.1087    0.0000 C   0  0  0  0  0  0  0  0  0  0  0  0
    9.7029   -2.2837    0.0000 O   0  0  0  0  0  0  0  0  0  0  0  0
    9.6906   -3.9294    0.0000 H   0  0  0  0  0  0  0  0  0  0  0  0
  1  2  2  0  0  0  0
  2  3  1  0  0  0  0
  3  4  2  0  0  0  0
  4  5  1  0  0  0  0
  5  6  2  0  0  0  0
  6  1  1  0  0  0  0
  4  7  1  0  0  0  0
  7  8  1  0  0  0  0
  8  9  2  0  0  0  0
  9  5  1  0  0  0  0
  9 10  1  0  0  0  0
 10 11  1  0  0  0  0
 11 12  1  0  0  0  0
 12 13  1  0  0  0  0
 13 14  1  0  0  0  0
 14 15  1  0  0  0  0
 15 11  1  0  0  0  0
 15 16  1  6  0  0  0
 12 17  2  0  0  0  0
 11 18  1  1  0  0  0
 14 19  1  0  0  0  0
 19 20  1  1  0  0  0
 19 21  1  0  0  0  0
 21 22  1  0  0  0  0
 14 23  1  6  0  0  0
M  END
>  <cdx:fragmentId>
485

$$$$
