82664.cdx
  Mrv1902 05222410232D          

 23 27  0  0  0  0            999 V2000
    7.6844   -6.9403    0.0000 C   0  0  0  0  0  0  0  0  0  0  0  0
    8.0113   -7.6977    0.0000 C   0  0  0  0  0  0  0  0  0  0  0  0
    8.8308   -7.7933    0.0000 C   0  0  0  0  0  0  0  0  0  0  0  0
    9.3233   -7.1314    0.0000 C   0  0  0  0  0  0  0  0  0  0  0  0
    8.9963   -6.3740    0.0000 C   0  0  0  0  0  0  0  0  0  0  0  0
    8.1769   -6.2784    0.0000 C   0  0  0  0  0  0  0  0  0  0  0  0
    7.8499   -5.5209    0.0000 N   0  0  0  0  0  0  0  0  0  0  0  0
    7.0304   -5.4254    0.0000 C   0  0  1  0  0  0  0  0  0  0  0  0
    6.5380   -6.0873    0.0000 N   0  0  0  0  0  0  0  0  0  0  0  0
    6.8649   -6.8447    0.0000 C   0  0  0  0  0  0  0  0  0  0  0  0
    6.3724   -7.5066    0.0000 O   0  0  0  0  0  0  0  0  0  0  0  0
    6.5531   -4.7525    0.0000 C   0  0  1  0  0  0  0  0  0  0  0  0
    5.7657   -4.9985    0.0000 C   0  0  0  0  0  0  0  0  0  0  0  0
    5.7563   -5.8234    0.0000 C   0  0  0  0  0  0  0  0  0  0  0  0
    7.8925   -4.6475    0.0000 C   0  0  0  0  0  0  0  0  0  0  0  0
    7.2325   -4.2075    0.0000 C   0  0  0  0  0  0  0  0  0  0  0  0
    5.0559   -4.5779    0.0000 C   0  0  0  0  0  0  0  0  0  0  0  0
    4.3368   -4.9822    0.0000 C   0  0  0  0  0  0  0  0  0  0  0  0
    4.3274   -5.8072    0.0000 C   0  0  0  0  0  0  0  0  0  0  0  0
    5.0372   -6.2278    0.0000 C   0  0  0  0  0  0  0  0  0  0  0  0
    8.6292   -4.2761    0.0000 O   0  0  0  0  0  0  0  0  0  0  0  0
    6.1406   -4.0380    0.0000 O   0  0  0  0  0  0  0  0  0  0  0  0
    7.4429   -6.1399    0.0000 H   0  0  0  0  0  0  0  0  0  0  0  0
  1  2  2  0  0  0  0
  2  3  1  0  0  0  0
  3  4  2  0  0  0  0
  4  5  1  0  0  0  0
  5  6  2  0  0  0  0
  6  1  1  0  0  0  0
  6  7  1  0  0  0  0
  7  8  1  0  0  0  0
  8  9  1  0  0  0  0
  9 10  1  0  0  0  0
 10  1  1  0  0  0  0
 10 11  2  0  0  0  0
  8 12  1  0  0  0  0
 12 13  1  0  0  0  0
 13 14  2  0  0  0  0
 14  9  1  0  0  0  0
  7 15  1  0  0  0  0
 15 16  1  0  0  0  0
 13 17  1  0  0  0  0
 17 18  2  0  0  0  0
 18 19  1  0  0  0  0
 19 20  2  0  0  0  0
 20 14  1  0  0  0  0
 12 16  1  0  0  0  0
 15 21  2  0  0  0  0
 12 22  1  6  0  0  0
  8 23  1  6  0  0  0
M  END
>  <cdx:fragmentId>
218

$$$$
