82668.cdx
  Mrv1902 05222410222D          

 13 14  0  0  0  0            999 V2000
    5.2805   -6.8200    0.0000 C   0  0  0  0  0  0  0  0  0  0  0  0
    5.2805   -7.6450    0.0000 C   0  0  0  0  0  0  0  0  0  0  0  0
    5.9950   -8.0575    0.0000 C   0  0  0  0  0  0  0  0  0  0  0  0
    6.7095   -7.6450    0.0000 C   0  0  0  0  0  0  0  0  0  0  0  0
    6.7095   -6.8200    0.0000 C   0  0  0  0  0  0  0  0  0  0  0  0
    5.9950   -6.4075    0.0000 C   0  0  0  0  0  0  0  0  0  0  0  0
    7.4941   -7.8999    0.0000 N   0  0  0  0  0  0  0  0  0  0  0  0
    7.9790   -7.2325    0.0000 C   0  0  0  0  0  0  0  0  0  0  0  0
    7.4941   -6.5651    0.0000 C   0  0  0  0  0  0  0  0  0  0  0  0
    7.7490   -5.7804    0.0000 C   0  0  0  0  0  0  0  0  0  0  0  0
    8.5560   -5.6089    0.0000 C   0  0  0  0  0  0  0  0  0  0  0  0
    9.1080   -6.2220    0.0000 O   0  0  0  0  0  0  0  0  0  0  0  0
    8.8109   -4.8243    0.0000 N   0  0  0  0  0  0  0  0  0  0  0  0
  1  2  2  0  0  0  0
  2  3  1  0  0  0  0
  3  4  2  0  0  0  0
  4  5  1  0  0  0  0
  5  6  2  0  0  0  0
  6  1  1  0  0  0  0
  4  7  1  0  0  0  0
  7  8  1  0  0  0  0
  8  9  2  0  0  0  0
  9  5  1  0  0  0  0
  9 10  1  0  0  0  0
 10 11  1  0  0  0  0
 11 12  2  0  0  0  0
 11 13  1  0  0  0  0
M  END
>  <cdx:fragmentId>
485

$$$$
