826768.cdx
  Mrv1902 05222410282D          

 24 26  0  0  0  0            999 V2000
    5.3828  -12.9997    0.0000 C   0  0  0  0  0  0  0  0  0  0  0  0
    5.3828  -13.8247    0.0000 C   0  0  0  0  0  0  0  0  0  0  0  0
    6.0972  -14.2372    0.0000 C   0  0  0  0  0  0  0  0  0  0  0  0
    6.8117  -13.8247    0.0000 C   0  0  0  0  0  0  0  0  0  0  0  0
    7.5262  -14.2372    0.0000 C   0  0  0  0  0  0  0  0  0  0  0  0
    8.2407  -13.8247    0.0000 C   0  0  0  0  0  0  0  0  0  0  0  0
    8.2407  -12.9997    0.0000 C   0  0  0  0  0  0  0  0  0  0  0  0
    7.5262  -12.5872    0.0000 C   0  0  0  0  0  0  0  0  0  0  0  0
    6.8117  -12.9997    0.0000 C   0  0  0  0  0  0  0  0  0  0  0  0
    6.0972  -12.5872    0.0000 O   0  0  0  0  0  0  0  0  0  0  0  0
    9.0253  -12.7448    0.0000 O   0  0  0  0  0  0  0  0  0  0  0  0
    9.0253  -14.0796    0.0000 C   0  0  0  0  0  0  0  0  0  0  0  0
    9.5102  -13.4122    0.0000 C   0  0  0  0  0  0  0  0  0  0  0  0
    4.6683  -12.5872    0.0000 O   0  0  0  0  0  0  0  0  0  0  0  0
    7.5262  -11.7622    0.0000 O   0  0  0  0  0  0  0  0  0  0  0  0
    8.2407  -11.3497    0.0000 C   0  0  0  0  0  0  0  0  0  0  0  0
    7.5262  -15.0622    0.0000 O   0  0  0  0  0  0  0  0  0  0  0  0
    8.2407  -15.4747    0.0000 C   0  0  0  0  0  0  0  0  0  0  0  0
    8.2407  -16.2997    0.0000 C   0  0  0  0  0  0  0  0  0  0  0  0
    8.9551  -16.7122    0.0000 C   0  0  0  0  0  0  0  0  0  0  0  0
    8.9551  -17.5372    0.0000 C   0  0  0  0  0  0  0  0  0  0  0  0
    9.6696  -16.2997    0.0000 C   0  0  0  0  0  0  0  0  0  0  0  0
    9.6696  -17.1247    0.0000 O   0  0  0  0  0  0  0  0  0  0  0  0
    7.5262  -16.7122    0.0000 O   0  0  0  0  0  0  0  0  0  0  0  0
  1  2  1  0  0  0  0
  2  3  2  0  0  0  0
  3  4  1  0  0  0  0
  4  5  2  0  0  0  0
  5  6  1  0  0  0  0
  6  7  2  0  0  0  0
  7  8  1  0  0  0  0
  8  9  2  0  0  0  0
  4  9  1  0  0  0  0
  9 10  1  0  0  0  0
  1 10  1  0  0  0  0
 12 13  2  0  0  0  0
 11 13  1  0  0  0  0
 12  6  1  0  0  0  0
 11  7  1  0  0  0  0
  1 14  2  0  0  0  0
 15 16  1  0  0  0  0
  8 15  1  0  0  0  0
 18 19  1  0  0  0  0
 19 20  1  0  0  0  0
 20 21  1  0  0  0  0
 17 18  1  0  0  0  0
 20 22  1  0  0  0  0
 20 23  1  0  0  0  0
 19 24  1  0  0  0  0
  5 17  1  0  0  0  0
M  END
>  <cdx:fragmentId>
141794

$$$$
