82676.cdx
  Mrv1902 05222410242D          

 15 16  0  0  0  0            999 V2000
    4.4555   -7.6175    0.0000 C   0  0  0  0  0  0  0  0  0  0  0  0
    4.4555   -8.4425    0.0000 C   0  0  0  0  0  0  0  0  0  0  0  0
    5.1700   -8.8550    0.0000 C   0  0  0  0  0  0  0  0  0  0  0  0
    5.8845   -8.4425    0.0000 C   0  0  0  0  0  0  0  0  0  0  0  0
    5.8845   -7.6175    0.0000 C   0  0  0  0  0  0  0  0  0  0  0  0
    5.1700   -7.2050    0.0000 C   0  0  0  0  0  0  0  0  0  0  0  0
    6.6691   -8.6974    0.0000 N   0  0  0  0  0  0  0  0  0  0  0  0
    7.1540   -8.0300    0.0000 C   0  0  0  0  0  0  0  0  0  0  0  0
    6.6691   -7.3626    0.0000 C   0  0  2  0  0  0  0  0  0  0  0  0
    7.9790   -8.0300    0.0000 O   0  0  0  0  0  0  0  0  0  0  0  0
    5.1700   -6.3800    0.0000 O   0  0  0  0  0  0  0  0  0  0  0  0
    6.9240   -6.5779    0.0000 C   0  0  0  0  0  0  0  0  0  0  0  0
    7.7310   -6.4064    0.0000 C   0  0  0  0  0  0  0  0  0  0  0  0
    8.2830   -7.0195    0.0000 N   0  0  0  0  0  0  0  0  0  0  0  0
    7.9859   -5.6218    0.0000 O   0  0  0  0  0  0  0  0  0  0  0  0
  1  2  2  0  0  0  0
  2  3  1  0  0  0  0
  3  4  2  0  0  0  0
  4  5  1  0  0  0  0
  5  6  2  0  0  0  0
  6  1  1  0  0  0  0
  4  7  1  0  0  0  0
  7  8  1  0  0  0  0
  8  9  1  0  0  0  0
  9  5  1  0  0  0  0
  8 10  2  0  0  0  0
  6 11  1  0  0  0  0
  9 12  1  1  0  0  0
 12 13  1  0  0  0  0
 13 14  1  0  0  0  0
 13 15  2  0  0  0  0
M  END
>  <cdx:fragmentId>
483

$$$$
