82675.cdx
  Mrv1902 05222410252D          

 17 18  0  0  0  0            999 V2000
    4.4555   -7.6175    0.0000 C   0  0  0  0  0  0  0  0  0  0  0  0
    4.4555   -8.4425    0.0000 C   0  0  0  0  0  0  0  0  0  0  0  0
    5.1700   -8.8550    0.0000 C   0  0  0  0  0  0  0  0  0  0  0  0
    5.8845   -8.4425    0.0000 C   0  0  0  0  0  0  0  0  0  0  0  0
    5.8845   -7.6175    0.0000 C   0  0  0  0  0  0  0  0  0  0  0  0
    5.1700   -7.2050    0.0000 C   0  0  0  0  0  0  0  0  0  0  0  0
    6.6691   -8.6974    0.0000 N   0  0  0  0  0  0  0  0  0  0  0  0
    7.1540   -8.0300    0.0000 C   0  0  0  0  0  0  0  0  0  0  0  0
    6.6691   -7.3626    0.0000 C   0  0  1  0  0  0  0  0  0  0  0  0
    7.9790   -8.0300    0.0000 O   0  0  0  0  0  0  0  0  0  0  0  0
    6.4556   -6.5657    0.0000 O   0  0  0  0  0  0  0  0  0  0  0  0
    7.2525   -6.7792    0.0000 C   0  0  0  0  0  0  0  0  0  0  0  0
    5.1700   -6.3800    0.0000 O   0  0  0  0  0  0  0  0  0  0  0  0
    4.4555   -5.9675    0.0000 C   0  0  0  0  0  0  0  0  0  0  0  0
    7.0389   -5.9823    0.0000 C   0  0  0  0  0  0  0  0  0  0  0  0
    7.6223   -5.3989    0.0000 N   0  0  0  0  0  0  0  0  0  0  0  0
    6.2420   -5.7688    0.0000 O   0  0  0  0  0  0  0  0  0  0  0  0
  1  2  2  0  0  0  0
  2  3  1  0  0  0  0
  3  4  2  0  0  0  0
  4  5  1  0  0  0  0
  5  6  2  0  0  0  0
  6  1  1  0  0  0  0
  4  7  1  0  0  0  0
  7  8  1  0  0  0  0
  8  9  1  0  0  0  0
  9  5  1  0  0  0  0
  8 10  2  0  0  0  0
  9 11  1  6  0  0  0
  9 12  1  0  0  0  0
  6 13  1  0  0  0  0
 13 14  1  0  0  0  0
 12 15  1  0  0  0  0
 15 16  1  0  0  0  0
 15 17  2  0  0  0  0
M  END
>  <cdx:fragmentId>
483

$$$$
