826818.cdx
  Mrv1902 05222410192D          

 38 42  0  0  0  0            999 V2000
    4.3596   -8.6639    0.0000 C   0  0  0  0  0  0  0  0  0  0  0  0
    5.0336   -8.1881    0.0000 O   0  0  0  0  0  0  0  0  0  0  0  0
    4.5657  -10.3459    0.0000 C   0  0  0  0  0  0  0  0  0  0  0  0
    4.7761   -9.5482    0.0000 O   0  0  0  0  0  0  0  0  0  0  0  0
    6.5329  -11.2916    0.0000 C   0  0  0  0  0  0  0  0  0  0  0  0
    5.9473  -10.7104    0.0000 O   0  0  0  0  0  0  0  0  0  0  0  0
    4.3539   -7.1628    0.0000 C   0  0  0  0  0  0  0  0  0  0  0  0
    5.0315   -7.6334    0.0000 O   0  0  0  0  0  0  0  0  0  0  0  0
    9.3338   -8.6225    0.0000 C   0  0  0  0  0  0  0  0  0  0  0  0
    9.3282   -7.1660    0.0000 C   0  0  0  0  0  0  0  0  0  0  0  0
    5.7778   -7.2819    0.0000 C   0  0  0  0  0  0  0  0  0  0  0  0
    5.5612   -6.4858    0.0000 C   0  0  0  0  0  0  0  0  0  0  0  0
    4.8247   -6.1141    0.0000 O   0  0  0  0  0  0  0  0  0  0  0  0
    4.9506   -5.2988    0.0000 C   0  0  0  0  0  0  0  0  0  0  0  0
    5.7650   -5.1666    0.0000 O   0  0  0  0  0  0  0  0  0  0  0  0
    6.1424   -5.9002    0.0000 C   0  0  0  0  0  0  0  0  0  0  0  0
    6.9401   -6.1107    0.0000 C   0  0  0  0  0  0  0  0  0  0  0  0
    7.1566   -6.9067    0.0000 C   0  0  0  0  0  0  0  0  0  0  0  0
    7.9816   -6.9036    0.0000 C   0  0  0  0  0  0  0  0  0  0  0  0
    8.5672   -7.4847    0.0000 C   0  0  1  0  0  0  0  0  0  0  0  0
    8.5704   -8.3097    0.0000 C   0  0  1  0  0  0  0  0  0  0  0  0
    7.9893   -8.8953    0.0000 C   0  0  2  0  0  0  0  0  0  0  0  0
    7.1643   -8.8985    0.0000 C   0  0  0  0  0  0  0  0  0  0  0  0
    6.9538   -9.6962    0.0000 C   0  0  0  0  0  0  0  0  0  0  0  0
    6.1578   -9.9127    0.0000 C   0  0  0  0  0  0  0  0  0  0  0  0
    5.5722   -9.3316    0.0000 C   0  0  0  0  0  0  0  0  0  0  0  0
    5.7826   -8.5339    0.0000 C   0  0  0  0  0  0  0  0  0  0  0  0
    6.5787   -8.3173    0.0000 C   0  0  0  0  0  0  0  0  0  0  0  0
    6.5755   -7.4923    0.0000 C   0  0  0  0  0  0  0  0  0  0  0  0
    8.3079   -9.6563    0.0000 O   0  0  0  0  0  0  0  0  0  0  0  0
    9.6260   -9.1044    0.0000 O   0  0  0  0  0  0  0  0  0  0  0  0
   10.2633  -10.6263    0.0000 C   0  0  0  0  0  0  0  0  0  0  0  0
   10.5819  -11.3873    0.0000 C   0  0  0  0  0  0  0  0  0  0  0  0
   10.0822  -12.0437    0.0000 C   0  0  0  0  0  0  0  0  0  0  0  0
    9.2639  -11.9392    0.0000 C   0  0  0  0  0  0  0  0  0  0  0  0
    8.9452  -11.1782    0.0000 C   0  0  0  0  0  0  0  0  0  0  0  0
    9.4449  -10.5218    0.0000 C   0  0  0  0  0  0  0  0  0  0  0  0
    9.1263   -9.7608    0.0000 C   0  0  0  0  0  0  0  0  0  0  0  0
 22 30  1  1  0  0  0
 27  2  1  0  0  0  0
  2  1  1  0  0  0  0
 26  4  1  0  0  0  0
  4  3  1  0  0  0  0
 25  6  1  0  0  0  0
  6  5  1  0  0  0  0
 11  8  1  0  0  0  0
  8  7  1  0  0  0  0
 21  9  1  6  0  0  0
 20 10  1  6  0  0  0
 28 23  1  0  0  0  0
 16 12  2  0  0  0  0
 29 18  1  0  0  0  0
 29 11  2  0  0  0  0
 12 11  1  0  0  0  0
 13 12  1  0  0  0  0
 14 13  1  0  0  0  0
 15 14  1  0  0  0  0
 16 15  1  0  0  0  0
 17 16  1  0  0  0  0
 18 17  2  0  0  0  0
 19 18  1  0  0  0  0
 20 19  1  0  0  0  0
 21 20  1  0  0  0  0
 22 21  1  0  0  0  0
 23 22  1  0  0  0  0
 24 23  2  0  0  0  0
 25 24  1  0  0  0  0
 26 25  2  0  0  0  0
 27 26  1  0  0  0  0
 28 27  2  0  0  0  0
 29 28  1  0  0  0  0
 38 30  1  0  0  0  0
 38 31  2  0  0  0  0
 37 32  2  0  0  0  0
 33 32  1  0  0  0  0
 34 33  2  0  0  0  0
 35 34  1  0  0  0  0
 36 35  2  0  0  0  0
 37 36  1  0  0  0  0
 38 37  1  0  0  0  0
M  END
>  <cdx:fragmentId>
218171

$$$$
