82680.cdx
  Mrv1902 05222410222D          

 21 22  0  0  0  0            999 V2000
    6.0224   -8.0564    0.0000 C   0  0  0  0  0  0  0  0  0  0  0  0
    5.3127   -8.4772    0.0000 C   0  0  0  0  0  0  0  0  0  0  0  0
    5.3223   -9.3021    0.0000 C   0  0  0  0  0  0  0  0  0  0  0  0
    6.0415   -9.7063    0.0000 C   0  0  0  0  0  0  0  0  0  0  0  0
    6.7511   -9.2856    0.0000 C   0  0  0  0  0  0  0  0  0  0  0  0
    6.7416   -8.4606    0.0000 C   0  0  0  0  0  0  0  0  0  0  0  0
    6.0128   -7.2315    0.0000 N   0  0  0  0  0  0  0  0  0  0  0  0
    7.4512   -8.0398    0.0000 C   0  0  0  0  0  0  0  0  0  0  0  0
    7.4416   -7.2149    0.0000 O   0  0  0  0  0  0  0  0  0  0  0  0
    8.1704   -8.4440    0.0000 O   0  0  0  0  0  0  0  0  0  0  0  0
    8.8800   -8.0233    0.0000 C   0  0  2  0  0  0  0  0  0  0  0  0
    9.5993   -8.4274    0.0000 O   0  0  0  0  0  0  0  0  0  0  0  0
   10.3089   -8.0067    0.0000 C   0  0  1  0  0  0  0  0  0  0  0  0
   10.2993   -7.1817    0.0000 C   0  0  2  0  0  0  0  0  0  0  0  0
    9.5801   -6.7775    0.0000 C   0  0  1  0  0  0  0  0  0  0  0  0
    8.8705   -7.1983    0.0000 C   0  0  1  0  0  0  0  0  0  0  0  0
   11.0281   -8.4108    0.0000 C   0  0  0  0  0  0  0  0  0  0  0  0
    9.5705   -5.9526    0.0000 O   0  0  0  0  0  0  0  0  0  0  0  0
   11.0089   -6.7610    0.0000 O   0  0  0  0  0  0  0  0  0  0  0  0
    8.1513   -6.7941    0.0000 O   0  0  0  0  0  0  0  0  0  0  0  0
   11.7377   -7.9901    0.0000 O   0  0  0  0  0  0  0  0  0  0  0  0
  1  2  2  0  0  0  0
  2  3  1  0  0  0  0
  3  4  2  0  0  0  0
  4  5  1  0  0  0  0
  5  6  2  0  0  0  0
  6  1  1  0  0  0  0
  1  7  1  0  0  0  0
  6  8  1  0  0  0  0
  8  9  2  0  0  0  0
  8 10  1  0  0  0  0
 11 10  1  1  0  0  0
 11 12  1  0  0  0  0
 12 13  1  0  0  0  0
 13 14  1  0  0  0  0
 14 15  1  0  0  0  0
 15 16  1  0  0  0  0
 16 11  1  0  0  0  0
 13 17  1  1  0  0  0
 15 18  1  1  0  0  0
 14 19  1  6  0  0  0
 16 20  1  6  0  0  0
 17 21  1  0  0  0  0
M  END
>  <cdx:fragmentId>
591

$$$$
