827970.cdx
  Mrv1902 05222410232D          

 46 52  0  0  0  0            999 V2000
    8.2361  -10.0732    0.0000 C   0  0  1  0  0  0  0  0  0  0  0  0
    8.9505   -9.6607    0.0000 C   0  0  2  0  0  0  0  0  0  0  0  0
    9.7351   -9.9157    0.0000 C   0  0  0  0  0  0  0  0  0  0  0  0
   10.2201   -9.2482    0.0000 C   0  0  2  0  0  0  0  0  0  0  0  0
   11.0047   -8.9933    0.0000 O   0  0  0  0  0  0  0  0  0  0  0  0
   11.0047   -8.1683    0.0000 C   0  0  2  0  0  0  0  0  0  0  0  0
   10.2201   -7.9133    0.0000 C   0  0  2  0  0  0  0  0  0  0  0  0
    9.7351   -8.5808    0.0000 C   0  0  2  0  0  0  0  0  0  0  0  0
    8.9505   -8.8357    0.0000 C   0  0  1  0  0  0  0  0  0  0  0  0
    8.2361   -8.4232    0.0000 C   0  0  0  0  0  0  0  0  0  0  0  0
    7.5216   -8.8357    0.0000 C   0  0  0  0  0  0  0  0  0  0  0  0
    7.5216   -9.6607    0.0000 C   0  0  2  0  0  0  0  0  0  0  0  0
    6.8071  -10.0732    0.0000 C   0  0  1  0  0  0  0  0  0  0  0  0
    6.0926   -9.6607    0.0000 C   0  0  0  0  0  0  0  0  0  0  0  0
    5.3782  -10.0732    0.0000 C   0  0  0  0  0  0  0  0  0  0  0  0
    5.3782  -10.8982    0.0000 C   0  0  1  0  0  0  0  0  0  0  0  0
    6.0926  -11.3107    0.0000 C   0  0  0  0  0  0  0  0  0  0  0  0
    6.8071  -10.8982    0.0000 C   0  0  0  0  0  0  0  0  0  0  0  0
    7.5216  -11.3107    0.0000 C   0  0  0  0  0  0  0  0  0  0  0  0
    8.2361  -10.8982    0.0000 C   0  0  0  0  0  0  0  0  0  0  0  0
   10.9185   -7.3478    0.0000 O   0  0  0  0  0  0  0  0  0  0  0  0
   11.7584   -8.5038    0.0000 C   0  0  0  0  0  0  0  0  0  0  0  0
   12.4258   -8.0189    0.0000 C   0  0  0  0  0  0  0  0  0  0  0  0
   12.3396   -7.1984    0.0000 C   0  0  2  0  0  0  0  0  0  0  0  0
   11.5859   -6.8629    0.0000 C   0  0  0  0  0  0  0  0  0  0  0  0
    6.8071   -9.2482    0.0000 C   0  0  0  0  0  0  0  0  0  0  0  0
    8.9505   -8.0107    0.0000 C   0  0  0  0  0  0  0  0  0  0  0  0
    9.9651   -7.1287    0.0000 C   0  0  0  0  0  0  0  0  0  0  0  0
   13.0070   -6.7135    0.0000 C   0  0  0  0  0  0  0  0  0  0  0  0
    8.2361   -9.2482    0.0000 H   0  0  0  0  0  0  0  0  0  0  0  0
    8.9505  -10.4857    0.0000 H   0  0  0  0  0  0  0  0  0  0  0  0
   10.7050   -9.9157    0.0000 H   0  0  0  0  0  0  0  0  0  0  0  0
    9.3735   -7.8393    0.0000 H   0  0  0  0  0  0  0  0  0  0  0  0
    7.5216  -10.4857    0.0000 H   0  0  0  0  0  0  0  0  0  0  0  0
    2.5322   -8.4144    0.0000 O   0  0  0  0  0  0  0  0  0  0  0  0
    3.2450   -8.8298    0.0000 C   0  0  0  0  0  0  0  0  0  0  0  0
    4.6637  -11.3107    0.0000 O   0  0  0  0  0  0  0  0  0  0  0  0
    3.2314  -12.1298    0.0000 O   0  0  0  0  0  0  0  0  0  0  0  0
    1.8058  -11.2989    0.0000 O   0  0  0  0  0  0  0  0  0  0  0  0
    1.8127   -9.6489    0.0000 O   0  0  0  0  0  0  0  0  0  0  0  0
    3.9509  -10.8953    0.0000 C   0  0  1  0  0  0  0  0  0  0  0  0
    3.2348  -11.3048    0.0000 C   0  0  1  0  0  0  0  0  0  0  0  0
    2.5220  -10.8894    0.0000 C   0  0  2  0  0  0  0  0  0  0  0  0
    2.5254  -10.0644    0.0000 C   0  0  1  0  0  0  0  0  0  0  0  0
    3.2416   -9.6548    0.0000 C   0  0  2  0  0  0  0  0  0  0  0  0
    3.9543  -10.0703    0.0000 O   0  0  0  0  0  0  0  0  0  0  0  0
 45 36  1  1  0  0  0
 36 35  1  0  0  0  0
 41 37  1  1  0  0  0
 42 38  1  6  0  0  0
 43 39  1  1  0  0  0
 44 40  1  6  0  0  0
 46 41  1  0  0  0  0
 42 41  1  0  0  0  0
 43 42  1  0  0  0  0
 44 43  1  0  0  0  0
 45 44  1  0  0  0  0
 46 45  1  0  0  0  0
  1  2  1  0  0  0  0
  2  3  1  0  0  0  0
  3  4  1  0  0  0  0
  4  5  1  0  0  0  0
  6  5  1  6  0  0  0
  6  7  1  0  0  0  0
  7  8  1  0  0  0  0
  8  9  1  0  0  0  0
  9 10  1  0  0  0  0
 10 11  1  0  0  0  0
 11 12  1  0  0  0  0
 12 13  1  0  0  0  0
 13 14  1  0  0  0  0
 14 15  1  0  0  0  0
 15 16  1  0  0  0  0
 16 17  1  0  0  0  0
 17 18  1  0  0  0  0
 18 19  2  0  0  0  0
 19 20  1  0  0  0  0
  1 20  1  0  0  0  0
  1 12  1  0  0  0  0
 13 18  1  0  0  0  0
  2  9  1  0  0  0  0
  4  8  1  0  0  0  0
 22 23  1  0  0  0  0
 23 24  1  0  0  0  0
 24 25  1  0  0  0  0
 21 25  1  0  0  0  0
  6 21  1  0  0  0  0
  6 22  1  0  0  0  0
 13 26  1  1  0  0  0
  9 27  1  1  0  0  0
  7 28  1  6  0  0  0
 24 29  1  6  0  0  0
 16 37  1  1  0  0  0
  1 30  1  1  0  0  0
  2 31  1  6  0  0  0
  4 32  1  6  0  0  0
  8 33  1  6  0  0  0
 12 34  1  6  0  0  0
M  END
>  <cdx:fragmentId>
25

$$$$
