3082856.cdx
  Mrv1902 05222410242D          

 30 33  0  0  0  0            999 V2000
   15.2303  -11.9172    0.0000 C   0  0  0  0  0  0  0  0  0  0  0  0
   15.2303  -12.7422    0.0000 O   0  0  0  0  0  0  0  0  0  0  0  0
   15.9448  -13.1546    0.0000 C   0  0  2  0  0  0  0  0  0  0  0  0
   16.6593  -12.7422    0.0000 C   0  0  1  0  0  0  0  0  0  0  0  0
   16.6593  -11.9172    0.0000 C   0  0  1  0  0  0  0  0  0  0  0  0
   15.9448  -11.5047    0.0000 C   0  0  0  0  0  0  0  0  0  0  0  0
   17.4439  -12.9971    0.0000 C   0  0  2  0  0  0  0  0  0  0  0  0
   17.9288  -12.3297    0.0000 C   0  0  2  0  0  0  0  0  0  0  0  0
   17.4439  -11.6622    0.0000 C   0  0  1  0  0  0  0  0  0  0  0  0
   15.9448  -10.6797    0.0000 C   0  0  0  0  0  0  0  0  0  0  0  0
   15.2303  -10.2671    0.0000 O   0  0  0  0  0  0  0  0  0  0  0  0
   16.6593  -10.2671    0.0000 O   0  0  0  0  0  0  0  0  0  0  0  0
   14.5159  -10.6797    0.0000 C   0  0  0  0  0  0  0  0  0  0  0  0
   15.9448  -13.9797    0.0000 O   0  0  0  0  0  0  0  0  0  0  0  0
   16.7455  -13.5627    0.0000 H   0  0  0  0  0  0  0  0  0  0  0  0
   16.7455  -11.0967    0.0000 O   0  0  0  0  0  0  0  0  0  0  0  0
   17.6988  -10.8776    0.0000 O   0  0  0  0  0  0  0  0  0  0  0  0
   18.2644  -13.0834    0.0000 O   0  0  0  0  0  0  0  0  0  0  0  0
   17.6574  -13.7940    0.0000 C   0  0  0  0  0  0  0  0  0  0  0  0
   15.2303  -14.3922    0.0000 C   0  0  1  0  0  0  0  0  0  0  0  0
   14.5159  -13.9797    0.0000 C   0  0  1  0  0  0  0  0  0  0  0  0
   13.8014  -14.3922    0.0000 C   0  0  2  0  0  0  0  0  0  0  0  0
   13.8014  -15.2172    0.0000 C   0  0  1  0  0  0  0  0  0  0  0  0
   14.5159  -15.6297    0.0000 C   0  0  2  0  0  0  0  0  0  0  0  0
   15.2303  -15.2172    0.0000 O   0  0  0  0  0  0  0  0  0  0  0  0
   13.0869  -15.6297    0.0000 O   0  0  0  0  0  0  0  0  0  0  0  0
   14.5159  -13.1546    0.0000 O   0  0  0  0  0  0  0  0  0  0  0  0
   13.0869  -13.9797    0.0000 O   0  0  0  0  0  0  0  0  0  0  0  0
   14.5159  -16.4547    0.0000 C   0  0  0  0  0  0  0  0  0  0  0  0
   15.2303  -16.8672    0.0000 O   0  0  0  0  0  0  0  0  0  0  0  0
  1  2  1  0  0  0  0
  2  3  1  0  0  0  0
  3  4  1  0  0  0  0
  4  5  1  0  0  0  0
  5  6  1  0  0  0  0
  6  1  2  0  0  0  0
  4  7  1  0  0  0  0
  7  8  1  0  0  0  0
  8  9  1  0  0  0  0
  9  5  1  0  0  0  0
  6 10  1  0  0  0  0
 10 11  1  0  0  0  0
 10 12  2  0  0  0  0
 11 13  1  0  0  0  0
  3 14  1  6  0  0  0
  4 15  1  6  0  0  0
  5 16  1  6  0  0  0
  9 17  1  6  0  0  0
  7 18  1  6  0  0  0
  8 18  1  6  0  0  0
  7 19  1  0  0  0  0
 20 14  1  6  0  0  0
 20 21  1  0  0  0  0
 21 22  1  0  0  0  0
 22 23  1  0  0  0  0
 23 24  1  0  0  0  0
 24 25  1  0  0  0  0
 25 20  1  0  0  0  0
 23 26  1  1  0  0  0
 21 27  1  1  0  0  0
 22 28  1  6  0  0  0
 24 29  1  6  0  0  0
 29 30  1  0  0  0  0
M  END
>  <cdx:fragmentId>
1773

$$$$
