3082861.cdx
  Mrv1902 05222410212D          

 17 19  0  0  0  0            999 V2000
    6.4364   -7.4638    0.0000 C   0  0  2  0  0  0  0  0  0  0  0  0
    8.4706   -7.8785    0.0000 C   0  0  0  0  0  0  0  0  0  0  0  0
    8.8797   -6.3653    0.0000 C   0  0  0  0  0  0  0  0  0  0  0  0
    7.9355   -5.9714    0.0000 C   0  0  1  0  0  0  0  0  0  0  0  0
    8.3324   -6.5508    0.0000 C   0  0  0  0  0  0  0  0  0  0  0  0
    7.9355   -7.3063    0.0000 C   0  0  0  0  0  0  0  0  0  0  0  0
    7.1509   -7.0513    0.0000 C   0  0  2  0  0  0  0  0  0  0  0  0
    7.1509   -6.2263    0.0000 C   0  0  1  0  0  0  0  0  0  0  0  0
    6.4364   -5.8138    0.0000 C   0  0  0  0  0  0  0  0  0  0  0  0
    5.7220   -6.2263    0.0000 C   0  0  0  0  0  0  0  0  0  0  0  0
    5.7220   -7.0513    0.0000 C   0  0  0  0  0  0  0  0  0  0  0  0
    6.4364   -6.6388    0.0000 O   0  0  0  0  0  0  0  0  0  0  0  0
    7.2371   -5.4059    0.0000 C   0  0  0  0  0  0  0  0  0  0  0  0
    9.0469   -6.1383    0.0000 C   0  0  0  0  0  0  0  0  0  0  0  0
    9.1349   -7.0513    0.0000 C   0  0  0  0  0  0  0  0  0  0  0  0
    6.1440   -8.2353    0.0000 C   0  0  0  0  0  0  0  0  0  0  0  0
    7.9355   -5.1464    0.0000 H   0  0  0  0  0  0  0  0  0  0  0  0
  1  2  1  1  0  0  0
  2  3  1  0  0  0  0
  3  4  1  0  0  0  0
  4  5  1  6  0  0  0
  5  6  1  0  0  0  0
  6  7  1  0  0  0  0
  7  8  1  0  0  0  0
  8  9  1  0  0  0  0
  9 10  1  0  0  0  0
 10 11  1  0  0  0  0
  1 11  1  0  0  0  0
  1  7  1  0  0  0  0
  4  8  1  0  0  0  0
  7 12  1  6  0  0  0
  8 13  1  6  0  0  0
  5 14  1  0  0  0  0
  5 15  1  0  0  0  0
  1 16  1  0  0  0  0
  4 17  1  0  0  0  0
M  END
>  <cdx:groupId>
55

>  <cdx:fragmentId>
5

$$$$
