82883.cdx
  Mrv1902 05222410242D          

 11 12  0  0  0  0            999 V2000
    8.0773   -9.7967    0.0000 N   0  0  0  0  0  0  0  0  0  0  0  0
    8.5622   -9.1292    0.0000 C   0  0  0  0  0  0  0  0  0  0  0  0
    8.0773   -8.4618    0.0000 C   0  0  0  0  0  0  0  0  0  0  0  0
    7.2927   -8.7167    0.0000 C   0  0  0  0  0  0  0  0  0  0  0  0
    6.5782   -8.3042    0.0000 C   0  0  0  0  0  0  0  0  0  0  0  0
    5.8637   -8.7167    0.0000 C   0  0  0  0  0  0  0  0  0  0  0  0
    5.8637   -9.5417    0.0000 C   0  0  0  0  0  0  0  0  0  0  0  0
    6.5782   -9.9542    0.0000 C   0  0  0  0  0  0  0  0  0  0  0  0
    7.2927   -9.5417    0.0000 C   0  0  0  0  0  0  0  0  0  0  0  0
    9.3872   -9.1292    0.0000 O   0  0  0  0  0  0  0  0  0  0  0  0
    5.1493   -8.3042    0.0000 O   0  0  0  0  0  0  0  0  0  0  0  0
  1  2  1  0  0  0  0
  2  3  2  0  0  0  0
  3  4  1  0  0  0  0
  4  5  1  0  0  0  0
  5  6  2  0  0  0  0
  6  7  1  0  0  0  0
  7  8  2  0  0  0  0
  8  9  1  0  0  0  0
  1  9  1  0  0  0  0
  4  9  2  0  0  0  0
  2 10  1  0  0  0  0
  6 11  1  0  0  0  0
M  END
>  <cdx:groupId>
172141

>  <cdx:fragmentId>
172110

$$$$
