10082923.cdx
  Mrv1902 05222410232D          

 17 18  0  0  0  0            999 V2000
    6.1234  -14.4050    0.0000 C   0  0  0  0  0  0  0  0  0  0  0  0
    5.4089  -13.9925    0.0000 C   0  0  0  0  0  0  0  0  0  0  0  0
    5.4089  -13.1675    0.0000 C   0  0  0  0  0  0  0  0  0  0  0  0
    6.1234  -12.7550    0.0000 C   0  0  2  0  0  0  0  0  0  0  0  0
    6.8379  -13.1675    0.0000 C   0  0  0  0  0  0  0  0  0  0  0  0
    7.5523  -12.7550    0.0000 C   0  0  1  0  0  0  0  0  0  0  0  0
    8.2668  -13.1675    0.0000 C   0  0  2  0  0  0  0  0  0  0  0  0
    8.2668  -13.9925    0.0000 C   0  0  0  0  0  0  0  0  0  0  0  0
    7.5523  -14.4050    0.0000 C   0  0  0  0  0  0  0  0  0  0  0  0
    6.8379  -13.9925    0.0000 C   0  0  0  0  0  0  0  0  0  0  0  0
    6.1234  -15.2300    0.0000 O   0  0  0  0  0  0  0  0  0  0  0  0
    6.8379  -11.5175    0.0000 C   0  0  0  0  0  0  0  0  0  0  0  0
    6.1234  -11.9300    0.0000 C   0  0  0  0  0  0  0  0  0  0  0  0
    5.4089  -11.5175    0.0000 C   0  0  0  0  0  0  0  0  0  0  0  0
    9.0918  -13.1675    0.0000 C   0  0  0  0  0  0  0  0  0  0  0  0
    8.6793  -12.4530    0.0000 O   0  0  0  0  0  0  0  0  0  0  0  0
    7.5523  -11.9300    0.0000 O   0  0  0  0  0  0  0  0  0  0  0  0
  1  2  1  0  0  0  0
  2  3  1  0  0  0  0
  3  4  1  0  0  0  0
  4  5  1  0  0  0  0
  5  6  1  0  0  0  0
  6  7  1  0  0  0  0
  7  8  1  0  0  0  0
  8  9  1  0  0  0  0
  9 10  1  0  0  0  0
  1 10  1  0  0  0  0
  5 10  2  0  0  0  0
  1 11  2  0  0  0  0
 12 13  1  0  0  0  0
 13 14  1  0  0  0  0
  4 13  1  1  0  0  0
  7 15  1  1  0  0  0
  7 16  1  6  0  0  0
  6 17  1  6  0  0  0
M  END
>  <cdx:groupId>
40210

>  <cdx:fragmentId>
40161

$$$$
