8299.cdx
  Mrv1902 05222410182D          

  5  4  0  0  0  0            999 V2000
    3.7275   -2.8597    0.0000 C   0  0  0  0  0  0  0  0  0  0  0  0
    4.4420   -2.4472    0.0000 C   0  0  0  0  0  0  0  0  0  0  0  0
    5.1564   -2.8597    0.0000 C   0  0  0  0  0  0  0  0  0  0  0  0
    4.4420   -1.6222    0.0000 O   0  0  0  0  0  0  0  0  0  0  0  0
    3.0130   -2.4472    0.0000 O   0  0  0  0  0  0  0  0  0  0  0  0
  1  2  1  0  0  0  0
  2  3  1  0  0  0  0
  2  4  2  0  0  0  0
  1  5  1  0  0  0  0
M  END
>  <cdx:groupId>
16

>  <cdx:fragmentId>
5

$$$$
