11830220.cdx
  Mrv1902 05222410252D          

 14 14  0  0  0  0            999 V2000
    7.4284  -10.6532    0.0000 C   0  0  0  0  0  0  0  0  0  0  0  0
    6.7140  -11.0657    0.0000 C   0  0  0  0  0  0  0  0  0  0  0  0
    5.9995  -10.6532    0.0000 C   0  0  0  0  0  0  0  0  0  0  0  0
    7.4284   -9.8282    0.0000 O   0  0  0  0  0  0  0  0  0  0  0  0
    8.1429  -11.0657    0.0000 O   0  0  0  0  0  0  0  0  0  0  0  0
    5.9995   -9.8282    0.0000 C   0  0  0  0  0  0  0  0  0  0  0  0
    5.2850   -9.4157    0.0000 C   0  0  0  0  0  0  0  0  0  0  0  0
    5.2850   -8.5907    0.0000 C   0  0  0  0  0  0  0  0  0  0  0  0
    5.9995   -8.1782    0.0000 C   0  0  0  0  0  0  0  0  0  0  0  0
    6.7140   -8.5907    0.0000 C   0  0  0  0  0  0  0  0  0  0  0  0
    6.7140   -9.4157    0.0000 C   0  0  0  0  0  0  0  0  0  0  0  0
    8.8574   -9.8282    0.0000 C   0  0  0  0  0  0  0  0  0  0  0  0
    8.8574  -10.6532    0.0000 C   0  0  0  0  0  0  0  0  0  0  0  0
    9.5719  -11.0657    0.0000 C   0  0  0  0  0  0  0  0  0  0  0  0
  1  2  1  0  0  0  0
  2  3  2  0  0  0  0
  1  4  2  0  0  0  0
  1  5  1  0  0  0  0
  6  7  1  0  0  0  0
  7  8  2  0  0  0  0
  8  9  1  0  0  0  0
  9 10  2  0  0  0  0
 10 11  1  0  0  0  0
  6 11  2  0  0  0  0
  3  6  1  0  0  0  0
 12 13  1  0  0  0  0
 13 14  1  0  0  0  0
  5 13  1  0  0  0  0
M  END
>  <cdx:groupId>
2785

>  <cdx:fragmentId>
2756

$$$$
