83036.cdx
  Mrv1902 05222410232D          

 14 13  0  0  0  0            999 V2000
    7.3631   -5.9881    0.0000 C   0  0  0  0  0  0  0  0  0  0  0  0
    7.3631   -5.1631    0.0000 C   0  0  0  0  0  0  0  0  0  0  0  0
    8.0776   -6.4006    0.0000 O   0  0  0  0  0  0  0  0  0  0  0  0
    6.6487   -6.4006    0.0000 O   0  0  0  0  0  0  0  0  0  0  0  0
    8.7921   -5.9881    0.0000 C   0  0  0  0  0  0  0  0  0  0  0  0
    9.5065   -6.4006    0.0000 C   0  0  0  0  0  0  0  0  0  0  0  0
   10.2210   -5.9881    0.0000 C   0  0  0  0  0  0  0  0  0  0  0  0
   10.2210   -5.1631    0.0000 C   0  0  0  0  0  0  0  0  0  0  0  0
   10.9355   -6.4006    0.0000 C   0  0  0  0  0  0  0  0  0  0  0  0
    5.9342   -5.9881    0.0000 C   0  0  0  0  0  0  0  0  0  0  0  0
    5.2197   -6.4006    0.0000 C   0  0  0  0  0  0  0  0  0  0  0  0
    4.5052   -5.9881    0.0000 C   0  0  0  0  0  0  0  0  0  0  0  0
    3.7908   -6.4006    0.0000 C   0  0  0  0  0  0  0  0  0  0  0  0
    4.5052   -5.1631    0.0000 C   0  0  0  0  0  0  0  0  0  0  0  0
  1  2  1  0  0  0  0
  5  6  1  0  0  0  0
  6  7  1  0  0  0  0
  7  8  1  0  0  0  0
  9  7  1  0  0  0  0
  3  5  1  0  0  0  0
 10 11  1  0  0  0  0
 11 12  1  0  0  0  0
 12 13  1  0  0  0  0
 14 12  1  0  0  0  0
  4 10  1  0  0  0  0
  1  3  1  0  0  0  0
  1  4  1  0  0  0  0
M  END
>  <cdx:fragmentId>
13

$$$$
