830517.cdx
  Mrv1902 05222410182D          

 35 38  0  0  0  0            999 V2000
    9.7562   -4.8164    0.0000 C   0  0  0  0  0  0  0  0  0  0  0  0
   10.3396   -5.3998    0.0000 C   0  0  0  0  0  0  0  0  0  0  0  0
   10.0846   -6.1844    0.0000 C   0  0  0  0  0  0  0  0  0  0  0  0
    9.2777   -6.3559    0.0000 C   0  0  0  0  0  0  0  0  0  0  0  0
    9.0227   -7.1406    0.0000 C   0  0  0  0  0  0  0  0  0  0  0  0
    8.2157   -7.3121    0.0000 C   0  0  1  0  0  0  0  0  0  0  0  0
    7.6637   -6.6990    0.0000 C   0  0  0  0  0  0  0  0  0  0  0  0
    9.9697   -4.0195    0.0000 O   0  0  0  0  0  0  0  0  0  0  0  0
   11.1465   -5.2283    0.0000 C   0  0  0  0  0  0  0  0  0  0  0  0
    4.3183   -9.1767    0.0000 C   0  0  0  0  0  0  0  0  0  0  0  0
    3.6038   -9.5892    0.0000 C   0  0  0  0  0  0  0  0  0  0  0  0
    3.6038  -10.4142    0.0000 C   0  0  0  0  0  0  0  0  0  0  0  0
    4.3183  -10.8267    0.0000 C   0  0  0  0  0  0  0  0  0  0  0  0
    5.0328  -10.4142    0.0000 C   0  0  2  0  0  0  0  0  0  0  0  0
    5.7472  -10.8267    0.0000 C   0  0  0  0  0  0  0  0  0  0  0  0
    6.4617  -10.4142    0.0000 C   0  0  0  0  0  0  0  0  0  0  0  0
    6.4617   -9.5892    0.0000 C   0  0  0  0  0  0  0  0  0  0  0  0
    7.1762   -9.1767    0.0000 C   0  0  2  0  0  0  0  0  0  0  0  0
    7.9608   -9.4316    0.0000 C   0  0  2  0  0  0  0  0  0  0  0  0
    8.4457   -8.7642    0.0000 C   0  0  0  0  0  0  0  0  0  0  0  0
    7.9608   -8.0967    0.0000 C   0  0  1  0  0  0  0  0  0  0  0  0
    7.1762   -8.3517    0.0000 C   0  0  1  0  0  0  0  0  0  0  0  0
    6.4617   -7.9392    0.0000 C   0  0  0  0  0  0  0  0  0  0  0  0
    5.7472   -8.3517    0.0000 C   0  0  0  0  0  0  0  0  0  0  0  0
    5.7472   -9.1767    0.0000 C   0  0  0  0  0  0  0  0  0  0  0  0
    5.0328   -9.5892    0.0000 C   0  0  1  0  0  0  0  0  0  0  0  0
    2.8894  -10.8267    0.0000 O   0  0  0  0  0  0  0  0  0  0  0  0
    7.1762  -10.0017    0.0000 C   0  0  0  0  0  0  0  0  0  0  0  0
    7.1762   -7.5267    0.0000 C   0  0  0  0  0  0  0  0  0  0  0  0
    5.0328   -8.7642    0.0000 C   0  0  0  0  0  0  0  0  0  0  0  0
    4.7308  -11.5411    0.0000 C   0  0  0  0  0  0  0  0  0  0  0  0
    3.9058  -11.5411    0.0000 C   0  0  0  0  0  0  0  0  0  0  0  0
    8.2157  -10.2162    0.0000 O   0  0  0  0  0  0  0  0  0  0  0  0
    5.0328  -11.2392    0.0000 H   0  0  0  0  0  0  0  0  0  0  0  0
    8.7454   -7.8418    0.0000 H   0  0  0  0  0  0  0  0  0  0  0  0
  1  2  1  0  0  0  0
  2  3  2  0  0  0  0
  3  4  1  0  0  0  0
  4  5  1  0  0  0  0
  5  6  1  0  0  0  0
  6  7  1  6  0  0  0
  1  8  2  0  0  0  0
  2  9  1  0  0  0  0
 10 11  1  0  0  0  0
 11 12  1  0  0  0  0
 12 13  1  0  0  0  0
 13 14  1  0  0  0  0
 14 15  1  0  0  0  0
 15 16  1  0  0  0  0
 16 17  2  0  0  0  0
 17 18  1  0  0  0  0
 18 19  1  0  0  0  0
 19 20  1  0  0  0  0
 21 20  1  0  0  0  0
 21 22  1  0  0  0  0
 18 22  1  0  0  0  0
 22 23  1  0  0  0  0
 23 24  1  0  0  0  0
 24 25  2  0  0  0  0
 17 25  1  0  0  0  0
 25 26  1  0  0  0  0
 14 26  1  0  0  0  0
 10 26  1  0  0  0  0
 12 27  2  0  0  0  0
 18 28  1  6  0  0  0
 22 29  1  1  0  0  0
 26 30  1  1  0  0  0
 13 31  1  0  0  0  0
 13 32  1  0  0  0  0
 19 33  1  6  0  0  0
  6 21  1  0  0  0  0
 14 34  1  6  0  0  0
 21 35  1  6  0  0  0
M  END
>  <cdx:groupId>
177293

>  <cdx:fragmentId>
177209

$$$$
