830519.cdx
  Mrv1902 05222410272D          

 25 26  0  0  0  0            999 V2000
    7.1880  -10.4572    0.0000 C   0  0  0  0  0  0  0  0  0  0  0  0
    8.0130  -10.4573    0.0000 C   0  0  0  0  0  0  0  0  0  0  0  0
    8.4256   -9.7428    0.0000 C   0  0  0  0  0  0  0  0  0  0  0  0
    9.2506   -9.7428    0.0000 C   0  0  0  0  0  0  0  0  0  0  0  0
    9.6631   -9.0284    0.0000 C   0  0  0  0  0  0  0  0  0  0  0  0
   10.4881   -9.0284    0.0000 C   0  0  0  0  0  0  0  0  0  0  0  0
   10.9006   -8.3139    0.0000 C   0  0  0  0  0  0  0  0  0  0  0  0
   11.7256   -8.3139    0.0000 C   0  0  0  0  0  0  0  0  0  0  0  0
   12.1381   -9.0284    0.0000 C   0  0  0  0  0  0  0  0  0  0  0  0
   12.1381   -7.5995    0.0000 C   0  0  0  0  0  0  0  0  0  0  0  0
    2.5375  -11.9966    0.0000 O   0  0  0  0  0  0  0  0  0  0  0  0
    4.6810  -10.7592    0.0000 C   0  0  0  0  0  0  0  0  0  0  0  0
    3.9665  -10.3466    0.0000 C   0  0  0  0  0  0  0  0  0  0  0  0
    3.2520  -10.7591    0.0000 C   0  0  0  0  0  0  0  0  0  0  0  0
    3.2520  -11.5841    0.0000 C   0  0  0  0  0  0  0  0  0  0  0  0
    3.9665  -11.9966    0.0000 C   0  0  0  0  0  0  0  0  0  0  0  0
    4.6810  -11.5842    0.0000 C   0  0  0  0  0  0  0  0  0  0  0  0
    5.4656  -11.8391    0.0000 C   0  0  0  0  0  0  0  0  0  0  0  0
    5.9505  -11.1717    0.0000 C   0  0  0  0  0  0  0  0  0  0  0  0
    5.4656  -10.5042    0.0000 O   0  0  0  0  0  0  0  0  0  0  0  0
    9.6630  -10.4573    0.0000 C   0  0  0  0  0  0  0  0  0  0  0  0
    6.7755  -12.6007    0.0000 O   0  0  0  0  0  0  0  0  0  0  0  0
    8.0130  -11.8862    0.0000 O   0  0  0  0  0  0  0  0  0  0  0  0
    6.7755  -11.1717    0.0000 C   0  0  0  0  0  0  0  0  0  0  0  0
    7.1880  -11.8862    0.0000 C   0  0  0  0  0  0  0  0  0  0  0  0
 24 19  1  0  0  0  0
 15 11  1  0  0  0  0
 20 12  1  0  0  0  0
 17 12  2  0  0  0  0
 13 12  1  0  0  0  0
 14 13  2  0  0  0  0
 15 14  1  0  0  0  0
 16 15  2  0  0  0  0
 17 16  1  0  0  0  0
 18 17  1  0  0  0  0
 19 18  2  0  0  0  0
 20 19  1  0  0  0  0
 25 22  1  0  0  0  0
 25 23  2  0  0  0  0
 24  1  1  0  0  0  0
 25 24  1  0  0  0  0
  1  2  1  0  0  0  0
  2  3  1  0  0  0  0
  3  4  2  0  0  0  0
  4  5  1  0  0  0  0
  5  6  1  0  0  0  0
  6  7  1  0  0  0  0
  7  8  2  0  0  0  0
  8  9  1  0  0  0  0
  8 10  1  0  0  0  0
  4 21  1  0  0  0  0
M  END
>  <cdx:groupId>
177491

>  <cdx:fragmentId>
177418

$$$$
