830516.cdx
  Mrv1902 05222410182D          

 36 39  0  0  0  0            999 V2000
   10.5721   -7.5316    0.0000 C   0  0  0  0  0  0  0  0  0  0  0  0
   10.3171   -8.3163    0.0000 C   0  0  0  0  0  0  0  0  0  0  0  0
    9.5101   -8.4878    0.0000 C   0  0  0  0  0  0  0  0  0  0  0  0
    9.2552   -9.2724    0.0000 C   0  0  0  0  0  0  0  0  0  0  0  0
    8.4482   -9.4439    0.0000 C   0  0  1  0  0  0  0  0  0  0  0  0
    7.8962   -8.8309    0.0000 C   0  0  0  0  0  0  0  0  0  0  0  0
   11.6340   -6.5755    0.0000 O   0  0  0  0  0  0  0  0  0  0  0  0
   10.0200   -6.9186    0.0000 C   0  0  0  0  0  0  0  0  0  0  0  0
    4.5508  -11.3085    0.0000 C   0  0  0  0  0  0  0  0  0  0  0  0
    3.8363  -11.7210    0.0000 C   0  0  0  0  0  0  0  0  0  0  0  0
    3.8363  -12.5460    0.0000 C   0  0  0  0  0  0  0  0  0  0  0  0
    4.5508  -12.9585    0.0000 C   0  0  0  0  0  0  0  0  0  0  0  0
    5.2653  -12.5460    0.0000 C   0  0  2  0  0  0  0  0  0  0  0  0
    5.9797  -12.9585    0.0000 C   0  0  0  0  0  0  0  0  0  0  0  0
    6.6942  -12.5460    0.0000 C   0  0  0  0  0  0  0  0  0  0  0  0
    6.6942  -11.7210    0.0000 C   0  0  0  0  0  0  0  0  0  0  0  0
    7.4087  -11.3085    0.0000 C   0  0  2  0  0  0  0  0  0  0  0  0
    8.1933  -11.5634    0.0000 C   0  0  1  0  0  0  0  0  0  0  0  0
    8.6782  -10.8960    0.0000 C   0  0  0  0  0  0  0  0  0  0  0  0
    8.1933  -10.2286    0.0000 C   0  0  1  0  0  0  0  0  0  0  0  0
    7.4087  -10.4835    0.0000 C   0  0  1  0  0  0  0  0  0  0  0  0
    6.6942  -10.0710    0.0000 C   0  0  0  0  0  0  0  0  0  0  0  0
    5.9797  -10.4835    0.0000 C   0  0  0  0  0  0  0  0  0  0  0  0
    5.9797  -11.3085    0.0000 C   0  0  0  0  0  0  0  0  0  0  0  0
    5.2653  -11.7210    0.0000 C   0  0  1  0  0  0  0  0  0  0  0  0
    3.1218  -12.9585    0.0000 O   0  0  0  0  0  0  0  0  0  0  0  0
    7.4087  -12.1335    0.0000 C   0  0  0  0  0  0  0  0  0  0  0  0
    7.4087   -9.6585    0.0000 C   0  0  0  0  0  0  0  0  0  0  0  0
    5.2653  -10.8960    0.0000 C   0  0  0  0  0  0  0  0  0  0  0  0
    4.9633  -13.6730    0.0000 C   0  0  0  0  0  0  0  0  0  0  0  0
    4.1383  -13.6730    0.0000 C   0  0  0  0  0  0  0  0  0  0  0  0
    8.4482  -12.3481    0.0000 O   0  0  0  0  0  0  0  0  0  0  0  0
    5.2653  -13.3710    0.0000 H   0  0  0  0  0  0  0  0  0  0  0  0
   11.9311   -7.9732    0.0000 O   0  0  0  0  0  0  0  0  0  0  0  0
   11.3790   -7.3601    0.0000 C   0  0  0  0  0  0  0  0  0  0  0  0
    8.9779   -9.9736    0.0000 H   0  0  0  0  0  0  0  0  0  0  0  0
 35  7  1  0  0  0  0
 35 34  2  0  0  0  0
 35  1  1  0  0  0  0
  1  2  2  0  0  0  0
  2  3  1  0  0  0  0
  3  4  1  0  0  0  0
  4  5  1  0  0  0  0
  5  6  1  6  0  0  0
  1  8  1  0  0  0  0
  9 10  1  0  0  0  0
 10 11  1  0  0  0  0
 11 12  1  0  0  0  0
 12 13  1  0  0  0  0
 13 14  1  0  0  0  0
 14 15  1  0  0  0  0
 15 16  2  0  0  0  0
 16 17  1  0  0  0  0
 17 18  1  0  0  0  0
 18 19  1  0  0  0  0
 20 19  1  0  0  0  0
 20 21  1  0  0  0  0
 17 21  1  0  0  0  0
 21 22  1  0  0  0  0
 22 23  1  0  0  0  0
 23 24  2  0  0  0  0
 16 24  1  0  0  0  0
 24 25  1  0  0  0  0
 13 25  1  0  0  0  0
  9 25  1  0  0  0  0
 11 26  2  0  0  0  0
 17 27  1  6  0  0  0
 21 28  1  1  0  0  0
 25 29  1  1  0  0  0
 12 30  1  0  0  0  0
 12 31  1  0  0  0  0
 18 32  1  1  0  0  0
  5 20  1  0  0  0  0
 13 33  1  6  0  0  0
 20 36  1  6  0  0  0
M  END
>  <cdx:groupId>
177182

>  <cdx:fragmentId>
177097

$$$$
