830518.cdx
  Mrv1902 05222410272D          

 36 39  0  0  0  0            999 V2000
   11.0808   -5.5184    0.0000 C   0  0  0  0  0  0  0  0  0  0  0  0
   10.0189   -6.4746    0.0000 C   0  0  0  0  0  0  0  0  0  0  0  0
    9.2120   -6.6461    0.0000 C   0  0  0  0  0  0  0  0  0  0  0  0
    8.9570   -7.4307    0.0000 C   0  0  0  0  0  0  0  0  0  0  0  0
    8.1500   -7.6022    0.0000 C   0  0  1  0  0  0  0  0  0  0  0  0
    7.5980   -6.9891    0.0000 C   0  0  0  0  0  0  0  0  0  0  0  0
   11.6329   -6.1315    0.0000 O   0  0  0  0  0  0  0  0  0  0  0  0
    9.7218   -5.0768    0.0000 C   0  0  0  0  0  0  0  0  0  0  0  0
    4.2526   -9.4668    0.0000 C   0  0  0  0  0  0  0  0  0  0  0  0
    3.5381   -9.8793    0.0000 C   0  0  0  0  0  0  0  0  0  0  0  0
    3.5381  -10.7043    0.0000 C   0  0  0  0  0  0  0  0  0  0  0  0
    4.2526  -11.1168    0.0000 C   0  0  0  0  0  0  0  0  0  0  0  0
    4.9671  -10.7043    0.0000 C   0  0  2  0  0  0  0  0  0  0  0  0
    5.6815  -11.1168    0.0000 C   0  0  0  0  0  0  0  0  0  0  0  0
    6.3960  -10.7043    0.0000 C   0  0  0  0  0  0  0  0  0  0  0  0
    6.3960   -9.8793    0.0000 C   0  0  0  0  0  0  0  0  0  0  0  0
    7.1105   -9.4668    0.0000 C   0  0  2  0  0  0  0  0  0  0  0  0
    7.8951   -9.7217    0.0000 C   0  0  0  0  0  0  0  0  0  0  0  0
    8.3800   -9.0543    0.0000 C   0  0  0  0  0  0  0  0  0  0  0  0
    7.8951   -8.3869    0.0000 C   0  0  1  0  0  0  0  0  0  0  0  0
    7.1105   -8.6418    0.0000 C   0  0  1  0  0  0  0  0  0  0  0  0
    6.3960   -8.2293    0.0000 C   0  0  0  0  0  0  0  0  0  0  0  0
    5.6815   -8.6418    0.0000 C   0  0  0  0  0  0  0  0  0  0  0  0
    5.6815   -9.4668    0.0000 C   0  0  0  0  0  0  0  0  0  0  0  0
    4.9671   -9.8793    0.0000 C   0  0  1  0  0  0  0  0  0  0  0  0
    7.1105  -10.2918    0.0000 C   0  0  0  0  0  0  0  0  0  0  0  0
    7.1105   -7.8168    0.0000 C   0  0  0  0  0  0  0  0  0  0  0  0
    4.9671   -9.0543    0.0000 C   0  0  0  0  0  0  0  0  0  0  0  0
    4.6651  -11.8313    0.0000 C   0  0  0  0  0  0  0  0  0  0  0  0
    3.8401  -11.8313    0.0000 C   0  0  0  0  0  0  0  0  0  0  0  0
    2.8237  -11.1168    0.0000 O   0  0  0  0  0  0  0  0  0  0  0  0
    8.6599   -6.0330    0.0000 O   0  0  0  0  0  0  0  0  0  0  0  0
    4.9671  -11.5293    0.0000 H   0  0  0  0  0  0  0  0  0  0  0  0
   11.3358   -4.7338    0.0000 O   0  0  0  0  0  0  0  0  0  0  0  0
   10.2739   -5.6899    0.0000 C   0  0  0  0  0  0  0  0  0  0  0  0
    8.6797   -8.1319    0.0000 H   0  0  0  0  0  0  0  0  0  0  0  0
 35  8  1  0  0  0  0
  1 35  1  0  0  0  0
 35  2  2  0  0  0  0
  2  3  1  0  0  0  0
  3  4  1  0  0  0  0
  4  5  1  0  0  0  0
  5  6  1  6  0  0  0
  1  7  2  0  0  0  0
  1 34  1  0  0  0  0
  9 10  1  0  0  0  0
 10 11  1  0  0  0  0
 11 12  1  0  0  0  0
 12 13  1  0  0  0  0
 13 14  1  0  0  0  0
 14 15  1  0  0  0  0
 15 16  2  0  0  0  0
 16 17  1  0  0  0  0
 17 18  1  0  0  0  0
 18 19  1  0  0  0  0
 20 19  1  0  0  0  0
 20 21  1  0  0  0  0
 17 21  1  0  0  0  0
 21 22  1  0  0  0  0
 22 23  1  0  0  0  0
 23 24  2  0  0  0  0
 16 24  1  0  0  0  0
 24 25  1  0  0  0  0
 13 25  1  0  0  0  0
  9 25  1  0  0  0  0
 17 26  1  6  0  0  0
 21 27  1  1  0  0  0
 25 28  1  1  0  0  0
 12 29  1  0  0  0  0
 12 30  1  0  0  0  0
 11 31  1  0  0  0  0
  5 20  1  0  0  0  0
  3 32  1  0  0  0  0
 13 33  1  6  0  0  0
 20 36  1  6  0  0  0
M  END
>  <cdx:fragmentId>
177324

$$$$
