830551.cdx
  Mrv1902 05222410252D          

 17 18  0  0  0  0            999 V2000
    7.2611   -9.2320    0.0000 C   0  0  1  0  0  0  0  0  0  0  0  0
    7.2611  -10.0570    0.0000 C   0  0  2  0  0  0  0  0  0  0  0  0
    6.6161  -10.5714    0.0000 C   0  0  0  0  0  0  0  0  0  0  0  0
    5.8118  -10.3878    0.0000 C   0  0  0  0  0  0  0  0  0  0  0  0
    5.4538   -9.6445    0.0000 C   0  0  0  0  0  0  0  0  0  0  0  0
    5.8118   -8.9012    0.0000 C   0  0  0  0  0  0  0  0  0  0  0  0
    6.6161   -8.7176    0.0000 C   0  0  0  0  0  0  0  0  0  0  0  0
    7.9756  -10.4695    0.0000 C   0  0  0  0  0  0  0  0  0  0  0  0
    8.6901  -10.0570    0.0000 C   0  0  0  0  0  0  0  0  0  0  0  0
    8.6901   -9.2320    0.0000 C   0  0  0  0  0  0  0  0  0  0  0  0
    7.9756   -8.8195    0.0000 C   0  0  0  0  0  0  0  0  0  0  0  0
    6.7997  -11.3757    0.0000 C   0  0  0  0  0  0  0  0  0  0  0  0
    7.0637   -8.0246    0.0000 C   0  0  0  0  0  0  0  0  0  0  0  0
    6.3052   -7.9534    0.0000 C   0  0  0  0  0  0  0  0  0  0  0  0
    9.4045   -8.8195    0.0000 C   0  0  0  0  0  0  0  0  0  0  0  0
    7.4044   -8.4195    0.0000 H   0  0  0  0  0  0  0  0  0  0  0  0
    7.2611  -10.8820    0.0000 H   0  0  0  0  0  0  0  0  0  0  0  0
  1  2  1  0  0  0  0
  2  3  1  0  0  0  0
  3  4  1  0  0  0  0
  4  5  1  0  0  0  0
  5  6  1  0  0  0  0
  6  7  1  0  0  0  0
  1  7  1  0  0  0  0
  8  9  1  0  0  0  0
  9 10  1  0  0  0  0
 10 11  2  0  0  0  0
 11  1  1  0  0  0  0
  8  2  1  0  0  0  0
  3 12  2  0  0  0  0
  7 13  1  0  0  0  0
  7 14  1  0  0  0  0
 10 15  1  0  0  0  0
  1 16  1  6  0  0  0
  2 17  1  6  0  0  0
M  END
>  <cdx:fragmentId>
2885

$$$$
