830923.cdx
  Mrv1902 05222410202D          

 22 22  0  0  0  0            999 V2000
    8.8532   -6.9333    0.0000 C   0  0  0  0  0  0  0  0  0  0  0  0
    9.5658   -7.3490    0.0000 C   0  0  0  0  0  0  0  0  0  0  0  0
   10.2822   -6.9397    0.0000 C   0  0  0  0  0  0  0  0  0  0  0  0
    8.8569   -6.1083    0.0000 O   0  0  0  0  0  0  0  0  0  0  0  0
    8.1369   -7.3425    0.0000 N   0  0  0  0  0  0  0  0  0  0  0  0
    4.5665   -6.9114    0.0000 O   0  0  0  0  0  0  0  0  0  0  0  0
    5.2783   -7.3284    0.0000 C   0  0  2  0  0  0  0  0  0  0  0  0
    5.2732   -8.1534    0.0000 C   0  0  1  0  0  0  0  0  0  0  0  0
    4.5561   -8.5614    0.0000 C   0  0  2  0  0  0  0  0  0  0  0  0
    3.8443   -8.1444    0.0000 C   0  0  1  0  0  0  0  0  0  0  0  0
    3.8494   -7.3195    0.0000 C   0  0  1  0  0  0  0  0  0  0  0  0
    3.1375   -6.9025    0.0000 C   0  0  0  0  0  0  0  0  0  0  0  0
    2.4205   -7.3105    0.0000 O   0  0  0  0  0  0  0  0  0  0  0  0
    3.1272   -8.5525    0.0000 O   0  0  0  0  0  0  0  0  0  0  0  0
    4.5510   -9.3864    0.0000 O   0  0  0  0  0  0  0  0  0  0  0  0
    5.9850   -8.5703    0.0000 O   0  0  0  0  0  0  0  0  0  0  0  0
    5.9954   -6.9204    0.0000 O   0  0  0  0  0  0  0  0  0  0  0  0
    7.4243   -6.9268    0.0000 C   0  0  0  0  0  0  0  0  0  0  0  0
    6.7080   -7.3361    0.0000 C   0  0  0  0  0  0  0  0  0  0  0  0
   10.9948   -7.3554    0.0000 S   0  0  0  0  0  0  0  0  0  0  0  0
   10.9910   -8.1804    0.0000 O   0  0  0  0  0  0  0  0  0  0  0  0
   11.7111   -6.9462    0.0000 C   0  0  0  0  0  0  0  0  0  0  0  0
  6  7  1  0  0  0  0
  1  2  1  0  0  0  0
  2  3  2  0  0  0  0
  7  8  1  0  0  0  0
  8  9  1  0  0  0  0
  9 10  1  0  0  0  0
 10 11  1  0  0  0  0
  6 11  1  0  0  0  0
 12 13  1  0  0  0  0
 11 12  1  1  0  0  0
 10 14  1  6  0  0  0
  9 15  1  1  0  0  0
  8 16  1  6  0  0  0
  7 17  1  1  0  0  0
  1  4  2  0  0  0  0
  1  5  1  0  0  0  0
 18 19  1  0  0  0  0
 19 17  1  0  0  0  0
  5 18  1  0  0  0  0
 20 21  2  0  0  0  0
 20 22  1  0  0  0  0
  3 20  1  0  0  0  0
M  END
>  <cdx:fragmentId>
21

$$$$
