831063.cdx
  Mrv1902 05222410242D          

 45 50  0  0  0  0            999 V2000
    8.4792   -9.9200    0.0000 C   0  0  2  0  0  0  0  0  0  0  0  0
    8.4799  -10.7450    0.0000 C   0  0  2  0  0  0  0  0  0  0  0  0
    7.7658  -11.1581    0.0000 C   0  0  0  0  0  0  0  0  0  0  0  0
    7.0510  -10.7462    0.0000 C   0  0  0  0  0  0  0  0  0  0  0  0
    6.3369  -11.1593    0.0000 C   0  0  0  0  0  0  0  0  0  0  0  0
    5.6220  -10.7475    0.0000 C   0  0  0  0  0  0  0  0  0  0  0  0
    5.6213   -9.9225    0.0000 C   0  0  0  0  0  0  0  0  0  0  0  0
    6.3354   -9.5093    0.0000 C   0  0  0  0  0  0  0  0  0  0  0  0
    7.0502   -9.9212    0.0000 C   0  0  0  0  0  0  0  0  0  0  0  0
    7.7643   -9.5081    0.0000 O   0  0  0  0  0  0  0  0  0  0  0  0
    9.1947  -11.1568    0.0000 O   0  0  0  0  0  0  0  0  0  0  0  0
    6.3376  -11.9843    0.0000 O   0  0  0  0  0  0  0  0  0  0  0  0
    4.9065   -9.5106    0.0000 O   0  0  0  0  0  0  0  0  0  0  0  0
    7.0476   -6.9512    0.0000 C   0  0  2  0  0  0  0  0  0  0  0  0
    7.0484   -7.7762    0.0000 C   0  0  2  0  0  0  0  0  0  0  0  0
    6.3342   -8.1893    0.0000 C   0  0  1  0  0  0  0  0  0  0  0  0
    5.6194   -7.7775    0.0000 C   0  0  0  0  0  0  0  0  0  0  0  0
    4.9053   -8.1906    0.0000 C   0  0  0  0  0  0  0  0  0  0  0  0
    4.1905   -7.7787    0.0000 C   0  0  0  0  0  0  0  0  0  0  0  0
    4.1897   -6.9537    0.0000 C   0  0  0  0  0  0  0  0  0  0  0  0
    4.9039   -6.5406    0.0000 C   0  0  0  0  0  0  0  0  0  0  0  0
    5.6187   -6.9525    0.0000 C   0  0  0  0  0  0  0  0  0  0  0  0
    6.3328   -6.5393    0.0000 O   0  0  0  0  0  0  0  0  0  0  0  0
    7.7617   -6.5381    0.0000 C   0  0  0  0  0  0  0  0  0  0  0  0
    7.7610   -5.7131    0.0000 C   0  0  0  0  0  0  0  0  0  0  0  0
    8.4751   -5.3000    0.0000 C   0  0  0  0  0  0  0  0  0  0  0  0
    9.1900   -5.7118    0.0000 C   0  0  0  0  0  0  0  0  0  0  0  0
    9.1907   -6.5368    0.0000 C   0  0  0  0  0  0  0  0  0  0  0  0
    8.4766   -6.9500    0.0000 C   0  0  0  0  0  0  0  0  0  0  0  0
    9.9055   -6.9487    0.0000 O   0  0  0  0  0  0  0  0  0  0  0  0
    9.9041   -5.2987    0.0000 O   0  0  0  0  0  0  0  0  0  0  0  0
    8.4744   -4.4750    0.0000 O   0  0  0  0  0  0  0  0  0  0  0  0
    3.4749   -6.5418    0.0000 O   0  0  0  0  0  0  0  0  0  0  0  0
    4.9060   -9.0156    0.0000 O   0  0  0  0  0  0  0  0  0  0  0  0
    7.7632   -8.1881    0.0000 O   0  0  0  0  0  0  0  0  0  0  0  0
    9.1933   -9.5068    0.0000 C   0  0  0  0  0  0  0  0  0  0  0  0
    9.9081   -9.9187    0.0000 C   0  0  0  0  0  0  0  0  0  0  0  0
   10.6222   -9.5056    0.0000 C   0  0  0  0  0  0  0  0  0  0  0  0
   10.6215   -8.6806    0.0000 C   0  0  0  0  0  0  0  0  0  0  0  0
    9.9067   -8.2687    0.0000 C   0  0  0  0  0  0  0  0  0  0  0  0
    9.1926   -8.6818    0.0000 C   0  0  0  0  0  0  0  0  0  0  0  0
   11.3356   -8.2674    0.0000 O   0  0  0  0  0  0  0  0  0  0  0  0
   11.3371   -9.9174    0.0000 O   0  0  0  0  0  0  0  0  0  0  0  0
    6.9176   -8.7727    0.0000 H   0  0  0  0  0  0  0  0  0  0  0  0
    9.9059   -7.4437    0.0000 O   0  0  0  0  0  0  0  0  0  0  0  0
  1  2  1  0  0  0  0
  2  3  1  0  0  0  0
  3  4  1  0  0  0  0
  4  5  1  0  0  0  0
  5  6  2  0  0  0  0
  6  7  1  0  0  0  0
  7  8  2  0  0  0  0
  8  9  1  0  0  0  0
  4  9  2  0  0  0  0
  9 10  1  0  0  0  0
  1 10  1  0  0  0  0
  2 11  1  1  0  0  0
  5 12  1  0  0  0  0
  7 13  1  0  0  0  0
 14 15  1  0  0  0  0
 15 16  1  0  0  0  0
 16 17  1  0  0  0  0
 17 18  1  0  0  0  0
 18 19  2  0  0  0  0
 19 20  1  0  0  0  0
 20 21  2  0  0  0  0
 21 22  1  0  0  0  0
 17 22  2  0  0  0  0
 22 23  1  0  0  0  0
 14 23  1  0  0  0  0
 24 25  1  0  0  0  0
 25 26  2  0  0  0  0
 26 27  1  0  0  0  0
 27 28  2  0  0  0  0
 28 29  1  0  0  0  0
 24 29  2  0  0  0  0
 28 30  1  0  0  0  0
 27 31  1  0  0  0  0
 26 32  1  0  0  0  0
 14 24  1  6  0  0  0
 20 33  1  0  0  0  0
 18 34  1  0  0  0  0
 15 35  1  1  0  0  0
 16  8  1  0  0  0  0
 36 37  1  0  0  0  0
 37 38  2  0  0  0  0
 38 39  1  0  0  0  0
 39 40  2  0  0  0  0
 40 41  1  0  0  0  0
 36 41  2  0  0  0  0
 39 42  1  0  0  0  0
 38 43  1  0  0  0  0
  1 36  1  6  0  0  0
 16 44  1  1  0  0  0
 40 45  1  0  0  0  0
M  END
>  <cdx:groupId>
96384

>  <cdx:fragmentId>
96279

$$$$
