831187.cdx
  Mrv1902 05222410192D          

 47 50  0  0  0  0            999 V2000
    7.9087   -8.1477    0.0000 O   0  0  0  0  0  0  0  0  0  0  0  0
    7.1889   -8.5508    0.0000 C   0  0  1  0  0  0  0  0  0  0  0  0
    7.1781   -9.3757    0.0000 C   0  0  2  0  0  0  0  0  0  0  0  0
    7.8871   -9.7976    0.0000 C   0  0  1  0  0  0  0  0  0  0  0  0
    8.6069   -9.3945    0.0000 C   0  0  2  0  0  0  0  0  0  0  0  0
    8.6177   -8.5696    0.0000 C   0  0  2  0  0  0  0  0  0  0  0  0
    9.3375   -8.1665    0.0000 O   0  0  0  0  0  0  0  0  0  0  0  0
   10.0465   -8.5883    0.0000 C   0  0  0  0  0  0  0  0  0  0  0  0
   10.7663   -8.1852    0.0000 C   0  0  0  0  0  0  0  0  0  0  0  0
    9.3159   -9.8163    0.0000 O   0  0  0  0  0  0  0  0  0  0  0  0
    6.4582   -9.7788    0.0000 O   0  0  0  0  0  0  0  0  0  0  0  0
    6.4799   -8.1290    0.0000 C   0  0  0  0  0  0  0  0  0  0  0  0
    0.7430   -9.7039    0.0000 O   0  0  0  0  0  0  0  0  0  0  0  0
    0.0448   -8.4571    0.0000 C   0  0  0  0  0  0  0  0  0  0  0  0
    0.7646   -8.0540    0.0000 O   0  0  0  0  0  0  0  0  0  0  0  0
    2.8916   -9.3195    0.0000 C   0  0  0  0  0  0  0  0  0  0  0  0
    2.1718   -9.7226    0.0000 C   0  0  0  0  0  0  0  0  0  0  0  0
    1.4628   -9.3008    0.0000 C   0  0  0  0  0  0  0  0  0  0  0  0
    1.4736   -8.4758    0.0000 C   0  0  0  0  0  0  0  0  0  0  0  0
    2.1934   -8.0727    0.0000 C   0  0  0  0  0  0  0  0  0  0  0  0
    2.9024   -8.4946    0.0000 C   0  0  0  0  0  0  0  0  0  0  0  0
    5.7601   -8.5321    0.0000 O   0  0  0  0  0  0  0  0  0  0  0  0
    5.0619   -7.2853    0.0000 O   0  0  0  0  0  0  0  0  0  0  0  0
    3.6222   -8.0915    0.0000 C   0  0  0  0  0  0  0  0  0  0  0  0
    4.3312   -8.5133    0.0000 C   0  0  0  0  0  0  0  0  0  0  0  0
    7.8546  -12.2724    0.0000 O   0  0  0  0  0  0  0  0  0  0  0  0
    6.4150  -13.0785    0.0000 O   0  0  0  0  0  0  0  0  0  0  0  0
    4.9970  -12.2349    0.0000 O   0  0  0  0  0  0  0  0  0  0  0  0
    4.2988  -10.9881    0.0000 O   0  0  0  0  0  0  0  0  0  0  0  0
    5.0186  -10.5850    0.0000 C   0  0  0  0  0  0  0  0  0  0  0  0
    5.7276  -11.0069    0.0000 C   0  0  2  0  0  0  0  0  0  0  0  0
    5.7168  -11.8318    0.0000 C   0  0  2  0  0  0  0  0  0  0  0  0
    6.4258  -12.2536    0.0000 C   0  0  1  0  0  0  0  0  0  0  0  0
    7.1456  -11.8505    0.0000 C   0  0  2  0  0  0  0  0  0  0  0  0
    7.1564  -11.0256    0.0000 C   0  0  1  0  0  0  0  0  0  0  0  0
    6.4474  -10.6038    0.0000 O   0  0  0  0  0  0  0  0  0  0  0  0
    7.8762  -10.6225    0.0000 O   0  0  0  0  0  0  0  0  0  0  0  0
   13.6240   -8.2227    0.0000 O   0  0  0  0  0  0  0  0  0  0  0  0
   14.3222   -9.4694    0.0000 C   0  0  0  0  0  0  0  0  0  0  0  0
   13.6023   -9.8725    0.0000 O   0  0  0  0  0  0  0  0  0  0  0  0
   11.4645   -9.4320    0.0000 C   0  0  0  0  0  0  0  0  0  0  0  0
   12.1735   -9.8538    0.0000 C   0  0  0  0  0  0  0  0  0  0  0  0
   12.8933   -9.4507    0.0000 C   0  0  0  0  0  0  0  0  0  0  0  0
   12.9042   -8.6258    0.0000 C   0  0  0  0  0  0  0  0  0  0  0  0
   12.1952   -8.2039    0.0000 C   0  0  0  0  0  0  0  0  0  0  0  0
   11.4753   -8.6070    0.0000 C   0  0  0  0  0  0  0  0  0  0  0  0
    5.0511   -8.1102    0.0000 C   0  0  0  0  0  0  0  0  0  0  0  0
 22 12  1  0  0  0  0
 24 21  1  0  0  0  0
 18 13  1  0  0  0  0
 19 15  1  0  0  0  0
 15 14  1  0  0  0  0
 21 16  2  0  0  0  0
 17 16  1  0  0  0  0
 18 17  2  0  0  0  0
 19 18  1  0  0  0  0
 20 19  2  0  0  0  0
 21 20  1  0  0  0  0
 47 22  1  0  0  0  0
 47 23  2  0  0  0  0
 25 24  2  0  0  0  0
 47 25  1  0  0  0  0
 35 37  1  1  0  0  0
 34 26  1  6  0  0  0
 33 27  1  1  0  0  0
 32 28  1  6  0  0  0
 31 30  1  1  0  0  0
 30 29  1  0  0  0  0
 36 31  1  0  0  0  0
 32 31  1  0  0  0  0
 33 32  1  0  0  0  0
 34 33  1  0  0  0  0
 35 34  1  0  0  0  0
 36 35  1  0  0  0  0
 44 38  1  0  0  0  0
 43 40  1  0  0  0  0
 40 39  1  0  0  0  0
 46 41  2  0  0  0  0
 42 41  1  0  0  0  0
 43 42  2  0  0  0  0
 44 43  1  0  0  0  0
 45 44  2  0  0  0  0
 46 45  1  0  0  0  0
  1  2  1  0  0  0  0
  2  3  1  0  0  0  0
  3  4  1  0  0  0  0
  4  5  1  0  0  0  0
  5  6  1  0  0  0  0
  1  6  1  0  0  0  0
  4 37  1  1  0  0  0
  8  9  1  0  0  0  0
  7  8  1  0  0  0  0
  9 46  1  0  0  0  0
  6  7  1  1  0  0  0
  5 10  1  6  0  0  0
  3 11  1  6  0  0  0
  2 12  1  1  0  0  0
M  END
>  <cdx:groupId>
29473

>  <cdx:fragmentId>
29376

$$$$
