8314.cdx
  Mrv1902 05222410192D          

  7  6  0  0  0  0            999 V2000
    4.2734   -2.0014    0.0000 C   0  0  0  0  0  0  0  0  0  0  0  0
    3.5589   -2.4139    0.0000 C   0  0  0  0  0  0  0  0  0  0  0  0
    2.8444   -2.0014    0.0000 C   0  0  0  0  0  0  0  0  0  0  0  0
    2.1299   -2.4139    0.0000 C   0  0  0  0  0  0  0  0  0  0  0  0
    4.2734   -1.1764    0.0000 O   0  0  0  0  0  0  0  0  0  0  0  0
    4.9878   -2.4139    0.0000 O   0  0  0  0  0  0  0  0  0  0  0  0
    3.5589   -3.2389    0.0000 C   0  0  0  0  0  0  0  0  0  0  0  0
  1  2  1  0  0  0  0
  2  3  1  0  0  0  0
  3  4  1  0  0  0  0
  1  5  2  0  0  0  0
  1  6  1  0  0  0  0
  2  7  1  0  0  0  0
M  END
>  <cdx:groupId>
22

>  <cdx:fragmentId>
5

$$$$
