83158.cdx
  Mrv1902 05222410222D          

 14 15  0  0  0  0            999 V2000
    6.5539   -8.5491    0.0000 C   0  0  0  0  0  0  0  0  0  0  0  0
    5.8252   -8.1622    0.0000 C   0  0  0  0  0  0  0  0  0  0  0  0
    8.3600   -7.9475    0.0000 C   0  0  0  0  0  0  0  0  0  0  0  0
    7.2533   -8.1116    0.0000 C   0  0  0  0  0  0  0  0  0  0  0  0
    7.0400   -7.3975    0.0000 C   0  0  0  0  0  0  0  0  0  0  0  0
    8.5250   -7.1500    0.0000 C   0  0  0  0  0  0  0  0  0  0  0  0
    9.4600   -7.4800    0.0000 C   0  0  0  0  0  0  0  0  0  0  0  0
    9.2400   -8.1675    0.0000 C   0  0  0  0  0  0  0  0  0  0  0  0
    7.7825   -6.4350    0.0000 C   0  0  0  0  0  0  0  0  0  0  0  0
    7.7825   -5.6100    0.0000 C   0  0  0  0  0  0  0  0  0  0  0  0
    7.0680   -6.0225    0.0000 C   0  0  0  0  0  0  0  0  0  0  0  0
    8.3600   -8.7725    0.0000 C   0  0  0  0  0  0  0  0  0  0  0  0
    7.4668   -8.9084    0.0000 O   0  0  0  0  0  0  0  0  0  0  0  0
    6.5831   -9.3736    0.0000 O   0  0  0  0  0  0  0  0  0  0  0  0
  1  2  1  0  0  0  0
  3  4  1  0  0  0  0
  4  5  1  0  0  0  0
  5  6  1  0  0  0  0
  6  7  1  0  0  0  0
  7  8  1  0  0  0  0
  3  8  1  0  0  0  0
  3  9  1  0  0  0  0
  9  6  1  0  0  0  0
  9 10  1  0  0  0  0
  9 11  1  0  0  0  0
  3 12  1  0  0  0  0
  4 13  1  0  0  0  0
  1  4  1  0  0  0  0
  1 14  2  0  0  0  0
M  END
>  <cdx:groupId>
205513

>  <cdx:fragmentId>
205477

$$$$
