8326.cdx
  Mrv1902 05222410262D          

 19 18  0  0  0  0            999 V2000
    1.2540   -8.8688    0.0000 O   0  0  0  0  0  0  0  0  0  0  0  0
    1.9685   -8.4563    0.0000 C   0  0  0  0  0  0  0  0  0  0  0  0
    1.9685   -7.6313    0.0000 C   0  0  0  0  0  0  0  0  0  0  0  0
    2.6829   -7.2188    0.0000 C   0  0  0  0  0  0  0  0  0  0  0  0
    3.3974   -7.6313    0.0000 C   0  0  0  0  0  0  0  0  0  0  0  0
    4.1119   -7.2188    0.0000 C   0  0  0  0  0  0  0  0  0  0  0  0
    4.8264   -6.8062    0.0000 C   0  0  0  0  0  0  0  0  0  0  0  0
    5.5408   -6.3937    0.0000 C   0  0  0  0  0  0  0  0  0  0  0  0
    6.2553   -5.9813    0.0000 C   0  0  0  0  0  0  0  0  0  0  0  0
    6.9698   -5.5687    0.0000 C   0  0  0  0  0  0  0  0  0  0  0  0
    7.6842   -5.9813    0.0000 C   0  0  0  0  0  0  0  0  0  0  0  0
    8.3987   -5.5687    0.0000 C   0  0  0  0  0  0  0  0  0  0  0  0
    9.1132   -5.9813    0.0000 C   0  0  0  0  0  0  0  0  0  0  0  0
    9.8277   -5.5687    0.0000 C   0  0  0  0  0  0  0  0  0  0  0  0
   10.5421   -5.9813    0.0000 C   0  0  0  0  0  0  0  0  0  0  0  0
   11.2566   -5.5687    0.0000 C   0  0  0  0  0  0  0  0  0  0  0  0
   11.9711   -5.9813    0.0000 C   0  0  0  0  0  0  0  0  0  0  0  0
   12.6855   -5.5687    0.0000 C   0  0  0  0  0  0  0  0  0  0  0  0
   13.4000   -5.9813    0.0000 C   0  0  0  0  0  0  0  0  0  0  0  0
  1  2  1  0  0  0  0
  2  3  1  0  0  0  0
  3  4  2  0  0  0  0
  4  5  1  0  0  0  0
  5  6  1  0  0  0  0
  6  7  3  0  0  0  0
  7  8  1  0  0  0  0
  8  9  3  0  0  0  0
  9 10  1  0  0  0  0
 10 11  2  0  0  0  0
 11 12  1  0  0  0  0
 12 13  2  0  0  0  0
 13 14  1  0  0  0  0
 14 15  1  0  0  0  0
 15 16  1  0  0  0  0
 16 17  1  0  0  0  0
 17 18  1  0  0  0  0
 18 19  1  0  0  0  0
M  END
>  <cdx:fragmentId>
3

$$$$
