833075.cdx
  Mrv1902 05222410232D          

 20 20  0  0  0  0            999 V2000
    4.3594   -7.6152    0.0000 C   0  0  0  0  0  0  0  0  0  0  0  0
    4.3594   -6.7902    0.0000 C   0  0  0  0  0  0  0  0  0  0  0  0
    5.0738   -6.3777    0.0000 C   0  0  0  0  0  0  0  0  0  0  0  0
    5.7883   -6.7902    0.0000 C   0  0  0  0  0  0  0  0  0  0  0  0
    5.7883   -7.6152    0.0000 C   0  0  0  0  0  0  0  0  0  0  0  0
    5.0738   -8.0277    0.0000 C   0  0  0  0  0  0  0  0  0  0  0  0
    3.6449   -8.0277    0.0000 O   0  0  0  0  0  0  0  0  0  0  0  0
    3.6449   -6.3777    0.0000 O   0  0  0  0  0  0  0  0  0  0  0  0
    6.5028   -6.3777    0.0000 C   0  0  0  0  0  0  0  0  0  0  0  0
    7.2172   -6.7902    0.0000 C   0  0  0  0  0  0  0  0  0  0  0  0
    7.9317   -6.3777    0.0000 C   0  0  2  0  0  0  0  0  0  0  0  0
    8.6462   -6.7902    0.0000 C   0  0  0  0  0  0  0  0  0  0  0  0
    9.3607   -6.3777    0.0000 C   0  0  0  0  0  0  0  0  0  0  0  0
   10.0751   -6.7902    0.0000 C   0  0  0  0  0  0  0  0  0  0  0  0
   10.7896   -6.3777    0.0000 C   0  0  0  0  0  0  0  0  0  0  0  0
   10.7896   -5.5527    0.0000 C   0  0  0  0  0  0  0  0  0  0  0  0
   11.5041   -6.7902    0.0000 C   0  0  0  0  0  0  0  0  0  0  0  0
    7.9317   -7.2027    0.0000 C   0  0  0  0  0  0  0  0  0  0  0  0
    7.9317   -5.5527    0.0000 C   0  0  0  0  0  0  0  0  0  0  0  0
    8.6462   -5.1402    0.0000 C   0  0  0  0  0  0  0  0  0  0  0  0
  1  2  1  0  0  0  0
  2  3  2  0  0  0  0
  3  4  1  0  0  0  0
  4  5  2  0  0  0  0
  5  6  1  0  0  0  0
  1  6  2  0  0  0  0
  1  7  1  0  0  0  0
  2  8  1  0  0  0  0
  9 10  2  0  0  0  0
 10 11  1  0  0  0  0
 11 12  1  0  0  0  0
 12 13  1  0  0  0  0
 13 14  1  0  0  0  0
 14 15  2  0  0  0  0
 15 16  1  0  0  0  0
 15 17  1  0  0  0  0
 11 18  1  1  0  0  0
 19 20  2  0  0  0  0
 11 19  1  0  0  0  0
  4  9  1  0  0  0  0
M  END
>  <cdx:groupId>
62

>  <cdx:fragmentId>
21

$$$$
