8336.cdx
  Mrv1902 05222410282D          

 16 16  0  0  0  0            999 V2000
   10.3687   -8.7815    0.0000 C   0  0  0  0  0  0  0  0  0  0  0  0
    9.6542   -8.3690    0.0000 C   0  0  0  0  0  0  0  0  0  0  0  0
    8.9397   -8.7815    0.0000 C   0  0  0  0  0  0  0  0  0  0  0  0
    8.2253   -8.3690    0.0000 C   0  0  0  0  0  0  0  0  0  0  0  0
    7.5108   -8.7815    0.0000 O   0  0  0  0  0  0  0  0  0  0  0  0
    7.5108   -7.1315    0.0000 O   0  0  0  0  0  0  0  0  0  0  0  0
    7.5108   -7.9565    0.0000 C   0  0  0  0  0  0  0  0  0  0  0  0
    4.3213   -8.3690    0.0000 O   0  0  0  0  0  0  0  0  0  0  0  0
    5.1463   -9.7980    0.0000 O   0  0  0  0  0  0  0  0  0  0  0  0
    6.7963   -9.7980    0.0000 O   0  0  0  0  0  0  0  0  0  0  0  0
    5.5588   -7.6545    0.0000 C   0  0  0  0  0  0  0  0  0  0  0  0
    5.1463   -8.3690    0.0000 C   0  0  2  0  0  0  0  0  0  0  0  0
    5.5588   -9.0835    0.0000 C   0  0  2  0  0  0  0  0  0  0  0  0
    6.3838   -9.0835    0.0000 C   0  0  1  0  0  0  0  0  0  0  0  0
    6.7963   -8.3690    0.0000 C   0  0  1  0  0  0  0  0  0  0  0  0
    6.3838   -7.6545    0.0000 O   0  0  0  0  0  0  0  0  0  0  0  0
 15  5  1  1  0  0  0
  5  4  1  0  0  0  0
  2  1  1  0  0  0  0
  3  2  1  0  0  0  0
  4  3  1  0  0  0  0
 15  7  1  6  0  0  0
  7  6  1  0  0  0  0
 12  8  1  6  0  0  0
 13  9  1  6  0  0  0
 14 10  1  1  0  0  0
 16 11  1  0  0  0  0
 12 11  1  0  0  0  0
 13 12  1  0  0  0  0
 14 13  1  0  0  0  0
 15 14  1  0  0  0  0
 16 15  1  0  0  0  0
M  END
>  <cdx:fragmentId>
5

$$$$
