8338.cdx
  Mrv1902 05222410192D          

 14 15  0  0  0  0            999 V2000
    7.9135   -5.8994    0.0000 O   0  0  0  0  0  0  0  0  0  0  0  0
    7.4286   -6.5668    0.0000 C   0  0  0  0  0  0  0  0  0  0  0  0
    6.6439   -6.3119    0.0000 C   0  0  0  0  0  0  0  0  0  0  0  0
    6.6439   -5.4869    0.0000 C   0  0  0  0  0  0  0  0  0  0  0  0
    7.4286   -5.2320    0.0000 C   0  0  0  0  0  0  0  0  0  0  0  0
    5.9295   -5.0744    0.0000 C   0  0  0  0  0  0  0  0  0  0  0  0
    5.2150   -5.4869    0.0000 C   0  0  0  0  0  0  0  0  0  0  0  0
    5.2150   -6.3119    0.0000 C   0  0  0  0  0  0  0  0  0  0  0  0
    5.9295   -6.7244    0.0000 C   0  0  0  0  0  0  0  0  0  0  0  0
    7.6835   -7.3515    0.0000 O   0  0  0  0  0  0  0  0  0  0  0  0
    7.6835   -4.4473    0.0000 C   0  0  0  0  0  0  0  0  0  0  0  0
    8.4905   -4.2758    0.0000 C   0  0  0  0  0  0  0  0  0  0  0  0
    8.7454   -3.4912    0.0000 C   0  0  0  0  0  0  0  0  0  0  0  0
    9.5524   -3.3197    0.0000 C   0  0  0  0  0  0  0  0  0  0  0  0
  1  2  1  0  0  0  0
  2  3  1  0  0  0  0
  3  4  1  0  0  0  0
  4  5  1  0  0  0  0
  1  5  1  0  0  0  0
  6  7  1  0  0  0  0
  7  8  2  0  0  0  0
  8  9  1  0  0  0  0
  9  3  2  0  0  0  0
  6  4  1  0  0  0  0
  2 10  2  0  0  0  0
 11 12  1  0  0  0  0
 12 13  1  0  0  0  0
 13 14  1  0  0  0  0
  5 11  2  0  0  0  0
M  END
>  <cdx:fragmentId>
217794

$$$$
