83381.cdx
  Mrv1902 05222410242D          

 38 43  0  0  0  0            999 V2000
    3.6023  -11.5286    0.0000 C   0  0  0  0  0  0  0  0  0  0  0  0
    3.6023  -12.3536    0.0000 C   0  0  1  0  0  0  0  0  0  0  0  0
    4.3167  -12.7661    0.0000 C   0  0  0  0  0  0  0  0  0  0  0  0
    5.0312  -12.3536    0.0000 C   0  0  1  0  0  0  0  0  0  0  0  0
    5.0312  -11.5286    0.0000 C   0  0  2  0  0  0  0  0  0  0  0  0
    4.3167  -11.1161    0.0000 C   0  0  0  0  0  0  0  0  0  0  0  0
    5.7457  -12.7661    0.0000 C   0  0  0  0  0  0  0  0  0  0  0  0
    6.4601  -12.3536    0.0000 C   0  0  0  0  0  0  0  0  0  0  0  0
    6.4601  -11.5286    0.0000 C   0  0  2  0  0  0  0  0  0  0  0  0
    5.7457  -11.1161    0.0000 C   0  0  2  0  0  0  0  0  0  0  0  0
    7.0732  -10.9766    0.0000 C   0  0  1  0  0  0  0  0  0  0  0  0
    6.7377  -10.2229    0.0000 C   0  0  0  0  0  0  0  0  0  0  0  0
    5.9172  -10.3091    0.0000 C   0  0  2  0  0  0  0  0  0  0  0  0
    7.8937  -11.0628    0.0000 C   0  0  0  0  0  0  0  0  0  0  0  0
    8.3786  -10.3954    0.0000 C   0  0  0  0  0  0  0  0  0  0  0  0
    8.0431   -9.6417    0.0000 C   0  0  2  0  0  0  0  0  0  0  0  0
    7.2226   -9.5555    0.0000 C   0  0  0  0  0  0  0  0  0  0  0  0
    8.8681   -9.6417    0.0000 C   0  0  1  0  0  0  0  0  0  0  0  0
    9.1230   -8.8571    0.0000 C   0  0  1  0  0  0  0  0  0  0  0  0
    8.4556   -8.3722    0.0000 C   0  0  2  0  0  0  0  0  0  0  0  0
    7.7882   -8.8571    0.0000 O   0  0  0  0  0  0  0  0  0  0  0  0
    9.8767   -8.5215    0.0000 N   0  0  0  0  0  0  0  0  0  0  0  0
    9.9629   -7.7010    0.0000 C   0  0  0  0  0  0  0  0  0  0  0  0
    9.2955   -7.2161    0.0000 C   0  0  2  0  0  0  0  0  0  0  0  0
    8.5418   -7.5517    0.0000 C   0  0  0  0  0  0  0  0  0  0  0  0
    2.8878  -12.7661    0.0000 O   0  0  0  0  0  0  0  0  0  0  0  0
    5.0312  -10.7036    0.0000 C   0  0  0  0  0  0  0  0  0  0  0  0
    5.3652   -9.6961    0.0000 O   0  0  0  0  0  0  0  0  0  0  0  0
    9.3530  -10.3091    0.0000 C   0  0  0  0  0  0  0  0  0  0  0  0
    5.0312  -13.1786    0.0000 H   0  0  0  0  0  0  0  0  0  0  0  0
    7.4857  -11.6911    0.0000 H   0  0  0  0  0  0  0  0  0  0  0  0
    9.3817   -6.3956    0.0000 C   0  0  0  0  0  0  0  0  0  0  0  0
    9.8375   -9.2696    0.0000 H   0  0  0  0  0  0  0  0  0  0  0  0
    7.1746  -11.9411    0.0000 H   0  0  0  0  0  0  0  0  0  0  0  0
    7.8722   -7.7888    0.0000 H   0  0  0  0  0  0  0  0  0  0  0  0
    5.7457  -11.9411    0.0000 H   0  0  0  0  0  0  0  0  0  0  0  0
    6.8871   -8.8018    0.0000 C   0  0  0  0  0  0  0  0  0  0  0  0
    5.7457  -13.5911    0.0000 O   0  0  0  0  0  0  0  0  0  0  0  0
  1  2  1  0  0  0  0
  2  3  1  0  0  0  0
  3  4  1  0  0  0  0
  4  5  1  0  0  0  0
  5  6  1  0  0  0  0
  6  1  1  0  0  0  0
  4  7  1  0  0  0  0
  7  8  1  0  0  0  0
  8  9  1  0  0  0  0
  9 10  1  0  0  0  0
 10  5  1  0  0  0  0
  9 11  1  0  0  0  0
 11 12  1  0  0  0  0
 12 13  1  0  0  0  0
 13 10  1  0  0  0  0
 11 14  1  0  0  0  0
 14 15  1  0  0  0  0
 15 16  1  0  0  0  0
 16 17  1  0  0  0  0
 17 12  2  0  0  0  0
 16 18  1  0  0  0  0
 18 19  1  0  0  0  0
 19 20  1  0  0  0  0
 20 21  1  0  0  0  0
 16 21  1  1  0  0  0
 19 22  1  0  0  0  0
 22 23  1  0  0  0  0
 23 24  1  0  0  0  0
 24 25  1  0  0  0  0
 25 20  1  0  0  0  0
  2 26  1  1  0  0  0
  5 27  1  1  0  0  0
 13 28  1  1  0  0  0
 18 29  1  1  0  0  0
  4 30  1  6  0  0  0
 11 31  1  6  0  0  0
 24 32  1  6  0  0  0
 19 33  1  6  0  0  0
  9 34  1  1  0  0  0
 20 35  1  1  0  0  0
 10 36  1  6  0  0  0
 17 37  1  0  0  0  0
  7 38  2  0  0  0  0
M  END
>  <cdx:fragmentId>
2012

$$$$
