3083437.cdx
  Mrv1902 05222410252D          

 30 32  0  0  0  0            999 V2000
   17.8467  -17.1482    0.0000 C   0  0  0  0  0  0  0  0  0  0  0  0
   18.6592  -17.0050    0.0000 C   0  0  0  0  0  0  0  0  0  0  0  0
   17.5646  -17.9235    0.0000 O   0  0  0  0  0  0  0  0  0  0  0  0
   17.3164  -16.5162    0.0000 O   0  0  0  0  0  0  0  0  0  0  0  0
   15.9694  -17.5854    0.0000 C   0  0  2  0  0  0  0  0  0  0  0  0
   16.7737  -17.4019    0.0000 C   0  0  0  0  0  0  0  0  0  0  0  0
   17.1316  -16.6586    0.0000 C   0  0  0  0  0  0  0  0  0  0  0  0
   16.7737  -15.9153    0.0000 C   0  0  0  0  0  0  0  0  0  0  0  0
   15.9694  -15.7317    0.0000 C   0  0  1  0  0  0  0  0  0  0  0  0
   15.3243  -16.2461    0.0000 C   0  0  1  0  0  0  0  0  0  0  0  0
   15.3243  -17.0711    0.0000 C   0  0  1  0  0  0  0  0  0  0  0  0
   16.5040  -16.6595    0.0000 C   0  0  2  0  0  0  0  0  0  0  0  0
   17.9566  -16.6586    0.0000 C   0  0  0  0  0  0  0  0  0  0  0  0
   18.3691  -15.9441    0.0000 C   0  0  0  0  0  0  0  0  0  0  0  0
   19.1941  -15.9441    0.0000 C   0  0  0  0  0  0  0  0  0  0  0  0
   17.2880  -15.2703    0.0000 O   0  0  0  0  0  0  0  0  0  0  0  0
   14.6099  -17.4836    0.0000 C   0  0  0  0  0  0  0  0  0  0  0  0
   15.7858  -18.3898    0.0000 O   0  0  0  0  0  0  0  0  0  0  0  0
   14.9974  -18.6329    0.0000 C   0  0  0  0  0  0  0  0  0  0  0  0
   14.6099  -15.8336    0.0000 C   0  0  0  0  0  0  0  0  0  0  0  0
   13.8954  -16.2461    0.0000 C   0  0  0  0  0  0  0  0  0  0  0  0
   13.1809  -15.8336    0.0000 C   0  0  0  0  0  0  0  0  0  0  0  0
   13.1809  -15.0086    0.0000 C   0  0  0  0  0  0  0  0  0  0  0  0
   13.8954  -14.5961    0.0000 C   0  0  0  0  0  0  0  0  0  0  0  0
   14.6099  -15.0086    0.0000 C   0  0  0  0  0  0  0  0  0  0  0  0
   12.4665  -14.5961    0.0000 O   0  0  0  0  0  0  0  0  0  0  0  0
   11.7520  -15.0086    0.0000 C   0  0  0  0  0  0  0  0  0  0  0  0
   12.4665  -16.2461    0.0000 O   0  0  0  0  0  0  0  0  0  0  0  0
   11.7520  -15.8336    0.0000 C   0  0  0  0  0  0  0  0  0  0  0  0
   15.7858  -14.9274    0.0000 H   0  0  0  0  0  0  0  0  0  0  0  0
  1  2  1  0  0  0  0
  1  3  2  0  0  0  0
  1  4  1  0  0  0  0
  5  6  1  6  0  0  0
  6  7  2  0  0  0  0
  7  8  1  0  0  0  0
  9  8  1  6  0  0  0
  9 10  1  0  0  0  0
 10 11  1  0  0  0  0
  5 11  1  0  0  0  0
  5 12  1  0  0  0  0
 12  9  1  0  0  0  0
 13 14  1  0  0  0  0
 14 15  2  0  0  0  0
  7 13  1  0  0  0  0
  8 16  2  0  0  0  0
 11 17  1  6  0  0  0
 18 19  1  0  0  0  0
  5 18  1  0  0  0  0
 20 21  1  0  0  0  0
 21 22  2  0  0  0  0
 22 23  1  0  0  0  0
 23 24  2  0  0  0  0
 24 25  1  0  0  0  0
 20 25  2  0  0  0  0
 26 27  1  0  0  0  0
 23 26  1  0  0  0  0
 28 29  1  0  0  0  0
 22 28  1  0  0  0  0
 10 20  1  1  0  0  0
 12  4  1  6  0  0  0
  9 30  1  0  0  0  0
M  END
>  <cdx:groupId>
2256

>  <cdx:fragmentId>
2175

$$$$
