83449.cdx
  Mrv1902 05222410202D          

 81 89  0  0  0  0            999 V2000
   10.8058  -11.4125    0.0000 C   0  0  1  0  0  0  0  0  0  0  0  0
   10.8058  -10.5875    0.0000 C   0  0  1  0  0  0  0  0  0  0  0  0
   11.5203  -10.1750    0.0000 C   0  0  0  0  0  0  0  0  0  0  0  0
   11.5203  -11.8250    0.0000 C   0  0  0  0  0  0  0  0  0  0  0  0
   12.2347  -11.4125    0.0000 C   0  0  2  0  0  0  0  0  0  0  0  0
   12.9492  -11.8250    0.0000 C   0  0  0  0  0  0  0  0  0  0  0  0
   13.6637  -11.4125    0.0000 C   0  0  0  0  0  0  0  0  0  0  0  0
   13.6637  -10.5875    0.0000 C   0  0  1  0  0  0  0  0  0  0  0  0
   14.3782  -10.1750    0.0000 C   0  0  2  0  0  0  0  0  0  0  0  0
   15.1628  -10.4299    0.0000 C   0  0  0  0  0  0  0  0  0  0  0  0
   15.6477   -9.7625    0.0000 C   0  0  2  0  0  0  0  0  0  0  0  0
   16.1326  -10.4299    0.0000 H   0  0  0  0  0  0  0  0  0  0  0  0
   16.4323   -9.5076    0.0000 O   0  0  0  0  0  0  0  0  0  0  0  0
   15.1628   -9.0951    0.0000 C   0  0  2  0  0  0  0  0  0  0  0  0
   14.8011   -8.3536    0.0000 H   0  0  0  0  0  0  0  0  0  0  0  0
   15.6477   -8.4276    0.0000 C   0  0  0  0  0  0  0  0  0  0  0  0
   16.4323   -8.6826    0.0000 C   0  0  0  0  0  0  0  0  0  0  0  0
   17.2528   -8.5963    0.0000 C   0  0  0  0  0  0  0  0  0  0  0  0
   17.7377   -9.2638    0.0000 C   0  0  0  0  0  0  0  0  0  0  0  0
   18.5582   -9.1775    0.0000 C   0  0  1  0  0  0  0  0  0  0  0  0
   18.8938   -8.4238    0.0000 C   0  0  0  0  0  0  0  0  0  0  0  0
   19.0431   -9.8450    0.0000 C   0  0  0  0  0  0  0  0  0  0  0  0
   15.3928   -7.6430    0.0000 C   0  0  0  0  0  0  0  0  0  0  0  0
   14.3782   -9.3500    0.0000 C   0  0  2  0  0  0  0  0  0  0  0  0
   14.3782   -8.5250    0.0000 C   0  0  0  0  0  0  0  0  0  0  0  0
   13.6637   -8.9375    0.0000 C   0  0  0  0  0  0  0  0  0  0  0  0
   12.9492   -9.3500    0.0000 C   0  0  0  0  0  0  0  0  0  0  0  0
   12.9492  -10.1750    0.0000 C   0  0  2  0  0  0  0  0  0  0  0  0
   12.2347  -10.5875    0.0000 C   0  0  1  0  0  0  0  0  0  0  0  0
   12.2347   -9.7625    0.0000 C   0  0  0  0  0  0  0  0  0  0  0  0
   12.9492  -11.0000    0.0000 H   0  0  0  0  0  0  0  0  0  0  0  0
   13.6637   -9.7625    0.0000 H   0  0  0  0  0  0  0  0  0  0  0  0
   14.3782  -11.0000    0.0000 H   0  0  0  0  0  0  0  0  0  0  0  0
   10.0913  -11.8250    0.0000 O   0  0  0  0  0  0  0  0  0  0  0  0
    8.6621  -10.1608    0.0000 C   0  0  2  0  0  0  0  0  0  0  0  0
    7.9459  -10.5704    0.0000 C   0  0  1  0  0  0  0  0  0  0  0  0
    7.9426  -11.3953    0.0000 C   0  0  1  0  0  0  0  0  0  0  0  0
    8.6553  -11.8108    0.0000 C   0  0  2  0  0  0  0  0  0  0  0  0
    9.3715  -11.4012    0.0000 C   0  0  1  0  0  0  0  0  0  0  0  0
    9.3749  -10.5762    0.0000 O   0  0  0  0  0  0  0  0  0  0  0  0
    8.6655   -9.3358    0.0000 C   0  0  0  0  0  0  0  0  0  0  0  0
    7.2264  -11.8049    0.0000 O   0  0  0  0  0  0  0  0  0  0  0  0
    7.2332  -10.1549    0.0000 O   0  0  0  0  0  0  0  0  0  0  0  0
    8.6520  -12.6358    0.0000 O   0  0  0  0  0  0  0  0  0  0  0  0
    7.9527   -8.9204    0.0000 O   0  0  0  0  0  0  0  0  0  0  0  0
   19.8636   -9.7587    0.0000 O   0  0  0  0  0  0  0  0  0  0  0  0
   20.3485  -10.4262    0.0000 C   0  0  2  0  0  0  0  0  0  0  0  0
   20.0130  -11.1798    0.0000 O   0  0  0  0  0  0  0  0  0  0  0  0
   20.4979  -11.8473    0.0000 C   0  0  1  0  0  0  0  0  0  0  0  0
   21.3184  -11.7610    0.0000 C   0  0  2  0  0  0  0  0  0  0  0  0
   21.6539  -11.0074    0.0000 C   0  0  1  0  0  0  0  0  0  0  0  0
   21.1690  -10.3399    0.0000 C   0  0  1  0  0  0  0  0  0  0  0  0
   20.1623  -12.6010    0.0000 C   0  0  0  0  0  0  0  0  0  0  0  0
   22.4744  -10.9211    0.0000 O   0  0  0  0  0  0  0  0  0  0  0  0
   21.5046   -9.5863    0.0000 O   0  0  0  0  0  0  0  0  0  0  0  0
   21.8033  -12.4285    0.0000 O   0  0  0  0  0  0  0  0  0  0  0  0
   20.6473  -13.2684    0.0000 O   0  0  0  0  0  0  0  0  0  0  0  0
    6.8386   -9.4304    0.0000 C   0  0  2  0  0  0  0  0  0  0  0  0
    7.2717   -8.7282    0.0000 O   0  0  0  0  0  0  0  0  0  0  0  0
    6.8685   -8.0018    0.0000 C   0  0  1  0  0  0  0  0  0  0  0  0
    6.0437   -7.9846    0.0000 C   0  0  2  0  0  0  0  0  0  0  0  0
    5.6105   -8.6935    0.0000 C   0  0  1  0  0  0  0  0  0  0  0  0
    6.0139   -9.4131    0.0000 C   0  0  1  0  0  0  0  0  0  0  0  0
    7.2944   -7.2952    0.0000 C   0  0  0  0  0  0  0  0  0  0  0  0
    4.7856   -8.6779    0.0000 O   0  0  0  0  0  0  0  0  0  0  0  0
    5.6477   -7.2608    0.0000 O   0  0  0  0  0  0  0  0  0  0  0  0
    5.5894  -10.1206    0.0000 O   0  0  0  0  0  0  0  0  0  0  0  0
    6.8955   -6.5731    0.0000 O   0  0  0  0  0  0  0  0  0  0  0  0
    4.1563  -10.1303    0.0000 O   0  0  0  0  0  0  0  0  0  0  0  0
    4.8773  -10.5372    0.0000 C   0  0  2  0  0  0  0  0  0  0  0  0
    3.4590  -10.5515    0.0000 C   0  0  1  0  0  0  0  0  0  0  0  0
    3.4678  -11.3940    0.0000 C   0  0  2  0  0  0  0  0  0  0  0  0
    4.1814  -11.8081    0.0000 C   0  0  1  0  0  0  0  0  0  0  0  0
    4.8861  -11.3797    0.0000 C   0  0  1  0  0  0  0  0  0  0  0  0
    2.7384  -10.1498    0.0000 C   0  0  0  0  0  0  0  0  0  0  0  0
    4.1898  -12.6331    0.0000 O   0  0  0  0  0  0  0  0  0  0  0  0
    5.6073  -11.7803    0.0000 O   0  0  0  0  0  0  0  0  0  0  0  0
    2.7550  -11.8094    0.0000 O   0  0  0  0  0  0  0  0  0  0  0  0
    2.0302  -10.5731    0.0000 O   0  0  0  0  0  0  0  0  0  0  0  0
   12.2347  -12.2375    0.0000 H   0  0  0  0  0  0  0  0  0  0  0  0
   10.0913  -10.1750    0.0000 O   0  0  0  0  0  0  0  0  0  0  0  0
  1  2  1  0  0  0  0
  2  3  1  0  0  0  0
  1  4  1  0  0  0  0
  4  5  1  0  0  0  0
  5  6  1  0  0  0  0
  6  7  1  0  0  0  0
  7  8  1  0  0  0  0
  8  9  1  0  0  0  0
  9 10  1  0  0  0  0
 10 11  1  0  0  0  0
 11 12  1  6  0  0  0
 11 13  1  0  0  0  0
 11 14  1  0  0  0  0
 14 15  1  6  0  0  0
 14 16  1  0  0  0  0
 16 17  2  0  0  0  0
 13 17  1  0  0  0  0
 17 18  1  0  0  0  0
 18 19  1  0  0  0  0
 19 20  1  0  0  0  0
 20 21  1  1  0  0  0
 20 22  1  0  0  0  0
 16 23  1  6  0  0  0
 14 24  1  0  0  0  0
  9 24  1  0  0  0  0
 24 25  1  1  0  0  0
 24 26  1  0  0  0  0
 26 27  1  0  0  0  0
 27 28  1  0  0  0  0
  8 28  1  0  0  0  0
 28 29  1  0  0  0  0
  3 29  1  0  0  0  0
  5 29  1  0  0  0  0
 29 30  1  1  0  0  0
 28 31  1  6  0  0  0
  8 32  1  1  0  0  0
  9 33  1  6  0  0  0
  1 34  1  1  0  0  0
 35 36  1  0  0  0  0
 36 37  1  0  0  0  0
 37 38  1  0  0  0  0
 38 39  1  0  0  0  0
 39 40  1  0  0  0  0
 40 35  1  0  0  0  0
 35 41  1  1  0  0  0
 37 42  1  1  0  0  0
 36 43  1  1  0  0  0
 38 44  1  6  0  0  0
 41 45  1  0  0  0  0
 39 34  1  1  0  0  0
 22 46  1  0  0  0  0
 47 46  1  1  0  0  0
 47 48  1  0  0  0  0
 48 49  1  0  0  0  0
 49 50  1  0  0  0  0
 50 51  1  0  0  0  0
 51 52  1  0  0  0  0
 52 47  1  0  0  0  0
 49 53  1  1  0  0  0
 51 54  1  1  0  0  0
 52 55  1  6  0  0  0
 50 56  1  6  0  0  0
 53 57  1  0  0  0  0
 58 43  1  1  0  0  0
 58 59  1  0  0  0  0
 59 60  1  0  0  0  0
 60 61  1  0  0  0  0
 61 62  1  0  0  0  0
 62 63  1  0  0  0  0
 63 58  1  0  0  0  0
 60 64  1  1  0  0  0
 62 65  1  1  0  0  0
 61 66  1  6  0  0  0
 63 67  1  6  0  0  0
 64 68  1  0  0  0  0
 70 67  1  1  0  0  0
 70 69  1  0  0  0  0
 69 71  1  0  0  0  0
 71 72  1  0  0  0  0
 72 73  1  0  0  0  0
 73 74  1  0  0  0  0
 74 70  1  0  0  0  0
 71 75  1  1  0  0  0
 73 76  1  1  0  0  0
 74 77  1  6  0  0  0
 72 78  1  6  0  0  0
 75 79  1  0  0  0  0
  5 80  1  6  0  0  0
  2 81  1  6  0  0  0
M  END
>  <cdx:fragmentId>
5

$$$$
