8344.cdx
  Mrv1902 05222410232D          

 20 20  0  0  0  0            999 V2000
    2.3035   -3.4521    0.0000 C   0  0  0  0  0  0  0  0  0  0  0  0
    2.3035   -2.6271    0.0000 C   0  0  0  0  0  0  0  0  0  0  0  0
    1.5890   -2.2146    0.0000 C   0  0  0  0  0  0  0  0  0  0  0  0
    0.8746   -2.6271    0.0000 C   0  0  0  0  0  0  0  0  0  0  0  0
    0.8746   -3.4521    0.0000 C   0  0  0  0  0  0  0  0  0  0  0  0
    1.5890   -3.8646    0.0000 C   0  0  0  0  0  0  0  0  0  0  0  0
    3.0180   -3.8646    0.0000 C   0  0  0  0  0  0  0  0  0  0  0  0
    3.0180   -4.6896    0.0000 O   0  0  0  0  0  0  0  0  0  0  0  0
    3.7324   -3.4521    0.0000 O   0  0  0  0  0  0  0  0  0  0  0  0
    3.0180   -2.2146    0.0000 C   0  0  0  0  0  0  0  0  0  0  0  0
    3.0180   -1.3896    0.0000 O   0  0  0  0  0  0  0  0  0  0  0  0
    3.7324   -2.6271    0.0000 O   0  0  0  0  0  0  0  0  0  0  0  0
    4.4469   -3.8646    0.0000 C   0  0  0  0  0  0  0  0  0  0  0  0
    5.1614   -3.4521    0.0000 C   0  0  0  0  0  0  0  0  0  0  0  0
    5.8759   -3.8646    0.0000 O   0  0  0  0  0  0  0  0  0  0  0  0
    6.5903   -3.4521    0.0000 C   0  0  0  0  0  0  0  0  0  0  0  0
    4.4469   -2.2146    0.0000 C   0  0  0  0  0  0  0  0  0  0  0  0
    5.1614   -2.6271    0.0000 C   0  0  0  0  0  0  0  0  0  0  0  0
    5.8759   -2.2146    0.0000 O   0  0  0  0  0  0  0  0  0  0  0  0
    6.5903   -2.6271    0.0000 C   0  0  0  0  0  0  0  0  0  0  0  0
  1  2  1  0  0  0  0
  2  3  2  0  0  0  0
  3  4  1  0  0  0  0
  4  5  2  0  0  0  0
  5  6  1  0  0  0  0
  1  6  2  0  0  0  0
  7  8  2  0  0  0  0
  7  9  1  0  0  0  0
  1  7  1  0  0  0  0
 10 11  2  0  0  0  0
 10 12  1  0  0  0  0
  2 10  1  0  0  0  0
 13 14  1  0  0  0  0
 15 16  1  0  0  0  0
 14 15  1  0  0  0  0
  9 13  1  0  0  0  0
 17 18  1  0  0  0  0
 19 20  1  0  0  0  0
 18 19  1  0  0  0  0
 12 17  1  0  0  0  0
M  END
>  <cdx:groupId>
62

>  <cdx:fragmentId>
5

$$$$
