83455.cdx
  Mrv1902 05222410282D          

 97107  0  0  0  0            999 V2000
   11.5230   -5.6100    0.0000 C   0  0  0  0  0  0  0  0  0  0  0  0
   11.5230   -6.4350    0.0000 C   0  0  1  0  0  0  0  0  0  0  0  0
   12.2375   -6.8475    0.0000 C   0  0  1  0  0  0  0  0  0  0  0  0
   12.9519   -6.4350    0.0000 C   0  0  1  0  0  0  0  0  0  0  0  0
   12.9519   -5.6100    0.0000 C   0  0  2  0  0  0  0  0  0  0  0  0
   12.2375   -5.1975    0.0000 C   0  0  0  0  0  0  0  0  0  0  0  0
   13.6664   -6.8475    0.0000 C   0  0  0  0  0  0  0  0  0  0  0  0
   14.3808   -6.4350    0.0000 C   0  0  0  0  0  0  0  0  0  0  0  0
   14.3808   -5.6100    0.0000 C   0  0  2  0  0  0  0  0  0  0  0  0
   13.6664   -5.1975    0.0000 C   0  0  2  0  0  0  0  0  0  0  0  0
   15.0953   -5.1975    0.0000 C   0  0  1  0  0  0  0  0  0  0  0  0
   15.0953   -4.3725    0.0000 C   0  0  0  0  0  0  0  0  0  0  0  0
   14.3808   -3.9600    0.0000 C   0  0  0  0  0  0  0  0  0  0  0  0
   13.6664   -4.3725    0.0000 C   0  0  0  0  0  0  0  0  0  0  0  0
   15.8097   -5.6100    0.0000 C   0  0  0  0  0  0  0  0  0  0  0  0
   16.5242   -5.1975    0.0000 C   0  0  0  0  0  0  0  0  0  0  0  0
   16.5242   -4.3725    0.0000 C   0  0  2  0  0  0  0  0  0  0  0  0
   15.8097   -3.9600    0.0000 C   0  0  1  0  0  0  0  0  0  0  0  0
   17.2389   -3.9600    0.0000 C   0  0  0  0  0  0  0  0  0  0  0  0
   17.2389   -3.1350    0.0000 C   0  0  0  0  0  0  0  0  0  0  0  0
   16.5242   -2.7225    0.0000 C   0  0  0  0  0  0  0  0  0  0  0  0
   15.8097   -3.1350    0.0000 C   0  0  0  0  0  0  0  0  0  0  0  0
   16.1117   -2.0080    0.0000 C   0  0  0  0  0  0  0  0  0  0  0  0
   16.9367   -2.0080    0.0000 C   0  0  0  0  0  0  0  0  0  0  0  0
   15.8097   -4.7850    0.0000 H   0  0  0  0  0  0  0  0  0  0  0  0
   15.0953   -6.0225    0.0000 C   0  0  0  0  0  0  0  0  0  0  0  0
   14.3808   -4.7850    0.0000 C   0  0  0  0  0  0  0  0  0  0  0  0
   13.6664   -6.0225    0.0000 H   0  0  0  0  0  0  0  0  0  0  0  0
   12.9519   -4.7850    0.0000 C   0  0  0  0  0  0  0  0  0  0  0  0
   12.9519   -7.2600    0.0000 H   0  0  0  0  0  0  0  0  0  0  0  0
   11.8250   -7.5619    0.0000 C   0  0  0  0  0  0  0  0  0  0  0  0
   12.6500   -7.5619    0.0000 C   0  0  0  0  0  0  0  0  0  0  0  0
   10.8086   -6.8475    0.0000 O   0  0  0  0  0  0  0  0  0  0  0  0
   17.2389   -4.7850    0.0000 C   0  0  0  0  0  0  0  0  0  0  0  0
   12.2375   -8.2764    0.0000 O   0  0  0  0  0  0  0  0  0  0  0  0
   17.9534   -4.3725    0.0000 O   0  0  0  0  0  0  0  0  0  0  0  0
   17.2389   -5.6100    0.0000 O   0  0  0  0  0  0  0  0  0  0  0  0
   10.0941   -6.4350    0.0000 C   0  0  2  0  0  0  0  0  0  0  0  0
   10.0941   -5.6100    0.0000 O   0  0  0  0  0  0  0  0  0  0  0  0
    9.3797   -5.1975    0.0000 C   0  0  0  0  0  0  0  0  0  0  0  0
    8.6652   -5.6100    0.0000 C   0  0  1  0  0  0  0  0  0  0  0  0
    8.6652   -6.4350    0.0000 C   0  0  1  0  0  0  0  0  0  0  0  0
    9.3797   -6.8475    0.0000 C   0  0  1  0  0  0  0  0  0  0  0  0
    9.3797   -7.6725    0.0000 O   0  0  0  0  0  0  0  0  0  0  0  0
    7.9508   -6.8475    0.0000 O   0  0  0  0  0  0  0  0  0  0  0  0
    7.9508   -5.1975    0.0000 O   0  0  0  0  0  0  0  0  0  0  0  0
    8.6652   -8.0850    0.0000 C   0  0  2  0  0  0  0  0  0  0  0  0
    7.9508   -7.6725    0.0000 O   0  0  0  0  0  0  0  0  0  0  0  0
    7.2363   -8.0850    0.0000 C   0  0  2  0  0  0  0  0  0  0  0  0
    7.2363   -8.9100    0.0000 C   0  0  1  0  0  0  0  0  0  0  0  0
    7.9508   -9.3225    0.0000 C   0  0  2  0  0  0  0  0  0  0  0  0
    8.6652   -8.9100    0.0000 C   0  0  1  0  0  0  0  0  0  0  0  0
    6.5218   -9.3225    0.0000 O   0  0  0  0  0  0  0  0  0  0  0  0
    7.9508  -10.1475    0.0000 O   0  0  0  0  0  0  0  0  0  0  0  0
    9.3797   -9.3225    0.0000 O   0  0  0  0  0  0  0  0  0  0  0  0
    6.5218   -7.6725    0.0000 C   0  0  0  0  0  0  0  0  0  0  0  0
    7.2363  -10.5600    0.0000 C   0  0  2  0  0  0  0  0  0  0  0  0
    6.5218  -10.1475    0.0000 O   0  0  0  0  0  0  0  0  0  0  0  0
    5.8073  -10.5600    0.0000 C   0  0  1  0  0  0  0  0  0  0  0  0
    5.8073  -11.3850    0.0000 C   0  0  2  0  0  0  0  0  0  0  0  0
    6.5218  -11.7975    0.0000 C   0  0  1  0  0  0  0  0  0  0  0  0
    7.2363  -11.3850    0.0000 C   0  0  1  0  0  0  0  0  0  0  0  0
    5.0929  -10.1475    0.0000 C   0  0  0  0  0  0  0  0  0  0  0  0
    6.5218  -12.6225    0.0000 O   0  0  0  0  0  0  0  0  0  0  0  0
    7.9508  -11.7975    0.0000 O   0  0  0  0  0  0  0  0  0  0  0  0
    5.0929  -11.7975    0.0000 O   0  0  0  0  0  0  0  0  0  0  0  0
    4.3784  -10.5600    0.0000 O   0  0  0  0  0  0  0  0  0  0  0  0
    4.6666  -12.5039    0.0000 C   0  0  2  0  0  0  0  0  0  0  0  0
    3.8418  -12.4879    0.0000 O   0  0  0  0  0  0  0  0  0  0  0  0
    3.4155  -13.1942    0.0000 C   0  0  1  0  0  0  0  0  0  0  0  0
    3.8141  -13.9166    0.0000 C   0  0  2  0  0  0  0  0  0  0  0  0
    4.6390  -13.9325    0.0000 C   0  0  1  0  0  0  0  0  0  0  0  0
    5.0652  -13.2262    0.0000 C   0  0  1  0  0  0  0  0  0  0  0  0
    2.5907  -13.1783    0.0000 C   0  0  0  0  0  0  0  0  0  0  0  0
    5.0376  -14.6548    0.0000 O   0  0  0  0  0  0  0  0  0  0  0  0
    3.3879  -14.6229    0.0000 O   0  0  0  0  0  0  0  0  0  0  0  0
    2.1644  -13.8846    0.0000 O   0  0  0  0  0  0  0  0  0  0  0  0
    5.8901  -13.2421    0.0000 O   0  0  0  0  0  0  0  0  0  0  0  0
    3.4026  -15.4478    0.0000 C   0  0  2  0  0  0  0  0  0  0  0  0
    2.6875  -15.8592    0.0000 O   0  0  0  0  0  0  0  0  0  0  0  0
    2.6863  -16.6842    0.0000 C   0  0  0  0  0  0  0  0  0  0  0  0
    3.4002  -17.0978    0.0000 C   0  0  2  0  0  0  0  0  0  0  0  0
    4.1152  -16.6863    0.0000 C   0  0  1  0  0  0  0  0  0  0  0  0
    4.1165  -15.8613    0.0000 C   0  0  1  0  0  0  0  0  0  0  0  0
    4.8315  -15.4499    0.0000 O   0  0  0  0  0  0  0  0  0  0  0  0
    4.8291  -17.0999    0.0000 O   0  0  0  0  0  0  0  0  0  0  0  0
    3.3989  -17.9228    0.0000 O   0  0  0  0  0  0  0  0  0  0  0  0
    7.9508   -4.3725    0.0000 C   0  0  2  0  0  0  0  0  0  0  0  0
    8.6653   -3.9600    0.0000 O   0  0  0  0  0  0  0  0  0  0  0  0
    8.6653   -3.1350    0.0000 C   0  0  2  0  0  0  0  0  0  0  0  0
    7.9508   -2.7225    0.0000 C   0  0  1  0  0  0  0  0  0  0  0  0
    7.2363   -3.1350    0.0000 C   0  0  2  0  0  0  0  0  0  0  0  0
    7.2363   -3.9600    0.0000 C   0  0  1  0  0  0  0  0  0  0  0  0
    7.9508   -1.8975    0.0000 O   0  0  0  0  0  0  0  0  0  0  0  0
    6.5219   -2.7225    0.0000 O   0  0  0  0  0  0  0  0  0  0  0  0
    6.5219   -4.3725    0.0000 O   0  0  0  0  0  0  0  0  0  0  0  0
    9.3797   -2.7225    0.0000 C   0  0  0  0  0  0  0  0  0  0  0  0
  1  2  1  0  0  0  0
  2  3  1  0  0  0  0
  3  4  1  0  0  0  0
  4  5  1  0  0  0  0
  5  6  1  0  0  0  0
  6  1  1  0  0  0  0
  4  7  1  0  0  0  0
  7  8  1  0  0  0  0
  8  9  1  0  0  0  0
  9 10  1  0  0  0  0
 10  5  1  0  0  0  0
  9 11  1  0  0  0  0
 11 12  1  0  0  0  0
 12 13  2  0  0  0  0
 13 14  1  0  0  0  0
 14 10  1  0  0  0  0
 11 15  1  0  0  0  0
 15 16  1  0  0  0  0
 16 17  1  0  0  0  0
 17 18  1  0  0  0  0
 18 12  1  0  0  0  0
 17 19  1  0  0  0  0
 19 20  1  0  0  0  0
 20 21  1  0  0  0  0
 21 22  1  0  0  0  0
 22 18  1  0  0  0  0
 21 23  1  0  0  0  0
 21 24  1  0  0  0  0
 18 25  1  1  0  0  0
 11 26  1  6  0  0  0
  9 27  1  1  0  0  0
 10 28  1  6  0  0  0
  5 29  1  1  0  0  0
  4 30  1  6  0  0  0
  3 31  1  1  0  0  0
  3 32  1  6  0  0  0
  2 33  1  1  0  0  0
 17 34  1  1  0  0  0
 32 35  1  0  0  0  0
 34 36  1  0  0  0  0
 34 37  2  0  0  0  0
 38 33  1  1  0  0  0
 38 39  1  0  0  0  0
 39 40  1  0  0  0  0
 40 41  1  0  0  0  0
 41 42  1  0  0  0  0
 42 43  1  0  0  0  0
 43 38  1  0  0  0  0
 43 44  1  6  0  0  0
 42 45  1  1  0  0  0
 41 46  1  1  0  0  0
 47 44  1  1  0  0  0
 47 48  1  0  0  0  0
 48 49  1  0  0  0  0
 49 50  1  0  0  0  0
 50 51  1  0  0  0  0
 51 52  1  0  0  0  0
 52 47  1  0  0  0  0
 50 53  1  1  0  0  0
 51 54  1  6  0  0  0
 52 55  1  6  0  0  0
 49 56  1  6  0  0  0
 57 54  1  1  0  0  0
 57 58  1  0  0  0  0
 58 59  1  0  0  0  0
 59 60  1  0  0  0  0
 60 61  1  0  0  0  0
 61 62  1  0  0  0  0
 62 57  1  0  0  0  0
 59 63  1  1  0  0  0
 61 64  1  1  0  0  0
 62 65  1  6  0  0  0
 60 66  1  6  0  0  0
 63 67  1  0  0  0  0
 68 66  1  1  0  0  0
 68 69  1  0  0  0  0
 69 70  1  0  0  0  0
 70 71  1  0  0  0  0
 71 72  1  0  0  0  0
 72 73  1  0  0  0  0
 73 68  1  0  0  0  0
 70 74  1  1  0  0  0
 72 75  1  1  0  0  0
 71 76  1  6  0  0  0
 74 77  1  0  0  0  0
 73 78  1  6  0  0  0
 79 76  1  1  0  0  0
 79 80  1  0  0  0  0
 80 81  1  0  0  0  0
 81 82  1  0  0  0  0
 82 83  1  0  0  0  0
 83 84  1  0  0  0  0
 84 79  1  0  0  0  0
 84 85  1  6  0  0  0
 83 86  1  1  0  0  0
 82 87  1  6  0  0  0
 88 46  1  1  0  0  0
 88 89  1  0  0  0  0
 89 90  1  0  0  0  0
 90 91  1  0  0  0  0
 91 92  1  0  0  0  0
 92 93  1  0  0  0  0
 93 88  1  0  0  0  0
 91 94  1  1  0  0  0
 92 95  1  6  0  0  0
 93 96  1  6  0  0  0
 90 97  1  6  0  0  0
M  END
>  <cdx:fragmentId>
5

$$$$
