8346.cdx
  Mrv1902 05222410242D          

 43 49  0  0  0  0            999 V2000
    7.8083   -8.4167    0.0000 C   0  0  2  0  0  0  0  0  0  0  0  0
    7.7947   -7.5918    0.0000 C   0  0  2  0  0  0  0  0  0  0  0  0
    8.5022   -7.1675    0.0000 C   0  0  0  0  0  0  0  0  0  0  0  0
    9.2234   -7.5681    0.0000 C   0  0  2  0  0  0  0  0  0  0  0  0
   10.0037   -7.3003    0.0000 C   0  0  1  0  0  0  0  0  0  0  0  0
   10.3268   -6.5412    0.0000 C   0  0  1  0  0  0  0  0  0  0  0  0
   11.1457   -6.4414    0.0000 C   0  0  0  0  0  0  0  0  0  0  0  0
   11.6416   -7.1007    0.0000 C   0  0  0  0  0  0  0  0  0  0  0  0
   11.3186   -7.8598    0.0000 C   0  0  1  0  0  0  0  0  0  0  0  0
   10.4996   -7.9596    0.0000 C   0  0  1  0  0  0  0  0  0  0  0  0
   10.0258   -8.6350    0.0000 C   0  0  0  0  0  0  0  0  0  0  0  0
    9.2371   -8.3930    0.0000 C   0  0  1  0  0  0  0  0  0  0  0  0
    8.5295   -8.8173    0.0000 C   0  0  0  0  0  0  0  0  0  0  0  0
    8.5432   -9.6422    0.0000 C   0  0  0  0  0  0  0  0  0  0  0  0
    7.8356  -10.0664    0.0000 C   0  0  0  0  0  0  0  0  0  0  0  0
    7.1144   -9.6658    0.0000 C   0  0  1  0  0  0  0  0  0  0  0  0
    6.4069  -10.0900    0.0000 C   0  0  0  0  0  0  0  0  0  0  0  0
    5.6857   -9.6894    0.0000 C   0  0  2  0  0  0  0  0  0  0  0  0
    5.6720   -8.8645    0.0000 C   0  0  0  0  0  0  0  0  0  0  0  0
    6.3796   -8.4403    0.0000 C   0  0  0  0  0  0  0  0  0  0  0  0
    7.1008   -8.8409    0.0000 C   0  0  2  0  0  0  0  0  0  0  0  0
    7.0871   -8.0160    0.0000 C   0  0  0  0  0  0  0  0  0  0  0  0
   12.4606   -7.0009    0.0000 O   0  0  0  0  0  0  0  0  0  0  0  0
    4.9781  -10.1137    0.0000 O   0  0  0  0  0  0  0  0  0  0  0  0
    4.2433   -8.8881    0.0000 O   0  0  0  0  0  0  0  0  0  0  0  0
    4.2569   -9.7130    0.0000 C   0  0  2  0  0  0  0  0  0  0  0  0
    3.5494  -10.1373    0.0000 C   0  0  1  0  0  0  0  0  0  0  0  0
    2.8282   -9.7366    0.0000 C   0  0  2  0  0  0  0  0  0  0  0  0
    2.8145   -8.9118    0.0000 C   0  0  1  0  0  0  0  0  0  0  0  0
    3.5221   -8.4875    0.0000 C   0  0  0  0  0  0  0  0  0  0  0  0
    2.0933   -8.5111    0.0000 O   0  0  0  0  0  0  0  0  0  0  0  0
    2.1206  -10.1609    0.0000 O   0  0  0  0  0  0  0  0  0  0  0  0
    3.5630  -10.9622    0.0000 O   0  0  0  0  0  0  0  0  0  0  0  0
    6.8311  -10.7976    0.0000 C   0  0  0  0  0  0  0  0  0  0  0  0
    6.0062  -10.8112    0.0000 C   0  0  0  0  0  0  0  0  0  0  0  0
    9.2507   -9.2179    0.0000 C   0  0  0  0  0  0  0  0  0  0  0  0
    9.8309   -5.8818    0.0000 C   0  0  0  0  0  0  0  0  0  0  0  0
    9.2234   -6.7431    0.0000 C   0  0  0  0  0  0  0  0  0  0  0  0
   10.9239   -8.6672    0.0000 O   0  0  0  0  0  0  0  0  0  0  0  0
   11.8145   -8.5192    0.0000 O   0  0  0  0  0  0  0  0  0  0  0  0
    7.0735   -7.1911    0.0000 O   0  0  0  0  0  0  0  0  0  0  0  0
    9.5551   -6.6080    0.0000 H   0  0  0  0  0  0  0  0  0  0  0  0
    7.1280  -10.4907    0.0000 H   0  0  0  0  0  0  0  0  0  0  0  0
  1  2  1  0  0  0  0
  2  3  1  0  0  0  0
  3  4  1  0  0  0  0
  4  5  1  0  0  0  0
  5  6  1  0  0  0  0
  6  7  1  0  0  0  0
  7  8  1  0  0  0  0
  8  9  1  0  0  0  0
  9 10  1  0  0  0  0
 10 11  1  0  0  0  0
 11 12  1  0  0  0  0
 12 13  1  0  0  0  0
 13 14  2  0  0  0  0
 14 15  1  0  0  0  0
 15 16  1  0  0  0  0
 16 17  1  0  0  0  0
 17 18  1  0  0  0  0
 18 19  1  0  0  0  0
 19 20  1  0  0  0  0
 20 21  1  0  0  0  0
 21 22  1  1  0  0  0
  1 22  1  1  0  0  0
  1 13  1  0  0  0  0
 16 21  1  0  0  0  0
  1 21  1  0  0  0  0
  4 12  1  0  0  0  0
  5 10  1  0  0  0  0
  8 23  2  0  0  0  0
 25 26  1  0  0  0  0
 26 27  1  0  0  0  0
 27 28  1  0  0  0  0
 28 29  1  0  0  0  0
 29 30  1  0  0  0  0
 25 30  1  0  0  0  0
 29 31  1  6  0  0  0
 28 32  1  1  0  0  0
 27 33  1  6  0  0  0
 26 24  1  1  0  0  0
 18 24  1  1  0  0  0
 17 34  1  0  0  0  0
 17 35  1  0  0  0  0
 12 36  1  6  0  0  0
  6 37  1  6  0  0  0
  4 38  1  1  0  0  0
 10 39  1  6  0  0  0
  9 40  1  6  0  0  0
  2 41  1  1  0  0  0
  5 42  1  6  0  0  0
 16 43  1  6  0  0  0
M  END
>  <cdx:fragmentId>
35122

$$$$
