56835095.cdx
  Mrv1902 05222410182D          

 15 16  0  0  0  0            999 V2000
    6.0505  -15.7157    0.0000 C   0  0  0  0  0  0  0  0  0  0  0  0
    5.3360  -15.3032    0.0000 C   0  0  0  0  0  0  0  0  0  0  0  0
    5.3360  -14.4782    0.0000 C   0  0  0  0  0  0  0  0  0  0  0  0
    6.0505  -14.0657    0.0000 C   0  0  2  0  0  0  0  0  0  0  0  0
    6.7650  -14.4782    0.0000 C   0  0  1  0  0  0  0  0  0  0  0  0
    7.4794  -14.0657    0.0000 C   0  0  1  0  0  0  0  0  0  0  0  0
    8.1939  -14.4782    0.0000 C   0  0  0  0  0  0  0  0  0  0  0  0
    8.1939  -15.3032    0.0000 C   0  0  1  0  0  0  0  0  0  0  0  0
    7.4794  -15.7157    0.0000 C   0  0  0  0  0  0  0  0  0  0  0  0
    6.7650  -15.3032    0.0000 C   0  0  0  0  0  0  0  0  0  0  0  0
    6.0505  -16.5407    0.0000 O   0  0  0  0  0  0  0  0  0  0  0  0
    7.4794  -13.2407    0.0000 C   0  0  0  0  0  0  0  0  0  0  0  0
    6.7650  -13.6532    0.0000 C   0  0  0  0  0  0  0  0  0  0  0  0
    8.9084  -15.7157    0.0000 O   0  0  0  0  0  0  0  0  0  0  0  0
    6.0505  -13.2407    0.0000 O   0  0  0  0  0  0  0  0  0  0  0  0
  1  2  1  0  0  0  0
  2  3  2  0  0  0  0
  3  4  1  0  0  0  0
  4  5  1  0  0  0  0
  5  6  1  0  0  0  0
  6  7  1  0  0  0  0
  7  8  1  0  0  0  0
  8  9  1  0  0  0  0
  9 10  2  0  0  0  0
  1 10  1  0  0  0  0
  5 10  1  0  0  0  0
  1 11  2  0  0  0  0
  6 12  1  6  0  0  0
  5 13  1  6  0  0  0
  8 14  1  6  0  0  0
  4 15  1  1  0  0  0
M  END
>  <cdx:groupId>
190001

>  <cdx:fragmentId>
189958

$$$$
