56835056.cdx
  Mrv1902 05222410182D          

 14 15  0  0  0  0            999 V2000
    6.5538  -15.7157    0.0000 C   0  0  0  0  0  0  0  0  0  0  0  0
    5.8393  -15.3032    0.0000 C   0  0  0  0  0  0  0  0  0  0  0  0
    5.8393  -14.4782    0.0000 C   0  0  0  0  0  0  0  0  0  0  0  0
    6.5538  -14.0657    0.0000 C   0  0  2  0  0  0  0  0  0  0  0  0
    7.2682  -14.4782    0.0000 C   0  0  1  0  0  0  0  0  0  0  0  0
    7.9827  -14.0657    0.0000 C   0  0  1  0  0  0  0  0  0  0  0  0
    8.6972  -14.4782    0.0000 C   0  0  0  0  0  0  0  0  0  0  0  0
    8.6972  -15.3032    0.0000 C   0  0  0  0  0  0  0  0  0  0  0  0
    7.9827  -15.7157    0.0000 C   0  0  0  0  0  0  0  0  0  0  0  0
    7.2682  -15.3032    0.0000 C   0  0  0  0  0  0  0  0  0  0  0  0
    6.5538  -16.5407    0.0000 O   0  0  0  0  0  0  0  0  0  0  0  0
    7.9827  -13.2407    0.0000 C   0  0  0  0  0  0  0  0  0  0  0  0
    7.2682  -13.6532    0.0000 C   0  0  0  0  0  0  0  0  0  0  0  0
    6.5538  -13.2407    0.0000 O   0  0  0  0  0  0  0  0  0  0  0  0
  1  2  1  0  0  0  0
  2  3  2  0  0  0  0
  3  4  1  0  0  0  0
  4  5  1  0  0  0  0
  5  6  1  0  0  0  0
  6  7  1  0  0  0  0
  7  8  1  0  0  0  0
  8  9  1  0  0  0  0
  9 10  2  0  0  0  0
  1 10  1  0  0  0  0
  5 10  1  0  0  0  0
  1 11  2  0  0  0  0
  6 12  1  6  0  0  0
  5 13  1  6  0  0  0
  4 14  1  1  0  0  0
M  END
>  <cdx:groupId>
189949

>  <cdx:fragmentId>
189909

$$$$
