8352.cdx
  Mrv1902 05222410242D          

 16 17  0  0  0  0            999 V2000
    8.0698   -8.2686    0.0000 C   0  0  0  0  0  0  0  0  0  0  0  0
    8.0634   -7.4436    0.0000 C   0  0  0  0  0  0  0  0  0  0  0  0
    7.3457   -7.0367    0.0000 C   0  0  2  0  0  0  0  0  0  0  0  0
    6.6345   -7.4548    0.0000 C   0  0  1  0  0  0  0  0  0  0  0  0
    6.6409   -8.2797    0.0000 C   0  0  0  0  0  0  0  0  0  0  0  0
    7.3586   -8.6866    0.0000 C   0  0  0  0  0  0  0  0  0  0  0  0
    5.9168   -7.0479    0.0000 C   0  0  0  0  0  0  0  0  0  0  0  0
    5.2056   -7.4660    0.0000 C   0  0  0  0  0  0  0  0  0  0  0  0
    5.2120   -8.2909    0.0000 C   0  0  0  0  0  0  0  0  0  0  0  0
    5.9297   -8.6978    0.0000 C   0  0  0  0  0  0  0  0  0  0  0  0
    7.3651   -9.5116    0.0000 C   0  0  0  0  0  0  0  0  0  0  0  0
    7.3393   -6.2117    0.0000 C   0  0  0  0  0  0  0  0  0  0  0  0
    8.0505   -5.7936    0.0000 C   0  0  0  0  0  0  0  0  0  0  0  0
    6.6216   -5.8048    0.0000 C   0  0  0  0  0  0  0  0  0  0  0  0
    4.4879   -7.0591    0.0000 C   0  0  0  0  0  0  0  0  0  0  0  0
    6.6280   -6.6298    0.0000 H   0  0  0  0  0  0  0  0  0  0  0  0
  1  2  1  0  0  0  0
  2  3  1  0  0  0  0
  3  4  1  0  0  0  0
  4  5  1  0  0  0  0
  5  6  2  0  0  0  0
  6  1  1  0  0  0  0
  4  7  1  0  0  0  0
  7  8  2  0  0  0  0
  8  9  1  0  0  0  0
  9 10  1  0  0  0  0
 10  5  1  0  0  0  0
  6 11  1  0  0  0  0
  3 12  1  6  0  0  0
 12 13  1  0  0  0  0
 12 14  1  0  0  0  0
  8 15  1  0  0  0  0
  4 16  1  6  0  0  0
M  END
>  <cdx:fragmentId>
5

$$$$
