83572.cdx
  Mrv1902 05222410212D          

 32 33  0  0  0  0            999 V2000
    3.4218   -6.9300    0.0000 C   0  0  0  0  0  0  0  0  0  0  0  0
    3.4218   -7.7550    0.0000 C   0  0  0  0  0  0  0  0  0  0  0  0
    4.1363   -8.1675    0.0000 C   0  0  0  0  0  0  0  0  0  0  0  0
    4.8507   -7.7550    0.0000 C   0  0  0  0  0  0  0  0  0  0  0  0
    4.8507   -6.9300    0.0000 C   0  0  0  0  0  0  0  0  0  0  0  0
    4.1363   -6.5175    0.0000 C   0  0  0  0  0  0  0  0  0  0  0  0
    2.7073   -6.5175    0.0000 O   0  0  0  0  0  0  0  0  0  0  0  0
    1.9929   -6.9300    0.0000 C   0  0  0  0  0  0  0  0  0  0  0  0
    5.5652   -6.5175    0.0000 C   0  0  1  0  0  0  0  0  0  0  0  0
    6.2797   -6.9300    0.0000 C   0  0  2  0  0  0  0  0  0  0  0  0
    6.9942   -6.5175    0.0000 O   0  0  0  0  0  0  0  0  0  0  0  0
    6.2797   -7.7550    0.0000 C   0  0  0  0  0  0  0  0  0  0  0  0
    5.6386   -8.1251    0.0000 O   0  0  0  0  0  0  0  0  0  0  0  0
    7.7086   -6.9300    0.0000 C   0  0  0  0  0  0  0  0  0  0  0  0
    7.7086   -7.7550    0.0000 C   0  0  0  0  0  0  0  0  0  0  0  0
    8.4231   -8.1675    0.0000 C   0  0  0  0  0  0  0  0  0  0  0  0
    9.1376   -7.7550    0.0000 C   0  0  0  0  0  0  0  0  0  0  0  0
    9.1376   -6.9300    0.0000 C   0  0  0  0  0  0  0  0  0  0  0  0
    8.4231   -6.5175    0.0000 C   0  0  0  0  0  0  0  0  0  0  0  0
    8.4231   -5.6925    0.0000 O   0  0  0  0  0  0  0  0  0  0  0  0
    9.1376   -5.2800    0.0000 C   0  0  0  0  0  0  0  0  0  0  0  0
    9.8520   -8.1675    0.0000 C   0  0  0  0  0  0  0  0  0  0  0  0
   10.5665   -7.7550    0.0000 C   0  0  0  0  0  0  0  0  0  0  0  0
   11.2810   -8.1675    0.0000 C   0  0  0  0  0  0  0  0  0  0  0  0
   11.9955   -7.7550    0.0000 O   0  0  0  0  0  0  0  0  0  0  0  0
    5.5652   -5.6925    0.0000 O   0  0  0  0  0  0  0  0  0  0  0  0
    4.8507   -5.2800    0.0000 C   0  0  0  0  0  0  0  0  0  0  0  0
    4.1363   -8.9925    0.0000 O   0  0  0  0  0  0  0  0  0  0  0  0
    6.9942   -8.1675    0.0000 O   0  0  0  0  0  0  0  0  0  0  0  0
    6.9942   -9.1311    0.0000 C   0  0  0  0  0  0  0  0  0  0  0  0
   10.5665   -6.9300    0.0000 O   0  0  0  0  0  0  0  0  0  0  0  0
    9.8520   -8.9925    0.0000 O   0  0  0  0  0  0  0  0  0  0  0  0
  1  2  2  0  0  0  0
  2  3  1  0  0  0  0
  3  4  2  0  0  0  0
  4  5  1  0  0  0  0
  5  6  2  0  0  0  0
  6  1  1  0  0  0  0
  1  7  1  0  0  0  0
  7  8  1  0  0  0  0
  5  9  1  0  0  0  0
  9 10  1  0  0  0  0
 10 11  1  6  0  0  0
 10 12  1  0  0  0  0
 12 13  1  0  0  0  0
 11 14  1  0  0  0  0
 14 15  2  0  0  0  0
 15 16  1  0  0  0  0
 16 17  2  0  0  0  0
 17 18  1  0  0  0  0
 18 19  2  0  0  0  0
 19 14  1  0  0  0  0
 19 20  1  0  0  0  0
 20 21  1  0  0  0  0
 17 22  1  0  0  0  0
 22 23  1  0  0  0  0
 23 24  1  0  0  0  0
 24 25  1  0  0  0  0
  9 26  1  6  0  0  0
 26 27  1  0  0  0  0
  3 28  1  0  0  0  0
 15 29  1  0  0  0  0
 29 30  1  0  0  0  0
 23 31  1  0  0  0  0
 22 32  1  0  0  0  0
M  END
>  <cdx:fragmentId>
5

$$$$
