8357.cdx
  Mrv1902 05222410252D          

 15 15  0  0  0  0            999 V2000
    6.7616   -2.8617    0.0000 C   0  0  0  0  0  0  0  0  0  0  0  0
    6.0471   -3.2742    0.0000 C   0  0  0  0  0  0  0  0  0  0  0  0
    6.0471   -4.0992    0.0000 C   0  0  0  0  0  0  0  0  0  0  0  0
    5.3326   -4.5117    0.0000 C   0  0  0  0  0  0  0  0  0  0  0  0
    4.6182   -4.0992    0.0000 C   0  0  0  0  0  0  0  0  0  0  0  0
    4.6182   -3.2742    0.0000 C   0  0  0  0  0  0  0  0  0  0  0  0
    5.3326   -2.8617    0.0000 C   0  0  0  0  0  0  0  0  0  0  0  0
    6.7616   -2.0367    0.0000 O   0  0  0  0  0  0  0  0  0  0  0  0
    7.4761   -3.2742    0.0000 O   0  0  0  0  0  0  0  0  0  0  0  0
    3.9037   -2.8617    0.0000 O   0  0  0  0  0  0  0  0  0  0  0  0
    3.1892   -3.2742    0.0000 C   0  0  0  0  0  0  0  0  0  0  0  0
    3.9037   -4.5117    0.0000 O   0  0  0  0  0  0  0  0  0  0  0  0
    3.1892   -4.0992    0.0000 C   0  0  0  0  0  0  0  0  0  0  0  0
    5.3326   -5.3367    0.0000 O   0  0  0  0  0  0  0  0  0  0  0  0
    4.6182   -5.7492    0.0000 C   0  0  0  0  0  0  0  0  0  0  0  0
  1  2  1  0  0  0  0
  2  3  1  0  0  0  0
  3  4  2  0  0  0  0
  4  5  1  0  0  0  0
  5  6  2  0  0  0  0
  6  7  1  0  0  0  0
  2  7  2  0  0  0  0
  1  8  2  0  0  0  0
  1  9  1  0  0  0  0
 10 11  1  0  0  0  0
  6 10  1  0  0  0  0
 12 13  1  0  0  0  0
  5 12  1  0  0  0  0
 14 15  1  0  0  0  0
  4 14  1  0  0  0  0
M  END
>  <cdx:groupId>
47

>  <cdx:fragmentId>
5

$$$$
