3083580.cdx
  Mrv1902 05222410252D          

 14 14  0  0  0  0            999 V2000
   16.5834  -16.0956    0.0000 C   0  0  0  0  0  0  0  0  0  0  0  0
   15.8689  -16.5081    0.0000 C   0  0  0  0  0  0  0  0  0  0  0  0
   15.1545  -16.0956    0.0000 C   0  0  0  0  0  0  0  0  0  0  0  0
   14.4400  -16.5081    0.0000 C   0  0  0  0  0  0  0  0  0  0  0  0
   14.4400  -17.3331    0.0000 C   0  0  0  0  0  0  0  0  0  0  0  0
   15.1545  -17.7456    0.0000 C   0  0  0  0  0  0  0  0  0  0  0  0
   15.8689  -17.3331    0.0000 C   0  0  0  0  0  0  0  0  0  0  0  0
   16.5834  -15.2706    0.0000 O   0  0  0  0  0  0  0  0  0  0  0  0
   17.2979  -16.5081    0.0000 O   0  0  0  0  0  0  0  0  0  0  0  0
   16.5834  -17.7456    0.0000 C   0  0  0  0  0  0  0  0  0  0  0  0
   13.7255  -16.0956    0.0000 C   0  0  0  0  0  0  0  0  0  0  0  0
   13.7255  -17.7456    0.0000 O   0  0  0  0  0  0  0  0  0  0  0  0
   13.0111  -17.3331    0.0000 C   0  0  0  0  0  0  0  0  0  0  0  0
   15.1545  -15.2706    0.0000 O   0  0  0  0  0  0  0  0  0  0  0  0
  1  2  1  0  0  0  0
  2  3  1  0  0  0  0
  3  4  2  0  0  0  0
  4  5  1  0  0  0  0
  5  6  2  0  0  0  0
  6  7  1  0  0  0  0
  2  7  2  0  0  0  0
  1  8  2  0  0  0  0
  1  9  1  0  0  0  0
  7 10  1  0  0  0  0
  4 11  1  0  0  0  0
 12 13  1  0  0  0  0
  5 12  1  0  0  0  0
  3 14  1  0  0  0  0
M  END
>  <cdx:groupId>
2651

>  <cdx:fragmentId>
2612

$$$$
