83597.cdx
  Mrv1902 05222410242D          

 14 16  0  0  0  0            999 V2000
    6.1442   -5.9390    0.0000 O   0  0  0  0  0  0  0  0  0  0  0  0
    5.4298   -6.3515    0.0000 C   0  0  0  0  0  0  0  0  0  0  0  0
    4.7153   -5.9390    0.0000 O   0  0  0  0  0  0  0  0  0  0  0  0
    5.4298   -7.1765    0.0000 C   0  0  0  0  0  0  0  0  0  0  0  0
    6.1442   -7.5890    0.0000 C   0  0  0  0  0  0  0  0  0  0  0  0
    6.8587   -7.1765    0.0000 C   0  0  0  0  0  0  0  0  0  0  0  0
    7.5732   -7.5890    0.0000 C   0  0  0  0  0  0  0  0  0  0  0  0
    8.2877   -7.1765    0.0000 C   0  0  0  0  0  0  0  0  0  0  0  0
    9.0723   -7.4314    0.0000 O   0  0  0  0  0  0  0  0  0  0  0  0
    9.5572   -6.7640    0.0000 C   0  0  0  0  0  0  0  0  0  0  0  0
    9.0723   -6.0965    0.0000 O   0  0  0  0  0  0  0  0  0  0  0  0
    8.2877   -6.3515    0.0000 C   0  0  0  0  0  0  0  0  0  0  0  0
    7.5732   -5.9390    0.0000 C   0  0  0  0  0  0  0  0  0  0  0  0
    6.8587   -6.3515    0.0000 C   0  0  0  0  0  0  0  0  0  0  0  0
  1  2  1  0  0  0  0
  2  3  2  0  0  0  0
  2  4  1  0  0  0  0
  4  5  2  0  0  0  0
  5  6  1  0  0  0  0
  6  7  2  0  0  0  0
  7  8  1  0  0  0  0
  8  9  1  0  0  0  0
  9 10  1  0  0  0  0
 10 11  1  0  0  0  0
  8 12  2  0  0  0  0
 11 12  1  0  0  0  0
 12 13  1  0  0  0  0
 13 14  2  0  0  0  0
  1 14  1  0  0  0  0
  6 14  1  0  0  0  0
M  END
>  <cdx:groupId>
2699

>  <cdx:fragmentId>
2658

$$$$
