83590.cdx
  Mrv1902 05222410242D          

 27 28  0  0  0  0            999 V2000
    3.4218   -6.9300    0.0000 C   0  0  0  0  0  0  0  0  0  0  0  0
    3.4218   -7.7550    0.0000 C   0  0  0  0  0  0  0  0  0  0  0  0
    4.1363   -8.1675    0.0000 C   0  0  0  0  0  0  0  0  0  0  0  0
    4.8507   -7.7550    0.0000 C   0  0  0  0  0  0  0  0  0  0  0  0
    4.8507   -6.9300    0.0000 C   0  0  0  0  0  0  0  0  0  0  0  0
    4.1363   -6.5175    0.0000 C   0  0  0  0  0  0  0  0  0  0  0  0
    2.7073   -6.5175    0.0000 O   0  0  0  0  0  0  0  0  0  0  0  0
    1.9929   -6.9300    0.0000 C   0  0  0  0  0  0  0  0  0  0  0  0
    2.7073   -8.1675    0.0000 O   0  0  0  0  0  0  0  0  0  0  0  0
    5.5652   -6.5175    0.0000 C   0  0  2  0  0  0  0  0  0  0  0  0
    6.2797   -6.9300    0.0000 C   0  0  2  0  0  0  0  0  0  0  0  0
    6.9942   -6.5175    0.0000 O   0  0  0  0  0  0  0  0  0  0  0  0
    6.2797   -7.7550    0.0000 C   0  0  0  0  0  0  0  0  0  0  0  0
    5.6109   -8.1411    0.0000 O   0  0  0  0  0  0  0  0  0  0  0  0
    7.7086   -6.9300    0.0000 C   0  0  0  0  0  0  0  0  0  0  0  0
    7.7086   -7.7550    0.0000 C   0  0  0  0  0  0  0  0  0  0  0  0
    8.4231   -8.1675    0.0000 C   0  0  0  0  0  0  0  0  0  0  0  0
    9.1376   -7.7550    0.0000 C   0  0  0  0  0  0  0  0  0  0  0  0
    9.1376   -6.9300    0.0000 C   0  0  0  0  0  0  0  0  0  0  0  0
    8.4231   -6.5175    0.0000 C   0  0  0  0  0  0  0  0  0  0  0  0
    8.4231   -5.6925    0.0000 O   0  0  0  0  0  0  0  0  0  0  0  0
    9.1376   -5.2800    0.0000 C   0  0  0  0  0  0  0  0  0  0  0  0
    9.8520   -8.1675    0.0000 C   0  0  0  0  0  0  0  0  0  0  0  0
   10.5665   -7.7550    0.0000 C   0  0  0  0  0  0  0  0  0  0  0  0
   11.2810   -8.1675    0.0000 C   0  0  0  0  0  0  0  0  0  0  0  0
   11.9955   -7.7550    0.0000 O   0  0  0  0  0  0  0  0  0  0  0  0
    5.5652   -5.6925    0.0000 O   0  0  0  0  0  0  0  0  0  0  0  0
  1  2  2  0  0  0  0
  2  3  1  0  0  0  0
  3  4  2  0  0  0  0
  4  5  1  0  0  0  0
  5  6  2  0  0  0  0
  6  1  1  0  0  0  0
  1  7  1  0  0  0  0
  7  8  1  0  0  0  0
  2  9  1  0  0  0  0
  5 10  1  0  0  0  0
 10 11  1  0  0  0  0
 11 12  1  6  0  0  0
 11 13  1  0  0  0  0
 13 14  1  0  0  0  0
 12 15  1  0  0  0  0
 15 16  2  0  0  0  0
 16 17  1  0  0  0  0
 17 18  2  0  0  0  0
 18 19  1  0  0  0  0
 19 20  2  0  0  0  0
 20 15  1  0  0  0  0
 20 21  1  0  0  0  0
 21 22  1  0  0  0  0
 18 23  1  0  0  0  0
 23 24  2  0  0  0  0
 24 25  1  0  0  0  0
 25 26  2  0  0  0  0
 10 27  1  1  0  0  0
M  END
>  <cdx:fragmentId>
5

$$$$
