3083613.cdx
  Mrv1902 05222410212D          

 12 12  0  0  0  0            999 V2000
   14.0441  -17.1067    0.0000 C   0  0  0  0  0  0  0  0  0  0  0  0
   13.3296  -17.5192    0.0000 C   0  0  0  0  0  0  0  0  0  0  0  0
   12.6152  -17.1067    0.0000 C   0  0  0  0  0  0  0  0  0  0  0  0
   12.6152  -16.2817    0.0000 C   0  0  0  0  0  0  0  0  0  0  0  0
   13.3296  -15.8692    0.0000 C   0  0  0  0  0  0  0  0  0  0  0  0
   14.0441  -16.2817    0.0000 C   0  0  0  0  0  0  0  0  0  0  0  0
   14.7586  -17.5192    0.0000 C   0  0  0  0  0  0  0  0  0  0  0  0
   15.4731  -17.1067    0.0000 C   0  0  0  0  0  0  0  0  0  0  0  0
   16.1875  -16.6942    0.0000 C   0  0  0  0  0  0  0  0  0  0  0  0
   16.9020  -16.2817    0.0000 C   0  0  0  0  0  0  0  0  0  0  0  0
   17.6165  -15.8692    0.0000 C   0  0  0  0  0  0  0  0  0  0  0  0
   18.3309  -15.4567    0.0000 C   0  0  0  0  0  0  0  0  0  0  0  0
  1  2  1  0  0  0  0
  2  3  2  0  0  0  0
  3  4  1  0  0  0  0
  4  5  2  0  0  0  0
  5  6  1  0  0  0  0
  1  6  2  0  0  0  0
  7  8  1  0  0  0  0
  8  9  3  0  0  0  0
  9 10  1  0  0  0  0
 10 11  3  0  0  0  0
 11 12  1  0  0  0  0
  1  7  1  0  0  0  0
M  END
>  <cdx:groupId>
2740

>  <cdx:fragmentId>
2707

$$$$
