8363.cdx
  Mrv1902 05222410222D          

 17 18  0  0  0  0            999 V2000
    6.4314   -3.6789    0.0000 C   0  0  0  0  0  0  0  0  0  0  0  0
    5.7169   -4.0914    0.0000 C   0  0  0  0  0  0  0  0  0  0  0  0
    5.7169   -4.9164    0.0000 C   0  0  0  0  0  0  0  0  0  0  0  0
    5.0025   -5.3289    0.0000 C   0  0  0  0  0  0  0  0  0  0  0  0
    4.2880   -4.9164    0.0000 C   0  0  0  0  0  0  0  0  0  0  0  0
    4.2880   -4.0914    0.0000 C   0  0  0  0  0  0  0  0  0  0  0  0
    5.0025   -3.6789    0.0000 C   0  0  0  0  0  0  0  0  0  0  0  0
    6.4314   -2.8539    0.0000 O   0  0  0  0  0  0  0  0  0  0  0  0
    7.1459   -4.0914    0.0000 O   0  0  0  0  0  0  0  0  0  0  0  0
    6.4314   -5.3289    0.0000 O   0  0  0  0  0  0  0  0  0  0  0  0
    7.8603   -3.6789    0.0000 C   0  0  0  0  0  0  0  0  0  0  0  0
    8.5748   -4.0914    0.0000 C   0  0  0  0  0  0  0  0  0  0  0  0
    9.2893   -3.6789    0.0000 C   0  0  0  0  0  0  0  0  0  0  0  0
   10.0038   -4.0914    0.0000 C   0  0  0  0  0  0  0  0  0  0  0  0
   10.0038   -4.9164    0.0000 C   0  0  0  0  0  0  0  0  0  0  0  0
    9.2893   -5.3289    0.0000 C   0  0  0  0  0  0  0  0  0  0  0  0
    8.5748   -4.9164    0.0000 C   0  0  0  0  0  0  0  0  0  0  0  0
  1  2  1  0  0  0  0
  2  3  1  0  0  0  0
  3  4  2  0  0  0  0
  4  5  1  0  0  0  0
  5  6  2  0  0  0  0
  6  7  1  0  0  0  0
  2  7  2  0  0  0  0
  1  8  2  0  0  0  0
  1  9  1  0  0  0  0
  3 10  1  0  0  0  0
 11 12  1  0  0  0  0
 12 13  1  0  0  0  0
 13 14  2  0  0  0  0
 14 15  1  0  0  0  0
 15 16  2  0  0  0  0
 16 17  1  0  0  0  0
 12 17  2  0  0  0  0
  9 11  1  0  0  0  0
M  END
>  <cdx:fragmentId>
5

$$$$
