3083634.cdx
  Mrv1902 05222410252D          

 13 13  0  0  0  0            999 V2000
   16.8548  -15.7977    0.0000 C   0  0  0  0  0  0  0  0  0  0  0  0
   17.5692  -16.2102    0.0000 C   0  0  0  0  0  0  0  0  0  0  0  0
   16.1403  -16.2102    0.0000 C   0  0  0  0  0  0  0  0  0  0  0  0
   16.1403  -17.0352    0.0000 C   0  0  0  0  0  0  0  0  0  0  0  0
   15.4258  -17.4477    0.0000 C   0  0  0  0  0  0  0  0  0  0  0  0
   14.7113  -17.0352    0.0000 C   0  0  0  0  0  0  0  0  0  0  0  0
   14.7113  -16.2102    0.0000 C   0  0  0  0  0  0  0  0  0  0  0  0
   15.4258  -15.7977    0.0000 C   0  0  0  0  0  0  0  0  0  0  0  0
   13.9969  -15.7977    0.0000 C   0  0  0  0  0  0  0  0  0  0  0  0
   15.4258  -18.2727    0.0000 C   0  0  0  0  0  0  0  0  0  0  0  0
   13.9969  -17.4477    0.0000 O   0  0  0  0  0  0  0  0  0  0  0  0
   16.8548  -17.4477    0.0000 O   0  0  0  0  0  0  0  0  0  0  0  0
   16.8548  -14.9727    0.0000 O   0  0  0  0  0  0  0  0  0  0  0  0
  1  2  1  0  0  0  0
  3  4  1  0  0  0  0
  4  5  2  0  0  0  0
  5  6  1  0  0  0  0
  6  7  2  0  0  0  0
  7  8  1  0  0  0  0
  3  8  2  0  0  0  0
  7  9  1  0  0  0  0
  5 10  1  0  0  0  0
  6 11  1  0  0  0  0
  4 12  1  0  0  0  0
  1  3  1  0  0  0  0
  1 13  2  0  0  0  0
M  END
>  <cdx:groupId>
2834

>  <cdx:fragmentId>
2802

$$$$
