83633.cdx
  Mrv1902 05222410242D          

 22 24  0  0  0  0            999 V2000
    8.8245   -7.4018    0.0000 C   0  0  0  0  0  0  0  0  0  0  0  0
    9.5390   -7.8143    0.0000 C   0  0  0  0  0  0  0  0  0  0  0  0
    9.5390   -8.6393    0.0000 C   0  0  0  0  0  0  0  0  0  0  0  0
    8.8245   -9.0518    0.0000 C   0  0  0  0  0  0  0  0  0  0  0  0
    8.1100   -8.6393    0.0000 C   0  0  0  0  0  0  0  0  0  0  0  0
    7.3955   -9.0518    0.0000 C   0  0  0  0  0  0  0  0  0  0  0  0
    7.3955   -9.8768    0.0000 O   0  0  0  0  0  0  0  0  0  0  0  0
    6.6811   -8.6393    0.0000 C   0  0  0  0  0  0  0  0  0  0  0  0
    5.9666   -9.0518    0.0000 C   0  0  0  0  0  0  0  0  0  0  0  0
    5.2521   -8.6393    0.0000 C   0  0  0  0  0  0  0  0  0  0  0  0
    5.2521   -7.8143    0.0000 C   0  0  0  0  0  0  0  0  0  0  0  0
    5.9666   -7.4018    0.0000 C   0  0  0  0  0  0  0  0  0  0  0  0
    6.6811   -7.8143    0.0000 C   0  0  0  0  0  0  0  0  0  0  0  0
    7.3955   -7.4018    0.0000 C   0  0  0  0  0  0  0  0  0  0  0  0
    7.3955   -6.5768    0.0000 O   0  0  0  0  0  0  0  0  0  0  0  0
    8.1100   -7.8143    0.0000 C   0  0  0  0  0  0  0  0  0  0  0  0
    4.5377   -9.0518    0.0000 C   0  0  0  0  0  0  0  0  0  0  0  0
    3.8232   -8.6393    0.0000 O   0  0  0  0  0  0  0  0  0  0  0  0
    5.9666   -6.5768    0.0000 O   0  0  0  0  0  0  0  0  0  0  0  0
   10.2534   -9.0518    0.0000 O   0  0  0  0  0  0  0  0  0  0  0  0
    8.8245   -6.5768    0.0000 O   0  0  0  0  0  0  0  0  0  0  0  0
   10.9679   -8.6393    0.0000 C   0  0  0  0  0  0  0  0  0  0  0  0
  1  2  1  0  0  0  0
  2  3  2  0  0  0  0
  3  4  1  0  0  0  0
  4  5  2  0  0  0  0
  5  6  1  0  0  0  0
  6  7  2  0  0  0  0
  6  8  1  0  0  0  0
  8  9  1  0  0  0  0
  9 10  2  0  0  0  0
 10 11  1  0  0  0  0
 11 12  2  0  0  0  0
 12 13  1  0  0  0  0
  8 13  2  0  0  0  0
 13 14  1  0  0  0  0
 14 15  2  0  0  0  0
 14 16  1  0  0  0  0
  5 16  1  0  0  0  0
  1 16  2  0  0  0  0
 17 18  1  0  0  0  0
 10 17  1  0  0  0  0
 12 19  1  0  0  0  0
  3 20  1  0  0  0  0
  1 21  1  0  0  0  0
 20 22  1  0  0  0  0
M  END
>  <cdx:fragmentId>
2742

$$$$
