836364.cdx
  Mrv1902 05222410182D          

 45 48  0  0  0  0            999 V2000
    3.9397   -8.3462    0.0000 C   0  0  2  0  0  0  0  0  0  0  0  0
    3.9397   -9.1713    0.0000 C   0  0  2  0  0  0  0  0  0  0  0  0
    4.5847   -9.6856    0.0000 C   0  0  1  0  0  0  0  0  0  0  0  0
    5.3890   -9.5020    0.0000 C   0  0  1  0  0  0  0  0  0  0  0  0
    5.7470   -8.7588    0.0000 C   0  0  2  0  0  0  0  0  0  0  0  0
    5.3890   -8.0155    0.0000 C   0  0  2  0  0  0  0  0  0  0  0  0
    4.5847   -7.8319    0.0000 C   0  0  2  0  0  0  0  0  0  0  0  0
    5.9502   -7.4107    0.0000 C   0  0  2  0  0  0  0  0  0  0  0  0
    5.7070   -6.6223    0.0000 C   0  0  2  0  0  0  0  0  0  0  0  0
    4.9027   -6.4388    0.0000 C   0  0  1  0  0  0  0  0  0  0  0  0
    4.3415   -7.0435    0.0000 C   0  0  1  0  0  0  0  0  0  0  0  0
    3.1551   -8.0913    0.0000 C   0  0  0  0  0  0  0  0  0  0  0  0
    2.6702   -8.7588    0.0000 C   0  0  0  0  0  0  0  0  0  0  0  0
    3.1551   -9.4262    0.0000 C   0  0  0  0  0  0  0  0  0  0  0  0
    6.7751   -7.4107    0.0000 O   0  0  0  0  0  0  0  0  0  0  0  0
    6.3816   -6.1275    0.0000 O   0  0  0  0  0  0  0  0  0  0  0  0
    5.3890  -10.3270    0.0000 C   0  0  0  0  0  0  0  0  0  0  0  0
    6.1035  -10.7395    0.0000 O   0  0  0  0  0  0  0  0  0  0  0  0
    1.8452   -8.7588    0.0000 C   0  0  0  0  0  0  0  0  0  0  0  0
    2.9001  -10.2108    0.0000 O   0  0  0  0  0  0  0  0  0  0  0  0
    3.5372   -6.8599    0.0000 C   0  0  0  0  0  0  0  0  0  0  0  0
    5.1681   -7.2485    0.0000 O   0  0  0  0  0  0  0  0  0  0  0  0
    3.7262   -7.5494    0.0000 H   0  0  0  0  0  0  0  0  0  0  0  0
    6.2140   -9.5020    0.0000 O   0  0  0  0  0  0  0  0  0  0  0  0
    3.7262   -9.9681    0.0000 O   0  0  0  0  0  0  0  0  0  0  0  0
    4.4011  -10.4899    0.0000 O   0  0  0  0  0  0  0  0  0  0  0  0
    6.1859   -8.2290    0.0000 H   0  0  0  0  0  0  0  0  0  0  0  0
    4.6595   -5.6504    0.0000 O   0  0  0  0  0  0  0  0  0  0  0  0
    3.8626   -5.4369    0.0000 C   0  0  0  0  0  0  0  0  0  0  0  0
    3.6491   -4.6400    0.0000 C   0  0  0  0  0  0  0  0  0  0  0  0
    3.2793   -6.0202    0.0000 O   0  0  0  0  0  0  0  0  0  0  0  0
    5.7070   -5.7973    0.0000 C   0  0  0  0  0  0  0  0  0  0  0  0
    4.9925   -5.3848    0.0000 C   0  0  0  0  0  0  0  0  0  0  0  0
    6.4215   -5.3848    0.0000 C   0  0  0  0  0  0  0  0  0  0  0  0
    7.4896   -6.9982    0.0000 C   0  0  0  0  0  0  0  0  0  0  0  0
    8.2040   -7.4107    0.0000 C   0  0  0  0  0  0  0  0  0  0  0  0
    7.4896   -6.1732    0.0000 O   0  0  0  0  0  0  0  0  0  0  0  0
    8.9185   -6.9982    0.0000 C   0  0  0  0  0  0  0  0  0  0  0  0
    9.6330   -7.4107    0.0000 C   0  0  0  0  0  0  0  0  0  0  0  0
   10.3474   -6.9982    0.0000 C   0  0  0  0  0  0  0  0  0  0  0  0
   11.0619   -7.4107    0.0000 C   0  0  0  0  0  0  0  0  0  0  0  0
   11.7764   -6.9982    0.0000 C   0  0  0  0  0  0  0  0  0  0  0  0
   12.4909   -7.4107    0.0000 C   0  0  0  0  0  0  0  0  0  0  0  0
   13.2053   -6.9982    0.0000 C   0  0  0  0  0  0  0  0  0  0  0  0
   13.9198   -7.4107    0.0000 C   0  0  0  0  0  0  0  0  0  0  0  0
  1  2  1  0  0  0  0
  2  3  1  0  0  0  0
  3  4  1  0  0  0  0
  4  5  1  0  0  0  0
  5  6  1  0  0  0  0
  6  7  1  0  0  0  0
  7  1  1  0  0  0  0
  6  8  1  0  0  0  0
  8  9  1  0  0  0  0
  9 10  1  0  0  0  0
 10 11  1  0  0  0  0
 11  7  1  0  0  0  0
  1 12  1  0  0  0  0
 12 13  2  0  0  0  0
 13 14  1  0  0  0  0
 14  2  1  0  0  0  0
  8 15  1  6  0  0  0
  9 16  1  6  0  0  0
  4 17  1  0  0  0  0
 17 18  1  0  0  0  0
 13 19  1  0  0  0  0
 14 20  2  0  0  0  0
 11 21  1  6  0  0  0
  7 22  1  6  0  0  0
  1 23  1  6  0  0  0
  4 24  1  6  0  0  0
  5 24  1  6  0  0  0
  2 25  1  1  0  0  0
  3 26  1  1  0  0  0
  6 27  1  1  0  0  0
 10 28  1  1  0  0  0
 28 29  1  0  0  0  0
 29 30  1  0  0  0  0
 29 31  2  0  0  0  0
  9 32  1  0  0  0  0
 32 33  1  0  0  0  0
 32 34  2  0  0  0  0
 15 35  1  0  0  0  0
 35 36  1  0  0  0  0
 35 37  2  0  0  0  0
 36 38  2  0  0  0  0
 38 39  1  0  0  0  0
 39 40  2  0  0  0  0
 40 41  1  0  0  0  0
 41 42  1  0  0  0  0
 42 43  1  0  0  0  0
 43 44  1  0  0  0  0
 44 45  1  0  0  0  0
M  END
>  <cdx:fragmentId>
5

$$$$
