8364.cdx
  Mrv1902 05222410212D          

 18 18  0  0  0  0            999 V2000
    5.8276   -4.7377    0.0000 C   0  0  0  0  0  0  0  0  0  0  0  0
    5.1131   -5.1502    0.0000 C   0  0  0  0  0  0  0  0  0  0  0  0
    5.1131   -5.9752    0.0000 C   0  0  0  0  0  0  0  0  0  0  0  0
    4.3987   -6.3877    0.0000 C   0  0  0  0  0  0  0  0  0  0  0  0
    3.6842   -5.9752    0.0000 C   0  0  0  0  0  0  0  0  0  0  0  0
    3.6842   -5.1502    0.0000 C   0  0  0  0  0  0  0  0  0  0  0  0
    4.3987   -4.7377    0.0000 C   0  0  0  0  0  0  0  0  0  0  0  0
    5.8276   -3.9127    0.0000 O   0  0  0  0  0  0  0  0  0  0  0  0
    6.5421   -5.1502    0.0000 O   0  0  0  0  0  0  0  0  0  0  0  0
    5.8276   -6.3877    0.0000 O   0  0  0  0  0  0  0  0  0  0  0  0
    7.2566   -4.7377    0.0000 C   0  0  0  0  0  0  0  0  0  0  0  0
    7.9710   -5.1502    0.0000 C   0  0  0  0  0  0  0  0  0  0  0  0
    8.6855   -4.7377    0.0000 C   0  0  0  0  0  0  0  0  0  0  0  0
    9.4000   -5.1502    0.0000 C   0  0  0  0  0  0  0  0  0  0  0  0
   10.1144   -4.7377    0.0000 C   0  0  0  0  0  0  0  0  0  0  0  0
   10.8289   -5.1502    0.0000 C   0  0  0  0  0  0  0  0  0  0  0  0
    7.9710   -5.9752    0.0000 C   0  0  0  0  0  0  0  0  0  0  0  0
    8.6855   -6.3877    0.0000 C   0  0  0  0  0  0  0  0  0  0  0  0
  1  2  1  0  0  0  0
  2  3  1  0  0  0  0
  3  4  2  0  0  0  0
  4  5  1  0  0  0  0
  5  6  2  0  0  0  0
  6  7  1  0  0  0  0
  2  7  2  0  0  0  0
  1  8  2  0  0  0  0
  1  9  1  0  0  0  0
  3 10  1  0  0  0  0
 11 12  1  0  0  0  0
 12 13  1  0  0  0  0
 13 14  1  0  0  0  0
 14 15  1  0  0  0  0
 15 16  1  0  0  0  0
 17 18  1  0  0  0  0
 12 17  1  0  0  0  0
  9 11  1  0  0  0  0
M  END
>  <cdx:fragmentId>
5

$$$$
