8369.cdx
  Mrv1902 05222410252D          

  9  9  0  0  0  0            999 V2000
    4.8683   -4.1327    0.0000 C   0  0  0  0  0  0  0  0  0  0  0  0
    4.8683   -3.3077    0.0000 C   0  0  0  0  0  0  0  0  0  0  0  0
    4.1538   -2.8952    0.0000 C   0  0  0  0  0  0  0  0  0  0  0  0
    3.4394   -3.3077    0.0000 C   0  0  0  0  0  0  0  0  0  0  0  0
    3.4394   -4.1327    0.0000 C   0  0  0  0  0  0  0  0  0  0  0  0
    4.1538   -4.5452    0.0000 O   0  0  0  0  0  0  0  0  0  0  0  0
    4.1538   -2.0702    0.0000 O   0  0  0  0  0  0  0  0  0  0  0  0
    5.5828   -4.5452    0.0000 C   0  0  0  0  0  0  0  0  0  0  0  0
    5.5828   -2.8952    0.0000 O   0  0  0  0  0  0  0  0  0  0  0  0
  1  2  2  0  0  0  0
  2  3  1  0  0  0  0
  3  4  1  0  0  0  0
  4  5  2  0  0  0  0
  5  6  1  0  0  0  0
  1  6  1  0  0  0  0
  3  7  2  0  0  0  0
  1  8  1  0  0  0  0
  2  9  1  0  0  0  0
M  END
>  <cdx:groupId>
29

>  <cdx:fragmentId>
5

$$$$
