83731.cdx
  Mrv1902 05222410272D          

 67 75  0  0  0  0            999 V2000
   12.9636   -8.5525    0.0000 C   0  0  0  0  0  0  0  0  0  0  0  0
   12.9636   -9.3775    0.0000 C   0  0  1  0  0  0  0  0  0  0  0  0
   13.6780   -9.7900    0.0000 C   0  0  0  0  0  0  0  0  0  0  0  0
   14.3925   -9.3775    0.0000 C   0  0  0  0  0  0  0  0  0  0  0  0
   14.3925   -8.5525    0.0000 C   0  0  2  0  0  0  0  0  0  0  0  0
   13.6780   -8.1400    0.0000 C   0  0  0  0  0  0  0  0  0  0  0  0
   15.1070   -9.7900    0.0000 C   0  0  0  0  0  0  0  0  0  0  0  0
   15.8214   -9.3775    0.0000 C   0  0  0  0  0  0  0  0  0  0  0  0
   15.8214   -8.5525    0.0000 C   0  0  2  0  0  0  0  0  0  0  0  0
   15.1070   -8.1400    0.0000 C   0  0  2  0  0  0  0  0  0  0  0  0
   16.5359   -8.1400    0.0000 C   0  0  2  0  0  0  0  0  0  0  0  0
   16.5359   -7.3150    0.0000 C   0  0  1  0  0  0  0  0  0  0  0  0
   15.8214   -6.9025    0.0000 C   0  0  0  0  0  0  0  0  0  0  0  0
   15.1070   -7.3150    0.0000 C   0  0  0  0  0  0  0  0  0  0  0  0
   12.2491   -9.7900    0.0000 O   0  0  0  0  0  0  0  0  0  0  0  0
   14.3925   -7.7275    0.0000 C   0  0  0  0  0  0  0  0  0  0  0  0
   16.5359   -8.9650    0.0000 O   0  0  0  0  0  0  0  0  0  0  0  0
   10.8157   -8.1256    0.0000 C   0  0  2  0  0  0  0  0  0  0  0  0
   10.1013   -8.5381    0.0000 C   0  0  2  0  0  0  0  0  0  0  0  0
   10.1012   -9.3631    0.0000 C   0  0  1  0  0  0  0  0  0  0  0  0
   10.8157   -9.7756    0.0000 C   0  0  2  0  0  0  0  0  0  0  0  0
   11.5302   -9.3631    0.0000 C   0  0  1  0  0  0  0  0  0  0  0  0
   11.5302   -8.5381    0.0000 O   0  0  0  0  0  0  0  0  0  0  0  0
   10.8158   -7.3006    0.0000 C   0  0  0  0  0  0  0  0  0  0  0  0
    9.3867   -9.7755    0.0000 O   0  0  0  0  0  0  0  0  0  0  0  0
    9.3868   -8.1255    0.0000 O   0  0  0  0  0  0  0  0  0  0  0  0
   10.8157  -10.6006    0.0000 O   0  0  0  0  0  0  0  0  0  0  0  0
   10.1013   -6.8881    0.0000 O   0  0  0  0  0  0  0  0  0  0  0  0
    7.9500   -8.1288    0.0000 C   0  0  2  0  0  0  0  0  0  0  0  0
    7.2355   -8.5413    0.0000 C   0  0  2  0  0  0  0  0  0  0  0  0
    7.2355   -9.3663    0.0000 C   0  0  1  0  0  0  0  0  0  0  0  0
    7.9499   -9.7788    0.0000 C   0  0  2  0  0  0  0  0  0  0  0  0
    8.6644   -9.3663    0.0000 C   0  0  1  0  0  0  0  0  0  0  0  0
    8.6644   -8.5413    0.0000 O   0  0  0  0  0  0  0  0  0  0  0  0
    6.5210   -9.7788    0.0000 O   0  0  0  0  0  0  0  0  0  0  0  0
    6.5210   -8.1288    0.0000 O   0  0  0  0  0  0  0  0  0  0  0  0
    7.9499  -10.6038    0.0000 O   0  0  0  0  0  0  0  0  0  0  0  0
   16.5359   -6.4900    0.0000 C   0  0  0  0  0  0  0  0  0  0  0  0
   17.3205   -8.3949    0.0000 C   0  0  0  0  0  0  0  0  0  0  0  0
   17.8055   -7.7275    0.0000 C   0  0  1  0  0  0  0  0  0  0  0  0
   17.3205   -7.0601    0.0000 C   0  0  2  0  0  0  0  0  0  0  0  0
   18.5901   -7.4726    0.0000 O   0  0  0  0  0  0  0  0  0  0  0  0
   18.5901   -6.6476    0.0000 C   0  0  1  0  0  0  0  0  0  0  0  0
   17.8055   -6.3926    0.0000 C   0  0  1  0  0  0  0  0  0  0  0  0
   19.3438   -6.9831    0.0000 C   0  0  0  0  0  0  0  0  0  0  0  0
   20.0112   -6.4982    0.0000 C   0  0  0  0  0  0  0  0  0  0  0  0
   19.9250   -5.6777    0.0000 C   0  0  2  0  0  0  0  0  0  0  0  0
   19.1713   -5.3422    0.0000 C   0  0  0  0  0  0  0  0  0  0  0  0
   18.5038   -5.8271    0.0000 O   0  0  0  0  0  0  0  0  0  0  0  0
   16.9080   -6.3456    0.0000 O   0  0  0  0  0  0  0  0  0  0  0  0
   17.5505   -5.6080    0.0000 C   0  0  0  0  0  0  0  0  0  0  0  0
   20.5924   -5.1928    0.0000 C   0  0  0  0  0  0  0  0  0  0  0  0
    7.9500   -7.3038    0.0000 C   0  0  0  0  0  0  0  0  0  0  0  0
    7.2355   -6.8913    0.0000 O   0  0  0  0  0  0  0  0  0  0  0  0
   15.1070   -8.9650    0.0000 H   0  0  0  0  0  0  0  0  0  0  0  0
   15.8214   -7.7275    0.0000 H   0  0  0  0  0  0  0  0  0  0  0  0
   18.2180   -8.4420    0.0000 H   0  0  0  0  0  0  0  0  0  0  0  0
    8.3658  -11.3163    0.0000 C   0  0  2  0  0  0  0  0  0  0  0  0
    7.9567  -12.0327    0.0000 O   0  0  0  0  0  0  0  0  0  0  0  0
    8.3726  -12.7453    0.0000 C   0  0  2  0  0  0  0  0  0  0  0  0
    9.1976  -12.7413    0.0000 C   0  0  1  0  0  0  0  0  0  0  0  0
    9.6067  -12.0249    0.0000 C   0  0  2  0  0  0  0  0  0  0  0  0
    9.1908  -11.3123    0.0000 C   0  0  1  0  0  0  0  0  0  0  0  0
    9.6135  -13.4538    0.0000 O   0  0  0  0  0  0  0  0  0  0  0  0
   10.4317  -12.0209    0.0000 O   0  0  0  0  0  0  0  0  0  0  0  0
    9.5998  -10.5959    0.0000 O   0  0  0  0  0  0  0  0  0  0  0  0
    7.9635  -13.4617    0.0000 C   0  0  0  0  0  0  0  0  0  0  0  0
  1  2  1  0  0  0  0
  2  3  1  0  0  0  0
  3  4  1  0  0  0  0
  4  5  1  0  0  0  0
  5  6  1  0  0  0  0
  6  1  1  0  0  0  0
  4  7  2  0  0  0  0
  7  8  1  0  0  0  0
  8  9  1  0  0  0  0
  9 10  1  0  0  0  0
 10  5  1  0  0  0  0
  9 11  1  0  0  0  0
 11 12  1  0  0  0  0
 12 13  1  0  0  0  0
 13 14  1  0  0  0  0
 14 10  1  0  0  0  0
  2 15  1  1  0  0  0
  5 16  1  1  0  0  0
 11 17  1  6  0  0  0
 18 19  1  0  0  0  0
 19 20  1  0  0  0  0
 20 21  1  0  0  0  0
 21 22  1  0  0  0  0
 22 23  1  0  0  0  0
 23 18  1  0  0  0  0
 18 24  1  1  0  0  0
 20 25  1  1  0  0  0
 19 26  1  6  0  0  0
 21 27  1  6  0  0  0
 24 28  1  0  0  0  0
 29 30  1  0  0  0  0
 30 31  1  0  0  0  0
 31 32  1  0  0  0  0
 32 33  1  0  0  0  0
 33 34  1  0  0  0  0
 34 29  1  0  0  0  0
 31 35  1  1  0  0  0
 30 36  1  6  0  0  0
 32 37  1  6  0  0  0
 33 25  1  1  0  0  0
 22 15  1  1  0  0  0
 12 38  1  1  0  0  0
 11 39  1  0  0  0  0
 39 40  1  0  0  0  0
 40 41  1  0  0  0  0
 41 12  1  0  0  0  0
 40 42  1  0  0  0  0
 43 42  1  6  0  0  0
 43 44  1  0  0  0  0
 44 41  1  0  0  0  0
 43 45  1  0  0  0  0
 45 46  1  0  0  0  0
 46 47  1  0  0  0  0
 47 48  1  0  0  0  0
 48 49  1  0  0  0  0
 49 43  1  0  0  0  0
 41 50  1  6  0  0  0
 44 51  1  6  0  0  0
 47 52  1  6  0  0  0
 29 53  1  1  0  0  0
 53 54  1  0  0  0  0
 10 55  1  6  0  0  0
  9 56  1  1  0  0  0
 40 57  1  6  0  0  0
 58 37  1  1  0  0  0
 58 59  1  0  0  0  0
 59 60  1  0  0  0  0
 60 61  1  0  0  0  0
 61 62  1  0  0  0  0
 62 63  1  0  0  0  0
 63 58  1  0  0  0  0
 61 64  1  1  0  0  0
 62 65  1  6  0  0  0
 63 66  1  6  0  0  0
 60 67  1  6  0  0  0
M  END
>  <cdx:fragmentId>
109

$$$$
