83746.cdx
  Mrv1902 05222410242D          

 17 18  0  0  0  0            999 V2000
    7.3990   -6.3646    0.0000 C   0  0  2  0  0  0  0  0  0  0  0  0
    6.8687   -6.9966    0.0000 C   0  0  0  0  0  0  0  0  0  0  0  0
    6.0562   -6.8533    0.0000 C   0  0  0  0  0  0  0  0  0  0  0  0
    5.7740   -6.0781    0.0000 C   0  0  2  0  0  0  0  0  0  0  0  0
    4.9616   -5.9348    0.0000 C   0  0  0  0  0  0  0  0  0  0  0  0
    6.3043   -5.4461    0.0000 C   0  0  0  0  0  0  0  0  0  0  0  0
    7.1168   -5.5894    0.0000 C   0  0  0  0  0  0  0  0  0  0  0  0
    7.8839   -5.6972    0.0000 C   0  0  1  0  0  0  0  0  0  0  0  0
    7.6290   -4.9125    0.0000 C   0  0  0  0  0  0  0  0  0  0  0  0
    8.1810   -4.2994    0.0000 C   0  0  0  0  0  0  0  0  0  0  0  0
    6.8220   -4.7410    0.0000 C   0  0  0  0  0  0  0  0  0  0  0  0
    8.6685   -5.9521    0.0000 C   0  0  0  0  0  0  0  0  0  0  0  0
    8.6685   -6.7771    0.0000 C   0  0  0  0  0  0  0  0  0  0  0  0
    7.8839   -7.0320    0.0000 C   0  0  2  0  0  0  0  0  0  0  0  0
    7.6290   -7.8167    0.0000 C   0  0  0  0  0  0  0  0  0  0  0  0
    5.5259   -7.4853    0.0000 O   0  0  0  0  0  0  0  0  0  0  0  0
    9.3360   -5.4672    0.0000 O   0  0  0  0  0  0  0  0  0  0  0  0
  1  2  1  0  0  0  0
  2  3  1  0  0  0  0
  3  4  1  0  0  0  0
  4  5  1  6  0  0  0
  4  6  1  0  0  0  0
  6  7  1  0  0  0  0
  1  7  1  1  0  0  0
  1  8  1  0  0  0  0
  8  9  1  1  0  0  0
  9 10  1  0  0  0  0
  9 11  1  0  0  0  0
  8 12  1  0  0  0  0
 12 13  1  0  0  0  0
 13 14  1  0  0  0  0
  1 14  1  0  0  0  0
 14 15  1  6  0  0  0
  3 16  2  0  0  0  0
 12 17  2  0  0  0  0
M  END
>  <cdx:fragmentId>
2944

$$$$
