8375.cdx
  Mrv1902 05222410232D          

 10 10  0  0  0  0            999 V2000
    7.1587   -3.2917    0.0000 C   0  0  0  0  0  0  0  0  0  0  0  0
    7.8726   -2.8782    0.0000 C   0  0  0  0  0  0  0  0  0  0  0  0
    7.1598   -4.1167    0.0000 C   0  0  0  0  0  0  0  0  0  0  0  0
    7.8749   -4.5282    0.0000 C   0  0  0  0  0  0  0  0  0  0  0  0
    7.8760   -5.3532    0.0000 C   0  0  0  0  0  0  0  0  0  0  0  0
    7.1621   -5.7667    0.0000 C   0  0  0  0  0  0  0  0  0  0  0  0
    6.4471   -5.3552    0.0000 C   0  0  0  0  0  0  0  0  0  0  0  0
    6.4459   -4.5302    0.0000 C   0  0  0  0  0  0  0  0  0  0  0  0
    8.5888   -4.1147    0.0000 O   0  0  0  0  0  0  0  0  0  0  0  0
    6.4436   -2.8802    0.0000 O   0  0  0  0  0  0  0  0  0  0  0  0
  1  2  1  0  0  0  0
  3  4  1  0  0  0  0
  4  5  2  0  0  0  0
  5  6  1  0  0  0  0
  6  7  2  0  0  0  0
  7  8  1  0  0  0  0
  3  8  2  0  0  0  0
  4  9  1  0  0  0  0
  1  3  1  0  0  0  0
  1 10  2  0  0  0  0
M  END
>  <cdx:groupId>
32

>  <cdx:fragmentId>
9

$$$$
