838172.cdx
  Mrv1902 05222410202D          

 21 23  0  0  0  0            999 V2000
    5.6636   -5.4318    0.0000 C   0  0  0  0  0  0  0  0  0  0  0  0
    4.8386   -5.4318    0.0000 C   0  0  0  0  0  0  0  0  0  0  0  0
    6.0761   -4.7173    0.0000 O   0  0  0  0  0  0  0  0  0  0  0  0
    6.0761   -6.1463    0.0000 O   0  0  0  0  0  0  0  0  0  0  0  0
    8.7084   -5.7338    0.0000 C   0  0  2  0  0  0  0  0  0  0  0  0
    9.4930   -5.4788    0.0000 C   0  0  1  0  0  0  0  0  0  0  0  0
    9.9779   -6.1463    0.0000 C   0  0  0  0  0  0  0  0  0  0  0  0
    9.4930   -6.8137    0.0000 C   0  0  0  0  0  0  0  0  0  0  0  0
    8.7084   -6.5588    0.0000 C   0  0  1  0  0  0  0  0  0  0  0  0
    8.0634   -7.0731    0.0000 C   0  0  0  0  0  0  0  0  0  0  0  0
    7.2590   -6.8896    0.0000 C   0  0  2  0  0  0  0  0  0  0  0  0
    6.9011   -6.1463    0.0000 C   0  0  1  0  0  0  0  0  0  0  0  0
    7.2590   -5.4030    0.0000 C   0  0  0  0  0  0  0  0  0  0  0  0
    8.0634   -5.2194    0.0000 C   0  0  0  0  0  0  0  0  0  0  0  0
    7.6511   -5.8931    0.0000 C   0  0  0  0  0  0  0  0  0  0  0  0
    6.3177   -6.7296    0.0000 C   0  0  0  0  0  0  0  0  0  0  0  0
    8.6245   -7.6779    0.0000 C   0  0  0  0  0  0  0  0  0  0  0  0
    7.8202   -7.8615    0.0000 C   0  0  0  0  0  0  0  0  0  0  0  0
    9.7479   -4.6942    0.0000 C   0  0  0  0  0  0  0  0  0  0  0  0
    8.7084   -7.3838    0.0000 H   0  0  0  0  0  0  0  0  0  0  0  0
    6.8465   -7.6040    0.0000 H   0  0  0  0  0  0  0  0  0  0  0  0
  1  2  1  0  0  0  0
  1  3  2  0  0  0  0
  1  4  1  0  0  0  0
  5  6  1  0  0  0  0
  6  7  1  0  0  0  0
  7  8  1  0  0  0  0
  8  9  1  0  0  0  0
  9 10  1  0  0  0  0
 10 11  1  0  0  0  0
 11 12  1  0  0  0  0
 12 13  1  0  0  0  0
 13 14  1  0  0  0  0
  5 14  1  0  0  0  0
  5 15  1  1  0  0  0
 15 11  1  0  0  0  0
  5  9  1  0  0  0  0
 12 16  1  0  0  0  0
 10 17  1  0  0  0  0
 10 18  1  0  0  0  0
  6 19  1  6  0  0  0
 12  4  1  6  0  0  0
  9 20  1  6  0  0  0
 11 21  1  1  0  0  0
M  END
>  <cdx:fragmentId>
13

$$$$
