3083811.cdx
  Mrv1902 05222410252D          

 15 16  0  0  0  0            999 V2000
   18.3309   -8.6874    0.0000 C   0  0  0  0  0  0  0  0  0  0  0  0
   17.6165   -9.0999    0.0000 C   0  0  0  0  0  0  0  0  0  0  0  0
   16.9020   -9.5124    0.0000 C   0  0  0  0  0  0  0  0  0  0  0  0
   16.1875   -9.9249    0.0000 C   0  0  0  0  0  0  0  0  0  0  0  0
   15.4730   -9.5124    0.0000 C   0  0  0  0  0  0  0  0  0  0  0  0
   14.7586   -9.9249    0.0000 C   0  0  0  0  0  0  0  0  0  0  0  0
   14.0441   -9.5124    0.0000 C   0  0  0  0  0  0  0  0  0  0  0  0
   14.0441   -8.6874    0.0000 C   0  0  0  0  0  0  0  0  0  0  0  0
   13.3296   -8.2749    0.0000 C   0  0  0  0  0  0  0  0  0  0  0  0
   12.6152   -8.6874    0.0000 C   0  0  0  0  0  0  0  0  0  0  0  0
   12.6152   -9.5124    0.0000 C   0  0  0  0  0  0  0  0  0  0  0  0
   13.3296   -9.9249    0.0000 C   0  0  0  0  0  0  0  0  0  0  0  0
   14.7586   -8.2749    0.0000 C   0  0  0  0  0  0  0  0  0  0  0  0
   14.7586   -7.4499    0.0000 O   0  0  0  0  0  0  0  0  0  0  0  0
   15.4730   -8.6874    0.0000 O   0  0  0  0  0  0  0  0  0  0  0  0
  1  2  1  0  0  0  0
  2  3  3  0  0  0  0
  3  4  1  0  0  0  0
  4  5  1  0  0  0  0
  5  6  2  0  0  0  0
  6  7  1  0  0  0  0
  7  8  2  0  0  0  0
  8  9  1  0  0  0  0
  9 10  2  0  0  0  0
 10 11  1  0  0  0  0
 11 12  2  0  0  0  0
  7 12  1  0  0  0  0
  8 13  1  0  0  0  0
 13 14  2  0  0  0  0
 13 15  1  0  0  0  0
  5 15  1  0  0  0  0
M  END
>  <cdx:fragmentId>
2996

$$$$
