83810.cdx
  Mrv1902 05222410252D          

 15 15  0  0  0  0            999 V2000
    9.1867   -5.0935    0.0000 C   0  0  0  0  0  0  0  0  0  0  0  0
    9.9012   -5.5060    0.0000 C   0  0  0  0  0  0  0  0  0  0  0  0
    9.1867   -4.2685    0.0000 O   0  0  0  0  0  0  0  0  0  0  0  0
    8.4722   -5.5060    0.0000 C   0  0  0  0  0  0  0  0  0  0  0  0
    7.7577   -5.0935    0.0000 C   0  0  0  0  0  0  0  0  0  0  0  0
    7.0433   -5.5060    0.0000 C   0  0  0  0  0  0  0  0  0  0  0  0
    7.0433   -6.3310    0.0000 C   0  0  0  0  0  0  0  0  0  0  0  0
    7.7577   -6.7435    0.0000 C   0  0  0  0  0  0  0  0  0  0  0  0
    8.4722   -6.3310    0.0000 C   0  0  0  0  0  0  0  0  0  0  0  0
    6.3288   -6.7435    0.0000 O   0  0  0  0  0  0  0  0  0  0  0  0
    6.3288   -7.5685    0.0000 C   0  0  0  0  0  0  0  0  0  0  0  0
    6.3288   -5.0935    0.0000 O   0  0  0  0  0  0  0  0  0  0  0  0
    5.6143   -5.5060    0.0000 C   0  0  0  0  0  0  0  0  0  0  0  0
    7.7577   -4.2685    0.0000 O   0  0  0  0  0  0  0  0  0  0  0  0
    7.0433   -3.8560    0.0000 C   0  0  0  0  0  0  0  0  0  0  0  0
  1  2  1  0  0  0  0
  4  5  1  0  0  0  0
  5  6  2  0  0  0  0
  6  7  1  0  0  0  0
  7  8  2  0  0  0  0
  8  9  1  0  0  0  0
  4  9  2  0  0  0  0
  1  3  2  0  0  0  0
  1  4  1  0  0  0  0
 10 11  1  0  0  0  0
  7 10  1  0  0  0  0
 12 13  1  0  0  0  0
  6 12  1  0  0  0  0
 14 15  1  0  0  0  0
  5 14  1  0  0  0  0
M  END
>  <cdx:fragmentId>
11

$$$$
