56838440.cdx
  Mrv1902 05222410252D          

 28 30  0  0  0  0            999 V2000
   10.8714  -14.7203    0.0000 C   0  0  0  0  0  0  0  0  0  0  0  0
   10.4589  -15.4347    0.0000 C   0  0  0  0  0  0  0  0  0  0  0  0
    9.6339  -15.4347    0.0000 C   0  0  0  0  0  0  0  0  0  0  0  0
    9.2214  -14.7203    0.0000 C   0  0  0  0  0  0  0  0  0  0  0  0
    9.6339  -14.0058    0.0000 C   0  0  0  0  0  0  0  0  0  0  0  0
   10.4589  -14.0058    0.0000 C   0  0  0  0  0  0  0  0  0  0  0  0
   11.6964  -14.7203    0.0000 O   0  0  0  0  0  0  0  0  0  0  0  0
   10.8714  -13.2913    0.0000 O   0  0  0  0  0  0  0  0  0  0  0  0
   11.6964  -13.2913    0.0000 C   0  0  0  0  0  0  0  0  0  0  0  0
   10.8714  -16.1492    0.0000 O   0  0  0  0  0  0  0  0  0  0  0  0
   11.6964  -16.1492    0.0000 C   0  0  0  0  0  0  0  0  0  0  0  0
    7.9115  -15.3877    0.0000 O   0  0  0  0  0  0  0  0  0  0  0  0
    8.3964  -14.7203    0.0000 C   0  0  1  0  0  0  0  0  0  0  0  0
    7.9115  -14.0528    0.0000 C   0  0  2  0  0  0  0  0  0  0  0  0
    7.1269  -14.3078    0.0000 C   0  0  0  0  0  0  0  0  0  0  0  0
    6.4124  -13.8953    0.0000 C   0  0  0  0  0  0  0  0  0  0  0  0
    5.6979  -14.3078    0.0000 C   0  0  0  0  0  0  0  0  0  0  0  0
    5.6979  -15.1328    0.0000 C   0  0  0  0  0  0  0  0  0  0  0  0
    6.4124  -15.5453    0.0000 C   0  0  0  0  0  0  0  0  0  0  0  0
    7.1269  -15.1328    0.0000 C   0  0  0  0  0  0  0  0  0  0  0  0
    6.4124  -16.3703    0.0000 O   0  0  0  0  0  0  0  0  0  0  0  0
    5.6979  -16.7828    0.0000 C   0  0  0  0  0  0  0  0  0  0  0  0
    4.9835  -13.8953    0.0000 C   0  0  0  0  0  0  0  0  0  0  0  0
    4.2690  -14.3078    0.0000 C   0  0  0  0  0  0  0  0  0  0  0  0
    3.5545  -13.8953    0.0000 C   0  0  0  0  0  0  0  0  0  0  0  0
    2.8401  -14.3078    0.0000 O   0  0  0  0  0  0  0  0  0  0  0  0
    8.1665  -13.2682    0.0000 C   0  0  0  0  0  0  0  0  0  0  0  0
    8.9734  -13.0967    0.0000 O   0  0  0  0  0  0  0  0  0  0  0  0
  1  2  1  0  0  0  0
  2  3  2  0  0  0  0
  3  4  1  0  0  0  0
  4  5  2  0  0  0  0
  5  6  1  0  0  0  0
  1  6  2  0  0  0  0
  1  7  1  0  0  0  0
  8  9  1  0  0  0  0
  6  8  1  0  0  0  0
 10 11  1  0  0  0  0
  2 10  1  0  0  0  0
 12 13  1  0  0  0  0
 13 14  1  0  0  0  0
 14 15  1  0  0  0  0
 15 16  1  0  0  0  0
 16 17  2  0  0  0  0
 17 18  1  0  0  0  0
 18 19  2  0  0  0  0
 19 20  1  0  0  0  0
 15 20  2  0  0  0  0
 12 20  1  0  0  0  0
 21 22  1  0  0  0  0
 19 21  1  0  0  0  0
 23 24  1  0  0  0  0
 24 25  1  0  0  0  0
 25 26  1  0  0  0  0
 17 23  1  0  0  0  0
 27 28  1  0  0  0  0
 14 27  1  6  0  0  0
 13  4  1  1  0  0  0
M  END
>  <cdx:groupId>
190195

>  <cdx:fragmentId>
190134

$$$$
