83857.cdx
  Mrv1902 05222410192D          

 15 16  0  0  0  0            999 V2000
    5.3262   -8.9650    0.0000 C   0  0  0  0  0  0  0  0  0  0  0  0
    5.3262   -9.7900    0.0000 C   0  0  0  0  0  0  0  0  0  0  0  0
    6.0406  -10.2025    0.0000 C   0  0  0  0  0  0  0  0  0  0  0  0
    6.7551   -9.7900    0.0000 C   0  0  0  0  0  0  0  0  0  0  0  0
    6.7551   -8.9650    0.0000 C   0  0  1  0  0  0  0  0  0  0  0  0
    6.0406   -8.5525    0.0000 C   0  0  0  0  0  0  0  0  0  0  0  0
    7.5397  -10.0449    0.0000 C   0  0  0  0  0  0  0  0  0  0  0  0
    8.0247   -9.3775    0.0000 O   0  0  0  0  0  0  0  0  0  0  0  0
    7.5397   -8.7101    0.0000 C   0  0  1  0  0  0  0  0  0  0  0  0
    7.7947  -10.8296    0.0000 O   0  0  0  0  0  0  0  0  0  0  0  0
    7.7947   -7.9254    0.0000 C   0  0  0  0  0  0  0  0  0  0  0  0
    8.5916   -7.7119    0.0000 C   0  0  0  0  0  0  0  0  0  0  0  0
    8.8051   -6.9150    0.0000 C   0  0  0  0  0  0  0  0  0  0  0  0
    9.6020   -6.7015    0.0000 C   0  0  0  0  0  0  0  0  0  0  0  0
    6.8414   -8.1445    0.0000 H   0  0  0  0  0  0  0  0  0  0  0  0
  1  2  1  0  0  0  0
  2  3  1  0  0  0  0
  3  4  2  0  0  0  0
  4  5  1  0  0  0  0
  5  6  1  0  0  0  0
  6  1  1  0  0  0  0
  4  7  1  0  0  0  0
  7  8  1  0  0  0  0
  8  9  1  0  0  0  0
  9  5  1  0  0  0  0
  7 10  2  0  0  0  0
  9 11  1  6  0  0  0
 11 12  1  0  0  0  0
 12 13  1  0  0  0  0
 13 14  1  0  0  0  0
  5 15  1  6  0  0  0
M  END
>  <cdx:fragmentId>
5

$$$$
