9838995.cdx
  Mrv1902 05222410182D          

 21 23  0  0  0  0            999 V2000
    8.4189  -13.8233    0.0000 O   0  0  0  0  0  0  0  0  0  0  0  0
    8.4189  -12.9983    0.0000 C   0  0  0  0  0  0  0  0  0  0  0  0
    7.7045  -12.5858    0.0000 C   0  0  0  0  0  0  0  0  0  0  0  0
    6.9900  -12.9983    0.0000 C   0  0  0  0  0  0  0  0  0  0  0  0
    6.2755  -12.5858    0.0000 C   0  0  0  0  0  0  0  0  0  0  0  0
    5.5611  -12.9983    0.0000 C   0  0  0  0  0  0  0  0  0  0  0  0
    5.5611  -13.8233    0.0000 C   0  0  0  0  0  0  0  0  0  0  0  0
    6.2755  -14.2358    0.0000 C   0  0  0  0  0  0  0  0  0  0  0  0
    6.9900  -13.8233    0.0000 C   0  0  0  0  0  0  0  0  0  0  0  0
    7.7045  -14.2358    0.0000 C   0  0  0  0  0  0  0  0  0  0  0  0
    7.8760  -11.7788    0.0000 C   0  0  0  0  0  0  0  0  0  0  0  0
    8.6965  -11.6926    0.0000 C   0  0  0  0  0  0  0  0  0  0  0  0
    9.0320  -12.4462    0.0000 C   0  0  0  0  0  0  0  0  0  0  0  0
    7.3240  -11.1657    0.0000 C   0  0  0  0  0  0  0  0  0  0  0  0
    7.5789  -10.3811    0.0000 O   0  0  0  0  0  0  0  0  0  0  0  0
    6.5170  -11.3372    0.0000 O   0  0  0  0  0  0  0  0  0  0  0  0
    7.7045  -15.0608    0.0000 O   0  0  0  0  0  0  0  0  0  0  0  0
    9.8390  -12.6178    0.0000 O   0  0  0  0  0  0  0  0  0  0  0  0
    6.2755  -11.7608    0.0000 O   0  0  0  0  0  0  0  0  0  0  0  0
    4.8466  -12.5858    0.0000 O   0  0  0  0  0  0  0  0  0  0  0  0
    4.8466  -14.2358    0.0000 O   0  0  0  0  0  0  0  0  0  0  0  0
  1  2  1  0  0  0  0
  2  3  2  0  0  0  0
  3  4  1  0  0  0  0
  4  5  1  0  0  0  0
  5  6  2  0  0  0  0
  6  7  1  0  0  0  0
  7  8  2  0  0  0  0
  8  9  1  0  0  0  0
  4  9  2  0  0  0  0
  9 10  1  0  0  0  0
  1 10  1  0  0  0  0
 11 12  1  0  0  0  0
 12 13  1  0  0  0  0
 13  2  1  0  0  0  0
 11  3  1  0  0  0  0
 14 15  2  0  0  0  0
 14 16  1  0  0  0  0
 11 14  1  0  0  0  0
 10 17  2  0  0  0  0
 13 18  2  0  0  0  0
  5 19  1  0  0  0  0
  6 20  1  0  0  0  0
  7 21  1  0  0  0  0
M  END
>  <cdx:groupId>
29660

>  <cdx:fragmentId>
29598

$$$$
