3083907.cdx
  Mrv1902 05222410272D          

 31 36  0  0  0  0            999 V2000
   15.3940   -8.6640    0.0000 C   0  0  1  0  0  0  0  0  0  0  0  0
   15.2829   -9.4817    0.0000 C   0  0  0  0  0  0  0  0  0  0  0  0
   15.7700  -10.1475    0.0000 C   0  0  0  0  0  0  0  0  0  0  0  0
   16.5827  -10.2899    0.0000 N   0  0  0  0  0  0  0  0  0  0  0  0
   17.2671   -9.8293    0.0000 C   0  0  0  0  0  0  0  0  0  0  0  0
   17.4413   -9.0229    0.0000 C   0  0  0  0  0  0  0  0  0  0  0  0
   17.9846   -8.4017    0.0000 C   0  0  0  0  0  0  0  0  0  0  0  0
   17.9738   -7.5768    0.0000 C   0  0  0  0  0  0  0  0  0  0  0  0
   17.4142   -6.9706    0.0000 O   0  0  0  0  0  0  0  0  0  0  0  0
   16.5927   -6.8941    0.0000 C   0  0  1  0  0  0  0  0  0  0  0  0
   15.9725   -6.3501    0.0000 C   0  0  0  0  0  0  0  0  0  0  0  0
   15.1846   -6.5948    0.0000 C   0  0  0  0  0  0  0  0  0  0  0  0
   14.9815   -7.3944    0.0000 N   0  0  0  0  0  0  0  0  0  0  0  0
   14.3140   -7.8793    0.0000 C   0  0  0  0  0  0  0  0  0  0  0  0
   13.5071   -7.7078    0.0000 C   0  0  0  0  0  0  0  0  0  0  0  0
   12.9550   -8.3209    0.0000 C   0  0  0  0  0  0  0  0  0  0  0  0
   13.2100   -9.1055    0.0000 C   0  0  0  0  0  0  0  0  0  0  0  0
   14.0170   -9.2770    0.0000 C   0  0  0  0  0  0  0  0  0  0  0  0
   14.5690   -8.6640    0.0000 C   0  0  0  0  0  0  0  0  0  0  0  0
   15.9460   -9.2770    0.0000 C   0  0  0  0  0  0  0  0  0  0  0  0
   16.7530   -9.1055    0.0000 C   0  0  0  0  0  0  0  0  0  0  0  0
   17.0079   -8.3209    0.0000 C   0  0  2  0  0  0  0  0  0  0  0  0
   16.4559   -7.7078    0.0000 C   0  0  2  0  0  0  0  0  0  0  0  0
   15.6489   -7.8793    0.0000 C   0  0  1  0  0  0  0  0  0  0  0  0
   14.5861   -6.0269    0.0000 O   0  0  0  0  0  0  0  0  0  0  0  0
   15.9834  -10.3489    0.0000 O   0  0  0  0  0  0  0  0  0  0  0  0
   16.7542  -11.0969    0.0000 C   0  0  0  0  0  0  0  0  0  0  0  0
   16.9189   -6.1363    0.0000 H   0  0  0  0  0  0  0  0  0  0  0  0
   17.5031   -7.9499    0.0000 H   0  0  0  0  0  0  0  0  0  0  0  0
   16.4559   -8.5328    0.0000 H   0  0  0  0  0  0  0  0  0  0  0  0
   15.6489   -7.0543    0.0000 H   0  0  0  0  0  0  0  0  0  0  0  0
  1  2  1  6  0  0  0
  2  3  1  0  0  0  0
  3  4  1  0  0  0  0
  4  5  1  0  0  0  0
  5  6  1  0  0  0  0
  6  7  2  0  0  0  0
  7  8  1  0  0  0  0
  8  9  1  0  0  0  0
  9 10  1  0  0  0  0
 10 11  1  0  0  0  0
 11 12  1  0  0  0  0
 12 13  1  0  0  0  0
 13 14  1  0  0  0  0
 14 15  2  0  0  0  0
 15 16  1  0  0  0  0
 16 17  2  0  0  0  0
 17 18  1  0  0  0  0
 18 19  2  0  0  0  0
 20 21  1  0  0  0  0
 22 21  1  1  0  0  0
 22 23  1  0  0  0  0
 23 24  1  0  0  0  0
  1 19  1  0  0  0  0
  1 20  1  0  0  0  0
 24 13  1  0  0  0  0
 10 23  1  0  0  0  0
  6 22  1  0  0  0  0
 14 19  1  0  0  0  0
  1 24  1  0  0  0  0
 12 25  2  0  0  0  0
 20 26  2  0  0  0  0
  4 27  1  0  0  0  0
 10 28  1  1  0  0  0
 22 29  1  0  0  0  0
 23 30  1  1  0  0  0
 24 31  1  6  0  0  0
M  END
>  <cdx:groupId>
3131

>  <cdx:fragmentId>
3036

$$$$
