839485.cdx
  Mrv1902 05222410182D          

 15 15  0  0  0  0            999 V2000
    6.7500   -5.6514    0.0000 C   0  0  0  0  0  0  0  0  0  0  0  0
    7.4645   -6.0639    0.0000 C   0  0  0  0  0  0  0  0  0  0  0  0
    8.1789   -5.6514    0.0000 C   0  0  0  0  0  0  0  0  0  0  0  0
    8.8934   -6.0639    0.0000 C   0  0  0  0  0  0  0  0  0  0  0  0
    8.8934   -6.8889    0.0000 C   0  0  0  0  0  0  0  0  0  0  0  0
    8.1789   -7.3014    0.0000 C   0  0  0  0  0  0  0  0  0  0  0  0
    7.4645   -6.8889    0.0000 C   0  0  0  0  0  0  0  0  0  0  0  0
    6.7500   -7.3014    0.0000 C   0  0  2  0  0  0  0  0  0  0  0  0
    6.0355   -6.8889    0.0000 C   0  0  0  0  0  0  0  0  0  0  0  0
    6.0355   -6.0639    0.0000 C   0  0  0  0  0  0  0  0  0  0  0  0
    7.4645   -8.5389    0.0000 C   0  0  0  0  0  0  0  0  0  0  0  0
    6.7500   -8.1264    0.0000 C   0  0  0  0  0  0  0  0  0  0  0  0
    6.0355   -8.5389    0.0000 C   0  0  0  0  0  0  0  0  0  0  0  0
    9.6079   -7.3014    0.0000 C   0  0  0  0  0  0  0  0  0  0  0  0
    6.7500   -4.8264    0.0000 C   0  0  0  0  0  0  0  0  0  0  0  0
  1  2  2  0  0  0  0
  2  3  1  0  0  0  0
  3  4  1  0  0  0  0
  4  5  1  0  0  0  0
  5  6  2  0  0  0  0
  6  7  1  0  0  0  0
  7  8  1  0  0  0  0
  8  9  1  0  0  0  0
  9 10  1  0  0  0  0
  1 10  1  0  0  0  0
 11 12  2  0  0  0  0
 12 13  1  0  0  0  0
  8 12  1  1  0  0  0
  5 14  1  0  0  0  0
  1 15  1  0  0  0  0
M  END
>  <cdx:fragmentId>
126592

$$$$
