83983.cdx
  Mrv1902 05222410222D          

 25 28  0  0  0  0            999 V2000
    7.4236   -8.4452    0.0000 C   0  0  0  0  0  0  0  0  0  0  0  0
    8.1380   -8.0327    0.0000 N   0  3  0  0  0  0  0  0  0  0  0  0
    8.1380   -7.2077    0.0000 C   0  0  0  0  0  0  0  0  0  0  0  0
    7.4236   -6.7952    0.0000 C   0  0  0  0  0  0  0  0  0  0  0  0
    6.7091   -7.2077    0.0000 C   0  0  0  0  0  0  0  0  0  0  0  0
    5.9946   -6.7952    0.0000 C   0  0  0  0  0  0  0  0  0  0  0  0
    5.2802   -7.2077    0.0000 C   0  0  0  0  0  0  0  0  0  0  0  0
    5.2802   -8.0327    0.0000 C   0  0  0  0  0  0  0  0  0  0  0  0
    5.9946   -8.4452    0.0000 C   0  0  0  0  0  0  0  0  0  0  0  0
    6.7091   -8.0327    0.0000 C   0  0  0  0  0  0  0  0  0  0  0  0
    8.8525   -8.4452    0.0000 C   0  0  0  0  0  0  0  0  0  0  0  0
    9.5670   -8.0327    0.0000 C   0  0  0  0  0  0  0  0  0  0  0  0
    9.5670   -7.2077    0.0000 C   0  0  0  0  0  0  0  0  0  0  0  0
   10.2815   -6.7952    0.0000 C   0  0  0  0  0  0  0  0  0  0  0  0
   10.2815   -5.9702    0.0000 C   0  0  0  0  0  0  0  0  0  0  0  0
    9.5670   -5.5577    0.0000 C   0  0  0  0  0  0  0  0  0  0  0  0
    8.8525   -5.9702    0.0000 C   0  0  0  0  0  0  0  0  0  0  0  0
    8.8525   -6.7952    0.0000 C   0  0  0  0  0  0  0  0  0  0  0  0
    4.5657   -8.4452    0.0000 O   0  0  0  0  0  0  0  0  0  0  0  0
    5.9946   -9.2702    0.0000 O   0  0  0  0  0  0  0  0  0  0  0  0
    5.2802   -9.6827    0.0000 C   0  0  0  0  0  0  0  0  0  0  0  0
   10.9959   -5.5577    0.0000 O   0  0  0  0  0  0  0  0  0  0  0  0
   11.7104   -5.9702    0.0000 C   0  0  0  0  0  0  0  0  0  0  0  0
    9.5670   -4.7327    0.0000 O   0  0  0  0  0  0  0  0  0  0  0  0
   10.2815   -4.3202    0.0000 C   0  0  0  0  0  0  0  0  0  0  0  0
  1  2  1  0  0  0  0
  2  3  2  0  0  0  0
  3  4  1  0  0  0  0
  4  5  2  0  0  0  0
  5  6  1  0  0  0  0
  6  7  2  0  0  0  0
  7  8  1  0  0  0  0
  8  9  2  0  0  0  0
  9 10  1  0  0  0  0
  1 10  2  0  0  0  0
  5 10  1  0  0  0  0
 11 12  1  0  0  0  0
 12 13  1  0  0  0  0
 13 14  1  0  0  0  0
 14 15  2  0  0  0  0
 15 16  1  0  0  0  0
 16 17  2  0  0  0  0
 17 18  1  0  0  0  0
 13 18  2  0  0  0  0
 11  2  1  0  0  0  0
 18  3  1  0  0  0  0
  8 19  1  0  0  0  0
 20 21  1  0  0  0  0
  9 20  1  0  0  0  0
 22 23  1  0  0  0  0
 15 22  1  0  0  0  0
 24 25  1  0  0  0  0
 16 24  1  0  0  0  0
M  CHG  1   2   1
M  END
>  <cdx:fragmentId>
3146

$$$$
