8403.cdx
  Mrv1902 05222410202D          

 14 15  0  0  0  0            999 V2000
    3.4609   -4.3035    0.0000 C   0  0  0  0  0  0  0  0  0  0  0  0
    3.4609   -3.4785    0.0000 O   0  0  0  0  0  0  0  0  0  0  0  0
    2.7464   -4.7160    0.0000 C   0  0  0  0  0  0  0  0  0  0  0  0
    2.7464   -5.5410    0.0000 C   0  0  0  0  0  0  0  0  0  0  0  0
    2.0319   -5.9535    0.0000 C   0  0  0  0  0  0  0  0  0  0  0  0
    1.3175   -5.5410    0.0000 C   0  0  0  0  0  0  0  0  0  0  0  0
    1.3175   -4.7160    0.0000 C   0  0  0  0  0  0  0  0  0  0  0  0
    2.0319   -4.3035    0.0000 C   0  0  0  0  0  0  0  0  0  0  0  0
    4.1753   -4.7160    0.0000 C   0  0  0  0  0  0  0  0  0  0  0  0
    4.8898   -4.3035    0.0000 C   0  0  0  0  0  0  0  0  0  0  0  0
    5.6043   -4.7160    0.0000 C   0  0  0  0  0  0  0  0  0  0  0  0
    5.6043   -5.5410    0.0000 C   0  0  0  0  0  0  0  0  0  0  0  0
    4.8898   -5.9535    0.0000 C   0  0  0  0  0  0  0  0  0  0  0  0
    4.1753   -5.5410    0.0000 C   0  0  0  0  0  0  0  0  0  0  0  0
  1  2  2  0  0  0  0
  3  4  1  0  0  0  0
  4  5  1  0  0  0  0
  5  6  1  0  0  0  0
  6  7  1  0  0  0  0
  7  8  1  0  0  0  0
  3  8  1  0  0  0  0
  1  3  1  0  0  0  0
  9 10  1  0  0  0  0
 10 11  1  0  0  0  0
 11 12  1  0  0  0  0
 12 13  1  0  0  0  0
 13 14  1  0  0  0  0
  9 14  1  0  0  0  0
  1  9  1  0  0  0  0
M  END
>  <cdx:groupId>
45

>  <cdx:fragmentId>
9

$$$$
