8405.cdx
  Mrv1902 05222410222D          

 40 42  0  0  0  0            999 V2000
    6.6445  -10.1269    0.0000 C   0  0  0  0  0  0  0  0  0  0  0  0
    6.6445  -10.9519    0.0000 C   0  0  0  0  0  0  0  0  0  0  0  0
    7.3590  -11.3644    0.0000 C   0  0  0  0  0  0  0  0  0  0  0  0
    8.0735  -10.9519    0.0000 C   0  0  0  0  0  0  0  0  0  0  0  0
    8.0735  -10.1269    0.0000 C   0  0  0  0  0  0  0  0  0  0  0  0
    7.3590   -9.7144    0.0000 C   0  0  0  0  0  0  0  0  0  0  0  0
    7.3590  -12.1894    0.0000 O   0  0  0  0  0  0  0  0  0  0  0  0
    8.7879  -11.3644    0.0000 O   0  0  0  0  0  0  0  0  0  0  0  0
    5.9301  -11.3644    0.0000 O   0  0  0  0  0  0  0  0  0  0  0  0
    9.5024  -10.9519    0.0000 C   0  0  0  0  0  0  0  0  0  0  0  0
    5.2156  -10.9519    0.0000 C   0  0  0  0  0  0  0  0  0  0  0  0
    7.3590   -8.8894    0.0000 C   0  0  0  0  0  0  0  0  0  0  0  0
    8.0735   -8.4769    0.0000 C   0  0  0  0  0  0  0  0  0  0  0  0
    8.0735   -7.6519    0.0000 C   0  0  0  0  0  0  0  0  0  0  0  0
    7.3590   -7.2394    0.0000 O   0  0  0  0  0  0  0  0  0  0  0  0
    8.7879   -7.2394    0.0000 O   0  0  0  0  0  0  0  0  0  0  0  0
    8.7879   -6.4144    0.0000 C   0  0  2  0  0  0  0  0  0  0  0  0
    9.5024   -6.0019    0.0000 C   0  0  1  0  0  0  0  0  0  0  0  0
    9.5024   -5.1769    0.0000 C   0  0  0  0  0  0  0  0  0  0  0  0
    8.7879   -4.7644    0.0000 C   0  0  1  0  0  0  0  0  0  0  0  0
    8.0735   -5.1769    0.0000 C   0  0  0  0  0  0  0  0  0  0  0  0
    8.0735   -6.0019    0.0000 C   0  0  1  0  0  0  0  0  0  0  0  0
   10.2169   -6.4144    0.0000 O   0  0  0  0  0  0  0  0  0  0  0  0
    7.3590   -6.4144    0.0000 O   0  0  0  0  0  0  0  0  0  0  0  0
    8.3754   -4.0499    0.0000 O   0  0  0  0  0  0  0  0  0  0  0  0
    9.2004   -4.0499    0.0000 C   0  0  0  0  0  0  0  0  0  0  0  0
   10.0254   -4.0499    0.0000 O   0  0  0  0  0  0  0  0  0  0  0  0
    8.7879   -3.3354    0.0000 O   0  0  0  0  0  0  0  0  0  0  0  0
    6.6445   -6.0019    0.0000 C   0  0  0  0  0  0  0  0  0  0  0  0
    6.6445   -5.1769    0.0000 O   0  0  0  0  0  0  0  0  0  0  0  0
    5.9301   -6.4144    0.0000 C   0  0  0  0  0  0  0  0  0  0  0  0
    5.2156   -6.0019    0.0000 C   0  0  0  0  0  0  0  0  0  0  0  0
    4.5011   -6.4144    0.0000 C   0  0  0  0  0  0  0  0  0  0  0  0
    3.7866   -6.0019    0.0000 C   0  0  0  0  0  0  0  0  0  0  0  0
    3.0722   -6.4144    0.0000 C   0  0  0  0  0  0  0  0  0  0  0  0
    3.0722   -7.2394    0.0000 C   0  0  0  0  0  0  0  0  0  0  0  0
    3.7866   -7.6519    0.0000 C   0  0  0  0  0  0  0  0  0  0  0  0
    4.5011   -7.2394    0.0000 C   0  0  0  0  0  0  0  0  0  0  0  0
    2.3577   -6.0019    0.0000 O   0  0  0  0  0  0  0  0  0  0  0  0
    2.3577   -7.6519    0.0000 O   0  0  0  0  0  0  0  0  0  0  0  0
  1  2  2  0  0  0  0
  2  3  1  0  0  0  0
  3  4  2  0  0  0  0
  4  5  1  0  0  0  0
  5  6  2  0  0  0  0
  6  1  1  0  0  0  0
  3  7  1  0  0  0  0
  4  8  1  0  0  0  0
  2  9  1  0  0  0  0
  8 10  1  0  0  0  0
  9 11  1  0  0  0  0
  6 12  1  0  0  0  0
 12 13  2  0  0  0  0
 13 14  1  0  0  0  0
 14 15  2  0  0  0  0
 14 16  1  0  0  0  0
 17 16  1  1  0  0  0
 17 18  1  0  0  0  0
 18 19  1  0  0  0  0
 19 20  1  0  0  0  0
 20 21  1  0  0  0  0
 21 22  1  0  0  0  0
 22 17  1  0  0  0  0
 18 23  1  1  0  0  0
 22 24  1  6  0  0  0
 20 25  1  1  0  0  0
 20 26  1  0  0  0  0
 26 27  1  0  0  0  0
 26 28  2  0  0  0  0
 24 29  1  0  0  0  0
 29 30  2  0  0  0  0
 29 31  1  0  0  0  0
 31 32  2  0  0  0  0
 32 33  1  0  0  0  0
 33 34  2  0  0  0  0
 34 35  1  0  0  0  0
 35 36  2  0  0  0  0
 36 37  1  0  0  0  0
 37 38  2  0  0  0  0
 38 33  1  0  0  0  0
 35 39  1  0  0  0  0
 36 40  1  0  0  0  0
M  END
>  <cdx:fragmentId>
5

$$$$
