840571.cdx
  Mrv1902 05222410272D          

 20 22  0  0  0  0            999 V2000
    8.1269   -5.7113    0.0000 C   0  0  0  0  0  0  0  0  0  0  0  0
    8.1269   -6.5363    0.0000 C   0  0  0  0  0  0  0  0  0  0  0  0
    7.4125   -6.9488    0.0000 C   0  0  0  0  0  0  0  0  0  0  0  0
    6.6980   -6.5363    0.0000 C   0  0  0  0  0  0  0  0  0  0  0  0
    5.9835   -6.9488    0.0000 C   0  0  0  0  0  0  0  0  0  0  0  0
    5.2690   -6.5363    0.0000 C   0  0  0  0  0  0  0  0  0  0  0  0
    5.2690   -5.7113    0.0000 C   0  0  0  0  0  0  0  0  0  0  0  0
    5.9835   -5.2988    0.0000 C   0  0  0  0  0  0  0  0  0  0  0  0
    6.6980   -5.7113    0.0000 C   0  0  0  0  0  0  0  0  0  0  0  0
    7.4125   -5.2988    0.0000 O   0  0  0  0  0  0  0  0  0  0  0  0
    7.4125   -7.7738    0.0000 O   0  0  0  0  0  0  0  0  0  0  0  0
    8.8414   -5.2988    0.0000 C   0  0  0  0  0  0  0  0  0  0  0  0
    8.8414   -4.4738    0.0000 C   0  0  0  0  0  0  0  0  0  0  0  0
    9.5559   -4.0613    0.0000 C   0  0  0  0  0  0  0  0  0  0  0  0
   10.2703   -4.4738    0.0000 C   0  0  0  0  0  0  0  0  0  0  0  0
   10.2703   -5.2988    0.0000 C   0  0  0  0  0  0  0  0  0  0  0  0
    9.5559   -5.7113    0.0000 C   0  0  0  0  0  0  0  0  0  0  0  0
    4.5546   -6.9488    0.0000 O   0  0  0  0  0  0  0  0  0  0  0  0
    5.9835   -7.7738    0.0000 O   0  0  0  0  0  0  0  0  0  0  0  0
    8.8414   -6.9488    0.0000 O   0  0  0  0  0  0  0  0  0  0  0  0
  1  2  2  0  0  0  0
  2  3  1  0  0  0  0
  3  4  1  0  0  0  0
  4  5  1  0  0  0  0
  5  6  2  0  0  0  0
  6  7  1  0  0  0  0
  7  8  2  0  0  0  0
  8  9  1  0  0  0  0
  4  9  2  0  0  0  0
  9 10  1  0  0  0  0
  1 10  1  0  0  0  0
  3 11  2  0  0  0  0
 12 13  1  0  0  0  0
 13 14  2  0  0  0  0
 14 15  1  0  0  0  0
 15 16  2  0  0  0  0
 16 17  1  0  0  0  0
 12 17  2  0  0  0  0
  1 12  1  0  0  0  0
  6 18  1  0  0  0  0
  5 19  1  0  0  0  0
  2 20  1  0  0  0  0
M  END
>  <cdx:fragmentId>
38539

$$$$
