9840805.cdx
  Mrv1902 05222410182D          

 25 26  0  0  0  0            999 V2000
    8.9026  -12.9604    0.0000 C   0  0  0  0  0  0  0  0  0  0  0  0
    8.1881  -12.5479    0.0000 C   0  0  0  0  0  0  0  0  0  0  0  0
    7.4736  -12.9604    0.0000 C   0  0  0  0  0  0  0  0  0  0  0  0
    8.9026  -13.7854    0.0000 O   0  0  0  0  0  0  0  0  0  0  0  0
    9.6170  -12.5479    0.0000 C   0  0  0  0  0  0  0  0  0  0  0  0
    9.6170  -11.7229    0.0000 C   0  0  0  0  0  0  0  0  0  0  0  0
   10.3315  -11.3104    0.0000 C   0  0  0  0  0  0  0  0  0  0  0  0
   11.0460  -11.7229    0.0000 C   0  0  0  0  0  0  0  0  0  0  0  0
   11.0460  -12.5479    0.0000 C   0  0  0  0  0  0  0  0  0  0  0  0
   10.3315  -12.9604    0.0000 C   0  0  0  0  0  0  0  0  0  0  0  0
   11.7605  -11.3104    0.0000 O   0  0  0  0  0  0  0  0  0  0  0  0
    6.7592  -12.5479    0.0000 C   0  0  0  0  0  0  0  0  0  0  0  0
    6.0447  -12.9604    0.0000 C   0  0  0  0  0  0  0  0  0  0  0  0
    5.3302  -12.5479    0.0000 C   0  0  0  0  0  0  0  0  0  0  0  0
    5.3302  -11.7229    0.0000 C   0  0  0  0  0  0  0  0  0  0  0  0
    6.0447  -11.3104    0.0000 C   0  0  0  0  0  0  0  0  0  0  0  0
    6.7592  -11.7229    0.0000 C   0  0  0  0  0  0  0  0  0  0  0  0
    4.6158  -12.9604    0.0000 C   0  0  0  0  0  0  0  0  0  0  0  0
    3.9013  -12.5479    0.0000 C   0  0  0  0  0  0  0  0  0  0  0  0
    3.1868  -12.9604    0.0000 C   0  0  0  0  0  0  0  0  0  0  0  0
    3.1868  -13.7854    0.0000 C   0  0  0  0  0  0  0  0  0  0  0  0
    2.4723  -12.5479    0.0000 C   0  0  0  0  0  0  0  0  0  0  0  0
    6.0447  -13.7854    0.0000 O   0  0  0  0  0  0  0  0  0  0  0  0
    5.3302  -14.1979    0.0000 C   0  0  0  0  0  0  0  0  0  0  0  0
    4.6158  -11.3104    0.0000 O   0  0  0  0  0  0  0  0  0  0  0  0
  1  2  1  0  0  0  0
  2  3  2  0  0  0  0
  1  4  2  0  0  0  0
  5  6  1  0  0  0  0
  6  7  2  0  0  0  0
  7  8  1  0  0  0  0
  8  9  2  0  0  0  0
  9 10  1  0  0  0  0
  5 10  2  0  0  0  0
  8 11  1  0  0  0  0
  1  5  1  0  0  0  0
 12 13  1  0  0  0  0
 13 14  2  0  0  0  0
 14 15  1  0  0  0  0
 15 16  2  0  0  0  0
 16 17  1  0  0  0  0
 12 17  2  0  0  0  0
 18 19  1  0  0  0  0
 19 20  2  0  0  0  0
 20 21  1  0  0  0  0
 20 22  1  0  0  0  0
 14 18  1  0  0  0  0
 23 24  1  0  0  0  0
 13 23  1  0  0  0  0
 15 25  1  0  0  0  0
  3 12  1  0  0  0  0
M  END
>  <cdx:fragmentId>
29693

$$$$
