840940.cdx
  Mrv1902 05222410272D          

 49 55  0  0  0  0            999 V2000
    9.4605   -7.2278    0.0000 C   0  0  2  0  0  0  0  0  0  0  0  0
    8.8177   -7.7449    0.0000 C   0  0  1  0  0  0  0  0  0  0  0  0
    8.1032   -7.3324    0.0000 C   0  0  0  0  0  0  0  0  0  0  0  0
    7.3888   -7.7449    0.0000 C   0  0  0  0  0  0  0  0  0  0  0  0
    7.3888   -8.5699    0.0000 C   0  0  1  0  0  0  0  0  0  0  0  0
    8.1032   -8.9824    0.0000 C   0  0  2  0  0  0  0  0  0  0  0  0
    8.8177   -8.5699    0.0000 C   0  0  2  0  0  0  0  0  0  0  0  0
    9.5453   -8.9588    0.0000 C   0  0  0  0  0  0  0  0  0  0  0  0
   10.2313   -8.5005    0.0000 C   0  0  0  0  0  0  0  0  0  0  0  0
   10.1510   -7.6794    0.0000 C   0  0  1  0  0  0  0  0  0  0  0  0
   10.7938   -7.1623    0.0000 C   0  0  0  0  0  0  0  0  0  0  0  0
   10.5007   -6.3912    0.0000 O   0  0  0  0  0  0  0  0  0  0  0  0
    9.6767   -6.4317    0.0000 C   0  0  1  0  0  0  0  0  0  0  0  0
    9.0952   -5.8464    0.0000 C   0  0  0  0  0  0  0  0  0  0  0  0
    8.2976   -6.0573    0.0000 C   0  0  0  0  0  0  0  0  0  0  0  0
    8.0815   -6.8535    0.0000 O   0  0  0  0  0  0  0  0  0  0  0  0
    8.6630   -7.4388    0.0000 C   0  0  0  0  0  0  0  0  0  0  0  0
    7.6907   -9.6969    0.0000 O   0  0  0  0  0  0  0  0  0  0  0  0
    8.5157   -9.6969    0.0000 C   0  0  2  0  0  0  0  0  0  0  0  0
    9.4445  -10.2331    0.0000 C   0  0  0  0  0  0  0  0  0  0  0  0
    9.4445  -11.0581    0.0000 O   0  0  0  0  0  0  0  0  0  0  0  0
   10.1590   -9.8206    0.0000 O   0  0  0  0  0  0  0  0  0  0  0  0
    7.7162   -5.4720    0.0000 O   0  0  0  0  0  0  0  0  0  0  0  0
    9.5453   -9.7838    0.0000 O   0  0  0  0  0  0  0  0  0  0  0  0
   11.5914   -6.9514    0.0000 C   0  0  0  0  0  0  0  0  0  0  0  0
   11.3753   -7.7476    0.0000 C   0  0  0  0  0  0  0  0  0  0  0  0
    8.8177   -9.3949    0.0000 C   0  0  0  0  0  0  0  0  0  0  0  0
    7.3888   -9.3949    0.0000 C   0  0  0  0  0  0  0  0  0  0  0  0
    6.6743   -8.9824    0.0000 C   0  0  2  0  0  0  0  0  0  0  0  0
    7.0868  -11.0770    0.0000 O   0  0  0  0  0  0  0  0  0  0  0  0
    7.3417  -10.2923    0.0000 C   0  0  0  0  0  0  0  0  0  0  0  0
    6.6743   -9.8074    0.0000 C   0  0  0  0  0  0  0  0  0  0  0  0
    6.0069  -10.2923    0.0000 C   0  0  0  0  0  0  0  0  0  0  0  0
    6.2618  -11.0770    0.0000 C   0  0  0  0  0  0  0  0  0  0  0  0
    9.5618   -8.1013    0.0000 H   0  0  0  0  0  0  0  0  0  0  0  0
   10.9115   -7.9991    0.0000 H   0  0  0  0  0  0  0  0  0  0  0  0
    9.9748   -5.6624    0.0000 H   0  0  0  0  0  0  0  0  0  0  0  0
    5.1330   -9.9978    0.0000 O   0  0  0  0  0  0  0  0  0  0  0  0
    3.4830   -9.9957    0.0000 O   0  0  0  0  0  0  0  0  0  0  0  0
    2.6598   -8.5657    0.0000 O   0  0  0  0  0  0  0  0  0  0  0  0
    2.6617   -7.1367    0.0000 O   0  0  0  0  0  0  0  0  0  0  0  0
    3.4867   -7.1378    0.0000 C   0  0  0  0  0  0  0  0  0  0  0  0
    3.8982   -7.8528    0.0000 C   0  0  2  0  0  0  0  0  0  0  0  0
    3.4848   -8.5667    0.0000 C   0  0  2  0  0  0  0  0  0  0  0  0
    3.8964   -9.2817    0.0000 C   0  0  1  0  0  0  0  0  0  0  0  0
    4.7214   -9.2828    0.0000 C   0  0  2  0  0  0  0  0  0  0  0  0
    5.1348   -8.5689    0.0000 C   0  0  1  0  0  0  0  0  0  0  0  0
    4.7232   -7.8539    0.0000 O   0  0  0  0  0  0  0  0  0  0  0  0
    5.9598   -8.5699    0.0000 O   0  0  0  0  0  0  0  0  0  0  0  0
 47 49  1  1  0  0  0
 46 38  1  6  0  0  0
 45 39  1  1  0  0  0
 44 40  1  6  0  0  0
 43 42  1  1  0  0  0
 42 41  1  0  0  0  0
 48 43  1  0  0  0  0
 44 43  1  0  0  0  0
 45 44  1  0  0  0  0
 46 45  1  0  0  0  0
 47 46  1  0  0  0  0
 48 47  1  0  0  0  0
  1  2  1  0  0  0  0
  2  3  1  0  0  0  0
  3  4  1  0  0  0  0
  4  5  1  0  0  0  0
  5  6  1  0  0  0  0
  6  7  1  0  0  0  0
  7  8  1  0  0  0  0
  8  9  1  0  0  0  0
  9 10  1  0  0  0  0
 10 11  1  0  0  0  0
 11 12  1  0  0  0  0
 12 13  1  0  0  0  0
 13 14  1  0  0  0  0
 14 15  1  0  0  0  0
 15 16  1  0  0  0  0
 16 17  1  0  0  0  0
  1 17  1  6  0  0  0
  1 10  1  0  0  0  0
  1 13  1  0  0  0  0
  2  7  1  0  0  0  0
 18 19  1  0  0  0  0
  6 18  1  6  0  0  0
 19  6  1  0  0  0  0
 20 21  2  0  0  0  0
 20 22  1  0  0  0  0
 19 20  1  1  0  0  0
 15 23  2  0  0  0  0
  8 24  2  0  0  0  0
 11 25  1  0  0  0  0
 11 26  1  0  0  0  0
  7 27  1  6  0  0  0
  5 28  1  1  0  0  0
 29 49  1  6  0  0  0
 30 31  1  0  0  0  0
 31 32  2  0  0  0  0
 32 33  1  0  0  0  0
 33 34  2  0  0  0  0
 30 34  1  0  0  0  0
 29 32  1  0  0  0  0
  5 29  1  0  0  0  0
  2 35  1  1  0  0  0
 10 36  1  1  0  0  0
 13 37  1  1  0  0  0
M  END
>  <cdx:fragmentId>
5

$$$$
