841119.cdx
  Mrv1902 05222410262D          

 24 26  0  0  0  0            999 V2000
    4.4911   -7.4231    0.0000 O   0  0  0  0  0  0  0  0  0  0  0  0
   10.9430  -10.2619    0.0000 O   0  0  0  0  0  0  0  0  0  0  0  0
    9.5016   -8.6228    0.0000 C   0  0  0  0  0  0  0  0  0  0  0  0
   10.2192   -9.0299    0.0000 C   0  0  0  0  0  0  0  0  0  0  0  0
   10.2254   -9.8548    0.0000 C   0  0  0  0  0  0  0  0  0  0  0  0
    9.5141  -10.2727    0.0000 C   0  0  0  0  0  0  0  0  0  0  0  0
    8.7965   -9.8656    0.0000 C   0  0  0  0  0  0  0  0  0  0  0  0
    8.7903   -9.0407    0.0000 C   0  0  0  0  0  0  0  0  0  0  0  0
    4.4724   -4.9482    0.0000 C   0  0  0  0  0  0  0  0  0  0  0  0
    5.9013   -4.9374    0.0000 C   0  0  0  0  0  0  0  0  0  0  0  0
    5.1900   -5.3553    0.0000 C   0  0  0  0  0  0  0  0  0  0  0  0
    5.1962   -6.1802    0.0000 C   0  0  0  0  0  0  0  0  0  0  0  0
    5.9138   -6.5873    0.0000 C   0  0  0  0  0  0  0  0  0  0  0  0
    7.3676   -9.8764    0.0000 O   0  0  0  0  0  0  0  0  0  0  0  0
    7.3489   -7.4015    0.0000 O   0  0  0  0  0  0  0  0  0  0  0  0
    6.6376   -7.8194    0.0000 C   0  0  0  0  0  0  0  0  0  0  0  0
    5.9200   -7.4123    0.0000 C   0  0  0  0  0  0  0  0  0  0  0  0
    5.2087   -7.8302    0.0000 C   0  0  0  0  0  0  0  0  0  0  0  0
    5.2149   -8.6552    0.0000 C   0  0  0  0  0  0  0  0  0  0  0  0
    5.9325   -9.0623    0.0000 C   0  0  0  0  0  0  0  0  0  0  0  0
    6.6438   -8.6444    0.0000 C   0  0  0  0  0  0  0  0  0  0  0  0
    7.3614   -9.0515    0.0000 C   0  0  0  0  0  0  0  0  0  0  0  0
    8.0727   -8.6336    0.0000 C   0  0  0  0  0  0  0  0  0  0  0  0
    8.0665   -7.8086    0.0000 C   0  0  0  0  0  0  0  0  0  0  0  0
 18  1  1  0  0  0  0
 23  8  1  0  0  0  0
  5  2  1  0  0  0  0
  8  3  2  0  0  0  0
  4  3  1  0  0  0  0
  5  4  2  0  0  0  0
  6  5  1  0  0  0  0
  7  6  2  0  0  0  0
  8  7  1  0  0  0  0
 17 13  1  0  0  0  0
 11  9  1  0  0  0  0
 11 10  1  0  0  0  0
 12 11  2  0  0  0  0
 13 12  1  0  0  0  0
 22 14  2  0  0  0  0
 24 15  1  0  0  0  0
 16 15  1  0  0  0  0
 21 16  2  0  0  0  0
 17 16  1  0  0  0  0
 18 17  2  0  0  0  0
 19 18  1  0  0  0  0
 20 19  2  0  0  0  0
 21 20  1  0  0  0  0
 22 21  1  0  0  0  0
 23 22  1  0  0  0  0
 24 23  2  0  0  0  0
M  END
>  <cdx:groupId>
109745

>  <cdx:fragmentId>
109674

$$$$
