841101.cdx
  Mrv1902 05222410192D          

 49 51  0  0  0  0            999 V2000
    8.0969   -4.4636    0.0000 C   0  0  0  0  0  0  0  0  0  0  0  0
    8.5760   -3.7920    0.0000 C   0  0  0  0  0  0  0  0  0  0  0  0
    9.3972   -3.8711    0.0000 C   0  0  0  0  0  0  0  0  0  0  0  0
    8.4389   -5.2143    0.0000 O   0  0  0  0  0  0  0  0  0  0  0  0
    7.2757   -4.3844    0.0000 O   0  0  0  0  0  0  0  0  0  0  0  0
    9.8764   -3.1995    0.0000 C   0  0  0  0  0  0  0  0  0  0  0  0
    9.5343   -2.4488    0.0000 C   0  0  0  0  0  0  0  0  0  0  0  0
   10.0135   -1.7772    0.0000 C   0  0  0  0  0  0  0  0  0  0  0  0
   10.8347   -1.8563    0.0000 C   0  0  0  0  0  0  0  0  0  0  0  0
   11.1767   -2.6071    0.0000 C   0  0  0  0  0  0  0  0  0  0  0  0
   10.6976   -3.2787    0.0000 C   0  0  0  0  0  0  0  0  0  0  0  0
   11.3138   -1.1847    0.0000 O   0  0  0  0  0  0  0  0  0  0  0  0
    6.3950   -6.3291    0.0000 O   0  0  0  0  0  0  0  0  0  0  0  0
    7.0583   -5.8384    0.0000 C   0  0  1  0  0  0  0  0  0  0  0  0
    6.7966   -5.0560    0.0000 C   0  0  2  0  0  0  0  0  0  0  0  0
    5.9716   -5.0632    0.0000 C   0  0  1  0  0  0  0  0  0  0  0  0
    5.7234   -5.8500    0.0000 C   0  0  1  0  0  0  0  0  0  0  0  0
    4.9410   -6.1117    0.0000 C   0  0  0  0  0  0  0  0  0  0  0  0
    4.3577   -5.5283    0.0000 O   0  0  0  0  0  0  0  0  0  0  0  0
    5.4809   -4.3999    0.0000 O   0  0  0  0  0  0  0  0  0  0  0  0
    7.8720   -5.7024    0.0000 C   0  0  0  0  0  0  0  0  0  0  0  0
    7.6416   -6.4218    0.0000 O   0  0  0  0  0  0  0  0  0  0  0  0
    7.6416   -7.2468    0.0000 C   0  0  1  0  0  0  0  0  0  0  0  0
    6.9272   -7.6593    0.0000 O   0  0  0  0  0  0  0  0  0  0  0  0
    6.9272   -8.4843    0.0000 C   0  0  1  0  0  0  0  0  0  0  0  0
    7.6416   -8.8968    0.0000 C   0  0  2  0  0  0  0  0  0  0  0  0
    8.3561   -8.4843    0.0000 C   0  0  1  0  0  0  0  0  0  0  0  0
    8.3561   -7.6593    0.0000 C   0  0  1  0  0  0  0  0  0  0  0  0
    6.2127   -8.8968    0.0000 C   0  0  0  0  0  0  0  0  0  0  0  0
    9.0706   -8.8968    0.0000 O   0  0  0  0  0  0  0  0  0  0  0  0
    9.0706   -7.2468    0.0000 O   0  0  0  0  0  0  0  0  0  0  0  0
    7.6416   -9.7218    0.0000 O   0  0  0  0  0  0  0  0  0  0  0  0
    8.3967   -6.3390    0.0000 O   0  0  0  0  0  0  0  0  0  0  0  0
    5.8100   -3.6434    0.0000 C   0  0  0  0  0  0  0  0  0  0  0  0
    5.3193   -2.9802    0.0000 O   0  0  0  0  0  0  0  0  0  0  0  0
    6.6297   -3.5501    0.0000 C   0  0  0  0  0  0  0  0  0  0  0  0
    9.0706   -9.7218    0.0000 C   0  0  0  0  0  0  0  0  0  0  0  0
    8.3561  -10.1343    0.0000 O   0  0  0  0  0  0  0  0  0  0  0  0
    9.7850  -10.1343    0.0000 C   0  0  0  0  0  0  0  0  0  0  0  0
    5.4982   -8.4843    0.0000 O   0  0  0  0  0  0  0  0  0  0  0  0
    4.7837   -8.8968    0.0000 C   0  0  0  0  0  0  0  0  0  0  0  0
    4.0693   -8.4843    0.0000 C   0  0  0  0  0  0  0  0  0  0  0  0
    4.7837   -9.7218    0.0000 O   0  0  0  0  0  0  0  0  0  0  0  0
    9.2104   -6.2029    0.0000 C   0  0  0  0  0  0  0  0  0  0  0  0
    9.7351   -6.8395    0.0000 C   0  0  0  0  0  0  0  0  0  0  0  0
    9.4994   -5.4302    0.0000 O   0  0  0  0  0  0  0  0  0  0  0  0
    9.7850   -7.6593    0.0000 C   0  0  0  0  0  0  0  0  0  0  0  0
   10.4995   -7.2468    0.0000 C   0  0  0  0  0  0  0  0  0  0  0  0
    9.7850   -8.4843    0.0000 O   0  0  0  0  0  0  0  0  0  0  0  0
  1  2  1  0  0  0  0
  2  3  2  0  0  0  0
  1  4  2  0  0  0  0
  1  5  1  0  0  0  0
  6  7  1  0  0  0  0
  7  8  2  0  0  0  0
  8  9  1  0  0  0  0
  9 10  2  0  0  0  0
 10 11  1  0  0  0  0
  6 11  2  0  0  0  0
  9 12  1  0  0  0  0
  3  6  1  0  0  0  0
 13 14  1  0  0  0  0
 14 15  1  0  0  0  0
 15 16  1  0  0  0  0
 16 17  1  0  0  0  0
 13 17  1  0  0  0  0
 18 19  1  0  0  0  0
 17 18  1  6  0  0  0
 16 20  1  1  0  0  0
 15  5  1  6  0  0  0
 14 21  1  0  0  0  0
 14 22  1  6  0  0  0
 23 22  1  6  0  0  0
 23 24  1  0  0  0  0
 24 25  1  0  0  0  0
 25 26  1  0  0  0  0
 26 27  1  0  0  0  0
 27 28  1  0  0  0  0
 28 23  1  0  0  0  0
 25 29  1  1  0  0  0
 27 30  1  1  0  0  0
 28 31  1  6  0  0  0
 26 32  1  6  0  0  0
 21 33  1  0  0  0  0
 20 34  1  0  0  0  0
 34 35  2  0  0  0  0
 34 36  1  0  0  0  0
 30 37  1  0  0  0  0
 37 38  2  0  0  0  0
 37 39  1  0  0  0  0
 29 40  1  0  0  0  0
 40 41  1  0  0  0  0
 41 42  1  0  0  0  0
 41 43  2  0  0  0  0
 33 44  1  0  0  0  0
 44 45  1  0  0  0  0
 44 46  2  0  0  0  0
 31 47  1  0  0  0  0
 47 48  1  0  0  0  0
 47 49  2  0  0  0  0
M  END
>  <cdx:fragmentId>
204591

$$$$
