8415.cdx
  Mrv1902 05222410212D          

 24 25  0  0  0  0            999 V2000
    3.7382   -7.1040    0.0000 C   0  0  0  0  0  0  0  0  0  0  0  0
    4.4720   -7.5281    0.0000 C   0  0  2  0  0  0  0  0  0  0  0  0
    4.4720   -8.3531    0.0000 C   0  0  2  0  0  0  0  0  0  0  0  0
    5.1865   -8.7656    0.0000 C   0  0  1  0  0  0  0  0  0  0  0  0
    5.9010   -8.3531    0.0000 C   0  0  2  0  0  0  0  0  0  0  0  0
    5.9010   -7.5281    0.0000 C   0  0  1  0  0  0  0  0  0  0  0  0
    5.1865   -7.1156    0.0000 O   0  0  0  0  0  0  0  0  0  0  0  0
    3.7576   -8.7656    0.0000 O   0  0  0  0  0  0  0  0  0  0  0  0
    5.1865   -9.5906    0.0000 O   0  0  0  0  0  0  0  0  0  0  0  0
    6.6154   -8.7656    0.0000 O   0  0  0  0  0  0  0  0  0  0  0  0
    6.6154   -7.1156    0.0000 O   0  0  0  0  0  0  0  0  0  0  0  0
    3.0235   -7.5162    0.0000 O   0  0  0  0  0  0  0  0  0  0  0  0
    7.3299   -8.3531    0.0000 C   0  0  0  0  0  0  0  0  0  0  0  0
    8.0444   -8.7656    0.0000 C   0  0  0  0  0  0  0  0  0  0  0  0
    7.3299   -7.5281    0.0000 O   0  0  0  0  0  0  0  0  0  0  0  0
    8.7589   -8.3531    0.0000 C   0  0  0  0  0  0  0  0  0  0  0  0
    9.4733   -8.7656    0.0000 C   0  0  0  0  0  0  0  0  0  0  0  0
    9.4733   -9.5906    0.0000 C   0  0  0  0  0  0  0  0  0  0  0  0
   10.1878  -10.0031    0.0000 C   0  0  0  0  0  0  0  0  0  0  0  0
   10.9023   -9.5906    0.0000 C   0  0  0  0  0  0  0  0  0  0  0  0
   10.9023   -8.7656    0.0000 C   0  0  0  0  0  0  0  0  0  0  0  0
   10.1878   -8.3531    0.0000 C   0  0  0  0  0  0  0  0  0  0  0  0
   11.6167  -10.0031    0.0000 O   0  0  0  0  0  0  0  0  0  0  0  0
   11.6167   -8.3531    0.0000 O   0  0  0  0  0  0  0  0  0  0  0  0
  2  3  1  0  0  0  0
  3  4  1  0  0  0  0
  4  5  1  0  0  0  0
  5  6  1  0  0  0  0
  6  7  1  0  0  0  0
  7  2  1  0  0  0  0
  3  8  1  6  0  0  0
  4  9  1  1  0  0  0
  5 10  1  6  0  0  0
  6 11  1  1  0  0  0
  2  1  1  1  0  0  0
  1 12  1  0  0  0  0
 10 13  1  0  0  0  0
 13 14  1  0  0  0  0
 13 15  2  0  0  0  0
 14 16  2  0  0  0  0
 16 17  1  0  0  0  0
 17 18  2  0  0  0  0
 18 19  1  0  0  0  0
 19 20  2  0  0  0  0
 20 21  1  0  0  0  0
 21 22  2  0  0  0  0
 22 17  1  0  0  0  0
 20 23  1  0  0  0  0
 21 24  1  0  0  0  0
M  END
>  <cdx:fragmentId>
98

$$$$
