8417.cdx
  Mrv1902 05222410202D          

 15 16  0  0  0  0            999 V2000
    8.9300   -5.2946    0.0000 C   0  0  0  0  0  0  0  0  0  0  0  0
    8.9300   -6.1196    0.0000 C   0  0  0  0  0  0  0  0  0  0  0  0
    8.2155   -6.5321    0.0000 C   0  0  0  0  0  0  0  0  0  0  0  0
    7.5010   -6.1196    0.0000 C   0  0  0  0  0  0  0  0  0  0  0  0
    6.7866   -6.5321    0.0000 C   0  0  0  0  0  0  0  0  0  0  0  0
    6.0721   -6.1196    0.0000 C   0  0  0  0  0  0  0  0  0  0  0  0
    6.0721   -5.2946    0.0000 C   0  0  0  0  0  0  0  0  0  0  0  0
    6.7866   -4.8821    0.0000 C   0  0  0  0  0  0  0  0  0  0  0  0
    7.5010   -5.2946    0.0000 C   0  0  0  0  0  0  0  0  0  0  0  0
    8.2155   -4.8821    0.0000 O   0  0  0  0  0  0  0  0  0  0  0  0
    9.6445   -4.8821    0.0000 O   0  0  0  0  0  0  0  0  0  0  0  0
    5.3576   -4.8821    0.0000 O   0  0  0  0  0  0  0  0  0  0  0  0
    4.6432   -5.2946    0.0000 C   0  0  0  0  0  0  0  0  0  0  0  0
    5.3576   -6.5321    0.0000 O   0  0  0  0  0  0  0  0  0  0  0  0
    4.6432   -6.1196    0.0000 C   0  0  0  0  0  0  0  0  0  0  0  0
  1  2  1  0  0  0  0
  2  3  2  0  0  0  0
  3  4  1  0  0  0  0
  4  5  1  0  0  0  0
  5  6  2  0  0  0  0
  6  7  1  0  0  0  0
  7  8  2  0  0  0  0
  8  9  1  0  0  0  0
  4  9  2  0  0  0  0
  9 10  1  0  0  0  0
  1 10  1  0  0  0  0
  1 11  2  0  0  0  0
 12 13  1  0  0  0  0
  7 12  1  0  0  0  0
 14 15  1  0  0  0  0
  6 14  1  0  0  0  0
M  END
>  <cdx:groupId>
48

>  <cdx:fragmentId>
5

$$$$
