8418.cdx
  Mrv1902 05222410242D          

 18 18  0  0  0  0            999 V2000
    4.4893   -5.9485    0.0000 C   0  0  0  0  0  0  0  0  0  0  0  0
    3.7718   -6.3557    0.0000 C   0  0  0  0  0  0  0  0  0  0  0  0
    3.7658   -7.1807    0.0000 C   0  0  0  0  0  0  0  0  0  0  0  0
    4.4772   -7.5984    0.0000 C   0  0  0  0  0  0  0  0  0  0  0  0
    5.1947   -7.1912    0.0000 C   0  0  0  0  0  0  0  0  0  0  0  0
    5.2007   -6.3662    0.0000 C   0  0  0  0  0  0  0  0  0  0  0  0
    3.0483   -7.5880    0.0000 O   0  0  0  0  0  0  0  0  0  0  0  0
    3.0604   -5.9380    0.0000 O   0  0  0  0  0  0  0  0  0  0  0  0
    5.9182   -5.9589    0.0000 C   0  0  0  0  0  0  0  0  0  0  0  0
    6.6296   -6.3766    0.0000 C   0  0  0  0  0  0  0  0  0  0  0  0
    7.3471   -5.9694    0.0000 C   0  0  0  0  0  0  0  0  0  0  0  0
    8.0585   -6.3871    0.0000 C   0  0  0  0  0  0  0  0  0  0  0  0
    8.0525   -7.2121    0.0000 O   0  0  0  0  0  0  0  0  0  0  0  0
    8.7760   -5.9798    0.0000 C   0  0  0  0  0  0  0  0  0  0  0  0
    8.7820   -5.1549    0.0000 O   0  0  0  0  0  0  0  0  0  0  0  0
    7.3531   -5.1444    0.0000 O   0  0  0  0  0  0  0  0  0  0  0  0
    9.4874   -6.3976    0.0000 C   0  0  0  0  0  0  0  0  0  0  0  0
   10.2049   -5.9903    0.0000 O   0  0  0  0  0  0  0  0  0  0  0  0
  1  2  2  0  0  0  0
  2  3  1  0  0  0  0
  3  4  2  0  0  0  0
  4  5  1  0  0  0  0
  5  6  2  0  0  0  0
  6  1  1  0  0  0  0
  3  7  1  0  0  0  0
  2  8  1  0  0  0  0
  6  9  1  0  0  0  0
  9 10  2  0  0  0  0
 10 11  1  0  0  0  0
 11 12  1  0  0  0  0
 12 13  1  0  0  0  0
 12 14  1  0  0  0  0
 14 15  1  0  0  0  0
 11 16  2  0  0  0  0
 14 17  1  0  0  0  0
 17 18  1  0  0  0  0
M  END
>  <cdx:fragmentId>
5

$$$$
