11084199.cdx
  Mrv1902 05222410252D          

 14 16  0  0  0  0            999 V2000
    6.7886  -10.5006    0.0000 C   0  0  1  0  0  0  0  0  0  0  0  0
    7.5031  -10.0881    0.0000 C   0  0  1  0  0  0  0  0  0  0  0  0
    8.2877  -10.3431    0.0000 C   0  0  0  0  0  0  0  0  0  0  0  0
    8.7726   -9.6756    0.0000 C   0  0  0  0  0  0  0  0  0  0  0  0
    8.2877   -9.0082    0.0000 C   0  0  0  0  0  0  0  0  0  0  0  0
    7.5031   -9.2631    0.0000 C   0  0  1  0  0  0  0  0  0  0  0  0
    6.7886   -8.8506    0.0000 C   0  0  2  0  0  0  0  0  0  0  0  0
    6.0741   -9.2631    0.0000 C   0  0  0  0  0  0  0  0  0  0  0  0
    6.0741  -10.0881    0.0000 C   0  0  0  0  0  0  0  0  0  0  0  0
    6.4530   -9.6753    0.0000 C   0  0  0  0  0  0  0  0  0  0  0  0
    7.5893   -8.4427    0.0000 C   0  0  0  0  0  0  0  0  0  0  0  0
    7.5893  -10.9086    0.0000 C   0  0  0  0  0  0  0  0  0  0  0  0
    6.7886  -11.3256    0.0000 H   0  0  0  0  0  0  0  0  0  0  0  0
    6.7886   -8.0256    0.0000 H   0  0  0  0  0  0  0  0  0  0  0  0
  1  2  1  0  0  0  0
  2  3  1  0  0  0  0
  3  4  2  0  0  0  0
  4  5  1  0  0  0  0
  5  6  1  0  0  0  0
  6  7  1  0  0  0  0
  7  8  1  0  0  0  0
  8  9  1  0  0  0  0
  1  9  1  0  0  0  0
  1 10  1  6  0  0  0
  7 10  1  6  0  0  0
  2  6  1  0  0  0  0
  6 11  1  1  0  0  0
  2 12  1  1  0  0  0
  1 13  1  0  0  0  0
  7 14  1  0  0  0  0
M  END
>  <cdx:groupId>
2643

>  <cdx:fragmentId>
2602

$$$$
