9841926.cdx
  Mrv1902 05222410182D          

 27 29  0  0  0  0            999 V2000
    8.3015  -15.4182    0.0000 C   0  0  0  0  0  0  0  0  0  0  0  0
    9.0159  -15.0057    0.0000 C   0  0  0  0  0  0  0  0  0  0  0  0
    8.3015  -16.2432    0.0000 O   0  0  0  0  0  0  0  0  0  0  0  0
    7.5870  -15.0057    0.0000 O   0  0  0  0  0  0  0  0  0  0  0  0
    7.5870  -14.1807    0.0000 C   0  0  2  0  0  0  0  0  0  0  0  0
    8.3015  -13.7682    0.0000 C   0  0  0  0  0  0  0  0  0  0  0  0
    8.3015  -12.9432    0.0000 C   0  0  2  0  0  0  0  0  0  0  0  0
    7.5870  -12.5307    0.0000 C   0  0  2  0  0  0  0  0  0  0  0  0
    6.8725  -12.9432    0.0000 C   0  0  1  0  0  0  0  0  0  0  0  0
    6.1580  -12.5307    0.0000 C   0  0  0  0  0  0  0  0  0  0  0  0
    5.4436  -12.9432    0.0000 C   0  0  0  0  0  0  0  0  0  0  0  0
    5.4436  -13.7682    0.0000 C   0  0  0  0  0  0  0  0  0  0  0  0
    6.1580  -14.1807    0.0000 C   0  0  0  0  0  0  0  0  0  0  0  0
    6.8725  -13.7682    0.0000 C   0  0  2  0  0  0  0  0  0  0  0  0
    6.5705  -14.8952    0.0000 C   0  0  0  0  0  0  0  0  0  0  0  0
    5.7455  -14.8952    0.0000 C   0  0  0  0  0  0  0  0  0  0  0  0
    6.8725  -12.1182    0.0000 C   0  0  0  0  0  0  0  0  0  0  0  0
    9.0159  -12.5307    0.0000 C   0  0  0  0  0  0  0  0  0  0  0  0
    8.3015  -12.1182    0.0000 O   0  0  0  0  0  0  0  0  0  0  0  0
    7.5870  -11.7057    0.0000 C   0  0  0  0  0  0  0  0  0  0  0  0
    8.3015  -11.2932    0.0000 C   0  0  0  0  0  0  0  0  0  0  0  0
    8.7140   -9.1987    0.0000 O   0  0  0  0  0  0  0  0  0  0  0  0
    8.9689   -9.9833    0.0000 C   0  0  0  0  0  0  0  0  0  0  0  0
    8.3015  -10.4682    0.0000 C   0  0  0  0  0  0  0  0  0  0  0  0
    7.6340   -9.9833    0.0000 C   0  0  0  0  0  0  0  0  0  0  0  0
    7.8890   -9.1987    0.0000 C   0  0  0  0  0  0  0  0  0  0  0  0
    6.8725  -14.5932    0.0000 H   0  0  0  0  0  0  0  0  0  0  0  0
  1  2  1  0  0  0  0
  1  3  2  0  0  0  0
  1  4  1  0  0  0  0
  5  6  1  0  0  0  0
  6  7  1  0  0  0  0
  7  8  1  0  0  0  0
  8  9  1  0  0  0  0
  9 10  1  0  0  0  0
 10 11  1  0  0  0  0
 11 12  1  0  0  0  0
 12 13  1  0  0  0  0
 13 14  1  0  0  0  0
  5 14  1  0  0  0  0
  9 14  1  0  0  0  0
 13 15  1  0  0  0  0
 13 16  1  0  0  0  0
  9 17  1  1  0  0  0
  7 18  1  6  0  0  0
  8 19  1  6  0  0  0
 20 21  1  0  0  0  0
 22 23  1  0  0  0  0
 23 24  2  0  0  0  0
 24 25  1  0  0  0  0
 25 26  2  0  0  0  0
 22 26  1  0  0  0  0
 21 24  1  0  0  0  0
  8 20  1  0  0  0  0
  5  4  1  1  0  0  0
 14 27  1  6  0  0  0
M  END
>  <cdx:groupId>
29834

>  <cdx:fragmentId>
29762

$$$$
