84201.cdx
  Mrv1902 05222410232D          

 13 13  0  0  0  0            999 V2000
    7.1456   -6.4668    0.0000 C   0  0  0  0  0  0  0  0  0  0  0  0
    7.1414   -8.1167    0.0000 C   0  0  0  0  0  0  0  0  0  0  0  0
    6.4301   -6.8774    0.0000 C   0  0  0  0  0  0  0  0  0  0  0  0
    7.8590   -6.8811    0.0000 C   0  0  0  0  0  0  0  0  0  0  0  0
    6.4280   -7.7024    0.0000 C   0  0  0  0  0  0  0  0  0  0  0  0
    7.8569   -7.7061    0.0000 C   0  0  0  0  0  0  0  0  0  0  0  0
    7.1478   -5.6418    0.0000 C   0  0  0  0  0  0  0  0  0  0  0  0
    8.5746   -6.4705    0.0000 O   0  0  0  0  0  0  0  0  0  0  0  0
    8.5767   -5.6455    0.0000 C   0  0  0  0  0  0  0  0  0  0  0  0
    7.1392   -8.9417    0.0000 O   0  0  0  0  0  0  0  0  0  0  0  0
    6.4237   -9.3524    0.0000 C   0  0  0  0  0  0  0  0  0  0  0  0
    5.7167   -6.4631    0.0000 O   0  0  0  0  0  0  0  0  0  0  0  0
    5.7188   -5.6381    0.0000 C   0  0  0  0  0  0  0  0  0  0  0  0
  1  3  1  0  0  0  0
  1  4  2  0  0  0  0
  3  5  2  0  0  0  0
  2  5  1  0  0  0  0
  2  6  2  0  0  0  0
  4  6  1  0  0  0  0
  1  7  1  0  0  0  0
  8  9  1  0  0  0  0
  4  8  1  0  0  0  0
 10 11  1  0  0  0  0
  2 10  1  0  0  0  0
 12 13  1  0  0  0  0
  3 12  1  0  0  0  0
M  END
>  <cdx:fragmentId>
7

$$$$
