84256.cdx
  Mrv1902 05222410182D          

 20 21  0  0  0  0            999 V2000
   11.1731  -11.9867    0.0000 C   0  0  0  0  0  0  0  0  0  0  0  0
   11.1731  -12.8117    0.0000 C   0  0  0  0  0  0  0  0  0  0  0  0
   10.4586  -13.2242    0.0000 C   0  0  0  0  0  0  0  0  0  0  0  0
    9.7441  -12.8117    0.0000 C   0  0  0  0  0  0  0  0  0  0  0  0
    9.7441  -11.9867    0.0000 C   0  0  0  0  0  0  0  0  0  0  0  0
   10.4586  -11.5742    0.0000 C   0  0  0  0  0  0  0  0  0  0  0  0
   11.8876  -11.5742    0.0000 O   0  0  0  0  0  0  0  0  0  0  0  0
    9.0297  -13.2242    0.0000 C   0  0  0  0  0  0  0  0  0  0  0  0
    8.3152  -13.6367    0.0000 C   0  0  0  0  0  0  0  0  0  0  0  0
    7.6007  -14.0492    0.0000 C   0  0  0  0  0  0  0  0  0  0  0  0
    6.8863  -13.6367    0.0000 C   0  0  0  0  0  0  0  0  0  0  0  0
    6.1718  -14.0492    0.0000 C   0  0  0  0  0  0  0  0  0  0  0  0
    5.4573  -13.6367    0.0000 O   0  0  0  0  0  0  0  0  0  0  0  0
    4.7429  -14.0492    0.0000 C   0  0  0  0  0  0  0  0  0  0  0  0
    4.7429  -14.8742    0.0000 C   0  0  0  0  0  0  0  0  0  0  0  0
    4.0284  -15.2867    0.0000 C   0  0  0  0  0  0  0  0  0  0  0  0
    3.3139  -14.8742    0.0000 C   0  0  0  0  0  0  0  0  0  0  0  0
    3.3139  -14.0492    0.0000 C   0  0  0  0  0  0  0  0  0  0  0  0
    4.0284  -13.6367    0.0000 C   0  0  0  0  0  0  0  0  0  0  0  0
    2.5994  -15.2867    0.0000 O   0  0  0  0  0  0  0  0  0  0  0  0
  1  2  1  0  0  0  0
  2  3  2  0  0  0  0
  3  4  1  0  0  0  0
  4  5  2  0  0  0  0
  5  6  1  0  0  0  0
  1  6  2  0  0  0  0
  1  7  1  0  0  0  0
  8  9  3  0  0  0  0
  9 10  1  0  0  0  0
 10 11  2  0  0  0  0
 11 12  1  0  0  0  0
 14 15  1  0  0  0  0
 15 16  2  0  0  0  0
 16 17  1  0  0  0  0
 17 18  2  0  0  0  0
 18 19  1  0  0  0  0
 14 19  2  0  0  0  0
 13 14  1  0  0  0  0
 17 20  1  0  0  0  0
 12 13  1  0  0  0  0
  4  8  1  0  0  0  0
M  END
>  <cdx:groupId>
40275

>  <cdx:fragmentId>
40243

$$$$
