8427.cdx
  Mrv1902 05222410252D          

 34 36  0  0  0  0            999 V2000
    5.9227  -10.5806    0.0000 C   0  0  2  0  0  0  0  0  0  0  0  0
    5.9227  -11.4056    0.0000 C   0  0  2  0  0  0  0  0  0  0  0  0
    6.6371  -11.8181    0.0000 C   0  0  1  0  0  0  0  0  0  0  0  0
    7.3516  -11.4056    0.0000 C   0  0  2  0  0  0  0  0  0  0  0  0
    7.3516  -10.5806    0.0000 C   0  0  1  0  0  0  0  0  0  0  0  0
    6.6371  -10.1681    0.0000 O   0  0  0  0  0  0  0  0  0  0  0  0
    8.0661  -10.1681    0.0000 O   0  0  0  0  0  0  0  0  0  0  0  0
    5.2082  -10.1681    0.0000 C   0  0  0  0  0  0  0  0  0  0  0  0
    6.6371  -12.6431    0.0000 O   0  0  0  0  0  0  0  0  0  0  0  0
    8.0661  -11.8181    0.0000 O   0  0  0  0  0  0  0  0  0  0  0  0
    5.2082  -11.8181    0.0000 O   0  0  0  0  0  0  0  0  0  0  0  0
    8.0661   -9.3431    0.0000 C   0  0  0  0  0  0  0  0  0  0  0  0
    8.7805   -8.9306    0.0000 C   0  0  0  0  0  0  0  0  0  0  0  0
    8.7805   -8.1056    0.0000 C   0  0  0  0  0  0  0  0  0  0  0  0
    9.4950   -7.6931    0.0000 C   0  0  0  0  0  0  0  0  0  0  0  0
    9.4950   -6.8681    0.0000 C   0  0  0  0  0  0  0  0  0  0  0  0
    8.7805   -6.4556    0.0000 C   0  0  0  0  0  0  0  0  0  0  0  0
    8.0661   -6.8681    0.0000 C   0  0  0  0  0  0  0  0  0  0  0  0
    8.0661   -7.6931    0.0000 C   0  0  0  0  0  0  0  0  0  0  0  0
    8.7805   -5.6306    0.0000 O   0  0  0  0  0  0  0  0  0  0  0  0
   10.2095   -6.4556    0.0000 O   0  0  0  0  0  0  0  0  0  0  0  0
    5.2082   -9.3431    0.0000 O   0  0  0  0  0  0  0  0  0  0  0  0
    4.4937   -8.9306    0.0000 C   0  0  0  0  0  0  0  0  0  0  0  0
    4.4937   -8.1056    0.0000 C   0  0  0  0  0  0  0  0  0  0  0  0
    3.7792   -9.3431    0.0000 O   0  0  0  0  0  0  0  0  0  0  0  0
    3.7792   -7.6931    0.0000 C   0  0  0  0  0  0  0  0  0  0  0  0
    3.7792   -6.8681    0.0000 C   0  0  0  0  0  0  0  0  0  0  0  0
    4.4937   -6.4556    0.0000 C   0  0  0  0  0  0  0  0  0  0  0  0
    4.4937   -5.6306    0.0000 C   0  0  0  0  0  0  0  0  0  0  0  0
    3.7792   -5.2181    0.0000 C   0  0  0  0  0  0  0  0  0  0  0  0
    3.0648   -5.6306    0.0000 C   0  0  0  0  0  0  0  0  0  0  0  0
    3.0648   -6.4556    0.0000 C   0  0  0  0  0  0  0  0  0  0  0  0
    3.7792   -4.3931    0.0000 O   0  0  0  0  0  0  0  0  0  0  0  0
    5.2082   -5.2181    0.0000 O   0  0  0  0  0  0  0  0  0  0  0  0
  1  2  1  0  0  0  0
  2  3  1  0  0  0  0
  3  4  1  0  0  0  0
  4  5  1  0  0  0  0
  5  6  1  0  0  0  0
  6  1  1  0  0  0  0
  5  7  1  1  0  0  0
  1  8  1  1  0  0  0
  3  9  1  1  0  0  0
  4 10  1  6  0  0  0
  2 11  1  6  0  0  0
  7 12  1  0  0  0  0
 12 13  1  0  0  0  0
 13 14  1  0  0  0  0
 14 15  2  0  0  0  0
 15 16  1  0  0  0  0
 16 17  2  0  0  0  0
 17 18  1  0  0  0  0
 18 19  2  0  0  0  0
 19 14  1  0  0  0  0
 17 20  1  0  0  0  0
 16 21  1  0  0  0  0
  8 22  1  0  0  0  0
 22 23  1  0  0  0  0
 23 24  1  0  0  0  0
 23 25  2  0  0  0  0
 24 26  2  0  0  0  0
 26 27  1  0  0  0  0
 27 28  2  0  0  0  0
 28 29  1  0  0  0  0
 29 30  2  0  0  0  0
 30 31  1  0  0  0  0
 31 32  2  0  0  0  0
 32 27  1  0  0  0  0
 30 33  1  0  0  0  0
 29 34  1  0  0  0  0
M  END
>  <cdx:fragmentId>
5

$$$$
