842854.cdx
  Mrv1902 05222410232D          

 31 35  0  0  0  0            999 V2000
    7.2565   -6.2198    0.0000 O   0  0  0  0  0  0  0  0  0  0  0  0
    6.7628   -6.8807    0.0000 C   0  0  1  0  0  0  0  0  0  0  0  0
    5.9816   -6.6153    0.0000 C   0  0  0  0  0  0  0  0  0  0  0  0
    5.9926   -5.7904    0.0000 C   0  0  1  0  0  0  0  0  0  0  0  0
    6.7806   -5.5459    0.0000 C   0  0  0  0  0  0  0  0  0  0  0  0
    7.0459   -4.7648    0.0000 O   0  0  0  0  0  0  0  0  0  0  0  0
    5.3317   -5.2966    0.0000 C   0  0  0  0  0  0  0  0  0  0  0  0
   10.0471   -9.1200    0.0000 H   0  0  0  0  0  0  0  0  0  0  0  0
    7.6526   -9.5960    0.0000 H   0  0  0  0  0  0  0  0  0  0  0  0
    6.9017  -10.0834    0.0000 C   0  0  0  0  0  0  0  0  0  0  0  0
    7.6106  -10.5054    0.0000 C   0  0  0  0  0  0  0  0  0  0  0  0
   10.3681  -12.1428    0.0000 C   0  0  0  0  0  0  0  0  0  0  0  0
    8.6131  -12.5188    0.0000 O   0  0  0  0  0  0  0  0  0  0  0  0
    9.8390  -10.7711    0.0000 C   0  0  0  0  0  0  0  0  0  0  0  0
    9.7541  -11.5918    0.0000 C   0  0  0  0  0  0  0  0  0  0  0  0
    8.9474  -11.7646    0.0000 C   0  0  0  0  0  0  0  0  0  0  0  0
    8.5337  -11.0508    0.0000 O   0  0  0  0  0  0  0  0  0  0  0  0
    6.9894   -9.0034    0.0000 C   0  0  0  0  0  0  0  0  0  0  0  0
    6.5134   -8.3295    0.0000 C   0  0  0  0  0  0  0  0  0  0  0  0
    7.0072   -7.6686    0.0000 C   0  0  0  0  0  0  0  0  0  0  0  0
    7.7884   -7.9340    0.0000 N   0  0  0  0  0  0  0  0  0  0  0  0
    8.4402   -7.4283    0.0000 C   0  0  0  0  0  0  0  0  0  0  0  0
    9.2420   -7.6226    0.0000 C   0  0  0  0  0  0  0  0  0  0  0  0
    9.5900   -8.3706    0.0000 C   0  0  0  0  0  0  0  0  0  0  0  0
    9.2221   -9.1090    0.0000 C   0  0  1  0  0  0  0  0  0  0  0  0
    9.6358   -9.8228    0.0000 O   0  0  0  0  0  0  0  0  0  0  0  0
    9.0848  -10.4368    0.0000 C   0  0  2  0  0  0  0  0  0  0  0  0
    8.3306  -10.1025    0.0000 C   0  0  2  0  0  0  0  0  0  0  0  0
    8.4155   -9.2819    0.0000 C   0  0  2  0  0  0  0  0  0  0  0  0
    7.7774   -8.7589    0.0000 C   0  0  0  0  0  0  0  0  0  0  0  0
    6.1794   -7.4640    0.0000 H   0  0  0  0  0  0  0  0  0  0  0  0
 25  8  1  6  0  0  0
 29  9  1  1  0  0  0
 28 11  1  1  0  0  0
 11 10  1  0  0  0  0
 15 12  1  0  0  0  0
 16 13  2  0  0  0  0
 27 14  1  0  0  0  0
 27 17  1  0  0  0  0
 15 14  2  0  0  0  0
 16 15  1  0  0  0  0
 17 16  1  0  0  0  0
 29 25  1  0  0  0  0
 30 21  1  0  0  0  0
 30 18  2  0  0  0  0
 19 18  1  0  0  0  0
 20 19  2  0  0  0  0
 21 20  1  0  0  0  0
 22 21  1  0  0  0  0
 23 22  1  0  0  0  0
 24 23  1  0  0  0  0
 25 24  1  0  0  0  0
 26 25  1  0  0  0  0
 27 26  1  6  0  0  0
 28 27  1  0  0  0  0
 29 28  1  0  0  0  0
 30 29  1  0  0  0  0
  1  2  1  0  0  0  0
  2  3  1  0  0  0  0
  3  4  1  0  0  0  0
  4  5  1  0  0  0  0
  1  5  1  0  0  0  0
  5  6  2  0  0  0  0
  4  7  1  6  0  0  0
  2 20  1  0  0  0  0
  2 31  1  1  0  0  0
M  END
>  <cdx:fragmentId>
82556

$$$$
