8433.cdx
  Mrv1902 05222410252D          

 17 18  0  0  0  0            999 V2000
    3.8189   -2.9629    0.0000 C   0  0  0  0  0  0  0  0  0  0  0  0
    4.5334   -3.3754    0.0000 C   0  0  0  0  0  0  0  0  0  0  0  0
    5.2478   -2.9629    0.0000 C   0  0  0  0  0  0  0  0  0  0  0  0
    3.8189   -2.1379    0.0000 O   0  0  0  0  0  0  0  0  0  0  0  0
    5.2478   -2.1379    0.0000 O   0  0  0  0  0  0  0  0  0  0  0  0
    5.9623   -3.3754    0.0000 C   0  0  0  0  0  0  0  0  0  0  0  0
    6.6768   -2.9629    0.0000 C   0  0  0  0  0  0  0  0  0  0  0  0
    7.3913   -3.3754    0.0000 C   0  0  0  0  0  0  0  0  0  0  0  0
    7.3913   -4.2004    0.0000 C   0  0  0  0  0  0  0  0  0  0  0  0
    6.6768   -4.6129    0.0000 C   0  0  0  0  0  0  0  0  0  0  0  0
    5.9623   -4.2004    0.0000 C   0  0  0  0  0  0  0  0  0  0  0  0
    3.1044   -3.3754    0.0000 C   0  0  0  0  0  0  0  0  0  0  0  0
    3.1044   -4.2004    0.0000 C   0  0  0  0  0  0  0  0  0  0  0  0
    2.3900   -4.6129    0.0000 C   0  0  0  0  0  0  0  0  0  0  0  0
    1.6755   -4.2004    0.0000 C   0  0  0  0  0  0  0  0  0  0  0  0
    1.6755   -3.3754    0.0000 C   0  0  0  0  0  0  0  0  0  0  0  0
    2.3900   -2.9629    0.0000 C   0  0  0  0  0  0  0  0  0  0  0  0
  1  2  1  0  0  0  0
  2  3  1  0  0  0  0
  1  4  2  0  0  0  0
  3  5  2  0  0  0  0
  6  7  1  0  0  0  0
  7  8  2  0  0  0  0
  8  9  1  0  0  0  0
  9 10  2  0  0  0  0
 10 11  1  0  0  0  0
  6 11  2  0  0  0  0
  3  6  1  0  0  0  0
 12 13  1  0  0  0  0
 13 14  2  0  0  0  0
 14 15  1  0  0  0  0
 15 16  2  0  0  0  0
 16 17  1  0  0  0  0
 12 17  2  0  0  0  0
  1 12  1  0  0  0  0
M  END
>  <cdx:groupId>
54

>  <cdx:fragmentId>
15

$$$$
