843308.cdx
  Mrv1902 05222410262D          

 33 36  0  0  0  0            999 V2000
    3.9440  -11.6655    0.0000 C   0  0  0  0  0  0  0  0  0  0  0  0
    3.9440  -12.4905    0.0000 C   0  0  1  0  0  0  0  0  0  0  0  0
    4.6585  -12.9030    0.0000 C   0  0  0  0  0  0  0  0  0  0  0  0
    5.3730  -12.4905    0.0000 C   0  0  0  0  0  0  0  0  0  0  0  0
    5.3730  -11.6655    0.0000 C   0  0  2  0  0  0  0  0  0  0  0  0
    4.6585  -11.2530    0.0000 C   0  0  0  0  0  0  0  0  0  0  0  0
    6.0874  -12.9030    0.0000 C   0  0  0  0  0  0  0  0  0  0  0  0
    6.8019  -12.4905    0.0000 C   0  0  0  0  0  0  0  0  0  0  0  0
    6.8019  -11.6655    0.0000 C   0  0  0  0  0  0  0  0  0  0  0  0
    6.0874  -11.2530    0.0000 C   0  0  2  0  0  0  0  0  0  0  0  0
    7.5164  -11.2530    0.0000 C   0  0  1  0  0  0  0  0  0  0  0  0
    7.5164  -10.4280    0.0000 C   0  0  2  0  0  0  0  0  0  0  0  0
    6.8019  -10.0155    0.0000 C   0  0  0  0  0  0  0  0  0  0  0  0
    6.0874  -10.4280    0.0000 C   0  0  0  0  0  0  0  0  0  0  0  0
    8.3010  -11.5079    0.0000 C   0  0  0  0  0  0  0  0  0  0  0  0
    8.7859  -10.8405    0.0000 C   0  0  0  0  0  0  0  0  0  0  0  0
    8.3010  -10.1731    0.0000 C   0  0  2  0  0  0  0  0  0  0  0  0
    8.5559   -9.3884    0.0000 C   0  0  1  0  0  0  0  0  0  0  0  0
    9.3528   -9.1749    0.0000 C   0  0  0  0  0  0  0  0  0  0  0  0
    9.5664   -8.3780    0.0000 C   0  0  0  0  0  0  0  0  0  0  0  0
   10.3632   -8.1645    0.0000 C   0  0  2  0  0  0  0  0  0  0  0  0
   10.5768   -7.3676    0.0000 C   0  0  0  0  0  0  0  0  0  0  0  0
    9.9934   -6.7842    0.0000 C   0  0  0  0  0  0  0  0  0  0  0  0
   11.3737   -7.1541    0.0000 C   0  0  0  0  0  0  0  0  0  0  0  0
    7.9881   -8.7900    0.0000 C   0  0  0  0  0  0  0  0  0  0  0  0
   10.9466   -8.7479    0.0000 C   0  0  0  0  0  0  0  0  0  0  0  0
   11.7435   -8.5343    0.0000 C   0  0  0  0  0  0  0  0  0  0  0  0
    7.5164   -9.6030    0.0000 C   0  0  0  0  0  0  0  0  0  0  0  0
    5.3730  -10.8405    0.0000 C   0  0  0  0  0  0  0  0  0  0  0  0
    3.2296  -12.9030    0.0000 O   0  0  0  0  0  0  0  0  0  0  0  0
    6.0874  -12.0780    0.0000 H   0  0  0  0  0  0  0  0  0  0  0  0
    7.5164  -12.0780    0.0000 H   0  0  0  0  0  0  0  0  0  0  0  0
    9.1158  -10.0440    0.0000 H   0  0  0  0  0  0  0  0  0  0  0  0
  1  2  1  0  0  0  0
  2  3  1  0  0  0  0
  3  4  1  0  0  0  0
  4  5  1  0  0  0  0
  5  6  1  0  0  0  0
  6  1  1  0  0  0  0
  4  7  2  0  0  0  0
  7  8  1  0  0  0  0
  8  9  2  0  0  0  0
  9 10  1  0  0  0  0
 10  5  1  0  0  0  0
  9 11  1  0  0  0  0
 11 12  1  0  0  0  0
 12 13  1  0  0  0  0
 13 14  1  0  0  0  0
 14 10  1  0  0  0  0
 11 15  1  0  0  0  0
 15 16  1  0  0  0  0
 16 17  1  0  0  0  0
 17 12  1  0  0  0  0
 17 18  1  0  0  0  0
 18 19  1  0  0  0  0
 19 20  2  0  0  0  0
 20 21  1  0  0  0  0
 21 22  1  0  0  0  0
 22 23  1  0  0  0  0
 22 24  1  0  0  0  0
 18 25  1  6  0  0  0
 21 26  1  6  0  0  0
 26 27  1  0  0  0  0
 12 28  1  1  0  0  0
  5 29  1  1  0  0  0
  2 30  1  1  0  0  0
 10 31  1  6  0  0  0
 11 32  1  6  0  0  0
 17 33  1  6  0  0  0
M  END
>  <cdx:fragmentId>
47707

$$$$
