84336.cdx
  Mrv1902 05222410182D          

  8  9  0  0  0  0            999 V2000
    7.7413   -5.0597    0.0000 C   0  0  0  0  0  0  0  0  0  0  0  0
    7.7413   -5.8847    0.0000 O   0  0  0  0  0  0  0  0  0  0  0  0
    7.0268   -4.6472    0.0000 C   0  0  0  0  0  0  0  0  0  0  0  0
    6.2018   -4.6472    0.0000 C   0  0  0  0  0  0  0  0  0  0  0  0
    6.6143   -3.9328    0.0000 C   0  0  0  0  0  0  0  0  0  0  0  0
    8.4557   -4.6472    0.0000 C   0  0  0  0  0  0  0  0  0  0  0  0
    8.8682   -3.9328    0.0000 C   0  0  0  0  0  0  0  0  0  0  0  0
    9.2807   -4.6472    0.0000 C   0  0  0  0  0  0  0  0  0  0  0  0
  1  2  1  0  0  0  0
  3  4  1  0  0  0  0
  4  5  1  0  0  0  0
  3  5  1  0  0  0  0
  1  3  1  0  0  0  0
  6  7  1  0  0  0  0
  7  8  1  0  0  0  0
  6  8  1  0  0  0  0
  1  6  1  0  0  0  0
M  END
>  <cdx:fragmentId>
9

$$$$
