8434.cdx
  Mrv1902 05222410242D          

 12 12  0  0  0  0            999 V2000
    4.7926   -2.9777    0.0000 C   0  0  0  0  0  0  0  0  0  0  0  0
    4.0781   -3.3902    0.0000 C   0  0  0  0  0  0  0  0  0  0  0  0
    4.0781   -4.2152    0.0000 C   0  0  0  0  0  0  0  0  0  0  0  0
    3.3637   -4.6277    0.0000 C   0  0  0  0  0  0  0  0  0  0  0  0
    2.6492   -4.2152    0.0000 C   0  0  0  0  0  0  0  0  0  0  0  0
    2.6492   -3.3902    0.0000 C   0  0  0  0  0  0  0  0  0  0  0  0
    3.3637   -2.9777    0.0000 C   0  0  0  0  0  0  0  0  0  0  0  0
    4.7926   -2.1527    0.0000 O   0  0  0  0  0  0  0  0  0  0  0  0
    5.5071   -3.3902    0.0000 O   0  0  0  0  0  0  0  0  0  0  0  0
    1.9347   -4.6277    0.0000 O   0  0  0  0  0  0  0  0  0  0  0  0
    6.2215   -2.9777    0.0000 C   0  0  0  0  0  0  0  0  0  0  0  0
    6.9360   -3.3902    0.0000 C   0  0  0  0  0  0  0  0  0  0  0  0
  1  2  1  0  0  0  0
  2  3  1  0  0  0  0
  3  4  2  0  0  0  0
  4  5  1  0  0  0  0
  5  6  2  0  0  0  0
  6  7  1  0  0  0  0
  2  7  2  0  0  0  0
  1  8  2  0  0  0  0
  1  9  1  0  0  0  0
  5 10  1  0  0  0  0
 11 12  1  0  0  0  0
  9 11  1  0  0  0  0
M  END
>  <cdx:groupId>
38

>  <cdx:fragmentId>
5

$$$$
