844274.cdx
  Mrv1902 05222410262D          

 39 42  0  0  0  0            999 V2000
    9.4246   -7.3257    0.0000 O   0  0  0  0  0  0  0  0  0  0  0  0
    6.0794   -4.2566    0.0000 O   0  0  0  0  0  0  0  0  0  0  0  0
    4.4083   -7.7683    0.0000 C   0  0  0  0  0  0  0  0  0  0  0  0
    5.0961   -7.3127    0.0000 O   0  0  0  0  0  0  0  0  0  0  0  0
    4.5643   -9.4557    0.0000 C   0  0  0  0  0  0  0  0  0  0  0  0
    4.7983   -8.6646    0.0000 O   0  0  0  0  0  0  0  0  0  0  0  0
    6.5026  -10.4593    0.0000 C   0  0  0  0  0  0  0  0  0  0  0  0
    5.9345   -9.8611    0.0000 O   0  0  0  0  0  0  0  0  0  0  0  0
    4.6901   -4.5906    0.0000 C   0  0  0  0  0  0  0  0  0  0  0  0
    4.8829   -5.3928    0.0000 O   0  0  0  0  0  0  0  0  0  0  0  0
    4.4471   -6.2677    0.0000 C   0  0  0  0  0  0  0  0  0  0  0  0
    5.1104   -6.7582    0.0000 O   0  0  0  0  0  0  0  0  0  0  0  0
    9.3422   -7.9517    0.0000 C   0  0  0  0  0  0  0  0  0  0  0  0
    9.4192   -6.4186    0.0000 C   0  0  0  0  0  0  0  0  0  0  0  0
    5.8669   -6.4290    0.0000 C   0  0  0  0  0  0  0  0  0  0  0  0
    5.6740   -5.6268    0.0000 C   0  0  0  0  0  0  0  0  0  0  0  0
    6.2723   -5.0587    0.0000 C   0  0  0  0  0  0  0  0  0  0  0  0
    7.0634   -5.2928    0.0000 C   0  0  0  0  0  0  0  0  0  0  0  0
    7.2562   -6.0949    0.0000 C   0  0  0  0  0  0  0  0  0  0  0  0
    8.0810   -6.1162    0.0000 C   0  0  0  0  0  0  0  0  0  0  0  0
    8.6491   -6.7145    0.0000 C   0  0  1  0  0  0  0  0  0  0  0  0
    8.6277   -7.5392    0.0000 C   0  0  1  0  0  0  0  0  0  0  0  0
    8.0295   -8.1073    0.0000 C   0  0  2  0  0  0  0  0  0  0  0  0
    7.2048   -8.0860    0.0000 C   0  0  0  0  0  0  0  0  0  0  0  0
    6.9707   -8.8771    0.0000 C   0  0  0  0  0  0  0  0  0  0  0  0
    6.1686   -9.0699    0.0000 C   0  0  0  0  0  0  0  0  0  0  0  0
    5.6005   -8.4717    0.0000 C   0  0  0  0  0  0  0  0  0  0  0  0
    5.8345   -7.6806    0.0000 C   0  0  0  0  0  0  0  0  0  0  0  0
    6.6367   -7.4877    0.0000 C   0  0  0  0  0  0  0  0  0  0  0  0
    6.6580   -6.6630    0.0000 C   0  0  0  0  0  0  0  0  0  0  0  0
    8.3254   -8.8774    0.0000 O   0  0  0  0  0  0  0  0  0  0  0  0
    9.6593   -8.3649    0.0000 O   0  0  0  0  0  0  0  0  0  0  0  0
   10.2511   -9.9051    0.0000 C   0  0  0  0  0  0  0  0  0  0  0  0
   10.5470  -10.6752    0.0000 C   0  0  0  0  0  0  0  0  0  0  0  0
   10.0280  -11.3165    0.0000 C   0  0  0  0  0  0  0  0  0  0  0  0
    9.2132  -11.1877    0.0000 C   0  0  0  0  0  0  0  0  0  0  0  0
    8.9172  -10.4176    0.0000 C   0  0  0  0  0  0  0  0  0  0  0  0
    9.4362   -9.7763    0.0000 C   0  0  0  0  0  0  0  0  0  0  0  0
    9.1403   -9.0062    0.0000 C   0  0  0  0  0  0  0  0  0  0  0  0
 23 31  1  1  0  0  0
 22  1  1  6  0  0  0
 17  2  1  0  0  0  0
 28  4  1  0  0  0  0
  4  3  1  0  0  0  0
 27  6  1  0  0  0  0
  6  5  1  0  0  0  0
 26  8  1  0  0  0  0
  8  7  1  0  0  0  0
 16 10  1  0  0  0  0
 10  9  1  0  0  0  0
 15 12  1  0  0  0  0
 12 11  1  0  0  0  0
 22 13  1  1  0  0  0
 21 14  1  6  0  0  0
 29 24  1  0  0  0  0
 30 19  1  0  0  0  0
 30 15  2  0  0  0  0
 16 15  1  0  0  0  0
 17 16  2  0  0  0  0
 18 17  1  0  0  0  0
 19 18  2  0  0  0  0
 20 19  1  0  0  0  0
 21 20  1  0  0  0  0
 22 21  1  0  0  0  0
 23 22  1  0  0  0  0
 24 23  1  0  0  0  0
 25 24  2  0  0  0  0
 26 25  1  0  0  0  0
 27 26  2  0  0  0  0
 28 27  1  0  0  0  0
 29 28  2  0  0  0  0
 30 29  1  0  0  0  0
 39 31  1  0  0  0  0
 39 32  2  0  0  0  0
 38 33  2  0  0  0  0
 34 33  1  0  0  0  0
 35 34  2  0  0  0  0
 36 35  1  0  0  0  0
 37 36  2  0  0  0  0
 38 37  1  0  0  0  0
 39 38  1  0  0  0  0
M  END
>  <cdx:fragmentId>
96541

$$$$
