84475.cdx
  Mrv1902 05222410282D          

 24 23  0  0  0  0            999 V2000
   10.6720   -8.7802    0.0000 C   0  0  0  0  0  0  0  0  0  0  0  0
    9.9575   -8.3677    0.0000 C   0  0  0  0  0  0  0  0  0  0  0  0
    9.2430   -8.7802    0.0000 C   0  0  0  0  0  0  0  0  0  0  0  0
    8.5285   -8.3677    0.0000 C   0  0  0  0  0  0  0  0  0  0  0  0
   10.6720   -9.6052    0.0000 O   0  0  0  0  0  0  0  0  0  0  0  0
   11.3864   -8.3677    0.0000 O   0  0  0  0  0  0  0  0  0  0  0  0
    8.5285   -7.5427    0.0000 O   0  0  0  0  0  0  0  0  0  0  0  0
    7.8141   -8.7802    0.0000 O   0  0  0  0  0  0  0  0  0  0  0  0
   12.1009   -8.7802    0.0000 C   0  0  0  0  0  0  0  0  0  0  0  0
   12.8154   -8.3677    0.0000 C   0  0  0  0  0  0  0  0  0  0  0  0
   13.5298   -8.7802    0.0000 C   0  0  0  0  0  0  0  0  0  0  0  0
   14.2443   -8.3677    0.0000 C   0  0  0  0  0  0  0  0  0  0  0  0
   14.9588   -8.7802    0.0000 C   0  0  0  0  0  0  0  0  0  0  0  0
   15.6733   -8.3677    0.0000 C   0  0  0  0  0  0  0  0  0  0  0  0
   16.3877   -8.7802    0.0000 C   0  0  0  0  0  0  0  0  0  0  0  0
   17.1022   -8.3677    0.0000 C   0  0  0  0  0  0  0  0  0  0  0  0
    7.0996   -8.3677    0.0000 C   0  0  0  0  0  0  0  0  0  0  0  0
    6.3851   -8.7802    0.0000 C   0  0  0  0  0  0  0  0  0  0  0  0
    5.6707   -8.3677    0.0000 C   0  0  0  0  0  0  0  0  0  0  0  0
    4.9562   -8.7802    0.0000 C   0  0  0  0  0  0  0  0  0  0  0  0
    4.2417   -8.3677    0.0000 C   0  0  0  0  0  0  0  0  0  0  0  0
    3.5272   -8.7802    0.0000 C   0  0  0  0  0  0  0  0  0  0  0  0
    2.8128   -8.3677    0.0000 C   0  0  0  0  0  0  0  0  0  0  0  0
    2.0983   -8.7802    0.0000 C   0  0  0  0  0  0  0  0  0  0  0  0
  1  2  1  0  0  0  0
  2  3  1  0  0  0  0
  3  4  1  0  0  0  0
  1  5  2  0  0  0  0
  1  6  1  0  0  0  0
  4  7  2  0  0  0  0
  4  8  1  0  0  0  0
  9 10  1  0  0  0  0
 10 11  1  0  0  0  0
 11 12  1  0  0  0  0
 12 13  1  0  0  0  0
 13 14  1  0  0  0  0
 14 15  1  0  0  0  0
 15 16  1  0  0  0  0
  6  9  1  0  0  0  0
 17 18  1  0  0  0  0
 18 19  1  0  0  0  0
 19 20  1  0  0  0  0
 20 21  1  0  0  0  0
 21 22  1  0  0  0  0
 22 23  1  0  0  0  0
 23 24  1  0  0  0  0
  8 17  1  0  0  0  0
M  END
>  <cdx:fragmentId>
21

$$$$
