84503.cdx
  Mrv1902 05222410272D          

 15 17  0  0  0  0            999 V2000
    5.9261   -8.2770    0.0000 C   0  0  1  0  0  0  0  0  0  0  0  0
    6.4110   -7.6095    0.0000 O   0  0  0  0  0  0  0  0  0  0  0  0
    7.1956   -7.8645    0.0000 C   0  0  2  0  0  0  0  0  0  0  0  0
    7.9803   -7.6095    0.0000 C   0  0  2  0  0  0  0  0  0  0  0  0
    8.4652   -8.2770    0.0000 C   0  0  2  0  0  0  0  0  0  0  0  0
    7.9803   -8.9444    0.0000 N   0  0  0  0  0  0  0  0  0  0  0  0
    7.1956   -8.6895    0.0000 C   0  0  2  0  0  0  0  0  0  0  0  0
    6.4110   -8.9444    0.0000 C   0  0  0  0  0  0  0  0  0  0  0  0
    8.2352   -6.8249    0.0000 O   0  0  0  0  0  0  0  0  0  0  0  0
    8.2352   -9.7290    0.0000 C   0  0  0  0  0  0  0  0  0  0  0  0
    5.1011   -8.2770    0.0000 H   0  0  0  0  0  0  0  0  0  0  0  0
    7.1956   -7.0395    0.0000 H   0  0  0  0  0  0  0  0  0  0  0  0
    9.2902   -8.2770    0.0000 H   0  0  0  0  0  0  0  0  0  0  0  0
    7.1956   -9.5145    0.0000 H   0  0  0  0  0  0  0  0  0  0  0  0
    6.8749   -9.1295    0.0000 C   0  0  0  0  0  0  0  0  0  0  0  0
  1  2  1  0  0  0  0
  2  3  1  0  0  0  0
  3  4  1  0  0  0  0
  4  5  1  0  0  0  0
  5  6  1  0  0  0  0
  6  7  1  0  0  0  0
  7  8  1  0  0  0  0
  1  8  1  0  0  0  0
  3  7  1  0  0  0  0
  4  9  1  1  0  0  0
  6 10  1  0  0  0  0
  1 11  1  1  0  0  0
  3 12  1  1  0  0  0
  5 13  1  1  0  0  0
  7 14  1  1  0  0  0
  1 15  1  0  0  0  0
  5 15  1  0  0  0  0
M  END
>  <cdx:fragmentId>
5

$$$$
