8452.cdx
  Mrv1902 05222410272D          

  6  6  0  0  0  0            999 V2000
    3.9380   -3.1105    0.0000 C   0  0  0  0  0  0  0  0  0  0  0  0
    3.6830   -3.8951    0.0000 C   0  0  0  0  0  0  0  0  0  0  0  0
    2.8580   -3.8951    0.0000 C   0  0  0  0  0  0  0  0  0  0  0  0
    2.6031   -3.1105    0.0000 C   0  0  0  0  0  0  0  0  0  0  0  0
    3.2705   -2.6256    0.0000 C   0  0  0  0  0  0  0  0  0  0  0  0
    4.7226   -2.8556    0.0000 O   0  0  0  0  0  0  0  0  0  0  0  0
  1  2  1  0  0  0  0
  2  3  1  0  0  0  0
  3  4  1  0  0  0  0
  4  5  1  0  0  0  0
  1  5  1  0  0  0  0
  1  6  2  0  0  0  0
M  END
>  <cdx:groupId>
20

>  <cdx:fragmentId>
5

$$$$
