84532.cdx
  Mrv1902 05222410182D          

 13 14  0  0  0  0            999 V2000
    7.4234   -6.2177    0.0000 C   0  0  1  0  0  0  0  0  0  0  0  0
    6.7089   -6.6302    0.0000 C   0  0  1  0  0  0  0  0  0  0  0  0
    6.7089   -7.4552    0.0000 C   0  0  0  0  0  0  0  0  0  0  0  0
    7.4234   -7.8677    0.0000 C   0  0  0  0  0  0  0  0  0  0  0  0
    8.1378   -7.4552    0.0000 C   0  0  2  0  0  0  0  0  0  0  0  0
    8.1378   -6.6302    0.0000 C   0  0  0  0  0  0  0  0  0  0  0  0
    7.6060   -6.9372    0.0000 C   0  0  0  0  0  0  0  0  0  0  0  0
    5.9944   -7.8677    0.0000 O   0  0  0  0  0  0  0  0  0  0  0  0
    8.5503   -5.9158    0.0000 C   0  0  0  0  0  0  0  0  0  0  0  0
    8.9628   -6.6302    0.0000 C   0  0  0  0  0  0  0  0  0  0  0  0
    5.9944   -6.2177    0.0000 C   0  0  0  0  0  0  0  0  0  0  0  0
    7.4234   -5.3927    0.0000 H   0  0  0  0  0  0  0  0  0  0  0  0
    8.8523   -7.8677    0.0000 H   0  0  0  0  0  0  0  0  0  0  0  0
  1  2  1  0  0  0  0
  2  3  1  0  0  0  0
  3  4  1  0  0  0  0
  4  5  1  0  0  0  0
  5  6  1  0  0  0  0
  1  6  1  0  0  0  0
  1  7  1  6  0  0  0
  5  7  1  6  0  0  0
  3  8  2  0  0  0  0
  6  9  1  0  0  0  0
  6 10  1  0  0  0  0
  2 11  1  1  0  0  0
  1 12  1  0  0  0  0
  5 13  1  0  0  0  0
M  END
>  <cdx:groupId>
42

>  <cdx:fragmentId>
5

$$$$
