845503.cdx
  Mrv1902 05222410222D          

 26 28  0  0  0  0            999 V2000
    8.7051  -14.0830    0.0000 O   0  0  0  0  0  0  0  0  0  0  0  0
    7.8801  -14.0781    0.0000 C   0  0  0  0  0  0  0  0  0  0  0  0
    7.6298  -13.2919    0.0000 C   0  0  0  0  0  0  0  0  0  0  0  0
    8.3001  -12.8110    0.0000 C   0  0  0  0  0  0  0  0  0  0  0  0
    8.9647  -13.2999    0.0000 C   0  0  0  0  0  0  0  0  0  0  0  0
    9.7508  -13.0496    0.0000 O   0  0  0  0  0  0  0  0  0  0  0  0
    6.6115   -8.3835    0.0000 C   0  0  0  0  0  0  0  0  0  0  0  0
    6.8810  -11.1525    0.0000 C   0  0  0  0  0  0  0  0  0  0  0  0
    9.0268  -10.7528    0.0000 C   0  0  0  0  0  0  0  0  0  0  0  0
    8.3050  -11.9860    0.0000 C   0  0  0  0  0  0  0  0  0  0  0  0
    7.5930  -11.5693    0.0000 C   0  0  0  0  0  0  0  0  0  0  0  0
    6.8908   -9.5026    0.0000 C   0  0  2  0  0  0  0  0  0  0  0  0
    7.6077   -9.0943    0.0000 C   0  0  0  0  0  0  0  0  0  0  0  0
    8.3197   -9.5110    0.0000 C   0  0  0  0  0  0  0  0  0  0  0  0
    8.3148  -10.3360    0.0000 C   0  0  0  0  0  0  0  0  0  0  0  0
    7.5979  -10.7443    0.0000 C   0  0  1  0  0  0  0  0  0  0  0  0
    6.8859  -10.3276    0.0000 C   0  0  2  0  0  0  0  0  0  0  0  0
    6.1690  -10.7358    0.0000 C   0  0  0  0  0  0  0  0  0  0  0  0
    5.4570  -10.3191    0.0000 C   0  0  0  0  0  0  0  0  0  0  0  0
    5.4619   -9.4941    0.0000 C   0  0  0  0  0  0  0  0  0  0  0  0
    6.1788   -9.0858    0.0000 C   0  0  1  0  0  0  0  0  0  0  0  0
    5.7869   -8.3599    0.0000 C   0  0  0  0  0  0  0  0  0  0  0  0
    6.2196   -7.6575    0.0000 O   0  0  0  0  0  0  0  0  0  0  0  0
    4.9622   -8.3363    0.0000 O   0  0  0  0  0  0  0  0  0  0  0  0
    4.5703   -7.6103    0.0000 C   0  0  0  0  0  0  0  0  0  0  0  0
    6.9144   -8.6779    0.0000 H   0  0  0  0  0  0  0  0  0  0  0  0
 21  7  1  1  0  0  0
 17  8  1  6  0  0  0
 15  9  2  0  0  0  0
 16 11  1  6  0  0  0
 10  4  1  0  0  0  0
 11 10  1  0  0  0  0
 17 12  1  0  0  0  0
 21 12  1  0  0  0  0
 13 12  1  0  0  0  0
 14 13  1  0  0  0  0
 15 14  1  0  0  0  0
 16 15  1  0  0  0  0
 17 16  1  0  0  0  0
 18 17  1  0  0  0  0
 19 18  1  0  0  0  0
 20 19  1  0  0  0  0
 21 20  1  0  0  0  0
  1  2  1  0  0  0  0
  2  3  1  0  0  0  0
  3  4  2  0  0  0  0
  4  5  1  0  0  0  0
  1  5  1  0  0  0  0
  5  6  2  0  0  0  0
 21 22  1  0  0  0  0
 22 23  2  0  0  0  0
 22 24  1  0  0  0  0
 24 25  1  0  0  0  0
 12 26  1  1  0  0  0
M  END
>  <cdx:fragmentId>
4085

$$$$
