8456.cdx
  Mrv1902 05222410262D          

 13 13  0  0  0  0            999 V2000
    3.5508   -2.2696    0.0000 C   0  0  0  0  0  0  0  0  0  0  0  0
    3.5508   -3.0946    0.0000 C   0  0  0  0  0  0  0  0  0  0  0  0
    4.2652   -3.5071    0.0000 C   0  0  0  0  0  0  0  0  0  0  0  0
    4.9797   -3.0946    0.0000 C   0  0  0  0  0  0  0  0  0  0  0  0
    4.9797   -2.2696    0.0000 C   0  0  0  0  0  0  0  0  0  0  0  0
    4.2652   -1.8571    0.0000 C   0  0  0  0  0  0  0  0  0  0  0  0
    2.8363   -1.8571    0.0000 O   0  0  0  0  0  0  0  0  0  0  0  0
    5.6942   -3.5071    0.0000 O   0  0  0  0  0  0  0  0  0  0  0  0
    6.4087   -3.0946    0.0000 C   0  0  0  0  0  0  0  0  0  0  0  0
    2.8363   -3.5071    0.0000 C   0  0  0  0  0  0  0  0  0  0  0  0
    2.8363   -4.3321    0.0000 C   0  0  0  0  0  0  0  0  0  0  0  0
    2.1218   -3.9196    0.0000 C   0  0  0  0  0  0  0  0  0  0  0  0
    2.1218   -3.0946    0.0000 C   0  0  0  0  0  0  0  0  0  0  0  0
  1  2  1  0  0  0  0
  2  3  2  0  0  0  0
  3  4  1  0  0  0  0
  4  5  2  0  0  0  0
  5  6  1  0  0  0  0
  1  6  2  0  0  0  0
  1  7  1  0  0  0  0
  8  9  1  0  0  0  0
  4  8  1  0  0  0  0
 10 11  1  0  0  0  0
 10 13  1  0  0  0  0
 10 12  1  0  0  0  0
  2 10  1  0  0  0  0
M  END
>  <cdx:groupId>
41

>  <cdx:fragmentId>
5

$$$$
