84582.cdx
  Mrv1902 05222410222D          

 78 87  0  0  0  0            999 V2000
   12.3683   -5.8294    0.0000 C   0  0  2  0  0  0  0  0  0  0  0  0
   12.3683   -6.6544    0.0000 C   0  0  0  0  0  0  0  0  0  0  0  0
   11.6538   -7.0669    0.0000 C   0  0  0  0  0  0  0  0  0  0  0  0
   10.9394   -6.6544    0.0000 C   0  0  1  0  0  0  0  0  0  0  0  0
   10.2249   -7.0669    0.0000 C   0  0  2  0  0  0  0  0  0  0  0  0
   10.2249   -7.8919    0.0000 C   0  0  0  0  0  0  0  0  0  0  0  0
    9.5104   -8.3044    0.0000 C   0  0  0  0  0  0  0  0  0  0  0  0
    8.7960   -7.8919    0.0000 C   0  0  1  0  0  0  0  0  0  0  0  0
    8.0815   -8.3044    0.0000 C   0  0  0  0  0  0  0  0  0  0  0  0
    7.3670   -7.8919    0.0000 C   0  0  2  0  0  0  0  0  0  0  0  0
    7.3670   -7.0669    0.0000 C   0  0  0  0  0  0  0  0  0  0  0  0
    8.0815   -6.6544    0.0000 C   0  0  0  0  0  0  0  0  0  0  0  0
    8.7960   -7.0669    0.0000 C   0  0  2  0  0  0  0  0  0  0  0  0
    9.5104   -6.6544    0.0000 C   0  0  1  0  0  0  0  0  0  0  0  0
    9.5104   -5.8294    0.0000 C   0  0  0  0  0  0  0  0  0  0  0  0
   10.2249   -5.4169    0.0000 C   0  0  0  0  0  0  0  0  0  0  0  0
   10.9394   -5.8294    0.0000 C   0  0  2  0  0  0  0  0  0  0  0  0
   11.6538   -5.4169    0.0000 C   0  0  2  0  0  0  0  0  0  0  0  0
   11.6538   -4.5919    0.0000 C   0  0  0  0  0  0  0  0  0  0  0  0
   12.3683   -4.1794    0.0000 C   0  0  2  0  0  0  0  0  0  0  0  0
   13.0828   -4.5919    0.0000 C   0  0  0  0  0  0  0  0  0  0  0  0
   13.0828   -5.4169    0.0000 C   0  0  0  0  0  0  0  0  0  0  0  0
   11.9558   -3.4650    0.0000 C   0  0  0  0  0  0  0  0  0  0  0  0
   11.1308   -3.4650    0.0000 O   0  0  0  0  0  0  0  0  0  0  0  0
   13.0828   -7.0669    0.0000 O   0  0  0  0  0  0  0  0  0  0  0  0
   12.7808   -3.4650    0.0000 C   0  0  0  0  0  0  0  0  0  0  0  0
    8.7960   -6.2419    0.0000 C   0  0  0  0  0  0  0  0  0  0  0  0
    8.4940   -9.0189    0.0000 C   0  0  0  0  0  0  0  0  0  0  0  0
    7.6690   -9.0189    0.0000 C   0  0  0  0  0  0  0  0  0  0  0  0
   10.2249   -6.2419    0.0000 C   0  0  0  0  0  0  0  0  0  0  0  0
   10.9394   -7.4794    0.0000 C   0  0  0  0  0  0  0  0  0  0  0  0
    8.7960   -8.7169    0.0000 H   0  0  0  0  0  0  0  0  0  0  0  0
    9.5104   -7.4794    0.0000 H   0  0  0  0  0  0  0  0  0  0  0  0
   11.6538   -6.2419    0.0000 H   0  0  0  0  0  0  0  0  0  0  0  0
    5.2223   -4.1799    0.0000 O   0  0  0  0  0  0  0  0  0  0  0  0
    3.7931   -3.3553    0.0000 O   0  0  0  0  0  0  0  0  0  0  0  0
    2.3642   -3.3558    0.0000 O   0  0  0  0  0  0  0  0  0  0  0  0
    2.3644   -4.1808    0.0000 C   0  0  0  0  0  0  0  0  0  0  0  0
    6.6520   -6.6544    0.0000 O   0  0  0  0  0  0  0  0  0  0  0  0
    8.0807   -5.8290    0.0000 O   0  0  0  0  0  0  0  0  0  0  0  0
    8.0802   -4.1790    0.0000 O   0  0  0  0  0  0  0  0  0  0  0  0
    6.6510   -3.3544    0.0000 C   0  0  0  0  0  0  0  0  0  0  0  0
    6.6513   -4.1794    0.0000 C   0  0  1  0  0  0  0  0  0  0  0  0
    7.3659   -4.5917    0.0000 C   0  0  1  0  0  0  0  0  0  0  0  0
    7.3661   -5.4167    0.0000 C   0  0  2  0  0  0  0  0  0  0  0  0
    6.6518   -5.8294    0.0000 C   0  0  2  0  0  0  0  0  0  0  0  0
    5.9372   -5.4171    0.0000 C   0  0  1  0  0  0  0  0  0  0  0  0
    5.9369   -4.5921    0.0000 O   0  0  0  0  0  0  0  0  0  0  0  0
    5.2228   -5.8299    0.0000 O   0  0  0  0  0  0  0  0  0  0  0  0
    3.0790   -4.5930    0.0000 C   0  0  2  0  0  0  0  0  0  0  0  0
    3.7934   -4.1803    0.0000 C   0  0  2  0  0  0  0  0  0  0  0  0
    4.5080   -4.5926    0.0000 C   0  0  1  0  0  0  0  0  0  0  0  0
    4.5082   -5.4176    0.0000 C   0  0  2  0  0  0  0  0  0  0  0  0
    3.7939   -5.8303    0.0000 C   0  0  1  0  0  0  0  0  0  0  0  0
    3.0793   -5.4180    0.0000 O   0  0  0  0  0  0  0  0  0  0  0  0
    3.7942   -6.6553    0.0000 O   0  0  0  0  0  0  0  0  0  0  0  0
    3.7947   -8.3053    0.0000 O   0  0  0  0  0  0  0  0  0  0  0  0
    5.2244  -10.7799    0.0000 O   0  0  0  0  0  0  0  0  0  0  0  0
    3.7957  -11.6053    0.0000 O   0  0  0  0  0  0  0  0  0  0  0  0
    2.3665  -10.7808    0.0000 O   0  0  0  0  0  0  0  0  0  0  0  0
    2.3657   -8.3058    0.0000 O   0  0  0  0  0  0  0  0  0  0  0  0
    2.3660   -9.1308    0.0000 C   0  0  0  0  0  0  0  0  0  0  0  0
    3.0806   -9.5430    0.0000 C   0  0  2  0  0  0  0  0  0  0  0  0
    3.0808  -10.3680    0.0000 C   0  0  2  0  0  0  0  0  0  0  0  0
    3.7954  -10.7803    0.0000 C   0  0  1  0  0  0  0  0  0  0  0  0
    4.5098  -10.3676    0.0000 C   0  0  2  0  0  0  0  0  0  0  0  0
    4.5095   -9.5426    0.0000 C   0  0  1  0  0  0  0  0  0  0  0  0
    3.7949   -9.1303    0.0000 O   0  0  0  0  0  0  0  0  0  0  0  0
    5.2239   -9.1299    0.0000 O   0  0  0  0  0  0  0  0  0  0  0  0
    5.2231   -6.6549    0.0000 C   0  0  0  0  0  0  0  0  0  0  0  0
    4.5087   -7.0676    0.0000 C   0  0  1  0  0  0  0  0  0  0  0  0
    4.5090   -7.8926    0.0000 C   0  0  1  0  0  0  0  0  0  0  0  0
    5.2236   -8.3049    0.0000 C   0  0  2  0  0  0  0  0  0  0  0  0
    5.9379   -7.8921    0.0000 C   0  0  1  0  0  0  0  0  0  0  0  0
    5.9377   -7.0671    0.0000 O   0  0  0  0  0  0  0  0  0  0  0  0
    6.6525   -8.3044    0.0000 O   0  0  0  0  0  0  0  0  0  0  0  0
   10.9394   -5.0044    0.0000 O   0  0  0  0  0  0  0  0  0  0  0  0
   12.3683   -5.0044    0.0000 C   0  0  0  0  0  0  0  0  0  0  0  0
 74 76  1  1  0  0  0
 71 56  1  1  0  0  0
 54 56  1  6  0  0  0
 52 35  1  6  0  0  0
 51 36  1  1  0  0  0
 50 38  1  6  0  0  0
 38 37  1  0  0  0  0
 53 49  1  1  0  0  0
 47 49  1  6  0  0  0
 46 39  1  1  0  0  0
 45 40  1  1  0  0  0
 44 41  1  6  0  0  0
 43 42  1  1  0  0  0
 48 43  1  0  0  0  0
 44 43  1  0  0  0  0
 45 44  1  0  0  0  0
 46 45  1  0  0  0  0
 47 46  1  0  0  0  0
 48 47  1  0  0  0  0
 55 50  1  0  0  0  0
 51 50  1  0  0  0  0
 52 51  1  0  0  0  0
 53 52  1  0  0  0  0
 54 53  1  0  0  0  0
 55 54  1  0  0  0  0
 72 57  1  1  0  0  0
 73 69  1  6  0  0  0
 67 69  1  1  0  0  0
 66 58  1  6  0  0  0
 65 59  1  1  0  0  0
 64 60  1  6  0  0  0
 63 62  1  1  0  0  0
 62 61  1  0  0  0  0
 68 63  1  0  0  0  0
 64 63  1  0  0  0  0
 65 64  1  0  0  0  0
 66 65  1  0  0  0  0
 67 66  1  0  0  0  0
 68 67  1  0  0  0  0
 75 70  1  0  0  0  0
 71 70  1  0  0  0  0
 72 71  1  0  0  0  0
  1  2  1  0  0  0  0
  2  3  1  0  0  0  0
  3  4  1  0  0  0  0
  4  5  1  0  0  0  0
  5  6  1  0  0  0  0
  6  7  1  0  0  0  0
  7  8  1  0  0  0  0
  8  9  1  0  0  0  0
  9 10  1  0  0  0  0
 10 11  1  0  0  0  0
 11 12  1  0  0  0  0
 12 13  1  0  0  0  0
 13 14  1  0  0  0  0
 14 15  1  0  0  0  0
 15 16  1  0  0  0  0
 16 17  1  0  0  0  0
 17 18  1  0  0  0  0
 18 19  1  0  0  0  0
 19 20  1  0  0  0  0
 20 21  1  0  0  0  0
 21 22  1  0  0  0  0
  1 22  1  0  0  0  0
  1 18  1  0  0  0  0
  4 17  1  0  0  0  0
  5 14  1  0  0  0  0
  8 13  1  0  0  0  0
 23 24  2  0  0  0  0
 20 23  1  1  0  0  0
  2 25  2  0  0  0  0
 20 26  1  6  0  0  0
 13 27  1  1  0  0  0
  9 28  1  0  0  0  0
  9 29  1  0  0  0  0
  5 30  1  1  0  0  0
  4 31  1  6  0  0  0
 73 72  1  0  0  0  0
 74 73  1  0  0  0  0
 75 74  1  0  0  0  0
 10 76  1  1  0  0  0
  8 32  1  6  0  0  0
 14 33  1  6  0  0  0
 18 34  1  1  0  0  0
 17 77  1  1  0  0  0
  1 78  1  1  0  0  0
 77 78  1  0  0  0  0
M  END
>  <cdx:fragmentId>
229433

$$$$
