846.cdx
  Mrv1902 05222410182D          

 15 15  0  0  0  0            999 V2000
    7.2937   -7.1881    0.0000 C   0  0  0  0  0  0  0  0  0  0  0  0
    6.5767   -7.5962    0.0000 C   0  0  0  0  0  0  0  0  0  0  0  0
    6.5717   -8.4212    0.0000 C   0  0  0  0  0  0  0  0  0  0  0  0
    7.2836   -8.8380    0.0000 C   0  0  0  0  0  0  0  0  0  0  0  0
    8.0006   -8.4299    0.0000 C   0  0  0  0  0  0  0  0  0  0  0  0
    8.0056   -7.6049    0.0000 C   0  0  0  0  0  0  0  0  0  0  0  0
    5.8648   -7.1793    0.0000 N   0  0  0  0  0  0  0  0  0  0  0  0
    7.3088   -4.7131    0.0000 N   0  0  0  0  0  0  0  0  0  0  0  0
    6.5868   -5.9462    0.0000 O   0  0  0  0  0  0  0  0  0  0  0  0
    8.7428   -3.8968    0.0000 O   0  0  0  0  0  0  0  0  0  0  0  0
    9.4497   -5.1387    0.0000 O   0  0  0  0  0  0  0  0  0  0  0  0
    7.2987   -6.3631    0.0000 C   0  0  0  0  0  0  0  0  0  0  0  0
    8.0157   -5.9549    0.0000 C   0  0  0  0  0  0  0  0  0  0  0  0
    8.0208   -5.1300    0.0000 C   0  0  0  0  0  0  0  0  0  0  0  0
    8.7377   -4.7218    0.0000 C   0  0  0  0  0  0  0  0  0  0  0  0
 14  8  1  0  0  0  0
 12  9  2  0  0  0  0
 15 10  1  0  0  0  0
 15 11  2  0  0  0  0
 13 12  1  0  0  0  0
 14 13  1  0  0  0  0
 15 14  1  0  0  0  0
  1  2  1  0  0  0  0
  2  3  2  0  0  0  0
  3  4  1  0  0  0  0
  4  5  2  0  0  0  0
  5  6  1  0  0  0  0
  1  6  2  0  0  0  0
  2  7  1  0  0  0  0
 12  1  1  0  0  0  0
M  END
>  <cdx:fragmentId>
19

$$$$
