10084655.cdx
  Mrv1902 05222410192D          

 20 22  0  0  0  0            999 V2000
    6.3840  -14.6953    0.0000 C   0  0  0  0  0  0  0  0  0  0  0  0
    5.6695  -14.2828    0.0000 C   0  0  2  0  0  0  0  0  0  0  0  0
    5.6695  -13.4578    0.0000 C   0  0  0  0  0  0  0  0  0  0  0  0
    6.3840  -13.0453    0.0000 C   0  0  0  0  0  0  0  0  0  0  0  0
    7.0985  -13.4578    0.0000 C   0  0  0  0  0  0  0  0  0  0  0  0
    7.8129  -13.0453    0.0000 C   0  0  1  0  0  0  0  0  0  0  0  0
    7.8129  -12.2203    0.0000 C   0  0  0  0  0  0  0  0  0  0  0  0
    8.5274  -11.8078    0.0000 C   0  0  0  0  0  0  0  0  0  0  0  0
    9.2419  -12.2203    0.0000 C   0  0  0  0  0  0  0  0  0  0  0  0
    9.2419  -13.0453    0.0000 C   0  0  0  0  0  0  0  0  0  0  0  0
    8.5274  -13.4578    0.0000 C   0  0  0  0  0  0  0  0  0  0  0  0
    8.5274  -14.2828    0.0000 C   0  0  0  0  0  0  0  0  0  0  0  0
    7.8129  -14.6953    0.0000 C   0  0  0  0  0  0  0  0  0  0  0  0
    7.0985  -14.2828    0.0000 C   0  0  0  0  0  0  0  0  0  0  0  0
   10.0669  -13.0453    0.0000 C   0  0  0  0  0  0  0  0  0  0  0  0
    9.6544  -13.7597    0.0000 C   0  0  0  0  0  0  0  0  0  0  0  0
    7.0985  -12.6328    0.0000 C   0  0  0  0  0  0  0  0  0  0  0  0
    5.2570  -14.9972    0.0000 C   0  0  0  0  0  0  0  0  0  0  0  0
    4.8445  -14.2828    0.0000 C   0  0  0  0  0  0  0  0  0  0  0  0
    4.4320  -14.9972    0.0000 C   0  0  0  0  0  0  0  0  0  0  0  0
  1  2  1  0  0  0  0
  2  3  1  0  0  0  0
  3  4  1  0  0  0  0
  4  5  1  0  0  0  0
  5  6  1  0  0  0  0
  6  7  1  0  0  0  0
  7  8  1  0  0  0  0
  8  9  1  0  0  0  0
  9 10  1  0  0  0  0
 10 11  1  0  0  0  0
  6 11  1  0  0  0  0
 11 12  1  0  0  0  0
 12 13  1  0  0  0  0
 13 14  1  0  0  0  0
  1 14  1  0  0  0  0
  5 14  2  0  0  0  0
 10 15  1  0  0  0  0
 10 16  1  0  0  0  0
  6 17  1  6  0  0  0
  2 18  1  1  0  0  0
 19 20  2  0  0  0  0
  2 19  1  6  0  0  0
M  END
>  <cdx:groupId>
40343

>  <cdx:fragmentId>
40284

$$$$
