846692.cdx
  Mrv1902 05222410202D          

 22 24  0  0  0  0            999 V2000
    7.9652   -7.5409    0.0000 C   0  0  0  0  0  0  0  0  0  0  0  0
    7.3731   -6.9665    0.0000 C   0  0  0  0  0  0  0  0  0  0  0  0
    6.6649   -7.3898    0.0000 C   0  0  0  0  0  0  0  0  0  0  0  0
    5.9443   -6.9882    0.0000 C   0  0  0  0  0  0  0  0  0  0  0  0
    5.9317   -6.1633    0.0000 C   0  0  0  0  0  0  0  0  0  0  0  0
    6.6399   -5.7400    0.0000 C   0  0  0  0  0  0  0  0  0  0  0  0
    7.3605   -6.1416    0.0000 C   0  0  0  0  0  0  0  0  0  0  0  0
    7.9350   -5.5495    0.0000 O   0  0  0  0  0  0  0  0  0  0  0  0
    8.7599   -5.5369    0.0000 C   0  0  0  0  0  0  0  0  0  0  0  0
    9.3520   -6.1114    0.0000 C   0  0  2  0  0  0  0  0  0  0  0  0
    9.3645   -6.9363    0.0000 C   0  0  0  0  0  0  0  0  0  0  0  0
    8.7901   -7.5284    0.0000 C   0  0  0  0  0  0  0  0  0  0  0  0
    9.2134   -8.2365    0.0000 C   0  0  0  0  0  0  0  0  0  0  0  0
    8.8118   -8.9572    0.0000 C   0  0  0  0  0  0  0  0  0  0  0  0
    7.9869   -8.9697    0.0000 C   0  0  0  0  0  0  0  0  0  0  0  0
    7.5636   -8.2616    0.0000 C   0  0  0  0  0  0  0  0  0  0  0  0
    9.8442   -5.4493    0.0000 C   0  0  0  0  0  0  0  0  0  0  0  0
    9.5170   -4.6920    0.0000 O   0  0  0  0  0  0  0  0  0  0  0  0
    7.5853   -9.6904    0.0000 O   0  0  0  0  0  0  0  0  0  0  0  0
    9.2351   -9.6653    0.0000 O   0  0  0  0  0  0  0  0  0  0  0  0
   10.1715   -6.2066    0.0000 O   0  0  0  0  0  0  0  0  0  0  0  0
    5.2111   -5.7617    0.0000 O   0  0  0  0  0  0  0  0  0  0  0  0
  1  2  1  0  0  0  0
  2  3  1  0  0  0  0
  3  4  2  0  0  0  0
  4  5  1  0  0  0  0
  5  6  2  0  0  0  0
  6  7  1  0  0  0  0
  7  8  1  0  0  0  0
  8  9  1  0  0  0  0
  9 10  1  0  0  0  0
 10 11  1  0  0  0  0
 11 12  1  0  0  0  0
 12 13  2  0  0  0  0
 13 14  1  0  0  0  0
 14 15  2  0  0  0  0
 15 16  1  0  0  0  0
  1 16  2  0  0  0  0
  1 12  1  0  0  0  0
  2  7  2  0  0  0  0
 17 18  2  0  0  0  0
 10 17  1  0  0  0  0
 15 19  1  0  0  0  0
 14 20  1  0  0  0  0
 10 21  1  6  0  0  0
  5 22  1  0  0  0  0
M  END
>  <cdx:fragmentId>
96873

$$$$
