846649.cdx
  Mrv1902 05222410262D          

 22 24  0  0  0  0            999 V2000
    7.2957   -8.6537    0.0000 C   0  0  0  0  0  0  0  0  0  0  0  0
    7.2957   -7.8287    0.0000 C   0  0  2  0  0  0  0  0  0  0  0  0
    6.5813   -7.4162    0.0000 C   0  0  2  0  0  0  0  0  0  0  0  0
    5.8668   -7.8287    0.0000 C   0  0  0  0  0  0  0  0  0  0  0  0
    5.1523   -7.4162    0.0000 C   0  0  0  0  0  0  0  0  0  0  0  0
    4.4379   -7.8287    0.0000 C   0  0  0  0  0  0  0  0  0  0  0  0
    4.4379   -8.6537    0.0000 C   0  0  0  0  0  0  0  0  0  0  0  0
    5.1523   -9.0662    0.0000 C   0  0  0  0  0  0  0  0  0  0  0  0
    5.8668   -8.6537    0.0000 C   0  0  0  0  0  0  0  0  0  0  0  0
    6.5813   -9.0662    0.0000 O   0  0  0  0  0  0  0  0  0  0  0  0
    7.2957   -7.0037    0.0000 O   0  0  0  0  0  0  0  0  0  0  0  0
    6.5813   -6.5912    0.0000 O   0  0  0  0  0  0  0  0  0  0  0  0
    3.7234   -9.0662    0.0000 O   0  0  0  0  0  0  0  0  0  0  0  0
    8.0102   -7.4162    0.0000 C   0  0  0  0  0  0  0  0  0  0  0  0
    8.7247   -7.8287    0.0000 C   0  0  0  0  0  0  0  0  0  0  0  0
    9.4392   -7.4162    0.0000 C   0  0  0  0  0  0  0  0  0  0  0  0
   10.1536   -7.8287    0.0000 C   0  0  0  0  0  0  0  0  0  0  0  0
   10.1536   -8.6537    0.0000 C   0  0  0  0  0  0  0  0  0  0  0  0
    9.4392   -9.0662    0.0000 C   0  0  0  0  0  0  0  0  0  0  0  0
    8.7247   -8.6537    0.0000 C   0  0  0  0  0  0  0  0  0  0  0  0
   10.8681   -9.0662    0.0000 O   0  0  0  0  0  0  0  0  0  0  0  0
   10.8681   -7.4162    0.0000 O   0  0  0  0  0  0  0  0  0  0  0  0
  1  2  1  0  0  0  0
  2  3  1  0  0  0  0
  3  4  1  0  0  0  0
  4  5  1  0  0  0  0
  5  6  2  0  0  0  0
  6  7  1  0  0  0  0
  7  8  2  0  0  0  0
  8  9  1  0  0  0  0
  4  9  2  0  0  0  0
  9 10  1  0  0  0  0
  1 10  1  0  0  0  0
  2 11  1  6  0  0  0
  3 12  1  6  0  0  0
  7 13  1  0  0  0  0
 15 16  1  0  0  0  0
 16 17  2  0  0  0  0
 17 18  1  0  0  0  0
 18 19  2  0  0  0  0
 19 20  1  0  0  0  0
 15 20  2  0  0  0  0
 18 21  1  0  0  0  0
 17 22  1  0  0  0  0
 14 15  1  0  0  0  0
  2 14  1  0  0  0  0
M  END
>  <cdx:fragmentId>
96652

$$$$
