846660.cdx
  Mrv1902 05222410262D          

 21 23  0  0  0  0            999 V2000
    7.1857   -8.3512    0.0000 C   0  0  0  0  0  0  0  0  0  0  0  0
    7.1857   -7.5262    0.0000 C   0  0  2  0  0  0  0  0  0  0  0  0
    6.4713   -7.1137    0.0000 C   0  0  2  0  0  0  0  0  0  0  0  0
    5.7568   -7.5262    0.0000 C   0  0  0  0  0  0  0  0  0  0  0  0
    5.0423   -7.1137    0.0000 C   0  0  0  0  0  0  0  0  0  0  0  0
    4.3279   -7.5262    0.0000 C   0  0  0  0  0  0  0  0  0  0  0  0
    4.3279   -8.3512    0.0000 C   0  0  0  0  0  0  0  0  0  0  0  0
    5.0423   -8.7637    0.0000 C   0  0  0  0  0  0  0  0  0  0  0  0
    5.7568   -8.3512    0.0000 C   0  0  0  0  0  0  0  0  0  0  0  0
    6.4713   -8.7637    0.0000 O   0  0  0  0  0  0  0  0  0  0  0  0
    7.1857   -6.7012    0.0000 O   0  0  0  0  0  0  0  0  0  0  0  0
    6.4713   -6.2887    0.0000 O   0  0  0  0  0  0  0  0  0  0  0  0
    3.6134   -8.7637    0.0000 O   0  0  0  0  0  0  0  0  0  0  0  0
    7.9002   -7.1137    0.0000 C   0  0  0  0  0  0  0  0  0  0  0  0
    8.6147   -7.5262    0.0000 C   0  0  0  0  0  0  0  0  0  0  0  0
    9.3292   -7.1137    0.0000 C   0  0  0  0  0  0  0  0  0  0  0  0
   10.0436   -7.5262    0.0000 C   0  0  0  0  0  0  0  0  0  0  0  0
   10.0436   -8.3512    0.0000 C   0  0  0  0  0  0  0  0  0  0  0  0
    9.3292   -8.7637    0.0000 C   0  0  0  0  0  0  0  0  0  0  0  0
    8.6147   -8.3512    0.0000 C   0  0  0  0  0  0  0  0  0  0  0  0
   10.7581   -8.7637    0.0000 O   0  0  0  0  0  0  0  0  0  0  0  0
  1  2  1  0  0  0  0
  2  3  1  0  0  0  0
  3  4  1  0  0  0  0
  4  5  1  0  0  0  0
  5  6  2  0  0  0  0
  6  7  1  0  0  0  0
  7  8  2  0  0  0  0
  8  9  1  0  0  0  0
  4  9  2  0  0  0  0
  9 10  1  0  0  0  0
  1 10  1  0  0  0  0
  2 11  1  6  0  0  0
  3 12  1  6  0  0  0
  7 13  1  0  0  0  0
 15 16  1  0  0  0  0
 16 17  2  0  0  0  0
 17 18  1  0  0  0  0
 18 19  2  0  0  0  0
 19 20  1  0  0  0  0
 15 20  2  0  0  0  0
 18 21  1  0  0  0  0
 14 15  1  0  0  0  0
  2 14  1  0  0  0  0
M  END
>  <cdx:fragmentId>
96726

$$$$
