13846826.cdx
  Mrv1902 05222410242D          

 30 33  0  0  0  0            999 V2000
   11.0752  -10.2635    0.0000 C   0  0  0  0  0  0  0  0  0  0  0  0
   11.0752  -11.0885    0.0000 C   0  0  0  0  0  0  0  0  0  0  0  0
   11.7897  -11.5010    0.0000 C   0  0  0  0  0  0  0  0  0  0  0  0
   12.5042  -11.0885    0.0000 C   0  0  0  0  0  0  0  0  0  0  0  0
   13.2186  -11.5010    0.0000 C   0  0  0  0  0  0  0  0  0  0  0  0
   13.9331  -11.0885    0.0000 C   0  0  0  0  0  0  0  0  0  0  0  0
   13.9331  -10.2635    0.0000 C   0  0  0  0  0  0  0  0  0  0  0  0
   13.2186   -9.8510    0.0000 C   0  0  0  0  0  0  0  0  0  0  0  0
   12.5042  -10.2635    0.0000 C   0  0  0  0  0  0  0  0  0  0  0  0
   11.7897   -9.8510    0.0000 O   0  0  0  0  0  0  0  0  0  0  0  0
   14.6476  -11.5010    0.0000 C   0  0  0  0  0  0  0  0  0  0  0  0
   15.3620  -11.0885    0.0000 C   0  0  0  0  0  0  0  0  0  0  0  0
   15.3620  -10.2635    0.0000 C   0  0  0  0  0  0  0  0  0  0  0  0
   14.6476   -9.8510    0.0000 O   0  0  0  0  0  0  0  0  0  0  0  0
   14.6476  -12.3260    0.0000 O   0  0  0  0  0  0  0  0  0  0  0  0
   13.2186   -9.0260    0.0000 C   0  0  0  0  0  0  0  0  0  0  0  0
   13.9331   -8.6135    0.0000 C   0  0  0  0  0  0  0  0  0  0  0  0
   13.9331   -7.7885    0.0000 C   0  0  0  0  0  0  0  0  0  0  0  0
   13.2186   -7.3760    0.0000 C   0  0  0  0  0  0  0  0  0  0  0  0
   14.6476   -7.3760    0.0000 C   0  0  0  0  0  0  0  0  0  0  0  0
   10.2502  -10.2635    0.0000 C   0  0  0  0  0  0  0  0  0  0  0  0
   10.6627   -9.5490    0.0000 C   0  0  0  0  0  0  0  0  0  0  0  0
   16.0765   -9.8510    0.0000 C   0  0  0  0  0  0  0  0  0  0  0  0
   16.0765   -9.0260    0.0000 C   0  0  0  0  0  0  0  0  0  0  0  0
   16.7910   -8.6135    0.0000 C   0  0  0  0  0  0  0  0  0  0  0  0
   17.5055   -9.0260    0.0000 C   0  0  0  0  0  0  0  0  0  0  0  0
   17.5055   -9.8510    0.0000 C   0  0  0  0  0  0  0  0  0  0  0  0
   16.7910  -10.2635    0.0000 C   0  0  0  0  0  0  0  0  0  0  0  0
   18.2199   -8.6135    0.0000 O   0  0  0  0  0  0  0  0  0  0  0  0
   13.2186  -12.3260    0.0000 O   0  0  0  0  0  0  0  0  0  0  0  0
  1  2  1  0  0  0  0
  2  3  2  0  0  0  0
  3  4  1  0  0  0  0
  4  5  1  0  0  0  0
  5  6  2  0  0  0  0
  6  7  1  0  0  0  0
  7  8  2  0  0  0  0
  8  9  1  0  0  0  0
  4  9  2  0  0  0  0
  9 10  1  0  0  0  0
  1 10  1  0  0  0  0
 11 12  1  0  0  0  0
 12 13  1  0  0  0  0
 13 14  1  0  0  0  0
 11  6  1  0  0  0  0
 14  7  1  0  0  0  0
 11 15  2  0  0  0  0
 16 17  1  0  0  0  0
 17 18  2  0  0  0  0
 18 19  1  0  0  0  0
 18 20  1  0  0  0  0
  8 16  1  0  0  0  0
  1 21  1  0  0  0  0
  1 22  1  0  0  0  0
 23 24  1  0  0  0  0
 24 25  2  0  0  0  0
 25 26  1  0  0  0  0
 26 27  2  0  0  0  0
 27 28  1  0  0  0  0
 23 28  2  0  0  0  0
 26 29  1  0  0  0  0
 13 23  1  0  0  0  0
  5 30  1  0  0  0  0
M  END
>  <cdx:groupId>
100966

>  <cdx:fragmentId>
100876

$$$$
