84744.cdx
  Mrv1902 05222410202D          

 54 59  0  0  0  0            999 V2000
    3.8393  -11.5459    0.0000 C   0  0  2  0  0  0  0  0  0  0  0  0
    3.5658  -12.3243    0.0000 C   0  0  2  0  0  0  0  0  0  0  0  0
    4.1031  -12.9503    0.0000 C   0  0  1  0  0  0  0  0  0  0  0  0
    4.9139  -12.7980    0.0000 C   0  0  2  0  0  0  0  0  0  0  0  0
    5.1874  -12.0196    0.0000 C   0  0  1  0  0  0  0  0  0  0  0  0
    4.6501  -11.3936    0.0000 O   0  0  0  0  0  0  0  0  0  0  0  0
    5.9982  -11.8673    0.0000 O   0  0  0  0  0  0  0  0  0  0  0  0
    6.2717  -11.0889    0.0000 C   0  0  0  0  0  0  0  0  0  0  0  0
    5.7344  -10.4629    0.0000 C   0  0  0  0  0  0  0  0  0  0  0  0
    4.9236  -10.6153    0.0000 O   0  0  0  0  0  0  0  0  0  0  0  0
    7.0825  -10.9366    0.0000 C   0  0  0  0  0  0  0  0  0  0  0  0
    7.3560  -10.1582    0.0000 C   0  0  0  0  0  0  0  0  0  0  0  0
    6.8187   -9.5322    0.0000 C   0  0  0  0  0  0  0  0  0  0  0  0
    6.0079   -9.6846    0.0000 C   0  0  0  0  0  0  0  0  0  0  0  0
    3.3019  -10.9199    0.0000 C   0  0  0  0  0  0  0  0  0  0  0  0
    2.4911  -11.0723    0.0000 O   0  0  0  0  0  0  0  0  0  0  0  0
    4.3862   -9.9892    0.0000 C   0  0  0  0  0  0  0  0  0  0  0  0
    7.6199  -11.5626    0.0000 O   0  0  0  0  0  0  0  0  0  0  0  0
    8.4307  -11.4103    0.0000 C   0  0  0  0  0  0  0  0  0  0  0  0
    3.8297  -13.7287    0.0000 O   0  0  0  0  0  0  0  0  0  0  0  0
    2.7550  -12.4766    0.0000 O   0  0  0  0  0  0  0  0  0  0  0  0
    5.4513  -13.4240    0.0000 O   0  0  0  0  0  0  0  0  0  0  0  0
    7.0921   -8.7539    0.0000 C   0  0  2  0  0  0  0  0  0  0  0  0
    7.8699   -8.4788    0.0000 C   0  0  2  0  0  0  0  0  0  0  0  0
    7.8487   -7.6541    0.0000 C   0  0  1  0  0  0  0  0  0  0  0  0
    7.0578   -7.4194    0.0000 C   0  0  0  0  0  0  0  0  0  0  0  0
    6.5902   -8.0991    0.0000 O   0  0  0  0  0  0  0  0  0  0  0  0
    8.6609   -8.7135    0.0000 C   0  0  0  0  0  0  0  0  0  0  0  0
    9.1284   -8.0338    0.0000 O   0  0  0  0  0  0  0  0  0  0  0  0
    8.6265   -7.3790    0.0000 C   0  0  1  0  0  0  0  0  0  0  0  0
    8.9000   -6.6007    0.0000 C   0  0  0  0  0  0  0  0  0  0  0  0
    9.7108   -6.4483    0.0000 C   0  0  0  0  0  0  0  0  0  0  0  0
    9.9843   -5.6700    0.0000 C   0  0  0  0  0  0  0  0  0  0  0  0
    9.4469   -5.0440    0.0000 C   0  0  0  0  0  0  0  0  0  0  0  0
    8.6361   -5.1963    0.0000 C   0  0  0  0  0  0  0  0  0  0  0  0
    8.3626   -5.9747    0.0000 C   0  0  0  0  0  0  0  0  0  0  0  0
    9.7204   -4.2656    0.0000 O   0  0  0  0  0  0  0  0  0  0  0  0
   10.7951   -5.5176    0.0000 O   0  0  0  0  0  0  0  0  0  0  0  0
   11.3324   -6.1437    0.0000 C   0  0  0  0  0  0  0  0  0  0  0  0
    8.0988   -4.5703    0.0000 O   0  0  0  0  0  0  0  0  0  0  0  0
    7.2880   -4.7226    0.0000 C   0  0  0  0  0  0  0  0  0  0  0  0
    7.8487   -6.8291    0.0000 H   0  0  0  0  0  0  0  0  0  0  0  0
    7.8699   -9.3038    0.0000 H   0  0  0  0  0  0  0  0  0  0  0  0
   10.5312   -4.1133    0.0000 C   0  0  2  0  0  0  0  0  0  0  0  0
   11.0686   -4.7393    0.0000 O   0  0  0  0  0  0  0  0  0  0  0  0
   11.8794   -4.5869    0.0000 C   0  0  1  0  0  0  0  0  0  0  0  0
   12.1528   -3.8086    0.0000 C   0  0  2  0  0  0  0  0  0  0  0  0
   11.6155   -3.1826    0.0000 C   0  0  1  0  0  0  0  0  0  0  0  0
   10.8047   -3.3349    0.0000 C   0  0  1  0  0  0  0  0  0  0  0  0
   12.4167   -5.2130    0.0000 C   0  0  0  0  0  0  0  0  0  0  0  0
   11.8890   -2.4042    0.0000 O   0  0  0  0  0  0  0  0  0  0  0  0
   10.2674   -2.7089    0.0000 O   0  0  0  0  0  0  0  0  0  0  0  0
   12.9637   -3.6563    0.0000 O   0  0  0  0  0  0  0  0  0  0  0  0
   13.2275   -5.0606    0.0000 O   0  0  0  0  0  0  0  0  0  0  0  0
  1  2  1  0  0  0  0
  2  3  1  0  0  0  0
  3  4  1  0  0  0  0
  4  5  1  0  0  0  0
  5  6  1  0  0  0  0
  6  1  1  0  0  0  0
  5  7  1  1  0  0  0
  7  8  1  0  0  0  0
  8  9  1  0  0  0  0
  9 10  1  0  0  0  0
  8 11  2  0  0  0  0
 11 12  1  0  0  0  0
 12 13  2  0  0  0  0
 13 14  1  0  0  0  0
 14  9  2  0  0  0  0
  1 15  1  1  0  0  0
 15 16  1  0  0  0  0
 10 17  1  0  0  0  0
 11 18  1  0  0  0  0
 18 19  1  0  0  0  0
  3 20  1  1  0  0  0
  2 21  1  6  0  0  0
  4 22  1  6  0  0  0
 23 13  1  1  0  0  0
 23 24  1  0  0  0  0
 24 25  1  0  0  0  0
 25 26  1  0  0  0  0
 26 27  1  0  0  0  0
 27 23  1  0  0  0  0
 24 28  1  0  0  0  0
 28 29  1  0  0  0  0
 29 30  1  0  0  0  0
 30 25  1  0  0  0  0
 30 31  1  6  0  0  0
 31 32  2  0  0  0  0
 32 33  1  0  0  0  0
 33 34  2  0  0  0  0
 34 35  1  0  0  0  0
 35 36  2  0  0  0  0
 36 31  1  0  0  0  0
 34 37  1  0  0  0  0
 33 38  1  0  0  0  0
 38 39  1  0  0  0  0
 35 40  1  0  0  0  0
 40 41  1  0  0  0  0
 25 42  1  6  0  0  0
 24 43  1  1  0  0  0
 44 37  1  1  0  0  0
 44 45  1  0  0  0  0
 45 46  1  0  0  0  0
 46 47  1  0  0  0  0
 47 48  1  0  0  0  0
 48 49  1  0  0  0  0
 49 44  1  0  0  0  0
 46 50  1  1  0  0  0
 48 51  1  1  0  0  0
 49 52  1  6  0  0  0
 47 53  1  6  0  0  0
 50 54  1  0  0  0  0
M  END
>  <cdx:fragmentId>
5

$$$$
