847548.cdx
  Mrv1902 05222410192D          

 37 41  0  0  0  0            999 V2000
    5.0839   -8.3531    0.0000 C   0  0  0  0  0  0  0  0  0  0  0  0
    5.0839   -9.1781    0.0000 C   0  0  2  0  0  0  0  0  0  0  0  0
    5.7984   -9.5906    0.0000 C   0  0  2  0  0  0  0  0  0  0  0  0
    6.5128   -9.1781    0.0000 C   0  0  1  0  0  0  0  0  0  0  0  0
    6.5128   -8.3531    0.0000 C   0  0  2  0  0  0  0  0  0  0  0  0
    5.7984   -7.9406    0.0000 C   0  0  0  0  0  0  0  0  0  0  0  0
    7.2273   -9.5906    0.0000 C   0  0  0  0  0  0  0  0  0  0  0  0
    7.9418   -9.1781    0.0000 C   0  0  0  0  0  0  0  0  0  0  0  0
    7.9418   -8.3531    0.0000 C   0  0  2  0  0  0  0  0  0  0  0  0
    7.2273   -7.9406    0.0000 C   0  0  2  0  0  0  0  0  0  0  0  0
    8.6563   -7.9406    0.0000 C   0  0  1  0  0  0  0  0  0  0  0  0
    8.6563   -7.1156    0.0000 C   0  0  0  0  0  0  0  0  0  0  0  0
    7.9418   -6.7031    0.0000 C   0  0  0  0  0  0  0  0  0  0  0  0
    7.2273   -7.1156    0.0000 C   0  0  0  0  0  0  0  0  0  0  0  0
    9.3707   -8.3531    0.0000 C   0  0  0  0  0  0  0  0  0  0  0  0
   10.0852   -7.9406    0.0000 C   0  0  0  0  0  0  0  0  0  0  0  0
   10.0852   -7.1156    0.0000 C   0  0  2  0  0  0  0  0  0  0  0  0
    9.3707   -6.7031    0.0000 C   0  0  1  0  0  0  0  0  0  0  0  0
   10.7997   -6.7031    0.0000 C   0  0  0  0  0  0  0  0  0  0  0  0
   10.7997   -5.8781    0.0000 C   0  0  0  0  0  0  0  0  0  0  0  0
   10.0852   -5.4656    0.0000 C   0  0  2  0  0  0  0  0  0  0  0  0
    9.3707   -5.8781    0.0000 C   0  0  2  0  0  0  0  0  0  0  0  0
    6.5128   -7.5281    0.0000 C   0  0  0  0  0  0  0  0  0  0  0  0
    7.9418   -7.5281    0.0000 C   0  0  0  0  0  0  0  0  0  0  0  0
    8.6563   -6.2906    0.0000 H   0  0  0  0  0  0  0  0  0  0  0  0
   10.7997   -7.5281    0.0000 C   0  0  0  0  0  0  0  0  0  0  0  0
    8.6563   -5.4656    0.0000 C   0  0  0  0  0  0  0  0  0  0  0  0
    4.3694   -9.5906    0.0000 O   0  0  0  0  0  0  0  0  0  0  0  0
    6.2109  -10.3051    0.0000 C   0  0  0  0  0  0  0  0  0  0  0  0
    6.5128  -10.0031    0.0000 H   0  0  0  0  0  0  0  0  0  0  0  0
    7.2273   -8.7656    0.0000 H   0  0  0  0  0  0  0  0  0  0  0  0
    8.6563   -8.7656    0.0000 C   0  0  0  0  0  0  0  0  0  0  0  0
   10.0852   -4.6406    0.0000 C   0  0  0  0  0  0  0  0  0  0  0  0
    5.3859  -10.3051    0.0000 C   0  0  0  0  0  0  0  0  0  0  0  0
    4.5609  -10.3051    0.0000 O   0  0  0  0  0  0  0  0  0  0  0  0
    5.7984  -11.0196    0.0000 O   0  0  0  0  0  0  0  0  0  0  0  0
    6.5128   -6.7031    0.0000 O   0  0  0  0  0  0  0  0  0  0  0  0
  1  2  1  0  0  0  0
  2  3  1  0  0  0  0
  3  4  1  0  0  0  0
  4  5  1  0  0  0  0
  5  6  1  0  0  0  0
  6  1  1  0  0  0  0
  4  7  1  0  0  0  0
  7  8  1  0  0  0  0
  8  9  1  0  0  0  0
  9 10  1  0  0  0  0
 10  5  1  0  0  0  0
  9 11  1  0  0  0  0
 11 12  1  0  0  0  0
 12 13  2  0  0  0  0
 13 14  1  0  0  0  0
 14 10  1  0  0  0  0
 11 15  1  0  0  0  0
 15 16  1  0  0  0  0
 16 17  1  0  0  0  0
 17 18  1  0  0  0  0
 18 12  1  0  0  0  0
 17 19  1  0  0  0  0
 19 20  1  0  0  0  0
 20 21  1  0  0  0  0
 21 22  1  0  0  0  0
 22 18  1  0  0  0  0
  5 23  1  1  0  0  0
  9 24  1  1  0  0  0
 18 25  1  1  0  0  0
 17 26  1  1  0  0  0
 22 27  1  1  0  0  0
  2 28  1  6  0  0  0
  3 29  1  6  0  0  0
  4 30  1  6  0  0  0
 10 31  1  6  0  0  0
 11 32  1  6  0  0  0
 21 33  1  6  0  0  0
  3 34  1  1  0  0  0
 34 35  2  0  0  0  0
 34 36  1  0  0  0  0
 14 37  2  0  0  0  0
M  END
>  <cdx:fragmentId>
156

$$$$
