84771.cdx
  Mrv1902 05222410232D          

 25 27  0  0  0  0            999 V2000
    4.2905   -8.5800    0.0000 C   0  0  0  0  0  0  0  0  0  0  0  0
    4.2905   -9.4050    0.0000 C   0  0  0  0  0  0  0  0  0  0  0  0
    5.0050   -9.8175    0.0000 C   0  0  1  0  0  0  0  0  0  0  0  0
    5.7195   -9.4050    0.0000 C   0  0  2  0  0  0  0  0  0  0  0  0
    5.7195   -8.5800    0.0000 C   0  0  1  0  0  0  0  0  0  0  0  0
    5.0050   -8.1675    0.0000 C   0  0  0  0  0  0  0  0  0  0  0  0
    6.4339   -9.8175    0.0000 C   0  0  0  0  0  0  0  0  0  0  0  0
    7.1484   -9.4050    0.0000 C   0  0  0  0  0  0  0  0  0  0  0  0
    7.1484   -8.5800    0.0000 C   0  0  0  0  0  0  0  0  0  0  0  0
    6.4339   -8.1675    0.0000 C   0  0  0  0  0  0  0  0  0  0  0  0
    7.8629   -8.1675    0.0000 C   0  0  0  0  0  0  0  0  0  0  0  0
    7.8629   -7.3425    0.0000 C   0  0  2  0  0  0  0  0  0  0  0  0
    7.1484   -6.9300    0.0000 C   0  0  0  0  0  0  0  0  0  0  0  0
    6.4339   -7.3425    0.0000 C   0  0  0  0  0  0  0  0  0  0  0  0
    8.5774   -6.9300    0.0000 C   0  0  0  0  0  0  0  0  0  0  0  0
    9.2918   -7.3425    0.0000 C   0  0  0  0  0  0  0  0  0  0  0  0
    7.8629   -6.5175    0.0000 C   0  0  0  0  0  0  0  0  0  0  0  0
    7.8629   -9.8175    0.0000 O   0  0  0  0  0  0  0  0  0  0  0  0
    5.7195   -6.9300    0.0000 O   0  0  0  0  0  0  0  0  0  0  0  0
    5.7195   -7.7550    0.0000 C   0  0  0  0  0  0  0  0  0  0  0  0
    5.7195  -10.2300    0.0000 H   0  0  0  0  0  0  0  0  0  0  0  0
    5.4175  -10.5320    0.0000 C   0  0  0  0  0  0  0  0  0  0  0  0
    4.5925  -10.5320    0.0000 C   0  0  0  0  0  0  0  0  0  0  0  0
    5.0050  -11.2464    0.0000 O   0  0  0  0  0  0  0  0  0  0  0  0
    3.7675  -10.5320    0.0000 O   0  0  0  0  0  0  0  0  0  0  0  0
  1  2  1  0  0  0  0
  2  3  1  0  0  0  0
  3  4  1  0  0  0  0
  4  5  1  0  0  0  0
  5  6  1  0  0  0  0
  6  1  1  0  0  0  0
  4  7  1  0  0  0  0
  7  8  1  0  0  0  0
  8  9  1  0  0  0  0
  9 10  2  0  0  0  0
 10  5  1  0  0  0  0
  9 11  1  0  0  0  0
 11 12  1  0  0  0  0
 12 13  1  0  0  0  0
 13 14  1  0  0  0  0
 14 10  1  0  0  0  0
 12 15  1  0  0  0  0
 15 16  2  0  0  0  0
 12 17  1  1  0  0  0
  8 18  2  0  0  0  0
 14 19  2  0  0  0  0
  5 20  1  6  0  0  0
  4 21  1  1  0  0  0
  3 22  1  0  0  0  0
  3 23  1  6  0  0  0
 23 24  1  0  0  0  0
 23 25  2  0  0  0  0
M  END
>  <cdx:fragmentId>
84

$$$$
