847841.cdx
  Mrv1902 05222410222D          

 12 13  0  0  0  0            999 V2000
    7.2180   -6.8451    0.0000 C   0  0  0  0  0  0  0  0  0  0  0  0
    8.0028   -7.0994    0.0000 C   0  0  0  0  0  0  0  0  0  0  0  0
    8.4872   -6.4316    0.0000 C   0  0  0  0  0  0  0  0  0  0  0  0
    8.0018   -5.7645    0.0000 C   0  0  0  0  0  0  0  0  0  0  0  0
    7.2174   -6.0201    0.0000 C   0  0  0  0  0  0  0  0  0  0  0  0
    6.5032   -6.4331    0.0000 C   0  0  0  0  0  0  0  0  0  0  0  0
    8.2584   -7.8838    0.0000 C   0  0  0  0  0  0  0  0  0  0  0  0
    9.0655   -8.0547    0.0000 O   0  0  0  0  0  0  0  0  0  0  0  0
    7.3685   -8.2661    0.0000 C   0  0  0  0  0  0  0  0  0  0  0  0
    6.8830   -7.5990    0.0000 C   0  0  0  0  0  0  0  0  0  0  0  0
    6.0626   -7.6859    0.0000 C   0  0  0  0  0  0  0  0  0  0  0  0
    8.2561   -4.9797    0.0000 C   0  0  0  0  0  0  0  0  0  0  0  0
  1  2  1  0  0  0  0
  2  3  1  0  0  0  0
  3  4  2  0  0  0  0
  4  5  1  0  0  0  0
  5  6  1  0  0  0  0
  1  6  1  0  0  0  0
  1  5  1  0  0  0  0
  7  8  2  0  0  0  0
  2  7  1  0  0  0  0
  9 10  1  0  0  0  0
 10 11  1  0  0  0  0
  1 10  1  0  0  0  0
  4 12  1  0  0  0  0
M  END
>  <cdx:fragmentId>
5

$$$$
