847856.cdx
  Mrv1902 05222410222D          

 34 36  0  0  0  0            999 V2000
    5.0818   -9.5364    0.0000 O   0  0  0  0  0  0  0  0  0  0  0  0
    5.0818  -10.3614    0.0000 C   0  0  0  0  0  0  0  0  0  0  0  0
    5.7963  -10.7739    0.0000 C   0  0  0  0  0  0  0  0  0  0  0  0
    6.5108  -10.3614    0.0000 C   0  0  0  0  0  0  0  0  0  0  0  0
    6.5108   -9.5364    0.0000 C   0  0  0  0  0  0  0  0  0  0  0  0
    5.7963   -9.1239    0.0000 C   0  0  0  0  0  0  0  0  0  0  0  0
    5.7963  -11.5989    0.0000 O   0  0  0  0  0  0  0  0  0  0  0  0
    7.2252   -9.1239    0.0000 O   0  0  0  0  0  0  0  0  0  0  0  0
    5.7963   -8.2989    0.0000 C   0  0  0  0  0  0  0  0  0  0  0  0
    4.3674  -10.7739    0.0000 C   0  0  0  0  0  0  0  0  0  0  0  0
    4.3674  -11.5989    0.0000 O   0  0  0  0  0  0  0  0  0  0  0  0
    7.2252  -10.7739    0.0000 O   0  0  0  0  0  0  0  0  0  0  0  0
    7.9397   -9.5364    0.0000 O   0  0  0  0  0  0  0  0  0  0  0  0
    7.9397  -10.3614    0.0000 C   0  0  0  0  0  0  0  0  0  0  0  0
    8.6542  -10.7739    0.0000 C   0  0  0  0  0  0  0  0  0  0  0  0
    9.3686  -10.3614    0.0000 C   0  0  0  0  0  0  0  0  0  0  0  0
    9.3686   -9.5364    0.0000 C   0  0  0  0  0  0  0  0  0  0  0  0
    8.6542   -9.1239    0.0000 C   0  0  0  0  0  0  0  0  0  0  0  0
   10.0831  -10.7739    0.0000 O   0  0  0  0  0  0  0  0  0  0  0  0
   10.7976  -10.3614    0.0000 C   0  0  0  0  0  0  0  0  0  0  0  0
   10.0831   -9.1239    0.0000 O   0  0  0  0  0  0  0  0  0  0  0  0
    8.6542  -11.5989    0.0000 O   0  0  0  0  0  0  0  0  0  0  0  0
    8.6542   -8.2989    0.0000 C   0  0  0  0  0  0  0  0  0  0  0  0
    9.3686   -7.8864    0.0000 O   0  0  0  0  0  0  0  0  0  0  0  0
   10.0831   -6.6489    0.0000 O   0  0  0  0  0  0  0  0  0  0  0  0
    9.3686   -7.0614    0.0000 C   0  0  0  0  0  0  0  0  0  0  0  0
    8.6542   -6.6489    0.0000 C   0  0  0  0  0  0  0  0  0  0  0  0
    8.6542   -5.8239    0.0000 C   0  0  0  0  0  0  0  0  0  0  0  0
    9.3686   -5.4114    0.0000 C   0  0  0  0  0  0  0  0  0  0  0  0
   10.0831   -5.8239    0.0000 C   0  0  0  0  0  0  0  0  0  0  0  0
    7.9397   -5.4114    0.0000 O   0  0  0  0  0  0  0  0  0  0  0  0
    7.2252   -5.8239    0.0000 C   0  0  0  0  0  0  0  0  0  0  0  0
    9.3686   -4.5864    0.0000 O   0  0  0  0  0  0  0  0  0  0  0  0
    7.9397   -7.0614    0.0000 O   0  0  0  0  0  0  0  0  0  0  0  0
  1  2  1  0  0  0  0
  2  3  1  0  0  0  0
  3  4  1  0  0  0  0
  4  5  1  0  0  0  0
  5  6  1  0  0  0  0
  1  6  1  0  0  0  0
  3  7  1  0  0  0  0
  5  8  1  0  0  0  0
  6  9  1  0  0  0  0
 10 11  1  0  0  0  0
  2 10  1  0  0  0  0
 13 14  1  0  0  0  0
 14 15  1  0  0  0  0
 15 16  1  0  0  0  0
 16 17  1  0  0  0  0
 17 18  1  0  0  0  0
 13 18  1  0  0  0  0
 19 20  1  0  0  0  0
 16 19  1  0  0  0  0
 17 21  1  0  0  0  0
 15 22  1  0  0  0  0
 25 26  1  0  0  0  0
 26 27  1  0  0  0  0
 27 28  1  0  0  0  0
 28 29  1  0  0  0  0
 29 30  1  0  0  0  0
 25 30  1  0  0  0  0
 31 32  1  0  0  0  0
 28 31  1  0  0  0  0
 29 33  1  0  0  0  0
 27 34  1  0  0  0  0
 24 26  1  0  0  0  0
 23 24  1  0  0  0  0
 18 23  1  0  0  0  0
 12 14  1  0  0  0  0
  4 12  1  0  0  0  0
M  END
>  <cdx:fragmentId>
147605

$$$$
