84797.cdx
  Mrv1902 05222410232D          

 33 36  0  0  0  0            999 V2000
    4.2905   -8.5800    0.0000 C   0  0  0  0  0  0  0  0  0  0  0  0
    4.2905   -9.4050    0.0000 C   0  0  0  0  0  0  0  0  0  0  0  0
    5.0050   -9.8175    0.0000 C   0  0  1  0  0  0  0  0  0  0  0  0
    5.7195   -9.4050    0.0000 C   0  0  2  0  0  0  0  0  0  0  0  0
    5.7195   -8.5800    0.0000 C   0  0  1  0  0  0  0  0  0  0  0  0
    5.0050   -8.1675    0.0000 C   0  0  0  0  0  0  0  0  0  0  0  0
    6.4339   -9.8175    0.0000 C   0  0  0  0  0  0  0  0  0  0  0  0
    7.1484   -9.4050    0.0000 C   0  0  0  0  0  0  0  0  0  0  0  0
    7.1484   -8.5800    0.0000 C   0  0  0  0  0  0  0  0  0  0  0  0
    6.4339   -8.1675    0.0000 C   0  0  1  0  0  0  0  0  0  0  0  0
    7.8629   -8.1675    0.0000 C   0  0  0  0  0  0  0  0  0  0  0  0
    7.8629   -7.3425    0.0000 C   0  0  1  0  0  0  0  0  0  0  0  0
    7.1484   -6.9300    0.0000 C   0  0  0  0  0  0  0  0  0  0  0  0
    6.4339   -7.3425    0.0000 C   0  0  0  0  0  0  0  0  0  0  0  0
    5.7195   -7.7550    0.0000 C   0  0  0  0  0  0  0  0  0  0  0  0
    5.7195  -10.2300    0.0000 H   0  0  0  0  0  0  0  0  0  0  0  0
    5.4175  -10.5320    0.0000 C   0  0  0  0  0  0  0  0  0  0  0  0
    4.5925  -10.5320    0.0000 C   0  0  0  0  0  0  0  0  0  0  0  0
    5.0050  -11.2464    0.0000 O   0  0  0  0  0  0  0  0  0  0  0  0
    3.7675  -10.5320    0.0000 O   0  0  0  0  0  0  0  0  0  0  0  0
    8.5774   -7.7550    0.0000 C   0  0  1  0  0  0  0  0  0  0  0  0
    7.8629   -8.9925    0.0000 C   0  0  0  0  0  0  0  0  0  0  0  0
    8.9899   -8.4695    0.0000 O   0  0  0  0  0  0  0  0  0  0  0  0
    6.4339   -8.9925    0.0000 H   0  0  0  0  0  0  0  0  0  0  0  0
    8.2754   -6.6280    0.0000 H   0  0  0  0  0  0  0  0  0  0  0  0
    9.3742   -7.5415    0.0000 C   0  0  0  0  0  0  0  0  0  0  0  0
    9.9576   -8.1248    0.0000 O   0  0  0  0  0  0  0  0  0  0  0  0
   10.7545   -7.9113    0.0000 C   0  0  0  0  0  0  0  0  0  0  0  0
   11.3379   -8.4947    0.0000 C   0  0  0  0  0  0  0  0  0  0  0  0
   10.9680   -7.1144    0.0000 O   0  0  0  0  0  0  0  0  0  0  0  0
   12.1347   -8.2811    0.0000 C   0  0  0  0  0  0  0  0  0  0  0  0
   12.7181   -8.8645    0.0000 C   0  0  0  0  0  0  0  0  0  0  0  0
   12.3483   -7.4843    0.0000 C   0  0  0  0  0  0  0  0  0  0  0  0
  1  2  1  0  0  0  0
  2  3  1  0  0  0  0
  3  4  1  0  0  0  0
  4  5  1  0  0  0  0
  5  6  1  0  0  0  0
  6  1  1  0  0  0  0
  4  7  1  0  0  0  0
  7  8  1  0  0  0  0
  8  9  1  0  0  0  0
  9 10  1  0  0  0  0
 10  5  1  0  0  0  0
  9 11  1  0  0  0  0
 11 12  1  0  0  0  0
 12 13  1  0  0  0  0
 13 14  1  0  0  0  0
 14 10  1  0  0  0  0
  5 15  1  6  0  0  0
  4 16  1  1  0  0  0
  3 17  1  0  0  0  0
  3 18  1  6  0  0  0
 18 19  1  0  0  0  0
 18 20  2  0  0  0  0
 12 21  1  0  0  0  0
  9 22  1  0  0  0  0
 21 22  1  0  0  0  0
 21 23  1  6  0  0  0
 10 24  1  1  0  0  0
 12 25  1  6  0  0  0
 21 26  1  0  0  0  0
 26 27  1  0  0  0  0
 27 28  1  0  0  0  0
 28 29  1  0  0  0  0
 28 30  2  0  0  0  0
 29 31  1  0  0  0  0
 31 32  1  0  0  0  0
 31 33  1  0  0  0  0
M  END
>  <cdx:fragmentId>
84

$$$$
