847922.cdx
  Mrv1902 05222410222D          

 34 36  0  0  0  0            999 V2000
    6.8040   -6.2309    0.0000 O   0  0  0  0  0  0  0  0  0  0  0  0
    7.5185   -6.6434    0.0000 C   0  0  0  0  0  0  0  0  0  0  0  0
    8.2330   -6.2309    0.0000 C   0  0  0  0  0  0  0  0  0  0  0  0
    8.9474   -6.6434    0.0000 C   0  0  0  0  0  0  0  0  0  0  0  0
    9.6619   -6.2309    0.0000 C   0  0  0  0  0  0  0  0  0  0  0  0
   10.3764   -6.6434    0.0000 C   0  0  0  0  0  0  0  0  0  0  0  0
   10.3764   -7.4684    0.0000 C   0  0  0  0  0  0  0  0  0  0  0  0
    9.6619   -7.8809    0.0000 C   0  0  0  0  0  0  0  0  0  0  0  0
    8.9474   -7.4684    0.0000 C   0  0  0  0  0  0  0  0  0  0  0  0
   11.0909   -7.8809    0.0000 O   0  0  0  0  0  0  0  0  0  0  0  0
   11.0909   -6.2309    0.0000 O   0  0  0  0  0  0  0  0  0  0  0  0
    5.3751   -8.7059    0.0000 O   0  0  0  0  0  0  0  0  0  0  0  0
    3.9461   -7.8809    0.0000 O   0  0  0  0  0  0  0  0  0  0  0  0
    3.2317   -6.6434    0.0000 O   0  0  0  0  0  0  0  0  0  0  0  0
    3.9461   -6.2309    0.0000 C   0  0  0  0  0  0  0  0  0  0  0  0
    4.6606   -6.6434    0.0000 C   0  0  2  0  0  0  0  0  0  0  0  0
    4.6606   -7.4684    0.0000 C   0  0  2  0  0  0  0  0  0  0  0  0
    5.3751   -7.8809    0.0000 C   0  0  1  0  0  0  0  0  0  0  0  0
    6.0896   -7.4684    0.0000 C   0  0  2  0  0  0  0  0  0  0  0  0
    6.0896   -6.6434    0.0000 C   0  0  1  0  0  0  0  0  0  0  0  0
    5.3751   -6.2309    0.0000 O   0  0  0  0  0  0  0  0  0  0  0  0
    4.6234  -12.4007    0.0000 O   0  0  0  0  0  0  0  0  0  0  0  0
    3.2013  -11.5640    0.0000 O   0  0  0  0  0  0  0  0  0  0  0  0
    4.6437   -9.9258    0.0000 C   0  0  0  0  0  0  0  0  0  0  0  0
    3.9259  -10.3324    0.0000 C   0  0  0  0  0  0  0  0  0  0  0  0
    3.9191  -11.1573    0.0000 C   0  0  0  0  0  0  0  0  0  0  0  0
    4.6302  -11.5757    0.0000 C   0  0  0  0  0  0  0  0  0  0  0  0
    5.3480  -11.1691    0.0000 C   0  0  0  0  0  0  0  0  0  0  0  0
    5.3548  -10.3441    0.0000 C   0  0  0  0  0  0  0  0  0  0  0  0
    6.8040   -7.8809    0.0000 O   0  0  0  0  0  0  0  0  0  0  0  0
    7.5083   -9.1243    0.0000 O   0  0  0  0  0  0  0  0  0  0  0  0
    6.0726   -9.9375    0.0000 C   0  0  0  0  0  0  0  0  0  0  0  0
    6.0794   -9.1125    0.0000 C   0  0  0  0  0  0  0  0  0  0  0  0
    6.7973   -8.7059    0.0000 C   0  0  0  0  0  0  0  0  0  0  0  0
 19 30  1  6  0  0  0
 20  1  1  1  0  0  0
 18 12  1  1  0  0  0
 17 13  1  6  0  0  0
 16 15  1  1  0  0  0
 15 14  1  0  0  0  0
 21 16  1  0  0  0  0
 17 16  1  0  0  0  0
 18 17  1  0  0  0  0
 19 18  1  0  0  0  0
 20 19  1  0  0  0  0
 21 20  1  0  0  0  0
 32 29  1  0  0  0  0
 27 22  1  0  0  0  0
 26 23  1  0  0  0  0
 29 24  2  0  0  0  0
 25 24  1  0  0  0  0
 26 25  2  0  0  0  0
 27 26  1  0  0  0  0
 28 27  2  0  0  0  0
 29 28  1  0  0  0  0
 34 30  1  0  0  0  0
 34 31  2  0  0  0  0
 33 32  2  0  0  0  0
 34 33  1  0  0  0  0
  2  3  1  0  0  0  0
  1  2  1  0  0  0  0
  4  5  1  0  0  0  0
  5  6  2  0  0  0  0
  6  7  1  0  0  0  0
  7  8  2  0  0  0  0
  8  9  1  0  0  0  0
  4  9  2  0  0  0  0
  7 10  1  0  0  0  0
  6 11  1  0  0  0  0
  3  4  1  0  0  0  0
M  END
>  <cdx:fragmentId>
29898

$$$$
