84801.cdx
  Mrv1902 05222410212D          

 39 43  0  0  0  0            999 V2000
    4.2905   -8.5800    0.0000 C   0  0  0  0  0  0  0  0  0  0  0  0
    4.2905   -9.4050    0.0000 C   0  0  2  0  0  0  0  0  0  0  0  0
    5.0050   -9.8175    0.0000 C   0  0  1  0  0  0  0  0  0  0  0  0
    5.7195   -9.4050    0.0000 C   0  0  1  0  0  0  0  0  0  0  0  0
    5.7195   -8.5800    0.0000 C   0  0  2  0  0  0  0  0  0  0  0  0
    5.0050   -8.1675    0.0000 C   0  0  0  0  0  0  0  0  0  0  0  0
    6.4339   -9.8175    0.0000 C   0  0  0  0  0  0  0  0  0  0  0  0
    7.1484   -9.4050    0.0000 C   0  0  0  0  0  0  0  0  0  0  0  0
    7.1484   -8.5800    0.0000 C   0  0  2  0  0  0  0  0  0  0  0  0
    6.4339   -8.1675    0.0000 C   0  0  2  0  0  0  0  0  0  0  0  0
    5.7195   -7.7550    0.0000 C   0  0  0  0  0  0  0  0  0  0  0  0
    5.7195  -10.2300    0.0000 H   0  0  0  0  0  0  0  0  0  0  0  0
    5.4175  -10.5320    0.0000 C   0  0  0  0  0  0  0  0  0  0  0  0
    4.5925  -10.5320    0.0000 C   0  0  0  0  0  0  0  0  0  0  0  0
    7.8629   -8.1675    0.0000 C   0  0  1  0  0  0  0  0  0  0  0  0
    7.8629   -7.3425    0.0000 C   0  0  0  0  0  0  0  0  0  0  0  0
    7.1484   -6.9300    0.0000 C   0  0  0  0  0  0  0  0  0  0  0  0
    6.4339   -7.3425    0.0000 C   0  0  0  0  0  0  0  0  0  0  0  0
    8.5774   -8.5800    0.0000 C   0  0  0  0  0  0  0  0  0  0  0  0
    9.2918   -8.1675    0.0000 C   0  0  0  0  0  0  0  0  0  0  0  0
    9.2918   -7.3425    0.0000 C   0  0  2  0  0  0  0  0  0  0  0  0
    8.5774   -6.9300    0.0000 C   0  0  1  0  0  0  0  0  0  0  0  0
   10.0063   -6.9300    0.0000 C   0  0  0  0  0  0  0  0  0  0  0  0
   10.0063   -6.1050    0.0000 C   0  0  0  0  0  0  0  0  0  0  0  0
    9.2918   -5.6925    0.0000 C   0  0  1  0  0  0  0  0  0  0  0  0
    8.5774   -6.1050    0.0000 C   0  0  0  0  0  0  0  0  0  0  0  0
    8.8793   -4.9780    0.0000 C   0  0  0  0  0  0  0  0  0  0  0  0
    9.7043   -4.9780    0.0000 C   0  0  0  0  0  0  0  0  0  0  0  0
   10.0063   -7.7550    0.0000 C   0  0  0  0  0  0  0  0  0  0  0  0
    8.5774   -7.7550    0.0000 H   0  0  0  0  0  0  0  0  0  0  0  0
    7.1484   -7.7550    0.0000 C   0  0  0  0  0  0  0  0  0  0  0  0
    6.4339   -8.9925    0.0000 H   0  0  0  0  0  0  0  0  0  0  0  0
    7.8629   -8.9925    0.0000 C   0  0  0  0  0  0  0  0  0  0  0  0
    3.5761   -9.8175    0.0000 O   0  0  0  0  0  0  0  0  0  0  0  0
    9.2918   -4.2636    0.0000 O   0  0  0  0  0  0  0  0  0  0  0  0
   10.5293   -4.9780    0.0000 O   0  0  0  0  0  0  0  0  0  0  0  0
   10.7208   -7.3425    0.0000 O   0  0  0  0  0  0  0  0  0  0  0  0
   10.0063   -8.5800    0.0000 O   0  0  0  0  0  0  0  0  0  0  0  0
    5.0050  -11.2464    0.0000 O   0  0  0  0  0  0  0  0  0  0  0  0
  1  2  1  0  0  0  0
  2  3  1  0  0  0  0
  3  4  1  0  0  0  0
  4  5  1  0  0  0  0
  5  6  1  0  0  0  0
  6  1  1  0  0  0  0
  4  7  1  0  0  0  0
  7  8  1  0  0  0  0
  8  9  1  0  0  0  0
  9 10  1  0  0  0  0
 10  5  1  0  0  0  0
  5 11  1  1  0  0  0
  4 12  1  6  0  0  0
  3 13  1  0  0  0  0
  3 14  1  6  0  0  0
  9 15  1  0  0  0  0
 15 16  1  0  0  0  0
 16 17  2  0  0  0  0
 17 18  1  0  0  0  0
 18 10  1  0  0  0  0
 15 19  1  0  0  0  0
 19 20  1  0  0  0  0
 20 21  1  0  0  0  0
 21 22  1  0  0  0  0
 22 16  1  0  0  0  0
 21 23  1  0  0  0  0
 23 24  1  0  0  0  0
 24 25  1  0  0  0  0
 25 26  1  0  0  0  0
 26 22  1  0  0  0  0
 25 27  1  0  0  0  0
 25 28  1  6  0  0  0
 21 29  1  1  0  0  0
 22 30  1  1  0  0  0
  9 31  1  1  0  0  0
 10 32  1  6  0  0  0
 15 33  1  6  0  0  0
  2 34  1  6  0  0  0
 28 35  2  0  0  0  0
 28 36  1  0  0  0  0
 29 37  1  0  0  0  0
 29 38  2  0  0  0  0
 14 39  1  0  0  0  0
M  END
>  <cdx:fragmentId>
84

$$$$
