84825.cdx
  Mrv1902 05222410252D          

 11 11  0  0  0  0            999 V2000
    8.3887   -4.1000    0.0000 O   0  0  0  0  0  0  0  0  0  0  0  0
    7.6351   -3.7645    0.0000 C   0  0  0  0  0  0  0  0  0  0  0  0
    7.7213   -2.9440    0.0000 C   0  0  0  0  0  0  0  0  0  0  0  0
    8.5283   -2.7725    0.0000 C   0  0  0  0  0  0  0  0  0  0  0  0
    8.9408   -3.4870    0.0000 C   0  0  0  0  0  0  0  0  0  0  0  0
    6.9206   -4.1770    0.0000 C   0  0  0  0  0  0  0  0  0  0  0  0
    6.2061   -3.7645    0.0000 C   0  0  0  0  0  0  0  0  0  0  0  0
    5.4917   -4.1770    0.0000 C   0  0  0  0  0  0  0  0  0  0  0  0
    5.4917   -5.0020    0.0000 C   0  0  0  0  0  0  0  0  0  0  0  0
    4.7772   -3.7645    0.0000 C   0  0  0  0  0  0  0  0  0  0  0  0
    7.1082   -2.3920    0.0000 C   0  0  0  0  0  0  0  0  0  0  0  0
  1  2  1  0  0  0  0
  2  3  2  0  0  0  0
  3  4  1  0  0  0  0
  4  5  2  0  0  0  0
  1  5  1  0  0  0  0
  6  7  1  0  0  0  0
  7  8  2  0  0  0  0
  8  9  1  0  0  0  0
  8 10  1  0  0  0  0
  2  6  1  0  0  0  0
  3 11  1  0  0  0  0
M  END
>  <cdx:groupId>
35

>  <cdx:fragmentId>
5

$$$$
