10848304.cdx
  Mrv1902 05222410282D          

 18 20  0  0  0  0            999 V2000
    7.1410   -8.8338    0.0000 C   0  0  1  0  0  0  0  0  0  0  0  0
    6.4960   -9.3482    0.0000 C   0  0  0  0  0  0  0  0  0  0  0  0
    5.7114   -9.0933    0.0000 C   0  0  0  0  0  0  0  0  0  0  0  0
    5.2265   -9.7607    0.0000 C   0  0  0  0  0  0  0  0  0  0  0  0
    5.7114  -10.4282    0.0000 C   0  0  2  0  0  0  0  0  0  0  0  0
    6.4960  -10.1732    0.0000 C   0  0  0  0  0  0  0  0  0  0  0  0
    7.1410  -10.6876    0.0000 C   0  0  2  0  0  0  0  0  0  0  0  0
    7.9453  -10.5040    0.0000 C   0  0  2  0  0  0  0  0  0  0  0  0
    8.3033   -9.7607    0.0000 C   0  0  0  0  0  0  0  0  0  0  0  0
    7.9453   -9.0174    0.0000 C   0  0  0  0  0  0  0  0  0  0  0  0
    7.0619   -9.9017    0.0000 O   0  0  0  0  0  0  0  0  0  0  0  0
    5.4564   -8.3087    0.0000 O   0  0  0  0  0  0  0  0  0  0  0  0
    8.1583  -11.9170    0.0000 C   0  0  0  0  0  0  0  0  0  0  0  0
    8.4597  -11.1490    0.0000 C   0  0  0  0  0  0  0  0  0  0  0  0
    9.2755  -11.0261    0.0000 C   0  0  0  0  0  0  0  0  0  0  0  0
    5.4564  -11.2128    0.0000 C   0  0  0  0  0  0  0  0  0  0  0  0
    6.9574   -8.0295    0.0000 C   0  0  0  0  0  0  0  0  0  0  0  0
    6.9574  -11.4919    0.0000 O   0  0  0  0  0  0  0  0  0  0  0  0
  1  2  1  0  0  0  0
  2  3  1  0  0  0  0
  3  4  1  0  0  0  0
  4  5  1  0  0  0  0
  5  6  1  0  0  0  0
  6  7  1  0  0  0  0
  7  8  1  0  0  0  0
  8  9  1  0  0  0  0
  9 10  1  0  0  0  0
  1 10  1  0  0  0  0
  1 11  1  6  0  0  0
  8 11  1  6  0  0  0
  2  6  2  0  0  0  0
  3 12  2  0  0  0  0
 13 14  1  0  0  0  0
 14 15  1  0  0  0  0
  8 14  1  0  0  0  0
  5 16  1  6  0  0  0
  1 17  1  0  0  0  0
  7 18  1  6  0  0  0
M  END
>  <cdx:groupId>
61631

>  <cdx:fragmentId>
61578

$$$$
