848408.cdx
  Mrv1902 05222410232D          

 12 12  0  0  0  0            999 V2000
    8.6447   -7.2544    0.0000 C   0  0  0  0  0  0  0  0  0  0  0  0
    8.6448   -6.4294    0.0000 C   0  0  0  0  0  0  0  0  0  0  0  0
    9.3591   -7.6670    0.0000 O   0  0  0  0  0  0  0  0  0  0  0  0
    7.9297  -10.9668    0.0000 O   0  0  0  0  0  0  0  0  0  0  0  0
    6.5011   -8.4916    0.0000 C   0  0  0  0  0  0  0  0  0  0  0  0
    8.6445   -8.9044    0.0000 C   0  0  0  0  0  0  0  0  0  0  0  0
    8.6443   -9.7294    0.0000 C   0  0  0  0  0  0  0  0  0  0  0  0
    7.9298  -10.1418    0.0000 C   0  0  0  0  0  0  0  0  0  0  0  0
    7.2154   -9.7292    0.0000 C   0  0  0  0  0  0  0  0  0  0  0  0
    7.2155   -8.9042    0.0000 C   0  0  0  0  0  0  0  0  0  0  0  0
    7.9300   -8.4918    0.0000 C   0  0  0  0  0  0  0  0  0  0  0  0
    7.9302   -7.6668    0.0000 O   0  0  0  0  0  0  0  0  0  0  0  0
 12 11  1  0  0  0  0
  8  4  1  0  0  0  0
 10  5  1  0  0  0  0
 11  6  2  0  0  0  0
  7  6  1  0  0  0  0
  8  7  2  0  0  0  0
  9  8  1  0  0  0  0
 10  9  2  0  0  0  0
 11 10  1  0  0  0  0
  1  2  1  0  0  0  0
  1  3  2  0  0  0  0
  1 12  1  0  0  0  0
M  END
>  <cdx:fragmentId>
13

$$$$
