8487.cdx
  Mrv1902 05222410282D          

 10 10  0  0  0  0            999 V2000
    6.0846   -4.2829    0.0000 C   0  0  0  0  0  0  0  0  0  0  0  0
    6.7990   -4.6954    0.0000 C   0  0  0  0  0  0  0  0  0  0  0  0
    5.3701   -4.6954    0.0000 C   0  0  0  0  0  0  0  0  0  0  0  0
    4.6556   -4.2829    0.0000 C   0  0  0  0  0  0  0  0  0  0  0  0
    3.9412   -4.6954    0.0000 C   0  0  0  0  0  0  0  0  0  0  0  0
    3.9412   -5.5204    0.0000 C   0  0  0  0  0  0  0  0  0  0  0  0
    4.6556   -5.9329    0.0000 C   0  0  0  0  0  0  0  0  0  0  0  0
    5.3701   -5.5204    0.0000 C   0  0  0  0  0  0  0  0  0  0  0  0
    3.2267   -4.2829    0.0000 O   0  0  0  0  0  0  0  0  0  0  0  0
    6.0846   -3.4579    0.0000 O   0  0  0  0  0  0  0  0  0  0  0  0
  1  2  1  0  0  0  0
  3  4  1  0  0  0  0
  4  5  2  0  0  0  0
  5  6  1  0  0  0  0
  6  7  2  0  0  0  0
  7  8  1  0  0  0  0
  3  8  2  0  0  0  0
  5  9  1  0  0  0  0
  1  3  1  0  0  0  0
  1 10  2  0  0  0  0
M  END
>  <cdx:groupId>
32

>  <cdx:fragmentId>
9

$$$$
