849132.cdx
  Mrv1902 05222410252D          

 46 49  0  0  0  0            999 V2000
   10.8591   -6.7833    0.0000 C   0  0  0  0  0  0  0  0  0  0  0  0
   10.8591   -5.9583    0.0000 O   0  0  0  0  0  0  0  0  0  0  0  0
   11.5736   -5.5458    0.0000 C   0  0  0  0  0  0  0  0  0  0  0  0
   11.5736   -7.1958    0.0000 C   0  0  0  0  0  0  0  0  0  0  0  0
   12.2881   -6.7833    0.0000 C   0  0  0  0  0  0  0  0  0  0  0  0
   13.0025   -7.1958    0.0000 C   0  0  0  0  0  0  0  0  0  0  0  0
   13.0025   -8.0208    0.0000 C   0  0  0  0  0  0  0  0  0  0  0  0
   12.2881   -8.4333    0.0000 C   0  0  0  0  0  0  0  0  0  0  0  0
   11.5736   -8.0208    0.0000 C   0  0  0  0  0  0  0  0  0  0  0  0
   13.7170   -8.4333    0.0000 O   0  0  0  0  0  0  0  0  0  0  0  0
   13.7170   -6.7833    0.0000 O   0  0  0  0  0  0  0  0  0  0  0  0
   10.1446   -7.1958    0.0000 C   0  0  0  0  0  0  0  0  0  0  0  0
    9.4302   -6.7833    0.0000 O   0  0  0  0  0  0  0  0  0  0  0  0
    6.5723   -8.4333    0.0000 O   0  0  0  0  0  0  0  0  0  0  0  0
    9.4302   -8.4333    0.0000 O   0  0  0  0  0  0  0  0  0  0  0  0
    8.0012  -10.9083    0.0000 O   0  0  0  0  0  0  0  0  0  0  0  0
    6.5723  -11.7333    0.0000 O   0  0  0  0  0  0  0  0  0  0  0  0
    5.1433  -10.9083    0.0000 O   0  0  0  0  0  0  0  0  0  0  0  0
    5.1433   -9.2583    0.0000 C   0  0  0  0  0  0  0  0  0  0  0  0
    5.8578   -9.6708    0.0000 C   0  0  1  0  0  0  0  0  0  0  0  0
    5.8578  -10.4958    0.0000 C   0  0  1  0  0  0  0  0  0  0  0  0
    6.5723  -10.9083    0.0000 C   0  0  2  0  0  0  0  0  0  0  0  0
    7.2868  -10.4958    0.0000 C   0  0  2  0  0  0  0  0  0  0  0  0
    7.2868   -9.6708    0.0000 C   0  0  1  0  0  0  0  0  0  0  0  0
    6.5723   -9.2583    0.0000 O   0  0  0  0  0  0  0  0  0  0  0  0
    8.0012   -9.2583    0.0000 O   0  0  0  0  0  0  0  0  0  0  0  0
    8.7157   -7.1958    0.0000 C   0  0  1  0  0  0  0  0  0  0  0  0
    8.7157   -8.0208    0.0000 C   0  0  1  0  0  0  0  0  0  0  0  0
    8.0012   -8.4333    0.0000 C   0  0  2  0  0  0  0  0  0  0  0  0
    7.2868   -8.0208    0.0000 C   0  0  1  0  0  0  0  0  0  0  0  0
    7.2868   -7.1958    0.0000 C   0  0  2  0  0  0  0  0  0  0  0  0
    8.0012   -6.7833    0.0000 O   0  0  0  0  0  0  0  0  0  0  0  0
    6.5723   -6.7833    0.0000 C   0  0  0  0  0  0  0  0  0  0  0  0
    0.8565   -6.7833    0.0000 O   0  0  0  0  0  0  0  0  0  0  0  0
    0.8565   -8.4333    0.0000 O   0  0  0  0  0  0  0  0  0  0  0  0
    2.9999   -8.0208    0.0000 C   0  0  0  0  0  0  0  0  0  0  0  0
    2.2855   -8.4333    0.0000 C   0  0  0  0  0  0  0  0  0  0  0  0
    1.5710   -8.0208    0.0000 C   0  0  0  0  0  0  0  0  0  0  0  0
    1.5710   -7.1958    0.0000 C   0  0  0  0  0  0  0  0  0  0  0  0
    2.2855   -6.7833    0.0000 C   0  0  0  0  0  0  0  0  0  0  0  0
    2.9999   -7.1958    0.0000 C   0  0  0  0  0  0  0  0  0  0  0  0
    5.8578   -7.1958    0.0000 O   0  0  0  0  0  0  0  0  0  0  0  0
    5.1433   -5.9583    0.0000 O   0  0  0  0  0  0  0  0  0  0  0  0
    3.7144   -6.7833    0.0000 C   0  0  0  0  0  0  0  0  0  0  0  0
    4.4289   -7.1958    0.0000 C   0  0  0  0  0  0  0  0  0  0  0  0
    5.1433   -6.7833    0.0000 C   0  0  0  0  0  0  0  0  0  0  0  0
 42 33  1  0  0  0  0
 31 33  1  1  0  0  0
 27 13  1  1  0  0  0
 13 12  1  0  0  0  0
 12  1  1  0  0  0  0
 30 14  1  6  0  0  0
 28 15  1  6  0  0  0
 29 26  1  1  0  0  0
 24 26  1  1  0  0  0
 23 16  1  6  0  0  0
 22 17  1  6  0  0  0
 21 18  1  1  0  0  0
 20 19  1  6  0  0  0
 25 20  1  0  0  0  0
 21 20  1  0  0  0  0
 22 21  1  0  0  0  0
 23 22  1  0  0  0  0
 24 23  1  0  0  0  0
 25 24  1  0  0  0  0
 32 27  1  0  0  0  0
 28 27  1  0  0  0  0
 29 28  1  0  0  0  0
 30 29  1  0  0  0  0
 31 30  1  0  0  0  0
 32 31  1  0  0  0  0
 44 41  1  0  0  0  0
 39 34  1  0  0  0  0
 38 35  1  0  0  0  0
 41 36  2  0  0  0  0
 37 36  1  0  0  0  0
 38 37  2  0  0  0  0
 39 38  1  0  0  0  0
 40 39  2  0  0  0  0
 41 40  1  0  0  0  0
 46 42  1  0  0  0  0
 46 43  2  0  0  0  0
 45 44  2  0  0  0  0
 46 45  1  0  0  0  0
  2  3  1  0  0  0  0
  1  2  1  0  0  0  0
  4  5  1  0  0  0  0
  5  6  2  0  0  0  0
  6  7  1  0  0  0  0
  7  8  2  0  0  0  0
  8  9  1  0  0  0  0
  4  9  2  0  0  0  0
  7 10  1  0  0  0  0
  6 11  1  0  0  0  0
  1  4  1  0  0  0  0
M  END
>  <cdx:fragmentId>
2912

$$$$
