84958.cdx
  Mrv1902 05222410222D          

 41 45  0  0  0  0            999 V2000
    9.0203   -8.7072    0.0000 C   0  0  0  0  0  0  0  0  0  0  0  0
    7.8692   -9.3532    0.0000 C   0  0  2  0  0  0  0  0  0  0  0  0
    9.7297   -9.1283    0.0000 C   0  0  0  0  0  0  0  0  0  0  0  0
    9.7197   -9.9533    0.0000 C   0  0  0  0  0  0  0  0  0  0  0  0
   10.4291  -10.3744    0.0000 C   0  0  0  0  0  0  0  0  0  0  0  0
   11.1485   -9.9707    0.0000 C   0  0  0  0  0  0  0  0  0  0  0  0
   11.1586   -9.1457    0.0000 C   0  0  0  0  0  0  0  0  0  0  0  0
   10.4492   -8.7246    0.0000 C   0  0  0  0  0  0  0  0  0  0  0  0
   11.8579  -10.3918    0.0000 O   0  0  0  0  0  0  0  0  0  0  0  0
    9.0304   -7.8822    0.0000 C   0  0  0  0  0  0  0  0  0  0  0  0
    9.7498   -7.4785    0.0000 C   0  0  0  0  0  0  0  0  0  0  0  0
    9.7599   -6.6535    0.0000 C   0  0  0  0  0  0  0  0  0  0  0  0
    9.0505   -6.2323    0.0000 C   0  0  0  0  0  0  0  0  0  0  0  0
    8.3310   -6.6361    0.0000 C   0  0  0  0  0  0  0  0  0  0  0  0
    8.3210   -7.4611    0.0000 C   0  0  0  0  0  0  0  0  0  0  0  0
    9.0605   -5.4074    0.0000 O   0  0  0  0  0  0  0  0  0  0  0  0
    7.1337  -11.0769    0.0000 O   0  0  0  0  0  0  0  0  0  0  0  0
    7.8331  -12.3230    0.0000 O   0  0  0  0  0  0  0  0  0  0  0  0
   10.6907  -12.3578    0.0000 O   0  0  0  0  0  0  0  0  0  0  0  0
    9.2820  -10.6905    0.0000 C   0  0  0  0  0  0  0  0  0  0  0  0
    9.9914  -11.1117    0.0000 C   0  0  0  0  0  0  0  0  0  0  0  0
    9.9813  -11.9366    0.0000 C   0  0  0  0  0  0  0  0  0  0  0  0
    9.2619  -12.3404    0.0000 C   0  0  0  0  0  0  0  0  0  0  0  0
    8.5525  -11.9192    0.0000 C   0  0  0  0  0  0  0  0  0  0  0  0
    8.5626  -11.0943    0.0000 C   0  0  0  0  0  0  0  0  0  0  0  0
    7.8532  -10.6731    0.0000 C   0  0  0  0  0  0  0  0  0  0  0  0
    5.0015  -10.1433    0.0000 O   0  0  0  0  0  0  0  0  0  0  0  0
    3.6028   -7.6511    0.0000 O   0  0  0  0  0  0  0  0  0  0  0  0
    6.4304  -10.1607    0.0000 O   0  0  0  0  0  0  0  0  0  0  0  0
    6.4605   -7.6859    0.0000 O   0  0  0  0  0  0  0  0  0  0  0  0
    5.7411   -8.0897    0.0000 C   0  0  0  0  0  0  0  0  0  0  0  0
    5.0317   -7.6685    0.0000 C   0  0  0  0  0  0  0  0  0  0  0  0
    4.3122   -8.0723    0.0000 C   0  0  0  0  0  0  0  0  0  0  0  0
    4.3022   -8.8972    0.0000 C   0  0  0  0  0  0  0  0  0  0  0  0
    5.0116   -9.3184    0.0000 C   0  0  0  0  0  0  0  0  0  0  0  0
    5.7310   -8.9146    0.0000 C   0  0  0  0  0  0  0  0  0  0  0  0
    6.4404   -9.3358    0.0000 C   0  0  0  0  0  0  0  0  0  0  0  0
    7.1598   -8.9320    0.0000 C   0  0  0  0  0  0  0  0  0  0  0  0
    7.1699   -8.1071    0.0000 C   0  0  0  0  0  0  0  0  0  0  0  0
    9.2920   -9.8656    0.0000 O   0  0  0  0  0  0  0  0  0  0  0  0
    7.8692   -8.5282    0.0000 H   0  0  0  0  0  0  0  0  0  0  0  0
 38  2  1  0  0  0  0
 26 17  2  0  0  0  0
 26 25  1  0  0  0  0
 24 18  1  0  0  0  0
 22 19  1  0  0  0  0
 25 20  2  0  0  0  0
 21 20  1  0  0  0  0
 22 21  2  0  0  0  0
 23 22  1  0  0  0  0
 24 23  2  0  0  0  0
 25 24  1  0  0  0  0
  1  2  1  0  0  0  0
  2 26  1  0  0  0  0
 35 27  1  0  0  0  0
 33 28  1  0  0  0  0
 37 29  2  0  0  0  0
 39 30  1  0  0  0  0
 31 30  1  0  0  0  0
 36 31  2  0  0  0  0
 32 31  1  0  0  0  0
 33 32  2  0  0  0  0
 34 33  1  0  0  0  0
 35 34  2  0  0  0  0
 36 35  1  0  0  0  0
 37 36  1  0  0  0  0
 38 37  1  0  0  0  0
 39 38  2  0  0  0  0
  3  4  1  0  0  0  0
  4  5  2  0  0  0  0
  5  6  1  0  0  0  0
  6  7  2  0  0  0  0
  7  8  1  0  0  0  0
  3  8  2  0  0  0  0
  6  9  1  0  0  0  0
  1  3  1  0  0  0  0
 10 11  1  0  0  0  0
 11 12  2  0  0  0  0
 12 13  1  0  0  0  0
 13 14  2  0  0  0  0
 14 15  1  0  0  0  0
 10 15  2  0  0  0  0
 13 16  1  0  0  0  0
  1 10  1  0  0  0  0
 20 40  1  0  0  0  0
  2 41  1  1  0  0  0
M  END
>  <cdx:groupId>
87046

>  <cdx:fragmentId>
86957

$$$$
