8499.cdx
  Mrv1902 05222410192D          

 12 12  0  0  0  0            999 V2000
    4.8832   -4.8133    0.0000 C   0  0  0  0  0  0  0  0  0  0  0  0
    4.1687   -5.2258    0.0000 C   0  0  0  0  0  0  0  0  0  0  0  0
    3.4543   -4.8133    0.0000 C   0  0  0  0  0  0  0  0  0  0  0  0
    2.7398   -5.2258    0.0000 C   0  0  0  0  0  0  0  0  0  0  0  0
    2.7398   -6.0508    0.0000 C   0  0  0  0  0  0  0  0  0  0  0  0
    3.4543   -6.4633    0.0000 C   0  0  0  0  0  0  0  0  0  0  0  0
    4.1687   -6.0508    0.0000 C   0  0  0  0  0  0  0  0  0  0  0  0
    4.8832   -3.9883    0.0000 O   0  0  0  0  0  0  0  0  0  0  0  0
    5.5977   -5.2258    0.0000 O   0  0  0  0  0  0  0  0  0  0  0  0
    2.0253   -6.4633    0.0000 O   0  0  0  0  0  0  0  0  0  0  0  0
    1.3109   -6.0508    0.0000 C   0  0  0  0  0  0  0  0  0  0  0  0
    6.3121   -4.8133    0.0000 C   0  0  0  0  0  0  0  0  0  0  0  0
  1  2  1  0  0  0  0
  2  3  1  0  0  0  0
  3  4  2  0  0  0  0
  4  5  1  0  0  0  0
  5  6  2  0  0  0  0
  6  7  1  0  0  0  0
  2  7  2  0  0  0  0
  1  8  2  0  0  0  0
  1  9  1  0  0  0  0
 10 11  1  0  0  0  0
  5 10  1  0  0  0  0
  9 12  1  0  0  0  0
M  END
>  <cdx:groupId>
38

>  <cdx:fragmentId>
5

$$$$
