8500.cdx
  Mrv1902 05222410182D          

 10 10  0  0  0  0            999 V2000
    7.3875   -4.0609    0.0000 C   0  0  0  0  0  0  0  0  0  0  0  0
    8.0991   -3.6434    0.0000 C   0  0  0  0  0  0  0  0  0  0  0  0
    7.3933   -4.8859    0.0000 C   0  0  0  0  0  0  0  0  0  0  0  0
    6.6818   -5.3034    0.0000 C   0  0  0  0  0  0  0  0  0  0  0  0
    6.6876   -6.1284    0.0000 C   0  0  0  0  0  0  0  0  0  0  0  0
    7.4049   -6.5359    0.0000 C   0  0  0  0  0  0  0  0  0  0  0  0
    8.1165   -6.1184    0.0000 C   0  0  0  0  0  0  0  0  0  0  0  0
    8.1107   -5.2934    0.0000 C   0  0  0  0  0  0  0  0  0  0  0  0
    7.4107   -7.3608    0.0000 C   0  0  0  0  0  0  0  0  0  0  0  0
    6.6702   -3.6535    0.0000 O   0  0  0  0  0  0  0  0  0  0  0  0
  1  2  1  0  0  0  0
  3  4  1  0  0  0  0
  4  5  2  0  0  0  0
  5  6  1  0  0  0  0
  6  7  2  0  0  0  0
  7  8  1  0  0  0  0
  3  8  2  0  0  0  0
  6  9  1  0  0  0  0
  1  3  1  0  0  0  0
  1 10  2  0  0  0  0
M  END
>  <cdx:fragmentId>
9

$$$$
