850234.cdx
  Mrv1902 05222410182D          

 20 21  0  0  0  0            999 V2000
    6.7429   -8.2230    0.0000 C   0  0  1  0  0  0  0  0  0  0  0  0
    6.3304   -7.5086    0.0000 C   0  0  0  0  0  0  0  0  0  0  0  0
    5.5054   -7.5086    0.0000 C   0  0  0  0  0  0  0  0  0  0  0  0
    5.0929   -8.2230    0.0000 C   0  0  0  0  0  0  0  0  0  0  0  0
    5.5054   -8.9375    0.0000 C   0  0  0  0  0  0  0  0  0  0  0  0
    6.3304   -8.9375    0.0000 C   0  0  0  0  0  0  0  0  0  0  0  0
    5.0929   -9.6520    0.0000 O   0  0  0  0  0  0  0  0  0  0  0  0
    4.2679   -8.2230    0.0000 C   0  0  0  0  0  0  0  0  0  0  0  0
    6.9729   -9.6751    0.0000 C   0  0  0  0  0  0  0  0  0  0  0  0
    6.1659   -6.5995    0.0000 C   0  0  0  0  0  0  0  0  0  0  0  0
    6.9729   -6.7710    0.0000 C   0  0  0  0  0  0  0  0  0  0  0  0
    7.5563   -6.1876    0.0000 C   0  0  0  0  0  0  0  0  0  0  0  0
    7.2278   -7.5556    0.0000 C   0  0  2  0  0  0  0  0  0  0  0  0
    8.0125   -7.8105    0.0000 C   0  0  1  0  0  0  0  0  0  0  0  0
    8.0125   -8.6355    0.0000 C   0  0  0  0  0  0  0  0  0  0  0  0
    7.2278   -8.8905    0.0000 C   0  0  1  0  0  0  0  0  0  0  0  0
    8.6799   -7.3256    0.0000 O   0  0  0  0  0  0  0  0  0  0  0  0
    9.5198   -8.4817    0.0000 O   0  0  0  0  0  0  0  0  0  0  0  0
   10.1010   -7.1763    0.0000 C   0  0  0  0  0  0  0  0  0  0  0  0
    9.4336   -7.6612    0.0000 C   0  0  0  0  0  0  0  0  0  0  0  0
 14 17  1  6  0  0  0
 16  9  1  6  0  0  0
 13 11  1  6  0  0  0
 11 10  1  0  0  0  0
 12 11  1  0  0  0  0
 16  1  1  0  0  0  0
 13  1  1  0  0  0  0
 14 13  1  0  0  0  0
 15 14  1  0  0  0  0
 16 15  1  0  0  0  0
 20 17  1  0  0  0  0
 20 18  2  0  0  0  0
 20 19  1  0  0  0  0
  1  2  1  0  0  0  0
  2  3  1  0  0  0  0
  3  4  2  0  0  0  0
  4  5  1  0  0  0  0
  5  6  1  0  0  0  0
  1  6  1  6  0  0  0
  5  7  2  0  0  0  0
  4  8  1  0  0  0  0
M  END
>  <cdx:fragmentId>
61649

$$$$
