3085044.cdx
  Mrv1902 05222410252D          

 18 19  0  0  0  0            999 V2000
   15.8627   -6.8338    0.0000 C   0  0  0  0  0  0  0  0  0  0  0  0
   15.8627   -7.6588    0.0000 C   0  0  0  0  0  0  0  0  0  0  0  0
   16.5772   -8.0713    0.0000 C   0  0  0  0  0  0  0  0  0  0  0  0
   17.3619   -7.8164    0.0000 C   0  0  0  0  0  0  0  0  0  0  0  0
   17.6168   -7.0317    0.0000 O   0  0  0  0  0  0  0  0  0  0  0  0
   17.8468   -8.4838    0.0000 C   0  0  0  0  0  0  0  0  0  0  0  0
   18.5612   -8.0713    0.0000 C   0  0  0  0  0  0  0  0  0  0  0  0
   18.5612   -8.8963    0.0000 C   0  0  0  0  0  0  0  0  0  0  0  0
   17.3619   -9.1512    0.0000 C   0  0  0  0  0  0  0  0  0  0  0  0
   16.5772   -8.8963    0.0000 C   0  0  0  0  0  0  0  0  0  0  0  0
   15.8627   -9.3088    0.0000 C   0  0  0  0  0  0  0  0  0  0  0  0
   15.8627  -10.1338    0.0000 O   0  0  0  0  0  0  0  0  0  0  0  0
   15.1483   -8.8963    0.0000 C   0  0  0  0  0  0  0  0  0  0  0  0
   14.4338   -9.3088    0.0000 C   0  0  0  0  0  0  0  0  0  0  0  0
   15.1483   -8.0713    0.0000 C   0  0  0  0  0  0  0  0  0  0  0  0
   14.4338   -7.6588    0.0000 C   0  0  0  0  0  0  0  0  0  0  0  0
   13.7193   -8.0713    0.0000 C   0  0  0  0  0  0  0  0  0  0  0  0
   13.0049   -7.6588    0.0000 O   0  0  0  0  0  0  0  0  0  0  0  0
  1  2  1  0  0  0  0
  2  3  2  0  0  0  0
  3  4  1  0  0  0  0
  4  5  2  0  0  0  0
  4  6  1  0  0  0  0
  6  7  1  0  0  0  0
  6  8  1  0  0  0  0
  6  9  1  0  0  0  0
  9 10  1  0  0  0  0
  3 10  1  0  0  0  0
 10 11  2  0  0  0  0
 11 12  1  0  0  0  0
 11 13  1  0  0  0  0
 13 14  1  0  0  0  0
 13 15  2  0  0  0  0
  2 15  1  0  0  0  0
 15 16  1  0  0  0  0
 16 17  1  0  0  0  0
 17 18  1  0  0  0  0
M  END
>  <cdx:fragmentId>
4018

$$$$
