850438.cdx
  Mrv1902 05222410262D          

 23 23  0  0  0  0            999 V2000
    6.9345   -7.7402    0.0000 C   0  0  0  0  0  0  0  0  0  0  0  0
    7.6509   -8.1493    0.0000 C   0  0  1  0  0  0  0  0  0  0  0  0
    8.3634   -7.7335    0.0000 C   0  0  2  0  0  0  0  0  0  0  0  0
    9.0798   -8.1426    0.0000 C   0  0  1  0  0  0  0  0  0  0  0  0
    9.7923   -7.7267    0.0000 C   0  0  1  0  0  0  0  0  0  0  0  0
   10.5087   -8.1358    0.0000 C   0  0  0  0  0  0  0  0  0  0  0  0
    6.9306   -6.9152    0.0000 O   0  0  0  0  0  0  0  0  0  0  0  0
    5.5055   -7.7470    0.0000 O   0  0  0  0  0  0  0  0  0  0  0  0
    6.2220   -8.1561    0.0000 C   0  0  0  0  0  0  0  0  0  0  0  0
    6.2259   -8.9811    0.0000 C   0  0  1  0  0  0  0  0  0  0  0  0
    5.5134   -9.3970    0.0000 C   0  0  2  0  0  0  0  0  0  0  0  0
    4.7970   -8.9879    0.0000 C   0  0  1  0  0  0  0  0  0  0  0  0
    4.7930   -8.1629    0.0000 C   0  0  1  0  0  0  0  0  0  0  0  0
    4.0766   -7.7538    0.0000 C   0  0  0  0  0  0  0  0  0  0  0  0
    3.3641   -8.1697    0.0000 O   0  0  0  0  0  0  0  0  0  0  0  0
    4.0845   -9.4038    0.0000 O   0  0  0  0  0  0  0  0  0  0  0  0
    5.5173  -10.2220    0.0000 O   0  0  0  0  0  0  0  0  0  0  0  0
    6.9423   -9.3902    0.0000 O   0  0  0  0  0  0  0  0  0  0  0  0
   11.2213   -7.7199    0.0000 O   0  0  0  0  0  0  0  0  0  0  0  0
    9.7884   -6.9017    0.0000 O   0  0  0  0  0  0  0  0  0  0  0  0
    9.0837   -8.9675    0.0000 O   0  0  0  0  0  0  0  0  0  0  0  0
    8.3595   -6.9085    0.0000 O   0  0  0  0  0  0  0  0  0  0  0  0
    7.6548   -8.9743    0.0000 O   0  0  0  0  0  0  0  0  0  0  0  0
  1  2  1  0  0  0  0
  2  3  1  0  0  0  0
  3  4  1  0  0  0  0
  4  5  1  0  0  0  0
  5  6  1  0  0  0  0
  1  7  2  0  0  0  0
  8  9  1  0  0  0  0
  9 10  1  0  0  0  0
 10 11  1  0  0  0  0
 11 12  1  0  0  0  0
 12 13  1  0  0  0  0
  8 13  1  0  0  0  0
 14 15  1  0  0  0  0
 13 14  1  1  0  0  0
 12 16  1  6  0  0  0
 11 17  1  1  0  0  0
 10 18  1  6  0  0  0
  1  9  1  0  0  0  0
  6 19  1  0  0  0  0
  5 20  1  6  0  0  0
  4 21  1  1  0  0  0
  3 22  1  1  0  0  0
  2 23  1  1  0  0  0
M  END
>  <cdx:groupId>
143398

>  <cdx:fragmentId>
143346

$$$$
