850489.cdx
  Mrv1902 05222410242D          

 22 21  0  0  0  0            999 V2000
    2.3418   -8.8847    0.0000 O   0  0  0  0  0  0  0  0  0  0  0  0
    6.6286   -8.8847    0.0000 O   0  0  0  0  0  0  0  0  0  0  0  0
    0.9129   -8.0597    0.0000 O   0  0  0  0  0  0  0  0  0  0  0  0
    1.6273   -6.8222    0.0000 O   0  0  0  0  0  0  0  0  0  0  0  0
   13.7733   -8.0597    0.0000 C   0  0  0  0  0  0  0  0  0  0  0  0
   13.0589   -7.6472    0.0000 C   0  0  0  0  0  0  0  0  0  0  0  0
   12.3444   -8.0597    0.0000 C   0  0  0  0  0  0  0  0  0  0  0  0
   11.6299   -7.6472    0.0000 C   0  0  0  0  0  0  0  0  0  0  0  0
   10.9155   -8.0597    0.0000 C   0  0  0  0  0  0  0  0  0  0  0  0
   10.2010   -7.6472    0.0000 C   0  0  0  0  0  0  0  0  0  0  0  0
    9.4865   -8.0597    0.0000 C   0  0  0  0  0  0  0  0  0  0  0  0
    8.7720   -7.6472    0.0000 C   0  0  0  0  0  0  0  0  0  0  0  0
    8.0576   -8.0597    0.0000 C   0  0  0  0  0  0  0  0  0  0  0  0
    7.3431   -7.6472    0.0000 C   0  0  0  0  0  0  0  0  0  0  0  0
    6.6286   -8.0597    0.0000 C   0  0  0  0  0  0  0  0  0  0  0  0
    5.9142   -7.6472    0.0000 C   0  0  0  0  0  0  0  0  0  0  0  0
    5.1997   -8.0597    0.0000 C   0  0  0  0  0  0  0  0  0  0  0  0
    4.4852   -7.6472    0.0000 C   0  0  0  0  0  0  0  0  0  0  0  0
    3.7707   -8.0597    0.0000 C   0  0  0  0  0  0  0  0  0  0  0  0
    3.0563   -7.6472    0.0000 C   0  0  0  0  0  0  0  0  0  0  0  0
    2.3418   -8.0597    0.0000 C   0  0  0  0  0  0  0  0  0  0  0  0
    1.6273   -7.6472    0.0000 C   0  0  0  0  0  0  0  0  0  0  0  0
 21  1  1  0  0  0  0
 15  2  2  0  0  0  0
 22  3  1  0  0  0  0
 22  4  2  0  0  0  0
  6  5  1  0  0  0  0
  7  6  1  0  0  0  0
  8  7  1  0  0  0  0
  9  8  1  0  0  0  0
 10  9  1  0  0  0  0
 11 10  1  0  0  0  0
 12 11  1  0  0  0  0
 13 12  1  0  0  0  0
 14 13  1  0  0  0  0
 15 14  1  0  0  0  0
 16 15  1  0  0  0  0
 17 16  2  0  0  0  0
 18 17  1  0  0  0  0
 19 18  2  0  0  0  0
 20 19  1  0  0  0  0
 21 20  2  0  0  0  0
 22 21  1  0  0  0  0
M  END
>  <cdx:groupId>
43929

>  <cdx:fragmentId>
43867

$$$$
