8505.cdx
  Mrv1902 05222410202D          

 21 23  0  0  0  0            999 V2000
    4.7883   -7.1775    0.0000 C   0  0  0  0  0  0  0  0  0  0  0  0
    4.7883   -8.0025    0.0000 C   0  0  0  0  0  0  0  0  0  0  0  0
    5.5027   -8.4150    0.0000 C   0  0  0  0  0  0  0  0  0  0  0  0
    6.2172   -8.0025    0.0000 C   0  0  0  0  0  0  0  0  0  0  0  0
    6.2172   -7.1775    0.0000 C   0  0  0  0  0  0  0  0  0  0  0  0
    5.5027   -6.7650    0.0000 C   0  0  0  0  0  0  0  0  0  0  0  0
    6.9317   -8.4150    0.0000 O   0  0  0  0  0  0  0  0  0  0  0  0
    7.6462   -8.0025    0.0000 C   0  0  0  0  0  0  0  0  0  0  0  0
    7.6462   -7.1775    0.0000 C   0  0  0  0  0  0  0  0  0  0  0  0
    6.9317   -6.7650    0.0000 C   0  0  0  0  0  0  0  0  0  0  0  0
    8.3606   -8.4150    0.0000 C   0  0  0  0  0  0  0  0  0  0  0  0
    9.0751   -8.0025    0.0000 C   0  0  0  0  0  0  0  0  0  0  0  0
    9.0751   -7.1775    0.0000 C   0  0  0  0  0  0  0  0  0  0  0  0
    8.3606   -6.7650    0.0000 C   0  0  0  0  0  0  0  0  0  0  0  0
    4.0738   -8.4150    0.0000 O   0  0  0  0  0  0  0  0  0  0  0  0
    5.5027   -5.9400    0.0000 C   0  0  0  0  0  0  0  0  0  0  0  0
    4.7883   -5.5275    0.0000 O   0  0  0  0  0  0  0  0  0  0  0  0
    6.2172   -5.5275    0.0000 O   0  0  0  0  0  0  0  0  0  0  0  0
    6.9317   -5.9400    0.0000 O   0  0  0  0  0  0  0  0  0  0  0  0
    8.3606   -5.9400    0.0000 O   0  0  0  0  0  0  0  0  0  0  0  0
    9.7896   -8.4150    0.0000 C   0  0  0  0  0  0  0  0  0  0  0  0
  1  2  2  0  0  0  0
  2  3  1  0  0  0  0
  3  4  2  0  0  0  0
  4  5  1  0  0  0  0
  5  6  2  0  0  0  0
  6  1  1  0  0  0  0
  4  7  1  0  0  0  0
  7  8  1  0  0  0  0
  8  9  2  0  0  0  0
  9 10  1  0  0  0  0
 10  5  1  0  0  0  0
  8 11  1  0  0  0  0
 11 12  2  0  0  0  0
 12 13  1  0  0  0  0
 13 14  2  0  0  0  0
 14  9  1  0  0  0  0
  2 15  1  0  0  0  0
  6 16  1  0  0  0  0
 16 17  1  0  0  0  0
 16 18  2  0  0  0  0
 10 19  2  0  0  0  0
 14 20  1  0  0  0  0
 12 21  1  0  0  0  0
M  END
>  <cdx:fragmentId>
5

$$$$
