85076.cdx
  Mrv1902 05222410202D          

 14 15  0  0  0  0            999 V2000
    7.7932   -7.6769    0.0000 N   0  0  0  0  0  0  0  0  0  0  0  0
    8.5077   -7.2644    0.0000 C   0  0  0  0  0  0  0  0  0  0  0  0
    8.5077   -6.4394    0.0000 C   0  0  0  0  0  0  0  0  0  0  0  0
    7.7932   -6.0269    0.0000 C   0  0  0  0  0  0  0  0  0  0  0  0
    7.0788   -6.4394    0.0000 C   0  0  0  0  0  0  0  0  0  0  0  0
    6.3643   -6.0269    0.0000 C   0  0  0  0  0  0  0  0  0  0  0  0
    5.6498   -6.4394    0.0000 C   0  0  0  0  0  0  0  0  0  0  0  0
    5.6498   -7.2644    0.0000 C   0  0  0  0  0  0  0  0  0  0  0  0
    6.3643   -7.6769    0.0000 C   0  0  0  0  0  0  0  0  0  0  0  0
    7.0788   -7.2644    0.0000 C   0  0  0  0  0  0  0  0  0  0  0  0
    7.7932   -5.2019    0.0000 C   0  0  0  0  0  0  0  0  0  0  0  0
    7.0788   -4.7894    0.0000 O   0  0  0  0  0  0  0  0  0  0  0  0
    8.5077   -4.7894    0.0000 O   0  0  0  0  0  0  0  0  0  0  0  0
    9.2222   -7.6769    0.0000 O   0  0  0  0  0  0  0  0  0  0  0  0
  1  2  1  0  0  0  0
  2  3  1  0  0  0  0
  3  4  2  0  0  0  0
  4  5  1  0  0  0  0
  5  6  1  0  0  0  0
  6  7  2  0  0  0  0
  7  8  1  0  0  0  0
  8  9  2  0  0  0  0
  9 10  1  0  0  0  0
  1 10  1  0  0  0  0
  5 10  2  0  0  0  0
 11 12  2  0  0  0  0
 11 13  1  0  0  0  0
  4 11  1  0  0  0  0
  2 14  2  0  0  0  0
M  END
>  <cdx:fragmentId>
5

$$$$
