8507.cdx
  Mrv1902 05222410192D          

 10 11  0  0  0  0            999 V2000
    5.6783   -8.7746    0.0000 C   0  0  0  0  0  0  0  0  0  0  0  0
    6.4750   -8.5605    0.0000 C   0  0  0  0  0  0  0  0  0  0  0  0
    7.2717   -8.7746    0.0000 C   0  0  0  0  0  0  0  0  0  0  0  0
    7.6854   -8.0609    0.0000 C   0  0  0  0  0  0  0  0  0  0  0  0
    6.0919   -8.0609    0.0000 C   0  0  0  0  0  0  0  0  0  0  0  0
    6.8887   -7.8468    0.0000 C   0  0  0  0  0  0  0  0  0  0  0  0
    6.4765   -7.1330    0.0000 C   0  0  0  0  0  0  0  0  0  0  0  0
    8.4823   -7.8473    0.0000 C   0  0  0  0  0  0  0  0  0  0  0  0
    7.0582   -9.5715    0.0000 C   0  0  0  0  0  0  0  0  0  0  0  0
    7.9862   -9.1871    0.0000 C   0  0  0  0  0  0  0  0  0  0  0  0
  1  2  1  0  0  0  0
  2  3  1  0  0  0  0
  3  4  1  0  0  0  0
  1  5  1  0  0  0  0
  5  6  1  0  0  0  0
  4  6  1  0  0  0  0
  6  7  1  0  0  0  0
  2  7  1  0  0  0  0
  4  8  2  0  0  0  0
  3  9  1  0  0  0  0
  3 10  1  0  0  0  0
M  END
>  <cdx:groupId>
799

>  <cdx:fragmentId>
800

$$$$
