8512.cdx
  Mrv1902 05222410192D          

 17 19  0  0  0  0            999 V2000
    9.0286   -3.6583    0.0000 C   0  0  0  0  0  0  0  0  0  0  0  0
    9.7430   -4.0708    0.0000 C   0  0  0  0  0  0  0  0  0  0  0  0
    9.7430   -4.8958    0.0000 C   0  0  0  0  0  0  0  0  0  0  0  0
    9.0286   -5.3083    0.0000 C   0  0  0  0  0  0  0  0  0  0  0  0
    8.3141   -4.8958    0.0000 C   0  0  0  0  0  0  0  0  0  0  0  0
    7.5996   -5.3083    0.0000 C   0  0  0  0  0  0  0  0  0  0  0  0
    6.8852   -4.8958    0.0000 C   0  0  0  0  0  0  0  0  0  0  0  0
    6.1707   -5.3083    0.0000 C   0  0  0  0  0  0  0  0  0  0  0  0
    5.4562   -4.8958    0.0000 C   0  0  0  0  0  0  0  0  0  0  0  0
    5.4562   -4.0708    0.0000 C   0  0  0  0  0  0  0  0  0  0  0  0
    6.1707   -3.6583    0.0000 C   0  0  0  0  0  0  0  0  0  0  0  0
    6.8852   -4.0708    0.0000 C   0  0  0  0  0  0  0  0  0  0  0  0
    7.5996   -3.6583    0.0000 C   0  0  0  0  0  0  0  0  0  0  0  0
    8.3141   -4.0708    0.0000 C   0  0  0  0  0  0  0  0  0  0  0  0
    7.5996   -2.8333    0.0000 O   0  0  0  0  0  0  0  0  0  0  0  0
    7.5996   -6.1333    0.0000 O   0  0  0  0  0  0  0  0  0  0  0  0
    9.0286   -2.8333    0.0000 O   0  0  0  0  0  0  0  0  0  0  0  0
  1  2  1  0  0  0  0
  2  3  2  0  0  0  0
  3  4  1  0  0  0  0
  4  5  2  0  0  0  0
  5  6  1  0  0  0  0
  6  7  1  0  0  0  0
  7  8  1  0  0  0  0
  8  9  2  0  0  0  0
  9 10  1  0  0  0  0
 10 11  2  0  0  0  0
 11 12  1  0  0  0  0
  7 12  2  0  0  0  0
 12 13  1  0  0  0  0
 13 14  1  0  0  0  0
  5 14  1  0  0  0  0
  1 14  2  0  0  0  0
 13 15  2  0  0  0  0
  6 16  2  0  0  0  0
  1 17  1  0  0  0  0
M  END
>  <cdx:fragmentId>
5

$$$$
