851692.cdx
  Mrv1902 05222410262D          

 22 24  0  0  0  0            999 V2000
    5.8311   -4.9824    0.0000 N   0  0  0  0  0  0  0  0  0  0  0  0
    6.5455   -5.3949    0.0000 C   0  0  0  0  0  0  0  0  0  0  0  0
    6.5455   -6.2199    0.0000 N   0  0  0  0  0  0  0  0  0  0  0  0
    5.8311   -6.6324    0.0000 C   0  0  0  0  0  0  0  0  0  0  0  0
    5.1166   -6.2199    0.0000 C   0  0  0  0  0  0  0  0  0  0  0  0
    4.4021   -6.6324    0.0000 C   0  0  0  0  0  0  0  0  0  0  0  0
    3.6876   -6.2199    0.0000 C   0  0  0  0  0  0  0  0  0  0  0  0
    3.6876   -5.3949    0.0000 C   0  0  0  0  0  0  0  0  0  0  0  0
    4.4021   -4.9824    0.0000 C   0  0  0  0  0  0  0  0  0  0  0  0
    5.1166   -5.3949    0.0000 C   0  0  0  0  0  0  0  0  0  0  0  0
    5.8311   -7.4574    0.0000 O   0  0  0  0  0  0  0  0  0  0  0  0
    7.2600   -6.6324    0.0000 C   0  0  0  0  0  0  0  0  0  0  0  0
    7.9745   -6.2199    0.0000 C   0  0  0  0  0  0  0  0  0  0  0  0
    8.6889   -6.6324    0.0000 C   0  0  0  0  0  0  0  0  0  0  0  0
    7.9745   -5.3949    0.0000 O   0  0  0  0  0  0  0  0  0  0  0  0
   10.1179   -7.4574    0.0000 O   0  0  0  0  0  0  0  0  0  0  0  0
   10.1179   -4.9824    0.0000 C   0  0  0  0  0  0  0  0  0  0  0  0
   10.8324   -5.3949    0.0000 C   0  0  0  0  0  0  0  0  0  0  0  0
   10.8324   -6.2199    0.0000 C   0  0  0  0  0  0  0  0  0  0  0  0
   10.1179   -6.6324    0.0000 C   0  0  1  0  0  0  0  0  0  0  0  0
    9.4034   -6.2199    0.0000 C   0  0  2  0  0  0  0  0  0  0  0  0
    9.4034   -5.3949    0.0000 N   0  0  0  0  0  0  0  0  0  0  0  0
 20 16  1  6  0  0  0
 22 17  1  0  0  0  0
 18 17  1  0  0  0  0
 19 18  1  0  0  0  0
 20 19  1  0  0  0  0
 21 20  1  0  0  0  0
 22 21  1  0  0  0  0
  1  2  2  0  0  0  0
  2  3  1  0  0  0  0
  3  4  1  0  0  0  0
  4  5  1  0  0  0  0
  5  6  1  0  0  0  0
  6  7  2  0  0  0  0
  7  8  1  0  0  0  0
  8  9  2  0  0  0  0
  9 10  1  0  0  0  0
  1 10  1  0  0  0  0
  5 10  2  0  0  0  0
  4 11  2  0  0  0  0
 12 13  1  0  0  0  0
 13 14  1  0  0  0  0
 13 15  2  0  0  0  0
 21 14  1  1  0  0  0
  3 12  1  0  0  0  0
M  END
>  <cdx:groupId>
181

>  <cdx:fragmentId>
116

$$$$
