85176.cdx
  Mrv1902 05222410182D          

 33 37  0  0  0  0            999 V2000
    8.1840   -6.8280    0.0000 C   0  0  2  0  0  0  0  0  0  0  0  0
    8.8984   -7.2405    0.0000 C   0  0  2  0  0  0  0  0  0  0  0  0
    8.8984   -8.0655    0.0000 C   0  0  0  0  0  0  0  0  0  0  0  0
    8.1840   -8.4780    0.0000 C   0  0  0  0  0  0  0  0  0  0  0  0
    7.4695   -8.0655    0.0000 C   0  0  2  0  0  0  0  0  0  0  0  0
    6.7550   -8.4780    0.0000 C   0  0  1  0  0  0  0  0  0  0  0  0
    6.7550   -9.3030    0.0000 C   0  0  0  0  0  0  0  0  0  0  0  0
    6.0406   -9.7155    0.0000 C   0  0  0  0  0  0  0  0  0  0  0  0
    5.3261   -9.3030    0.0000 C   0  0  1  0  0  0  0  0  0  0  0  0
    4.6116   -9.7155    0.0000 C   0  0  0  0  0  0  0  0  0  0  0  0
    3.8972   -9.3030    0.0000 C   0  0  0  0  0  0  0  0  0  0  0  0
    3.8972   -8.4780    0.0000 C   0  0  0  0  0  0  0  0  0  0  0  0
    4.6116   -8.0655    0.0000 C   0  0  0  0  0  0  0  0  0  0  0  0
    5.3261   -8.4780    0.0000 C   0  0  2  0  0  0  0  0  0  0  0  0
    6.0406   -8.0655    0.0000 C   0  0  0  0  0  0  0  0  0  0  0  0
    6.0406   -7.2405    0.0000 C   0  0  0  0  0  0  0  0  0  0  0  0
    6.7550   -6.8280    0.0000 C   0  0  0  0  0  0  0  0  0  0  0  0
    7.4695   -7.2405    0.0000 C   0  0  1  0  0  0  0  0  0  0  0  0
    9.5115   -6.6885    0.0000 C   0  0  2  0  0  0  0  0  0  0  0  0
    9.1760   -5.9348    0.0000 C   0  0  0  0  0  0  0  0  0  0  0  0
    8.3555   -6.0211    0.0000 C   0  0  0  0  0  0  0  0  0  0  0  0
   10.5735   -7.6447    0.0000 C   0  0  0  0  0  0  0  0  0  0  0  0
   10.3185   -6.8600    0.0000 C   0  0  0  0  0  0  0  0  0  0  0  0
   10.9019   -6.2767    0.0000 C   0  0  0  0  0  0  0  0  0  0  0  0
    7.4695   -6.4155    0.0000 C   0  0  0  0  0  0  0  0  0  0  0  0
    5.3261   -7.6530    0.0000 C   0  0  0  0  0  0  0  0  0  0  0  0
    5.0241  -10.4300    0.0000 C   0  0  0  0  0  0  0  0  0  0  0  0
    4.1991  -10.4300    0.0000 C   0  0  0  0  0  0  0  0  0  0  0  0
    7.4695   -8.8905    0.0000 C   0  0  0  0  0  0  0  0  0  0  0  0
    9.6521   -7.5761    0.0000 C   0  0  0  0  0  0  0  0  0  0  0  0
    6.7550   -7.6530    0.0000 H   0  0  0  0  0  0  0  0  0  0  0  0
    5.3261  -10.1280    0.0000 H   0  0  0  0  0  0  0  0  0  0  0  0
    8.1840   -7.6530    0.0000 H   0  0  0  0  0  0  0  0  0  0  0  0
  1  2  1  0  0  0  0
  2  3  1  0  0  0  0
  3  4  1  0  0  0  0
  4  5  1  0  0  0  0
  5  6  1  0  0  0  0
  6  7  1  0  0  0  0
  7  8  1  0  0  0  0
  8  9  1  0  0  0  0
  9 10  1  0  0  0  0
 10 11  1  0  0  0  0
 11 12  1  0  0  0  0
 12 13  1  0  0  0  0
 13 14  1  0  0  0  0
  9 14  1  0  0  0  0
 14 15  1  0  0  0  0
  6 15  1  0  0  0  0
 15 16  2  0  0  0  0
 16 17  1  0  0  0  0
 17 18  1  0  0  0  0
  5 18  1  0  0  0  0
  1 18  1  0  0  0  0
 19 20  1  0  0  0  0
 20 21  1  0  0  0  0
 21  1  1  0  0  0  0
 19  2  1  0  0  0  0
 22 23  1  0  0  0  0
 23 24  1  0  0  0  0
 19 23  1  6  0  0  0
 18 25  1  6  0  0  0
 14 26  1  1  0  0  0
 10 27  1  0  0  0  0
 10 28  1  0  0  0  0
  5 29  1  1  0  0  0
  2 30  1  6  0  0  0
  6 31  1  6  0  0  0
  9 32  1  6  0  0  0
  1 33  1  1  0  0  0
M  END
>  <cdx:groupId>
13744

>  <cdx:fragmentId>
13644

$$$$
