8519.cdx
  Mrv1902 05222410282D          

 22 22  0  0  0  0            999 V2000
   12.1583   -6.8681    0.0000 C   0  0  0  0  0  0  0  0  0  0  0  0
    2.1557   -7.6931    0.0000 C   0  0  0  0  0  0  0  0  0  0  0  0
    1.4412   -6.4556    0.0000 C   0  0  0  0  0  0  0  0  0  0  0  0
    7.1570   -5.6306    0.0000 O   0  0  0  0  0  0  0  0  0  0  0  0
    2.1557   -6.8681    0.0000 C   0  0  0  0  0  0  0  0  0  0  0  0
    2.8702   -6.4556    0.0000 C   0  0  0  0  0  0  0  0  0  0  0  0
    3.5846   -6.8681    0.0000 C   0  0  0  0  0  0  0  0  0  0  0  0
    4.2991   -6.4556    0.0000 C   0  0  0  0  0  0  0  0  0  0  0  0
    5.0136   -6.8681    0.0000 C   0  0  0  0  0  0  0  0  0  0  0  0
    5.7280   -6.4556    0.0000 C   0  0  0  0  0  0  0  0  0  0  0  0
    6.4425   -6.8681    0.0000 C   0  0  0  0  0  0  0  0  0  0  0  0
    7.1570   -6.4556    0.0000 C   0  0  0  0  0  0  0  0  0  0  0  0
    7.8715   -6.8681    0.0000 N   0  0  0  0  0  0  0  0  0  0  0  0
    8.5859   -6.4556    0.0000 C   0  0  0  0  0  0  0  0  0  0  0  0
   11.4438   -8.1056    0.0000 O   0  0  0  0  0  0  0  0  0  0  0  0
   11.4438   -6.4556    0.0000 O   0  0  0  0  0  0  0  0  0  0  0  0
   10.0149   -6.4556    0.0000 C   0  0  0  0  0  0  0  0  0  0  0  0
    9.3004   -6.8681    0.0000 C   0  0  0  0  0  0  0  0  0  0  0  0
    9.3004   -7.6931    0.0000 C   0  0  0  0  0  0  0  0  0  0  0  0
   10.0149   -8.1056    0.0000 C   0  0  0  0  0  0  0  0  0  0  0  0
   10.7293   -7.6931    0.0000 C   0  0  0  0  0  0  0  0  0  0  0  0
   10.7293   -6.8681    0.0000 C   0  0  0  0  0  0  0  0  0  0  0  0
 16  1  1  0  0  0  0
  5  2  1  0  0  0  0
  5  3  1  0  0  0  0
 12  4  2  0  0  0  0
  6  5  1  0  0  0  0
  7  6  2  0  0  0  0
  8  7  1  0  0  0  0
  9  8  1  0  0  0  0
 10  9  1  0  0  0  0
 11 10  1  0  0  0  0
 12 11  1  0  0  0  0
 13 12  1  0  0  0  0
 14 13  1  0  0  0  0
 18 14  1  0  0  0  0
 21 15  1  0  0  0  0
 22 16  1  0  0  0  0
 17 22  1  0  0  0  0
 18 17  2  0  0  0  0
 19 18  1  0  0  0  0
 20 19  2  0  0  0  0
 21 20  1  0  0  0  0
 22 21  2  0  0  0  0
M  END
>  <cdx:fragmentId>
5

$$$$
