85228.cdx
  Mrv1902 05222410192D          

 11 11  0  0  0  0            999 V2000
    9.5718   -7.0427    0.0000 C   0  0  0  0  0  0  0  0  0  0  0  0
    8.8574   -7.4552    0.0000 C   0  0  0  0  0  0  0  0  0  0  0  0
    8.1429   -7.0427    0.0000 C   0  0  0  0  0  0  0  0  0  0  0  0
    7.4284   -7.4552    0.0000 C   0  0  0  0  0  0  0  0  0  0  0  0
    7.4284   -5.8052    0.0000 C   0  0  0  0  0  0  0  0  0  0  0  0
    5.2850   -7.0427    0.0000 C   0  0  0  0  0  0  0  0  0  0  0  0
    5.2850   -6.2177    0.0000 C   0  0  0  0  0  0  0  0  0  0  0  0
    5.9995   -5.8052    0.0000 N   0  0  0  0  0  0  0  0  0  0  0  0
    5.9995   -7.4552    0.0000 N   0  0  0  0  0  0  0  0  0  0  0  0
    6.7140   -6.2177    0.0000 C   0  0  0  0  0  0  0  0  0  0  0  0
    6.7140   -7.0427    0.0000 C   0  0  0  0  0  0  0  0  0  0  0  0
 11  4  1  0  0  0  0
  2  1  1  0  0  0  0
  3  2  1  0  0  0  0
  4  3  1  0  0  0  0
 10  5  1  0  0  0  0
  9  6  1  0  0  0  0
  7  6  2  0  0  0  0
  8  7  1  0  0  0  0
 10  8  2  0  0  0  0
 11  9  2  0  0  0  0
 11 10  1  0  0  0  0
M  END
>  <cdx:fragmentId>
158

$$$$
