85224.cdx
  Mrv1902 05222410272D          

 10 10  0  0  0  0            999 V2000
    7.3215   -4.1049    0.0000 C   0  0  0  0  0  0  0  0  0  0  0  0
    7.3215   -4.9299    0.0000 C   0  0  0  0  0  0  0  0  0  0  0  0
    6.6070   -3.6924    0.0000 N   0  0  0  0  0  0  0  0  0  0  0  0
    6.6070   -5.3424    0.0000 N   0  0  0  0  0  0  0  0  0  0  0  0
    5.8925   -4.9299    0.0000 C   0  0  0  0  0  0  0  0  0  0  0  0
    5.8925   -4.1049    0.0000 C   0  0  0  0  0  0  0  0  0  0  0  0
    8.0359   -5.3424    0.0000 C   0  0  0  0  0  0  0  0  0  0  0  0
    8.7504   -4.9299    0.0000 C   0  0  0  0  0  0  0  0  0  0  0  0
    9.4649   -5.3424    0.0000 C   0  0  0  0  0  0  0  0  0  0  0  0
    8.0359   -3.6924    0.0000 C   0  0  0  0  0  0  0  0  0  0  0  0
  1  2  1  0  0  0  0
  1  3  2  0  0  0  0
  2  4  2  0  0  0  0
  4  5  1  0  0  0  0
  5  6  2  0  0  0  0
  3  6  1  0  0  0  0
  7  8  1  0  0  0  0
  8  9  1  0  0  0  0
  2  7  1  0  0  0  0
  1 10  1  0  0  0  0
M  END
>  <cdx:fragmentId>
5

$$$$
