85285.cdx
  Mrv1902 05222410252D          

 21 23  0  0  0  0            999 V2000
    8.2517   -9.6316    0.0000 C   0  0  0  0  0  0  0  0  0  0  0  0
    8.9662  -10.0441    0.0000 N   0  0  0  0  0  0  0  0  0  0  0  0
    8.9662  -10.8691    0.0000 C   0  0  0  0  0  0  0  0  0  0  0  0
    8.2517  -11.2816    0.0000 C   0  0  0  0  0  0  0  0  0  0  0  0
    7.5372  -10.8691    0.0000 C   0  0  0  0  0  0  0  0  0  0  0  0
    6.8228  -11.2816    0.0000 C   0  0  0  0  0  0  0  0  0  0  0  0
    6.1083  -10.8691    0.0000 C   0  0  0  0  0  0  0  0  0  0  0  0
    6.1083  -10.0441    0.0000 C   0  0  0  0  0  0  0  0  0  0  0  0
    6.8228   -9.6316    0.0000 C   0  0  0  0  0  0  0  0  0  0  0  0
    7.5372  -10.0441    0.0000 C   0  0  0  0  0  0  0  0  0  0  0  0
    5.3938   -9.6316    0.0000 O   0  0  0  0  0  0  0  0  0  0  0  0
    5.3938  -11.2816    0.0000 O   0  0  0  0  0  0  0  0  0  0  0  0
    4.6793  -10.8691    0.0000 C   0  0  0  0  0  0  0  0  0  0  0  0
    8.2517   -8.8066    0.0000 C   0  0  0  0  0  0  0  0  0  0  0  0
    8.9662   -8.3941    0.0000 C   0  0  0  0  0  0  0  0  0  0  0  0
    8.9662   -7.5691    0.0000 C   0  0  0  0  0  0  0  0  0  0  0  0
    9.6806   -7.1566    0.0000 C   0  0  0  0  0  0  0  0  0  0  0  0
   10.3951   -7.5691    0.0000 C   0  0  0  0  0  0  0  0  0  0  0  0
   10.3951   -8.3941    0.0000 C   0  0  0  0  0  0  0  0  0  0  0  0
    9.6806   -8.8066    0.0000 C   0  0  0  0  0  0  0  0  0  0  0  0
   11.1096   -7.1566    0.0000 O   0  0  0  0  0  0  0  0  0  0  0  0
  1  2  2  0  0  0  0
  2  3  1  0  0  0  0
  3  4  2  0  0  0  0
  4  5  1  0  0  0  0
  5  6  1  0  0  0  0
  6  7  2  0  0  0  0
  7  8  1  0  0  0  0
  8  9  2  0  0  0  0
  9 10  1  0  0  0  0
  1 10  1  0  0  0  0
  5 10  2  0  0  0  0
  8 11  1  0  0  0  0
 12 13  1  0  0  0  0
  7 12  1  0  0  0  0
 15 16  1  0  0  0  0
 16 17  2  0  0  0  0
 17 18  1  0  0  0  0
 18 19  2  0  0  0  0
 19 20  1  0  0  0  0
 15 20  2  0  0  0  0
 18 21  1  0  0  0  0
 14 15  1  0  0  0  0
  1 14  1  0  0  0  0
M  END
>  <cdx:fragmentId>
4097

$$$$
