853179.cdx
  Mrv1902 05222410232D          

 32 33  0  0  0  0            999 V2000
    7.9072   -9.7484    0.0000 C   0  0  0  0  0  0  0  0  0  0  0  0
    8.6216   -9.3359    0.0000 C   0  0  0  0  0  0  0  0  0  0  0  0
    9.3361   -9.7484    0.0000 C   0  0  0  0  0  0  0  0  0  0  0  0
   10.0506   -9.3359    0.0000 C   0  0  0  0  0  0  0  0  0  0  0  0
   10.7650   -9.7484    0.0000 C   0  0  0  0  0  0  0  0  0  0  0  0
   10.7650  -10.5734    0.0000 C   0  0  0  0  0  0  0  0  0  0  0  0
   11.4795  -10.9859    0.0000 C   0  0  0  0  0  0  0  0  0  0  0  0
   12.1940  -10.5734    0.0000 C   0  0  0  0  0  0  0  0  0  0  0  0
   12.1940   -9.7484    0.0000 C   0  0  0  0  0  0  0  0  0  0  0  0
   11.4795   -9.3359    0.0000 C   0  0  0  0  0  0  0  0  0  0  0  0
   12.9085   -9.3359    0.0000 O   0  0  0  0  0  0  0  0  0  0  0  0
   13.6229   -9.7484    0.0000 C   0  0  0  0  0  0  0  0  0  0  0  0
   11.4795  -11.8109    0.0000 O   0  0  0  0  0  0  0  0  0  0  0  0
   12.1940  -12.2234    0.0000 C   0  0  0  0  0  0  0  0  0  0  0  0
   12.9085  -10.9859    0.0000 O   0  0  0  0  0  0  0  0  0  0  0  0
    8.6216   -8.5109    0.0000 O   0  0  0  0  0  0  0  0  0  0  0  0
    2.9059  -10.9859    0.0000 O   0  0  0  0  0  0  0  0  0  0  0  0
    2.1914   -9.7484    0.0000 C   0  0  0  0  0  0  0  0  0  0  0  0
    2.9059   -9.3359    0.0000 O   0  0  0  0  0  0  0  0  0  0  0  0
    5.0493  -10.5734    0.0000 C   0  0  0  0  0  0  0  0  0  0  0  0
    4.3348  -10.9859    0.0000 C   0  0  0  0  0  0  0  0  0  0  0  0
    3.6203  -10.5734    0.0000 C   0  0  0  0  0  0  0  0  0  0  0  0
    3.6203   -9.7484    0.0000 C   0  0  0  0  0  0  0  0  0  0  0  0
    4.3348   -9.3359    0.0000 C   0  0  0  0  0  0  0  0  0  0  0  0
    5.0493   -9.7484    0.0000 C   0  0  0  0  0  0  0  0  0  0  0  0
    7.1927   -9.3359    0.0000 C   0  0  0  0  0  0  0  0  0  0  0  0
    6.4782   -9.7484    0.0000 C   0  0  0  0  0  0  0  0  0  0  0  0
    5.7637   -9.3359    0.0000 C   0  0  0  0  0  0  0  0  0  0  0  0
    7.1927   -8.5109    0.0000 O   0  0  0  0  0  0  0  0  0  0  0  0
    5.7637   -8.5109    0.0000 O   0  0  0  0  0  0  0  0  0  0  0  0
    6.4782   -7.2734    0.0000 C   0  0  0  0  0  0  0  0  0  0  0  0
    6.4782   -8.0984    0.0000 C   0  0  0  0  0  0  0  0  0  0  0  0
 29 26  1  0  0  0  0
 28 25  1  0  0  0  0
 22 17  1  0  0  0  0
 23 19  1  0  0  0  0
 19 18  1  0  0  0  0
 25 20  2  0  0  0  0
 21 20  1  0  0  0  0
 22 21  2  0  0  0  0
 23 22  1  0  0  0  0
 24 23  2  0  0  0  0
 25 24  1  0  0  0  0
 27 26  1  0  0  0  0
 28 27  1  0  0  0  0
 32 29  1  0  0  0  0
 32 30  2  0  0  0  0
 32 31  1  0  0  0  0
 26  1  1  0  0  0  0
  1  2  1  0  0  0  0
  2  3  1  0  0  0  0
  3  4  1  0  0  0  0
  5  6  1  0  0  0  0
  6  7  2  0  0  0  0
  7  8  1  0  0  0  0
  8  9  2  0  0  0  0
  9 10  1  0  0  0  0
  5 10  2  0  0  0  0
 11 12  1  0  0  0  0
  9 11  1  0  0  0  0
 13 14  1  0  0  0  0
  7 13  1  0  0  0  0
  8 15  1  0  0  0  0
  4  5  1  0  0  0  0
  2 16  1  0  0  0  0
M  END
>  <cdx:groupId>
44031

>  <cdx:fragmentId>
43959

$$$$
