853367.cdx
  Mrv1902 05222410212D          

 14 15  0  0  0  0            999 V2000
    9.2432   -5.5902    0.0000 C   0  0  0  0  0  0  0  0  0  0  0  0
    9.2432   -6.4152    0.0000 C   0  0  0  0  0  0  0  0  0  0  0  0
    8.5288   -6.8277    0.0000 C   0  0  0  0  0  0  0  0  0  0  0  0
    7.8143   -6.4152    0.0000 C   0  0  0  0  0  0  0  0  0  0  0  0
    7.0998   -6.8277    0.0000 C   0  0  0  0  0  0  0  0  0  0  0  0
    6.3853   -6.4152    0.0000 C   0  0  0  0  0  0  0  0  0  0  0  0
    6.3853   -5.5902    0.0000 C   0  0  0  0  0  0  0  0  0  0  0  0
    7.0998   -5.1777    0.0000 C   0  0  0  0  0  0  0  0  0  0  0  0
    7.8143   -5.5902    0.0000 C   0  0  0  0  0  0  0  0  0  0  0  0
    8.5288   -5.1777    0.0000 O   0  0  0  0  0  0  0  0  0  0  0  0
    8.5288   -7.6527    0.0000 O   0  0  0  0  0  0  0  0  0  0  0  0
    5.6709   -5.1777    0.0000 O   0  0  0  0  0  0  0  0  0  0  0  0
    4.9564   -5.5902    0.0000 C   0  0  0  0  0  0  0  0  0  0  0  0
    7.0998   -7.6527    0.0000 O   0  0  0  0  0  0  0  0  0  0  0  0
  1  2  2  0  0  0  0
  2  3  1  0  0  0  0
  3  4  1  0  0  0  0
  4  5  1  0  0  0  0
  5  6  2  0  0  0  0
  6  7  1  0  0  0  0
  7  8  2  0  0  0  0
  8  9  1  0  0  0  0
  4  9  2  0  0  0  0
  9 10  1  0  0  0  0
  1 10  1  0  0  0  0
  3 11  2  0  0  0  0
 12 13  1  0  0  0  0
  7 12  1  0  0  0  0
  5 14  1  0  0  0  0
M  END
>  <cdx:fragmentId>
141874

$$$$
