129854435.cdx
  Mrv1902 05222410202D          

 86 85  0  0  0  0            999 V2000
    0.0069  -16.9453    0.0000 C   0  0  0  0  0  0  0  0  0  0  0  0
    0.7214  -16.5328    0.0000 C   0  0  0  0  0  0  0  0  0  0  0  0
    1.4359  -16.9453    0.0000 C   0  0  0  0  0  0  0  0  0  0  0  0
    2.1503  -16.5328    0.0000 C   0  0  0  0  0  0  0  0  0  0  0  0
    2.8648  -16.9453    0.0000 C   0  0  0  0  0  0  0  0  0  0  0  0
    3.5793  -16.5328    0.0000 C   0  0  0  0  0  0  0  0  0  0  0  0
    4.2938  -16.9453    0.0000 C   0  0  2  0  0  0  0  0  0  0  0  0
    5.0082  -16.5328    0.0000 C   0  0  0  0  0  0  0  0  0  0  0  0
    5.7227  -16.9453    0.0000 C   0  0  0  0  0  0  0  0  0  0  0  0
    6.5477  -16.9453    0.0000 C   0  0  0  0  0  0  0  0  0  0  0  0
    7.2622  -16.5328    0.0000 C   0  0  0  0  0  0  0  0  0  0  0  0
    7.9766  -16.9453    0.0000 C   0  0  0  0  0  0  0  0  0  0  0  0
    8.6911  -16.5328    0.0000 C   0  0  0  0  0  0  0  0  0  0  0  0
    9.4056  -16.9453    0.0000 C   0  0  0  0  0  0  0  0  0  0  0  0
   10.1201  -16.5328    0.0000 C   0  0  0  0  0  0  0  0  0  0  0  0
   10.8345  -16.9453    0.0000 C   0  0  0  0  0  0  0  0  0  0  0  0
   11.5490  -16.5328    0.0000 C   0  0  0  0  0  0  0  0  0  0  0  0
   12.2635  -16.9453    0.0000 C   0  0  0  0  0  0  0  0  0  0  0  0
   12.9779  -16.5328    0.0000 C   0  0  0  0  0  0  0  0  0  0  0  0
   13.6924  -16.9453    0.0000 C   0  0  0  0  0  0  0  0  0  0  0  0
   14.4069  -16.5328    0.0000 C   0  0  0  0  0  0  0  0  0  0  0  0
   15.1214  -16.9453    0.0000 C   0  0  0  0  0  0  0  0  0  0  0  0
   15.8358  -16.5328    0.0000 C   0  0  0  0  0  0  0  0  0  0  0  0
   16.5503  -16.9453    0.0000 C   0  0  0  0  0  0  0  0  0  0  0  0
   17.2648  -16.5328    0.0000 C   0  0  0  0  0  0  0  0  0  0  0  0
   17.9792  -16.9453    0.0000 C   0  0  0  0  0  0  0  0  0  0  0  0
   18.6937  -16.5328    0.0000 C   0  0  0  0  0  0  0  0  0  0  0  0
   19.4082  -16.9453    0.0000 C   0  0  0  0  0  0  0  0  0  0  0  0
   20.1226  -16.5328    0.0000 C   0  0  0  0  0  0  0  0  0  0  0  0
   20.8371  -16.9453    0.0000 C   0  0  0  0  0  0  0  0  0  0  0  0
   21.6621  -16.9453    0.0000 C   0  0  0  0  0  0  0  0  0  0  0  0
   22.3766  -16.5328    0.0000 C   0  0  0  0  0  0  0  0  0  0  0  0
   23.0911  -16.9453    0.0000 C   0  0  2  0  0  0  0  0  0  0  0  0
   23.8055  -16.5328    0.0000 C   0  0  0  0  0  0  0  0  0  0  0  0
   24.5200  -16.9453    0.0000 C   0  0  0  0  0  0  0  0  0  0  0  0
   25.2345  -16.5328    0.0000 C   0  0  0  0  0  0  0  0  0  0  0  0
   25.9489  -16.9453    0.0000 C   0  0  0  0  0  0  0  0  0  0  0  0
   26.6634  -16.5328    0.0000 C   0  0  0  0  0  0  0  0  0  0  0  0
   27.3779  -16.9453    0.0000 C   0  0  0  0  0  0  0  0  0  0  0  0
   28.0924  -16.5328    0.0000 C   0  0  0  0  0  0  0  0  0  0  0  0
   28.8068  -16.9453    0.0000 C   0  0  0  0  0  0  0  0  0  0  0  0
   29.5213  -16.5328    0.0000 C   0  0  0  0  0  0  0  0  0  0  0  0
   30.3463  -16.5328    0.0000 C   0  0  0  0  0  0  0  0  0  0  0  0
   31.0608  -16.9453    0.0000 C   0  0  0  0  0  0  0  0  0  0  0  0
   31.7752  -16.5328    0.0000 C   0  0  1  0  0  0  0  0  0  0  0  0
   32.4897  -16.9453    0.0000 C   0  0  0  0  0  0  0  0  0  0  0  0
   33.2042  -16.5328    0.0000 C   0  0  0  0  0  0  0  0  0  0  0  0
   33.9187  -16.9453    0.0000 C   0  0  0  0  0  0  0  0  0  0  0  0
   34.6331  -16.5328    0.0000 C   0  0  0  0  0  0  0  0  0  0  0  0
   35.3476  -16.9453    0.0000 C   0  0  0  0  0  0  0  0  0  0  0  0
   36.0621  -16.5328    0.0000 C   0  0  0  0  0  0  0  0  0  0  0  0
   12.2635  -17.7703    0.0000 O   0  0  0  0  0  0  0  0  0  0  0  0
   15.1214  -17.7703    0.0000 O   0  0  0  0  0  0  0  0  0  0  0  0
   23.8055  -15.7078    0.0000 O   0  0  0  0  0  0  0  0  0  0  0  0
   14.4069  -15.7078    0.0000 C   0  0  0  0  0  0  0  0  0  0  0  0
   13.6924  -15.2953    0.0000 C   0  0  0  0  0  0  0  0  0  0  0  0
   13.6924  -14.4703    0.0000 C   0  0  0  0  0  0  0  0  0  0  0  0
   12.9779  -14.0578    0.0000 C   0  0  0  0  0  0  0  0  0  0  0  0
   12.9779  -13.2328    0.0000 C   0  0  0  0  0  0  0  0  0  0  0  0
   12.2635  -12.8203    0.0000 C   0  0  0  0  0  0  0  0  0  0  0  0
   12.2635  -11.9953    0.0000 C   0  0  0  0  0  0  0  0  0  0  0  0
   11.5490  -11.5828    0.0000 C   0  0  0  0  0  0  0  0  0  0  0  0
   11.5490  -10.7578    0.0000 C   0  0  0  0  0  0  0  0  0  0  0  0
   11.1365  -10.0434    0.0000 C   0  0  0  0  0  0  0  0  0  0  0  0
   10.4220   -9.6309    0.0000 C   0  0  0  0  0  0  0  0  0  0  0  0
   10.4220   -8.8059    0.0000 C   0  0  1  0  0  0  0  0  0  0  0  0
    9.7076   -8.3934    0.0000 C   0  0  0  0  0  0  0  0  0  0  0  0
    9.7076   -7.5684    0.0000 C   0  0  0  0  0  0  0  0  0  0  0  0
    8.9931   -7.1559    0.0000 C   0  0  0  0  0  0  0  0  0  0  0  0
    8.9931   -6.3309    0.0000 C   0  0  0  0  0  0  0  0  0  0  0  0
    8.2786   -5.9184    0.0000 C   0  0  0  0  0  0  0  0  0  0  0  0
    8.2786   -5.0934    0.0000 C   0  0  0  0  0  0  0  0  0  0  0  0
   15.1214  -15.2953    0.0000 O   0  0  0  0  0  0  0  0  0  0  0  0
   11.1365   -8.3934    0.0000 O   0  0  0  0  0  0  0  0  0  0  0  0
   31.7752  -15.7078    0.0000 O   0  0  0  0  0  0  0  0  0  0  0  0
   23.0911  -16.1203    0.0000 O   0  0  0  0  0  0  0  0  0  0  0  0
   14.4069  -17.3578    0.0000 O   0  0  0  0  0  0  0  0  0  0  0  0
   13.6924  -17.7703    0.0000 O   0  0  0  0  0  0  0  0  0  0  0  0
   12.9779  -15.7078    0.0000 O   0  0  0  0  0  0  0  0  0  0  0  0
    4.2938  -17.7703    0.0000 O   0  0  0  0  0  0  0  0  0  0  0  0
   23.0911  -17.7703    0.0000 C   0  0  0  0  0  0  0  0  0  0  0  0
   23.8055  -18.1828    0.0000 C   0  0  0  0  0  0  0  0  0  0  0  0
   23.8055  -19.0078    0.0000 C   0  0  0  0  0  0  0  0  0  0  0  0
   24.5200  -19.4203    0.0000 C   0  0  0  0  0  0  0  0  0  0  0  0
   24.5200  -20.2453    0.0000 C   0  0  0  0  0  0  0  0  0  0  0  0
   25.2345  -20.6578    0.0000 C   0  0  0  0  0  0  0  0  0  0  0  0
  1  2  1  0  0  0  0
  2  3  1  0  0  0  0
  3  4  1  0  0  0  0
  4  5  1  0  0  0  0
  5  6  1  0  0  0  0
  6  7  1  0  0  0  0
  7  8  1  0  0  0  0
  8  9  1  0  0  0  0
  9 10  2  0  0  0  0
 10 11  1  0  0  0  0
 11 12  1  0  0  0  0
 12 13  1  0  0  0  0
 13 14  1  0  0  0  0
 14 15  1  0  0  0  0
 15 16  1  0  0  0  0
 16 17  1  0  0  0  0
 17 18  1  0  0  0  0
 18 19  1  0  0  0  0
 19 20  1  0  0  0  0
 20 21  1  0  0  0  0
 21 22  1  0  0  0  0
 22 23  1  0  0  0  0
 23 24  1  0  0  0  0
 24 25  1  0  0  0  0
 25 26  1  0  0  0  0
 26 27  1  0  0  0  0
 27 28  1  0  0  0  0
 28 29  1  0  0  0  0
 29 30  1  0  0  0  0
 30 31  2  0  0  0  0
 31 32  1  0  0  0  0
 32 33  1  0  0  0  0
 33 34  1  0  0  0  0
 34 35  1  0  0  0  0
 35 36  1  0  0  0  0
 36 37  1  0  0  0  0
 37 38  1  0  0  0  0
 38 39  1  0  0  0  0
 39 40  1  0  0  0  0
 40 41  1  0  0  0  0
 41 42  1  0  0  0  0
 42 43  2  0  0  0  0
 43 44  1  0  0  0  0
 44 45  1  0  0  0  0
 45 46  1  0  0  0  0
 46 47  1  0  0  0  0
 47 48  1  0  0  0  0
 48 49  1  0  0  0  0
 49 50  1  0  0  0  0
 50 51  1  0  0  0  0
 18 52  2  0  0  0  0
 22 53  2  0  0  0  0
 34 54  2  0  0  0  0
 55 56  1  0  0  0  0
 56 57  1  0  0  0  0
 57 58  1  0  0  0  0
 58 59  1  0  0  0  0
 59 60  1  0  0  0  0
 60 61  1  0  0  0  0
 61 62  1  0  0  0  0
 62 63  1  0  0  0  0
 63 64  2  0  0  0  0
 64 65  1  0  0  0  0
 65 66  1  0  0  0  0
 66 67  1  0  0  0  0
 67 68  1  0  0  0  0
 68 69  1  0  0  0  0
 69 70  1  0  0  0  0
 70 71  1  0  0  0  0
 71 72  1  0  0  0  0
 55 73  2  0  0  0  0
 66 74  1  1  0  0  0
 21 55  1  0  0  0  0
 45 75  1  6  0  0  0
 33 76  1  6  0  0  0
 21 77  1  0  0  0  0
 20 78  1  0  0  0  0
 19 79  1  0  0  0  0
  7 80  1  6  0  0  0
 81 82  1  0  0  0  0
 82 83  1  0  0  0  0
 83 84  1  0  0  0  0
 84 85  1  0  0  0  0
 85 86  1  0  0  0  0
 33 81  1  0  0  0  0
M  END
>  <cdx:groupId>
44297

>  <cdx:fragmentId>
44043

$$$$
