85457.cdx
  Mrv1902 05222410262D          

 26 29  0  0  0  0            999 V2000
    7.2719   -5.8427    0.0000 O   0  0  0  0  0  0  0  0  0  0  0  0
    6.7870   -6.5102    0.0000 C   0  0  1  0  0  0  0  0  0  0  0  0
    6.0023   -6.2552    0.0000 C   0  0  0  0  0  0  0  0  0  0  0  0
    6.0023   -5.4302    0.0000 C   0  0  1  0  0  0  0  0  0  0  0  0
    6.7870   -5.1753    0.0000 C   0  0  0  0  0  0  0  0  0  0  0  0
    7.0419   -4.3907    0.0000 O   0  0  0  0  0  0  0  0  0  0  0  0
    5.3349   -4.9453    0.0000 C   0  0  0  0  0  0  0  0  0  0  0  0
    7.4140   -9.0892    0.0000 H   0  0  0  0  0  0  0  0  0  0  0  0
    7.0419   -7.2948    0.0000 C   0  0  2  0  0  0  0  0  0  0  0  0
    6.5570   -7.9622    0.0000 C   0  0  0  0  0  0  0  0  0  0  0  0
    7.0419   -8.6297    0.0000 C   0  0  0  0  0  0  0  0  0  0  0  0
    8.4715   -7.0354    0.0000 C   0  0  0  0  0  0  0  0  0  0  0  0
    9.2758   -7.2189    0.0000 C   0  0  0  0  0  0  0  0  0  0  0  0
    9.6338   -7.9622    0.0000 C   0  0  0  0  0  0  0  0  0  0  0  0
    9.2758   -8.7055    0.0000 C   0  0  0  0  0  0  0  0  0  0  0  0
    8.4715   -8.8891    0.0000 C   0  0  2  0  0  0  0  0  0  0  0  0
    7.8265   -8.3747    0.0000 C   0  0  1  0  0  0  0  0  0  0  0  0
    7.8265   -7.5497    0.0000 N   0  0  0  0  0  0  0  0  0  0  0  0
    6.0725   -6.9227    0.0000 H   0  0  0  0  0  0  0  0  0  0  0  0
    6.2169   -7.2948    0.0000 H   0  0  0  0  0  0  0  0  0  0  0  0
    7.7129   -9.2134    0.0000 O   0  0  0  0  0  0  0  0  0  0  0  0
    7.7869  -10.0350    0.0000 C   0  0  0  0  0  0  0  0  0  0  0  0
    8.5912  -10.2186    0.0000 C   0  0  1  0  0  0  0  0  0  0  0  0
    9.0143   -9.5104    0.0000 C   0  0  0  0  0  0  0  0  0  0  0  0
    7.1656  -10.5778    0.0000 O   0  0  0  0  0  0  0  0  0  0  0  0
    8.9154  -10.9772    0.0000 C   0  0  0  0  0  0  0  0  0  0  0  0
 17  8  1  1  0  0  0
  9  2  1  0  0  0  0
 11 17  1  0  0  0  0
  9 18  1  0  0  0  0
  9 10  1  0  0  0  0
 11 10  1  0  0  0  0
 18 12  1  0  0  0  0
 13 12  1  0  0  0  0
 14 13  1  0  0  0  0
 15 14  1  0  0  0  0
 16 15  1  0  0  0  0
 17 16  1  0  0  0  0
 18 17  1  0  0  0  0
  2  1  1  0  0  0  0
  2  3  1  0  0  0  0
  3  4  1  0  0  0  0
  4  5  1  0  0  0  0
  1  5  1  0  0  0  0
  5  6  2  0  0  0  0
  4  7  1  6  0  0  0
  2 19  1  1  0  0  0
  9 20  1  6  0  0  0
 16 21  1  1  0  0  0
 21 22  1  0  0  0  0
 22 23  1  0  0  0  0
 23 24  1  0  0  0  0
 24 16  1  0  0  0  0
 22 25  2  0  0  0  0
 23 26  1  1  0  0  0
M  END
>  <cdx:fragmentId>
4170

$$$$
