8548.cdx
  Mrv1902 05222410212D          

 31 34  0  0  0  0            999 V2000
   10.1126   -7.3430    0.0000 C   0  0  0  0  0  0  0  0  0  0  0  0
    5.4278   -9.3807    0.0000 C   0  0  0  0  0  0  0  0  0  0  0  0
    5.4278   -8.5557    0.0000 C   0  0  2  0  0  0  0  0  0  0  0  0
    6.1423   -8.1432    0.0000 C   0  0  0  0  0  0  0  0  0  0  0  0
    6.1423   -9.7932    0.0000 C   0  0  2  0  0  0  0  0  0  0  0  0
    6.5548  -10.5076    0.0000 C   0  0  0  0  0  0  0  0  0  0  0  0
    5.7298  -10.5076    0.0000 C   0  0  0  0  0  0  0  0  0  0  0  0
    6.8568   -9.3807    0.0000 C   0  0  1  0  0  0  0  0  0  0  0  0
    6.8568  -10.2057    0.0000 H   0  0  0  0  0  0  0  0  0  0  0  0
    7.5712   -9.7932    0.0000 C   0  0  0  0  0  0  0  0  0  0  0  0
    8.2857   -9.3807    0.0000 C   0  0  0  0  0  0  0  0  0  0  0  0
    8.2857   -8.5557    0.0000 C   0  0  1  0  0  0  0  0  0  0  0  0
    7.5712   -8.1432    0.0000 C   0  0  2  0  0  0  0  0  0  0  0  0
    7.5712   -8.9682    0.0000 H   0  0  0  0  0  0  0  0  0  0  0  0
    6.8568   -8.5557    0.0000 C   0  0  2  0  0  0  0  0  0  0  0  0
    6.8568   -7.7307    0.0000 C   0  0  0  0  0  0  0  0  0  0  0  0
    9.0537   -8.2543    0.0000 C   0  0  2  0  0  0  0  0  0  0  0  0
    9.2968   -7.4659    0.0000 C   0  0  0  0  0  0  0  0  0  0  0  0
    8.8321   -6.7843    0.0000 C   0  0  1  0  0  0  0  0  0  0  0  0
    8.0483   -7.5115    0.0000 C   0  0  0  0  0  0  0  0  0  0  0  0
    8.0094   -6.7226    0.0000 C   0  0  0  0  0  0  0  0  0  0  0  0
    7.4483   -7.3274    0.0000 C   0  0  0  0  0  0  0  0  0  0  0  0
    6.1423  -11.2221    0.0000 C   0  0  0  0  0  0  0  0  0  0  0  0
    5.3173  -11.2221    0.0000 O   0  0  0  0  0  0  0  0  0  0  0  0
    6.5548  -11.9366    0.0000 O   0  0  0  0  0  0  0  0  0  0  0  0
    4.9048  -10.5076    0.0000 C   0  0  0  0  0  0  0  0  0  0  0  0
    4.4923   -9.7932    0.0000 O   0  0  0  0  0  0  0  0  0  0  0  0
    4.4923  -11.2221    0.0000 O   0  0  0  0  0  0  0  0  0  0  0  0
    9.6584   -8.8154    0.0000 O   0  0  0  0  0  0  0  0  0  0  0  0
    4.7133   -8.1432    0.0000 O   0  0  0  0  0  0  0  0  0  0  0  0
    9.2446   -6.0698    0.0000 H   0  0  0  0  0  0  0  0  0  0  0  0
  2  3  1  0  0  0  0
  3  4  1  0  0  0  0
  2  5  1  0  0  0  0
  5  6  1  6  0  0  0
  5  7  1  1  0  0  0
  5  8  1  0  0  0  0
  8  9  1  1  0  0  0
  8 10  1  0  0  0  0
 10 11  1  0  0  0  0
 12 11  1  6  0  0  0
 12 13  1  0  0  0  0
 13 14  1  1  0  0  0
 13 15  1  0  0  0  0
  4 15  1  0  0  0  0
  8 15  1  0  0  0  0
 15 16  1  6  0  0  0
 12 17  1  0  0  0  0
 17 18  1  0  0  0  0
  1 18  2  0  0  0  0
 18 19  1  0  0  0  0
 19 20  1  0  0  0  0
 12 20  1  0  0  0  0
 19 21  1  0  0  0  0
 21 22  1  0  0  0  0
 13 22  1  0  0  0  0
 23 24  2  0  0  0  0
 23 25  1  0  0  0  0
  6 23  1  0  0  0  0
 26 27  2  0  0  0  0
 26 28  1  0  0  0  0
  7 26  1  0  0  0  0
 17 29  1  6  0  0  0
  3 30  1  1  0  0  0
 19 31  1  6  0  0  0
M  END
>  <cdx:fragmentId>
7

$$$$
