8554.cdx
  Mrv1902 05222410242D          

 14 14  0  0  0  0            999 V2000
    4.8190   -4.8752    0.0000 C   0  0  0  0  0  0  0  0  0  0  0  0
    4.8190   -4.0502    0.0000 C   0  0  0  0  0  0  0  0  0  0  0  0
    4.1045   -3.6377    0.0000 C   0  0  0  0  0  0  0  0  0  0  0  0
    3.3900   -4.0502    0.0000 C   0  0  0  0  0  0  0  0  0  0  0  0
    3.3900   -4.8752    0.0000 C   0  0  0  0  0  0  0  0  0  0  0  0
    4.1045   -5.2877    0.0000 C   0  0  0  0  0  0  0  0  0  0  0  0
    5.5334   -5.2877    0.0000 C   0  0  0  0  0  0  0  0  0  0  0  0
    5.5334   -6.1127    0.0000 O   0  0  0  0  0  0  0  0  0  0  0  0
    6.2479   -4.8752    0.0000 O   0  0  0  0  0  0  0  0  0  0  0  0
    5.5334   -3.6377    0.0000 C   0  0  0  0  0  0  0  0  0  0  0  0
    5.5334   -2.8127    0.0000 O   0  0  0  0  0  0  0  0  0  0  0  0
    6.2479   -4.0502    0.0000 O   0  0  0  0  0  0  0  0  0  0  0  0
    6.9624   -5.2877    0.0000 C   0  0  0  0  0  0  0  0  0  0  0  0
    6.9624   -3.6377    0.0000 C   0  0  0  0  0  0  0  0  0  0  0  0
  1  2  1  0  0  0  0
  2  3  2  0  0  0  0
  3  4  1  0  0  0  0
  4  5  2  0  0  0  0
  5  6  1  0  0  0  0
  1  6  2  0  0  0  0
  7  8  2  0  0  0  0
  7  9  1  0  0  0  0
  1  7  1  0  0  0  0
 10 11  2  0  0  0  0
 10 12  1  0  0  0  0
  2 10  1  0  0  0  0
  9 13  1  0  0  0  0
 12 14  1  0  0  0  0
M  END
>  <cdx:groupId>
44

>  <cdx:fragmentId>
5

$$$$
