85559.cdx
  Mrv1902 05222410182D          

 66 74  0  0  0  0            999 V2000
   15.1138   -9.0444    0.0000 C   0  0  1  0  0  0  0  0  0  0  0  0
   15.8252   -8.6268    0.0000 C   0  0  2  0  0  0  0  0  0  0  0  0
   16.6117   -8.8760    0.0000 C   0  0  0  0  0  0  0  0  0  0  0  0
   17.0918   -8.2051    0.0000 C   0  0  2  0  0  0  0  0  0  0  0  0
   17.8745   -7.9445    0.0000 O   0  0  0  0  0  0  0  0  0  0  0  0
   17.8686   -7.1195    0.0000 C   0  0  2  0  0  0  0  0  0  0  0  0
   17.0821   -6.8703    0.0000 C   0  0  2  0  0  0  0  0  0  0  0  0
   16.6020   -7.5412    0.0000 C   0  0  2  0  0  0  0  0  0  0  0  0
   15.8193   -7.8018    0.0000 C   0  0  1  0  0  0  0  0  0  0  0  0
   15.1019   -7.3944    0.0000 C   0  0  0  0  0  0  0  0  0  0  0  0
   14.3904   -7.8121    0.0000 C   0  0  0  0  0  0  0  0  0  0  0  0
   14.3963   -8.6371    0.0000 C   0  0  2  0  0  0  0  0  0  0  0  0
   13.6849   -9.0547    0.0000 C   0  0  1  0  0  0  0  0  0  0  0  0
   12.9674   -8.6474    0.0000 C   0  0  1  0  0  0  0  0  0  0  0  0
   12.2560   -9.0650    0.0000 C   0  0  0  0  0  0  0  0  0  0  0  0
   12.2619   -9.8900    0.0000 C   0  0  1  0  0  0  0  0  0  0  0  0
   12.9793  -10.2973    0.0000 C   0  0  0  0  0  0  0  0  0  0  0  0
   13.6908   -9.8797    0.0000 C   0  0  0  0  0  0  0  0  0  0  0  0
   14.4083  -10.2870    0.0000 C   0  0  0  0  0  0  0  0  0  0  0  0
   15.1197   -9.8694    0.0000 C   0  0  0  0  0  0  0  0  0  0  0  0
   17.7764   -6.2997    0.0000 O   0  0  0  0  0  0  0  0  0  0  0  0
   18.6247   -7.4496    0.0000 C   0  0  0  0  0  0  0  0  0  0  0  0
   19.2886   -6.9599    0.0000 C   0  0  0  0  0  0  0  0  0  0  0  0
   19.1964   -6.1401    0.0000 C   0  0  1  0  0  0  0  0  0  0  0  0
   18.4403   -5.8100    0.0000 C   0  0  0  0  0  0  0  0  0  0  0  0
   12.9615   -7.8224    0.0000 O   0  0  0  0  0  0  0  0  0  0  0  0
   11.5504  -10.3077    0.0000 O   0  0  0  0  0  0  0  0  0  0  0  0
   13.6789   -8.2297    0.0000 C   0  0  0  0  0  0  0  0  0  0  0  0
   15.8193   -6.9768    0.0000 C   0  0  0  0  0  0  0  0  0  0  0  0
   16.8215   -6.0875    0.0000 C   0  0  0  0  0  0  0  0  0  0  0  0
   19.8603   -5.6503    0.0000 C   0  0  0  0  0  0  0  0  0  0  0  0
   15.1078   -8.2194    0.0000 H   0  0  0  0  0  0  0  0  0  0  0  0
   15.8312   -9.4517    0.0000 H   0  0  0  0  0  0  0  0  0  0  0  0
   17.5815   -8.8690    0.0000 H   0  0  0  0  0  0  0  0  0  0  0  0
   16.2350   -6.8023    0.0000 H   0  0  0  0  0  0  0  0  0  0  0  0
   14.4023   -9.4620    0.0000 H   0  0  0  0  0  0  0  0  0  0  0  0
   12.5490   -7.1079    0.0000 C   0  0  2  0  0  0  0  0  0  0  0  0
   12.9615   -6.3935    0.0000 O   0  0  0  0  0  0  0  0  0  0  0  0
   12.5490   -5.6790    0.0000 C   0  0  1  0  0  0  0  0  0  0  0  0
   11.7240   -5.6790    0.0000 C   0  0  1  0  0  0  0  0  0  0  0  0
   11.3115   -6.3935    0.0000 C   0  0  1  0  0  0  0  0  0  0  0  0
   11.7240   -7.1079    0.0000 C   0  0  1  0  0  0  0  0  0  0  0  0
   12.9615   -4.9645    0.0000 C   0  0  0  0  0  0  0  0  0  0  0  0
   11.3115   -4.9645    0.0000 O   0  0  0  0  0  0  0  0  0  0  0  0
   10.4865   -6.3935    0.0000 O   0  0  0  0  0  0  0  0  0  0  0  0
   11.3115   -7.8224    0.0000 O   0  0  0  0  0  0  0  0  0  0  0  0
   10.5915   -8.2252    0.0000 C   0  0  2  0  0  0  0  0  0  0  0  0
    9.8827   -7.8030    0.0000 O   0  0  0  0  0  0  0  0  0  0  0  0
    9.1627   -8.2058    0.0000 C   0  0  1  0  0  0  0  0  0  0  0  0
    9.1515   -9.0307    0.0000 C   0  0  2  0  0  0  0  0  0  0  0  0
    9.8603   -9.4529    0.0000 C   0  0  1  0  0  0  0  0  0  0  0  0
   10.5803   -9.0501    0.0000 C   0  0  1  0  0  0  0  0  0  0  0  0
    9.7720   -5.9810    0.0000 C   0  0  2  0  0  0  0  0  0  0  0  0
    9.7720   -5.1560    0.0000 O   0  0  0  0  0  0  0  0  0  0  0  0
    9.0575   -4.7435    0.0000 C   0  0  0  0  0  0  0  0  0  0  0  0
    8.3431   -5.1560    0.0000 C   0  0  2  0  0  0  0  0  0  0  0  0
    8.3431   -5.9810    0.0000 C   0  0  1  0  0  0  0  0  0  0  0  0
    9.0575   -6.3935    0.0000 C   0  0  1  0  0  0  0  0  0  0  0  0
    9.0575   -7.2185    0.0000 O   0  0  0  0  0  0  0  0  0  0  0  0
    7.6286   -6.3935    0.0000 O   0  0  0  0  0  0  0  0  0  0  0  0
    7.6286   -4.7435    0.0000 O   0  0  0  0  0  0  0  0  0  0  0  0
    8.4539   -7.7836    0.0000 C   0  0  0  0  0  0  0  0  0  0  0  0
    9.8491  -10.2778    0.0000 O   0  0  0  0  0  0  0  0  0  0  0  0
    8.4315   -9.4335    0.0000 O   0  0  0  0  0  0  0  0  0  0  0  0
   11.2891   -9.4723    0.0000 O   0  0  0  0  0  0  0  0  0  0  0  0
    7.7339   -8.1864    0.0000 O   0  0  0  0  0  0  0  0  0  0  0  0
  1  2  1  0  0  0  0
  2  3  1  0  0  0  0
  3  4  1  0  0  0  0
  4  5  1  0  0  0  0
  6  5  1  6  0  0  0
  6  7  1  0  0  0  0
  7  8  1  0  0  0  0
  8  9  1  0  0  0  0
  9 10  1  0  0  0  0
 10 11  1  0  0  0  0
 11 12  1  0  0  0  0
 12 13  1  0  0  0  0
 13 14  1  0  0  0  0
 14 15  1  0  0  0  0
 15 16  1  0  0  0  0
 16 17  1  0  0  0  0
 17 18  1  0  0  0  0
 18 19  2  0  0  0  0
 19 20  1  0  0  0  0
  1 20  1  0  0  0  0
  1 12  1  0  0  0  0
 13 18  1  0  0  0  0
  2  9  1  0  0  0  0
  4  8  1  0  0  0  0
 22 23  1  0  0  0  0
 23 24  1  0  0  0  0
 24 25  1  0  0  0  0
 21 25  1  0  0  0  0
  6 21  1  0  0  0  0
  6 22  1  0  0  0  0
 14 26  1  1  0  0  0
 16 27  1  1  0  0  0
 13 28  1  1  0  0  0
  9 29  1  1  0  0  0
  7 30  1  6  0  0  0
 24 31  1  1  0  0  0
  1 32  1  1  0  0  0
  2 33  1  6  0  0  0
  4 34  1  6  0  0  0
  8 35  1  6  0  0  0
 12 36  1  6  0  0  0
 37 26  1  1  0  0  0
 37 38  1  0  0  0  0
 38 39  1  0  0  0  0
 39 40  1  0  0  0  0
 40 41  1  0  0  0  0
 41 42  1  0  0  0  0
 42 37  1  0  0  0  0
 39 43  1  1  0  0  0
 40 44  1  1  0  0  0
 41 45  1  1  0  0  0
 42 46  1  6  0  0  0
 47 46  1  1  0  0  0
 47 48  1  0  0  0  0
 48 49  1  0  0  0  0
 49 50  1  0  0  0  0
 50 51  1  0  0  0  0
 51 52  1  0  0  0  0
 52 47  1  0  0  0  0
 53 45  1  1  0  0  0
 53 54  1  0  0  0  0
 54 55  1  0  0  0  0
 55 56  1  0  0  0  0
 56 57  1  0  0  0  0
 57 58  1  0  0  0  0
 58 53  1  0  0  0  0
 58 59  1  6  0  0  0
 57 60  1  1  0  0  0
 56 61  1  6  0  0  0
 49 62  1  1  0  0  0
 51 63  1  1  0  0  0
 50 64  1  6  0  0  0
 52 65  1  6  0  0  0
 62 66  1  0  0  0  0
M  END
>  <cdx:fragmentId>
5

$$$$
