8556.cdx
  Mrv1902 05222410232D          

 28 32  0  0  0  0            999 V2000
    8.7290   -5.9614    0.0000 O   0  0  0  0  0  0  0  0  0  0  0  0
    8.2441   -6.6289    0.0000 C   0  0  0  0  0  0  0  0  0  0  0  0
    8.7290   -7.2963    0.0000 C   0  0  0  0  0  0  0  0  0  0  0  0
    9.5136   -7.0414    0.0000 C   0  0  0  0  0  0  0  0  0  0  0  0
    9.5136   -6.2164    0.0000 C   0  0  0  0  0  0  0  0  0  0  0  0
   10.1810   -5.7315    0.0000 O   0  0  0  0  0  0  0  0  0  0  0  0
    4.8315   -9.1609    0.0000 C   0  0  0  0  0  0  0  0  0  0  0  0
    4.1171   -9.5734    0.0000 C   0  0  0  0  0  0  0  0  0  0  0  0
    4.1171  -10.3984    0.0000 C   0  0  0  0  0  0  0  0  0  0  0  0
    4.8315  -10.8109    0.0000 C   0  0  0  0  0  0  0  0  0  0  0  0
    5.5460  -10.3984    0.0000 C   0  0  0  0  0  0  0  0  0  0  0  0
    6.2605  -10.8109    0.0000 C   0  0  0  0  0  0  0  0  0  0  0  0
    6.9749  -10.3984    0.0000 C   0  0  0  0  0  0  0  0  0  0  0  0
    6.9749   -9.5734    0.0000 C   0  0  1  0  0  0  0  0  0  0  0  0
    7.6894   -9.1609    0.0000 C   0  0  1  0  0  0  0  0  0  0  0  0
    8.4740   -9.4158    0.0000 C   0  0  0  0  0  0  0  0  0  0  0  0
    8.9590   -8.7484    0.0000 C   0  0  0  0  0  0  0  0  0  0  0  0
    8.4740   -8.0809    0.0000 C   0  0  1  0  0  0  0  0  0  0  0  0
    7.6894   -8.3359    0.0000 C   0  0  1  0  0  0  0  0  0  0  0  0
    6.9749   -7.9234    0.0000 C   0  0  0  0  0  0  0  0  0  0  0  0
    6.2605   -8.3359    0.0000 C   0  0  0  0  0  0  0  0  0  0  0  0
    6.2605   -9.1609    0.0000 C   0  0  2  0  0  0  0  0  0  0  0  0
    5.5460   -9.5734    0.0000 C   0  0  1  0  0  0  0  0  0  0  0  0
    7.7757   -7.5154    0.0000 C   0  0  0  0  0  0  0  0  0  0  0  0
    5.5460   -8.7484    0.0000 C   0  0  0  0  0  0  0  0  0  0  0  0
    6.9749   -8.7484    0.0000 H   0  0  0  0  0  0  0  0  0  0  0  0
    6.2605   -9.9859    0.0000 H   0  0  0  0  0  0  0  0  0  0  0  0
    7.6894   -9.9859    0.0000 H   0  0  0  0  0  0  0  0  0  0  0  0
  1  2  1  0  0  0  0
  2  3  1  0  0  0  0
  3  4  2  0  0  0  0
  4  5  1  0  0  0  0
  1  5  1  0  0  0  0
  5  6  2  0  0  0  0
  7  8  1  0  0  0  0
  8  9  1  0  0  0  0
  9 10  1  0  0  0  0
 10 11  1  0  0  0  0
 11 12  1  0  0  0  0
 12 13  1  0  0  0  0
 13 14  1  0  0  0  0
 14 15  1  0  0  0  0
 15 16  1  0  0  0  0
 16 17  1  0  0  0  0
 17 18  1  0  0  0  0
 18 19  1  0  0  0  0
 15 19  1  0  0  0  0
 19 20  1  0  0  0  0
 20 21  1  0  0  0  0
 21 22  1  0  0  0  0
 14 22  1  0  0  0  0
 22 23  1  0  0  0  0
 11 23  1  0  0  0  0
  7 23  1  0  0  0  0
 19 24  1  1  0  0  0
 23 25  1  1  0  0  0
 18  3  1  1  0  0  0
 14 26  1  1  0  0  0
 22 27  1  6  0  0  0
 15 28  1  1  0  0  0
M  END
>  <cdx:fragmentId>
17

$$$$
