85568.cdx
  Mrv1902 05222410282D          

 11 11  0  0  0  0            999 V2000
    4.0450   -2.5583    0.0000 C   0  0  1  0  0  0  0  0  0  0  0  0
    3.3305   -2.1458    0.0000 C   0  0  0  0  0  0  0  0  0  0  0  0
    2.6160   -2.5583    0.0000 C   0  0  0  0  0  0  0  0  0  0  0  0
    2.6160   -3.3833    0.0000 C   0  0  0  0  0  0  0  0  0  0  0  0
    3.3305   -3.7958    0.0000 C   0  0  0  0  0  0  0  0  0  0  0  0
    4.0450   -3.3833    0.0000 C   0  0  2  0  0  0  0  0  0  0  0  0
    4.7595   -2.1458    0.0000 O   0  0  0  0  0  0  0  0  0  0  0  0
    1.9016   -2.1458    0.0000 C   0  0  0  0  0  0  0  0  0  0  0  0
    4.7595   -3.7958    0.0000 C   0  0  0  0  0  0  0  0  0  0  0  0
    4.7595   -4.6208    0.0000 C   0  0  0  0  0  0  0  0  0  0  0  0
    5.4739   -3.3833    0.0000 C   0  0  0  0  0  0  0  0  0  0  0  0
  1  2  1  0  0  0  0
  2  3  2  0  0  0  0
  3  4  1  0  0  0  0
  4  5  1  0  0  0  0
  5  6  1  0  0  0  0
  1  6  1  0  0  0  0
  1  7  1  6  0  0  0
  3  8  1  0  0  0  0
  9 10  1  0  0  0  0
  9 11  1  0  0  0  0
  6  9  1  1  0  0  0
M  END
>  <cdx:groupId>
35

>  <cdx:fragmentId>
5

$$$$
