85560.cdx
  Mrv1902 05222410202D          

 55 62  0  0  0  0            999 V2000
   15.8288   -9.5944    0.0000 C   0  0  1  0  0  0  0  0  0  0  0  0
   16.5402   -9.1768    0.0000 C   0  0  2  0  0  0  0  0  0  0  0  0
   17.3267   -9.4260    0.0000 C   0  0  0  0  0  0  0  0  0  0  0  0
   17.8068   -8.7551    0.0000 C   0  0  2  0  0  0  0  0  0  0  0  0
   18.5895   -8.4945    0.0000 O   0  0  0  0  0  0  0  0  0  0  0  0
   18.5836   -7.6695    0.0000 C   0  0  2  0  0  0  0  0  0  0  0  0
   17.7971   -7.4203    0.0000 C   0  0  2  0  0  0  0  0  0  0  0  0
   17.3170   -8.0912    0.0000 C   0  0  2  0  0  0  0  0  0  0  0  0
   16.5343   -8.3518    0.0000 C   0  0  1  0  0  0  0  0  0  0  0  0
   15.8169   -7.9444    0.0000 C   0  0  0  0  0  0  0  0  0  0  0  0
   15.1054   -8.3621    0.0000 C   0  0  0  0  0  0  0  0  0  0  0  0
   15.1113   -9.1871    0.0000 C   0  0  2  0  0  0  0  0  0  0  0  0
   14.3999   -9.6047    0.0000 C   0  0  1  0  0  0  0  0  0  0  0  0
   13.6824   -9.1974    0.0000 C   0  0  1  0  0  0  0  0  0  0  0  0
   12.9710   -9.6150    0.0000 C   0  0  0  0  0  0  0  0  0  0  0  0
   12.9769  -10.4400    0.0000 C   0  0  1  0  0  0  0  0  0  0  0  0
   13.6943  -10.8473    0.0000 C   0  0  0  0  0  0  0  0  0  0  0  0
   14.4058  -10.4297    0.0000 C   0  0  0  0  0  0  0  0  0  0  0  0
   15.1233  -10.8370    0.0000 C   0  0  0  0  0  0  0  0  0  0  0  0
   15.8347  -10.4194    0.0000 C   0  0  0  0  0  0  0  0  0  0  0  0
   18.4914   -6.8497    0.0000 O   0  0  0  0  0  0  0  0  0  0  0  0
   19.3397   -7.9996    0.0000 C   0  0  0  0  0  0  0  0  0  0  0  0
   20.0036   -7.5099    0.0000 C   0  0  0  0  0  0  0  0  0  0  0  0
   19.9114   -6.6901    0.0000 C   0  0  1  0  0  0  0  0  0  0  0  0
   19.1553   -6.3600    0.0000 C   0  0  0  0  0  0  0  0  0  0  0  0
   13.6765   -8.3724    0.0000 O   0  0  0  0  0  0  0  0  0  0  0  0
   12.2654  -10.8577    0.0000 O   0  0  0  0  0  0  0  0  0  0  0  0
   14.3939   -8.7797    0.0000 C   0  0  0  0  0  0  0  0  0  0  0  0
   16.5343   -7.5268    0.0000 C   0  0  0  0  0  0  0  0  0  0  0  0
   17.5365   -6.6375    0.0000 C   0  0  0  0  0  0  0  0  0  0  0  0
   20.5753   -6.2003    0.0000 C   0  0  0  0  0  0  0  0  0  0  0  0
   15.8228   -8.7694    0.0000 H   0  0  0  0  0  0  0  0  0  0  0  0
   16.5462  -10.0017    0.0000 H   0  0  0  0  0  0  0  0  0  0  0  0
   18.2965   -9.4190    0.0000 H   0  0  0  0  0  0  0  0  0  0  0  0
   16.9500   -7.3523    0.0000 H   0  0  0  0  0  0  0  0  0  0  0  0
   15.1173  -10.0120    0.0000 H   0  0  0  0  0  0  0  0  0  0  0  0
   12.9590   -7.9651    0.0000 C   0  0  2  0  0  0  0  0  0  0  0  0
   12.9501   -7.1401    0.0000 O   0  0  0  0  0  0  0  0  0  0  0  0
   12.2312   -6.7354    0.0000 C   0  0  1  0  0  0  0  0  0  0  0  0
   11.5212   -7.1401    0.0000 C   0  0  1  0  0  0  0  0  0  0  0  0
   11.5212   -7.9651    0.0000 C   0  0  1  0  0  0  0  0  0  0  0  0
   12.2312   -8.3698    0.0000 C   0  0  1  0  0  0  0  0  0  0  0  0
   12.2290   -5.9104    0.0000 C   0  0  0  0  0  0  0  0  0  0  0  0
   10.8079   -6.7257    0.0000 O   0  0  0  0  0  0  0  0  0  0  0  0
   10.8079   -8.3795    0.0000 O   0  0  0  0  0  0  0  0  0  0  0  0
   12.2268   -9.1948    0.0000 O   0  0  0  0  0  0  0  0  0  0  0  0
    9.9829   -8.3768    0.0000 C   0  0  2  0  0  0  0  0  0  0  0  0
    9.5718   -7.6615    0.0000 O   0  0  0  0  0  0  0  0  0  0  0  0
    8.7468   -7.6599    0.0000 C   0  0  0  0  0  0  0  0  0  0  0  0
    8.3300   -8.3684    0.0000 C   0  0  2  0  0  0  0  0  0  0  0  0
    8.7381   -9.0854    0.0000 C   0  0  1  0  0  0  0  0  0  0  0  0
    9.5602   -9.0887    0.0000 C   0  0  1  0  0  0  0  0  0  0  0  0
    9.9669   -9.8065    0.0000 O   0  0  0  0  0  0  0  0  0  0  0  0
    8.3220   -9.7978    0.0000 O   0  0  0  0  0  0  0  0  0  0  0  0
    7.5050   -8.3625    0.0000 O   0  0  0  0  0  0  0  0  0  0  0  0
  1  2  1  0  0  0  0
  2  3  1  0  0  0  0
  3  4  1  0  0  0  0
  4  5  1  0  0  0  0
  6  5  1  6  0  0  0
  6  7  1  0  0  0  0
  7  8  1  0  0  0  0
  8  9  1  0  0  0  0
  9 10  1  0  0  0  0
 10 11  1  0  0  0  0
 11 12  1  0  0  0  0
 12 13  1  0  0  0  0
 13 14  1  0  0  0  0
 14 15  1  0  0  0  0
 15 16  1  0  0  0  0
 16 17  1  0  0  0  0
 17 18  1  0  0  0  0
 18 19  2  0  0  0  0
 19 20  1  0  0  0  0
  1 20  1  0  0  0  0
  1 12  1  0  0  0  0
 13 18  1  0  0  0  0
  2  9  1  0  0  0  0
  4  8  1  0  0  0  0
 22 23  1  0  0  0  0
 23 24  1  0  0  0  0
 24 25  1  0  0  0  0
 21 25  1  0  0  0  0
  6 21  1  0  0  0  0
  6 22  1  0  0  0  0
 14 26  1  1  0  0  0
 16 27  1  1  0  0  0
 13 28  1  1  0  0  0
  9 29  1  1  0  0  0
  7 30  1  6  0  0  0
 24 31  1  1  0  0  0
  1 32  1  1  0  0  0
  2 33  1  6  0  0  0
  4 34  1  6  0  0  0
  8 35  1  6  0  0  0
 12 36  1  6  0  0  0
 37 26  1  1  0  0  0
 37 38  1  0  0  0  0
 38 39  1  0  0  0  0
 39 40  1  0  0  0  0
 40 41  1  0  0  0  0
 41 42  1  0  0  0  0
 42 37  1  0  0  0  0
 39 43  1  1  0  0  0
 40 44  1  1  0  0  0
 41 45  1  1  0  0  0
 42 46  1  6  0  0  0
 47 45  1  1  0  0  0
 47 48  1  0  0  0  0
 48 49  1  0  0  0  0
 49 50  1  0  0  0  0
 50 51  1  0  0  0  0
 51 52  1  0  0  0  0
 52 47  1  0  0  0  0
 52 53  1  6  0  0  0
 51 54  1  1  0  0  0
 50 55  1  6  0  0  0
M  END
>  <cdx:fragmentId>
162

$$$$
