855771.cdx
  Mrv1902 05222410202D          

 46 49  0  0  0  0            999 V2000
    3.4167   -9.5474    0.0000 O   0  0  0  0  0  0  0  0  0  0  0  0
    4.1312   -9.9599    0.0000 C   0  0  2  0  0  0  0  0  0  0  0  0
    4.1312  -10.7849    0.0000 C   0  0  1  0  0  0  0  0  0  0  0  0
    3.4167  -11.1974    0.0000 C   0  0  2  0  0  0  0  0  0  0  0  0
    2.7022  -10.7849    0.0000 C   0  0  1  0  0  0  0  0  0  0  0  0
    2.7022   -9.9599    0.0000 C   0  0  1  0  0  0  0  0  0  0  0  0
    4.8457  -11.1974    0.0000 O   0  0  0  0  0  0  0  0  0  0  0  0
    3.4167  -12.0224    0.0000 O   0  0  0  0  0  0  0  0  0  0  0  0
    1.9878  -11.1974    0.0000 O   0  0  0  0  0  0  0  0  0  0  0  0
    1.9878   -9.5474    0.0000 C   0  0  0  0  0  0  0  0  0  0  0  0
    1.2733   -9.9599    0.0000 O   0  0  0  0  0  0  0  0  0  0  0  0
    4.8457   -9.5474    0.0000 O   0  0  0  0  0  0  0  0  0  0  0  0
    5.5601   -9.9599    0.0000 C   0  0  0  0  0  0  0  0  0  0  0  0
    6.2746   -9.5474    0.0000 C   0  0  0  0  0  0  0  0  0  0  0  0
    6.9891   -9.9599    0.0000 C   0  0  0  0  0  0  0  0  0  0  0  0
    7.7035   -9.5474    0.0000 C   0  0  0  0  0  0  0  0  0  0  0  0
    8.4180   -9.9599    0.0000 C   0  0  0  0  0  0  0  0  0  0  0  0
    6.9891  -10.7849    0.0000 C   0  0  0  0  0  0  0  0  0  0  0  0
    9.1325   -9.5474    0.0000 C   0  0  2  0  0  0  0  0  0  0  0  0
    9.1325   -8.7224    0.0000 C   0  0  0  0  0  0  0  0  0  0  0  0
    9.8470   -8.3099    0.0000 C   0  0  0  0  0  0  0  0  0  0  0  0
   10.5614   -8.7224    0.0000 C   0  0  0  0  0  0  0  0  0  0  0  0
   10.5614   -9.5474    0.0000 C   0  0  2  0  0  0  0  0  0  0  0  0
   11.2759   -9.9599    0.0000 C   0  0  2  0  0  0  0  0  0  0  0  0
   11.2759  -10.7849    0.0000 C   0  0  1  0  0  0  0  0  0  0  0  0
   10.5614  -11.1974    0.0000 C   0  0  0  0  0  0  0  0  0  0  0  0
    9.8470  -10.7849    0.0000 C   0  0  0  0  0  0  0  0  0  0  0  0
    9.8470   -9.9599    0.0000 C   0  0  1  0  0  0  0  0  0  0  0  0
   11.9904   -9.5474    0.0000 C   0  0  0  0  0  0  0  0  0  0  0  0
   12.7048   -9.9599    0.0000 O   0  0  0  0  0  0  0  0  0  0  0  0
   14.1338   -9.9599    0.0000 O   0  0  0  0  0  0  0  0  0  0  0  0
   13.4193   -9.5474    0.0000 C   0  0  2  0  0  0  0  0  0  0  0  0
   13.4193   -8.7224    0.0000 C   0  0  1  0  0  0  0  0  0  0  0  0
   14.1338   -8.3099    0.0000 C   0  0  2  0  0  0  0  0  0  0  0  0
   14.8483   -8.7224    0.0000 C   0  0  1  0  0  0  0  0  0  0  0  0
   14.8483   -9.5474    0.0000 C   0  0  1  0  0  0  0  0  0  0  0  0
   15.5627   -9.9599    0.0000 C   0  0  0  0  0  0  0  0  0  0  0  0
   16.2772   -9.5474    0.0000 O   0  0  0  0  0  0  0  0  0  0  0  0
   15.5627   -8.3099    0.0000 O   0  0  0  0  0  0  0  0  0  0  0  0
   14.1338   -7.4849    0.0000 O   0  0  0  0  0  0  0  0  0  0  0  0
   12.7048   -8.3099    0.0000 O   0  0  0  0  0  0  0  0  0  0  0  0
    8.4180   -8.3099    0.0000 C   0  0  0  0  0  0  0  0  0  0  0  0
    9.1325  -10.3724    0.0000 C   0  0  0  0  0  0  0  0  0  0  0  0
   11.9904  -10.3724    0.0000 C   0  0  0  0  0  0  0  0  0  0  0  0
   11.9904  -11.1974    0.0000 O   0  0  0  0  0  0  0  0  0  0  0  0
   11.2759   -9.1349    0.0000 H   0  0  0  0  0  0  0  0  0  0  0  0
  1  2  1  0  0  0  0
  2  3  1  0  0  0  0
  3  4  1  0  0  0  0
  4  5  1  0  0  0  0
  5  6  1  0  0  0  0
  1  6  1  0  0  0  0
  3  7  1  6  0  0  0
  4  8  1  1  0  0  0
  5  9  1  6  0  0  0
 10 11  1  0  0  0  0
  6 10  1  1  0  0  0
 13 14  1  0  0  0  0
 14 15  2  0  0  0  0
 15 16  1  0  0  0  0
 16 17  1  0  0  0  0
 12 13  1  0  0  0  0
 15 18  1  0  0  0  0
 19 20  1  0  0  0  0
 20 21  1  0  0  0  0
 21 22  1  0  0  0  0
 22 23  1  0  0  0  0
 23 24  1  0  0  0  0
 24 25  1  0  0  0  0
 25 26  1  0  0  0  0
 26 27  1  0  0  0  0
 27 28  1  0  0  0  0
 19 28  1  0  0  0  0
 23 28  1  0  0  0  0
 31 32  1  0  0  0  0
 32 33  1  0  0  0  0
 33 34  1  0  0  0  0
 34 35  1  0  0  0  0
 35 36  1  0  0  0  0
 31 36  1  0  0  0  0
 37 38  1  0  0  0  0
 36 37  1  1  0  0  0
 35 39  1  6  0  0  0
 34 40  1  1  0  0  0
 33 41  1  6  0  0  0
 32 30  1  1  0  0  0
 29 30  1  0  0  0  0
 24 29  1  0  0  0  0
 20 42  2  0  0  0  0
 28 43  1  6  0  0  0
 24 44  1  6  0  0  0
 25 45  1  6  0  0  0
 19 17  1  6  0  0  0
  2 12  1  1  0  0  0
 23 46  1  1  0  0  0
M  END
>  <cdx:fragmentId>
97074

$$$$
