856233.cdx
  Mrv1902 05222410222D          

 15 16  0  0  0  0            999 V2000
    8.5583   -8.8364    0.0000 C   0  0  0  0  0  0  0  0  0  0  0  0
    9.1104   -9.4495    0.0000 C   0  0  0  0  0  0  0  0  0  0  0  0
    8.8133   -8.0518    0.0000 O   0  0  0  0  0  0  0  0  0  0  0  0
    7.7514   -9.0079    0.0000 O   0  0  0  0  0  0  0  0  0  0  0  0
    5.9272   -9.7926    0.0000 O   0  0  0  0  0  0  0  0  0  0  0  0
    6.7118  -10.0475    0.0000 C   0  0  1  0  0  0  0  0  0  0  0  0
    6.7118  -10.8725    0.0000 C   0  0  1  0  0  0  0  0  0  0  0  0
    5.9272  -11.1274    0.0000 C   0  0  1  0  0  0  0  0  0  0  0  0
    5.4423  -10.4600    0.0000 C   0  0  0  0  0  0  0  0  0  0  0  0
    7.4964  -11.1274    0.0000 O   0  0  0  0  0  0  0  0  0  0  0  0
    7.4964   -9.7926    0.0000 C   0  0  2  0  0  0  0  0  0  0  0  0
    7.9814  -10.4600    0.0000 C   0  0  0  0  0  0  0  0  0  0  0  0
    5.6723  -11.9121    0.0000 O   0  0  0  0  0  0  0  0  0  0  0  0
    6.7118  -11.6975    0.0000 H   0  0  0  0  0  0  0  0  0  0  0  0
    6.7118   -9.2225    0.0000 H   0  0  0  0  0  0  0  0  0  0  0  0
  1  2  1  0  0  0  0
  1  3  2  0  0  0  0
  1  4  1  0  0  0  0
  5  6  1  0  0  0  0
  6  7  1  0  0  0  0
  7  8  1  0  0  0  0
  8  9  1  0  0  0  0
  5  9  1  0  0  0  0
 11 12  1  0  0  0  0
 10 12  1  0  0  0  0
 11  6  1  0  0  0  0
 10  7  1  0  0  0  0
  8 13  1  6  0  0  0
 11  4  1  1  0  0  0
  7 14  1  1  0  0  0
  6 15  1  1  0  0  0
M  END
>  <cdx:fragmentId>
61716

$$$$
