8564.cdx
  Mrv1902 05222410222D          

 33 36  0  0  0  0            999 V2000
    5.4352   -7.5918    0.0000 O   0  0  0  0  0  0  0  0  0  0  0  0
    6.1288   -5.5343    0.0000 C   0  0  2  0  0  0  0  0  0  0  0  0
    5.4114   -5.1270    0.0000 C   0  0  2  0  0  0  0  0  0  0  0  0
    4.6999   -5.5447    0.0000 C   0  0  1  0  0  0  0  0  0  0  0  0
    4.7060   -6.3697    0.0000 C   0  0  2  0  0  0  0  0  0  0  0  0
    5.4234   -6.7770    0.0000 C   0  0  1  0  0  0  0  0  0  0  0  0
    6.1349   -6.3593    0.0000 O   0  0  0  0  0  0  0  0  0  0  0  0
    6.8403   -5.1166    0.0000 C   0  0  0  0  0  0  0  0  0  0  0  0
    3.9824   -5.1375    0.0000 O   0  0  0  0  0  0  0  0  0  0  0  0
    6.8342   -4.2916    0.0000 O   0  0  0  0  0  0  0  0  0  0  0  0
    7.5577   -5.5238    0.0000 O   0  0  0  0  0  0  0  0  0  0  0  0
    3.9945   -6.7874    0.0000 O   0  0  0  0  0  0  0  0  0  0  0  0
    5.4053   -4.3020    0.0000 O   0  0  0  0  0  0  0  0  0  0  0  0
   11.8838   -6.4539    0.0000 O   0  0  0  0  0  0  0  0  0  0  0  0
    8.2545  -10.1107    0.0000 O   0  0  0  0  0  0  0  0  0  0  0  0
    6.8257  -10.0886    0.0000 O   0  0  0  0  0  0  0  0  0  0  0  0
    5.4097   -9.2416    0.0000 O   0  0  0  0  0  0  0  0  0  0  0  0
   11.1503   -7.6802    0.0000 C   0  0  0  0  0  0  0  0  0  0  0  0
   11.1630   -6.8553    0.0000 C   0  0  0  0  0  0  0  0  0  0  0  0
   10.4550   -6.4318    0.0000 C   0  0  0  0  0  0  0  0  0  0  0  0
    9.7343   -6.8332    0.0000 C   0  0  0  0  0  0  0  0  0  0  0  0
   10.4295   -8.0816    0.0000 C   0  0  0  0  0  0  0  0  0  0  0  0
    9.7215   -7.6581    0.0000 C   0  0  0  0  0  0  0  0  0  0  0  0
    8.2672   -9.2858    0.0000 C   0  0  0  0  0  0  0  0  0  0  0  0
    8.9880   -8.8844    0.0000 C   0  0  0  0  0  0  0  0  0  0  0  0
    9.0008   -8.0595    0.0000 C   0  0  2  0  0  0  0  0  0  0  0  0
    8.2927   -7.6360    0.0000 O   0  0  0  0  0  0  0  0  0  0  0  0
    6.8385   -9.2637    0.0000 C   0  0  0  0  0  0  0  0  0  0  0  0
    7.5592   -8.8623    0.0000 C   0  0  0  0  0  0  0  0  0  0  0  0
    7.5720   -8.0374    0.0000 C   0  0  0  0  0  0  0  0  0  0  0  0
    6.8640   -7.6139    0.0000 C   0  0  0  0  0  0  0  0  0  0  0  0
    6.1432   -8.0153    0.0000 C   0  0  0  0  0  0  0  0  0  0  0  0
    6.1305   -8.8402    0.0000 C   0  0  0  0  0  0  0  0  0  0  0  0
  2  3  1  0  0  0  0
  3  4  1  0  0  0  0
  4  5  1  0  0  0  0
  5  6  1  0  0  0  0
  6  7  1  0  0  0  0
  7  2  1  0  0  0  0
  2  8  1  1  0  0  0
  4  9  1  1  0  0  0
  8 10  1  0  0  0  0
  8 11  2  0  0  0  0
  5 12  1  6  0  0  0
  3 13  1  6  0  0  0
 19 14  1  0  0  0  0
 24 15  2  0  0  0  0
 28 16  1  0  0  0  0
 33 17  1  0  0  0  0
 32  1  1  0  0  0  0
  6  1  1  1  0  0  0
 18 22  2  0  0  0  0
 19 18  1  0  0  0  0
 20 19  2  0  0  0  0
 21 20  1  0  0  0  0
 23 21  2  0  0  0  0
 23 22  1  0  0  0  0
 26 23  1  6  0  0  0
 24 29  1  0  0  0  0
 25 24  1  0  0  0  0
 26 25  1  0  0  0  0
 27 26  1  0  0  0  0
 30 27  1  0  0  0  0
 28 33  1  0  0  0  0
 29 28  2  0  0  0  0
 30 29  1  0  0  0  0
 31 30  2  0  0  0  0
 32 31  1  0  0  0  0
 33 32  2  0  0  0  0
M  END
>  <cdx:fragmentId>
5

$$$$
