8571.cdx
  Mrv1902 05222410222D          

 11 11  0  0  0  0            999 V2000
    6.1427   -6.0225    0.0000 C   0  0  0  0  0  0  0  0  0  0  0  0
    6.1427   -6.8475    0.0000 C   0  0  0  0  0  0  0  0  0  0  0  0
    6.8571   -7.2600    0.0000 C   0  0  0  0  0  0  0  0  0  0  0  0
    7.5716   -6.8475    0.0000 C   0  0  0  0  0  0  0  0  0  0  0  0
    7.5716   -6.0225    0.0000 C   0  0  0  0  0  0  0  0  0  0  0  0
    6.8571   -5.6100    0.0000 C   0  0  0  0  0  0  0  0  0  0  0  0
    6.8571   -8.0850    0.0000 C   0  0  0  0  0  0  0  0  0  0  0  0
    5.4282   -7.2600    0.0000 O   0  0  0  0  0  0  0  0  0  0  0  0
    6.8571   -4.7850    0.0000 C   0  0  0  0  0  0  0  0  0  0  0  0
    6.1427   -4.3725    0.0000 C   0  0  0  0  0  0  0  0  0  0  0  0
    7.5716   -4.3725    0.0000 C   0  0  0  0  0  0  0  0  0  0  0  0
  1  2  1  0  0  0  0
  2  3  1  0  0  0  0
  3  4  2  0  0  0  0
  4  5  1  0  0  0  0
  5  6  1  0  0  0  0
  6  1  1  0  0  0  0
  3  7  1  0  0  0  0
  2  8  2  0  0  0  0
  6  9  1  0  0  0  0
  9 10  1  0  0  0  0
  9 11  1  0  0  0  0
M  END
>  <cdx:fragmentId>
5

$$$$
