6857422.cdx
  Mrv1902 05222410282D          

 24 27  0  0  0  0            999 V2000
    5.2540  -13.4001    0.0000 C   0  0  0  0  0  0  0  0  0  0  0  0
    4.5395  -13.8126    0.0000 C   0  0  0  0  0  0  0  0  0  0  0  0
    4.5395  -14.6376    0.0000 C   0  0  0  0  0  0  0  0  0  0  0  0
    5.2540  -15.0501    0.0000 C   0  0  0  0  0  0  0  0  0  0  0  0
    5.9684  -14.6376    0.0000 C   0  0  0  0  0  0  0  0  0  0  0  0
    6.6829  -15.0501    0.0000 C   0  0  0  0  0  0  0  0  0  0  0  0
    7.3974  -14.6376    0.0000 C   0  0  0  0  0  0  0  0  0  0  0  0
    7.3974  -13.8126    0.0000 C   0  0  1  0  0  0  0  0  0  0  0  0
    8.1119  -13.4001    0.0000 C   0  0  2  0  0  0  0  0  0  0  0  0
    8.8965  -13.6550    0.0000 C   0  0  0  0  0  0  0  0  0  0  0  0
    9.3814  -12.9876    0.0000 C   0  0  0  0  0  0  0  0  0  0  0  0
    8.8965  -12.3201    0.0000 C   0  0  1  0  0  0  0  0  0  0  0  0
    8.1119  -12.5751    0.0000 C   0  0  1  0  0  0  0  0  0  0  0  0
    7.3974  -12.1626    0.0000 C   0  0  0  0  0  0  0  0  0  0  0  0
    6.6829  -12.5751    0.0000 C   0  0  0  0  0  0  0  0  0  0  0  0
    6.6829  -13.4001    0.0000 C   0  0  2  0  0  0  0  0  0  0  0  0
    5.9684  -13.8126    0.0000 C   0  0  1  0  0  0  0  0  0  0  0  0
    8.1981  -11.7546    0.0000 C   0  0  0  0  0  0  0  0  0  0  0  0
    5.9684  -12.9876    0.0000 C   0  0  0  0  0  0  0  0  0  0  0  0
    9.1514  -11.5355    0.0000 C   0  0  0  0  0  0  0  0  0  0  0  0
    9.9584  -11.3640    0.0000 C   0  0  0  0  0  0  0  0  0  0  0  0
    7.3974  -12.9876    0.0000 H   0  0  0  0  0  0  0  0  0  0  0  0
    6.6829  -14.2251    0.0000 H   0  0  0  0  0  0  0  0  0  0  0  0
    8.1119  -14.2251    0.0000 H   0  0  0  0  0  0  0  0  0  0  0  0
  1  2  1  0  0  0  0
  2  3  1  0  0  0  0
  3  4  1  0  0  0  0
  4  5  1  0  0  0  0
  5  6  1  0  0  0  0
  6  7  1  0  0  0  0
  7  8  1  0  0  0  0
  8  9  1  0  0  0  0
  9 10  1  0  0  0  0
 10 11  1  0  0  0  0
 11 12  1  0  0  0  0
 12 13  1  0  0  0  0
  9 13  1  0  0  0  0
 13 14  1  0  0  0  0
 14 15  1  0  0  0  0
 15 16  1  0  0  0  0
  8 16  1  0  0  0  0
 16 17  1  0  0  0  0
  5 17  1  0  0  0  0
  1 17  1  0  0  0  0
 13 18  1  1  0  0  0
 17 19  1  1  0  0  0
 20 21  1  0  0  0  0
 12 20  1  1  0  0  0
  8 22  1  1  0  0  0
 16 23  1  6  0  0  0
  9 24  1  6  0  0  0
M  END
>  <cdx:groupId>
26731

>  <cdx:fragmentId>
26659

$$$$
