857470.cdx
  Mrv1902 05222410202D          

 13 14  0  0  0  0            999 V2000
    6.6825   -6.9575    0.0000 C   0  0  1  0  0  0  0  0  0  0  0  0
    7.0675   -6.1050    0.0000 O   0  0  0  0  0  0  0  0  0  0  0  0
    7.8100   -6.3800    0.0000 C   0  0  0  0  0  0  0  0  0  0  0  0
    6.9850   -7.8650    0.0000 C   0  0  2  0  0  0  0  0  0  0  0  0
    8.1400   -8.1400    0.0000 C   0  0  0  0  0  0  0  0  0  0  0  0
    8.4150   -7.2875    0.0000 C   0  0  1  0  0  0  0  0  0  0  0  0
    5.6650   -7.2325    0.0000 C   0  0  0  0  0  0  0  0  0  0  0  0
    5.9675   -8.1400    0.0000 C   0  0  0  0  0  0  0  0  0  0  0  0
    9.1295   -6.8750    0.0000 O   0  0  0  0  0  0  0  0  0  0  0  0
    8.6350   -6.3800    0.0000 C   0  0  0  0  0  0  0  0  0  0  0  0
    8.2225   -5.6655    0.0000 C   0  0  0  0  0  0  0  0  0  0  0  0
    6.2700   -6.2430    0.0000 C   0  0  0  0  0  0  0  0  0  0  0  0
    7.1985   -8.6619    0.0000 H   0  0  0  0  0  0  0  0  0  0  0  0
  1  2  1  0  0  0  0
  2  3  1  0  0  0  0
  3  4  1  0  0  0  0
  4  5  1  0  0  0  0
  5  6  1  0  0  0  0
  7  8  1  0  0  0  0
  1  6  1  0  0  0  0
  1  7  1  0  0  0  0
  4  8  1  0  0  0  0
  6  9  1  6  0  0  0
  3 10  1  0  0  0  0
  3 11  1  0  0  0  0
  1 12  1  6  0  0  0
  4 13  1  1  0  0  0
M  END
>  <cdx:groupId>
26876

>  <cdx:fragmentId>
26839

$$$$
