857487.cdx
  Mrv1902 05222410242D          

 12 13  0  0  0  0            999 V2000
    8.2650   -7.1676    0.0000 C   0  0  1  0  0  0  0  0  0  0  0  0
    7.5505   -6.7551    0.0000 C   0  0  0  0  0  0  0  0  0  0  0  0
    6.8361   -7.1676    0.0000 C   0  0  0  0  0  0  0  0  0  0  0  0
    6.8361   -7.9926    0.0000 C   0  0  1  0  0  0  0  0  0  0  0  0
    7.5505   -8.4051    0.0000 C   0  0  0  0  0  0  0  0  0  0  0  0
    8.2650   -7.9926    0.0000 C   0  0  1  0  0  0  0  0  0  0  0  0
    8.9795   -7.5801    0.0000 O   0  0  0  0  0  0  0  0  0  0  0  0
    6.1216   -9.2301    0.0000 C   0  0  0  0  0  0  0  0  0  0  0  0
    6.1216   -8.4051    0.0000 C   0  0  0  0  0  0  0  0  0  0  0  0
    5.4071   -7.9926    0.0000 C   0  0  0  0  0  0  0  0  0  0  0  0
    8.6775   -6.4531    0.0000 C   0  0  0  0  0  0  0  0  0  0  0  0
    8.6775   -8.7071    0.0000 H   0  0  0  0  0  0  0  0  0  0  0  0
  1  2  1  0  0  0  0
  2  3  1  0  0  0  0
  3  4  1  0  0  0  0
  4  5  1  0  0  0  0
  5  6  1  0  0  0  0
  6  7  1  0  0  0  0
  1  7  1  0  0  0  0
  1  6  1  0  0  0  0
  8  9  2  0  0  0  0
  9 10  1  0  0  0  0
  4  9  1  1  0  0  0
  1 11  1  1  0  0  0
  6 12  1  1  0  0  0
M  END
>  <cdx:fragmentId>
15461

$$$$
