857540.cdx
  Mrv1902 05222410272D          

 17 18  0  0  0  0            999 V2000
    8.6965   -7.3067    0.0000 C   0  0  1  0  0  0  0  0  0  0  0  0
    9.4110   -6.8942    0.0000 C   0  0  0  0  0  0  0  0  0  0  0  0
    9.4110   -6.0692    0.0000 C   0  0  0  0  0  0  0  0  0  0  0  0
    8.6965   -5.6567    0.0000 C   0  0  2  0  0  0  0  0  0  0  0  0
    7.9820   -6.0692    0.0000 C   0  0  2  0  0  0  0  0  0  0  0  0
    7.2676   -5.6567    0.0000 C   0  0  0  0  0  0  0  0  0  0  0  0
    6.5531   -6.0692    0.0000 C   0  0  1  0  0  0  0  0  0  0  0  0
    6.5531   -6.8942    0.0000 C   0  0  0  0  0  0  0  0  0  0  0  0
    7.2676   -7.3067    0.0000 C   0  0  0  0  0  0  0  0  0  0  0  0
    7.9820   -6.8942    0.0000 C   0  0  1  0  0  0  0  0  0  0  0  0
    8.6965   -8.1317    0.0000 O   0  0  0  0  0  0  0  0  0  0  0  0
    7.9820   -7.7192    0.0000 O   0  0  0  0  0  0  0  0  0  0  0  0
    5.8386   -4.8317    0.0000 C   0  0  0  0  0  0  0  0  0  0  0  0
    5.8386   -5.6567    0.0000 C   0  0  0  0  0  0  0  0  0  0  0  0
    5.1241   -6.0692    0.0000 C   0  0  0  0  0  0  0  0  0  0  0  0
    7.9820   -5.2442    0.0000 C   0  0  0  0  0  0  0  0  0  0  0  0
    8.6965   -4.8317    0.0000 C   0  0  0  0  0  0  0  0  0  0  0  0
  1  2  1  0  0  0  0
  2  3  1  0  0  0  0
  3  4  1  0  0  0  0
  4  5  1  0  0  0  0
  5  6  1  0  0  0  0
  6  7  1  0  0  0  0
  7  8  1  0  0  0  0
  8  9  1  0  0  0  0
  9 10  1  0  0  0  0
  1 10  1  0  0  0  0
  5 10  1  0  0  0  0
  1 11  1  6  0  0  0
 10 12  1  1  0  0  0
 13 14  2  0  0  0  0
 14 15  1  0  0  0  0
  7 14  1  1  0  0  0
  5 16  1  6  0  0  0
  4 17  1  6  0  0  0
M  END
>  <cdx:fragmentId>
61759

$$$$
