85779.cdx
  Mrv1902 05222410262D          

 17 16  0  0  0  0            999 V2000
    1.0146   -3.4166    0.0000 C   0  0  0  0  0  0  0  0  0  0  0  0
    1.7291   -3.0041    0.0000 C   0  0  0  0  0  0  0  0  0  0  0  0
    2.4435   -3.4166    0.0000 C   0  0  0  0  0  0  0  0  0  0  0  0
    3.1580   -3.0041    0.0000 C   0  0  0  0  0  0  0  0  0  0  0  0
    3.8725   -3.4166    0.0000 C   0  0  0  0  0  0  0  0  0  0  0  0
    4.5869   -3.0041    0.0000 C   0  0  0  0  0  0  0  0  0  0  0  0
    5.3014   -3.4166    0.0000 C   0  0  0  0  0  0  0  0  0  0  0  0
    6.0159   -3.0041    0.0000 C   0  0  0  0  0  0  0  0  0  0  0  0
    6.7304   -3.4166    0.0000 C   0  0  0  0  0  0  0  0  0  0  0  0
    7.4448   -3.0041    0.0000 C   0  0  0  0  0  0  0  0  0  0  0  0
    8.1593   -3.4166    0.0000 C   0  0  0  0  0  0  0  0  0  0  0  0
    8.8738   -3.0041    0.0000 C   0  0  0  0  0  0  0  0  0  0  0  0
    9.5882   -3.4166    0.0000 C   0  0  0  0  0  0  0  0  0  0  0  0
   10.3027   -3.0041    0.0000 C   0  0  0  0  0  0  0  0  0  0  0  0
   11.0172   -3.4166    0.0000 C   0  0  0  0  0  0  0  0  0  0  0  0
   11.7317   -3.0041    0.0000 C   0  0  0  0  0  0  0  0  0  0  0  0
    1.7291   -2.1791    0.0000 O   0  0  0  0  0  0  0  0  0  0  0  0
  1  2  1  0  0  0  0
  2  3  1  0  0  0  0
  3  4  1  0  0  0  0
  4  5  1  0  0  0  0
  5  6  1  0  0  0  0
  6  7  1  0  0  0  0
  7  8  1  0  0  0  0
  8  9  1  0  0  0  0
  9 10  1  0  0  0  0
 10 11  1  0  0  0  0
 11 12  1  0  0  0  0
 12 13  1  0  0  0  0
 13 14  1  0  0  0  0
 14 15  1  0  0  0  0
 15 16  1  0  0  0  0
  2 17  1  0  0  0  0
M  END
>  <cdx:groupId>
52

>  <cdx:fragmentId>
5

$$$$
