857951.cdx
  Mrv1902 05222410192D          

 38 42  0  0  0  0            999 V2000
    5.3355   -7.3975    0.0000 C   0  0  2  0  0  0  0  0  0  0  0  0
    5.3355   -8.2225    0.0000 C   0  0  0  0  0  0  0  0  0  0  0  0
    6.0500   -8.6350    0.0000 C   0  0  0  0  0  0  0  0  0  0  0  0
    6.7645   -8.2225    0.0000 C   0  0  2  0  0  0  0  0  0  0  0  0
    6.7645   -7.3975    0.0000 C   0  0  1  0  0  0  0  0  0  0  0  0
    6.0500   -6.9850    0.0000 C   0  0  2  0  0  0  0  0  0  0  0  0
    7.4789   -8.6350    0.0000 C   0  0  2  0  0  0  0  0  0  0  0  0
    8.1934   -8.2225    0.0000 C   0  0  1  0  0  0  0  0  0  0  0  0
    8.1934   -7.3975    0.0000 C   0  0  0  0  0  0  0  0  0  0  0  0
    7.4789   -6.9850    0.0000 C   0  0  0  0  0  0  0  0  0  0  0  0
    7.4789   -9.4600    0.0000 C   0  0  1  0  0  0  0  0  0  0  0  0
    8.1934   -9.8725    0.0000 C   0  0  0  0  0  0  0  0  0  0  0  0
    8.9079   -9.4600    0.0000 O   0  0  0  0  0  0  0  0  0  0  0  0
    8.9079   -8.6350    0.0000 C   0  0  2  0  0  0  0  0  0  0  0  0
    9.6224   -8.2225    0.0000 C   0  0  0  0  0  0  0  0  0  0  0  0
   10.3760   -8.5581    0.0000 C   0  0  0  0  0  0  0  0  0  0  0  0
   10.9281   -7.9450    0.0000 O   0  0  0  0  0  0  0  0  0  0  0  0
   10.5156   -7.2305    0.0000 C   0  0  0  0  0  0  0  0  0  0  0  0
    9.7086   -7.4020    0.0000 C   0  0  0  0  0  0  0  0  0  0  0  0
    8.1934  -10.6975    0.0000 O   0  0  0  0  0  0  0  0  0  0  0  0
    6.8956  -10.0434    0.0000 H   0  0  0  0  0  0  0  0  0  0  0  0
    6.7645   -9.0475    0.0000 O   0  0  0  0  0  0  0  0  0  0  0  0
    7.4789   -7.8100    0.0000 C   0  0  0  0  0  0  0  0  0  0  0  0
    8.9079   -7.8100    0.0000 C   0  0  0  0  0  0  0  0  0  0  0  0
    6.7645   -6.5725    0.0000 H   0  0  0  0  0  0  0  0  0  0  0  0
    6.0500   -9.4600    0.0000 O   0  0  0  0  0  0  0  0  0  0  0  0
    6.4625   -6.2705    0.0000 C   0  0  0  0  0  0  0  0  0  0  0  0
    5.6375   -6.2705    0.0000 C   0  0  1  0  0  0  0  0  0  0  0  0
    4.6211   -6.9850    0.0000 C   0  0  0  0  0  0  0  0  0  0  0  0
    4.6211   -7.8100    0.0000 H   0  0  0  0  0  0  0  0  0  0  0  0
    4.2086   -7.6995    0.0000 C   0  0  0  0  0  0  0  0  0  0  0  0
    5.0336   -6.2705    0.0000 C   0  0  0  0  0  0  0  0  0  0  0  0
    3.9066   -6.5725    0.0000 O   0  0  0  0  0  0  0  0  0  0  0  0
    6.0500   -5.5561    0.0000 C   0  0  0  0  0  0  0  0  0  0  0  0
    5.0541   -5.6872    0.0000 O   0  0  0  0  0  0  0  0  0  0  0  0
    6.8750   -5.5561    0.0000 C   0  0  0  0  0  0  0  0  0  0  0  0
    7.2875   -6.2705    0.0000 O   0  0  0  0  0  0  0  0  0  0  0  0
    7.2875   -4.8416    0.0000 O   0  0  0  0  0  0  0  0  0  0  0  0
  1  2  1  0  0  0  0
  2  3  1  0  0  0  0
  3  4  1  0  0  0  0
  4  5  1  0  0  0  0
  5  6  1  0  0  0  0
  6  1  1  0  0  0  0
  4  7  1  0  0  0  0
  7  8  1  0  0  0  0
  8  9  1  0  0  0  0
  9 10  1  0  0  0  0
 10  5  1  0  0  0  0
  7 11  1  0  0  0  0
 11 12  1  0  0  0  0
 12 13  1  0  0  0  0
 13 14  1  0  0  0  0
 14  8  1  0  0  0  0
 14 15  1  1  0  0  0
 15 16  2  0  0  0  0
 16 17  1  0  0  0  0
 17 18  1  0  0  0  0
 18 19  2  0  0  0  0
 19 15  1  0  0  0  0
 12 20  2  0  0  0  0
 11 21  1  6  0  0  0
  7 22  1  1  0  0  0
  4 23  1  1  0  0  0
  8 24  1  6  0  0  0
  5 25  1  6  0  0  0
  3 26  2  0  0  0  0
  6 27  1  1  0  0  0
  6 28  1  0  0  0  0
  1 29  1  0  0  0  0
  1 30  1  6  0  0  0
 29 31  1  0  0  0  0
 29 32  1  0  0  0  0
 29 33  1  0  0  0  0
 28 34  1  0  0  0  0
 28 35  1  6  0  0  0
 34 36  1  0  0  0  0
 36 37  2  0  0  0  0
 36 38  1  0  0  0  0
 22 11  1  0  0  0  0
M  END
>  <cdx:fragmentId>
228

$$$$
