85808.cdx
  Mrv1902 05222410182D          

 75 79  0  0  0  0            999 V2000
    4.8907   -8.6985    0.0000 O   0  0  0  0  0  0  0  0  0  0  0  0
    4.1785   -7.4596    0.0000 O   0  0  0  0  0  0  0  0  0  0  0  0
    4.1770   -8.2846    0.0000 C   0  0  2  0  0  0  0  0  0  0  0  0
    3.4617   -8.6958    0.0000 C   0  0  1  0  0  0  0  0  0  0  0  0
    2.7480   -8.2820    0.0000 C   0  0  2  0  0  0  0  0  0  0  0  0
    2.7496   -7.4570    0.0000 C   0  0  1  0  0  0  0  0  0  0  0  0
    3.4648   -7.0458    0.0000 C   0  0  1  0  0  0  0  0  0  0  0  0
    3.4602   -9.5208    0.0000 O   0  0  0  0  0  0  0  0  0  0  0  0
    2.0313   -9.5181    0.0000 O   0  0  0  0  0  0  0  0  0  0  0  0
    2.7450   -9.9320    0.0000 C   0  0  2  0  0  0  0  0  0  0  0  0
    2.7434  -10.7570    0.0000 C   0  0  1  0  0  0  0  0  0  0  0  0
    2.0282  -11.1681    0.0000 C   0  0  2  0  0  0  0  0  0  0  0  0
    1.3145  -10.7543    0.0000 C   0  0  1  0  0  0  0  0  0  0  0  0
    1.3160   -9.9293    0.0000 C   0  0  1  0  0  0  0  0  0  0  0  0
    0.6023   -9.5155    0.0000 C   0  0  0  0  0  0  0  0  0  0  0  0
    0.6039   -8.6905    0.0000 O   0  0  0  0  0  0  0  0  0  0  0  0
    0.5992  -11.1655    0.0000 O   0  0  0  0  0  0  0  0  0  0  0  0
    2.0266  -11.9931    0.0000 O   0  0  0  0  0  0  0  0  0  0  0  0
    3.4571  -11.1708    0.0000 O   0  0  0  0  0  0  0  0  0  0  0  0
    3.4664   -6.2208    0.0000 C   0  0  0  0  0  0  0  0  0  0  0  0
    2.7527   -5.8070    0.0000 O   0  0  0  0  0  0  0  0  0  0  0  0
    2.0359   -7.0432    0.0000 O   0  0  0  0  0  0  0  0  0  0  0  0
    2.0328   -8.6931    0.0000 O   0  0  0  0  0  0  0  0  0  0  0  0
   17.0373  -10.7606    0.0000 C   0  0  0  0  0  0  0  0  0  0  0  0
   16.3225   -9.5233    0.0000 O   0  0  0  0  0  0  0  0  0  0  0  0
   17.0371   -9.9356    0.0000 C   0  0  1  0  0  0  0  0  0  0  0  0
   17.7514   -9.5230    0.0000 C   0  0  2  0  0  0  0  0  0  0  0  0
   17.7513   -8.6980    0.0000 C   0  0  1  0  0  0  0  0  0  0  0  0
   17.0367   -8.2856    0.0000 C   0  0  2  0  0  0  0  0  0  0  0  0
   16.3223   -8.6983    0.0000 C   0  0  2  0  0  0  0  0  0  0  0  0
   18.4660   -9.9353    0.0000 O   0  0  0  0  0  0  0  0  0  0  0  0
   19.1802   -8.6976    0.0000 O   0  0  0  0  0  0  0  0  0  0  0  0
   19.1804   -9.5226    0.0000 C   0  0  2  0  0  0  0  0  0  0  0  0
   19.8950   -9.9350    0.0000 C   0  0  1  0  0  0  0  0  0  0  0  0
   20.6093   -9.5223    0.0000 C   0  0  1  0  0  0  0  0  0  0  0  0
   20.6091   -8.6973    0.0000 C   0  0  2  0  0  0  0  0  0  0  0  0
   19.8946   -8.2850    0.0000 C   0  0  2  0  0  0  0  0  0  0  0  0
   19.8944   -7.4600    0.0000 C   0  0  0  0  0  0  0  0  0  0  0  0
   21.3235   -8.2846    0.0000 O   0  0  0  0  0  0  0  0  0  0  0  0
   21.3239   -9.9346    0.0000 O   0  0  0  0  0  0  0  0  0  0  0  0
   19.8952  -10.7600    0.0000 O   0  0  0  0  0  0  0  0  0  0  0  0
   17.0365   -7.4606    0.0000 O   0  0  0  0  0  0  0  0  0  0  0  0
   18.4656   -8.2853    0.0000 O   0  0  0  0  0  0  0  0  0  0  0  0
   15.6077   -8.2860    0.0000 O   0  0  0  0  0  0  0  0  0  0  0  0
   17.7518  -11.1730    0.0000 O   0  0  0  0  0  0  0  0  0  0  0  0
   16.3224  -13.6477    0.0000 C   0  0  0  0  0  0  0  0  0  0  0  0
   14.1788   -7.4610    0.0000 C   0  0  0  0  0  0  0  0  0  0  0  0
   11.3209   -7.4610    0.0000 C   0  0  0  0  0  0  0  0  0  0  0  0
    8.4630   -7.4610    0.0000 C   0  0  0  0  0  0  0  0  0  0  0  0
    5.6051   -9.1110    0.0000 C   0  0  0  0  0  0  0  0  0  0  0  0
    6.3196   -7.0485    0.0000 C   0  0  0  0  0  0  0  0  0  0  0  0
    5.6051   -7.4610    0.0000 C   0  0  0  0  0  0  0  0  0  0  0  0
    5.6051   -8.2860    0.0000 C   0  0  0  0  0  0  0  0  0  0  0  0
    6.3196   -8.6985    0.0000 C   0  0  0  0  0  0  0  0  0  0  0  0
    7.0341   -8.2860    0.0000 C   0  0  0  0  0  0  0  0  0  0  0  0
    7.7486   -8.6985    0.0000 C   0  0  0  0  0  0  0  0  0  0  0  0
    8.4630   -8.2860    0.0000 C   0  0  0  0  0  0  0  0  0  0  0  0
    9.1775   -8.6985    0.0000 C   0  0  0  0  0  0  0  0  0  0  0  0
    9.8920   -8.2860    0.0000 C   0  0  0  0  0  0  0  0  0  0  0  0
   10.6064   -8.6985    0.0000 C   0  0  0  0  0  0  0  0  0  0  0  0
   11.3209   -8.2860    0.0000 C   0  0  0  0  0  0  0  0  0  0  0  0
   12.0354   -8.6985    0.0000 C   0  0  0  0  0  0  0  0  0  0  0  0
   12.7499   -8.2860    0.0000 C   0  0  0  0  0  0  0  0  0  0  0  0
   13.4643   -8.6985    0.0000 C   0  0  0  0  0  0  0  0  0  0  0  0
   14.1788   -8.2860    0.0000 C   0  0  0  0  0  0  0  0  0  0  0  0
   14.8933   -8.6985    0.0000 C   0  0  0  0  0  0  0  0  0  0  0  0
   17.7511  -14.4730    0.0000 O   0  0  0  0  0  0  0  0  0  0  0  0
   19.1802  -13.6483    0.0000 O   0  0  0  0  0  0  0  0  0  0  0  0
   19.1806  -11.9983    0.0000 O   0  0  0  0  0  0  0  0  0  0  0  0
   17.0369  -13.2353    0.0000 C   0  0  1  0  0  0  0  0  0  0  0  0
   17.7513  -13.6480    0.0000 C   0  0  1  0  0  0  0  0  0  0  0  0
   18.4659  -13.2356    0.0000 C   0  0  2  0  0  0  0  0  0  0  0  0
   18.4660  -12.4106    0.0000 C   0  0  2  0  0  0  0  0  0  0  0  0
   17.7517  -11.9980    0.0000 C   0  0  1  0  0  0  0  0  0  0  0  0
   17.0371  -12.4103    0.0000 O   0  0  0  0  0  0  0  0  0  0  0  0
 74 45  1  1  0  0  0
 70 46  1  6  0  0  0
 71 67  1  1  0  0  0
 53  1  1  0  0  0  0
  2  3  1  0  0  0  0
 65 47  1  0  0  0  0
 61 48  1  0  0  0  0
 57 49  1  0  0  0  0
 53 50  1  0  0  0  0
 44 66  1  0  0  0  0
 52 51  2  0  0  0  0
 53 52  1  0  0  0  0
 54 53  1  0  0  0  0
 55 54  1  0  0  0  0
 56 55  1  0  0  0  0
 57 56  2  0  0  0  0
 58 57  1  0  0  0  0
 59 58  1  0  0  0  0
 60 59  1  0  0  0  0
 61 60  2  0  0  0  0
 62 61  1  0  0  0  0
 63 62  1  0  0  0  0
 64 63  1  0  0  0  0
 65 64  2  0  0  0  0
 66 65  1  0  0  0  0
 72 68  1  6  0  0  0
 73 69  1  6  0  0  0
 75 70  1  0  0  0  0
 71 70  1  0  0  0  0
 72 71  1  0  0  0  0
 73 72  1  0  0  0  0
 74 73  1  0  0  0  0
 75 74  1  0  0  0  0
  3  4  1  0  0  0  0
  4  5  1  0  0  0  0
  5  6  1  0  0  0  0
  6  7  1  0  0  0  0
  2  7  1  0  0  0  0
  9 10  1  0  0  0  0
 10 11  1  0  0  0  0
 11 12  1  0  0  0  0
 12 13  1  0  0  0  0
 13 14  1  0  0  0  0
  9 14  1  0  0  0  0
 15 16  1  0  0  0  0
 14 15  1  1  0  0  0
 13 17  1  6  0  0  0
 12 18  1  1  0  0  0
 11 19  1  6  0  0  0
 10  8  1  1  0  0  0
  4  8  1  6  0  0  0
 20 21  1  0  0  0  0
  7 20  1  1  0  0  0
  6 22  1  6  0  0  0
  5 23  1  1  0  0  0
  3  1  1  1  0  0  0
 45 24  1  0  0  0  0
 25 26  1  0  0  0  0
 26 27  1  0  0  0  0
 27 28  1  0  0  0  0
 28 29  1  0  0  0  0
 29 30  1  0  0  0  0
 25 30  1  0  0  0  0
 32 33  1  0  0  0  0
 33 34  1  0  0  0  0
 34 35  1  0  0  0  0
 35 36  1  0  0  0  0
 36 37  1  0  0  0  0
 32 37  1  0  0  0  0
 37 38  1  1  0  0  0
 36 39  1  6  0  0  0
 35 40  1  1  0  0  0
 34 41  1  1  0  0  0
 33 31  1  6  0  0  0
 27 31  1  6  0  0  0
 29 42  1  6  0  0  0
 28 43  1  1  0  0  0
 30 44  1  1  0  0  0
 26 24  1  1  0  0  0
M  END
>  <cdx:fragmentId>
125

$$$$
