3085830.cdx
  Mrv1902 05222410202D          

 35 39  0  0  0  0            999 V2000
    5.6966   -7.7731    0.0000 C   0  0  1  0  0  0  0  0  0  0  0  0
    5.6966   -8.5981    0.0000 C   0  0  1  0  0  0  0  0  0  0  0  0
    4.9821   -9.0106    0.0000 C   0  0  0  0  0  0  0  0  0  0  0  0
    4.2676   -8.5981    0.0000 C   0  0  0  0  0  0  0  0  0  0  0  0
    4.2676   -7.7731    0.0000 C   0  0  0  0  0  0  0  0  0  0  0  0
    4.9821   -7.3606    0.0000 O   0  0  0  0  0  0  0  0  0  0  0  0
    3.5531   -9.0106    0.0000 C   0  0  0  0  0  0  0  0  0  0  0  0
    2.8387   -8.5981    0.0000 C   0  0  0  0  0  0  0  0  0  0  0  0
    2.8387   -7.7731    0.0000 C   0  0  0  0  0  0  0  0  0  0  0  0
    3.5531   -7.3606    0.0000 C   0  0  0  0  0  0  0  0  0  0  0  0
    3.5531   -9.8327    0.0000 O   0  0  0  0  0  0  0  0  0  0  0  0
    2.1267   -7.3620    0.0000 O   0  0  0  0  0  0  0  0  0  0  0  0
    4.9821   -9.8327    0.0000 O   0  0  0  0  0  0  0  0  0  0  0  0
    6.4085   -9.0091    0.0000 O   0  0  0  0  0  0  0  0  0  0  0  0
    6.4515   -6.5127    0.0000 C   0  0  0  0  0  0  0  0  0  0  0  0
    6.4515   -7.3377    0.0000 C   0  0  0  0  0  0  0  0  0  0  0  0
    7.1660   -7.7502    0.0000 C   0  0  0  0  0  0  0  0  0  0  0  0
    7.8805   -7.3377    0.0000 C   0  0  0  0  0  0  0  0  0  0  0  0
    7.8805   -6.5127    0.0000 C   0  0  0  0  0  0  0  0  0  0  0  0
    7.1660   -6.1002    0.0000 C   0  0  0  0  0  0  0  0  0  0  0  0
    8.5949   -7.7502    0.0000 O   0  0  0  0  0  0  0  0  0  0  0  0
    9.3094   -7.3377    0.0000 C   0  0  2  0  0  0  0  0  0  0  0  0
    9.3094   -6.5127    0.0000 C   0  0  1  0  0  0  0  0  0  0  0  0
    8.5949   -6.1002    0.0000 O   0  0  0  0  0  0  0  0  0  0  0  0
   10.0214   -6.1016    0.0000 C   0  0  0  0  0  0  0  0  0  0  0  0
   10.0214   -7.7487    0.0000 C   0  0  0  0  0  0  0  0  0  0  0  0
   10.7334   -7.3377    0.0000 O   0  0  0  0  0  0  0  0  0  0  0  0
   10.7359   -6.5141    0.0000 C   0  0  0  0  0  0  0  0  0  0  0  0
   11.4503   -6.1016    0.0000 C   0  0  0  0  0  0  0  0  0  0  0  0
   11.4503   -5.2766    0.0000 C   0  0  0  0  0  0  0  0  0  0  0  0
   10.7359   -4.8641    0.0000 C   0  0  0  0  0  0  0  0  0  0  0  0
   10.0214   -5.2766    0.0000 C   0  0  0  0  0  0  0  0  0  0  0  0
   12.1623   -4.8655    0.0000 O   0  0  0  0  0  0  0  0  0  0  0  0
   10.7359   -4.0420    0.0000 O   0  0  0  0  0  0  0  0  0  0  0  0
   11.4478   -3.6309    0.0000 C   0  0  0  0  0  0  0  0  0  0  0  0
  1  2  1  0  0  0  0
  2  3  1  0  0  0  0
  3  4  1  0  0  0  0
  4  5  2  0  0  0  0
  5  6  1  0  0  0  0
  6  1  1  0  0  0  0
  4  7  1  0  0  0  0
  7  8  2  0  0  0  0
  8  9  1  0  0  0  0
  9 10  2  0  0  0  0
 10  5  1  0  0  0  0
  7 11  1  0  0  0  0
  9 12  1  0  0  0  0
  3 13  2  0  0  0  0
  2 14  1  6  0  0  0
 15 16  1  0  0  0  0
 16 17  2  0  0  0  0
 17 18  1  0  0  0  0
 18 19  2  0  0  0  0
 19 20  1  0  0  0  0
 20 15  2  0  0  0  0
 18 21  1  0  0  0  0
 21 22  1  0  0  0  0
 22 23  1  0  0  0  0
 23 24  1  0  0  0  0
 24 19  1  0  0  0  0
 23 25  1  1  0  0  0
 22 26  1  6  0  0  0
 26 27  1  0  0  0  0
 25 28  2  0  0  0  0
 28 29  1  0  0  0  0
 29 30  2  0  0  0  0
 30 31  1  0  0  0  0
 31 32  2  0  0  0  0
 32 25  1  0  0  0  0
 31 34  1  0  0  0  0
 30 33  1  0  0  0  0
  1 16  1  1  0  0  0
 34 35  1  0  0  0  0
M  END
>  <cdx:fragmentId>
3

$$$$
