12858461.cdx
  Mrv1902 05222410272D          

 16 17  0  0  0  0            999 V2000
   12.8907  -10.7303    0.0000 C   0  0  0  0  0  0  0  0  0  0  0  0
   12.1763  -11.1428    0.0000 C   0  0  0  0  0  0  0  0  0  0  0  0
   12.8907   -9.9053    0.0000 O   0  0  0  0  0  0  0  0  0  0  0  0
   13.6052  -11.1428    0.0000 O   0  0  0  0  0  0  0  0  0  0  0  0
   15.0341   -9.4928    0.0000 C   0  0  2  0  0  0  0  0  0  0  0  0
   14.3197   -9.9053    0.0000 C   0  0  0  0  0  0  0  0  0  0  0  0
   14.3197  -10.7303    0.0000 C   0  0  1  0  0  0  0  0  0  0  0  0
   15.0341  -11.1428    0.0000 C   0  0  0  0  0  0  0  0  0  0  0  0
   15.7486  -10.7303    0.0000 C   0  0  1  0  0  0  0  0  0  0  0  0
   15.7486   -9.9053    0.0000 C   0  0  0  0  0  0  0  0  0  0  0  0
   15.2169  -10.2124    0.0000 C   0  0  0  0  0  0  0  0  0  0  0  0
   13.6052   -9.4928    0.0000 C   0  0  0  0  0  0  0  0  0  0  0  0
   16.1611   -9.1908    0.0000 C   0  0  0  0  0  0  0  0  0  0  0  0
   16.5736   -9.9053    0.0000 C   0  0  0  0  0  0  0  0  0  0  0  0
   15.0341   -8.6678    0.0000 H   0  0  0  0  0  0  0  0  0  0  0  0
   16.4631  -11.1428    0.0000 H   0  0  0  0  0  0  0  0  0  0  0  0
  1  2  1  0  0  0  0
  1  3  2  0  0  0  0
  1  4  1  0  0  0  0
  5  6  1  0  0  0  0
  6  7  1  0  0  0  0
  7  8  1  0  0  0  0
  8  9  1  0  0  0  0
  9 10  1  0  0  0  0
  5 10  1  0  0  0  0
  5 11  1  1  0  0  0
  9 11  1  1  0  0  0
  6 12  2  0  0  0  0
 10 13  1  0  0  0  0
 10 14  1  0  0  0  0
  7  4  1  1  0  0  0
  5 15  1  0  0  0  0
  9 16  1  0  0  0  0
M  END
>  <cdx:groupId>
46500

>  <cdx:fragmentId>
46462

$$$$
