8587.cdx
  Mrv1902 05222410242D          

 40 44  0  0  0  0            999 V2000
    9.4524   -7.2246    0.0000 O   0  0  0  0  0  0  0  0  0  0  0  0
   11.5958   -5.9871    0.0000 C   0  0  0  0  0  0  0  0  0  0  0  0
   11.5958   -5.1621    0.0000 C   0  0  0  0  0  0  0  0  0  0  0  0
   10.8813   -4.7496    0.0000 O   0  0  0  0  0  0  0  0  0  0  0  0
   10.1669   -5.1621    0.0000 C   0  0  0  0  0  0  0  0  0  0  0  0
   10.1669   -5.9871    0.0000 C   0  0  0  0  0  0  0  0  0  0  0  0
   10.8813   -6.3996    0.0000 C   0  0  0  0  0  0  0  0  0  0  0  0
    9.4524   -4.7496    0.0000 C   0  0  0  0  0  0  0  0  0  0  0  0
    8.7379   -5.1621    0.0000 C   0  0  0  0  0  0  0  0  0  0  0  0
    8.7379   -5.9871    0.0000 C   0  0  0  0  0  0  0  0  0  0  0  0
    9.4524   -6.3996    0.0000 C   0  0  0  0  0  0  0  0  0  0  0  0
    8.0235   -4.7496    0.0000 C   0  0  0  0  0  0  0  0  0  0  0  0
    7.3090   -5.1621    0.0000 C   0  0  0  0  0  0  0  0  0  0  0  0
    7.3090   -5.9871    0.0000 C   0  0  0  0  0  0  0  0  0  0  0  0
    8.0235   -6.3996    0.0000 C   0  0  0  0  0  0  0  0  0  0  0  0
   10.8813   -7.2246    0.0000 O   0  0  0  0  0  0  0  0  0  0  0  0
   12.3103   -4.7496    0.0000 C   0  0  0  0  0  0  0  0  0  0  0  0
    6.5945   -4.7496    0.0000 O   0  0  0  0  0  0  0  0  0  0  0  0
    8.0235   -7.2246    0.0000 O   0  0  0  0  0  0  0  0  0  0  0  0
    7.3187   -7.6413    0.0000 C   0  0  2  0  0  0  0  0  0  0  0  0
    6.6055   -7.2267    0.0000 O   0  0  0  0  0  0  0  0  0  0  0  0
    5.8898   -7.6370    0.0000 C   0  0  1  0  0  0  0  0  0  0  0  0
    5.8873   -8.4620    0.0000 C   0  0  2  0  0  0  0  0  0  0  0  0
    6.6005   -8.8767    0.0000 C   0  0  1  0  0  0  0  0  0  0  0  0
    7.3162   -8.4663    0.0000 C   0  0  1  0  0  0  0  0  0  0  0  0
    8.0294   -8.8810    0.0000 O   0  0  0  0  0  0  0  0  0  0  0  0
    6.5980   -9.7017    0.0000 O   0  0  0  0  0  0  0  0  0  0  0  0
    5.1716   -8.8723    0.0000 O   0  0  0  0  0  0  0  0  0  0  0  0
    5.1766   -7.2223    0.0000 C   0  0  0  0  0  0  0  0  0  0  0  0
    4.4608   -7.6327    0.0000 O   0  0  0  0  0  0  0  0  0  0  0  0
    1.8547   -7.4571    0.0000 O   0  0  0  0  0  0  0  0  0  0  0  0
    1.8599   -6.2904    0.0000 C   0  0  0  0  0  0  0  0  0  0  0  0
    2.7055   -8.3419    0.0000 O   0  0  0  0  0  0  0  0  0  0  0  0
    2.9285   -6.2111    0.0000 C   0  0  0  0  0  0  0  0  0  0  0  0
    2.4407   -6.8763    0.0000 C   0  0  2  0  0  0  0  0  0  0  0  0
    2.9226   -7.5459    0.0000 C   0  0  2  0  0  0  0  0  0  0  0  0
    3.7120   -6.4695    0.0000 O   0  0  0  0  0  0  0  0  0  0  0  0
    3.7084   -7.2945    0.0000 C   0  0  1  0  0  0  0  0  0  0  0  0
    1.0621   -6.5004    0.0000 O   0  0  0  0  0  0  0  0  0  0  0  0
    5.8800   -5.1621    0.0000 C   0  0  0  0  0  0  0  0  0  0  0  0
 20 19  1  1  0  0  0
 11  1  1  0  0  0  0
  2  3  2  0  0  0  0
  3  4  1  0  0  0  0
  4  5  1  0  0  0  0
  5  6  1  0  0  0  0
  6  7  1  0  0  0  0
  7  2  1  0  0  0  0
  5  8  2  0  0  0  0
  8  9  1  0  0  0  0
  9 10  1  0  0  0  0
 10 11  1  0  0  0  0
 11  6  2  0  0  0  0
  9 12  2  0  0  0  0
 12 13  1  0  0  0  0
 13 14  2  0  0  0  0
 14 15  1  0  0  0  0
 15 10  2  0  0  0  0
  7 16  2  0  0  0  0
  3 17  1  0  0  0  0
 13 18  1  0  0  0  0
 15 19  1  0  0  0  0
 20 21  1  0  0  0  0
 21 22  1  0  0  0  0
 22 23  1  0  0  0  0
 23 24  1  0  0  0  0
 24 25  1  0  0  0  0
 25 20  1  0  0  0  0
 25 26  1  6  0  0  0
 24 27  1  1  0  0  0
 23 28  1  6  0  0  0
 22 29  1  1  0  0  0
 29 30  1  0  0  0  0
 38 30  1  1  0  0  0
 35 31  1  6  0  0  0
 35 32  1  1  0  0  0
 36 33  1  6  0  0  0
 34 37  1  0  0  0  0
 35 34  1  0  0  0  0
 36 35  1  0  0  0  0
 38 36  1  0  0  0  0
 38 37  1  0  0  0  0
 32 39  1  0  0  0  0
 18 40  1  0  0  0  0
M  END
>  <cdx:fragmentId>
5

$$$$
