858870.cdx
  Mrv1902 05222410192D          

 25 29  0  0  0  0            999 V2000
    7.6368   -8.4945    0.0000 C   0  0  0  0  0  0  0  0  0  0  0  0
    7.6357   -7.6695    0.0000 C   0  0  0  0  0  0  0  0  0  0  0  0
    7.0228   -7.1173    0.0000 C   0  0  0  0  0  0  0  0  0  0  0  0
    7.3586   -6.3637    0.0000 O   0  0  0  0  0  0  0  0  0  0  0  0
    8.1790   -6.4502    0.0000 C   0  0  0  0  0  0  0  0  0  0  0  0
    8.3503   -7.2573    0.0000 C   0  0  0  0  0  0  0  0  0  0  0  0
    9.0649   -7.6695    0.0000 C   0  0  0  0  0  0  0  0  0  0  0  0
    9.0657   -8.4945    0.0000 C   0  0  0  0  0  0  0  0  0  0  0  0
    9.7802   -8.9070    0.0000 C   0  0  0  0  0  0  0  0  0  0  0  0
    9.7802   -9.7320    0.0000 C   0  0  0  0  0  0  0  0  0  0  0  0
    9.0657  -10.1445    0.0000 C   0  0  0  0  0  0  0  0  0  0  0  0
    8.3513   -9.7320    0.0000 C   0  0  0  0  0  0  0  0  0  0  0  0
    7.6368  -10.1445    0.0000 O   0  0  0  0  0  0  0  0  0  0  0  0
    6.9223   -9.7320    0.0000 C   0  0  0  0  0  0  0  0  0  0  0  0
    6.2078  -10.1445    0.0000 C   0  0  0  0  0  0  0  0  0  0  0  0
    5.4934   -9.7320    0.0000 C   0  0  0  0  0  0  0  0  0  0  0  0
    5.4934   -8.9070    0.0000 C   0  0  0  0  0  0  0  0  0  0  0  0
    6.2078   -8.4945    0.0000 C   0  0  0  0  0  0  0  0  0  0  0  0
    6.9223   -8.9070    0.0000 C   0  0  0  0  0  0  0  0  0  0  0  0
    8.3513   -8.9070    0.0000 C   0  0  0  0  0  0  0  0  0  0  0  0
    8.7313   -5.8373    0.0000 O   0  0  0  0  0  0  0  0  0  0  0  0
    4.7789  -10.1445    0.0000 O   0  0  0  0  0  0  0  0  0  0  0  0
    4.7789   -8.4945    0.0000 O   0  0  0  0  0  0  0  0  0  0  0  0
    9.0657  -10.9695    0.0000 O   0  0  0  0  0  0  0  0  0  0  0  0
    6.2158   -7.2886    0.0000 O   0  0  0  0  0  0  0  0  0  0  0  0
  1  2  1  0  0  0  0
  2  3  2  0  0  0  0
  3  4  1  0  0  0  0
  4  5  1  0  0  0  0
  5  6  1  0  0  0  0
  6  7  2  0  0  0  0
  7  8  1  0  0  0  0
  8  9  1  0  0  0  0
  9 10  2  0  0  0  0
 10 11  1  0  0  0  0
 11 12  2  0  0  0  0
 12 13  1  0  0  0  0
 13 14  1  0  0  0  0
 14 15  2  0  0  0  0
 15 16  1  0  0  0  0
 16 17  1  0  0  0  0
 17 18  2  0  0  0  0
 18 19  1  0  0  0  0
  1 19  2  0  0  0  0
  1 20  1  0  0  0  0
 20 12  1  0  0  0  0
 14 19  1  0  0  0  0
  2  6  1  0  0  0  0
  8 20  2  0  0  0  0
  5 21  2  0  0  0  0
 16 22  2  0  0  0  0
 17 23  1  0  0  0  0
 11 24  1  0  0  0  0
  3 25  1  0  0  0  0
M  END
>  <cdx:groupId>
45420

>  <cdx:fragmentId>
45344

$$$$
