8588.cdx
  Mrv1902 05222410202D          

 29 32  0  0  0  0            999 V2000
    5.4814   -6.1414    0.0000 C   0  0  0  0  0  0  0  0  0  0  0  0
    5.4912   -5.3164    0.0000 C   0  0  0  0  0  0  0  0  0  0  0  0
    6.1908   -6.5624    0.0000 C   0  0  0  0  0  0  0  0  0  0  0  0
    6.9102   -6.1585    0.0000 C   0  0  0  0  0  0  0  0  0  0  0  0
    6.9201   -5.3335    0.0000 C   0  0  0  0  0  0  0  0  0  0  0  0
    6.2106   -4.9125    0.0000 C   0  0  0  0  0  0  0  0  0  0  0  0
    7.6197   -6.5795    0.0000 C   0  0  0  0  0  0  0  0  0  0  0  0
    8.3390   -6.1755    0.0000 C   0  0  0  0  0  0  0  0  0  0  0  0
    8.3489   -5.3506    0.0000 C   0  0  0  0  0  0  0  0  0  0  0  0
    7.6394   -4.9296    0.0000 C   0  0  0  0  0  0  0  0  0  0  0  0
    9.0485   -6.5965    0.0000 C   0  0  0  0  0  0  0  0  0  0  0  0
    9.7679   -6.1926    0.0000 C   0  0  0  0  0  0  0  0  0  0  0  0
    9.7777   -5.3677    0.0000 C   0  0  0  0  0  0  0  0  0  0  0  0
    9.0682   -4.9467    0.0000 O   0  0  0  0  0  0  0  0  0  0  0  0
    7.6098   -7.4044    0.0000 O   0  0  0  0  0  0  0  0  0  0  0  0
    6.1779   -7.3904    0.0000 O   0  0  0  0  0  0  0  0  0  0  0  0
    5.4701   -7.8144    0.0000 C   0  0  2  0  0  0  0  0  0  0  0  0
    4.7491   -7.4134    0.0000 O   0  0  0  0  0  0  0  0  0  0  0  0
    4.0414   -7.8373    0.0000 C   0  0  1  0  0  0  0  0  0  0  0  0
    4.0547   -8.6622    0.0000 C   0  0  2  0  0  0  0  0  0  0  0  0
    4.7757   -9.0632    0.0000 C   0  0  1  0  0  0  0  0  0  0  0  0
    5.4834   -8.6392    0.0000 C   0  0  1  0  0  0  0  0  0  0  0  0
    3.3204   -7.4364    0.0000 C   0  0  0  0  0  0  0  0  0  0  0  0
    2.6126   -7.8603    0.0000 O   0  0  0  0  0  0  0  0  0  0  0  0
    4.7889   -9.8881    0.0000 O   0  0  0  0  0  0  0  0  0  0  0  0
    6.2044   -9.0402    0.0000 O   0  0  0  0  0  0  0  0  0  0  0  0
    3.3469   -9.0862    0.0000 O   0  0  0  0  0  0  0  0  0  0  0  0
   10.4922   -4.9552    0.0000 C   0  0  0  0  0  0  0  0  0  0  0  0
    9.0485   -7.4215    0.0000 O   0  0  0  0  0  0  0  0  0  0  0  0
  1  2  1  0  0  0  0
  1  3  2  0  0  0  0
  3  4  1  0  0  0  0
  4  5  1  0  0  0  0
  5  6  1  0  0  0  0
  6  2  2  0  0  0  0
  4  7  2  0  0  0  0
  7  8  1  0  0  0  0
  8  9  2  0  0  0  0
  9 10  1  0  0  0  0
 10  5  2  0  0  0  0
  8 11  1  0  0  0  0
 11 12  1  0  0  0  0
 12 13  2  0  0  0  0
 13 14  1  0  0  0  0
 14  9  1  0  0  0  0
  7 15  1  0  0  0  0
 17 16  1  1  0  0  0
 17 18  1  0  0  0  0
 18 19  1  0  0  0  0
 19 20  1  0  0  0  0
 20 21  1  0  0  0  0
 21 22  1  0  0  0  0
 22 17  1  0  0  0  0
 19 23  1  1  0  0  0
 23 24  1  0  0  0  0
 21 25  1  1  0  0  0
 22 26  1  6  0  0  0
 20 27  1  6  0  0  0
 13 28  1  0  0  0  0
 11 29  2  0  0  0  0
  3 16  1  0  0  0  0
M  END
>  <cdx:fragmentId>
5

$$$$
