85979.cdx
  Mrv1902 05222410202D          

 11 11  0  0  0  0            999 V2000
    8.0386   -4.9146    0.0000 C   0  0  0  0  0  0  0  0  0  0  0  0
    7.3241   -5.3271    0.0000 C   0  0  0  0  0  0  0  0  0  0  0  0
    6.6096   -4.9146    0.0000 C   0  0  0  0  0  0  0  0  0  0  0  0
    6.6096   -4.0896    0.0000 C   0  0  0  0  0  0  0  0  0  0  0  0
    8.7530   -5.3271    0.0000 O   0  0  0  0  0  0  0  0  0  0  0  0
    5.8952   -5.3271    0.0000 C   0  0  0  0  0  0  0  0  0  0  0  0
    5.1807   -4.9146    0.0000 C   0  0  0  0  0  0  0  0  0  0  0  0
    4.4662   -5.3271    0.0000 C   0  0  0  0  0  0  0  0  0  0  0  0
    4.4662   -6.1521    0.0000 C   0  0  0  0  0  0  0  0  0  0  0  0
    5.1807   -6.5646    0.0000 C   0  0  0  0  0  0  0  0  0  0  0  0
    5.8952   -6.1521    0.0000 C   0  0  0  0  0  0  0  0  0  0  0  0
  1  2  1  0  0  0  0
  2  3  1  0  0  0  0
  3  4  1  0  0  0  0
  1  5  2  0  0  0  0
  6  7  1  0  0  0  0
  7  8  2  0  0  0  0
  8  9  1  0  0  0  0
  9 10  2  0  0  0  0
 10 11  1  0  0  0  0
  6 11  2  0  0  0  0
  3  6  1  0  0  0  0
M  END
>  <cdx:fragmentId>
15

$$$$
