86060.cdx
  Mrv1902 05222410282D          

 31 34  0  0  0  0            999 V2000
    4.1442   -9.8229    0.0000 C   0  0  0  0  0  0  0  0  0  0  0  0
    3.4297  -10.2354    0.0000 C   0  0  0  0  0  0  0  0  0  0  0  0
    3.4297  -11.0604    0.0000 C   0  0  0  0  0  0  0  0  0  0  0  0
    4.1442  -11.4729    0.0000 C   0  0  0  0  0  0  0  0  0  0  0  0
    4.8587  -11.0604    0.0000 C   0  0  0  0  0  0  0  0  0  0  0  0
    5.5732  -11.4729    0.0000 C   0  0  0  0  0  0  0  0  0  0  0  0
    6.2876  -11.0604    0.0000 C   0  0  0  0  0  0  0  0  0  0  0  0
    6.2876  -10.2354    0.0000 C   0  0  1  0  0  0  0  0  0  0  0  0
    7.0021   -9.8229    0.0000 C   0  0  2  0  0  0  0  0  0  0  0  0
    7.7867  -10.0778    0.0000 C   0  0  0  0  0  0  0  0  0  0  0  0
    8.2716   -9.4104    0.0000 C   0  0  0  0  0  0  0  0  0  0  0  0
    7.7867   -8.7429    0.0000 C   0  0  1  0  0  0  0  0  0  0  0  0
    7.0021   -8.9979    0.0000 C   0  0  1  0  0  0  0  0  0  0  0  0
    6.2876   -8.5854    0.0000 C   0  0  0  0  0  0  0  0  0  0  0  0
    5.5732   -8.9979    0.0000 C   0  0  0  0  0  0  0  0  0  0  0  0
    5.5732   -9.8229    0.0000 C   0  0  2  0  0  0  0  0  0  0  0  0
    4.8587  -10.2354    0.0000 C   0  0  1  0  0  0  0  0  0  0  0  0
    7.4896   -7.3452    0.0000 C   0  0  0  0  0  0  0  0  0  0  0  0
    8.0417   -7.9583    0.0000 C   0  0  2  0  0  0  0  0  0  0  0  0
    8.8486   -7.7868    0.0000 C   0  0  0  0  0  0  0  0  0  0  0  0
    9.1036   -7.0022    0.0000 C   0  0  0  0  0  0  0  0  0  0  0  0
    9.9105   -6.8307    0.0000 C   0  0  0  0  0  0  0  0  0  0  0  0
   10.1655   -6.0460    0.0000 C   0  0  0  0  0  0  0  0  0  0  0  0
    9.6134   -5.4329    0.0000 C   0  0  0  0  0  0  0  0  0  0  0  0
   10.9724   -5.8745    0.0000 C   0  0  0  0  0  0  0  0  0  0  0  0
    7.0883   -8.1774    0.0000 C   0  0  0  0  0  0  0  0  0  0  0  0
    4.8587   -9.4104    0.0000 C   0  0  0  0  0  0  0  0  0  0  0  0
    6.2876   -9.4104    0.0000 H   0  0  0  0  0  0  0  0  0  0  0  0
    5.5732  -10.6479    0.0000 H   0  0  0  0  0  0  0  0  0  0  0  0
    7.0021  -10.6479    0.0000 H   0  0  0  0  0  0  0  0  0  0  0  0
    8.5713   -8.4880    0.0000 H   0  0  0  0  0  0  0  0  0  0  0  0
  1  2  1  0  0  0  0
  2  3  1  0  0  0  0
  3  4  1  0  0  0  0
  4  5  2  0  0  0  0
  5  6  1  0  0  0  0
  6  7  1  0  0  0  0
  7  8  1  0  0  0  0
  8  9  1  0  0  0  0
  9 10  1  0  0  0  0
 10 11  1  0  0  0  0
 12 11  1  0  0  0  0
 12 13  1  0  0  0  0
  9 13  1  0  0  0  0
 13 14  1  0  0  0  0
 14 15  1  0  0  0  0
 15 16  1  0  0  0  0
  8 16  1  0  0  0  0
 16 17  1  0  0  0  0
  5 17  1  0  0  0  0
  1 17  1  0  0  0  0
 19 18  1  6  0  0  0
 19 20  1  0  0  0  0
 20 21  1  0  0  0  0
 21 22  1  0  0  0  0
 22 23  1  0  0  0  0
 23 24  1  0  0  0  0
 23 25  1  0  0  0  0
 12 19  1  0  0  0  0
 13 26  1  1  0  0  0
 17 27  1  1  0  0  0
  8 28  1  1  0  0  0
 16 29  1  6  0  0  0
  9 30  1  6  0  0  0
 12 31  1  6  0  0  0
M  END
>  <cdx:fragmentId>
5

$$$$
