101861552.cdx
  Mrv1902 05222410262D          

 17 18  0  0  0  0            999 V2000
    6.5597   -7.6978    0.0000 C   0  0  1  0  0  0  0  0  0  0  0  0
    5.7751   -7.4429    0.0000 C   0  0  0  0  0  0  0  0  0  0  0  0
    5.7751   -6.6179    0.0000 C   0  0  0  0  0  0  0  0  0  0  0  0
    6.5597   -6.3630    0.0000 C   0  0  2  0  0  0  0  0  0  0  0  0
    7.0446   -7.0304    0.0000 C   0  0  2  0  0  0  0  0  0  0  0  0
    7.4571   -7.7449    0.0000 C   0  0  0  0  0  0  0  0  0  0  0  0
    8.2821   -7.7449    0.0000 C   0  0  0  0  0  0  0  0  0  0  0  0
    8.6946   -7.0304    0.0000 C   0  0  2  0  0  0  0  0  0  0  0  0
    8.2821   -6.3159    0.0000 C   0  0  0  0  0  0  0  0  0  0  0  0
    7.4571   -6.3159    0.0000 C   0  0  0  0  0  0  0  0  0  0  0  0
    5.1076   -6.1330    0.0000 O   0  0  0  0  0  0  0  0  0  0  0  0
    8.6946   -5.6015    0.0000 O   0  0  0  0  0  0  0  0  0  0  0  0
    6.2626   -4.9652    0.0000 C   0  0  0  0  0  0  0  0  0  0  0  0
    6.8146   -5.5783    0.0000 C   0  0  0  0  0  0  0  0  0  0  0  0
    7.6216   -5.4068    0.0000 C   0  0  0  0  0  0  0  0  0  0  0  0
    9.5196   -7.0304    0.0000 C   0  0  0  0  0  0  0  0  0  0  0  0
    6.8146   -8.4825    0.0000 C   0  0  0  0  0  0  0  0  0  0  0  0
  1  2  1  0  0  0  0
  2  3  1  0  0  0  0
  3  4  1  0  0  0  0
  4  5  1  0  0  0  0
  5  6  1  6  0  0  0
  6  7  1  0  0  0  0
  7  8  1  0  0  0  0
  8  9  1  0  0  0  0
  9 10  1  0  0  0  0
  1  5  1  0  0  0  0
  5 10  1  1  0  0  0
  3 11  2  0  0  0  0
  9 12  2  0  0  0  0
 13 14  1  0  0  0  0
 14 15  1  0  0  0  0
  4 14  1  1  0  0  0
  8 16  1  6  0  0  0
  1 17  1  1  0  0  0
M  END
>  <cdx:groupId>
3071

>  <cdx:fragmentId>
3022

$$$$
