861641.cdx
  Mrv1902 05222410252D          

 38 45  0  0  0  0            999 V2000
    7.7780   -5.1005    0.0000 N   0  0  0  0  0  0  0  0  0  0  0  0
    7.2930   -5.7679    0.0000 C   0  0  0  0  0  0  0  0  0  0  0  0
    7.7780   -6.4354    0.0000 C   0  0  0  0  0  0  0  0  0  0  0  0
    8.5626   -6.1804    0.0000 C   0  0  0  0  0  0  0  0  0  0  0  0
    9.2771   -6.5929    0.0000 C   0  0  0  0  0  0  0  0  0  0  0  0
    9.9915   -6.1804    0.0000 C   0  0  0  0  0  0  0  0  0  0  0  0
    9.9915   -5.3554    0.0000 C   0  0  0  0  0  0  0  0  0  0  0  0
    9.2771   -4.9429    0.0000 C   0  0  0  0  0  0  0  0  0  0  0  0
    8.5626   -5.3554    0.0000 C   0  0  0  0  0  0  0  0  0  0  0  0
    7.5230   -8.5549    0.0000 N   0  0  0  0  0  0  0  0  0  0  0  0
    8.0080   -7.8874    0.0000 C   0  0  0  0  0  0  0  0  0  0  0  0
    7.5230   -7.2200    0.0000 C   0  0  0  0  0  0  0  0  0  0  0  0
    6.7384   -7.4749    0.0000 C   0  0  0  0  0  0  0  0  0  0  0  0
    6.0239   -7.0624    0.0000 C   0  0  0  0  0  0  0  0  0  0  0  0
    5.3095   -7.4749    0.0000 C   0  0  0  0  0  0  0  0  0  0  0  0
    5.3095   -8.2999    0.0000 C   0  0  0  0  0  0  0  0  0  0  0  0
    6.0239   -8.7124    0.0000 C   0  0  0  0  0  0  0  0  0  0  0  0
    6.7384   -8.2999    0.0000 C   0  0  0  0  0  0  0  0  0  0  0  0
    9.3179   -7.2200    0.0000 N   0  0  0  0  0  0  0  0  0  0  0  0
    8.8330   -7.8874    0.0000 C   0  0  0  0  0  0  0  0  0  0  0  0
    9.3179   -8.5549    0.0000 C   0  0  0  0  0  0  0  0  0  0  0  0
   10.1025   -8.2999    0.0000 C   0  0  0  0  0  0  0  0  0  0  0  0
   10.8170   -8.7124    0.0000 C   0  0  0  0  0  0  0  0  0  0  0  0
   11.5314   -8.2999    0.0000 C   0  0  0  0  0  0  0  0  0  0  0  0
   11.5314   -7.4749    0.0000 C   0  0  0  0  0  0  0  0  0  0  0  0
   10.8170   -7.0624    0.0000 C   0  0  0  0  0  0  0  0  0  0  0  0
   10.1025   -7.4749    0.0000 C   0  0  0  0  0  0  0  0  0  0  0  0
    9.0629   -9.3395    0.0000 O   0  0  0  0  0  0  0  0  0  0  0  0
    6.2381   -7.2200    0.0000 O   0  0  0  0  0  0  0  0  0  0  0  0
    5.1985   -5.3554    0.0000 C   0  0  0  0  0  0  0  0  0  0  0  0
    4.4840   -4.9429    0.0000 C   0  0  0  0  0  0  0  0  0  0  0  0
    3.7696   -5.3554    0.0000 C   0  0  0  0  0  0  0  0  0  0  0  0
    3.7696   -6.1804    0.0000 C   0  0  0  0  0  0  0  0  0  0  0  0
    4.4840   -6.5929    0.0000 C   0  0  0  0  0  0  0  0  0  0  0  0
    5.1985   -6.1804    0.0000 C   0  0  0  0  0  0  0  0  0  0  0  0
    5.9831   -6.4354    0.0000 C   0  0  0  0  0  0  0  0  0  0  0  0
    6.4680   -5.7679    0.0000 C   0  0  0  0  0  0  0  0  0  0  0  0
    5.9831   -5.1005    0.0000 N   0  0  0  0  0  0  0  0  0  0  0  0
 36 29  2  0  0  0  0
 35 30  2  0  0  0  0
 38 30  1  0  0  0  0
 31 30  1  0  0  0  0
 32 31  2  0  0  0  0
 33 32  1  0  0  0  0
 34 33  2  0  0  0  0
 35 34  1  0  0  0  0
 36 35  1  0  0  0  0
 37 36  1  0  0  0  0
 38 37  1  0  0  0  0
  1  2  1  0  0  0  0
  2  3  1  0  0  0  0
  3  4  2  0  0  0  0
  4  5  1  0  0  0  0
  5  6  2  0  0  0  0
  6  7  1  0  0  0  0
  7  8  2  0  0  0  0
  8  9  1  0  0  0  0
  1  9  2  0  0  0  0
  4  9  1  0  0  0  0
 10 11  1  0  0  0  0
 11 12  2  0  0  0  0
 12 13  1  0  0  0  0
 13 14  2  0  0  0  0
 14 15  1  0  0  0  0
 15 16  2  0  0  0  0
 16 17  1  0  0  0  0
 17 18  2  0  0  0  0
 10 18  1  0  0  0  0
 13 18  1  0  0  0  0
 19 20  2  0  0  0  0
 20 21  1  0  0  0  0
 21 22  1  0  0  0  0
 22 23  2  0  0  0  0
 23 24  1  0  0  0  0
 24 25  2  0  0  0  0
 25 26  1  0  0  0  0
 26 27  2  0  0  0  0
 19 27  1  0  0  0  0
 22 27  1  0  0  0  0
 21 28  2  0  0  0  0
 11 20  1  0  0  0  0
  3 12  1  0  0  0  0
 37  2  2  0  0  0  0
M  END
>  <cdx:fragmentId>
84740

$$$$
