86184.cdx
  Mrv1902 05222410202D          

 24 27  0  0  0  0            999 V2000
    6.2896   -9.3450    0.0000 H   0  0  0  0  0  0  0  0  0  0  0  0
    8.4330   -8.9324    0.0000 H   0  0  0  0  0  0  0  0  0  0  0  0
    8.6773   -5.2091    0.0000 O   0  0  0  0  0  0  0  0  0  0  0  0
    9.5454   -6.4822    0.0000 C   0  0  0  0  0  0  0  0  0  0  0  0
    5.9877   -9.6470    0.0000 C   0  0  0  0  0  0  0  0  0  0  0  0
    5.1627   -9.6470    0.0000 C   0  0  0  0  0  0  0  0  0  0  0  0
    7.1407   -5.0940    0.0000 O   0  0  0  0  0  0  0  0  0  0  0  0
    7.5075   -7.8925    0.0000 O   0  0  0  0  0  0  0  0  0  0  0  0
    6.9575   -7.5900    0.0000 C   0  0  0  0  0  0  0  0  0  0  0  0
    5.5751   -7.2826    0.0000 C   0  0  0  0  0  0  0  0  0  0  0  0
    4.8606   -7.6951    0.0000 C   0  0  0  0  0  0  0  0  0  0  0  0
    4.8607   -8.5201    0.0000 C   0  0  0  0  0  0  0  0  0  0  0  0
    5.5751   -8.9326    0.0000 C   0  0  0  0  0  0  0  0  0  0  0  0
    6.2896   -8.5200    0.0000 C   0  0  2  0  0  0  0  0  0  0  0  0
    7.0041   -8.9325    0.0000 C   0  0  0  0  0  0  0  0  0  0  0  0
    7.7185   -8.5200    0.0000 C   0  0  1  0  0  0  0  0  0  0  0  0
    7.7185   -7.6950    0.0000 C   0  0  0  0  0  0  0  0  0  0  0  0
    8.4865   -7.3935    0.0000 C   0  0  0  0  0  0  0  0  0  0  0  0
    8.7296   -6.6052    0.0000 C   0  0  0  0  0  0  0  0  0  0  0  0
    8.2648   -5.9236    0.0000 C   0  0  0  0  0  0  0  0  0  0  0  0
    7.4422   -5.8619    0.0000 C   0  0  0  0  0  0  0  0  0  0  0  0
    6.8810   -6.4667    0.0000 C   0  0  0  0  0  0  0  0  0  0  0  0
    7.0040   -7.2825    0.0000 C   0  0  0  0  0  0  0  0  0  0  0  0
    6.2896   -7.6950    0.0000 C   0  0  2  0  0  0  0  0  0  0  0  0
 14  1  1  6  0  0  0
 16  2  1  1  0  0  0
 20  3  1  0  0  0  0
 19  4  1  0  0  0  0
 13  5  1  0  0  0  0
 13  6  1  0  0  0  0
 21  7  2  0  0  0  0
 23 17  1  0  0  0  0
 24 14  1  0  0  0  0
 16  8  1  0  0  0  0
 24  9  1  0  0  0  0
 24 10  1  1  0  0  0
  9  8  1  0  0  0  0
 11 10  1  0  0  0  0
 12 11  1  0  0  0  0
 13 12  1  0  0  0  0
 14 13  1  0  0  0  0
 15 14  1  0  0  0  0
 16 15  1  0  0  0  0
 17 16  1  0  0  0  0
 18 17  2  0  0  0  0
 19 18  1  0  0  0  0
 20 19  2  0  0  0  0
 21 20  1  0  0  0  0
 22 21  1  0  0  0  0
 23 22  2  0  0  0  0
 24 23  1  0  0  0  0
M  END
>  <cdx:fragmentId>
2350

$$$$
