86256.cdx
  Mrv1902 05222410202D          

 71 79  0  0  0  0            999 V2000
   17.9875  -10.0426    0.0000 H   0  0  0  0  0  0  0  0  0  0  0  0
   16.1234   -8.6221    0.0000 H   0  0  0  0  0  0  0  0  0  0  0  0
   17.2533   -6.4011    0.0000 C   0  0  0  0  0  0  0  0  0  0  0  0
   19.4901   -7.5955    0.0000 C   0  0  0  0  0  0  0  0  0  0  0  0
   18.2482   -9.4435    0.0000 C   0  0  0  0  0  0  0  0  0  0  0  0
   16.7301  -10.9227    0.0000 C   0  0  0  0  0  0  0  0  0  0  0  0
   17.3833   -7.2159    0.0000 C   0  0  0  0  0  0  0  0  0  0  0  0
   14.4166  -10.5456    0.0000 C   0  0  1  0  0  0  0  0  0  0  0  0
   18.5734   -6.6051    0.0000 C   0  0  1  0  0  0  0  0  0  0  0  0
   18.7504   -7.9668    0.0000 C   0  0  2  0  0  0  0  0  0  0  0  0
   15.9494   -8.8122    0.0000 C   0  0  0  0  0  0  0  0  0  0  0  0
   16.6736   -7.6460    0.0000 C   0  0  0  0  0  0  0  0  0  0  0  0
   14.4044   -9.6452    0.0000 C   0  0  1  0  0  0  0  0  0  0  0  0
   15.2059  -10.9791    0.0000 C   0  0  0  0  0  0  0  0  0  0  0  0
   17.4659  -10.4689    0.0000 C   0  0  0  0  0  0  0  0  0  0  0  0
   18.2036   -7.3425    0.0000 C   0  0  1  0  0  0  0  0  0  0  0  0
   16.4063   -8.4317    0.0000 C   0  0  0  0  0  0  0  0  0  0  0  0
   15.1816   -9.1903    0.0000 C   0  0  0  0  0  0  0  0  0  0  0  0
   15.9724  -10.5065    0.0000 C   0  0  0  0  0  0  0  0  0  0  0  0
   17.4342   -9.6050    0.0000 C   0  0  2  0  0  0  0  0  0  0  0  0
   16.7068   -9.2054    0.0000 C   0  0  1  0  0  0  0  0  0  0  0  0
   15.9606   -9.6420    0.0000 C   0  0  2  0  0  0  0  0  0  0  0  0
   18.6784  -10.1533    0.0000 O   0  0  0  0  0  0  0  0  0  0  0  0
   13.7052  -10.9730    0.0000 O   0  0  0  0  0  0  0  0  0  0  0  0
   17.9873   -6.0244    0.0000 O   0  0  0  0  0  0  0  0  0  0  0  0
   19.3834   -6.7748    0.0000 O   0  0  0  0  0  0  0  0  0  0  0  0
   18.7681   -8.7966    0.0000 O   0  0  0  0  0  0  0  0  0  0  0  0
   19.4649   -8.3793    0.0000 H   0  0  0  0  0  0  0  0  0  0  0  0
   17.7911   -6.6280    0.0000 H   0  0  0  0  0  0  0  0  0  0  0  0
   18.9859   -5.8906    0.0000 C   0  0  0  0  0  0  0  0  0  0  0  0
   12.9837  -10.5730    0.0000 C   0  0  1  0  0  0  0  0  0  0  0  0
   12.9620   -9.7483    0.0000 O   0  0  0  0  0  0  0  0  0  0  0  0
   12.2369   -9.3548    0.0000 C   0  0  2  0  0  0  0  0  0  0  0  0
   11.5335   -9.7859    0.0000 C   0  0  1  0  0  0  0  0  0  0  0  0
   11.5335  -10.6106    0.0000 C   0  0  1  0  0  0  0  0  0  0  0  0
   12.2369  -11.0042    0.0000 C   0  0  0  0  0  0  0  0  0  0  0  0
   12.2152   -8.5300    0.0000 C   0  0  0  0  0  0  0  0  0  0  0  0
   10.8218  -11.0279    0.0000 O   0  0  0  0  0  0  0  0  0  0  0  0
   10.8274  -11.8529    0.0000 C   0  0  0  0  0  0  0  0  0  0  0  0
    4.5706   -7.2180    0.0000 C   0  0  0  0  0  0  0  0  0  0  0  0
    4.9998   -7.9226    0.0000 O   0  0  0  0  0  0  0  0  0  0  0  0
    5.7820   -6.4822    0.0000 O   0  0  0  0  0  0  0  0  0  0  0  0
    7.4352   -6.4433    0.0000 C   0  0  0  0  0  0  0  0  0  0  0  0
    7.4596   -7.8668    0.0000 O   0  0  0  0  0  0  0  0  0  0  0  0
    7.0377   -7.1662    0.0000 C   0  0  2  0  0  0  0  0  0  0  0  0
    6.2130   -7.1856    0.0000 C   0  0  1  0  0  0  0  0  0  0  0  0
    5.8246   -7.9052    0.0000 C   0  0  1  0  0  0  0  0  0  0  0  0
    6.2466   -8.6141    0.0000 C   0  0  0  0  0  0  0  0  0  0  0  0
    7.0715   -8.6031    0.0000 C   0  0  2  0  0  0  0  0  0  0  0  0
    8.3014  -10.7450    0.0000 O   0  0  0  0  0  0  0  0  0  0  0  0
    7.4960   -9.3105    0.0000 O   0  0  0  0  0  0  0  0  0  0  0  0
    8.3401   -7.9096    0.0000 C   0  0  0  0  0  0  0  0  0  0  0  0
    9.5815   -8.6491    0.0000 O   0  0  0  0  0  0  0  0  0  0  0  0
    8.7381   -8.6323    0.0000 C   0  0  1  0  0  0  0  0  0  0  0  0
    8.3209   -9.3219    0.0000 C   0  0  2  0  0  0  0  0  0  0  0  0
    8.7282  -10.0390    0.0000 C   0  0  2  0  0  0  0  0  0  0  0  0
    9.5527  -10.0665    0.0000 C   0  0  0  0  0  0  0  0  0  0  0  0
    9.9888   -9.3662    0.0000 C   0  0  2  0  0  0  0  0  0  0  0  0
   10.8137   -9.3828    0.0000 O   0  0  0  0  0  0  0  0  0  0  0  0
   13.6860   -9.2396    0.0000 O   0  0  0  0  0  0  0  0  0  0  0  0
    6.1758   -5.7572    0.0000 C   0  0  2  0  0  0  0  0  0  0  0  0
    7.0001   -5.7247    0.0000 O   0  0  0  0  0  0  0  0  0  0  0  0
    7.3842   -4.9945    0.0000 C   0  0  1  0  0  0  0  0  0  0  0  0
    6.9439   -4.2969    0.0000 C   0  0  2  0  0  0  0  0  0  0  0  0
    6.1195   -4.3293    0.0000 C   0  0  1  0  0  0  0  0  0  0  0  0
    5.7355   -5.0595    0.0000 C   0  0  1  0  0  0  0  0  0  0  0  0
    8.2086   -4.9621    0.0000 C   0  0  0  0  0  0  0  0  0  0  0  0
    5.6792   -3.6317    0.0000 O   0  0  0  0  0  0  0  0  0  0  0  0
    7.3279   -3.5667    0.0000 O   0  0  0  0  0  0  0  0  0  0  0  0
    4.9111   -5.0920    0.0000 O   0  0  0  0  0  0  0  0  0  0  0  0
    8.5926   -4.2319    0.0000 O   0  0  0  0  0  0  0  0  0  0  0  0
  7  3  2  0  0  0  0
 10  4  1  0  0  0  0
 12  7  1  0  0  0  0
 13  8  1  0  0  0  0
 14  8  1  0  0  0  0
 15  6  1  0  0  0  0
 16  7  1  0  0  0  0
 16  9  1  0  0  0  0
 16 10  1  0  0  0  0
 17 12  1  0  0  0  0
 18 13  1  0  0  0  0
 19  6  2  0  0  0  0
 19 14  1  0  0  0  0
 20  1  1  1  0  0  0
 20  5  1  0  0  0  0
 20 15  1  0  0  0  0
 21  2  1  6  0  0  0
 21 17  1  0  0  0  0
 21 20  1  0  0  0  0
 22 11  1  1  0  0  0
 22 18  1  0  0  0  0
 22 19  1  0  0  0  0
 22 21  1  0  0  0  0
 23  5  2  0  0  0  0
  8 24  1  1  0  0  0
 25  3  1  0  0  0  0
 25  9  1  0  0  0  0
 26  4  1  0  0  0  0
 26  9  1  0  0  0  0
 27  5  1  0  0  0  0
 27 10  1  0  0  0  0
 10 28  1  6  0  0  0
 16 29  1  6  0  0  0
  9 30  1  6  0  0  0
 31 24  1  6  0  0  0
 31 32  1  0  0  0  0
 32 33  1  0  0  0  0
 33 34  1  0  0  0  0
 34 35  1  0  0  0  0
 35 36  1  0  0  0  0
 36 31  1  0  0  0  0
 33 37  1  6  0  0  0
 35 38  1  1  0  0  0
 41 40  1  0  0  0  0
 34 59  1  1  0  0  0
 38 39  1  0  0  0  0
 47 41  1  1  0  0  0
 46 42  1  1  0  0  0
 45 43  1  6  0  0  0
 44 49  1  0  0  0  0
 45 44  1  0  0  0  0
 46 45  1  0  0  0  0
 47 46  1  0  0  0  0
 48 47  1  0  0  0  0
 49 48  1  0  0  0  0
 49 51  1  1  0  0  0
 56 50  1  6  0  0  0
 55 51  1  6  0  0  0
 54 52  1  1  0  0  0
 53 58  1  0  0  0  0
 54 53  1  0  0  0  0
 55 54  1  0  0  0  0
 56 55  1  0  0  0  0
 57 56  1  0  0  0  0
 58 57  1  0  0  0  0
 58 59  1  1  0  0  0
 13 60  1  6  0  0  0
 61 42  1  1  0  0  0
 61 62  1  0  0  0  0
 62 63  1  0  0  0  0
 63 64  1  0  0  0  0
 64 65  1  0  0  0  0
 65 66  1  0  0  0  0
 66 61  1  0  0  0  0
 63 67  1  1  0  0  0
 65 68  1  1  0  0  0
 64 69  1  6  0  0  0
 66 70  1  6  0  0  0
 67 71  1  0  0  0  0
M  END
>  <cdx:fragmentId>
1

$$$$
