862769.cdx
  Mrv1902 05222410212D          

 25 26  0  0  0  0            999 V2000
    7.1762   -6.7809    0.0000 C   0  0  0  0  0  0  0  0  0  0  0  0
    7.8907   -7.1934    0.0000 C   0  0  0  0  0  0  0  0  0  0  0  0
    8.6052   -6.7809    0.0000 C   0  0  0  0  0  0  0  0  0  0  0  0
    7.1762   -5.9559    0.0000 O   0  0  0  0  0  0  0  0  0  0  0  0
    9.3197   -7.1934    0.0000 C   0  0  0  0  0  0  0  0  0  0  0  0
    9.3197   -8.0184    0.0000 C   0  0  0  0  0  0  0  0  0  0  0  0
   10.0341   -8.4309    0.0000 C   0  0  0  0  0  0  0  0  0  0  0  0
   10.7486   -8.0184    0.0000 C   0  0  0  0  0  0  0  0  0  0  0  0
   10.7486   -7.1934    0.0000 C   0  0  0  0  0  0  0  0  0  0  0  0
   10.0341   -6.7809    0.0000 C   0  0  0  0  0  0  0  0  0  0  0  0
   11.4631   -8.4309    0.0000 O   0  0  0  0  0  0  0  0  0  0  0  0
    8.6052   -8.4309    0.0000 O   0  0  0  0  0  0  0  0  0  0  0  0
    6.4618   -7.1934    0.0000 C   0  0  0  0  0  0  0  0  0  0  0  0
    5.7473   -6.7809    0.0000 C   0  0  0  0  0  0  0  0  0  0  0  0
    5.0328   -7.1934    0.0000 C   0  0  0  0  0  0  0  0  0  0  0  0
    5.0328   -8.0184    0.0000 C   0  0  0  0  0  0  0  0  0  0  0  0
    5.7473   -8.4309    0.0000 C   0  0  0  0  0  0  0  0  0  0  0  0
    6.4618   -8.0184    0.0000 C   0  0  0  0  0  0  0  0  0  0  0  0
    4.3184   -6.7809    0.0000 C   0  0  0  0  0  0  0  0  0  0  0  0
    3.6039   -7.1934    0.0000 C   0  0  0  0  0  0  0  0  0  0  0  0
    2.8894   -6.7809    0.0000 C   0  0  0  0  0  0  0  0  0  0  0  0
    2.8894   -5.9559    0.0000 C   0  0  0  0  0  0  0  0  0  0  0  0
    2.1750   -7.1934    0.0000 C   0  0  0  0  0  0  0  0  0  0  0  0
    4.3184   -8.4309    0.0000 O   0  0  0  0  0  0  0  0  0  0  0  0
    5.7473   -5.9559    0.0000 O   0  0  0  0  0  0  0  0  0  0  0  0
  1  2  1  0  0  0  0
  2  3  2  0  0  0  0
  1  4  2  0  0  0  0
  5  6  1  0  0  0  0
  6  7  2  0  0  0  0
  7  8  1  0  0  0  0
  8  9  2  0  0  0  0
  9 10  1  0  0  0  0
  5 10  2  0  0  0  0
  8 11  1  0  0  0  0
  6 12  1  0  0  0  0
  3  5  1  0  0  0  0
 13 14  1  0  0  0  0
 14 15  2  0  0  0  0
 15 16  1  0  0  0  0
 16 17  2  0  0  0  0
 17 18  1  0  0  0  0
 13 18  2  0  0  0  0
 19 20  1  0  0  0  0
 20 21  2  0  0  0  0
 21 22  1  0  0  0  0
 21 23  1  0  0  0  0
 15 19  1  0  0  0  0
 16 24  1  0  0  0  0
 14 25  1  0  0  0  0
  1 13  1  0  0  0  0
M  END
>  <cdx:fragmentId>
30534

$$$$
