862702.cdx
  Mrv1902 05222410272D          

 55 58  0  0  0  0            999 V2000
    3.3938  -11.8376    0.0000 O   0  0  0  0  0  0  0  0  0  0  0  0
    4.1082  -11.4251    0.0000 C   0  0  2  0  0  0  0  0  0  0  0  0
    4.1082  -10.6001    0.0000 C   0  0  1  0  0  0  0  0  0  0  0  0
    3.3938  -10.1876    0.0000 C   0  0  0  0  0  0  0  0  0  0  0  0
    4.8227  -11.8376    0.0000 C   0  0  1  0  0  0  0  0  0  0  0  0
    5.5372  -11.4251    0.0000 C   0  0  2  0  0  0  0  0  0  0  0  0
    5.5372  -10.6001    0.0000 C   0  0  2  0  0  0  0  0  0  0  0  0
    4.8227  -10.1876    0.0000 O   0  0  0  0  0  0  0  0  0  0  0  0
    6.2517  -11.8376    0.0000 O   0  0  0  0  0  0  0  0  0  0  0  0
    6.2517  -10.1876    0.0000 O   0  0  0  0  0  0  0  0  0  0  0  0
    3.3938   -9.3626    0.0000 O   0  0  0  0  0  0  0  0  0  0  0  0
    6.4652   -9.3908    0.0000 C   0  0  1  0  0  0  0  0  0  0  0  0
    6.9267   -8.7069    0.0000 C   0  0  2  0  0  0  0  0  0  0  0  0
    6.4189   -8.0567    0.0000 C   0  0  1  0  0  0  0  0  0  0  0  0
    5.6436   -8.3387    0.0000 C   0  0  2  0  0  0  0  0  0  0  0  0
    5.6722   -9.1632    0.0000 O   0  0  0  0  0  0  0  0  0  0  0  0
    7.0485   -9.9741    0.0000 C   0  0  0  0  0  0  0  0  0  0  0  0
    7.8735   -9.9741    0.0000 O   0  0  0  0  0  0  0  0  0  0  0  0
    7.7512   -8.6783    0.0000 O   0  0  0  0  0  0  0  0  0  0  0  0
    6.6464   -7.2637    0.0000 O   0  0  0  0  0  0  0  0  0  0  0  0
    8.1637   -7.9638    0.0000 C   0  0  0  0  0  0  0  0  0  0  0  0
    8.9887   -7.9638    0.0000 C   0  0  0  0  0  0  0  0  0  0  0  0
    6.5137   -5.1059    0.0000 C   0  0  0  0  0  0  0  0  0  0  0  0
    7.7512   -7.2493    0.0000 O   0  0  0  0  0  0  0  0  0  0  0  0
    6.9262   -5.8204    0.0000 O   0  0  0  0  0  0  0  0  0  0  0  0
    7.7512   -4.3914    0.0000 O   0  0  0  0  0  0  0  0  0  0  0  0
    9.4012   -5.8204    0.0000 C   0  0  0  0  0  0  0  0  0  0  0  0
    8.9887   -5.1059    0.0000 C   0  0  0  0  0  0  0  0  0  0  0  0
    8.1637   -5.1059    0.0000 C   0  0  0  0  0  0  0  0  0  0  0  0
    7.7512   -5.8204    0.0000 C   0  0  0  0  0  0  0  0  0  0  0  0
    4.9597   -7.8772    0.0000 C   0  0  0  0  0  0  0  0  0  0  0  0
    4.9597   -7.0522    0.0000 O   0  0  0  0  0  0  0  0  0  0  0  0
    4.2452   -6.6397    0.0000 C   0  0  0  0  0  0  0  0  0  0  0  0
    4.2452   -5.8147    0.0000 C   0  0  0  0  0  0  0  0  0  0  0  0
    3.5308   -7.0522    0.0000 O   0  0  0  0  0  0  0  0  0  0  0  0
    3.5308   -5.4022    0.0000 C   0  0  0  0  0  0  0  0  0  0  0  0
    3.5308   -4.5772    0.0000 C   0  0  0  0  0  0  0  0  0  0  0  0
    4.2452   -4.1647    0.0000 C   0  0  0  0  0  0  0  0  0  0  0  0
    4.2452   -3.3397    0.0000 C   0  0  0  0  0  0  0  0  0  0  0  0
    3.5308   -2.9272    0.0000 C   0  0  0  0  0  0  0  0  0  0  0  0
    2.8163   -3.3397    0.0000 C   0  0  0  0  0  0  0  0  0  0  0  0
    2.8163   -4.1647    0.0000 C   0  0  0  0  0  0  0  0  0  0  0  0
    3.5308   -2.1022    0.0000 O   0  0  0  0  0  0  0  0  0  0  0  0
    4.9597   -2.9272    0.0000 O   0  0  0  0  0  0  0  0  0  0  0  0
    4.9597   -2.1022    0.0000 C   0  0  0  0  0  0  0  0  0  0  0  0
    4.8227  -12.6626    0.0000 O   0  0  0  0  0  0  0  0  0  0  0  0
    8.1637   -6.5349    0.0000 C   0  0  0  0  0  0  0  0  0  0  0  0
    8.9887   -6.5349    0.0000 C   0  0  0  0  0  0  0  0  0  0  0  0
    9.4012   -7.2493    0.0000 C   0  0  0  0  0  0  0  0  0  0  0  0
    6.2517  -12.6626    0.0000 C   0  0  0  0  0  0  0  0  0  0  0  0
    6.9661  -13.0751    0.0000 O   0  0  0  0  0  0  0  0  0  0  0  0
    5.5372  -13.0751    0.0000 C   0  0  0  0  0  0  0  0  0  0  0  0
    2.6793   -8.9501    0.0000 C   0  0  0  0  0  0  0  0  0  0  0  0
    2.6793   -8.1251    0.0000 O   0  0  0  0  0  0  0  0  0  0  0  0
    1.9648   -9.3626    0.0000 C   0  0  0  0  0  0  0  0  0  0  0  0
  2  1  1  6  0  0  0
  2  3  1  0  0  0  0
  3  4  1  1  0  0  0
  2  5  1  0  0  0  0
  5  6  1  0  0  0  0
  6  7  1  0  0  0  0
  7  8  1  0  0  0  0
  8  3  1  0  0  0  0
  6  9  1  6  0  0  0
  7 10  1  6  0  0  0
  4 11  1  0  0  0  0
 12 10  1  6  0  0  0
 12 13  1  0  0  0  0
 13 14  1  0  0  0  0
 14 15  1  0  0  0  0
 15 16  1  0  0  0  0
 16 12  1  0  0  0  0
 12 17  1  1  0  0  0
 17 18  1  0  0  0  0
 13 19  1  6  0  0  0
 14 20  1  1  0  0  0
 19 21  1  0  0  0  0
 21 22  1  0  0  0  0
 25 23  1  0  0  0  0
 22 49  2  0  0  0  0
 30 25  1  0  0  0  0
 21 24  2  0  0  0  0
 29 26  1  0  0  0  0
 27 48  1  0  0  0  0
 28 27  2  0  0  0  0
 29 28  1  0  0  0  0
 30 29  2  0  0  0  0
 47 30  1  0  0  0  0
 48 47  2  0  0  0  0
 15 31  1  6  0  0  0
 31 32  1  0  0  0  0
 32 33  1  0  0  0  0
 33 34  1  0  0  0  0
 33 35  2  0  0  0  0
 34 36  2  0  0  0  0
 36 37  1  0  0  0  0
 37 38  2  0  0  0  0
 38 39  1  0  0  0  0
 39 40  2  0  0  0  0
 40 41  1  0  0  0  0
 41 42  2  0  0  0  0
 42 37  1  0  0  0  0
 40 43  1  0  0  0  0
 39 44  1  0  0  0  0
 44 45  1  0  0  0  0
  5 46  1  1  0  0  0
 49 48  1  0  0  0  0
  9 50  1  0  0  0  0
 50 51  2  0  0  0  0
 50 52  1  0  0  0  0
 11 53  1  0  0  0  0
 53 54  2  0  0  0  0
 53 55  1  0  0  0  0
M  END
>  <cdx:fragmentId>
251

$$$$
