862899.cdx
  Mrv1902 05222410182D          

 39 42  0  0  0  0            999 V2000
    6.7703   -9.8289    0.0000 O   0  0  0  0  0  0  0  0  0  0  0  0
    7.4814  -10.2472    0.0000 C   0  0  2  0  0  0  0  0  0  0  0  0
    7.4747  -11.0721    0.0000 C   0  0  1  0  0  0  0  0  0  0  0  0
    6.7569  -11.4788    0.0000 C   0  0  2  0  0  0  0  0  0  0  0  0
    6.0458  -11.0605    0.0000 C   0  0  1  0  0  0  0  0  0  0  0  0
    6.0525  -10.2355    0.0000 C   0  0  1  0  0  0  0  0  0  0  0  0
    8.1858  -11.4904    0.0000 O   0  0  0  0  0  0  0  0  0  0  0  0
    6.7502  -12.3038    0.0000 O   0  0  0  0  0  0  0  0  0  0  0  0
    5.3280  -11.4672    0.0000 O   0  0  0  0  0  0  0  0  0  0  0  0
    5.3414   -9.8172    0.0000 C   0  0  0  0  0  0  0  0  0  0  0  0
    4.6236  -10.2239    0.0000 O   0  0  0  0  0  0  0  0  0  0  0  0
    8.1992   -9.8405    0.0000 O   0  0  0  0  0  0  0  0  0  0  0  0
    8.2059   -9.0155    0.0000 C   0  0  0  0  0  0  0  0  0  0  0  0
    7.4948   -8.5972    0.0000 C   0  0  0  0  0  0  0  0  0  0  0  0
    7.5015   -7.7722    0.0000 C   0  0  0  0  0  0  0  0  0  0  0  0
    8.9304   -7.7839    0.0000 C   0  0  0  0  0  0  0  0  0  0  0  0
    8.9237   -8.6088    0.0000 C   0  0  0  0  0  0  0  0  0  0  0  0
    9.6348   -9.0271    0.0000 O   0  0  0  0  0  0  0  0  0  0  0  0
   10.3526   -8.6205    0.0000 C   0  0  0  0  0  0  0  0  0  0  0  0
    6.7770   -9.0039    0.0000 O   0  0  0  0  0  0  0  0  0  0  0  0
    6.0659   -8.5856    0.0000 C   0  0  0  0  0  0  0  0  0  0  0  0
    9.1392   -4.6110    0.0000 C   0  0  0  0  0  0  0  0  0  0  0  0
    8.8098   -3.8546    0.0000 C   0  0  0  0  0  0  0  0  0  0  0  0
    7.9900   -3.7617    0.0000 C   0  0  0  0  0  0  0  0  0  0  0  0
    7.6606   -3.0053    0.0000 C   0  0  0  0  0  0  0  0  0  0  0  0
    8.1510   -2.3418    0.0000 C   0  0  0  0  0  0  0  0  0  0  0  0
    8.9707   -2.4348    0.0000 C   0  0  0  0  0  0  0  0  0  0  0  0
    9.3001   -3.1911    0.0000 C   0  0  0  0  0  0  0  0  0  0  0  0
    6.8409   -2.9124    0.0000 O   0  0  0  0  0  0  0  0  0  0  0  0
    6.5115   -2.1560    0.0000 C   0  0  0  0  0  0  0  0  0  0  0  0
    7.8216   -1.5855    0.0000 O   0  0  0  0  0  0  0  0  0  0  0  0
    9.8024   -7.1383    0.0000 O   0  0  0  0  0  0  0  0  0  0  0  0
    9.6799   -6.3224    0.0000 C   0  0  0  0  0  0  0  0  0  0  0  0
    7.8239   -5.2677    0.0000 C   0  0  0  0  0  0  0  0  0  0  0  0
    8.6489   -5.2745    0.0000 C   0  0  1  0  0  0  0  0  0  0  0  0
    8.8974   -6.0611    0.0000 C   0  0  1  0  0  0  0  0  0  0  0  0
    8.2261   -6.5406    0.0000 C   0  0  2  0  0  0  0  0  0  0  0  0
    7.5626   -6.0503    0.0000 O   0  0  0  0  0  0  0  0  0  0  0  0
    8.2193   -7.3656    0.0000 C   0  0  0  0  0  0  0  0  0  0  0  0
 37 39  1  1  0  0  0
 35 22  1  6  0  0  0
 36 33  1  6  0  0  0
 33 32  1  0  0  0  0
 38 34  1  0  0  0  0
 35 34  1  0  0  0  0
 36 35  1  0  0  0  0
 37 36  1  0  0  0  0
  1  2  1  0  0  0  0
  2  3  1  0  0  0  0
  3  4  1  0  0  0  0
  4  5  1  0  0  0  0
  5  6  1  0  0  0  0
  1  6  1  0  0  0  0
  3  7  1  6  0  0  0
  4  8  1  1  0  0  0
  5  9  1  6  0  0  0
 10 11  1  0  0  0  0
  6 10  1  1  0  0  0
 13 14  1  0  0  0  0
 14 15  2  0  0  0  0
 15 39  1  0  0  0  0
 39 16  2  0  0  0  0
 16 17  1  0  0  0  0
 13 17  2  0  0  0  0
 12 13  1  0  0  0  0
 18 19  1  0  0  0  0
 17 18  1  0  0  0  0
 20 21  1  0  0  0  0
 14 20  1  0  0  0  0
 38 37  1  0  0  0  0
 23 24  1  0  0  0  0
 24 25  2  0  0  0  0
 25 26  1  0  0  0  0
 26 27  2  0  0  0  0
 27 28  1  0  0  0  0
 23 28  2  0  0  0  0
 29 30  1  0  0  0  0
 25 29  1  0  0  0  0
 26 31  1  0  0  0  0
 22 23  1  0  0  0  0
  2 12  1  1  0  0  0
M  END
>  <cdx:groupId>
3197

>  <cdx:fragmentId>
3140

$$$$
