86294.cdx
  Mrv1902 05222410202D          

 50 57  0  0  0  0            999 V2000
    9.1233   -7.2982    0.0000 C   0  0  2  0  0  0  0  0  0  0  0  0
    9.8322   -6.8763    0.0000 O   0  0  0  0  0  0  0  0  0  0  0  0
   10.5521   -7.2793    0.0000 C   0  0  0  0  0  0  0  0  0  0  0  0
   11.2610   -6.8574    0.0000 C   0  0  0  0  0  0  0  0  0  0  0  0
   11.9809   -7.2604    0.0000 C   0  0  0  0  0  0  0  0  0  0  0  0
   11.9918   -8.0854    0.0000 C   0  0  0  0  0  0  0  0  0  0  0  0
   11.2829   -8.5073    0.0000 C   0  0  0  0  0  0  0  0  0  0  0  0
   10.5630   -8.1043    0.0000 C   0  0  0  0  0  0  0  0  0  0  0  0
    9.8540   -8.5262    0.0000 C   0  0  2  0  0  0  0  0  0  0  0  0
    9.8660   -9.3511    0.0000 C   0  0  0  0  0  0  0  0  0  0  0  0
    9.1569   -9.7728    0.0000 C   0  0  0  0  0  0  0  0  0  0  0  0
    8.4369   -9.3700    0.0000 C   0  0  0  0  0  0  0  0  0  0  0  0
    8.4252   -8.5451    0.0000 C   0  0  1  0  0  0  0  0  0  0  0  0
    7.7054   -8.1420    0.0000 C   0  0  0  0  0  0  0  0  0  0  0  0
    6.9964   -8.5639    0.0000 C   0  0  0  0  0  0  0  0  0  0  0  0
    6.2765   -8.1609    0.0000 C   0  0  0  0  0  0  0  0  0  0  0  0
    6.2656   -7.3360    0.0000 C   0  0  0  0  0  0  0  0  0  0  0  0
    6.9746   -6.9141    0.0000 C   0  0  0  0  0  0  0  0  0  0  0  0
    7.6944   -7.3171    0.0000 C   0  0  0  0  0  0  0  0  0  0  0  0
    8.4034   -6.8952    0.0000 O   0  0  0  0  0  0  0  0  0  0  0  0
    9.1342   -8.1231    0.0000 C   0  0  1  0  0  0  0  0  0  0  0  0
   12.6899   -6.8385    0.0000 O   0  0  0  0  0  0  0  0  0  0  0  0
    7.0073   -9.3889    0.0000 O   0  0  0  0  0  0  0  0  0  0  0  0
    9.1678  -10.5977    0.0000 C   0  0  0  0  0  0  0  0  0  0  0  0
    4.7966   -7.2785    0.0000 O   0  0  0  0  0  0  0  0  0  0  0  0
    5.5458   -6.9330    0.0000 C   0  0  0  0  0  0  0  0  0  0  0  0
    5.4487   -6.1137    0.0000 C   0  0  0  0  0  0  0  0  0  0  0  0
    4.6395   -5.9529    0.0000 C   0  0  0  0  0  0  0  0  0  0  0  0
    4.2176   -5.2439    0.0000 C   0  0  0  0  0  0  0  0  0  0  0  0
    3.3927   -5.2548    0.0000 C   0  0  0  0  0  0  0  0  0  0  0  0
    2.9897   -5.9747    0.0000 C   0  0  0  0  0  0  0  0  0  0  0  0
    3.4116   -6.6836    0.0000 C   0  0  0  0  0  0  0  0  0  0  0  0
    4.2365   -6.6727    0.0000 C   0  0  0  0  0  0  0  0  0  0  0  0
    2.1647   -5.9856    0.0000 O   0  0  0  0  0  0  0  0  0  0  0  0
    9.1124   -6.4733    0.0000 C   0  0  0  0  0  0  0  0  0  0  0  0
    8.3925   -6.0703    0.0000 C   0  0  0  0  0  0  0  0  0  0  0  0
    8.3816   -5.2453    0.0000 C   0  0  0  0  0  0  0  0  0  0  0  0
    9.0905   -4.8234    0.0000 C   0  0  0  0  0  0  0  0  0  0  0  0
    9.8104   -5.2265    0.0000 C   0  0  0  0  0  0  0  0  0  0  0  0
    9.8213   -6.0514    0.0000 C   0  0  0  0  0  0  0  0  0  0  0  0
    6.9200   -2.7895    0.0000 C   0  0  0  0  0  0  0  0  0  0  0  0
    9.0796   -3.9985    0.0000 O   0  0  0  0  0  0  0  0  0  0  0  0
    7.6835   -6.4922    0.0000 O   0  0  0  0  0  0  0  0  0  0  0  0
    9.8540   -7.7012    0.0000 H   0  0  0  0  0  0  0  0  0  0  0  0
    8.4252   -7.7201    0.0000 H   0  0  0  0  0  0  0  0  0  0  0  0
    9.1451   -8.9481    0.0000 H   0  0  0  0  0  0  0  0  0  0  0  0
    6.2220   -4.0363    0.0000 C   0  0  0  0  0  0  0  0  0  0  0  0
    6.9310   -3.6144    0.0000 C   0  0  0  0  0  0  0  0  0  0  0  0
    7.6508   -4.0174    0.0000 C   0  0  0  0  0  0  0  0  0  0  0  0
    7.6617   -4.8423    0.0000 C   0  0  0  0  0  0  0  0  0  0  0  0
 48 41  1  0  0  0  0
 48 47  1  0  0  0  0
 49 48  2  0  0  0  0
 50 49  1  0  0  0  0
  1  2  1  0  0  0  0
  2  3  1  0  0  0  0
  3  4  1  0  0  0  0
  4  5  2  0  0  0  0
  5  6  1  0  0  0  0
  6  7  2  0  0  0  0
  7  8  1  0  0  0  0
  8  9  1  0  0  0  0
  9 10  1  0  0  0  0
 10 11  1  0  0  0  0
 11 12  2  0  0  0  0
 12 13  1  0  0  0  0
 13 14  1  0  0  0  0
 14 15  2  0  0  0  0
 15 16  1  0  0  0  0
 16 17  2  0  0  0  0
 17 18  1  0  0  0  0
 18 19  2  0  0  0  0
 19 20  1  0  0  0  0
  1 20  1  0  0  0  0
  1 21  1  0  0  0  0
 21 13  1  0  0  0  0
 14 19  1  0  0  0  0
  3  8  2  0  0  0  0
  9 21  1  0  0  0  0
  5 22  1  0  0  0  0
 15 23  1  0  0  0  0
 11 24  1  0  0  0  0
 25 26  1  0  0  0  0
 26 27  2  0  0  0  0
 27 28  1  0  0  0  0
 28 29  1  0  0  0  0
 29 30  2  0  0  0  0
 30 31  1  0  0  0  0
 31 32  2  0  0  0  0
 32 33  1  0  0  0  0
 28 33  2  0  0  0  0
 25 33  1  0  0  0  0
 31 34  1  0  0  0  0
 17 26  1  0  0  0  0
 35 36  1  0  0  0  0
 36 37  2  0  0  0  0
 37 38  1  0  0  0  0
 38 39  2  0  0  0  0
 39 40  1  0  0  0  0
 35 40  2  0  0  0  0
 37 50  1  0  0  0  0
 38 42  1  0  0  0  0
 36 43  1  0  0  0  0
  1 35  1  6  0  0  0
  9 44  1  1  0  0  0
 13 45  1  6  0  0  0
 21 46  1  6  0  0  0
M  END
>  <cdx:fragmentId>
4526

$$$$
