8635.cdx
  Mrv1902 05222410242D          

 11 11  0  0  0  0            999 V2000
    4.4403   -2.8869    0.0000 C   0  0  0  0  0  0  0  0  0  0  0  0
    3.7258   -3.2994    0.0000 C   0  0  0  0  0  0  0  0  0  0  0  0
    3.7258   -4.1244    0.0000 C   0  0  0  0  0  0  0  0  0  0  0  0
    3.0114   -4.5369    0.0000 C   0  0  0  0  0  0  0  0  0  0  0  0
    2.2969   -4.1244    0.0000 C   0  0  0  0  0  0  0  0  0  0  0  0
    2.2969   -3.2994    0.0000 C   0  0  0  0  0  0  0  0  0  0  0  0
    3.0114   -2.8869    0.0000 C   0  0  0  0  0  0  0  0  0  0  0  0
    4.4403   -2.0619    0.0000 O   0  0  0  0  0  0  0  0  0  0  0  0
    5.1548   -3.2994    0.0000 O   0  0  0  0  0  0  0  0  0  0  0  0
    4.4403   -4.5369    0.0000 N   0  0  0  0  0  0  0  0  0  0  0  0
    5.8692   -2.8869    0.0000 C   0  0  0  0  0  0  0  0  0  0  0  0
  1  2  1  0  0  0  0
  2  3  1  0  0  0  0
  3  4  2  0  0  0  0
  4  5  1  0  0  0  0
  5  6  2  0  0  0  0
  6  7  1  0  0  0  0
  2  7  2  0  0  0  0
  1  8  2  0  0  0  0
  1  9  1  0  0  0  0
  3 10  1  0  0  0  0
  9 11  1  0  0  0  0
M  END
>  <cdx:groupId>
35

>  <cdx:fragmentId>
5

$$$$
