101863726.cdx
  Mrv1902 05222410252D          

 27 29  0  0  0  0            999 V2000
    9.9101   -5.2959    0.0000 C   0  0  0  0  0  0  0  0  0  0  0  0
   10.6246   -5.7084    0.0000 C   0  0  0  0  0  0  0  0  0  0  0  0
   10.6246   -6.5334    0.0000 C   0  0  0  0  0  0  0  0  0  0  0  0
    9.9101   -6.9459    0.0000 C   0  0  0  0  0  0  0  0  0  0  0  0
    9.1957   -6.5334    0.0000 C   0  0  0  0  0  0  0  0  0  0  0  0
    9.1957   -5.7084    0.0000 C   0  0  0  0  0  0  0  0  0  0  0  0
    9.9101   -4.4709    0.0000 O   0  0  0  0  0  0  0  0  0  0  0  0
   11.3391   -5.2959    0.0000 O   0  0  0  0  0  0  0  0  0  0  0  0
   11.3391   -6.9459    0.0000 O   0  0  0  0  0  0  0  0  0  0  0  0
   12.0535   -6.5334    0.0000 C   0  0  0  0  0  0  0  0  0  0  0  0
    7.7667   -6.5334    0.0000 O   0  0  0  0  0  0  0  0  0  0  0  0
    8.4812   -6.9459    0.0000 C   0  0  0  0  0  0  0  0  0  0  0  0
    8.4812   -7.7709    0.0000 C   0  0  0  0  0  0  0  0  0  0  0  0
    7.7667   -8.1834    0.0000 C   0  0  0  0  0  0  0  0  0  0  0  0
    7.0522   -7.7709    0.0000 C   0  0  0  0  0  0  0  0  0  0  0  0
    7.0522   -6.9459    0.0000 C   0  0  0  0  0  0  0  0  0  0  0  0
    7.7667   -9.0084    0.0000 O   0  0  0  0  0  0  0  0  0  0  0  0
    6.3378   -6.5334    0.0000 C   0  0  0  0  0  0  0  0  0  0  0  0
    5.6233   -6.9459    0.0000 C   0  0  0  0  0  0  0  0  0  0  0  0
    4.9088   -6.5334    0.0000 C   0  0  0  0  0  0  0  0  0  0  0  0
    4.1944   -6.9459    0.0000 C   0  0  0  0  0  0  0  0  0  0  0  0
    3.4799   -6.5334    0.0000 C   0  0  0  0  0  0  0  0  0  0  0  0
    3.4799   -5.7084    0.0000 C   0  0  0  0  0  0  0  0  0  0  0  0
    4.1944   -5.2959    0.0000 C   0  0  0  0  0  0  0  0  0  0  0  0
    4.9088   -5.7084    0.0000 C   0  0  0  0  0  0  0  0  0  0  0  0
    2.7654   -5.2959    0.0000 O   0  0  0  0  0  0  0  0  0  0  0  0
    2.7654   -6.9459    0.0000 O   0  0  0  0  0  0  0  0  0  0  0  0
  1  2  1  0  0  0  0
  2  3  2  0  0  0  0
  3  4  1  0  0  0  0
  4  5  2  0  0  0  0
  5  6  1  0  0  0  0
  1  6  2  0  0  0  0
  1  7  1  0  0  0  0
  2  8  1  0  0  0  0
  9 10  1  0  0  0  0
  3  9  1  0  0  0  0
 11 12  1  0  0  0  0
 12 13  1  0  0  0  0
 13 14  1  0  0  0  0
 14 15  1  0  0  0  0
 15 16  1  0  0  0  0
 11 16  1  0  0  0  0
 14 17  1  0  0  0  0
 18 19  1  0  0  0  0
 20 21  1  0  0  0  0
 21 22  2  0  0  0  0
 22 23  1  0  0  0  0
 23 24  2  0  0  0  0
 24 25  1  0  0  0  0
 20 25  2  0  0  0  0
 23 26  1  0  0  0  0
 22 27  1  0  0  0  0
 19 20  1  0  0  0  0
 16 18  1  0  0  0  0
  5 12  1  0  0  0  0
M  END
>  <cdx:groupId>
3418

>  <cdx:fragmentId>
3376

$$$$
