86374.cdx
  Mrv1902 05222410252D          

 16 16  0  0  0  0            999 V2000
    7.2460   -3.9264    0.0000 O   0  0  0  0  0  0  0  0  0  0  0  0
    3.6736   -4.3389    0.0000 C   0  0  0  0  0  0  0  0  0  0  0  0
    4.3881   -3.9264    0.0000 O   0  0  0  0  0  0  0  0  0  0  0  0
    4.3881   -5.5764    0.0000 C   0  0  0  0  0  0  0  0  0  0  0  0
   10.1039   -5.5764    0.0000 C   0  0  0  0  0  0  0  0  0  0  0  0
    9.3894   -5.1639    0.0000 C   0  0  0  0  0  0  0  0  0  0  0  0
    8.6749   -5.5764    0.0000 C   0  0  0  0  0  0  0  0  0  0  0  0
    7.9605   -5.1639    0.0000 C   0  0  0  0  0  0  0  0  0  0  0  0
    7.2460   -5.5764    0.0000 C   0  0  0  0  0  0  0  0  0  0  0  0
    5.8170   -3.1014    0.0000 O   0  0  0  0  0  0  0  0  0  0  0  0
    5.8170   -5.5764    0.0000 O   0  0  0  0  0  0  0  0  0  0  0  0
    6.5315   -5.1639    0.0000 C   0  0  0  0  0  0  0  0  0  0  0  0
    6.5315   -4.3389    0.0000 C   0  0  0  0  0  0  0  0  0  0  0  0
    5.8170   -3.9264    0.0000 C   0  0  0  0  0  0  0  0  0  0  0  0
    5.1026   -4.3389    0.0000 C   0  0  0  0  0  0  0  0  0  0  0  0
    5.1026   -5.1639    0.0000 C   0  0  0  0  0  0  0  0  0  0  0  0
 13  1  1  0  0  0  0
 15  3  1  0  0  0  0
  3  2  1  0  0  0  0
 16  4  1  0  0  0  0
 12  9  1  0  0  0  0
  6  5  1  0  0  0  0
  7  6  1  0  0  0  0
  8  7  1  0  0  0  0
  9  8  1  0  0  0  0
 14 10  2  0  0  0  0
 16 11  1  0  0  0  0
 12 11  1  0  0  0  0
 13 12  2  0  0  0  0
 14 13  1  0  0  0  0
 15 14  1  0  0  0  0
 16 15  2  0  0  0  0
M  END
>  <cdx:groupId>
50

>  <cdx:fragmentId>
5

$$$$
