8640.cdx
  Mrv1902 05222410262D          

 11 12  0  0  0  0            999 V2000
    4.9591   -3.2294    0.0000 C   0  0  0  0  0  0  0  0  0  0  0  0
    5.6736   -3.6419    0.0000 C   0  0  0  0  0  0  0  0  0  0  0  0
    5.6736   -4.4669    0.0000 C   0  0  0  0  0  0  0  0  0  0  0  0
    4.9591   -4.8794    0.0000 C   0  0  0  0  0  0  0  0  0  0  0  0
    4.2446   -4.4669    0.0000 C   0  0  0  0  0  0  0  0  0  0  0  0
    3.5302   -4.8794    0.0000 C   0  0  0  0  0  0  0  0  0  0  0  0
    2.8157   -4.4669    0.0000 C   0  0  0  0  0  0  0  0  0  0  0  0
    2.8157   -3.6419    0.0000 C   0  0  0  0  0  0  0  0  0  0  0  0
    3.5302   -3.2294    0.0000 C   0  0  0  0  0  0  0  0  0  0  0  0
    4.2446   -3.6419    0.0000 C   0  0  0  0  0  0  0  0  0  0  0  0
    4.9591   -2.4044    0.0000 N   0  0  0  0  0  0  0  0  0  0  0  0
  1  2  1  0  0  0  0
  2  3  2  0  0  0  0
  3  4  1  0  0  0  0
  4  5  2  0  0  0  0
  5  6  1  0  0  0  0
  6  7  2  0  0  0  0
  7  8  1  0  0  0  0
  8  9  2  0  0  0  0
  9 10  1  0  0  0  0
  1 10  2  0  0  0  0
  5 10  1  0  0  0  0
  1 11  1  0  0  0  0
M  END
>  <cdx:groupId>
36

>  <cdx:fragmentId>
5

$$$$
