8641.cdx
  Mrv1902 05222410272D          

 31 33  0  0  0  0            999 V2000
    4.5408  -10.5188    0.0000 C   0  0  2  0  0  0  0  0  0  0  0  0
    4.5408  -11.3438    0.0000 C   0  0  2  0  0  0  0  0  0  0  0  0
    5.2552  -11.7562    0.0000 C   0  0  1  0  0  0  0  0  0  0  0  0
    5.9697  -11.3438    0.0000 C   0  0  2  0  0  0  0  0  0  0  0  0
    5.9697  -10.5188    0.0000 C   0  0  1  0  0  0  0  0  0  0  0  0
    5.2552  -10.1063    0.0000 O   0  0  0  0  0  0  0  0  0  0  0  0
    6.6842  -10.1063    0.0000 O   0  0  0  0  0  0  0  0  0  0  0  0
    6.6842   -9.2813    0.0000 C   0  0  0  0  0  0  0  0  0  0  0  0
    5.9697   -8.8688    0.0000 C   0  0  0  0  0  0  0  0  0  0  0  0
    7.3987   -8.8688    0.0000 C   0  0  0  0  0  0  0  0  0  0  0  0
    7.3987   -8.0437    0.0000 C   0  0  0  0  0  0  0  0  0  0  0  0
    6.6842   -7.6313    0.0000 C   0  0  0  0  0  0  0  0  0  0  0  0
    5.9697   -8.0437    0.0000 C   0  0  0  0  0  0  0  0  0  0  0  0
    7.3987   -6.3937    0.0000 C   0  0  0  0  0  0  0  0  0  0  0  0
    6.6842   -6.8062    0.0000 C   0  0  0  0  0  0  0  0  0  0  0  0
    8.8276   -6.3937    0.0000 O   0  0  0  0  0  0  0  0  0  0  0  0
    8.8276   -5.5687    0.0000 C   0  0  0  0  0  0  0  0  0  0  0  0
    8.1131   -5.1563    0.0000 C   0  0  0  0  0  0  0  0  0  0  0  0
    7.3987   -5.5687    0.0000 C   0  0  0  0  0  0  0  0  0  0  0  0
    9.5421   -5.1563    0.0000 C   0  0  0  0  0  0  0  0  0  0  0  0
    9.5421   -4.3313    0.0000 C   0  0  0  0  0  0  0  0  0  0  0  0
    8.8276   -3.9188    0.0000 C   0  0  0  0  0  0  0  0  0  0  0  0
    8.1131   -4.3313    0.0000 C   0  0  0  0  0  0  0  0  0  0  0  0
    6.6842   -5.1563    0.0000 O   0  0  0  0  0  0  0  0  0  0  0  0
    7.3987   -3.9188    0.0000 O   0  0  0  0  0  0  0  0  0  0  0  0
   10.2565   -3.9188    0.0000 O   0  0  0  0  0  0  0  0  0  0  0  0
    3.8263  -10.1063    0.0000 C   0  0  0  0  0  0  0  0  0  0  0  0
    5.2552  -12.5812    0.0000 O   0  0  0  0  0  0  0  0  0  0  0  0
    3.8263  -11.7562    0.0000 O   0  0  0  0  0  0  0  0  0  0  0  0
    6.6842  -11.7562    0.0000 O   0  0  0  0  0  0  0  0  0  0  0  0
    3.1118  -10.5188    0.0000 O   0  0  0  0  0  0  0  0  0  0  0  0
  1  2  1  0  0  0  0
  2  3  1  0  0  0  0
  3  4  1  0  0  0  0
  4  5  1  0  0  0  0
  5  6  1  0  0  0  0
  6  1  1  0  0  0  0
  5  7  1  1  0  0  0
  7  8  1  0  0  0  0
  8  9  1  0  0  0  0
  8 10  2  0  0  0  0
 10 11  1  0  0  0  0
 11 12  2  0  0  0  0
 12 13  1  0  0  0  0
 13  9  2  0  0  0  0
 14 15  2  0  0  0  0
 15 12  1  0  0  0  0
 16 17  1  0  0  0  0
 17 18  2  0  0  0  0
 18 19  1  0  0  0  0
 19 14  1  0  0  0  0
 17 20  1  0  0  0  0
 20 21  2  0  0  0  0
 21 22  1  0  0  0  0
 22 23  2  0  0  0  0
 23 18  1  0  0  0  0
 19 24  2  0  0  0  0
 23 25  1  0  0  0  0
 21 26  1  0  0  0  0
  1 27  1  1  0  0  0
  3 28  1  1  0  0  0
  2 29  1  6  0  0  0
  4 30  1  6  0  0  0
 27 31  1  0  0  0  0
M  END
>  <cdx:fragmentId>
5

$$$$
