864462.cdx
  Mrv1902 05222410242D          

 36 39  0  0  0  0            999 V2000
    4.4109   -8.2092    0.0000 C   0  0  0  0  0  0  0  0  0  0  0  0
    5.0923   -7.7441    0.0000 O   0  0  0  0  0  0  0  0  0  0  0  0
    4.5902   -9.8942    0.0000 C   0  0  0  0  0  0  0  0  0  0  0  0
    4.8133   -9.0999    0.0000 O   0  0  0  0  0  0  0  0  0  0  0  0
    6.5422  -10.8709    0.0000 C   0  0  0  0  0  0  0  0  0  0  0  0
    5.9659  -10.2806    0.0000 O   0  0  0  0  0  0  0  0  0  0  0  0
    4.4289   -6.7081    0.0000 C   0  0  0  0  0  0  0  0  0  0  0  0
    5.0990   -7.1894    0.0000 O   0  0  0  0  0  0  0  0  0  0  0  0
    9.3851   -8.2466    0.0000 C   0  0  0  0  0  0  0  0  0  0  0  0
    9.4026   -6.7903    0.0000 C   0  0  0  0  0  0  0  0  0  0  0  0
    5.8508   -6.8498    0.0000 C   0  0  0  0  0  0  0  0  0  0  0  0
    5.6469   -6.0504    0.0000 C   0  0  0  0  0  0  0  0  0  0  0  0
    4.9164   -5.6670    0.0000 O   0  0  0  0  0  0  0  0  0  0  0  0
    5.0552   -4.8538    0.0000 C   0  0  0  0  0  0  0  0  0  0  0  0
    5.8716   -4.7345    0.0000 O   0  0  0  0  0  0  0  0  0  0  0  0
    6.2372   -5.4741    0.0000 C   0  0  0  0  0  0  0  0  0  0  0  0
    7.0315   -5.6972    0.0000 C   0  0  0  0  0  0  0  0  0  0  0  0
    7.2354   -6.4966    0.0000 C   0  0  0  0  0  0  0  0  0  0  0  0
    8.0604   -6.5065    0.0000 C   0  0  0  0  0  0  0  0  0  0  0  0
    8.6367   -7.0968    0.0000 C   0  0  1  0  0  0  0  0  0  0  0  0
    8.6267   -7.9218    0.0000 C   0  0  1  0  0  0  0  0  0  0  0  0
    8.0364   -8.4981    0.0000 C   0  0  2  0  0  0  0  0  0  0  0  0
    7.2115   -8.4882    0.0000 C   0  0  0  0  0  0  0  0  0  0  0  0
    6.9884   -9.2824    0.0000 C   0  0  0  0  0  0  0  0  0  0  0  0
    6.1890   -9.4863    0.0000 C   0  0  0  0  0  0  0  0  0  0  0  0
    5.6127   -8.8960    0.0000 C   0  0  0  0  0  0  0  0  0  0  0  0
    5.8358   -8.1017    0.0000 C   0  0  0  0  0  0  0  0  0  0  0  0
    6.6352   -7.8978    0.0000 C   0  0  0  0  0  0  0  0  0  0  0  0
    6.6451   -7.0729    0.0000 C   0  0  0  0  0  0  0  0  0  0  0  0
    8.9560  -10.7959    0.0000 C   0  0  0  0  0  0  0  0  0  0  0  0
    8.3429   -9.2640    0.0000 O   0  0  0  0  0  0  0  0  0  0  0  0
    9.6696   -8.7331    0.0000 O   0  0  0  0  0  0  0  0  0  0  0  0
   10.7927   -9.6166    0.0000 C   0  0  0  0  0  0  0  0  0  0  0  0
   10.2826  -10.2650    0.0000 C   0  0  0  0  0  0  0  0  0  0  0  0
    9.4660  -10.1475    0.0000 C   0  0  0  0  0  0  0  0  0  0  0  0
    9.1595   -9.3815    0.0000 C   0  0  0  0  0  0  0  0  0  0  0  0
 22 31  1  1  0  0  0
 27  2  1  0  0  0  0
  2  1  1  0  0  0  0
 26  4  1  0  0  0  0
  4  3  1  0  0  0  0
 25  6  1  0  0  0  0
  6  5  1  0  0  0  0
 11  8  1  0  0  0  0
  8  7  1  0  0  0  0
 21  9  1  6  0  0  0
 20 10  1  6  0  0  0
 28 23  1  0  0  0  0
 16 12  2  0  0  0  0
 29 18  1  0  0  0  0
 29 11  2  0  0  0  0
 12 11  1  0  0  0  0
 13 12  1  0  0  0  0
 14 13  1  0  0  0  0
 15 14  1  0  0  0  0
 16 15  1  0  0  0  0
 17 16  1  0  0  0  0
 18 17  2  0  0  0  0
 19 18  1  0  0  0  0
 20 19  1  0  0  0  0
 21 20  1  0  0  0  0
 22 21  1  0  0  0  0
 23 22  1  0  0  0  0
 24 23  2  0  0  0  0
 25 24  1  0  0  0  0
 26 25  2  0  0  0  0
 27 26  1  0  0  0  0
 28 27  2  0  0  0  0
 29 28  1  0  0  0  0
 35 30  1  0  0  0  0
 36 31  1  0  0  0  0
 36 32  2  0  0  0  0
 34 33  1  0  0  0  0
 35 34  2  0  0  0  0
 36 35  1  0  0  0  0
M  END
>  <cdx:fragmentId>
218294

$$$$
