864464.cdx
  Mrv1902 05222410252D          

 38 42  0  0  0  0            999 V2000
    9.3504   -7.5145    0.0000 C   0  0  0  0  0  0  0  0  0  0  0  0
    9.6673   -8.2762    0.0000 C   0  0  0  0  0  0  0  0  0  0  0  0
   10.4855   -8.3825    0.0000 C   0  0  0  0  0  0  0  0  0  0  0  0
   10.8024   -9.1442    0.0000 C   0  0  0  0  0  0  0  0  0  0  0  0
   10.3013   -9.7995    0.0000 C   0  0  0  0  0  0  0  0  0  0  0  0
    9.4832   -9.6932    0.0000 C   0  0  0  0  0  0  0  0  0  0  0  0
    9.1662   -8.9315    0.0000 C   0  0  0  0  0  0  0  0  0  0  0  0
    9.8515   -6.8591    0.0000 O   0  0  0  0  0  0  0  0  0  0  0  0
    8.5323   -7.4082    0.0000 O   0  0  0  0  0  0  0  0  0  0  0  0
    6.8060   -6.0654    0.0000 C   0  0  0  0  0  0  0  0  0  0  0  0
    6.8046   -5.2404    0.0000 C   0  0  0  0  0  0  0  0  0  0  0  0
    6.0074   -5.0282    0.0000 C   0  0  0  0  0  0  0  0  0  0  0  0
    5.7925   -4.2317    0.0000 C   0  0  0  0  0  0  0  0  0  0  0  0
    6.3749   -3.6474    0.0000 C   0  0  0  0  0  0  0  0  0  0  0  0
    7.1722   -3.8596    0.0000 C   0  0  0  0  0  0  0  0  0  0  0  0
    7.3870   -4.6561    0.0000 C   0  0  0  0  0  0  0  0  0  0  0  0
    8.2120   -4.6547    0.0000 C   0  0  0  0  0  0  0  0  0  0  0  0
    8.7963   -5.2372    0.0000 C   0  0  1  0  0  0  0  0  0  0  0  0
    8.7977   -6.0622    0.0000 C   0  0  1  0  0  0  0  0  0  0  0  0
    8.2153   -6.6465    0.0000 C   0  0  2  0  0  0  0  0  0  0  0  0
    7.3903   -6.6478    0.0000 C   0  0  0  0  0  0  0  0  0  0  0  0
    7.1781   -7.4451    0.0000 C   0  0  0  0  0  0  0  0  0  0  0  0
    6.3815   -7.6599    0.0000 C   0  0  0  0  0  0  0  0  0  0  0  0
    6.0082   -8.3956    0.0000 O   0  0  0  0  0  0  0  0  0  0  0  0
    5.1932   -8.2679    0.0000 C   0  0  0  0  0  0  0  0  0  0  0  0
    5.0628   -7.4533    0.0000 O   0  0  0  0  0  0  0  0  0  0  0  0
    5.7972   -7.0775    0.0000 C   0  0  0  0  0  0  0  0  0  0  0  0
    6.0094   -6.2803    0.0000 C   0  0  0  0  0  0  0  0  0  0  0  0
    9.5604   -6.3766    0.0000 C   0  0  0  0  0  0  0  0  0  0  0  0
    9.5580   -4.9202    0.0000 C   0  0  0  0  0  0  0  0  0  0  0  0
    5.2612   -5.9328    0.0000 O   0  0  0  0  0  0  0  0  0  0  0  0
    4.5861   -6.4071    0.0000 C   0  0  0  0  0  0  0  0  0  0  0  0
    6.1601   -2.8508    0.0000 O   0  0  0  0  0  0  0  0  0  0  0  0
    6.7425   -2.2665    0.0000 C   0  0  0  0  0  0  0  0  0  0  0  0
    4.9953   -4.0195    0.0000 O   0  0  0  0  0  0  0  0  0  0  0  0
    4.7805   -3.2229    0.0000 C   0  0  0  0  0  0  0  0  0  0  0  0
    5.2602   -5.3781    0.0000 O   0  0  0  0  0  0  0  0  0  0  0  0
    4.5837   -4.9060    0.0000 C   0  0  0  0  0  0  0  0  0  0  0  0
  1  2  1  0  0  0  0
  2  3  1  0  0  0  0
  3  4  2  0  0  0  0
  4  5  1  0  0  0  0
  5  6  2  0  0  0  0
  6  7  1  0  0  0  0
  2  7  2  0  0  0  0
  1  8  2  0  0  0  0
  1  9  1  0  0  0  0
 10 11  1  0  0  0  0
 11 12  2  0  0  0  0
 12 13  1  0  0  0  0
 13 14  2  0  0  0  0
 14 15  1  0  0  0  0
 15 16  2  0  0  0  0
 16 17  1  0  0  0  0
 17 18  1  0  0  0  0
 18 19  1  0  0  0  0
 19 20  1  0  0  0  0
 20 21  1  0  0  0  0
 21 22  2  0  0  0  0
 22 23  1  0  0  0  0
 23 24  1  0  0  0  0
 24 25  1  0  0  0  0
 25 26  1  0  0  0  0
 26 27  1  0  0  0  0
 27 28  1  0  0  0  0
 10 28  2  0  0  0  0
 10 21  1  0  0  0  0
 23 27  2  0  0  0  0
 11 16  1  0  0  0  0
 19 29  1  6  0  0  0
 18 30  1  6  0  0  0
 31 32  1  0  0  0  0
 28 31  1  0  0  0  0
 33 34  1  0  0  0  0
 14 33  1  0  0  0  0
 35 36  1  0  0  0  0
 13 35  1  0  0  0  0
 37 38  1  0  0  0  0
 12 37  1  0  0  0  0
 20  9  1  1  0  0  0
M  END
>  <cdx:fragmentId>
23

$$$$
