86472.cdx
  Mrv1902 05222410272D          

 34 35  0  0  0  0            999 V2000
    0.7526   -3.8363    0.0000 C   0  0  0  0  0  0  0  0  0  0  0  0
    0.0381   -3.4238    0.0000 C   0  0  0  0  0  0  0  0  0  0  0  0
    0.7526   -4.6612    0.0000 O   0  0  0  0  0  0  0  0  0  0  0  0
    1.4670   -3.4238    0.0000 O   0  0  0  0  0  0  0  0  0  0  0  0
    5.0394   -4.6612    0.0000 C   0  0  2  0  0  0  0  0  0  0  0  0
    5.0394   -3.8362    0.0000 C   0  0  0  0  0  0  0  0  0  0  0  0
    4.3249   -3.4237    0.0000 C   0  0  0  0  0  0  0  0  0  0  0  0
    3.6104   -3.8362    0.0000 C   0  0  0  0  0  0  0  0  0  0  0  0
    2.8960   -3.4237    0.0000 C   0  0  0  0  0  0  0  0  0  0  0  0
    2.1815   -3.8363    0.0000 C   0  0  0  0  0  0  0  0  0  0  0  0
    2.1815   -4.6612    0.0000 C   0  0  0  0  0  0  0  0  0  0  0  0
    2.8960   -5.0737    0.0000 C   0  0  0  0  0  0  0  0  0  0  0  0
    3.6104   -4.6612    0.0000 C   0  0  0  0  0  0  0  0  0  0  0  0
    4.3249   -5.0737    0.0000 O   0  0  0  0  0  0  0  0  0  0  0  0
    5.7538   -5.0737    0.0000 C   0  0  0  0  0  0  0  0  0  0  0  0
    6.4683   -4.6612    0.0000 C   0  0  0  0  0  0  0  0  0  0  0  0
    7.1828   -5.0737    0.0000 C   0  0  0  0  0  0  0  0  0  0  0  0
    7.8973   -4.6612    0.0000 C   0  0  1  0  0  0  0  0  0  0  0  0
    8.6117   -5.0737    0.0000 C   0  0  0  0  0  0  0  0  0  0  0  0
    9.3262   -4.6612    0.0000 C   0  0  0  0  0  0  0  0  0  0  0  0
   10.0407   -5.0737    0.0000 C   0  0  0  0  0  0  0  0  0  0  0  0
   10.7551   -4.6612    0.0000 C   0  0  1  0  0  0  0  0  0  0  0  0
   11.4696   -5.0737    0.0000 C   0  0  0  0  0  0  0  0  0  0  0  0
   12.1841   -4.6612    0.0000 C   0  0  0  0  0  0  0  0  0  0  0  0
   12.8986   -5.0737    0.0000 C   0  0  0  0  0  0  0  0  0  0  0  0
   13.6130   -4.6612    0.0000 C   0  0  0  0  0  0  0  0  0  0  0  0
   14.3275   -5.0737    0.0000 C   0  0  0  0  0  0  0  0  0  0  0  0
   13.6130   -3.8362    0.0000 C   0  0  0  0  0  0  0  0  0  0  0  0
   10.7551   -3.8362    0.0000 C   0  0  0  0  0  0  0  0  0  0  0  0
    7.8973   -3.8362    0.0000 C   0  0  0  0  0  0  0  0  0  0  0  0
    2.8960   -5.8988    0.0000 C   0  0  0  0  0  0  0  0  0  0  0  0
    1.4670   -5.0737    0.0000 C   0  0  0  0  0  0  0  0  0  0  0  0
    2.8960   -2.5987    0.0000 C   0  0  0  0  0  0  0  0  0  0  0  0
    5.0394   -5.4862    0.0000 C   0  0  0  0  0  0  0  0  0  0  0  0
  1  2  1  0  0  0  0
  1  3  2  0  0  0  0
  1  4  1  0  0  0  0
  5  6  1  0  0  0  0
  6  7  1  0  0  0  0
  7  8  1  0  0  0  0
  8  9  1  0  0  0  0
  9 10  2  0  0  0  0
 10 11  1  0  0  0  0
 11 12  2  0  0  0  0
 12 13  1  0  0  0  0
  8 13  2  0  0  0  0
 13 14  1  0  0  0  0
  5 14  1  0  0  0  0
 15 16  1  0  0  0  0
 16 17  1  0  0  0  0
 17 18  1  0  0  0  0
 18 19  1  0  0  0  0
 19 20  1  0  0  0  0
 20 21  1  0  0  0  0
 21 22  1  0  0  0  0
 22 23  1  0  0  0  0
 23 24  1  0  0  0  0
 24 25  1  0  0  0  0
 25 26  1  0  0  0  0
 26 27  1  0  0  0  0
 26 28  1  0  0  0  0
 22 29  1  6  0  0  0
 18 30  1  6  0  0  0
  5 15  1  0  0  0  0
 12 31  1  0  0  0  0
 11 32  1  0  0  0  0
  9 33  1  0  0  0  0
  5 34  1  6  0  0  0
  4 10  1  0  0  0  0
M  END
>  <cdx:fragmentId>
33

$$$$
