8647.cdx
  Mrv1902 05222410282D          

 47 50  0  0  0  0            999 V2000
    6.7799  -12.1652    0.0000 O   0  0  0  0  0  0  0  0  0  0  0  0
    6.0495  -13.3934    0.0000 O   0  0  0  0  0  0  0  0  0  0  0  0
    6.0920  -10.0937    0.0000 O   0  0  0  0  0  0  0  0  0  0  0  0
    6.7905  -11.3403    0.0000 O   0  0  0  0  0  0  0  0  0  0  0  0
    5.9236   -8.5413    0.0000 O   0  0  0  0  0  0  0  0  0  0  0  0
    2.5253   -9.6352    0.0000 O   0  0  0  0  0  0  0  0  0  0  0  0
    1.7737  -12.5133    0.0000 O   0  0  0  0  0  0  0  0  0  0  0  0
    3.1919  -13.3566    0.0000 O   0  0  0  0  0  0  0  0  0  0  0  0
    6.6457   -9.7879    0.0000 O   0  0  0  0  0  0  0  0  0  0  0  0
    5.9366   -9.3662    0.0000 C   0  0  0  0  0  0  0  0  0  0  0  0
    6.0602  -12.5685    0.0000 C   0  0  0  0  0  0  0  0  0  0  0  0
    6.0814  -10.9186    0.0000 C   0  0  0  0  0  0  0  0  0  0  0  0
    4.6313  -12.5501    0.0000 O   0  0  0  0  0  0  0  0  0  0  0  0
    5.3511  -12.1468    0.0000 C   0  0  0  0  0  0  0  0  0  0  0  0
    5.3617  -11.3219    0.0000 C   0  0  0  0  0  0  0  0  0  0  0  0
    6.7320   -8.0586    0.0000 C   0  0  2  0  0  0  0  0  0  0  0  0
    6.7370   -7.2336    0.0000 C   0  0  2  0  0  0  0  0  0  0  0  0
    7.4440   -8.4755    0.0000 C   0  0  1  0  0  0  0  0  0  0  0  0
    8.1609   -8.0673    0.0000 C   0  0  2  0  0  0  0  0  0  0  0  0
    8.1659   -7.2423    0.0000 C   0  0  1  0  0  0  0  0  0  0  0  0
    7.4540   -6.8255    0.0000 O   0  0  0  0  0  0  0  0  0  0  0  0
    4.6526  -10.9002    0.0000 C   0  0  0  0  0  0  0  0  0  0  0  0
    4.6632  -10.0753    0.0000 C   0  0  0  0  0  0  0  0  0  0  0  0
    3.9541   -9.6536    0.0000 O   0  0  0  0  0  0  0  0  0  0  0  0
    3.2344  -10.0569    0.0000 C   0  0  0  0  0  0  0  0  0  0  0  0
    6.0251   -6.8168    0.0000 C   0  0  0  0  0  0  0  0  0  0  0  0
    7.4389   -9.3005    0.0000 O   0  0  0  0  0  0  0  0  0  0  0  0
    8.8729   -8.4842    0.0000 O   0  0  0  0  0  0  0  0  0  0  0  0
    9.5898   -8.0760    0.0000 O   0  0  0  0  0  0  0  0  0  0  0  0
   11.0276   -4.7834    0.0000 O   0  0  0  0  0  0  0  0  0  0  0  0
   12.4531   -5.6144    0.0000 O   0  0  0  0  0  0  0  0  0  0  0  0
   12.4461   -7.2644    0.0000 O   0  0  0  0  0  0  0  0  0  0  0  0
   11.0171   -7.2584    0.0000 C   0  0  0  0  0  0  0  0  0  0  0  0
   11.7334   -6.8489    0.0000 C   0  0  0  0  0  0  0  0  0  0  0  0
   11.7368   -6.0239    0.0000 C   0  0  0  0  0  0  0  0  0  0  0  0
   11.0241   -5.6084    0.0000 C   0  0  0  0  0  0  0  0  0  0  0  0
   10.3079   -6.0179    0.0000 C   0  0  0  0  0  0  0  0  0  0  0  0
   10.3044   -6.8428    0.0000 C   0  0  0  0  0  0  0  0  0  0  0  0
    9.5949   -7.2510    0.0000 C   0  0  0  0  0  0  0  0  0  0  0  0
    8.8829   -6.8342    0.0000 O   0  0  0  0  0  0  0  0  0  0  0  0
    5.3106   -7.2293    0.0000 O   0  0  0  0  0  0  0  0  0  0  0  0
    3.9222  -12.1284    0.0000 C   0  0  0  0  0  0  0  0  0  0  0  0
    3.9329  -11.3035    0.0000 C   0  0  0  0  0  0  0  0  0  0  0  0
    3.2238  -10.8818    0.0000 C   0  0  0  0  0  0  0  0  0  0  0  0
    2.5040  -11.2851    0.0000 C   0  0  0  0  0  0  0  0  0  0  0  0
    2.4934  -12.1100    0.0000 C   0  0  0  0  0  0  0  0  0  0  0  0
    3.2025  -12.5317    0.0000 C   0  0  0  0  0  0  0  0  0  0  0  0
 11  1  2  0  0  0  0
 11  2  1  0  0  0  0
 12  3  1  0  0  0  0
 12  4  2  0  0  0  0
 10  5  1  0  0  0  0
 25  6  2  0  0  0  0
 46  7  1  0  0  0  0
 47  8  1  0  0  0  0
 10  9  2  0  0  0  0
 23 10  1  0  0  0  0
 11 14  1  0  0  0  0
 15 12  1  0  0  0  0
 13 42  1  0  0  0  0
 15 14  1  0  0  0  0
 22 15  1  0  0  0  0
 22 43  1  0  0  0  0
 23 22  1  0  0  0  0
 24 23  1  0  0  0  0
 25 24  1  0  0  0  0
 44 25  1  0  0  0  0
 16 17  1  0  0  0  0
 16 18  1  0  0  0  0
 18 19  1  0  0  0  0
 19 20  1  0  0  0  0
 20 21  1  0  0  0  0
 21 17  1  0  0  0  0
 42 47  2  0  0  0  0
 43 42  1  0  0  0  0
 39 38  1  0  0  0  0
 20 40  1  1  0  0  0
 17 26  1  1  0  0  0
 18 27  1  1  0  0  0
 19 28  1  6  0  0  0
 39 29  2  0  0  0  0
 36 30  1  0  0  0  0
 35 31  1  0  0  0  0
 34 32  1  0  0  0  0
 33 38  1  0  0  0  0
 34 33  2  0  0  0  0
 35 34  1  0  0  0  0
 36 35  2  0  0  0  0
 37 36  1  0  0  0  0
 38 37  2  0  0  0  0
 44 43  2  0  0  0  0
 45 44  1  0  0  0  0
 16  5  1  6  0  0  0
 40 39  1  0  0  0  0
 26 41  1  0  0  0  0
 46 45  2  0  0  0  0
 47 46  1  0  0  0  0
M  END
>  <cdx:fragmentId>
5

$$$$
