865027.cdx
  Mrv1902 05222410242D          

 19 20  0  0  0  0            999 V2000
    6.7047   -6.9619    0.0000 C   0  0  0  0  0  0  0  0  0  0  0  0
    7.4742   -9.8489    0.0000 C   0  0  0  0  0  0  0  0  0  0  0  0
    8.1542   -7.7748    0.0000 C   0  0  0  0  0  0  0  0  0  0  0  0
    8.1679   -8.5997    0.0000 C   0  0  0  0  0  0  0  0  0  0  0  0
    7.4604   -9.0240    0.0000 C   0  0  0  0  0  0  0  0  0  0  0  0
    6.7392   -8.6235    0.0000 C   0  0  0  0  0  0  0  0  0  0  0  0
    6.7254   -7.7986    0.0000 C   0  0  0  0  0  0  0  0  0  0  0  0
    7.4329   -7.3743    0.0000 C   0  0  2  0  0  0  0  0  0  0  0  0
    7.4192   -6.5494    0.0000 C   0  0  1  0  0  0  0  0  0  0  0  0
    7.1375   -5.7739    0.0000 C   0  0  0  0  0  0  0  0  0  0  0  0
    7.7880   -5.2665    0.0000 C   0  0  0  0  0  0  0  0  0  0  0  0
    8.4716   -5.7283    0.0000 C   0  0  2  0  0  0  0  0  0  0  0  0
    8.2437   -6.5212    0.0000 O   0  0  0  0  0  0  0  0  0  0  0  0
   10.0225   -5.1651    0.0000 O   0  0  0  0  0  0  0  0  0  0  0  0
    9.0336   -4.6498    0.0000 C   0  0  0  0  0  0  0  0  0  0  0  0
    9.2471   -5.4467    0.0000 C   0  0  0  0  0  0  0  0  0  0  0  0
    9.4606   -6.2436    0.0000 C   0  0  0  0  0  0  0  0  0  0  0  0
    8.2298   -7.1607    0.0000 H   0  0  0  0  0  0  0  0  0  0  0  0
    9.0550   -6.3117    0.0000 H   0  0  0  0  0  0  0  0  0  0  0  0
 12 16  1  0  0  0  0
  9  1  1  1  0  0  0
  9  8  1  0  0  0  0
  5  2  1  0  0  0  0
  8  3  1  0  0  0  0
  4  3  1  0  0  0  0
  5  4  2  0  0  0  0
  6  5  1  0  0  0  0
  7  6  1  0  0  0  0
  8  7  1  0  0  0  0
 13  9  1  0  0  0  0
 10  9  1  0  0  0  0
 11 10  1  0  0  0  0
 12 11  1  0  0  0  0
 13 12  1  0  0  0  0
 16 14  1  0  0  0  0
 16 15  1  0  0  0  0
 17 16  1  0  0  0  0
  8 18  1  1  0  0  0
 12 19  1  6  0  0  0
M  END
>  <cdx:fragmentId>
23

$$$$
