6086514.cdx
  Mrv1902 05222410262D          

 16 15  0  0  0  0            999 V2000
    4.9244   -6.4894    0.0000 C   0  0  0  0  0  0  0  0  0  0  0  0
    4.2099   -6.9019    0.0000 C   0  0  0  0  0  0  0  0  0  0  0  0
    4.2099   -7.7269    0.0000 C   0  0  0  0  0  0  0  0  0  0  0  0
    4.9244   -5.6644    0.0000 O   0  0  0  0  0  0  0  0  0  0  0  0
    5.6388   -6.9019    0.0000 O   0  0  0  0  0  0  0  0  0  0  0  0
    3.4954   -6.4894    0.0000 C   0  0  0  0  0  0  0  0  0  0  0  0
    6.3533   -6.4894    0.0000 C   0  0  0  0  0  0  0  0  0  0  0  0
    7.0678   -6.9019    0.0000 C   0  0  0  0  0  0  0  0  0  0  0  0
    7.7822   -6.4894    0.0000 C   0  0  0  0  0  0  0  0  0  0  0  0
    8.4967   -6.9019    0.0000 C   0  0  0  0  0  0  0  0  0  0  0  0
    9.2112   -6.4894    0.0000 C   0  0  0  0  0  0  0  0  0  0  0  0
    9.9256   -6.9019    0.0000 C   0  0  0  0  0  0  0  0  0  0  0  0
   10.6401   -6.4894    0.0000 C   0  0  0  0  0  0  0  0  0  0  0  0
   10.6401   -5.6644    0.0000 C   0  0  0  0  0  0  0  0  0  0  0  0
   11.3546   -6.9019    0.0000 C   0  0  0  0  0  0  0  0  0  0  0  0
    7.7822   -5.6644    0.0000 C   0  0  0  0  0  0  0  0  0  0  0  0
  1  2  1  0  0  0  0
  2  3  1  0  0  0  0
  1  4  2  0  0  0  0
  1  5  1  0  0  0  0
  2  6  1  0  0  0  0
  7  8  1  0  0  0  0
  8  9  2  0  0  0  0
  9 10  1  0  0  0  0
 10 11  1  0  0  0  0
 11 12  1  0  0  0  0
 12 13  2  0  0  0  0
 13 14  1  0  0  0  0
 13 15  1  0  0  0  0
  9 16  1  0  0  0  0
  5  7  1  0  0  0  0
M  END
>  <cdx:groupId>
49

>  <cdx:fragmentId>
17

$$$$
