86518.cdx
  Mrv1902 05222410202D          

 65 72  0  0  0  0            999 V2000
    6.4007  -13.4718    0.0000 C   0  0  2  0  0  0  0  0  0  0  0  0
    7.1215  -13.0704    0.0000 C   0  0  1  0  0  0  0  0  0  0  0  0
    7.1343  -12.2455    0.0000 C   0  0  0  0  0  0  0  0  0  0  0  0
    6.4262  -11.8220    0.0000 C   0  0  0  0  0  0  0  0  0  0  0  0
    6.4390  -10.9971    0.0000 C   0  0  0  0  0  0  0  0  0  0  0  0
    5.7310  -10.5736    0.0000 C   0  0  0  0  0  0  0  0  0  0  0  0
    5.0102  -10.9750    0.0000 C   0  0  0  0  0  0  0  0  0  0  0  0
    4.9975  -11.7999    0.0000 C   0  0  0  0  0  0  0  0  0  0  0  0
    5.7055  -12.2234    0.0000 C   0  0  0  0  0  0  0  0  0  0  0  0
    5.6927  -13.0483    0.0000 O   0  0  0  0  0  0  0  0  0  0  0  0
    7.8295  -13.4939    0.0000 O   0  0  0  0  0  0  0  0  0  0  0  0
    7.1598  -10.5957    0.0000 O   0  0  0  0  0  0  0  0  0  0  0  0
    4.3022  -10.5515    0.0000 O   0  0  0  0  0  0  0  0  0  0  0  0
    6.4465   -8.0468    0.0000 C   0  0  2  0  0  0  0  0  0  0  0  0
    6.4465   -8.8718    0.0000 C   0  0  1  0  0  0  0  0  0  0  0  0
    5.7321   -9.2843    0.0000 C   0  0  2  0  0  0  0  0  0  0  0  0
    5.0176   -8.8718    0.0000 C   0  0  0  0  0  0  0  0  0  0  0  0
    4.3031   -9.2843    0.0000 C   0  0  0  0  0  0  0  0  0  0  0  0
    3.5887   -8.8718    0.0000 C   0  0  0  0  0  0  0  0  0  0  0  0
    3.5887   -8.0468    0.0000 C   0  0  0  0  0  0  0  0  0  0  0  0
    4.3031   -7.6343    0.0000 C   0  0  0  0  0  0  0  0  0  0  0  0
    5.0176   -8.0468    0.0000 C   0  0  0  0  0  0  0  0  0  0  0  0
    5.7321   -7.6343    0.0000 O   0  0  0  0  0  0  0  0  0  0  0  0
    2.8742   -7.6343    0.0000 O   0  0  0  0  0  0  0  0  0  0  0  0
    4.3031  -10.1093    0.0000 O   0  0  0  0  0  0  0  0  0  0  0  0
    7.1610   -9.2843    0.0000 O   0  0  0  0  0  0  0  0  0  0  0  0
    7.1610   -7.6343    0.0000 C   0  0  0  0  0  0  0  0  0  0  0  0
    7.8755   -8.0468    0.0000 C   0  0  0  0  0  0  0  0  0  0  0  0
    8.5900   -7.6343    0.0000 C   0  0  0  0  0  0  0  0  0  0  0  0
    8.5900   -6.8093    0.0000 C   0  0  0  0  0  0  0  0  0  0  0  0
    7.8755   -6.3968    0.0000 C   0  0  0  0  0  0  0  0  0  0  0  0
    7.1610   -6.8093    0.0000 C   0  0  0  0  0  0  0  0  0  0  0  0
    9.3044   -6.3968    0.0000 O   0  0  0  0  0  0  0  0  0  0  0  0
    9.3044   -8.0468    0.0000 O   0  0  0  0  0  0  0  0  0  0  0  0
    6.3880  -14.2967    0.0000 C   0  0  0  0  0  0  0  0  0  0  0  0
    7.0960  -14.7202    0.0000 C   0  0  0  0  0  0  0  0  0  0  0  0
    7.0832  -15.5451    0.0000 C   0  0  0  0  0  0  0  0  0  0  0  0
    6.3625  -15.9465    0.0000 C   0  0  0  0  0  0  0  0  0  0  0  0
    5.6545  -15.5230    0.0000 C   0  0  0  0  0  0  0  0  0  0  0  0
    5.6672  -14.6981    0.0000 C   0  0  0  0  0  0  0  0  0  0  0  0
    6.3497  -16.7714    0.0000 O   0  0  0  0  0  0  0  0  0  0  0  0
    7.7912  -15.9686    0.0000 O   0  0  0  0  0  0  0  0  0  0  0  0
    6.4465   -9.6968    0.0000 H   0  0  0  0  0  0  0  0  0  0  0  0
    7.9860   -9.2848    0.0000 C   0  0  0  0  0  0  0  0  0  0  0  0
    8.3981   -9.9995    0.0000 C   0  0  0  0  0  0  0  0  0  0  0  0
    8.3990   -8.5706    0.0000 O   0  0  0  0  0  0  0  0  0  0  0  0
    7.9846  -10.7135    0.0000 C   0  0  0  0  0  0  0  0  0  0  0  0
    8.3981  -11.4285    0.0000 C   0  0  0  0  0  0  0  0  0  0  0  0
    9.2230  -11.4285    0.0000 C   0  0  0  0  0  0  0  0  0  0  0  0
    9.6365  -10.7135    0.0000 C   0  0  0  0  0  0  0  0  0  0  0  0
    9.2230   -9.9995    0.0000 C   0  0  0  0  0  0  0  0  0  0  0  0
    7.9858  -12.1431    0.0000 O   0  0  0  0  0  0  0  0  0  0  0  0
    9.6353  -12.1431    0.0000 O   0  0  0  0  0  0  0  0  0  0  0  0
   10.4615  -10.7132    0.0000 O   0  0  0  0  0  0  0  0  0  0  0  0
    8.5503  -13.0925    0.0000 C   0  0  0  0  0  0  0  0  0  0  0  0
    9.2583  -13.5160    0.0000 C   0  0  0  0  0  0  0  0  0  0  0  0
    8.5630  -12.2676    0.0000 O   0  0  0  0  0  0  0  0  0  0  0  0
    9.2392  -14.3408    0.0000 C   0  0  0  0  0  0  0  0  0  0  0  0
    9.9440  -14.7697    0.0000 C   0  0  0  0  0  0  0  0  0  0  0  0
   10.6678  -14.3738    0.0000 C   0  0  0  0  0  0  0  0  0  0  0  0
   10.6678  -13.5490    0.0000 C   0  0  0  0  0  0  0  0  0  0  0  0
    9.9440  -13.1201    0.0000 C   0  0  0  0  0  0  0  0  0  0  0  0
   11.3846  -13.1406    0.0000 O   0  0  0  0  0  0  0  0  0  0  0  0
   11.3775  -14.7945    0.0000 O   0  0  0  0  0  0  0  0  0  0  0  0
    9.9249  -15.5945    0.0000 O   0  0  0  0  0  0  0  0  0  0  0  0
  1  2  1  0  0  0  0
  2  3  1  0  0  0  0
  3  4  1  0  0  0  0
  4  5  1  0  0  0  0
  5  6  2  0  0  0  0
  6  7  1  0  0  0  0
  7  8  2  0  0  0  0
  8  9  1  0  0  0  0
  4  9  2  0  0  0  0
  9 10  1  0  0  0  0
  1 10  1  0  0  0  0
  2 11  1  1  0  0  0
  5 12  1  0  0  0  0
  7 13  1  0  0  0  0
 14 15  1  0  0  0  0
 15 16  1  0  0  0  0
 16 17  1  0  0  0  0
 17 18  1  0  0  0  0
 18 19  2  0  0  0  0
 19 20  1  0  0  0  0
 20 21  2  0  0  0  0
 21 22  1  0  0  0  0
 17 22  2  0  0  0  0
 22 23  1  0  0  0  0
 14 23  1  0  0  0  0
 20 24  1  0  0  0  0
 18 25  1  0  0  0  0
 15 26  1  6  0  0  0
 27 28  1  0  0  0  0
 28 29  2  0  0  0  0
 29 30  1  0  0  0  0
 30 31  2  0  0  0  0
 31 32  1  0  0  0  0
 27 32  2  0  0  0  0
 30 33  1  0  0  0  0
 29 34  1  0  0  0  0
 14 27  1  6  0  0  0
 35 36  1  0  0  0  0
 36 37  2  0  0  0  0
 37 38  1  0  0  0  0
 38 39  2  0  0  0  0
 39 40  1  0  0  0  0
 35 40  2  0  0  0  0
 38 41  1  0  0  0  0
 37 42  1  0  0  0  0
  1 35  1  1  0  0  0
 16 43  1  6  0  0  0
 16  6  1  0  0  0  0
 26 44  1  0  0  0  0
 44 45  1  0  0  0  0
 44 46  2  0  0  0  0
 45 47  2  0  0  0  0
 47 48  1  0  0  0  0
 48 49  2  0  0  0  0
 49 50  1  0  0  0  0
 50 51  2  0  0  0  0
 51 45  1  0  0  0  0
 48 52  1  0  0  0  0
 49 53  1  0  0  0  0
 50 54  1  0  0  0  0
 11 55  1  0  0  0  0
 55 56  1  0  0  0  0
 55 57  2  0  0  0  0
 56 58  2  0  0  0  0
 58 59  1  0  0  0  0
 59 60  2  0  0  0  0
 60 61  1  0  0  0  0
 61 62  2  0  0  0  0
 62 56  1  0  0  0  0
 61 63  1  0  0  0  0
 60 64  1  0  0  0  0
 59 65  1  0  0  0  0
M  END
>  <cdx:fragmentId>
3821

$$$$
