86540.cdx
  Mrv1902 05222410212D          

 13 12  0  0  0  0            999 V2000
    1.0848   -4.2487    0.0000 C   0  0  0  0  0  0  0  0  0  0  0  0
    1.7992   -3.8362    0.0000 C   0  0  0  0  0  0  0  0  0  0  0  0
    2.5137   -4.2487    0.0000 C   0  0  0  0  0  0  0  0  0  0  0  0
    3.2282   -3.8362    0.0000 C   0  0  0  0  0  0  0  0  0  0  0  0
    3.9427   -4.2488    0.0000 C   0  0  0  0  0  0  0  0  0  0  0  0
    4.6571   -3.8363    0.0000 C   0  0  0  0  0  0  0  0  0  0  0  0
    5.3716   -4.2488    0.0000 C   0  0  0  0  0  0  0  0  0  0  0  0
    6.0861   -3.8363    0.0000 C   0  0  0  0  0  0  0  0  0  0  0  0
    6.8005   -4.2488    0.0000 C   0  0  0  0  0  0  0  0  0  0  0  0
    7.5150   -3.8363    0.0000 C   0  0  0  0  0  0  0  0  0  0  0  0
    8.2295   -4.2488    0.0000 C   0  0  0  0  0  0  0  0  0  0  0  0
    6.0861   -3.0112    0.0000 C   0  0  0  0  0  0  0  0  0  0  0  0
    2.5137   -5.0737    0.0000 C   0  0  0  0  0  0  0  0  0  0  0  0
  1  2  1  0  0  0  0
  2  3  1  0  0  0  0
  3  4  1  0  0  0  0
  4  5  1  0  0  0  0
  5  6  1  0  0  0  0
  6  7  1  0  0  0  0
  7  8  1  0  0  0  0
  8  9  1  0  0  0  0
  9 10  1  0  0  0  0
 10 11  1  0  0  0  0
  8 12  1  0  0  0  0
  3 13  1  0  0  0  0
M  END
>  <cdx:groupId>
40

>  <cdx:fragmentId>
5

$$$$
