17865499.cdx
  Mrv1902 05222410202D          

 14 14  0  0  0  0            999 V2000
   11.2453  -13.2078    0.0000 C   0  0  0  0  0  0  0  0  0  0  0  0
   10.5309  -13.6203    0.0000 C   0  0  0  0  0  0  0  0  0  0  0  0
    9.8164  -13.2078    0.0000 C   0  0  0  0  0  0  0  0  0  0  0  0
   11.2453  -12.3828    0.0000 O   0  0  0  0  0  0  0  0  0  0  0  0
   11.9598  -13.6203    0.0000 O   0  0  0  0  0  0  0  0  0  0  0  0
    9.1019  -13.6203    0.0000 C   0  0  0  0  0  0  0  0  0  0  0  0
    9.1019  -14.4453    0.0000 C   0  0  0  0  0  0  0  0  0  0  0  0
    8.3875  -14.8578    0.0000 C   0  0  0  0  0  0  0  0  0  0  0  0
    7.6730  -14.4453    0.0000 C   0  0  0  0  0  0  0  0  0  0  0  0
    7.6730  -13.6203    0.0000 C   0  0  0  0  0  0  0  0  0  0  0  0
    8.3875  -13.2078    0.0000 C   0  0  0  0  0  0  0  0  0  0  0  0
    6.9585  -13.2078    0.0000 O   0  0  0  0  0  0  0  0  0  0  0  0
    6.2440  -13.6203    0.0000 C   0  0  0  0  0  0  0  0  0  0  0  0
    6.9585  -14.8578    0.0000 O   0  0  0  0  0  0  0  0  0  0  0  0
  1  2  1  0  0  0  0
  2  3  2  0  0  0  0
  1  4  2  0  0  0  0
  1  5  1  0  0  0  0
  6  7  1  0  0  0  0
  7  8  2  0  0  0  0
  8  9  1  0  0  0  0
  9 10  2  0  0  0  0
 10 11  1  0  0  0  0
  6 11  1  0  0  0  0
 12 13  1  0  0  0  0
 10 12  1  0  0  0  0
  9 14  1  0  0  0  0
  3  6  1  0  0  0  0
M  END
>  <cdx:fragmentId>
38685

$$$$
