8655.cdx
  Mrv1902 05222410272D          

 13 13  0  0  0  0            999 V2000
    5.7595   -5.1278    0.0000 C   0  0  0  0  0  0  0  0  0  0  0  0
    5.0450   -4.7153    0.0000 C   0  0  0  0  0  0  0  0  0  0  0  0
    5.0450   -3.8903    0.0000 C   0  0  0  0  0  0  0  0  0  0  0  0
    4.3306   -3.4778    0.0000 C   0  0  0  0  0  0  0  0  0  0  0  0
    3.6161   -3.8903    0.0000 C   0  0  0  0  0  0  0  0  0  0  0  0
    3.6161   -4.7153    0.0000 C   0  0  0  0  0  0  0  0  0  0  0  0
    4.3306   -5.1278    0.0000 C   0  0  0  0  0  0  0  0  0  0  0  0
    6.4740   -4.7153    0.0000 O   0  0  0  0  0  0  0  0  0  0  0  0
    2.9016   -5.1278    0.0000 O   0  0  0  0  0  0  0  0  0  0  0  0
    2.1871   -4.7153    0.0000 C   0  0  0  0  0  0  0  0  0  0  0  0
    4.3306   -2.6528    0.0000 O   0  0  0  0  0  0  0  0  0  0  0  0
    3.6161   -2.2403    0.0000 C   0  0  0  0  0  0  0  0  0  0  0  0
    2.9016   -3.4778    0.0000 O   0  0  0  0  0  0  0  0  0  0  0  0
  1  2  1  0  0  0  0
  2  3  1  0  0  0  0
  3  4  2  0  0  0  0
  4  5  1  0  0  0  0
  5  6  2  0  0  0  0
  6  7  1  0  0  0  0
  2  7  2  0  0  0  0
  1  8  2  0  0  0  0
  9 10  1  0  0  0  0
  6  9  1  0  0  0  0
 11 12  1  0  0  0  0
  4 11  1  0  0  0  0
  5 13  1  0  0  0  0
M  END
>  <cdx:groupId>
41

>  <cdx:fragmentId>
5

$$$$
