865918.cdx
  Mrv1902 05222410192D          

 70 77  0  0  0  0            999 V2000
   20.0760   -6.5938    0.0000 O   0  0  0  0  0  0  0  0  0  0  0  0
   19.6569   -7.3008    0.0000 C   0  0  0  0  0  0  0  0  0  0  0  0
   18.4225   -8.0206    0.0000 O   0  0  0  0  0  0  0  0  0  0  0  0
   18.8319   -7.3044    0.0000 C   0  0  1  0  0  0  0  0  0  0  0  0
   18.4163   -6.5917    0.0000 C   0  0  2  0  0  0  0  0  0  0  0  0
   17.5913   -6.5953    0.0000 C   0  0  1  0  0  0  0  0  0  0  0  0
   17.1819   -7.3116    0.0000 C   0  0  2  0  0  0  0  0  0  0  0  0
   17.5975   -8.0242    0.0000 C   0  0  2  0  0  0  0  0  0  0  0  0
   16.3569   -7.3152    0.0000 O   0  0  0  0  0  0  0  0  0  0  0  0
   17.1757   -5.8826    0.0000 O   0  0  0  0  0  0  0  0  0  0  0  0
   18.8257   -5.8754    0.0000 O   0  0  0  0  0  0  0  0  0  0  0  0
   17.0775   -8.8000    0.0000 O   0  0  0  0  0  0  0  0  0  0  0  0
   16.1179   -8.8072    0.0000 C   0  0  1  0  0  0  0  0  0  0  0  0
   12.2204  -10.6718    0.0000 C   0  0  0  0  0  0  0  0  0  0  0  0
   11.5060  -11.0843    0.0000 C   0  0  0  0  0  0  0  0  0  0  0  0
   11.5060  -11.9093    0.0000 C   0  0  1  0  0  0  0  0  0  0  0  0
   12.2204  -12.3218    0.0000 C   0  0  0  0  0  0  0  0  0  0  0  0
   12.9349  -11.9093    0.0000 C   0  0  2  0  0  0  0  0  0  0  0  0
   13.6494  -12.3218    0.0000 C   0  0  2  0  0  0  0  0  0  0  0  0
   14.3638  -11.9093    0.0000 C   0  0  0  0  0  0  0  0  0  0  0  0
   14.3638  -11.0843    0.0000 C   0  0  1  0  0  0  0  0  0  0  0  0
   15.0783  -10.6718    0.0000 C   0  0  2  0  0  0  0  0  0  0  0  0
   15.8629  -10.9267    0.0000 C   0  0  0  0  0  0  0  0  0  0  0  0
   16.3479  -10.2593    0.0000 C   0  0  0  0  0  0  0  0  0  0  0  0
   15.8629   -9.5919    0.0000 C   0  0  1  0  0  0  0  0  0  0  0  0
   15.0783   -9.8468    0.0000 C   0  0  1  0  0  0  0  0  0  0  0  0
   14.3638   -9.4343    0.0000 C   0  0  1  0  0  0  0  0  0  0  0  0
   13.6494   -9.8468    0.0000 C   0  0  0  0  0  0  0  0  0  0  0  0
   13.6494  -10.6718    0.0000 C   0  0  2  0  0  0  0  0  0  0  0  0
   12.9349  -11.0843    0.0000 C   0  0  1  0  0  0  0  0  0  0  0  0
   15.0783  -11.4968    0.0000 C   0  0  0  0  0  0  0  0  0  0  0  0
   12.9349  -10.2593    0.0000 C   0  0  0  0  0  0  0  0  0  0  0  0
   14.3638  -10.2593    0.0000 C   0  0  0  0  0  0  0  0  0  0  0  0
   12.6329  -13.0363    0.0000 C   0  0  0  0  0  0  0  0  0  0  0  0
   11.8079  -13.0363    0.0000 C   0  0  0  0  0  0  0  0  0  0  0  0
   14.3638   -8.6093    0.0000 O   0  0  0  0  0  0  0  0  0  0  0  0
   10.7915  -12.3218    0.0000 O   0  0  0  0  0  0  0  0  0  0  0  0
   12.9349  -12.7343    0.0000 H   0  0  0  0  0  0  0  0  0  0  0  0
   13.6494  -11.4968    0.0000 H   0  0  0  0  0  0  0  0  0  0  0  0
   15.1646   -9.0263    0.0000 H   0  0  0  0  0  0  0  0  0  0  0  0
   16.6778   -9.4628    0.0000 H   0  0  0  0  0  0  0  0  0  0  0  0
   16.3728   -8.0226    0.0000 C   0  0  0  0  0  0  0  0  0  0  0  0
   13.6494  -13.1468    0.0000 O   0  0  0  0  0  0  0  0  0  0  0  0
   13.2368  -13.8613    0.0000 C   0  0  2  0  0  0  0  0  0  0  0  0
   12.4118  -13.8612    0.0000 O   0  0  0  0  0  0  0  0  0  0  0  0
   11.9993  -14.5756    0.0000 C   0  0  1  0  0  0  0  0  0  0  0  0
   12.4117  -15.2901    0.0000 C   0  0  2  0  0  0  0  0  0  0  0  0
   13.2367  -15.2902    0.0000 C   0  0  1  0  0  0  0  0  0  0  0  0
   13.6493  -14.5758    0.0000 C   0  0  1  0  0  0  0  0  0  0  0  0
   11.1743  -14.5756    0.0000 C   0  0  0  0  0  0  0  0  0  0  0  0
   13.6492  -16.0047    0.0000 O   0  0  0  0  0  0  0  0  0  0  0  0
   11.9992  -16.0046    0.0000 O   0  0  0  0  0  0  0  0  0  0  0  0
   14.4743  -14.5758    0.0000 O   0  0  0  0  0  0  0  0  0  0  0  0
   10.7617  -15.2900    0.0000 O   0  0  0  0  0  0  0  0  0  0  0  0
   15.7433   -8.0722    0.0000 C   0  0  0  0  0  0  0  0  0  0  0  0
   14.9195   -8.0290    0.0000 C   0  0  2  0  0  0  0  0  0  0  0  0
   14.6155   -7.2620    0.0000 C   0  0  0  0  0  0  0  0  0  0  0  0
   13.7993   -7.1419    0.0000 C   0  0  0  0  0  0  0  0  0  0  0  0
   13.2871   -7.7886    0.0000 C   0  0  0  0  0  0  0  0  0  0  0  0
   13.4953   -6.3749    0.0000 C   0  0  0  0  0  0  0  0  0  0  0  0
   14.8867  -15.2903    0.0000 C   0  0  2  0  0  0  0  0  0  0  0  0
   14.4741  -16.0047    0.0000 O   0  0  0  0  0  0  0  0  0  0  0  0
   14.8867  -16.7193    0.0000 C   0  0  2  0  0  0  0  0  0  0  0  0
   15.7117  -16.7193    0.0000 C   0  0  1  0  0  0  0  0  0  0  0  0
   16.1243  -16.0047    0.0000 C   0  0  2  0  0  0  0  0  0  0  0  0
   15.7117  -15.2903    0.0000 C   0  0  1  0  0  0  0  0  0  0  0  0
   16.1242  -17.4337    0.0000 O   0  0  0  0  0  0  0  0  0  0  0  0
   14.4742  -17.4337    0.0000 C   0  0  0  0  0  0  0  0  0  0  0  0
   16.9493  -16.0047    0.0000 O   0  0  0  0  0  0  0  0  0  0  0  0
   16.1242  -14.5758    0.0000 O   0  0  0  0  0  0  0  0  0  0  0  0
  3  4  1  0  0  0  0
  4  5  1  0  0  0  0
  5  6  1  0  0  0  0
  6  7  1  0  0  0  0
  7  8  1  0  0  0  0
  3  8  1  0  0  0  0
  7  9  1  6  0  0  0
  6 10  1  1  0  0  0
  5 11  1  6  0  0  0
 14 15  1  0  0  0  0
 15 16  1  0  0  0  0
 16 17  1  0  0  0  0
 17 18  1  0  0  0  0
 18 19  1  0  0  0  0
 19 20  1  0  0  0  0
 20 21  1  0  0  0  0
 21 22  1  0  0  0  0
 22 23  1  0  0  0  0
 23 24  1  0  0  0  0
 25 24  1  0  0  0  0
 25 26  1  0  0  0  0
 22 26  1  0  0  0  0
 26 27  1  0  0  0  0
 27 28  1  0  0  0  0
 28 29  1  0  0  0  0
 21 29  1  0  0  0  0
 29 30  1  0  0  0  0
 18 30  1  0  0  0  0
 14 30  1  0  0  0  0
 22 31  1  6  0  0  0
 30 32  1  1  0  0  0
 21 33  1  1  0  0  0
 17 34  1  0  0  0  0
 17 35  1  0  0  0  0
 27 36  1  1  0  0  0
 16 37  1  1  0  0  0
 13 25  1  0  0  0  0
  8 12  1  1  0  0  0
  4  2  1  1  0  0  0
 18 38  1  6  0  0  0
 29 39  1  6  0  0  0
 26 40  1  1  0  0  0
 25 41  1  6  0  0  0
  1  2  1  0  0  0  0
 13 42  1  1  0  0  0
 13 12  1  6  0  0  0
 19 43  1  6  0  0  0
 44 43  1  1  0  0  0
 44 45  1  0  0  0  0
 45 46  1  0  0  0  0
 46 47  1  0  0  0  0
 47 48  1  0  0  0  0
 48 49  1  0  0  0  0
 49 44  1  0  0  0  0
 46 50  1  1  0  0  0
 48 51  1  1  0  0  0
 47 52  1  6  0  0  0
 49 53  1  6  0  0  0
 50 54  1  0  0  0  0
 13 55  1  0  0  0  0
 55 56  1  0  0  0  0
 56 36  1  1  0  0  0
 56 57  1  0  0  0  0
 57 58  2  0  0  0  0
 58 59  1  0  0  0  0
 58 60  1  0  0  0  0
 61 53  1  1  0  0  0
 61 62  1  0  0  0  0
 62 63  1  0  0  0  0
 63 64  1  0  0  0  0
 64 65  1  0  0  0  0
 65 66  1  0  0  0  0
 66 61  1  0  0  0  0
 64 67  1  1  0  0  0
 63 68  1  6  0  0  0
 65 69  1  6  0  0  0
 66 70  1  6  0  0  0
M  END
>  <cdx:fragmentId>
32433

$$$$
