86648.cdx
  Mrv1902 05222410262D          

 19 18  0  0  0  0            999 V2000
    1.4668   -5.2172    0.0000 C   0  0  0  0  0  0  0  0  0  0  0  0
    1.8751   -5.9340    0.0000 C   0  0  0  0  0  0  0  0  0  0  0  0
    2.7001   -5.9389    0.0000 C   0  0  0  0  0  0  0  0  0  0  0  0
    3.1084   -6.6558    0.0000 C   0  0  0  0  0  0  0  0  0  0  0  0
    3.9334   -6.6606    0.0000 C   0  0  0  0  0  0  0  0  0  0  0  0
    4.3417   -7.3775    0.0000 C   0  0  0  0  0  0  0  0  0  0  0  0
    5.1667   -7.3823    0.0000 C   0  0  0  0  0  0  0  0  0  0  0  0
    5.5750   -8.0992    0.0000 C   0  0  0  0  0  0  0  0  0  0  0  0
    6.4084   -6.6751    0.0000 O   0  0  0  0  0  0  0  0  0  0  0  0
   11.3583   -6.7041    0.0000 O   0  0  0  0  0  0  0  0  0  0  0  0
    6.4000   -8.1040    0.0000 C   0  0  0  0  0  0  0  0  0  0  0  0
    6.8167   -7.3920    0.0000 C   0  0  1  0  0  0  0  0  0  0  0  0
    7.6417   -7.3968    0.0000 C   0  0  0  0  0  0  0  0  0  0  0  0
    8.4667   -7.4016    0.0000 C   0  0  0  0  0  0  0  0  0  0  0  0
    9.2917   -7.4065    0.0000 C   0  0  0  0  0  0  0  0  0  0  0  0
   10.1166   -7.4113    0.0000 C   0  0  0  0  0  0  0  0  0  0  0  0
   10.9416   -7.4161    0.0000 C   0  0  1  0  0  0  0  0  0  0  0  0
   11.3499   -8.1330    0.0000 C   0  0  0  0  0  0  0  0  0  0  0  0
   12.1749   -8.1378    0.0000 C   0  0  0  0  0  0  0  0  0  0  0  0
  2  1  1  0  0  0  0
  3  2  1  0  0  0  0
  4  3  1  0  0  0  0
  5  4  1  0  0  0  0
  6  5  1  0  0  0  0
  7  6  1  0  0  0  0
  8  7  1  0  0  0  0
 11  8  2  0  0  0  0
 12  9  1  6  0  0  0
 17 10  1  6  0  0  0
 12 11  1  0  0  0  0
 13 12  1  0  0  0  0
 14 13  3  0  0  0  0
 15 14  1  0  0  0  0
 16 15  3  0  0  0  0
 17 16  1  0  0  0  0
 18 17  1  0  0  0  0
 19 18  2  0  0  0  0
M  END
>  <cdx:fragmentId>
14797

$$$$
