866715.cdx
  Mrv1902 05222410252D          

 24 26  0  0  0  0            999 V2000
    9.4274   -7.3440    0.0000 C   0  0  0  0  0  0  0  0  0  0  0  0
    9.4368   -6.5190    0.0000 C   0  0  0  0  0  0  0  0  0  0  0  0
    8.7271   -6.0984    0.0000 C   0  0  0  0  0  0  0  0  0  0  0  0
    8.0080   -6.5027    0.0000 C   0  0  0  0  0  0  0  0  0  0  0  0
    7.2982   -6.0821    0.0000 C   0  0  0  0  0  0  0  0  0  0  0  0
    6.5791   -6.4864    0.0000 C   0  0  0  0  0  0  0  0  0  0  0  0
    6.5697   -7.3114    0.0000 C   0  0  0  0  0  0  0  0  0  0  0  0
    7.2794   -7.7320    0.0000 C   0  0  0  0  0  0  0  0  0  0  0  0
    7.9986   -7.3277    0.0000 C   0  0  0  0  0  0  0  0  0  0  0  0
    8.7083   -7.7483    0.0000 O   0  0  0  0  0  0  0  0  0  0  0  0
    5.7822   -7.5574    0.0000 O   0  0  0  0  0  0  0  0  0  0  0  0
    5.7975   -6.2226    0.0000 C   0  0  0  0  0  0  0  0  0  0  0  0
    5.3050   -6.8844    0.0000 C   0  0  1  0  0  0  0  0  0  0  0  0
   10.1371   -7.7646    0.0000 C   0  0  0  0  0  0  0  0  0  0  0  0
   10.1277   -8.5895    0.0000 O   0  0  0  0  0  0  0  0  0  0  0  0
   10.8563   -7.3602    0.0000 O   0  0  0  0  0  0  0  0  0  0  0  0
    8.7365   -5.2734    0.0000 O   0  0  0  0  0  0  0  0  0  0  0  0
    7.3077   -5.2572    0.0000 O   0  0  0  0  0  0  0  0  0  0  0  0
    6.5979   -4.8365    0.0000 C   0  0  0  0  0  0  0  0  0  0  0  0
    4.4800   -6.0500    0.0000 C   0  0  0  0  0  0  0  0  0  0  0  0
    4.4800   -6.8750    0.0000 C   0  0  0  0  0  0  0  0  0  0  0  0
    4.4800   -7.7000    0.0000 C   0  0  0  0  0  0  0  0  0  0  0  0
    3.6551   -6.8656    0.0000 O   0  0  0  0  0  0  0  0  0  0  0  0
    4.8925   -7.5989    0.0000 H   0  0  0  0  0  0  0  0  0  0  0  0
  1  2  2  0  0  0  0
  2  3  1  0  0  0  0
  3  4  1  0  0  0  0
  4  5  2  0  0  0  0
  5  6  1  0  0  0  0
  6  7  2  0  0  0  0
  7  8  1  0  0  0  0
  8  9  2  0  0  0  0
  4  9  1  0  0  0  0
  9 10  1  0  0  0  0
  1 10  1  0  0  0  0
 12 13  1  0  0  0  0
 11 13  1  0  0  0  0
 12  6  1  0  0  0  0
 11  7  1  0  0  0  0
 14 15  2  0  0  0  0
 14 16  1  0  0  0  0
  1 14  1  0  0  0  0
  3 17  2  0  0  0  0
 18 19  1  0  0  0  0
  5 18  1  0  0  0  0
 20 21  1  0  0  0  0
 21 22  1  0  0  0  0
 21 23  1  0  0  0  0
 13 21  1  0  0  0  0
 13 24  1  1  0  0  0
M  END
>  <cdx:fragmentId>
3579

$$$$
