866716.cdx
  Mrv1902 05222410252D          

 30 32  0  0  0  0            999 V2000
    7.3346   -6.3272    0.0000 O   0  0  0  0  0  0  0  0  0  0  0  0
    6.1209   -7.0813    0.0000 O   0  0  0  0  0  0  0  0  0  0  0  0
    6.9455   -7.0546    0.0000 C   0  0  2  0  0  0  0  0  0  0  0  0
    7.3809   -7.7554    0.0000 C   0  0  1  0  0  0  0  0  0  0  0  0
    6.9917   -8.4828    0.0000 C   0  0  2  0  0  0  0  0  0  0  0  0
    6.1671   -8.5095    0.0000 C   0  0  1  0  0  0  0  0  0  0  0  0
    5.7317   -7.8087    0.0000 C   0  0  1  0  0  0  0  0  0  0  0  0
    4.9072   -7.8354    0.0000 C   0  0  0  0  0  0  0  0  0  0  0  0
    4.5180   -8.5629    0.0000 O   0  0  0  0  0  0  0  0  0  0  0  0
    5.7779   -9.2369    0.0000 O   0  0  0  0  0  0  0  0  0  0  0  0
    7.4271   -9.1836    0.0000 O   0  0  0  0  0  0  0  0  0  0  0  0
    8.2054   -7.7287    0.0000 O   0  0  0  0  0  0  0  0  0  0  0  0
    3.7623   -5.0897    0.0000 C   0  0  0  0  0  0  0  0  0  0  0  0
    4.4768   -4.6772    0.0000 C   0  0  0  0  0  0  0  0  0  0  0  0
    9.4781   -7.5647    0.0000 C   0  0  0  0  0  0  0  0  0  0  0  0
    8.7636   -7.1522    0.0000 O   0  0  0  0  0  0  0  0  0  0  0  0
    9.4781   -5.9147    0.0000 C   0  0  0  0  0  0  0  0  0  0  0  0
    8.7636   -6.3272    0.0000 C   0  0  0  0  0  0  0  0  0  0  0  0
    8.0491   -5.9147    0.0000 C   0  0  0  0  0  0  0  0  0  0  0  0
    8.0491   -5.0897    0.0000 C   0  0  0  0  0  0  0  0  0  0  0  0
    8.7636   -4.6772    0.0000 C   0  0  0  0  0  0  0  0  0  0  0  0
    9.4781   -5.0897    0.0000 C   0  0  0  0  0  0  0  0  0  0  0  0
   10.2627   -4.8347    0.0000 C   0  0  0  0  0  0  0  0  0  0  0  0
   10.7476   -5.5022    0.0000 C   0  0  0  0  0  0  0  0  0  0  0  0
   10.2627   -6.1696    0.0000 O   0  0  0  0  0  0  0  0  0  0  0  0
    5.1912   -5.0897    0.0000 O   0  0  0  0  0  0  0  0  0  0  0  0
    5.9057   -3.8522    0.0000 O   0  0  0  0  0  0  0  0  0  0  0  0
    7.3346   -4.6772    0.0000 C   0  0  0  0  0  0  0  0  0  0  0  0
    6.6202   -5.0897    0.0000 C   0  0  0  0  0  0  0  0  0  0  0  0
    5.9057   -4.6772    0.0000 C   0  0  0  0  0  0  0  0  0  0  0  0
 26 14  1  0  0  0  0
 14 13  1  0  0  0  0
 28 20  1  0  0  0  0
 18 16  1  0  0  0  0
 16 15  1  0  0  0  0
 19  1  1  0  0  0  0
 25 17  1  0  0  0  0
 22 17  2  0  0  0  0
 18 17  1  0  0  0  0
 19 18  2  0  0  0  0
 20 19  1  0  0  0  0
 21 20  2  0  0  0  0
 22 21  1  0  0  0  0
 23 22  1  0  0  0  0
 24 23  2  0  0  0  0
 25 24  1  0  0  0  0
 30 26  1  0  0  0  0
 30 27  2  0  0  0  0
 29 28  1  0  0  0  0
 30 29  1  0  0  0  0
  2  3  1  0  0  0  0
  3  4  1  0  0  0  0
  4  5  1  0  0  0  0
  5  6  1  0  0  0  0
  6  7  1  0  0  0  0
  2  7  1  0  0  0  0
  8  9  1  0  0  0  0
  7  8  1  1  0  0  0
  6 10  1  6  0  0  0
  5 11  1  1  0  0  0
  4 12  1  6  0  0  0
  3  1  1  1  0  0  0
M  END
>  <cdx:fragmentId>
3689

$$$$
