866713.cdx
  Mrv1902 05222410232D          

 19 20  0  0  0  0            999 V2000
    6.4094   -7.1551    0.0000 N   0  0  0  0  0  0  0  0  0  0  0  0
    6.4956   -7.9756    0.0000 C   0  0  0  0  0  0  0  0  0  0  0  0
    5.7420   -8.3111    0.0000 C   0  0  0  0  0  0  0  0  0  0  0  0
    5.1899   -7.6980    0.0000 C   0  0  0  0  0  0  0  0  0  0  0  0
    5.6024   -6.9835    0.0000 C   0  0  0  0  0  0  0  0  0  0  0  0
    7.2101   -8.3881    0.0000 C   0  0  0  0  0  0  0  0  0  0  0  0
    7.2101   -9.2131    0.0000 O   0  0  0  0  0  0  0  0  0  0  0  0
    7.9246   -7.9756    0.0000 O   0  0  0  0  0  0  0  0  0  0  0  0
    5.2669   -6.2299    0.0000 O   0  0  0  0  0  0  0  0  0  0  0  0
    7.0225   -6.6030    0.0000 C   0  0  0  0  0  0  0  0  0  0  0  0
    6.8510   -5.7961    0.0000 C   0  0  0  0  0  0  0  0  0  0  0  0
    6.0808   -5.5004    0.0000 O   0  0  0  0  0  0  0  0  0  0  0  0
    8.2890   -5.4904    0.0000 O   0  0  0  0  0  0  0  0  0  0  0  0
    7.4921   -5.2769    0.0000 C   0  0  0  0  0  0  0  0  0  0  0  0
    7.4489   -4.4530    0.0000 C   0  0  0  0  0  0  0  0  0  0  0  0
    8.2191   -4.1574    0.0000 C   0  0  0  0  0  0  0  0  0  0  0  0
    8.7383   -4.7985    0.0000 C   0  0  0  0  0  0  0  0  0  0  0  0
    8.6390   -8.3881    0.0000 C   0  0  0  0  0  0  0  0  0  0  0  0
    9.3535   -7.9756    0.0000 C   0  0  0  0  0  0  0  0  0  0  0  0
  1  2  1  0  0  0  0
  2  3  1  0  0  0  0
  3  4  1  0  0  0  0
  4  5  1  0  0  0  0
  1  5  1  0  0  0  0
  6  7  2  0  0  0  0
  6  8  1  0  0  0  0
  2  6  1  0  0  0  0
  5  9  2  0  0  0  0
 10 11  1  0  0  0  0
 11 12  2  0  0  0  0
 13 14  1  0  0  0  0
 14 15  2  0  0  0  0
 15 16  1  0  0  0  0
 16 17  2  0  0  0  0
 13 17  1  0  0  0  0
 11 14  1  0  0  0  0
  1 10  1  0  0  0  0
 18 19  1  0  0  0  0
  8 18  1  0  0  0  0
M  END
>  <cdx:fragmentId>
3429

$$$$
