866714.cdx
  Mrv1902 05222410252D          

 26 28  0  0  0  0            999 V2000
    5.6507   -7.3175    0.0000 C   0  0  0  0  0  0  0  0  0  0  0  0
    5.6507   -6.4925    0.0000 C   0  0  0  0  0  0  0  0  0  0  0  0
    6.3652   -6.0800    0.0000 C   0  0  0  0  0  0  0  0  0  0  0  0
    7.0797   -6.4925    0.0000 C   0  0  0  0  0  0  0  0  0  0  0  0
    7.7942   -6.0800    0.0000 C   0  0  0  0  0  0  0  0  0  0  0  0
    8.5086   -6.4925    0.0000 C   0  0  0  0  0  0  0  0  0  0  0  0
    8.5086   -7.3175    0.0000 C   0  0  0  0  0  0  0  0  0  0  0  0
    7.7942   -7.7300    0.0000 C   0  0  0  0  0  0  0  0  0  0  0  0
    7.0797   -7.3175    0.0000 C   0  0  0  0  0  0  0  0  0  0  0  0
    6.3652   -7.7300    0.0000 O   0  0  0  0  0  0  0  0  0  0  0  0
    9.2932   -7.5725    0.0000 O   0  0  0  0  0  0  0  0  0  0  0  0
    9.2932   -6.2376    0.0000 C   0  0  0  0  0  0  0  0  0  0  0  0
    9.7782   -6.9050    0.0000 C   0  0  2  0  0  0  0  0  0  0  0  0
    4.9363   -7.7300    0.0000 C   0  0  0  0  0  0  0  0  0  0  0  0
    4.9363   -8.5550    0.0000 O   0  0  0  0  0  0  0  0  0  0  0  0
    4.2218   -7.3175    0.0000 O   0  0  0  0  0  0  0  0  0  0  0  0
    6.3652   -5.2550    0.0000 O   0  0  0  0  0  0  0  0  0  0  0  0
    7.7942   -5.2550    0.0000 O   0  0  0  0  0  0  0  0  0  0  0  0
    8.5086   -4.8425    0.0000 C   0  0  0  0  0  0  0  0  0  0  0  0
   10.6032   -6.0800    0.0000 C   0  0  0  0  0  0  0  0  0  0  0  0
   10.6032   -6.9050    0.0000 C   0  0  0  0  0  0  0  0  0  0  0  0
   10.6032   -7.7300    0.0000 C   0  0  0  0  0  0  0  0  0  0  0  0
   11.4282   -6.9050    0.0000 O   0  0  0  0  0  0  0  0  0  0  0  0
    3.5073   -7.7300    0.0000 C   0  0  0  0  0  0  0  0  0  0  0  0
    2.7929   -7.3175    0.0000 C   0  0  0  0  0  0  0  0  0  0  0  0
   10.1907   -7.6195    0.0000 H   0  0  0  0  0  0  0  0  0  0  0  0
  1  2  2  0  0  0  0
  2  3  1  0  0  0  0
  3  4  1  0  0  0  0
  4  5  2  0  0  0  0
  5  6  1  0  0  0  0
  6  7  2  0  0  0  0
  7  8  1  0  0  0  0
  8  9  2  0  0  0  0
  4  9  1  0  0  0  0
  9 10  1  0  0  0  0
  1 10  1  0  0  0  0
 12 13  1  0  0  0  0
 11 13  1  0  0  0  0
 12  6  1  0  0  0  0
 11  7  1  0  0  0  0
 14 15  2  0  0  0  0
 14 16  1  0  0  0  0
  1 14  1  0  0  0  0
  3 17  2  0  0  0  0
 18 19  1  0  0  0  0
  5 18  1  0  0  0  0
 20 21  1  0  0  0  0
 21 22  1  0  0  0  0
 21 23  1  0  0  0  0
 13 21  1  0  0  0  0
 24 25  1  0  0  0  0
 16 24  1  0  0  0  0
 13 26  1  1  0  0  0
M  END
>  <cdx:fragmentId>
3493

$$$$
