867.cdx
  Mrv1902 05222410262D          

  7  6  0  0  0  0            999 V2000
    5.8666   -3.3077    0.0000 C   0  0  0  0  0  0  0  0  0  0  0  0
    5.1521   -3.7202    0.0000 C   0  0  0  0  0  0  0  0  0  0  0  0
    4.4377   -3.3077    0.0000 C   0  0  0  0  0  0  0  0  0  0  0  0
    5.8666   -2.4827    0.0000 O   0  0  0  0  0  0  0  0  0  0  0  0
    6.5811   -3.7202    0.0000 O   0  0  0  0  0  0  0  0  0  0  0  0
    4.4377   -2.4827    0.0000 O   0  0  0  0  0  0  0  0  0  0  0  0
    3.7232   -3.7202    0.0000 O   0  0  0  0  0  0  0  0  0  0  0  0
  1  2  1  0  0  0  0
  2  3  1  0  0  0  0
  1  4  2  0  0  0  0
  1  5  1  0  0  0  0
  3  6  2  0  0  0  0
  3  7  1  0  0  0  0
M  END
>  <cdx:groupId>
22

>  <cdx:fragmentId>
5

$$$$
