86748.cdx
  Mrv1902 05222410232D          

 11 10  0  0  0  0            999 V2000
    6.1567   -4.6544    0.0000 C   0  0  0  0  0  0  0  0  0  0  0  0
    9.4271   -4.5438    0.0000 C   0  0  0  0  0  0  0  0  0  0  0  0
    6.9817   -4.6544    0.0000 O   0  0  0  0  0  0  0  0  0  0  0  0
   10.1415   -5.7813    0.0000 C   0  0  0  0  0  0  0  0  0  0  0  0
    9.4271   -5.3688    0.0000 C   0  0  0  0  0  0  0  0  0  0  0  0
    8.7126   -5.7813    0.0000 C   0  0  0  0  0  0  0  0  0  0  0  0
    7.9981   -5.3688    0.0000 C   0  0  0  0  0  0  0  0  0  0  0  0
    7.2836   -5.7813    0.0000 C   0  0  0  0  0  0  0  0  0  0  0  0
    6.5692   -5.3688    0.0000 C   0  0  0  0  0  0  0  0  0  0  0  0
    5.8547   -5.7813    0.0000 C   0  0  0  0  0  0  0  0  0  0  0  0
    5.1402   -5.3688    0.0000 C   0  0  0  0  0  0  0  0  0  0  0  0
  9  1  1  0  0  0  0
  5  2  1  0  0  0  0
  9  3  1  0  0  0  0
  5  4  1  0  0  0  0
  6  5  1  0  0  0  0
  7  6  1  0  0  0  0
  8  7  1  0  0  0  0
  9  8  1  0  0  0  0
 10  9  1  0  0  0  0
 11 10  2  0  0  0  0
M  END
>  <cdx:groupId>
34

>  <cdx:fragmentId>
5

$$$$
