867459.cdx
  Mrv1902 05222410192D          

 44 48  0  0  0  0            999 V2000
    7.6987   -5.9109    0.0000 C   0  0  0  0  0  0  0  0  0  0  0  0
    8.0074   -5.1458    0.0000 C   0  0  0  0  0  0  0  0  0  0  0  0
    7.6847   -4.3866    0.0000 C   0  0  1  0  0  0  0  0  0  0  0  0
    6.9196   -4.0779    0.0000 C   0  0  0  0  0  0  0  0  0  0  0  0
    6.1603   -4.4006    0.0000 C   0  0  0  0  0  0  0  0  0  0  0  0
    5.8516   -5.1656    0.0000 C   0  0  0  0  0  0  0  0  0  0  0  0
    6.1743   -5.9249    0.0000 C   0  0  1  0  0  0  0  0  0  0  0  0
    6.9394   -6.2336    0.0000 C   0  0  0  0  0  0  0  0  0  0  0  0
    5.3706   -6.1109    0.0000 C   0  0  0  0  0  0  0  0  0  0  0  0
    8.4884   -4.2006    0.0000 C   0  0  0  0  0  0  0  0  0  0  0  0
    4.8076   -5.5078    0.0000 C   0  0  0  0  0  0  0  0  0  0  0  0
    4.0039   -5.6937    0.0000 C   0  0  0  0  0  0  0  0  0  0  0  0
    3.7630   -6.4828    0.0000 C   0  0  0  0  0  0  0  0  0  0  0  0
    4.3259   -7.0859    0.0000 C   0  0  0  0  0  0  0  0  0  0  0  0
    5.1297   -6.8999    0.0000 C   0  0  0  0  0  0  0  0  0  0  0  0
    9.0514   -4.8037    0.0000 C   0  0  0  0  0  0  0  0  0  0  0  0
    9.8551   -4.6178    0.0000 C   0  0  0  0  0  0  0  0  0  0  0  0
   10.0960   -3.8287    0.0000 C   0  0  0  0  0  0  0  0  0  0  0  0
    9.5331   -3.2256    0.0000 C   0  0  0  0  0  0  0  0  0  0  0  0
    8.7293   -3.4116    0.0000 C   0  0  0  0  0  0  0  0  0  0  0  0
    8.4877   -6.1518    0.0000 O   0  0  0  0  0  0  0  0  0  0  0  0
    9.0908   -5.5888    0.0000 C   0  0  0  0  0  0  0  0  0  0  0  0
    5.3358   -4.3722    0.0000 O   0  0  0  0  0  0  0  0  0  0  0  0
    4.8990   -5.0720    0.0000 C   0  0  0  0  0  0  0  0  0  0  0  0
    7.5949   -3.6040    0.0000 C   0  0  0  0  0  0  0  0  0  0  0  0
    7.3529   -2.8153    0.0000 C   0  0  0  0  0  0  0  0  0  0  0  0
    6.5280   -2.8153    0.0000 C   0  0  0  0  0  0  0  0  0  0  0  0
    6.2602   -3.6040    0.0000 C   0  0  0  0  0  0  0  0  0  0  0  0
    5.4746   -3.8558    0.0000 O   0  0  0  0  0  0  0  0  0  0  0  0
    8.3752   -3.8718    0.0000 O   0  0  0  0  0  0  0  0  0  0  0  0
    6.0475   -2.1447    0.0000 O   0  0  0  0  0  0  0  0  0  0  0  0
    7.8433   -2.1519    0.0000 O   0  0  0  0  0  0  0  0  0  0  0  0
    7.5140   -1.3954    0.0000 C   0  0  0  0  0  0  0  0  0  0  0  0
    6.3880   -1.3932    0.0000 C   0  0  0  0  0  0  0  0  0  0  0  0
    6.2641   -6.7075    0.0000 C   0  0  0  0  0  0  0  0  0  0  0  0
    6.5061   -7.4962    0.0000 C   0  0  0  0  0  0  0  0  0  0  0  0
    7.3310   -7.4962    0.0000 C   0  0  0  0  0  0  0  0  0  0  0  0
    7.5988   -6.7075    0.0000 C   0  0  0  0  0  0  0  0  0  0  0  0
    7.8115   -8.1668    0.0000 O   0  0  0  0  0  0  0  0  0  0  0  0
    6.0157   -8.1596    0.0000 O   0  0  0  0  0  0  0  0  0  0  0  0
    6.3450   -8.9160    0.0000 C   0  0  0  0  0  0  0  0  0  0  0  0
    7.4710   -8.9183    0.0000 C   0  0  0  0  0  0  0  0  0  0  0  0
    8.3844   -6.4557    0.0000 O   0  0  0  0  0  0  0  0  0  0  0  0
    5.4838   -6.4397    0.0000 O   0  0  0  0  0  0  0  0  0  0  0  0
  1  2  2  0  0  0  0
  2  3  1  0  0  0  0
  3  4  1  0  0  0  0
  4  5  1  0  0  0  0
  5  6  2  0  0  0  0
  6  7  1  0  0  0  0
  7  8  1  0  0  0  0
  8  1  1  0  0  0  0
  7  9  1  1  0  0  0
  3 10  1  1  0  0  0
  9 11  2  0  0  0  0
 11 12  1  0  0  0  0
 12 13  2  0  0  0  0
 13 14  1  0  0  0  0
 14 15  2  0  0  0  0
 15  9  1  0  0  0  0
 10 16  2  0  0  0  0
 16 17  1  0  0  0  0
 17 18  2  0  0  0  0
 18 19  1  0  0  0  0
 19 20  2  0  0  0  0
 20 10  1  0  0  0  0
  1 21  1  0  0  0  0
 21 22  1  0  0  0  0
  5 23  1  0  0  0  0
 23 24  1  0  0  0  0
  4 25  1  0  0  0  0
 25 26  1  0  0  0  0
 26 27  2  0  0  0  0
 27 28  1  0  0  0  0
 28  4  1  0  0  0  0
 28 29  2  0  0  0  0
 25 30  2  0  0  0  0
 27 31  1  0  0  0  0
 26 32  1  0  0  0  0
 32 33  1  0  0  0  0
 31 34  1  0  0  0  0
  8 35  1  0  0  0  0
 35 36  1  0  0  0  0
 36 37  2  0  0  0  0
 37 38  1  0  0  0  0
 38  8  1  0  0  0  0
 37 39  1  0  0  0  0
 36 40  1  0  0  0  0
 40 41  1  0  0  0  0
 39 42  1  0  0  0  0
 38 43  2  0  0  0  0
 35 44  2  0  0  0  0
M  END
>  <cdx:fragmentId>
25

$$$$
