867940.cdx
  Mrv1902 05222410212D          

 29 33  0  0  0  0            999 V2000
    9.5266   -6.3204    0.0000 H   0  0  0  0  0  0  0  0  0  0  0  0
    8.0961   -4.6717    0.0000 O   0  0  0  0  0  0  0  0  0  0  0  0
    9.5258   -5.4954    0.0000 O   0  0  0  0  0  0  0  0  0  0  0  0
    7.3851   -8.3849    0.0000 O   0  0  0  0  0  0  0  0  0  0  0  0
    9.9392   -6.4305    0.0000 C   0  0  0  0  0  0  0  0  0  0  0  0
   10.3523   -7.1446    0.0000 C   0  0  0  0  0  0  0  0  0  0  0  0
    7.7561   -6.0132    0.0000 O   0  0  0  0  0  0  0  0  0  0  0  0
    7.7567   -6.6320    0.0000 C   0  0  0  0  0  0  0  0  0  0  0  0
    8.0992   -7.9717    0.0000 C   0  0  1  0  0  0  0  0  0  0  0  0
    8.8140   -8.3836    0.0000 C   0  0  0  0  0  0  0  0  0  0  0  0
    9.5281   -7.9704    0.0000 C   0  0  0  0  0  0  0  0  0  0  0  0
    9.5273   -7.1454    0.0000 C   0  0  0  0  0  0  0  0  0  0  0  0
    8.8125   -6.7336    0.0000 C   0  0  1  0  0  0  0  0  0  0  0  0
    8.8117   -5.9086    0.0000 C   0  0  1  0  0  0  0  0  0  0  0  0
    8.0968   -5.4967    0.0000 C   0  0  1  0  0  0  0  0  0  0  0  0
    7.3828   -5.9099    0.0000 C   0  0  1  0  0  0  0  0  0  0  0  0
    7.3835   -6.7349    0.0000 C   0  0  2  0  0  0  0  0  0  0  0  0
    8.0984   -7.1467    0.0000 C   0  0  1  0  0  0  0  0  0  0  0  0
    7.2958   -5.0895    0.0000 C   0  0  0  0  0  0  0  0  0  0  0  0
    6.4886   -4.9188    0.0000 C   0  0  0  0  0  0  0  0  0  0  0  0
    6.0768   -5.6336    0.0000 C   0  0  1  0  0  0  0  0  0  0  0  0
    6.6294   -6.2462    0.0000 C   0  0  1  0  0  0  0  0  0  0  0  0
    6.6695   -7.1481    0.0000 C   0  0  0  0  0  0  0  0  0  0  0  0
    5.9546   -6.7363    0.0000 C   0  0  0  0  0  0  0  0  0  0  0  0
    6.4586   -7.0533    0.0000 O   0  0  0  0  0  0  0  0  0  0  0  0
    5.2928   -5.3768    0.0000 H   0  0  0  0  0  0  0  0  0  0  0  0
    6.1524   -4.1654    0.0000 C   0  0  0  0  0  0  0  0  0  0  0  0
    7.7083   -4.3750    0.0000 O   0  0  0  0  0  0  0  0  0  0  0  0
    7.3835   -7.5599    0.0000 H   0  0  0  0  0  0  0  0  0  0  0  0
 13  1  1  1  0  0  0
 15  2  1  6  0  0  0
 14  3  1  1  0  0  0
  9  4  1  6  0  0  0
 12  5  1  0  0  0  0
 12  6  1  0  0  0  0
 17 16  1  0  0  0  0
 18 13  1  0  0  0  0
 15  7  1  0  0  0  0
 18  8  1  6  0  0  0
 18  9  1  0  0  0  0
  8  7  1  0  0  0  0
 10  9  1  0  0  0  0
 11 10  1  0  0  0  0
 12 11  1  0  0  0  0
 13 12  1  0  0  0  0
 14 13  1  0  0  0  0
 15 14  1  0  0  0  0
 16 15  1  0  0  0  0
 18 17  1  0  0  0  0
 16 19  1  1  0  0  0
 19 20  1  0  0  0  0
 20 21  1  0  0  0  0
 21 22  1  0  0  0  0
 22 16  1  0  0  0  0
 17 23  1  0  0  0  0
 23 24  1  0  0  0  0
 24 21  1  0  0  0  0
 22 25  1  6  0  0  0
 21 26  1  6  0  0  0
 20 27  2  0  0  0  0
 19 28  2  0  0  0  0
 17 29  1  1  0  0  0
M  END
>  <cdx:fragmentId>
5

$$$$
