8686.cdx
  Mrv1902 05222410272D          

 33 36  0  0  0  0            999 V2000
    4.2652   -7.6593    0.0000 O   0  0  0  0  0  0  0  0  0  0  0  0
    3.8527   -8.3737    0.0000 C   0  0  1  0  0  0  0  0  0  0  0  0
    4.2652   -9.0882    0.0000 C   0  0  2  0  0  0  0  0  0  0  0  0
    5.0902   -9.0882    0.0000 C   0  0  1  0  0  0  0  0  0  0  0  0
    5.5027   -8.3737    0.0000 C   0  0  2  0  0  0  0  0  0  0  0  0
    5.0902   -7.6593    0.0000 C   0  0  2  0  0  0  0  0  0  0  0  0
    3.0277   -8.3737    0.0000 C   0  0  0  0  0  0  0  0  0  0  0  0
    5.5027   -6.9448    0.0000 O   0  0  0  0  0  0  0  0  0  0  0  0
    5.5027   -9.8027    0.0000 O   0  0  0  0  0  0  0  0  0  0  0  0
    6.3277   -8.3737    0.0000 O   0  0  0  0  0  0  0  0  0  0  0  0
    4.0517   -9.8851    0.0000 O   0  0  0  0  0  0  0  0  0  0  0  0
    2.6152   -9.0882    0.0000 O   0  0  0  0  0  0  0  0  0  0  0  0
    6.3277   -6.9448    0.0000 C   0  0  0  0  0  0  0  0  0  0  0  0
    6.7402   -6.2303    0.0000 C   0  0  0  0  0  0  0  0  0  0  0  0
    7.5607   -6.1441    0.0000 C   0  0  1  0  0  0  0  0  0  0  0  0
    7.7323   -5.3371    0.0000 C   0  0  0  0  0  0  0  0  0  0  0  0
    7.0178   -4.9246    0.0000 C   0  0  0  0  0  0  0  0  0  0  0  0
    6.4047   -5.4767    0.0000 C   0  0  0  0  0  0  0  0  0  0  0  0
    8.0847   -6.7813    0.0000 C   0  0  2  0  0  0  0  0  0  0  0  0
    8.9096   -6.7813    0.0000 C   0  0  1  0  0  0  0  0  0  0  0  0
    9.4143   -6.1441    0.0000 C   0  0  0  0  0  0  0  0  0  0  0  0
    9.2187   -5.3371    0.0000 C   0  0  0  0  0  0  0  0  0  0  0  0
    8.4701   -4.9903    0.0000 C   0  0  0  0  0  0  0  0  0  0  0  0
    7.8298   -7.5659    0.0000 O   0  0  0  0  0  0  0  0  0  0  0  0
    8.4972   -8.0507    0.0000 C   0  0  0  0  0  0  0  0  0  0  0  0
    9.1645   -7.5659    0.0000 C   0  0  1  0  0  0  0  0  0  0  0  0
    6.9147   -4.0996    0.0000 O   0  0  0  0  0  0  0  0  0  0  0  0
    8.4701   -4.1653    0.0000 C   0  0  0  0  0  0  0  0  0  0  0  0
    8.4972   -8.8757    0.0000 O   0  0  0  0  0  0  0  0  0  0  0  0
    6.9774   -6.7275    0.0000 H   0  0  0  0  0  0  0  0  0  0  0  0
    9.7346   -6.7813    0.0000 H   0  0  0  0  0  0  0  0  0  0  0  0
    9.9614   -7.7794    0.0000 C   0  0  0  0  0  0  0  0  0  0  0  0
    7.3702   -7.1938    0.0000 H   0  0  0  0  0  0  0  0  0  0  0  0
  1  2  1  0  0  0  0
  2  3  1  0  0  0  0
  3  4  1  0  0  0  0
  4  5  1  0  0  0  0
  5  6  1  0  0  0  0
  6  1  1  0  0  0  0
  2  7  1  1  0  0  0
  6  8  1  1  0  0  0
  4  9  1  1  0  0  0
  5 10  1  6  0  0  0
  3 11  1  6  0  0  0
  7 12  1  0  0  0  0
  8 13  1  0  0  0  0
 13 14  1  0  0  0  0
 14 15  1  0  0  0  0
 15 16  1  0  0  0  0
 16 17  1  0  0  0  0
 17 18  1  0  0  0  0
 18 14  2  0  0  0  0
 15 19  1  0  0  0  0
 19 20  1  0  0  0  0
 20 21  1  0  0  0  0
 21 22  1  0  0  0  0
 22 23  1  0  0  0  0
 23 16  2  0  0  0  0
 19 24  1  0  0  0  0
 24 25  1  0  0  0  0
 25 26  1  0  0  0  0
 26 20  1  0  0  0  0
 17 27  2  0  0  0  0
 23 28  1  0  0  0  0
 25 29  2  0  0  0  0
 15 30  1  6  0  0  0
 20 31  1  6  0  0  0
 26 32  1  6  0  0  0
 19 33  1  1  0  0  0
M  END
>  <cdx:fragmentId>
5

$$$$
