86948.cdx
  Mrv1902 05222410222D          

 23 25  0  0  0  0            999 V2000
    9.9592   -9.2975    0.0000 C   0  0  0  0  0  0  0  0  0  0  0  0
    9.2447   -8.8850    0.0000 C   0  0  0  0  0  0  0  0  0  0  0  0
    9.2447   -8.0600    0.0000 C   0  0  0  0  0  0  0  0  0  0  0  0
    9.9592   -7.6475    0.0000 C   0  0  0  0  0  0  0  0  0  0  0  0
   10.6737   -8.8850    0.0000 C   0  0  0  0  0  0  0  0  0  0  0  0
   10.6737   -8.0600    0.0000 C   0  0  0  0  0  0  0  0  0  0  0  0
   11.4583   -7.8050    0.0000 O   0  0  0  0  0  0  0  0  0  0  0  0
   11.9432   -8.4725    0.0000 C   0  0  0  0  0  0  0  0  0  0  0  0
   11.4583   -9.1399    0.0000 O   0  0  0  0  0  0  0  0  0  0  0  0
    2.8145   -7.6475    0.0000 C   0  0  0  0  0  0  0  0  0  0  0  0
    2.1000   -8.0600    0.0000 C   0  0  0  0  0  0  0  0  0  0  0  0
    2.1000   -8.8850    0.0000 C   0  0  0  0  0  0  0  0  0  0  0  0
    2.8145   -9.2975    0.0000 C   0  0  0  0  0  0  0  0  0  0  0  0
    3.5290   -8.8850    0.0000 C   0  0  0  0  0  0  0  0  0  0  0  0
    3.5290   -8.0600    0.0000 N   0  0  0  0  0  0  0  0  0  0  0  0
    4.2434   -6.8225    0.0000 O   0  0  0  0  0  0  0  0  0  0  0  0
    8.5303   -7.6475    0.0000 C   0  0  0  0  0  0  0  0  0  0  0  0
    7.8158   -8.0600    0.0000 C   0  0  0  0  0  0  0  0  0  0  0  0
    7.1013   -7.6475    0.0000 C   0  0  0  0  0  0  0  0  0  0  0  0
    6.3868   -8.0600    0.0000 C   0  0  0  0  0  0  0  0  0  0  0  0
    5.6724   -7.6475    0.0000 C   0  0  0  0  0  0  0  0  0  0  0  0
    4.9579   -8.0600    0.0000 C   0  0  0  0  0  0  0  0  0  0  0  0
    4.2434   -7.6475    0.0000 C   0  0  0  0  0  0  0  0  0  0  0  0
 17  3  1  0  0  0  0
  4  6  2  0  0  0  0
  1  5  2  0  0  0  0
  2  1  1  0  0  0  0
  3  2  2  0  0  0  0
  4  3  1  0  0  0  0
  9  5  1  0  0  0  0
  6  5  1  0  0  0  0
  7  6  1  0  0  0  0
  8  7  1  0  0  0  0
  9  8  1  0  0  0  0
 23 15  1  0  0  0  0
 15 10  1  0  0  0  0
 11 10  1  0  0  0  0
 12 11  1  0  0  0  0
 13 12  1  0  0  0  0
 14 13  1  0  0  0  0
 15 14  1  0  0  0  0
 23 16  2  0  0  0  0
 18 17  1  0  0  0  0
 19 18  1  0  0  0  0
 20 19  2  0  0  0  0
 21 20  1  0  0  0  0
 22 21  2  0  0  0  0
 23 22  1  0  0  0  0
M  END
>  <cdx:groupId>
40491

>  <cdx:fragmentId>
40423

$$$$
