86957.cdx
  Mrv1902 05222410252D          

 12 12  0  0  0  0            999 V2000
    6.2717   -4.5523    0.0000 C   0  0  0  0  0  0  0  0  0  0  0  0
    5.5572   -4.9648    0.0000 C   0  0  0  0  0  0  0  0  0  0  0  0
    5.5572   -5.7898    0.0000 O   0  0  0  0  0  0  0  0  0  0  0  0
    4.8427   -4.5523    0.0000 C   0  0  0  0  0  0  0  0  0  0  0  0
    4.1283   -4.9648    0.0000 C   0  0  0  0  0  0  0  0  0  0  0  0
    3.4138   -4.5523    0.0000 C   0  0  0  0  0  0  0  0  0  0  0  0
    3.4138   -3.7273    0.0000 C   0  0  0  0  0  0  0  0  0  0  0  0
    4.1283   -3.3148    0.0000 C   0  0  0  0  0  0  0  0  0  0  0  0
    4.8427   -3.7273    0.0000 C   0  0  0  0  0  0  0  0  0  0  0  0
    6.2717   -3.7273    0.0000 O   0  0  0  0  0  0  0  0  0  0  0  0
    6.9862   -4.9648    0.0000 O   0  0  0  0  0  0  0  0  0  0  0  0
    2.6993   -4.9648    0.0000 O   0  0  0  0  0  0  0  0  0  0  0  0
  1  2  1  0  0  0  0
  2  3  1  0  0  0  0
  2  4  1  0  0  0  0
  4  5  1  0  0  0  0
  5  6  2  0  0  0  0
  6  7  1  0  0  0  0
  7  8  2  0  0  0  0
  8  9  1  0  0  0  0
  4  9  2  0  0  0  0
  1 10  2  0  0  0  0
  1 11  1  0  0  0  0
  6 12  1  0  0  0  0
M  END
>  <cdx:groupId>
38

>  <cdx:fragmentId>
5

$$$$
