869658.cdx
  Mrv1902 05222410202D          

 36 40  0  0  0  0            999 V2000
    8.5624   -4.9885    0.0000 C   0  0  0  0  0  0  0  0  0  0  0  0
    9.2769   -4.5760    0.0000 C   0  0  0  0  0  0  0  0  0  0  0  0
    9.9914   -4.9885    0.0000 C   0  0  0  0  0  0  0  0  0  0  0  0
    9.9914   -5.8135    0.0000 C   0  0  0  0  0  0  0  0  0  0  0  0
    9.2769   -6.2260    0.0000 C   0  0  2  0  0  0  0  0  0  0  0  0
    9.2769   -7.0510    0.0000 C   0  0  0  0  0  0  0  0  0  0  0  0
    8.5624   -7.4635    0.0000 C   0  0  0  0  0  0  0  0  0  0  0  0
    7.8480   -7.0510    0.0000 C   0  0  1  0  0  0  0  0  0  0  0  0
    7.1335   -7.4635    0.0000 C   0  0  2  0  0  0  0  0  0  0  0  0
    7.1335   -8.2885    0.0000 C   0  0  0  0  0  0  0  0  0  0  0  0
    6.4190   -8.7010    0.0000 C   0  0  0  0  0  0  0  0  0  0  0  0
    5.7046   -8.2885    0.0000 C   0  0  1  0  0  0  0  0  0  0  0  0
    4.9901   -8.7010    0.0000 C   0  0  0  0  0  0  0  0  0  0  0  0
    4.2756   -8.2885    0.0000 C   0  0  1  0  0  0  0  0  0  0  0  0
    4.2756   -7.4635    0.0000 C   0  0  0  0  0  0  0  0  0  0  0  0
    4.9901   -7.0510    0.0000 C   0  0  0  0  0  0  0  0  0  0  0  0
    5.7046   -7.4635    0.0000 C   0  0  2  0  0  0  0  0  0  0  0  0
    6.4190   -7.0510    0.0000 C   0  0  1  0  0  0  0  0  0  0  0  0
    6.4190   -6.2260    0.0000 C   0  0  0  0  0  0  0  0  0  0  0  0
    7.1335   -5.8135    0.0000 C   0  0  0  0  0  0  0  0  0  0  0  0
    7.8480   -6.2260    0.0000 C   0  0  0  0  0  0  0  0  0  0  0  0
    8.5624   -5.8135    0.0000 C   0  0  2  0  0  0  0  0  0  0  0  0
    9.9914   -6.6385    0.0000 C   0  0  0  0  0  0  0  0  0  0  0  0
    9.9914   -7.4635    0.0000 O   0  0  0  0  0  0  0  0  0  0  0  0
   10.7059   -6.2260    0.0000 O   0  0  0  0  0  0  0  0  0  0  0  0
    5.4026   -9.4155    0.0000 C   0  0  0  0  0  0  0  0  0  0  0  0
    4.5776   -9.4155    0.0000 C   0  0  0  0  0  0  0  0  0  0  0  0
    8.8644   -3.8615    0.0000 C   0  0  0  0  0  0  0  0  0  0  0  0
    9.6894   -3.8615    0.0000 C   0  0  0  0  0  0  0  0  0  0  0  0
    3.5611   -8.7010    0.0000 O   0  0  0  0  0  0  0  0  0  0  0  0
    5.7046   -9.1135    0.0000 H   0  0  0  0  0  0  0  0  0  0  0  0
    8.5624   -6.6385    0.0000 H   0  0  0  0  0  0  0  0  0  0  0  0
    5.7046   -6.6385    0.0000 C   0  0  0  0  0  0  0  0  0  0  0  0
    7.1335   -6.6385    0.0000 C   0  0  0  0  0  0  0  0  0  0  0  0
    7.8480   -7.8760    0.0000 C   0  0  0  0  0  0  0  0  0  0  0  0
    6.4190   -7.8760    0.0000 H   0  0  0  0  0  0  0  0  0  0  0  0
  1  2  1  0  0  0  0
  2  3  1  0  0  0  0
  3  4  1  0  0  0  0
  4  5  1  0  0  0  0
  5  6  1  0  0  0  0
  6  7  1  0  0  0  0
  7  8  1  0  0  0  0
  8  9  1  0  0  0  0
  9 10  1  0  0  0  0
 10 11  1  0  0  0  0
 11 12  1  0  0  0  0
 12 13  1  0  0  0  0
 13 14  1  0  0  0  0
 14 15  1  0  0  0  0
 15 16  1  0  0  0  0
 16 17  1  0  0  0  0
 12 17  1  0  0  0  0
 17 18  1  0  0  0  0
  9 18  1  0  0  0  0
 18 19  1  0  0  0  0
 19 20  1  0  0  0  0
 20 21  2  0  0  0  0
  8 21  1  0  0  0  0
 21 22  1  0  0  0  0
  5 22  1  0  0  0  0
  1 22  1  0  0  0  0
 23 24  2  0  0  0  0
 23 25  1  0  0  0  0
  5 23  1  1  0  0  0
 13 26  1  0  0  0  0
 13 27  1  0  0  0  0
  2 28  1  0  0  0  0
  2 29  1  0  0  0  0
 14 30  1  6  0  0  0
 12 31  1  6  0  0  0
 22 32  1  1  0  0  0
 17 33  1  1  0  0  0
  9 34  1  1  0  0  0
  8 35  1  6  0  0  0
 18 36  1  6  0  0  0
M  END
>  <cdx:fragmentId>
82752

$$$$
