8697.cdx
  Mrv1902 05222410262D          

 31 34  0  0  0  0            999 V2000
    2.8083   -6.3113    0.0000 C   0  0  0  0  0  0  0  0  0  0  0  0
    2.8083   -7.1362    0.0000 C   0  0  0  0  0  0  0  0  0  0  0  0
    3.5227   -7.5488    0.0000 C   0  0  0  0  0  0  0  0  0  0  0  0
    4.2372   -7.1362    0.0000 C   0  0  0  0  0  0  0  0  0  0  0  0
    4.2372   -6.3113    0.0000 C   0  0  0  0  0  0  0  0  0  0  0  0
    3.5227   -5.8988    0.0000 C   0  0  0  0  0  0  0  0  0  0  0  0
    4.9517   -7.5488    0.0000 C   0  0  0  0  0  0  0  0  0  0  0  0
    5.6662   -7.1362    0.0000 C   0  0  0  0  0  0  0  0  0  0  0  0
    5.6662   -6.3113    0.0000 C   0  0  0  0  0  0  0  0  0  0  0  0
    4.9517   -5.8988    0.0000 O   0  0  0  0  0  0  0  0  0  0  0  0
    6.3806   -5.8988    0.0000 C   0  0  0  0  0  0  0  0  0  0  0  0
    6.3806   -5.0737    0.0000 C   0  0  0  0  0  0  0  0  0  0  0  0
    7.0951   -6.3113    0.0000 C   0  0  0  0  0  0  0  0  0  0  0  0
    7.8096   -5.8988    0.0000 C   0  0  0  0  0  0  0  0  0  0  0  0
    7.8096   -5.0737    0.0000 C   0  0  0  0  0  0  0  0  0  0  0  0
    7.0951   -4.6612    0.0000 C   0  0  0  0  0  0  0  0  0  0  0  0
    9.2385   -5.8988    0.0000 O   0  0  0  0  0  0  0  0  0  0  0  0
    9.2385   -5.0737    0.0000 C   0  0  1  0  0  0  0  0  0  0  0  0
    8.5240   -4.6612    0.0000 O   0  0  0  0  0  0  0  0  0  0  0  0
    9.9530   -6.3113    0.0000 C   0  0  1  0  0  0  0  0  0  0  0  0
   10.6675   -5.8988    0.0000 C   0  0  0  0  0  0  0  0  0  0  0  0
   10.6675   -5.0737    0.0000 C   0  0  1  0  0  0  0  0  0  0  0  0
    9.9530   -4.6612    0.0000 C   0  0  0  0  0  0  0  0  0  0  0  0
    9.9530   -7.1362    0.0000 C   0  0  0  0  0  0  0  0  0  0  0  0
   10.6675   -7.5487    0.0000 O   0  0  0  0  0  0  0  0  0  0  0  0
   11.3819   -6.3113    0.0000 O   0  0  0  0  0  0  0  0  0  0  0  0
   11.3819   -4.6612    0.0000 O   0  0  0  0  0  0  0  0  0  0  0  0
    2.0938   -5.8988    0.0000 O   0  0  0  0  0  0  0  0  0  0  0  0
    3.5227   -8.3737    0.0000 O   0  0  0  0  0  0  0  0  0  0  0  0
    4.9517   -8.3737    0.0000 O   0  0  0  0  0  0  0  0  0  0  0  0
    9.9530   -3.8363    0.0000 O   0  0  0  0  0  0  0  0  0  0  0  0
  1  2  1  0  0  0  0
  2  3  2  0  0  0  0
  3  4  1  0  0  0  0
  4  5  2  0  0  0  0
  5  6  1  0  0  0  0
  6  1  2  0  0  0  0
  4  7  1  0  0  0  0
  7  8  1  0  0  0  0
  8  9  1  0  0  0  0
  9 10  1  0  0  0  0
 10  5  1  0  0  0  0
  9 11  1  0  0  0  0
 11 12  1  0  0  0  0
 11 13  2  0  0  0  0
 13 14  1  0  0  0  0
 14 15  2  0  0  0  0
 15 16  1  0  0  0  0
 16 12  2  0  0  0  0
 17 18  1  0  0  0  0
 18 19  1  1  0  0  0
 19 15  1  0  0  0  0
 17 20  1  0  0  0  0
 20 21  1  0  0  0  0
 21 22  1  0  0  0  0
 22 23  1  0  0  0  0
 23 18  1  0  0  0  0
 20 24  1  1  0  0  0
 24 25  1  0  0  0  0
 26 21  1  0  0  0  0
 22 27  1  1  0  0  0
  1 28  1  0  0  0  0
  3 29  1  0  0  0  0
  7 30  2  0  0  0  0
 23 31  1  0  0  0  0
M  END
>  <cdx:fragmentId>
5

$$$$
