870649.cdx
  Mrv1902 05222410262D          

 15 15  0  0  0  0            999 V2000
    9.0082   -7.3532    0.0000 N   0  0  0  0  0  0  0  0  0  0  0  0
    9.7226   -6.9407    0.0000 C   0  0  0  0  0  0  0  0  0  0  0  0
    9.7226   -6.1157    0.0000 S   0  0  0  0  0  0  0  0  0  0  0  0
   10.4371   -7.3532    0.0000 N   0  0  0  0  0  0  0  0  0  0  0  0
    8.2937   -6.9407    0.0000 N   0  0  0  0  0  0  0  0  0  0  0  0
    7.5792   -7.3532    0.0000 C   0  0  0  0  0  0  0  0  0  0  0  0
    6.8648   -6.9407    0.0000 C   0  0  0  0  0  0  0  0  0  0  0  0
    6.1503   -7.3532    0.0000 C   0  0  0  0  0  0  0  0  0  0  0  0
    5.4358   -6.9407    0.0000 C   0  0  0  0  0  0  0  0  0  0  0  0
    5.4358   -6.1157    0.0000 C   0  0  0  0  0  0  0  0  0  0  0  0
    6.1503   -5.7032    0.0000 C   0  0  0  0  0  0  0  0  0  0  0  0
    6.8648   -6.1157    0.0000 C   0  0  0  0  0  0  0  0  0  0  0  0
    4.7213   -5.7032    0.0000 O   0  0  0  0  0  0  0  0  0  0  0  0
    4.0069   -6.1157    0.0000 C   0  0  0  0  0  0  0  0  0  0  0  0
    4.7213   -7.3532    0.0000 O   0  0  0  0  0  0  0  0  0  0  0  0
  1  2  1  0  0  0  0
  2  3  2  0  0  0  0
  2  4  1  0  0  0  0
  7  8  1  0  0  0  0
  8  9  2  0  0  0  0
  9 10  1  0  0  0  0
 10 11  2  0  0  0  0
 11 12  1  0  0  0  0
  7 12  2  0  0  0  0
 13 14  1  0  0  0  0
 10 13  1  0  0  0  0
  9 15  1  0  0  0  0
  6  7  1  0  0  0  0
  5  6  2  0  0  0  0
  1  5  1  0  0  0  0
M  END
>  <cdx:fragmentId>
17

$$$$
