8710.cdx
  Mrv1902 05222410192D          

 13 13  0  0  0  0            999 V2000
   10.5819   -5.1219    0.0000 C   0  0  0  0  0  0  0  0  0  0  0  0
    9.7951   -5.3700    0.0000 C   0  0  0  0  0  0  0  0  0  0  0  0
    9.6166   -6.1755    0.0000 C   0  0  0  0  0  0  0  0  0  0  0  0
    8.8298   -6.4236    0.0000 C   0  0  0  0  0  0  0  0  0  0  0  0
    8.6513   -7.2291    0.0000 C   0  0  0  0  0  0  0  0  0  0  0  0
    7.8645   -7.4772    0.0000 C   0  0  0  0  0  0  0  0  0  0  0  0
    7.6860   -8.2827    0.0000 C   0  0  0  0  0  0  0  0  0  0  0  0
    6.2431   -7.2151    0.0000 O   0  0  0  0  0  0  0  0  0  0  0  0
    5.5643   -8.5192    0.0000 C   0  0  0  0  0  0  0  0  0  0  0  0
    5.8125   -9.3060    0.0000 C   0  0  0  0  0  0  0  0  0  0  0  0
    6.6374   -9.3132    0.0000 C   0  0  0  0  0  0  0  0  0  0  0  0
    6.8992   -8.5308    0.0000 C   0  0  0  0  0  0  0  0  0  0  0  0
    6.2359   -8.0401    0.0000 C   0  0  0  0  0  0  0  0  0  0  0  0
 12  7  1  0  0  0  0
  2  1  1  0  0  0  0
  3  2  1  0  0  0  0
  4  3  1  0  0  0  0
  5  4  1  0  0  0  0
  6  5  1  0  0  0  0
  7  6  1  0  0  0  0
 13  8  2  0  0  0  0
 13  9  1  0  0  0  0
 10  9  1  0  0  0  0
 11 10  1  0  0  0  0
 12 11  1  0  0  0  0
 13 12  1  0  0  0  0
M  END
>  <cdx:fragmentId>
17

$$$$
