46871816.cdx
  Mrv1902 05222410282D          

 24 26  0  0  0  0            999 V2000
    6.3563   -9.4297    0.0000 O   0  0  0  0  0  0  0  0  0  0  0  0
    6.1014   -8.6451    0.0000 C   0  0  0  0  0  0  0  0  0  0  0  0
    6.7688   -8.1602    0.0000 C   0  0  0  0  0  0  0  0  0  0  0  0
    7.4363   -8.6451    0.0000 C   0  0  2  0  0  0  0  0  0  0  0  0
    7.1813   -9.4297    0.0000 C   0  0  0  0  0  0  0  0  0  0  0  0
    5.3168   -8.3901    0.0000 O   0  0  0  0  0  0  0  0  0  0  0  0
    8.2209   -8.3901    0.0000 O   0  0  0  0  0  0  0  0  0  0  0  0
    6.7688   -7.3352    0.0000 C   0  0  0  0  0  0  0  0  0  0  0  0
    7.4833   -6.9227    0.0000 C   0  0  0  0  0  0  0  0  0  0  0  0
    7.4833   -6.0977    0.0000 C   0  0  1  0  0  0  0  0  0  0  0  0
    6.7688   -5.6852    0.0000 C   0  0  0  0  0  0  0  0  0  0  0  0
    6.7688   -4.8602    0.0000 C   0  0  0  0  0  0  0  0  0  0  0  0
    7.4833   -4.4477    0.0000 C   0  0  0  0  0  0  0  0  0  0  0  0
    8.1978   -4.8602    0.0000 C   0  0  1  0  0  0  0  0  0  0  0  0
    8.9123   -4.4477    0.0000 C   0  0  0  0  0  0  0  0  0  0  0  0
    9.6267   -4.8602    0.0000 C   0  0  0  0  0  0  0  0  0  0  0  0
    9.6267   -5.6852    0.0000 C   0  0  0  0  0  0  0  0  0  0  0  0
    8.9123   -6.0977    0.0000 C   0  0  0  0  0  0  0  0  0  0  0  0
    8.1978   -5.6852    0.0000 C   0  0  2  0  0  0  0  0  0  0  0  0
    6.0544   -6.0977    0.0000 C   0  0  0  0  0  0  0  0  0  0  0  0
    8.1978   -6.5102    0.0000 C   0  0  0  0  0  0  0  0  0  0  0  0
    8.4998   -3.7332    0.0000 C   0  0  0  0  0  0  0  0  0  0  0  0
    9.3248   -3.7332    0.0000 C   0  0  0  0  0  0  0  0  0  0  0  0
    8.1978   -4.0352    0.0000 H   0  0  0  0  0  0  0  0  0  0  0  0
  1  2  1  0  0  0  0
  2  3  1  0  0  0  0
  3  4  1  0  0  0  0
  4  5  1  0  0  0  0
  1  5  1  0  0  0  0
  2  6  2  0  0  0  0
  4  7  1  1  0  0  0
  8  9  1  0  0  0  0
 10 11  1  0  0  0  0
 11 12  1  0  0  0  0
 12 13  1  0  0  0  0
 13 14  1  0  0  0  0
 14 15  1  0  0  0  0
 15 16  1  0  0  0  0
 16 17  1  0  0  0  0
 17 18  1  0  0  0  0
 18 19  1  0  0  0  0
 10 19  1  0  0  0  0
 14 19  1  0  0  0  0
 11 20  2  0  0  0  0
 19 21  1  1  0  0  0
 15 22  1  0  0  0  0
 15 23  1  0  0  0  0
 10  9  1  1  0  0  0
  3  8  2  0  0  0  0
 14 24  1  6  0  0  0
M  END
>  <cdx:groupId>
76

>  <cdx:fragmentId>
23

$$$$
