871902.cdx
  Mrv1902 05222410252D          

 24 26  0  0  0  0            999 V2000
    9.5764   -6.9710    0.0000 C   0  0  0  0  0  0  0  0  0  0  0  0
    8.8619   -6.5585    0.0000 C   0  0  0  0  0  0  0  0  0  0  0  0
    8.1475   -6.9710    0.0000 C   0  0  0  0  0  0  0  0  0  0  0  0
    8.1475   -7.7960    0.0000 C   0  0  0  0  0  0  0  0  0  0  0  0
    8.8619   -8.2085    0.0000 C   0  0  0  0  0  0  0  0  0  0  0  0
    9.5764   -7.7960    0.0000 C   0  0  0  0  0  0  0  0  0  0  0  0
   10.2909   -6.5585    0.0000 O   0  0  0  0  0  0  0  0  0  0  0  0
    8.8619   -5.7335    0.0000 O   0  0  0  0  0  0  0  0  0  0  0  0
    7.4330   -6.5585    0.0000 C   0  0  0  0  0  0  0  0  0  0  0  0
    6.7185   -6.9710    0.0000 C   0  0  0  0  0  0  0  0  0  0  0  0
    6.0040   -6.5585    0.0000 C   0  0  0  0  0  0  0  0  0  0  0  0
    6.0040   -5.7335    0.0000 C   0  0  0  0  0  0  0  0  0  0  0  0
    5.2896   -6.9710    0.0000 C   0  0  0  0  0  0  0  0  0  0  0  0
    7.4330   -8.2085    0.0000 C   0  0  1  0  0  0  0  0  0  0  0  0
    7.4330   -9.0335    0.0000 C   0  0  0  0  0  0  0  0  0  0  0  0
    6.7185   -9.4460    0.0000 C   0  0  0  0  0  0  0  0  0  0  0  0
    6.0040   -9.0335    0.0000 C   0  0  0  0  0  0  0  0  0  0  0  0
    5.2896   -9.4460    0.0000 C   0  0  0  0  0  0  0  0  0  0  0  0
    4.5751   -9.0335    0.0000 C   0  0  0  0  0  0  0  0  0  0  0  0
    4.5751   -8.2085    0.0000 C   0  0  0  0  0  0  0  0  0  0  0  0
    5.2896   -7.7960    0.0000 C   0  0  0  0  0  0  0  0  0  0  0  0
    6.0040   -8.2085    0.0000 C   0  0  0  0  0  0  0  0  0  0  0  0
    6.7185   -7.7960    0.0000 O   0  0  0  0  0  0  0  0  0  0  0  0
    3.8606   -7.7960    0.0000 O   0  0  0  0  0  0  0  0  0  0  0  0
  1  2  1  0  0  0  0
  2  3  2  0  0  0  0
  3  4  1  0  0  0  0
  4  5  2  0  0  0  0
  5  6  1  0  0  0  0
  1  6  2  0  0  0  0
  1  7  1  0  0  0  0
  2  8  1  0  0  0  0
  9 10  1  0  0  0  0
 10 11  2  0  0  0  0
 11 12  1  0  0  0  0
 11 13  1  0  0  0  0
  3  9  1  0  0  0  0
 14 15  1  0  0  0  0
 15 16  1  0  0  0  0
 16 17  1  0  0  0  0
 17 18  1  0  0  0  0
 18 19  2  0  0  0  0
 19 20  1  0  0  0  0
 20 21  2  0  0  0  0
 21 22  1  0  0  0  0
 17 22  2  0  0  0  0
 22 23  1  0  0  0  0
 14 23  1  0  0  0  0
 20 24  1  0  0  0  0
 14  4  1  1  0  0  0
M  END
>  <cdx:groupId>
177897

>  <cdx:fragmentId>
177826

$$$$
