5872092.cdx
  Mrv1902 05222410192D          

 25 24  0  0  0  0            999 V2000
   19.2788  -10.6694    0.0000 C   0  0  0  0  0  0  0  0  0  0  0  0
   18.5644  -10.2569    0.0000 C   0  0  0  0  0  0  0  0  0  0  0  0
   17.8499  -10.6694    0.0000 C   0  0  0  0  0  0  0  0  0  0  0  0
   17.1354  -10.2569    0.0000 C   0  0  0  0  0  0  0  0  0  0  0  0
   16.4210  -10.6694    0.0000 C   0  0  0  0  0  0  0  0  0  0  0  0
   15.7065  -10.2569    0.0000 C   0  0  0  0  0  0  0  0  0  0  0  0
   14.9920  -10.6694    0.0000 C   0  0  0  0  0  0  0  0  0  0  0  0
   14.2775  -10.2569    0.0000 C   0  0  0  0  0  0  0  0  0  0  0  0
   13.5631  -10.6694    0.0000 C   0  0  0  0  0  0  0  0  0  0  0  0
   12.8486  -10.2569    0.0000 C   0  0  0  0  0  0  0  0  0  0  0  0
   19.2788  -11.4944    0.0000 O   0  0  0  0  0  0  0  0  0  0  0  0
   19.9933  -10.2569    0.0000 O   0  0  0  0  0  0  0  0  0  0  0  0
   20.7078  -10.6694    0.0000 C   0  0  0  0  0  0  0  0  0  0  0  0
   21.4223  -10.2569    0.0000 C   0  0  0  0  0  0  0  0  0  0  0  0
   22.1367  -10.6694    0.0000 C   0  0  0  0  0  0  0  0  0  0  0  0
   22.8512  -10.2569    0.0000 O   0  0  0  0  0  0  0  0  0  0  0  0
   21.4223   -9.4319    0.0000 O   0  0  0  0  0  0  0  0  0  0  0  0
   12.8486   -9.4319    0.0000 C   0  0  0  0  0  0  0  0  0  0  0  0
   12.1341   -9.0194    0.0000 C   0  0  0  0  0  0  0  0  0  0  0  0
   12.1341   -8.1944    0.0000 C   0  0  0  0  0  0  0  0  0  0  0  0
   12.8486   -7.7819    0.0000 C   0  0  0  0  0  0  0  0  0  0  0  0
   12.8486   -6.9569    0.0000 C   0  0  0  0  0  0  0  0  0  0  0  0
   13.5631   -6.5444    0.0000 C   0  0  0  0  0  0  0  0  0  0  0  0
   14.2775   -6.9569    0.0000 C   0  0  0  0  0  0  0  0  0  0  0  0
   14.9920   -6.5444    0.0000 C   0  0  0  0  0  0  0  0  0  0  0  0
  1  2  1  0  0  0  0
  2  3  1  0  0  0  0
  3  4  1  0  0  0  0
  4  5  1  0  0  0  0
  5  6  1  0  0  0  0
  6  7  1  0  0  0  0
  7  8  1  0  0  0  0
  8  9  1  0  0  0  0
  9 10  2  0  0  0  0
  1 11  2  0  0  0  0
  1 12  1  0  0  0  0
 13 14  1  0  0  0  0
 14 15  1  0  0  0  0
 15 16  1  0  0  0  0
 14 17  1  0  0  0  0
 12 13  1  0  0  0  0
 10 18  1  0  0  0  0
 18 19  1  0  0  0  0
 19 20  2  0  0  0  0
 20 21  1  0  0  0  0
 21 22  1  0  0  0  0
 22 23  2  0  0  0  0
 23 24  1  0  0  0  0
 24 25  1  0  0  0  0
M  END
>  <cdx:groupId>
76

>  <cdx:fragmentId>
5

$$$$
