8723.cdx
  Mrv1902 05222410262D          

  6  5  0  0  0  0            999 V2000
    5.2427   -4.5502    0.0000 C   0  0  0  0  0  0  0  0  0  0  0  0
    4.5283   -4.1377    0.0000 C   0  0  0  0  0  0  0  0  0  0  0  0
    3.8138   -4.5502    0.0000 C   0  0  0  0  0  0  0  0  0  0  0  0
    3.0993   -4.1377    0.0000 C   0  0  0  0  0  0  0  0  0  0  0  0
    5.9572   -4.1377    0.0000 O   0  0  0  0  0  0  0  0  0  0  0  0
    4.5283   -3.3127    0.0000 C   0  0  0  0  0  0  0  0  0  0  0  0
  1  2  1  0  0  0  0
  2  3  1  0  0  0  0
  3  4  1  0  0  0  0
  1  5  1  0  0  0  0
  2  6  1  0  0  0  0
M  END
>  <cdx:groupId>
19

>  <cdx:fragmentId>
5

$$$$
