46872588.cdx
  Mrv1902 05222410252D          

 18 17  0  0  0  0            999 V2000
   13.1960   -6.0690    0.0000 C   0  0  0  0  0  0  0  0  0  0  0  0
   12.4816   -6.4815    0.0000 C   0  0  0  0  0  0  0  0  0  0  0  0
   11.7671   -6.0690    0.0000 C   0  0  1  0  0  0  0  0  0  0  0  0
   11.0526   -6.4815    0.0000 C   0  0  0  0  0  0  0  0  0  0  0  0
   10.3381   -6.8940    0.0000 C   0  0  0  0  0  0  0  0  0  0  0  0
    9.6237   -7.3065    0.0000 C   0  0  0  0  0  0  0  0  0  0  0  0
    8.9092   -7.7190    0.0000 C   0  0  0  0  0  0  0  0  0  0  0  0
    8.1947   -8.1315    0.0000 C   0  0  0  0  0  0  0  0  0  0  0  0
    7.4803   -7.7190    0.0000 C   0  0  0  0  0  0  0  0  0  0  0  0
    6.6553   -7.7190    0.0000 C   0  0  0  0  0  0  0  0  0  0  0  0
    5.9408   -8.1315    0.0000 C   0  0  0  0  0  0  0  0  0  0  0  0
    5.2263   -7.7190    0.0000 C   0  0  0  0  0  0  0  0  0  0  0  0
    4.5119   -8.1315    0.0000 C   0  0  0  0  0  0  0  0  0  0  0  0
    3.7974   -7.7190    0.0000 C   0  0  0  0  0  0  0  0  0  0  0  0
    3.0829   -8.1315    0.0000 C   0  0  0  0  0  0  0  0  0  0  0  0
    2.3684   -7.7190    0.0000 C   0  0  0  0  0  0  0  0  0  0  0  0
    1.6540   -8.1315    0.0000 C   0  0  0  0  0  0  0  0  0  0  0  0
   11.7671   -5.2440    0.0000 O   0  0  0  0  0  0  0  0  0  0  0  0
  1  2  1  0  0  0  0
  2  3  1  0  0  0  0
  3  4  1  0  0  0  0
  4  5  3  0  0  0  0
  5  6  1  0  0  0  0
  6  7  3  0  0  0  0
  7  8  1  0  0  0  0
  8  9  1  0  0  0  0
  9 10  2  0  0  0  0
 10 11  1  0  0  0  0
 11 12  1  0  0  0  0
 12 13  1  0  0  0  0
 13 14  1  0  0  0  0
 14 15  1  0  0  0  0
 15 16  1  0  0  0  0
 16 17  1  0  0  0  0
  3 18  1  1  0  0  0
M  END
>  <cdx:groupId>
113

>  <cdx:fragmentId>
63

$$$$
