873344.cdx
  Mrv1902 05222410282D          

 33 36  0  0  0  0            999 V2000
    7.3249   -6.6434    0.0000 C   0  0  2  0  0  0  0  0  0  0  0  0
    8.2785   -6.3962    0.0000 C   0  0  1  0  0  0  0  0  0  0  0  0
    9.3091   -6.6922    0.0000 C   0  0  0  0  0  0  0  0  0  0  0  0
    7.0290   -5.9446    0.0000 C   0  0  2  0  0  0  0  0  0  0  0  0
    9.7216   -5.9778    0.0000 C   0  0  0  0  0  0  0  0  0  0  0  0
    8.6910   -5.6817    0.0000 C   0  0  2  0  0  0  0  0  0  0  0  0
    7.7835   -4.8975    0.0000 C   0  0  0  0  0  0  0  0  0  0  0  0
    8.6910   -4.8567    0.0000 C   0  0  0  0  0  0  0  0  0  0  0  0
    7.1042   -4.4293    0.0000 C   0  0  0  0  0  0  0  0  0  0  0  0
    6.3591   -4.7834    0.0000 O   0  0  0  0  0  0  0  0  0  0  0  0
    7.1700   -3.6069    0.0000 O   0  0  0  0  0  0  0  0  0  0  0  0
    8.5186   -7.1662    0.0000 C   0  0  0  0  0  0  0  0  0  0  0  0
    9.2976   -7.4377    0.0000 C   0  0  0  0  0  0  0  0  0  0  0  0
    9.4520   -8.2481    0.0000 C   0  0  0  0  0  0  0  0  0  0  0  0
   10.2311   -8.5196    0.0000 C   0  0  0  0  0  0  0  0  0  0  0  0
   10.3855   -9.3300    0.0000 C   0  0  0  0  0  0  0  0  0  0  0  0
    7.8939   -7.7051    0.0000 O   0  0  0  0  0  0  0  0  0  0  0  0
    6.2758   -5.8514    0.0000 C   0  0  0  0  0  0  0  0  0  0  0  0
    5.8185   -6.4571    0.0000 C   0  0  0  0  0  0  0  0  0  0  0  0
    6.1144   -7.1559    0.0000 C   0  0  0  0  0  0  0  0  0  0  0  0
    6.8676   -7.2491    0.0000 C   0  0  0  0  0  0  0  0  0  0  0  0
    5.7930   -7.8434    0.0000 C   0  0  0  0  0  0  0  0  0  0  0  0
    6.3476   -8.3615    0.0000 O   0  0  0  0  0  0  0  0  0  0  0  0
    7.0117   -7.9942    0.0000 C   0  0  0  0  0  0  0  0  0  0  0  0
    7.7591   -8.3436    0.0000 O   0  0  0  0  0  0  0  0  0  0  0  0
    4.9831   -8.0001    0.0000 C   0  0  0  0  0  0  0  0  0  0  0  0
    4.7695   -8.7970    0.0000 C   0  0  0  0  0  0  0  0  0  0  0  0
    3.9726   -9.0105    0.0000 C   0  0  0  0  0  0  0  0  0  0  0  0
    3.7591   -9.8074    0.0000 C   0  0  0  0  0  0  0  0  0  0  0  0
    7.0151   -5.1197    0.0000 H   0  0  0  0  0  0  0  0  0  0  0  0
    7.7831   -7.3295    0.0000 H   0  0  0  0  0  0  0  0  0  0  0  0
    9.2743   -5.0984    0.0000 H   0  0  0  0  0  0  0  0  0  0  0  0
    6.4555   -3.1944    0.0000 C   0  0  0  0  0  0  0  0  0  0  0  0
  1  2  1  0  0  0  0
  2  3  1  0  0  0  0
  1  4  1  0  0  0  0
  3  5  1  0  0  0  0
  4  6  1  0  0  0  0
  6  5  1  0  0  0  0
  2  7  1  0  0  0  0
  6  8  1  0  0  0  0
  8  7  2  0  0  0  0
  7  9  1  0  0  0  0
  9 10  2  0  0  0  0
  9 11  1  0  0  0  0
  2 12  1  1  0  0  0
 12 13  1  0  0  0  0
 13 14  1  0  0  0  0
 14 15  1  0  0  0  0
 15 16  1  0  0  0  0
 12 17  2  0  0  0  0
  4 18  1  0  0  0  0
 18 19  1  0  0  0  0
 19 20  1  0  0  0  0
 20 21  2  0  0  0  0
 21  1  1  0  0  0  0
 20 22  1  0  0  0  0
 22 23  1  0  0  0  0
 23 24  1  0  0  0  0
 24 21  1  0  0  0  0
 24 25  2  0  0  0  0
 22 26  2  0  0  0  0
 26 27  1  0  0  0  0
 27 28  1  0  0  0  0
 28 29  1  0  0  0  0
  4 30  1  6  0  0  0
  1 31  1  6  0  0  0
  6 32  1  6  0  0  0
 11 33  1  0  0  0  0
M  END
>  <cdx:fragmentId>
802

$$$$
