873754.cdx
  Mrv1902 05222410282D          

 22 22  0  0  0  0            999 V2000
   11.9864   -9.8773    0.0000 O   0  0  0  0  0  0  0  0  0  0  0  0
   12.7008   -8.6398    0.0000 C   0  0  0  0  0  0  0  0  0  0  0  0
   11.9864   -8.2273    0.0000 O   0  0  0  0  0  0  0  0  0  0  0  0
    9.8430   -9.4648    0.0000 C   0  0  0  0  0  0  0  0  0  0  0  0
   10.5574   -9.8773    0.0000 C   0  0  0  0  0  0  0  0  0  0  0  0
   11.2719   -9.4648    0.0000 C   0  0  0  0  0  0  0  0  0  0  0  0
   11.2719   -8.6398    0.0000 C   0  0  0  0  0  0  0  0  0  0  0  0
   10.5574   -8.2273    0.0000 C   0  0  0  0  0  0  0  0  0  0  0  0
    9.8430   -8.6398    0.0000 C   0  0  0  0  0  0  0  0  0  0  0  0
    9.1285   -8.2273    0.0000 C   0  0  0  0  0  0  0  0  0  0  0  0
    1.9838   -8.2273    0.0000 C   0  0  0  0  0  0  0  0  0  0  0  0
    8.4140   -8.6398    0.0000 O   0  0  0  0  0  0  0  0  0  0  0  0
    7.6995   -7.4023    0.0000 O   0  0  0  0  0  0  0  0  0  0  0  0
    2.6982   -9.4648    0.0000 C   0  0  0  0  0  0  0  0  0  0  0  0
    2.6982   -8.6398    0.0000 C   0  0  0  0  0  0  0  0  0  0  0  0
    3.4127   -8.2273    0.0000 C   0  0  0  0  0  0  0  0  0  0  0  0
    4.1272   -8.6398    0.0000 C   0  0  0  0  0  0  0  0  0  0  0  0
    4.8417   -8.2273    0.0000 C   0  0  0  0  0  0  0  0  0  0  0  0
    5.5561   -8.6398    0.0000 C   0  0  0  0  0  0  0  0  0  0  0  0
    6.2706   -8.2273    0.0000 C   0  0  0  0  0  0  0  0  0  0  0  0
    6.9851   -8.6398    0.0000 C   0  0  0  0  0  0  0  0  0  0  0  0
    7.6995   -8.2273    0.0000 C   0  0  0  0  0  0  0  0  0  0  0  0
 12 10  1  0  0  0  0
 10  9  1  0  0  0  0
  6  1  1  0  0  0  0
  7  3  1  0  0  0  0
  3  2  1  0  0  0  0
  9  4  2  0  0  0  0
  5  4  1  0  0  0  0
  6  5  2  0  0  0  0
  7  6  1  0  0  0  0
  8  7  2  0  0  0  0
  9  8  1  0  0  0  0
 15 11  1  0  0  0  0
 22 12  1  0  0  0  0
 22 13  2  0  0  0  0
 15 14  1  0  0  0  0
 16 15  1  0  0  0  0
 17 16  1  0  0  0  0
 18 17  1  0  0  0  0
 19 18  1  0  0  0  0
 20 19  1  0  0  0  0
 21 20  1  0  0  0  0
 22 21  1  0  0  0  0
M  END
>  <cdx:fragmentId>
30712

$$$$
