8742.cdx
  Mrv1902 05222410242D          

 12 12  0  0  0  0            999 V2000
    7.6188   -5.0891    0.0000 C   0  0  0  0  0  0  0  0  0  0  0  0
    8.3333   -5.5015    0.0000 C   0  0  0  0  0  0  0  0  0  0  0  0
    8.3335   -6.3265    0.0000 C   0  0  2  0  0  0  0  0  0  0  0  0
    7.6191   -6.7391    0.0000 C   0  0  1  0  0  0  0  0  0  0  0  0
    6.9046   -6.3268    0.0000 C   0  0  1  0  0  0  0  0  0  0  0  0
    6.9044   -5.5018    0.0000 C   0  0  0  0  0  0  0  0  0  0  0  0
    7.6186   -4.2641    0.0000 C   0  0  0  0  0  0  0  0  0  0  0  0
    6.9041   -3.8518    0.0000 O   0  0  0  0  0  0  0  0  0  0  0  0
    8.3330   -3.8515    0.0000 O   0  0  0  0  0  0  0  0  0  0  0  0
    6.1902   -6.7394    0.0000 O   0  0  0  0  0  0  0  0  0  0  0  0
    7.6193   -7.5641    0.0000 O   0  0  0  0  0  0  0  0  0  0  0  0
    9.0481   -6.7388    0.0000 O   0  0  0  0  0  0  0  0  0  0  0  0
  1  2  1  0  0  0  0
  2  3  1  0  0  0  0
  3  4  1  0  0  0  0
  4  5  1  0  0  0  0
  5  6  1  0  0  0  0
  1  6  2  0  0  0  0
  7  8  2  0  0  0  0
  7  9  1  0  0  0  0
  1  7  1  0  0  0  0
  5 10  1  6  0  0  0
  4 11  1  6  0  0  0
  3 12  1  1  0  0  0
M  END
>  <cdx:groupId>
38

>  <cdx:fragmentId>
5

$$$$
