87436.cdx
  Mrv1902 05222410272D          

  8  7  0  0  0  0            999 V2000
    3.8884   -3.2884    0.0000 C   0  0  0  0  0  0  0  0  0  0  0  0
    4.6029   -3.7009    0.0000 C   0  0  0  0  0  0  0  0  0  0  0  0
    5.3174   -3.2884    0.0000 C   0  0  0  0  0  0  0  0  0  0  0  0
    6.0318   -3.7009    0.0000 C   0  0  0  0  0  0  0  0  0  0  0  0
    6.7463   -3.2884    0.0000 C   0  0  0  0  0  0  0  0  0  0  0  0
    3.1739   -3.7009    0.0000 N   0  0  0  0  0  0  0  0  0  0  0  0
    2.4595   -3.2884    0.0000 C   0  0  0  0  0  0  0  0  0  0  0  0
    1.7450   -2.8759    0.0000 S   0  0  0  0  0  0  0  0  0  0  0  0
  1  2  1  0  0  0  0
  2  3  1  0  0  0  0
  3  4  1  0  0  0  0
  4  5  2  0  0  0  0
  6  7  2  0  0  0  0
  7  8  2  0  0  0  0
  1  6  1  0  0  0  0
M  END
>  <cdx:groupId>
25

>  <cdx:fragmentId>
5

$$$$
