8743.cdx
  Mrv1902 05222410242D          

 39 43  0  0  0  0            999 V2000
    6.5758   -6.7719    0.0000 C   0  0  0  0  0  0  0  0  0  0  0  0
    6.5758   -7.5969    0.0000 C   0  0  0  0  0  0  0  0  0  0  0  0
    7.2902   -8.0094    0.0000 C   0  0  0  0  0  0  0  0  0  0  0  0
    8.0047   -7.5969    0.0000 C   0  0  0  0  0  0  0  0  0  0  0  0
    8.0047   -6.7719    0.0000 C   0  0  0  0  0  0  0  0  0  0  0  0
    7.2902   -6.3594    0.0000 C   0  0  0  0  0  0  0  0  0  0  0  0
    8.7192   -8.0094    0.0000 C   0  0  0  0  0  0  0  0  0  0  0  0
    9.4337   -7.5969    0.0000 C   0  0  0  0  0  0  0  0  0  0  0  0
    9.4337   -6.7719    0.0000 C   0  0  0  0  0  0  0  0  0  0  0  0
    8.7192   -6.3594    0.0000 O   0  0  0  0  0  0  0  0  0  0  0  0
   10.1481   -6.3594    0.0000 C   0  0  0  0  0  0  0  0  0  0  0  0
   10.1481   -5.5344    0.0000 C   0  0  0  0  0  0  0  0  0  0  0  0
   10.8626   -6.7719    0.0000 C   0  0  0  0  0  0  0  0  0  0  0  0
   11.5771   -6.3594    0.0000 C   0  0  0  0  0  0  0  0  0  0  0  0
   11.5771   -5.5344    0.0000 C   0  0  0  0  0  0  0  0  0  0  0  0
   10.8626   -5.1219    0.0000 C   0  0  0  0  0  0  0  0  0  0  0  0
    8.7192   -8.8344    0.0000 O   0  0  0  0  0  0  0  0  0  0  0  0
    7.2902   -8.8344    0.0000 O   0  0  0  0  0  0  0  0  0  0  0  0
    5.8613   -6.3594    0.0000 O   0  0  0  0  0  0  0  0  0  0  0  0
    5.8613   -8.0094    0.0000 C   0  0  2  0  0  0  0  0  0  0  0  0
    5.1468   -7.5969    0.0000 O   0  0  0  0  0  0  0  0  0  0  0  0
    4.4324   -8.0094    0.0000 C   0  0  0  0  0  0  0  0  0  0  0  0
    4.4324   -8.8344    0.0000 C   0  0  1  0  0  0  0  0  0  0  0  0
    5.1468   -9.2469    0.0000 C   0  0  1  0  0  0  0  0  0  0  0  0
    5.8613   -8.8344    0.0000 C   0  0  1  0  0  0  0  0  0  0  0  0
    7.2902   -5.5344    0.0000 C   0  0  2  0  0  0  0  0  0  0  0  0
    8.0047   -5.1219    0.0000 O   0  0  0  0  0  0  0  0  0  0  0  0
    8.0047   -4.2969    0.0000 C   0  0  1  0  0  0  0  0  0  0  0  0
    7.2902   -3.8844    0.0000 C   0  0  2  0  0  0  0  0  0  0  0  0
    6.5758   -4.2969    0.0000 C   0  0  1  0  0  0  0  0  0  0  0  0
    6.5758   -5.1219    0.0000 C   0  0  1  0  0  0  0  0  0  0  0  0
    5.8613   -5.5344    0.0000 O   0  0  0  0  0  0  0  0  0  0  0  0
    5.8613   -3.8844    0.0000 O   0  0  0  0  0  0  0  0  0  0  0  0
    7.2902   -3.0594    0.0000 O   0  0  0  0  0  0  0  0  0  0  0  0
    5.1468  -10.0719    0.0000 O   0  0  0  0  0  0  0  0  0  0  0  0
    6.5758   -9.2469    0.0000 O   0  0  0  0  0  0  0  0  0  0  0  0
    3.7179   -9.2469    0.0000 O   0  0  0  0  0  0  0  0  0  0  0  0
    8.7192   -3.8844    0.0000 C   0  0  0  0  0  0  0  0  0  0  0  0
    8.7192   -3.0594    0.0000 O   0  0  0  0  0  0  0  0  0  0  0  0
  1  2  2  0  0  0  0
  2  3  1  0  0  0  0
  3  4  2  0  0  0  0
  4  5  1  0  0  0  0
  5  6  2  0  0  0  0
  6  1  1  0  0  0  0
  4  7  1  0  0  0  0
  7  8  1  0  0  0  0
  8  9  2  0  0  0  0
  9 10  1  0  0  0  0
 10  5  1  0  0  0  0
  9 11  1  0  0  0  0
 11 12  1  0  0  0  0
 11 13  2  0  0  0  0
 13 14  1  0  0  0  0
 14 15  2  0  0  0  0
 15 16  1  0  0  0  0
 16 12  2  0  0  0  0
  7 17  2  0  0  0  0
  3 18  1  0  0  0  0
  1 19  1  0  0  0  0
 20  2  1  1  0  0  0
 20 21  1  0  0  0  0
 21 22  1  0  0  0  0
 22 23  1  0  0  0  0
 23 24  1  0  0  0  0
 24 25  1  0  0  0  0
 25 20  1  0  0  0  0
 26  6  1  1  0  0  0
 26 27  1  0  0  0  0
 27 28  1  0  0  0  0
 28 29  1  0  0  0  0
 29 30  1  0  0  0  0
 30 31  1  0  0  0  0
 31 26  1  0  0  0  0
 31 32  1  6  0  0  0
 30 33  1  1  0  0  0
 29 34  1  6  0  0  0
 24 35  1  1  0  0  0
 25 36  1  6  0  0  0
 23 37  1  1  0  0  0
 28 38  1  1  0  0  0
 38 39  1  0  0  0  0
M  END
>  <cdx:fragmentId>
5

$$$$
