874430.cdx
  Mrv1902 05222410192D          

 15 15  0  0  0  0            999 V2000
   14.9321   -7.8226    0.0000 C   0  0  0  0  0  0  0  0  0  0  0  0
   15.6466   -8.2351    0.0000 C   0  0  0  0  0  0  0  0  0  0  0  0
   16.3611   -7.8226    0.0000 C   0  0  0  0  0  0  0  0  0  0  0  0
   16.3611   -6.9976    0.0000 C   0  0  0  0  0  0  0  0  0  0  0  0
   15.6466   -6.5851    0.0000 C   0  0  0  0  0  0  0  0  0  0  0  0
   14.9321   -6.9976    0.0000 C   0  0  0  0  0  0  0  0  0  0  0  0
   15.6466   -9.0601    0.0000 C   0  0  0  0  0  0  0  0  0  0  0  0
   16.3611   -9.4726    0.0000 C   0  0  0  0  0  0  0  0  0  0  0  0
   16.3611  -10.2976    0.0000 C   0  0  0  0  0  0  0  0  0  0  0  0
   17.0755   -9.0601    0.0000 N   0  3  0  0  0  0  0  0  0  0  0  0
   17.0755   -8.2351    0.0000 O   0  0  0  0  0  0  0  0  0  0  0  0
   17.7900   -9.4726    0.0000 O   0  5  0  0  0  0  0  0  0  0  0  0
   14.2177   -8.2351    0.0000 O   0  0  0  0  0  0  0  0  0  0  0  0
   13.5032   -7.8226    0.0000 C   0  0  0  0  0  0  0  0  0  0  0  0
   12.7887   -8.2351    0.0000 C   0  0  0  0  0  0  0  0  0  0  0  0
  1  2  1  0  0  0  0
  2  3  2  0  0  0  0
  3  4  1  0  0  0  0
  4  5  2  0  0  0  0
  5  6  1  0  0  0  0
  1  6  2  0  0  0  0
  7  8  2  0  0  0  0
  8  9  1  0  0  0  0
 10 11  2  0  0  0  0
 10 12  1  0  0  0  0
  8 10  1  0  0  0  0
  2  7  1  0  0  0  0
 14 15  1  0  0  0  0
 13 14  1  0  0  0  0
  1 13  1  0  0  0  0
M  CHG  2  10   1  12  -1
M  END
>  <cdx:groupId>
14967

>  <cdx:fragmentId>
14925

$$$$
