8747.cdx
  Mrv1902 05222410252D          

 46 50  0  0  0  0            999 V2000
    6.7683   -7.0950    0.0000 C   0  0  0  0  0  0  0  0  0  0  0  0
    6.7683   -7.9200    0.0000 C   0  0  0  0  0  0  0  0  0  0  0  0
    7.4827   -8.3325    0.0000 C   0  0  0  0  0  0  0  0  0  0  0  0
    8.1972   -7.9200    0.0000 C   0  0  0  0  0  0  0  0  0  0  0  0
    8.1972   -7.0950    0.0000 C   0  0  0  0  0  0  0  0  0  0  0  0
    7.4827   -6.6825    0.0000 C   0  0  0  0  0  0  0  0  0  0  0  0
    8.9117   -8.3325    0.0000 C   0  0  0  0  0  0  0  0  0  0  0  0
    9.6262   -7.9200    0.0000 C   0  0  0  0  0  0  0  0  0  0  0  0
    9.6262   -7.0950    0.0000 C   0  0  0  0  0  0  0  0  0  0  0  0
    8.9117   -6.6825    0.0000 O   0  0  0  0  0  0  0  0  0  0  0  0
   10.3406   -6.6825    0.0000 C   0  0  0  0  0  0  0  0  0  0  0  0
   10.3406   -5.8575    0.0000 C   0  0  0  0  0  0  0  0  0  0  0  0
   11.0551   -7.0950    0.0000 C   0  0  0  0  0  0  0  0  0  0  0  0
   11.7696   -6.6825    0.0000 C   0  0  0  0  0  0  0  0  0  0  0  0
   11.7696   -5.8575    0.0000 C   0  0  0  0  0  0  0  0  0  0  0  0
   11.0551   -5.4450    0.0000 C   0  0  0  0  0  0  0  0  0  0  0  0
    8.9117   -9.1575    0.0000 O   0  0  0  0  0  0  0  0  0  0  0  0
    7.4827   -9.1575    0.0000 O   0  0  0  0  0  0  0  0  0  0  0  0
    6.0538   -6.6825    0.0000 O   0  0  0  0  0  0  0  0  0  0  0  0
    3.9346   -8.7569    0.0000 C   0  0  2  0  0  0  0  0  0  0  0  0
    3.9464   -9.5818    0.0000 C   0  0  2  0  0  0  0  0  0  0  0  0
    4.6666   -9.9841    0.0000 C   0  0  1  0  0  0  0  0  0  0  0  0
    5.3752   -9.5615    0.0000 C   0  0  2  0  0  0  0  0  0  0  0  0
    5.3634   -8.7366    0.0000 C   0  0  1  0  0  0  0  0  0  0  0  0
    4.6432   -8.3343    0.0000 O   0  0  0  0  0  0  0  0  0  0  0  0
    6.0719   -8.3139    0.0000 C   0  0  0  0  0  0  0  0  0  0  0  0
    3.2144   -8.3546    0.0000 C   0  0  0  0  0  0  0  0  0  0  0  0
    4.6784  -10.8090    0.0000 O   0  0  0  0  0  0  0  0  0  0  0  0
    6.0954   -9.9638    0.0000 O   0  0  0  0  0  0  0  0  0  0  0  0
    3.2378  -10.0045    0.0000 O   0  0  0  0  0  0  0  0  0  0  0  0
    2.5058   -8.7772    0.0000 O   0  0  0  0  0  0  0  0  0  0  0  0
    8.1849   -4.5007    0.0000 O   0  0  0  0  0  0  0  0  0  0  0  0
    8.1658   -3.6759    0.0000 C   0  0  1  0  0  0  0  0  0  0  0  0
    7.4420   -3.2801    0.0000 C   0  0  2  0  0  0  0  0  0  0  0  0
    6.7373   -3.7091    0.0000 C   0  0  1  0  0  0  0  0  0  0  0  0
    6.7564   -4.5338    0.0000 C   0  0  2  0  0  0  0  0  0  0  0  0
    7.4802   -4.9297    0.0000 C   0  0  2  0  0  0  0  0  0  0  0  0
    7.4228   -2.4553    0.0000 O   0  0  0  0  0  0  0  0  0  0  0  0
    6.0134   -3.3132    0.0000 O   0  0  0  0  0  0  0  0  0  0  0  0
    7.4994   -5.7544    0.0000 C   0  0  0  0  0  0  0  0  0  0  0  0
    6.0517   -4.9628    0.0000 O   0  0  0  0  0  0  0  0  0  0  0  0
    1.7914   -8.3647    0.0000 C   0  0  0  0  0  0  0  0  0  0  0  0
    1.0769   -8.7772    0.0000 C   0  0  0  0  0  0  0  0  0  0  0  0
    1.7914   -7.5397    0.0000 O   0  0  0  0  0  0  0  0  0  0  0  0
    8.8803   -3.2634    0.0000 C   0  0  0  0  0  0  0  0  0  0  0  0
    8.8803   -2.4384    0.0000 O   0  0  0  0  0  0  0  0  0  0  0  0
  1  2  2  0  0  0  0
  2  3  1  0  0  0  0
  3  4  2  0  0  0  0
  4  5  1  0  0  0  0
  5  6  2  0  0  0  0
  6  1  1  0  0  0  0
  4  7  1  0  0  0  0
  7  8  1  0  0  0  0
  8  9  2  0  0  0  0
  9 10  1  0  0  0  0
 10  5  1  0  0  0  0
  9 11  1  0  0  0  0
 11 12  1  0  0  0  0
 11 13  2  0  0  0  0
 13 14  1  0  0  0  0
 14 15  2  0  0  0  0
 15 16  1  0  0  0  0
 16 12  2  0  0  0  0
  7 17  2  0  0  0  0
  3 18  1  0  0  0  0
  1 19  1  0  0  0  0
 20 21  1  0  0  0  0
 21 22  1  0  0  0  0
 22 23  1  0  0  0  0
 23 24  1  0  0  0  0
 24 25  1  0  0  0  0
 25 20  1  0  0  0  0
 24 26  1  1  0  0  0
 20 27  1  1  0  0  0
 22 28  1  1  0  0  0
 23 29  1  6  0  0  0
 21 30  1  6  0  0  0
 27 31  1  0  0  0  0
 32 33  1  0  0  0  0
 33 34  1  0  0  0  0
 34 35  1  0  0  0  0
 35 36  1  0  0  0  0
 36 37  1  0  0  0  0
 37 32  1  0  0  0  0
 34 38  1  6  0  0  0
 35 39  1  1  0  0  0
 37 40  1  1  0  0  0
 36 41  1  6  0  0  0
  2 26  1  0  0  0  0
  6 40  1  0  0  0  0
 31 42  1  0  0  0  0
 42 43  1  0  0  0  0
 42 44  2  0  0  0  0
 33 45  1  1  0  0  0
 45 46  1  0  0  0  0
M  END
>  <cdx:fragmentId>
5

$$$$
