17410.cdx
  Mrv1902 05222410212D          

 11 11  0  0  0  0            999 V2000
    6.3764   -6.8888    0.0000 C   0  0  0  0  0  0  0  0  0  0  0  0
    6.3764   -7.7138    0.0000 C   0  0  0  0  0  0  0  0  0  0  0  0
    7.0909   -8.1263    0.0000 C   0  0  0  0  0  0  0  0  0  0  0  0
    7.8053   -7.7138    0.0000 C   0  0  0  0  0  0  0  0  0  0  0  0
    7.8053   -6.8888    0.0000 C   0  0  0  0  0  0  0  0  0  0  0  0
    7.0909   -6.4763    0.0000 C   0  0  0  0  0  0  0  0  0  0  0  0
    6.6784   -5.7618    0.0000 C   0  0  0  0  0  0  0  0  0  0  0  0
    7.5034   -5.7618    0.0000 O   0  0  0  0  0  0  0  0  0  0  0  0
    7.0909   -8.9513    0.0000 C   0  0  0  0  0  0  0  0  0  0  0  0
    6.3764   -9.3637    0.0000 C   0  0  0  0  0  0  0  0  0  0  0  0
    7.8053   -9.3637    0.0000 C   0  0  0  0  0  0  0  0  0  0  0  0
  1  2  1  0  0  0  0
  2  3  1  0  0  0  0
  3  4  1  0  0  0  0
  4  5  1  0  0  0  0
  5  6  1  0  0  0  0
  6  1  1  0  0  0  0
  6  7  1  0  0  0  0
  6  8  1  0  0  0  0
  3  9  1  0  0  0  0
  9 10  1  0  0  0  0
  9 11  2  0  0  0  0
M  END
>  <cdx:fragmentId>
5

$$$$
