875.cdx
  Mrv1902 05222410272D          

 10  9  0  0  0  0            999 V2000
    6.2661   -5.3771    0.0000 O   0  0  0  0  0  0  0  0  0  0  0  0
    6.9806   -3.3146    0.0000 O   0  0  0  0  0  0  0  0  0  0  0  0
    8.4096   -4.1396    0.0000 O   0  0  0  0  0  0  0  0  0  0  0  0
    7.6951   -5.3771    0.0000 O   0  0  0  0  0  0  0  0  0  0  0  0
    4.8372   -4.5521    0.0000 O   0  0  0  0  0  0  0  0  0  0  0  0
    5.5517   -3.3146    0.0000 O   0  0  0  0  0  0  0  0  0  0  0  0
    7.6951   -4.5521    0.0000 C   0  0  0  0  0  0  0  0  0  0  0  0
    6.9806   -4.1396    0.0000 C   0  0  0  0  0  0  0  0  0  0  0  0
    6.2661   -4.5521    0.0000 C   0  0  0  0  0  0  0  0  0  0  0  0
    5.5517   -4.1396    0.0000 C   0  0  0  0  0  0  0  0  0  0  0  0
  9  1  1  0  0  0  0
  8  2  1  0  0  0  0
  7  3  1  0  0  0  0
  7  4  2  0  0  0  0
 10  5  1  0  0  0  0
 10  6  2  0  0  0  0
  8  7  1  0  0  0  0
  9  8  1  0  0  0  0
 10  9  1  0  0  0  0
M  END
>  <cdx:groupId>
31

>  <cdx:fragmentId>
5

$$$$
