8750.cdx
  Mrv1902 05222410252D          

 39 43  0  0  0  0            999 V2000
    6.6033   -6.8819    0.0000 C   0  0  0  0  0  0  0  0  0  0  0  0
    6.6033   -7.7069    0.0000 C   0  0  0  0  0  0  0  0  0  0  0  0
    7.3177   -8.1194    0.0000 C   0  0  0  0  0  0  0  0  0  0  0  0
    8.0322   -7.7069    0.0000 C   0  0  0  0  0  0  0  0  0  0  0  0
    8.0322   -6.8819    0.0000 C   0  0  0  0  0  0  0  0  0  0  0  0
    7.3177   -6.4694    0.0000 C   0  0  0  0  0  0  0  0  0  0  0  0
    8.7467   -8.1194    0.0000 C   0  0  0  0  0  0  0  0  0  0  0  0
    9.4612   -7.7069    0.0000 C   0  0  0  0  0  0  0  0  0  0  0  0
    9.4612   -6.8819    0.0000 C   0  0  0  0  0  0  0  0  0  0  0  0
    8.7467   -6.4694    0.0000 O   0  0  0  0  0  0  0  0  0  0  0  0
   10.1756   -6.4694    0.0000 C   0  0  0  0  0  0  0  0  0  0  0  0
   10.1756   -5.6444    0.0000 C   0  0  0  0  0  0  0  0  0  0  0  0
   10.8901   -6.8819    0.0000 C   0  0  0  0  0  0  0  0  0  0  0  0
   11.6046   -6.4694    0.0000 C   0  0  0  0  0  0  0  0  0  0  0  0
   11.6046   -5.6444    0.0000 C   0  0  0  0  0  0  0  0  0  0  0  0
   10.8901   -5.2319    0.0000 C   0  0  0  0  0  0  0  0  0  0  0  0
    8.7467   -8.9444    0.0000 O   0  0  0  0  0  0  0  0  0  0  0  0
    7.3177   -8.9444    0.0000 O   0  0  0  0  0  0  0  0  0  0  0  0
    5.8888   -6.4694    0.0000 O   0  0  0  0  0  0  0  0  0  0  0  0
    5.8888   -8.1194    0.0000 C   0  0  1  0  0  0  0  0  0  0  0  0
    5.1743   -7.7069    0.0000 O   0  0  0  0  0  0  0  0  0  0  0  0
    4.4599   -8.1194    0.0000 C   0  0  0  0  0  0  0  0  0  0  0  0
    4.4599   -8.9444    0.0000 C   0  0  1  0  0  0  0  0  0  0  0  0
    5.1743   -9.3569    0.0000 C   0  0  1  0  0  0  0  0  0  0  0  0
    5.8888   -8.9444    0.0000 C   0  0  1  0  0  0  0  0  0  0  0  0
    7.3177   -5.6444    0.0000 C   0  0  2  0  0  0  0  0  0  0  0  0
    8.0322   -5.2319    0.0000 O   0  0  0  0  0  0  0  0  0  0  0  0
    8.0322   -4.4069    0.0000 C   0  0  1  0  0  0  0  0  0  0  0  0
    7.3177   -3.9944    0.0000 C   0  0  2  0  0  0  0  0  0  0  0  0
    6.6033   -4.4069    0.0000 C   0  0  1  0  0  0  0  0  0  0  0  0
    6.6033   -5.2319    0.0000 C   0  0  1  0  0  0  0  0  0  0  0  0
    5.8888   -5.6444    0.0000 O   0  0  0  0  0  0  0  0  0  0  0  0
    5.8888   -3.9944    0.0000 O   0  0  0  0  0  0  0  0  0  0  0  0
    7.3177   -3.1694    0.0000 O   0  0  0  0  0  0  0  0  0  0  0  0
    5.1743  -10.1819    0.0000 O   0  0  0  0  0  0  0  0  0  0  0  0
    6.6033   -9.3569    0.0000 O   0  0  0  0  0  0  0  0  0  0  0  0
    3.7454   -9.3569    0.0000 O   0  0  0  0  0  0  0  0  0  0  0  0
    8.7467   -3.9944    0.0000 C   0  0  0  0  0  0  0  0  0  0  0  0
    8.7467   -3.1694    0.0000 O   0  0  0  0  0  0  0  0  0  0  0  0
  1  2  2  0  0  0  0
  2  3  1  0  0  0  0
  3  4  2  0  0  0  0
  4  5  1  0  0  0  0
  5  6  2  0  0  0  0
  6  1  1  0  0  0  0
  4  7  1  0  0  0  0
  7  8  1  0  0  0  0
  8  9  2  0  0  0  0
  9 10  1  0  0  0  0
 10  5  1  0  0  0  0
  9 11  1  0  0  0  0
 11 12  1  0  0  0  0
 11 13  2  0  0  0  0
 13 14  1  0  0  0  0
 14 15  2  0  0  0  0
 15 16  1  0  0  0  0
 16 12  2  0  0  0  0
  7 17  2  0  0  0  0
  3 18  1  0  0  0  0
  1 19  1  0  0  0  0
 20  2  1  6  0  0  0
 20 21  1  0  0  0  0
 21 22  1  0  0  0  0
 22 23  1  0  0  0  0
 23 24  1  0  0  0  0
 24 25  1  0  0  0  0
 25 20  1  0  0  0  0
 26  6  1  1  0  0  0
 26 27  1  0  0  0  0
 27 28  1  0  0  0  0
 28 29  1  0  0  0  0
 29 30  1  0  0  0  0
 30 31  1  0  0  0  0
 31 26  1  0  0  0  0
 31 32  1  6  0  0  0
 30 33  1  1  0  0  0
 29 34  1  6  0  0  0
 24 35  1  1  0  0  0
 25 36  1  6  0  0  0
 23 37  1  1  0  0  0
 28 38  1  1  0  0  0
 38 39  1  0  0  0  0
M  END
>  <cdx:fragmentId>
265

$$$$
