87537.cdx
  Mrv1902 05222410242D          

 10  9  0  0  0  0            999 V2000
    5.4666   -4.6071    0.0000 C   0  0  0  0  0  0  0  0  0  0  0  0
    4.7521   -5.0196    0.0000 C   0  0  0  0  0  0  0  0  0  0  0  0
    4.0377   -4.6071    0.0000 C   0  0  0  0  0  0  0  0  0  0  0  0
    4.0377   -3.7821    0.0000 C   0  0  0  0  0  0  0  0  0  0  0  0
    5.4666   -3.7821    0.0000 O   0  0  0  0  0  0  0  0  0  0  0  0
    6.1811   -5.0196    0.0000 O   0  0  0  0  0  0  0  0  0  0  0  0
    3.3232   -5.0196    0.0000 C   0  0  0  0  0  0  0  0  0  0  0  0
    3.3232   -4.1946    0.0000 O   0  0  0  0  0  0  0  0  0  0  0  0
    6.8956   -4.6071    0.0000 C   0  0  0  0  0  0  0  0  0  0  0  0
    7.6100   -5.0196    0.0000 C   0  0  0  0  0  0  0  0  0  0  0  0
  1  2  1  0  0  0  0
  2  3  1  0  0  0  0
  3  4  1  0  0  0  0
  1  5  2  0  0  0  0
  1  6  1  0  0  0  0
  3  7  1  0  0  0  0
  3  8  1  0  0  0  0
  9 10  1  0  0  0  0
  6  9  1  0  0  0  0
M  END
>  <cdx:groupId>
31

>  <cdx:fragmentId>
5

$$$$
