8754.cdx
  Mrv1902 05222410232D          

 31 34  0  0  0  0            999 V2000
    7.1602   -6.6550    0.0000 C   0  0  0  0  0  0  0  0  0  0  0  0
    7.1602   -7.4800    0.0000 C   0  0  0  0  0  0  0  0  0  0  0  0
    7.8746   -7.8925    0.0000 C   0  0  0  0  0  0  0  0  0  0  0  0
    8.5891   -7.4800    0.0000 C   0  0  0  0  0  0  0  0  0  0  0  0
    8.5891   -6.6550    0.0000 C   0  0  0  0  0  0  0  0  0  0  0  0
    7.8746   -6.2425    0.0000 C   0  0  0  0  0  0  0  0  0  0  0  0
    9.3036   -7.8925    0.0000 C   0  0  0  0  0  0  0  0  0  0  0  0
   10.0180   -7.4800    0.0000 C   0  0  0  0  0  0  0  0  0  0  0  0
   10.0180   -6.6550    0.0000 C   0  0  0  0  0  0  0  0  0  0  0  0
    9.3036   -6.2425    0.0000 O   0  0  0  0  0  0  0  0  0  0  0  0
   10.7325   -6.2425    0.0000 C   0  0  0  0  0  0  0  0  0  0  0  0
   10.7325   -5.4175    0.0000 C   0  0  0  0  0  0  0  0  0  0  0  0
   11.4470   -6.6550    0.0000 C   0  0  0  0  0  0  0  0  0  0  0  0
   12.1615   -6.2425    0.0000 C   0  0  0  0  0  0  0  0  0  0  0  0
   12.1615   -5.4175    0.0000 C   0  0  0  0  0  0  0  0  0  0  0  0
   11.4470   -5.0050    0.0000 C   0  0  0  0  0  0  0  0  0  0  0  0
    9.3036   -8.7175    0.0000 O   0  0  0  0  0  0  0  0  0  0  0  0
    7.8746   -8.7175    0.0000 O   0  0  0  0  0  0  0  0  0  0  0  0
    4.2081   -6.6142    0.0000 C   0  0  2  0  0  0  0  0  0  0  0  0
    4.1970   -7.4391    0.0000 C   0  0  2  0  0  0  0  0  0  0  0  0
    4.9059   -7.8612    0.0000 C   0  0  1  0  0  0  0  0  0  0  0  0
    5.6259   -7.4583    0.0000 C   0  0  2  0  0  0  0  0  0  0  0  0
    5.6369   -6.6334    0.0000 C   0  0  1  0  0  0  0  0  0  0  0  0
    4.9281   -6.2113    0.0000 O   0  0  0  0  0  0  0  0  0  0  0  0
    6.3569   -6.2305    0.0000 O   0  0  0  0  0  0  0  0  0  0  0  0
    3.4993   -6.1921    0.0000 C   0  0  0  0  0  0  0  0  0  0  0  0
    4.8948   -8.6861    0.0000 O   0  0  0  0  0  0  0  0  0  0  0  0
    6.3347   -7.8804    0.0000 O   0  0  0  0  0  0  0  0  0  0  0  0
    3.4771   -7.8419    0.0000 O   0  0  0  0  0  0  0  0  0  0  0  0
    3.5104   -5.3672    0.0000 O   0  0  0  0  0  0  0  0  0  0  0  0
    2.7793   -6.5950    0.0000 O   0  0  0  0  0  0  0  0  0  0  0  0
  1  2  2  0  0  0  0
  2  3  1  0  0  0  0
  3  4  2  0  0  0  0
  4  5  1  0  0  0  0
  5  6  2  0  0  0  0
  6  1  1  0  0  0  0
  4  7  1  0  0  0  0
  7  8  1  0  0  0  0
  8  9  2  0  0  0  0
  9 10  1  0  0  0  0
 10  5  1  0  0  0  0
  9 11  1  0  0  0  0
 11 12  1  0  0  0  0
 11 13  2  0  0  0  0
 13 14  1  0  0  0  0
 14 15  2  0  0  0  0
 15 16  1  0  0  0  0
 16 12  2  0  0  0  0
  7 17  2  0  0  0  0
  3 18  1  0  0  0  0
 19 20  1  0  0  0  0
 20 21  1  0  0  0  0
 21 22  1  0  0  0  0
 22 23  1  0  0  0  0
 23 24  1  0  0  0  0
 24 19  1  0  0  0  0
 23 25  1  1  0  0  0
 19 26  1  1  0  0  0
 21 27  1  1  0  0  0
 22 28  1  6  0  0  0
 20 29  1  6  0  0  0
 26 30  2  0  0  0  0
 26 31  1  0  0  0  0
  1 25  1  0  0  0  0
M  END
>  <cdx:fragmentId>
5

$$$$
