875572.cdx
  Mrv1902 05222410212D          

 30 32  0  0  0  0            999 V2000
    7.6417   -6.8832    0.0000 C   0  0  1  0  0  0  0  0  0  0  0  0
    8.3561   -6.4707    0.0000 C   0  0  1  0  0  0  0  0  0  0  0  0
    8.3561   -5.6457    0.0000 C   0  0  1  0  0  0  0  0  0  0  0  0
    7.6417   -5.2332    0.0000 C   0  0  0  0  0  0  0  0  0  0  0  0
    6.9272   -5.6457    0.0000 C   0  0  0  0  0  0  0  0  0  0  0  0
    6.9272   -6.4707    0.0000 O   0  0  0  0  0  0  0  0  0  0  0  0
    9.1408   -5.3908    0.0000 C   0  0  0  0  0  0  0  0  0  0  0  0
    9.6257   -6.0582    0.0000 C   0  0  0  0  0  0  0  0  0  0  0  0
    9.1408   -6.7257    0.0000 C   0  0  0  0  0  0  0  0  0  0  0  0
    7.6417   -4.4082    0.0000 C   0  0  0  0  0  0  0  0  0  0  0  0
    8.3561   -3.9957    0.0000 O   0  0  0  0  0  0  0  0  0  0  0  0
    6.9272   -3.9957    0.0000 O   0  0  0  0  0  0  0  0  0  0  0  0
    7.6417   -7.7082    0.0000 O   0  0  0  0  0  0  0  0  0  0  0  0
    6.2127   -7.7082    0.0000 O   0  0  0  0  0  0  0  0  0  0  0  0
    6.9272   -8.1207    0.0000 C   0  0  2  0  0  0  0  0  0  0  0  0
    6.9272   -8.9457    0.0000 C   0  0  1  0  0  0  0  0  0  0  0  0
    6.2127   -9.3582    0.0000 C   0  0  2  0  0  0  0  0  0  0  0  0
    5.4983   -8.9457    0.0000 C   0  0  1  0  0  0  0  0  0  0  0  0
    5.4983   -8.1207    0.0000 C   0  0  1  0  0  0  0  0  0  0  0  0
    4.7838   -7.7082    0.0000 C   0  0  0  0  0  0  0  0  0  0  0  0
    4.0693   -8.1207    0.0000 O   0  0  0  0  0  0  0  0  0  0  0  0
    4.7838   -9.3582    0.0000 O   0  0  0  0  0  0  0  0  0  0  0  0
    6.2127  -10.1832    0.0000 O   0  0  0  0  0  0  0  0  0  0  0  0
    7.6417   -9.3582    0.0000 O   0  0  0  0  0  0  0  0  0  0  0  0
    9.3957   -4.6062    0.0000 O   0  0  0  0  0  0  0  0  0  0  0  0
    9.3957   -7.5103    0.0000 C   0  0  0  0  0  0  0  0  0  0  0  0
   10.4507   -6.0582    0.0000 O   0  0  0  0  0  0  0  0  0  0  0  0
    8.4424   -4.8253    0.0000 O   0  0  0  0  0  0  0  0  0  0  0  0
    8.4424   -7.2912    0.0000 H   0  0  0  0  0  0  0  0  0  0  0  0
    6.9272   -3.1707    0.0000 C   0  0  0  0  0  0  0  0  0  0  0  0
  1  2  1  0  0  0  0
  2  3  1  0  0  0  0
  3  4  1  0  0  0  0
  4  5  2  0  0  0  0
  5  6  1  0  0  0  0
  1  6  1  0  0  0  0
  7  8  1  0  0  0  0
  8  9  2  0  0  0  0
  9  2  1  0  0  0  0
  7  3  1  0  0  0  0
 10 11  2  0  0  0  0
 10 12  1  0  0  0  0
  4 10  1  0  0  0  0
 14 15  1  0  0  0  0
 15 16  1  0  0  0  0
 16 17  1  0  0  0  0
 17 18  1  0  0  0  0
 18 19  1  0  0  0  0
 14 19  1  0  0  0  0
 20 21  1  0  0  0  0
 19 20  1  1  0  0  0
 18 22  1  6  0  0  0
 17 23  1  1  0  0  0
 16 24  1  6  0  0  0
 15 13  1  1  0  0  0
  1 13  1  6  0  0  0
  7 25  2  0  0  0  0
  9 26  1  0  0  0  0
  8 27  1  0  0  0  0
  3 28  1  6  0  0  0
  2 29  1  6  0  0  0
 12 30  1  0  0  0  0
M  END
>  <cdx:fragmentId>
3814

$$$$
