875547.cdx
  Mrv1902 05222410242D          

 57 63  0  0  0  0            999 V2000
    2.9638   -9.5325    0.0000 O   0  0  0  0  0  0  0  0  0  0  0  0
    2.9638  -10.3575    0.0000 C   0  0  2  0  0  0  0  0  0  0  0  0
    2.2494  -10.7700    0.0000 C   0  0  1  0  0  0  0  0  0  0  0  0
    1.5349  -10.3575    0.0000 C   0  0  2  0  0  0  0  0  0  0  0  0
    1.5349   -9.5325    0.0000 C   0  0  1  0  0  0  0  0  0  0  0  0
    2.2494   -9.1200    0.0000 C   0  0  1  0  0  0  0  0  0  0  0  0
    2.2494  -11.5950    0.0000 O   0  0  0  0  0  0  0  0  0  0  0  0
    0.8204  -10.7700    0.0000 O   0  0  0  0  0  0  0  0  0  0  0  0
    0.8204   -9.1200    0.0000 O   0  0  0  0  0  0  0  0  0  0  0  0
    2.2494   -8.2950    0.0000 C   0  0  0  0  0  0  0  0  0  0  0  0
    1.5349   -7.8825    0.0000 O   0  0  0  0  0  0  0  0  0  0  0  0
    3.6783  -10.7700    0.0000 O   0  0  0  0  0  0  0  0  0  0  0  0
    5.8217   -9.5325    0.0000 O   0  0  0  0  0  0  0  0  0  0  0  0
    5.8217  -10.3575    0.0000 C   0  0  2  0  0  0  0  0  0  0  0  0
    5.1072  -10.7700    0.0000 C   0  0  1  0  0  0  0  0  0  0  0  0
    4.3928  -10.3575    0.0000 C   0  0  2  0  0  0  0  0  0  0  0  0
    4.3928   -9.5325    0.0000 C   0  0  2  0  0  0  0  0  0  0  0  0
    5.1072   -9.1200    0.0000 C   0  0  1  0  0  0  0  0  0  0  0  0
    5.1072   -8.2950    0.0000 C   0  0  0  0  0  0  0  0  0  0  0  0
    3.6783   -9.1200    0.0000 O   0  0  0  0  0  0  0  0  0  0  0  0
    5.1072  -11.5950    0.0000 O   0  0  0  0  0  0  0  0  0  0  0  0
    6.5362  -10.7700    0.0000 O   0  0  0  0  0  0  0  0  0  0  0  0
    7.9651   -9.1200    0.0000 C   0  0  0  0  0  0  0  0  0  0  0  0
    7.2506   -9.5325    0.0000 C   0  0  0  0  0  0  0  0  0  0  0  0
    7.2506  -10.3575    0.0000 C   0  0  1  0  0  0  0  0  0  0  0  0
    7.9651  -10.7700    0.0000 C   0  0  1  0  0  0  0  0  0  0  0  0
    8.6796  -10.3575    0.0000 C   0  0  2  0  0  0  0  0  0  0  0  0
    9.3941  -10.7700    0.0000 C   0  0  0  0  0  0  0  0  0  0  0  0
   10.1085  -10.3575    0.0000 C   0  0  0  0  0  0  0  0  0  0  0  0
   10.1085   -9.5325    0.0000 C   0  0  1  0  0  0  0  0  0  0  0  0
   10.8230   -9.1200    0.0000 C   0  0  2  0  0  0  0  0  0  0  0  0
   11.5375   -9.5325    0.0000 C   0  0  0  0  0  0  0  0  0  0  0  0
   12.2519   -9.1200    0.0000 C   0  0  1  0  0  0  0  0  0  0  0  0
   12.2519   -8.2950    0.0000 C   0  0  1  0  0  0  0  0  0  0  0  0
   12.9664   -7.8825    0.0000 C   0  0  0  0  0  0  0  0  0  0  0  0
   12.9664   -7.0575    0.0000 C   0  0  0  0  0  0  0  0  0  0  0  0
   12.2519   -6.6450    0.0000 C   0  0  1  0  0  0  0  0  0  0  0  0
   11.5375   -7.0575    0.0000 C   0  0  0  0  0  0  0  0  0  0  0  0
   11.5375   -7.8825    0.0000 C   0  0  0  0  0  0  0  0  0  0  0  0
   10.8230   -8.2950    0.0000 C   0  0  0  0  0  0  0  0  0  0  0  0
   10.1085   -7.8825    0.0000 C   0  0  0  0  0  0  0  0  0  0  0  0
    9.3941   -8.2950    0.0000 C   0  0  0  0  0  0  0  0  0  0  0  0
    9.3941   -9.1200    0.0000 C   0  0  2  0  0  0  0  0  0  0  0  0
    8.6796   -9.5325    0.0000 C   0  0  1  0  0  0  0  0  0  0  0  0
    8.6796   -8.7075    0.0000 C   0  0  0  0  0  0  0  0  0  0  0  0
   11.8394   -5.9305    0.0000 C   0  0  0  0  0  0  0  0  0  0  0  0
   12.6644   -5.9305    0.0000 C   0  0  0  0  0  0  0  0  0  0  0  0
   10.8230   -9.9450    0.0000 C   0  0  0  0  0  0  0  0  0  0  0  0
   10.1085   -8.7075    0.0000 C   0  0  0  0  0  0  0  0  0  0  0  0
    7.5526  -11.4844    0.0000 C   0  0  0  0  0  0  0  0  0  0  0  0
   12.9664   -8.7075    0.0000 C   0  0  0  0  0  0  0  0  0  0  0  0
   13.6809   -8.2950    0.0000 O   0  0  0  0  0  0  0  0  0  0  0  0
    8.3776  -11.4844    0.0000 C   0  0  0  0  0  0  0  0  0  0  0  0
    7.9651  -12.1989    0.0000 O   0  0  0  0  0  0  0  0  0  0  0  0
   12.9664   -9.5325    0.0000 O   0  0  0  0  0  0  0  0  0  0  0  0
    8.6796  -11.1825    0.0000 H   0  0  0  0  0  0  0  0  0  0  0  0
    9.3941   -9.9450    0.0000 H   0  0  0  0  0  0  0  0  0  0  0  0
  1  2  1  0  0  0  0
  2  3  1  0  0  0  0
  3  4  1  0  0  0  0
  4  5  1  0  0  0  0
  5  6  1  0  0  0  0
  1  6  1  0  0  0  0
  3  7  1  6  0  0  0
  4  8  1  1  0  0  0
  5  9  1  6  0  0  0
 10 11  1  0  0  0  0
  6 10  1  1  0  0  0
 13 14  1  0  0  0  0
 14 15  1  0  0  0  0
 15 16  1  0  0  0  0
 16 17  1  0  0  0  0
 17 18  1  0  0  0  0
 13 18  1  0  0  0  0
 18 19  1  1  0  0  0
 17 20  1  1  0  0  0
 15 21  1  6  0  0  0
 23 24  1  0  0  0  0
 24 25  1  0  0  0  0
 25 26  1  0  0  0  0
 26 27  1  0  0  0  0
 27 28  1  0  0  0  0
 28 29  1  0  0  0  0
 29 30  1  0  0  0  0
 30 31  1  0  0  0  0
 31 32  1  0  0  0  0
 32 33  1  0  0  0  0
 33 34  1  0  0  0  0
 34 35  1  0  0  0  0
 35 36  1  0  0  0  0
 36 37  1  0  0  0  0
 37 38  1  0  0  0  0
 38 39  1  0  0  0  0
 34 39  1  0  0  0  0
 39 40  2  0  0  0  0
 31 40  1  0  0  0  0
 40 41  1  0  0  0  0
 41 42  2  0  0  0  0
 42 43  1  0  0  0  0
 30 43  1  0  0  0  0
 43 44  1  0  0  0  0
 27 44  1  0  0  0  0
 23 44  1  0  0  0  0
 44 45  1  1  0  0  0
 37 46  1  1  0  0  0
 37 47  1  6  0  0  0
 31 48  1  6  0  0  0
 30 49  1  1  0  0  0
 26 50  1  1  0  0  0
 51 52  1  0  0  0  0
 34 51  1  1  0  0  0
 53 54  1  0  0  0  0
 26 53  1  6  0  0  0
 33 55  1  1  0  0  0
 25 22  1  1  0  0  0
 14 22  1  1  0  0  0
 16 12  1  1  0  0  0
  2 12  1  1  0  0  0
 27 56  1  6  0  0  0
 43 57  1  6  0  0  0
M  END
>  <cdx:fragmentId>
30942

$$$$
