8755.cdx
  Mrv1902 05222410232D          

 30 33  0  0  0  0            999 V2000
    4.5202   -9.1162    0.0000 C   0  0  0  0  0  0  0  0  0  0  0  0
    4.5202   -9.9413    0.0000 C   0  0  0  0  0  0  0  0  0  0  0  0
    5.2346  -10.3537    0.0000 C   0  0  0  0  0  0  0  0  0  0  0  0
    5.9491   -9.9413    0.0000 C   0  0  0  0  0  0  0  0  0  0  0  0
    5.9491   -9.1162    0.0000 C   0  0  0  0  0  0  0  0  0  0  0  0
    5.2346   -8.7037    0.0000 C   0  0  0  0  0  0  0  0  0  0  0  0
    6.6636  -10.3537    0.0000 C   0  0  0  0  0  0  0  0  0  0  0  0
    7.3780   -9.9413    0.0000 C   0  0  0  0  0  0  0  0  0  0  0  0
    7.3780   -9.1162    0.0000 C   0  0  0  0  0  0  0  0  0  0  0  0
    6.6636   -8.7037    0.0000 O   0  0  0  0  0  0  0  0  0  0  0  0
    8.0925   -8.7037    0.0000 C   0  0  0  0  0  0  0  0  0  0  0  0
    8.0925   -7.8788    0.0000 C   0  0  0  0  0  0  0  0  0  0  0  0
    8.8070   -9.1162    0.0000 C   0  0  0  0  0  0  0  0  0  0  0  0
    9.5215   -8.7037    0.0000 C   0  0  0  0  0  0  0  0  0  0  0  0
    9.5215   -7.8788    0.0000 C   0  0  0  0  0  0  0  0  0  0  0  0
    8.8070   -7.4663    0.0000 C   0  0  0  0  0  0  0  0  0  0  0  0
    6.6636  -11.1788    0.0000 O   0  0  0  0  0  0  0  0  0  0  0  0
    5.2346  -11.1788    0.0000 O   0  0  0  0  0  0  0  0  0  0  0  0
    3.8057   -8.7037    0.0000 O   0  0  0  0  0  0  0  0  0  0  0  0
    5.9646   -6.6459    0.0000 C   0  0  2  0  0  0  0  0  0  0  0  0
    5.2537   -6.2273    0.0000 C   0  0  2  0  0  0  0  0  0  0  0  0
    4.5357   -6.6337    0.0000 C   0  0  1  0  0  0  0  0  0  0  0  0
    4.5286   -7.4587    0.0000 C   0  0  2  0  0  0  0  0  0  0  0  0
    5.2395   -7.8773    0.0000 C   0  0  1  0  0  0  0  0  0  0  0  0
    5.9575   -7.4709    0.0000 O   0  0  0  0  0  0  0  0  0  0  0  0
    6.6826   -6.2396    0.0000 C   0  0  0  0  0  0  0  0  0  0  0  0
    6.6896   -5.4146    0.0000 O   0  0  0  0  0  0  0  0  0  0  0  0
    3.8248   -6.2151    0.0000 O   0  0  0  0  0  0  0  0  0  0  0  0
    5.2608   -5.4024    0.0000 O   0  0  0  0  0  0  0  0  0  0  0  0
    3.8106   -7.8650    0.0000 O   0  0  0  0  0  0  0  0  0  0  0  0
  1  2  2  0  0  0  0
  2  3  1  0  0  0  0
  3  4  2  0  0  0  0
  4  5  1  0  0  0  0
  5  6  2  0  0  0  0
  6  1  1  0  0  0  0
  4  7  1  0  0  0  0
  7  8  1  0  0  0  0
  8  9  2  0  0  0  0
  9 10  1  0  0  0  0
 10  5  1  0  0  0  0
  9 11  1  0  0  0  0
 11 12  1  0  0  0  0
 11 13  2  0  0  0  0
 13 14  1  0  0  0  0
 14 15  2  0  0  0  0
 15 16  1  0  0  0  0
 16 12  2  0  0  0  0
  7 17  2  0  0  0  0
  3 18  1  0  0  0  0
  1 19  1  0  0  0  0
 20 21  1  0  0  0  0
 21 22  1  0  0  0  0
 22 23  1  0  0  0  0
 23 24  1  0  0  0  0
 24 25  1  0  0  0  0
 25 20  1  0  0  0  0
 20 26  1  1  0  0  0
 26 27  1  0  0  0  0
 22 28  1  1  0  0  0
 21 29  1  6  0  0  0
 23 30  1  6  0  0  0
 24  6  1  1  0  0  0
M  END
>  <cdx:fragmentId>
112

$$$$
