8757.cdx
  Mrv1902 05222410242D          

 41 45  0  0  0  0            999 V2000
    6.4727   -8.1538    0.0000 C   0  0  0  0  0  0  0  0  0  0  0  0
    6.4727   -8.9788    0.0000 C   0  0  0  0  0  0  0  0  0  0  0  0
    7.1871   -9.3913    0.0000 C   0  0  0  0  0  0  0  0  0  0  0  0
    7.9016   -8.9788    0.0000 C   0  0  0  0  0  0  0  0  0  0  0  0
    7.9016   -8.1538    0.0000 C   0  0  0  0  0  0  0  0  0  0  0  0
    7.1871   -7.7413    0.0000 C   0  0  0  0  0  0  0  0  0  0  0  0
    8.6161   -9.3913    0.0000 C   0  0  0  0  0  0  0  0  0  0  0  0
    9.3305   -8.9788    0.0000 C   0  0  0  0  0  0  0  0  0  0  0  0
    9.3305   -8.1538    0.0000 C   0  0  0  0  0  0  0  0  0  0  0  0
    8.6161   -7.7413    0.0000 O   0  0  0  0  0  0  0  0  0  0  0  0
   10.0450   -7.7413    0.0000 C   0  0  0  0  0  0  0  0  0  0  0  0
   10.0450   -6.9162    0.0000 C   0  0  0  0  0  0  0  0  0  0  0  0
   10.7595   -8.1538    0.0000 C   0  0  0  0  0  0  0  0  0  0  0  0
   11.4740   -7.7413    0.0000 C   0  0  0  0  0  0  0  0  0  0  0  0
   11.4740   -6.9162    0.0000 C   0  0  0  0  0  0  0  0  0  0  0  0
   10.7595   -6.5038    0.0000 C   0  0  0  0  0  0  0  0  0  0  0  0
    8.6161  -10.2163    0.0000 O   0  0  0  0  0  0  0  0  0  0  0  0
    7.1871  -10.2163    0.0000 O   0  0  0  0  0  0  0  0  0  0  0  0
    5.7582   -7.7413    0.0000 O   0  0  0  0  0  0  0  0  0  0  0  0
    7.9171   -5.6834    0.0000 C   0  0  2  0  0  0  0  0  0  0  0  0
    7.2062   -5.2648    0.0000 C   0  0  2  0  0  0  0  0  0  0  0  0
    6.4882   -5.6712    0.0000 C   0  0  1  0  0  0  0  0  0  0  0  0
    6.4811   -6.4962    0.0000 C   0  0  2  0  0  0  0  0  0  0  0  0
    7.1920   -6.9148    0.0000 C   0  0  1  0  0  0  0  0  0  0  0  0
    7.9100   -6.5084    0.0000 O   0  0  0  0  0  0  0  0  0  0  0  0
    8.6351   -5.2771    0.0000 C   0  0  0  0  0  0  0  0  0  0  0  0
    8.6421   -4.4521    0.0000 O   0  0  0  0  0  0  0  0  0  0  0  0
    5.7773   -5.2526    0.0000 O   0  0  0  0  0  0  0  0  0  0  0  0
    7.2133   -4.4399    0.0000 O   0  0  0  0  0  0  0  0  0  0  0  0
    5.7631   -6.9025    0.0000 O   0  0  0  0  0  0  0  0  0  0  0  0
    4.3100   -9.3815    0.0000 C   0  0  2  0  0  0  0  0  0  0  0  0
    4.3033  -10.2064    0.0000 C   0  0  2  0  0  0  0  0  0  0  0  0
    5.0144  -10.6247    0.0000 C   0  0  1  0  0  0  0  0  0  0  0  0
    5.7322  -10.2180    0.0000 C   0  0  2  0  0  0  0  0  0  0  0  0
    5.7389   -9.3931    0.0000 C   0  0  1  0  0  0  0  0  0  0  0  0
    5.0278   -8.9748    0.0000 O   0  0  0  0  0  0  0  0  0  0  0  0
    3.5989   -8.9632    0.0000 C   0  0  0  0  0  0  0  0  0  0  0  0
    2.8811   -9.3699    0.0000 O   0  0  0  0  0  0  0  0  0  0  0  0
    5.0077  -11.4497    0.0000 O   0  0  0  0  0  0  0  0  0  0  0  0
    3.5855  -10.6131    0.0000 O   0  0  0  0  0  0  0  0  0  0  0  0
    6.4433  -10.6363    0.0000 O   0  0  0  0  0  0  0  0  0  0  0  0
  1  2  2  0  0  0  0
  2  3  1  0  0  0  0
  3  4  2  0  0  0  0
  4  5  1  0  0  0  0
  5  6  2  0  0  0  0
  6  1  1  0  0  0  0
  4  7  1  0  0  0  0
  7  8  1  0  0  0  0
  8  9  2  0  0  0  0
  9 10  1  0  0  0  0
 10  5  1  0  0  0  0
  9 11  1  0  0  0  0
 11 12  1  0  0  0  0
 11 13  2  0  0  0  0
 13 14  1  0  0  0  0
 14 15  2  0  0  0  0
 15 16  1  0  0  0  0
 16 12  2  0  0  0  0
  7 17  2  0  0  0  0
  3 18  1  0  0  0  0
  1 19  1  0  0  0  0
 20 21  1  0  0  0  0
 21 22  1  0  0  0  0
 22 23  1  0  0  0  0
 23 24  1  0  0  0  0
 24 25  1  0  0  0  0
 25 20  1  0  0  0  0
 20 26  1  1  0  0  0
 26 27  1  0  0  0  0
 22 28  1  1  0  0  0
 21 29  1  6  0  0  0
 23 30  1  6  0  0  0
 24  6  1  1  0  0  0
 31 32  1  0  0  0  0
 32 33  1  0  0  0  0
 33 34  1  0  0  0  0
 34 35  1  0  0  0  0
 35 36  1  0  0  0  0
 36 31  1  0  0  0  0
 31 37  1  1  0  0  0
 37 38  1  0  0  0  0
 33 39  1  1  0  0  0
 32 40  1  6  0  0  0
 34 41  1  6  0  0  0
 35  2  1  1  0  0  0
M  END
>  <cdx:fragmentId>
112

$$$$
