876160.cdx
  Mrv1902 05222410272D          

 15 15  0  0  0  0            999 V2000
   13.3257   -8.4232    0.0000 C   0  0  0  0  0  0  0  0  0  0  0  0
   14.0394   -8.8357    0.0000 O   0  0  0  0  0  0  0  0  0  0  0  0
   14.7544   -8.4232    0.0000 C   0  0  0  0  0  0  0  0  0  0  0  0
   12.6108   -8.8357    0.0000 C   0  0  0  0  0  0  0  0  0  0  0  0
   13.3257   -7.5982    0.0000 O   0  0  0  0  0  0  0  0  0  0  0  0
   15.4694   -8.8357    0.0000 C   0  0  0  0  0  0  0  0  0  0  0  0
   14.7544   -7.5982    0.0000 C   0  0  0  0  0  0  0  0  0  0  0  0
   15.4694   -9.6607    0.0000 O   0  0  0  0  0  0  0  0  0  0  0  0
   16.1830   -8.4232    0.0000 C   0  0  0  0  0  0  0  0  0  0  0  0
   15.4694   -7.1857    0.0000 C   0  0  0  0  0  0  0  0  0  0  0  0
   16.1830  -10.0731    0.0000 C   0  0  0  0  0  0  0  0  0  0  0  0
   16.1830   -7.5982    0.0000 C   0  0  0  0  0  0  0  0  0  0  0  0
   16.8978   -7.1857    0.0000 C   0  0  0  0  0  0  0  0  0  0  0  0
   17.6122   -7.5983    0.0000 C   0  0  0  0  0  0  0  0  0  0  0  0
   18.3267   -7.1859    0.0000 C   0  0  0  0  0  0  0  0  0  0  0  0
  1  2  1  0  0  0  0
  3  2  1  0  0  0  0
  4  1  1  0  0  0  0
  5  1  2  0  0  0  0
  6  3  1  0  0  0  0
  7  3  2  0  0  0  0
  8  6  1  0  0  0  0
  9  6  2  0  0  0  0
 10  7  1  0  0  0  0
 11  8  1  0  0  0  0
 12  9  1  0  0  0  0
 13 12  1  0  0  0  0
 10 12  2  0  0  0  0
 13 14  2  0  0  0  0
 14 15  1  0  0  0  0
M  END
>  <cdx:fragmentId>
14972

$$$$
