8765.cdx
  Mrv1902 05222410232D          

 30 33  0  0  0  0            999 V2000
    4.5202   -9.1162    0.0000 C   0  0  0  0  0  0  0  0  0  0  0  0
    4.5202   -9.9413    0.0000 C   0  0  0  0  0  0  0  0  0  0  0  0
    5.2346  -10.3537    0.0000 C   0  0  0  0  0  0  0  0  0  0  0  0
    5.9491   -9.9413    0.0000 C   0  0  0  0  0  0  0  0  0  0  0  0
    5.9491   -9.1162    0.0000 C   0  0  0  0  0  0  0  0  0  0  0  0
    5.2346   -8.7037    0.0000 C   0  0  0  0  0  0  0  0  0  0  0  0
    6.6636  -10.3537    0.0000 C   0  0  0  0  0  0  0  0  0  0  0  0
    7.3780   -9.9413    0.0000 C   0  0  0  0  0  0  0  0  0  0  0  0
    7.3780   -9.1162    0.0000 C   0  0  0  0  0  0  0  0  0  0  0  0
    6.6636   -8.7037    0.0000 O   0  0  0  0  0  0  0  0  0  0  0  0
    8.0925   -8.7037    0.0000 C   0  0  0  0  0  0  0  0  0  0  0  0
    8.0925   -7.8788    0.0000 C   0  0  0  0  0  0  0  0  0  0  0  0
    8.8070   -9.1162    0.0000 C   0  0  0  0  0  0  0  0  0  0  0  0
    9.5215   -8.7037    0.0000 C   0  0  0  0  0  0  0  0  0  0  0  0
    9.5215   -7.8788    0.0000 C   0  0  0  0  0  0  0  0  0  0  0  0
    8.8070   -7.4663    0.0000 C   0  0  0  0  0  0  0  0  0  0  0  0
    6.6636  -11.1788    0.0000 O   0  0  0  0  0  0  0  0  0  0  0  0
    5.2346  -11.1788    0.0000 O   0  0  0  0  0  0  0  0  0  0  0  0
    3.8057   -8.7037    0.0000 O   0  0  0  0  0  0  0  0  0  0  0  0
    4.5053   -6.4960    0.0000 C   0  0  2  0  0  0  0  0  0  0  0  0
    3.7943   -6.0776    0.0000 C   0  0  2  0  0  0  0  0  0  0  0  0
    3.0764   -6.4841    0.0000 C   0  0  1  0  0  0  0  0  0  0  0  0
    3.0696   -7.3091    0.0000 C   0  0  2  0  0  0  0  0  0  0  0  0
    3.7806   -7.7275    0.0000 C   0  0  1  0  0  0  0  0  0  0  0  0
    4.4985   -7.3210    0.0000 O   0  0  0  0  0  0  0  0  0  0  0  0
    5.2232   -6.0894    0.0000 C   0  0  0  0  0  0  0  0  0  0  0  0
    5.2300   -5.2644    0.0000 O   0  0  0  0  0  0  0  0  0  0  0  0
    2.3654   -6.0657    0.0000 O   0  0  0  0  0  0  0  0  0  0  0  0
    3.8011   -5.2526    0.0000 O   0  0  0  0  0  0  0  0  0  0  0  0
    2.3517   -7.7157    0.0000 O   0  0  0  0  0  0  0  0  0  0  0  0
  1  2  2  0  0  0  0
  2  3  1  0  0  0  0
  3  4  2  0  0  0  0
  4  5  1  0  0  0  0
  5  6  2  0  0  0  0
  6  1  1  0  0  0  0
  4  7  1  0  0  0  0
  7  8  1  0  0  0  0
  8  9  2  0  0  0  0
  9 10  1  0  0  0  0
 10  5  1  0  0  0  0
  9 11  1  0  0  0  0
 11 12  1  0  0  0  0
 11 13  2  0  0  0  0
 13 14  1  0  0  0  0
 14 15  2  0  0  0  0
 15 16  1  0  0  0  0
 16 12  2  0  0  0  0
  7 17  2  0  0  0  0
  3 18  1  0  0  0  0
  1 19  1  0  0  0  0
 20 21  1  0  0  0  0
 21 22  1  0  0  0  0
 22 23  1  0  0  0  0
 23 24  1  0  0  0  0
 24 25  1  0  0  0  0
 25 20  1  0  0  0  0
 20 26  1  1  0  0  0
 26 27  1  0  0  0  0
 22 28  1  1  0  0  0
 21 29  1  6  0  0  0
 23 30  1  6  0  0  0
 24 19  1  1  0  0  0
M  END
>  <cdx:fragmentId>
112

$$$$
