8766.cdx
  Mrv1902 05222410222D          

 41 45  0  0  0  0            999 V2000
    7.6964   -9.7763    0.0000 C   0  0  0  0  0  0  0  0  0  0  0  0
    7.6964  -10.6013    0.0000 C   0  0  0  0  0  0  0  0  0  0  0  0
    8.4109  -11.0137    0.0000 C   0  0  0  0  0  0  0  0  0  0  0  0
    9.1253  -10.6013    0.0000 C   0  0  0  0  0  0  0  0  0  0  0  0
    9.1253   -9.7763    0.0000 C   0  0  0  0  0  0  0  0  0  0  0  0
    8.4109   -9.3637    0.0000 C   0  0  0  0  0  0  0  0  0  0  0  0
    9.8398  -11.0137    0.0000 C   0  0  0  0  0  0  0  0  0  0  0  0
   10.5543  -10.6013    0.0000 C   0  0  0  0  0  0  0  0  0  0  0  0
   10.5543   -9.7763    0.0000 C   0  0  0  0  0  0  0  0  0  0  0  0
    9.8398   -9.3637    0.0000 O   0  0  0  0  0  0  0  0  0  0  0  0
   11.2688   -9.3637    0.0000 C   0  0  0  0  0  0  0  0  0  0  0  0
   11.2688   -8.5388    0.0000 C   0  0  0  0  0  0  0  0  0  0  0  0
   11.9832   -9.7763    0.0000 C   0  0  0  0  0  0  0  0  0  0  0  0
   12.6977   -9.3637    0.0000 C   0  0  0  0  0  0  0  0  0  0  0  0
   12.6977   -8.5388    0.0000 C   0  0  0  0  0  0  0  0  0  0  0  0
   11.9832   -8.1263    0.0000 C   0  0  0  0  0  0  0  0  0  0  0  0
    9.8398  -11.8387    0.0000 O   0  0  0  0  0  0  0  0  0  0  0  0
    8.4109  -11.8387    0.0000 O   0  0  0  0  0  0  0  0  0  0  0  0
    6.9819   -9.3637    0.0000 O   0  0  0  0  0  0  0  0  0  0  0  0
    4.9238   -8.6104    0.0000 C   0  0  2  0  0  0  0  0  0  0  0  0
    4.5066   -9.3222    0.0000 C   0  0  2  0  0  0  0  0  0  0  0  0
    4.9145  -10.0394    0.0000 C   0  0  1  0  0  0  0  0  0  0  0  0
    5.7395  -10.0447    0.0000 C   0  0  2  0  0  0  0  0  0  0  0  0
    6.1566   -9.3329    0.0000 C   0  0  1  0  0  0  0  0  0  0  0  0
    5.7487   -8.6158    0.0000 O   0  0  0  0  0  0  0  0  0  0  0  0
    4.5159   -7.8933    0.0000 C   0  0  0  0  0  0  0  0  0  0  0  0
    3.6909   -7.8880    0.0000 O   0  0  0  0  0  0  0  0  0  0  0  0
    3.2831   -7.1708    0.0000 C   0  0  2  0  0  0  0  0  0  0  0  0
    3.7002   -6.4591    0.0000 O   0  0  0  0  0  0  0  0  0  0  0  0
    3.2923   -5.7419    0.0000 C   0  0  1  0  0  0  0  0  0  0  0  0
    2.4673   -5.7366    0.0000 C   0  0  2  0  0  0  0  0  0  0  0  0
    2.0502   -6.4484    0.0000 C   0  0  1  0  0  0  0  0  0  0  0  0
    2.4581   -7.1655    0.0000 C   0  0  1  0  0  0  0  0  0  0  0  0
    3.7094   -5.0301    0.0000 C   0  0  0  0  0  0  0  0  0  0  0  0
    3.3016   -4.3130    0.0000 O   0  0  0  0  0  0  0  0  0  0  0  0
    4.4974  -10.7511    0.0000 O   0  0  0  0  0  0  0  0  0  0  0  0
    1.2252   -6.4430    0.0000 O   0  0  0  0  0  0  0  0  0  0  0  0
    2.0595   -5.0195    0.0000 O   0  0  0  0  0  0  0  0  0  0  0  0
    2.0410   -7.8773    0.0000 O   0  0  0  0  0  0  0  0  0  0  0  0
    3.6817   -9.3169    0.0000 O   0  0  0  0  0  0  0  0  0  0  0  0
    6.1474  -10.7618    0.0000 O   0  0  0  0  0  0  0  0  0  0  0  0
  1  2  2  0  0  0  0
  2  3  1  0  0  0  0
  3  4  2  0  0  0  0
  4  5  1  0  0  0  0
  5  6  2  0  0  0  0
  6  1  1  0  0  0  0
  4  7  1  0  0  0  0
  7  8  1  0  0  0  0
  8  9  2  0  0  0  0
  9 10  1  0  0  0  0
 10  5  1  0  0  0  0
  9 11  1  0  0  0  0
 11 12  1  0  0  0  0
 11 13  2  0  0  0  0
 13 14  1  0  0  0  0
 14 15  2  0  0  0  0
 15 16  1  0  0  0  0
 16 12  2  0  0  0  0
  7 17  2  0  0  0  0
  3 18  1  0  0  0  0
  1 19  1  0  0  0  0
 20 21  1  0  0  0  0
 21 22  1  0  0  0  0
 22 23  1  0  0  0  0
 23 24  1  0  0  0  0
 24 25  1  0  0  0  0
 25 20  1  0  0  0  0
 20 26  1  1  0  0  0
 26 27  1  0  0  0  0
 28 27  1  1  0  0  0
 28 29  1  0  0  0  0
 29 30  1  0  0  0  0
 30 31  1  0  0  0  0
 31 32  1  0  0  0  0
 32 33  1  0  0  0  0
 33 28  1  0  0  0  0
 30 34  1  1  0  0  0
 34 35  1  0  0  0  0
 22 36  1  1  0  0  0
 32 37  1  1  0  0  0
 31 38  1  6  0  0  0
 33 39  1  6  0  0  0
 21 40  1  6  0  0  0
 23 41  1  6  0  0  0
 24 19  1  1  0  0  0
M  END
>  <cdx:fragmentId>
112

$$$$
