8767.cdx
  Mrv1902 05222410222D          

 41 45  0  0  0  0            999 V2000
    6.4727   -8.8138    0.0000 C   0  0  0  0  0  0  0  0  0  0  0  0
    6.4727   -9.6387    0.0000 C   0  0  0  0  0  0  0  0  0  0  0  0
    7.1871  -10.0512    0.0000 C   0  0  0  0  0  0  0  0  0  0  0  0
    7.9016   -9.6387    0.0000 C   0  0  0  0  0  0  0  0  0  0  0  0
    7.9016   -8.8138    0.0000 C   0  0  0  0  0  0  0  0  0  0  0  0
    7.1871   -8.4013    0.0000 C   0  0  0  0  0  0  0  0  0  0  0  0
    8.6161  -10.0512    0.0000 C   0  0  0  0  0  0  0  0  0  0  0  0
    9.3305   -9.6387    0.0000 C   0  0  0  0  0  0  0  0  0  0  0  0
    9.3305   -8.8138    0.0000 C   0  0  0  0  0  0  0  0  0  0  0  0
    8.6161   -8.4013    0.0000 O   0  0  0  0  0  0  0  0  0  0  0  0
   10.0450   -8.4013    0.0000 C   0  0  0  0  0  0  0  0  0  0  0  0
   10.0450   -7.5762    0.0000 C   0  0  0  0  0  0  0  0  0  0  0  0
   10.7595   -8.8138    0.0000 C   0  0  0  0  0  0  0  0  0  0  0  0
   11.4740   -8.4013    0.0000 C   0  0  0  0  0  0  0  0  0  0  0  0
   11.4740   -7.5762    0.0000 C   0  0  0  0  0  0  0  0  0  0  0  0
   10.7595   -7.1638    0.0000 C   0  0  0  0  0  0  0  0  0  0  0  0
    8.6161  -10.8762    0.0000 O   0  0  0  0  0  0  0  0  0  0  0  0
    7.1871  -10.8762    0.0000 O   0  0  0  0  0  0  0  0  0  0  0  0
    5.7582   -8.4013    0.0000 O   0  0  0  0  0  0  0  0  0  0  0  0
    3.4966   -8.9000    0.0000 C   0  0  2  0  0  0  0  0  0  0  0  0
    3.4900   -9.7250    0.0000 C   0  0  2  0  0  0  0  0  0  0  0  0
    4.2012  -10.1432    0.0000 C   0  0  1  0  0  0  0  0  0  0  0  0
    4.9189   -9.7364    0.0000 C   0  0  2  0  0  0  0  0  0  0  0  0
    4.9255   -8.9114    0.0000 C   0  0  1  0  0  0  0  0  0  0  0  0
    4.2143   -8.4932    0.0000 O   0  0  0  0  0  0  0  0  0  0  0  0
    2.7854   -8.4819    0.0000 C   0  0  0  0  0  0  0  0  0  0  0  0
    2.0677   -8.8887    0.0000 O   0  0  0  0  0  0  0  0  0  0  0  0
    4.1946  -10.9681    0.0000 O   0  0  0  0  0  0  0  0  0  0  0  0
    2.7723  -10.1318    0.0000 O   0  0  0  0  0  0  0  0  0  0  0  0
    5.6301  -10.1545    0.0000 O   0  0  0  0  0  0  0  0  0  0  0  0
    7.9222   -6.3381    0.0000 C   0  0  2  0  0  0  0  0  0  0  0  0
    7.2113   -5.9194    0.0000 C   0  0  2  0  0  0  0  0  0  0  0  0
    6.4933   -6.3258    0.0000 C   0  0  1  0  0  0  0  0  0  0  0  0
    6.4862   -7.1508    0.0000 C   0  0  2  0  0  0  0  0  0  0  0  0
    7.1971   -7.5694    0.0000 C   0  0  1  0  0  0  0  0  0  0  0  0
    7.9151   -7.1630    0.0000 O   0  0  0  0  0  0  0  0  0  0  0  0
    8.6402   -5.9317    0.0000 C   0  0  0  0  0  0  0  0  0  0  0  0
    8.6473   -5.1067    0.0000 O   0  0  0  0  0  0  0  0  0  0  0  0
    5.7824   -5.9072    0.0000 O   0  0  0  0  0  0  0  0  0  0  0  0
    7.2184   -5.0945    0.0000 O   0  0  0  0  0  0  0  0  0  0  0  0
    5.7682   -7.5571    0.0000 O   0  0  0  0  0  0  0  0  0  0  0  0
  1  2  2  0  0  0  0
  2  3  1  0  0  0  0
  3  4  2  0  0  0  0
  4  5  1  0  0  0  0
  5  6  2  0  0  0  0
  6  1  1  0  0  0  0
  4  7  1  0  0  0  0
  7  8  1  0  0  0  0
  8  9  2  0  0  0  0
  9 10  1  0  0  0  0
 10  5  1  0  0  0  0
  9 11  1  0  0  0  0
 11 12  1  0  0  0  0
 11 13  2  0  0  0  0
 13 14  1  0  0  0  0
 14 15  2  0  0  0  0
 15 16  1  0  0  0  0
 16 12  2  0  0  0  0
  7 17  2  0  0  0  0
  3 18  1  0  0  0  0
  1 19  1  0  0  0  0
 20 21  1  0  0  0  0
 21 22  1  0  0  0  0
 22 23  1  0  0  0  0
 23 24  1  0  0  0  0
 24 25  1  0  0  0  0
 25 20  1  0  0  0  0
 20 26  1  1  0  0  0
 26 27  1  0  0  0  0
 22 28  1  1  0  0  0
 21 29  1  6  0  0  0
 23 30  1  6  0  0  0
 24 19  1  1  0  0  0
 31 32  1  0  0  0  0
 32 33  1  0  0  0  0
 33 34  1  0  0  0  0
 34 35  1  0  0  0  0
 35 36  1  0  0  0  0
 36 31  1  0  0  0  0
 31 37  1  1  0  0  0
 37 38  1  0  0  0  0
 33 39  1  1  0  0  0
 32 40  1  6  0  0  0
 34 41  1  6  0  0  0
 35  6  1  1  0  0  0
M  END
>  <cdx:fragmentId>
112

$$$$
