87715.cdx
  Mrv1902 05222410202D          

 15 16  0  0  0  0            999 V2000
    6.4261   -3.0454    0.0000 C   0  0  0  0  0  0  0  0  0  0  0  0
    7.1406   -3.4579    0.0000 C   0  0  0  0  0  0  0  0  0  0  0  0
    5.7116   -3.4579    0.0000 C   0  0  0  0  0  0  0  0  0  0  0  0
    5.7116   -4.2829    0.0000 C   0  0  0  0  0  0  0  0  0  0  0  0
    4.9972   -4.6954    0.0000 C   0  0  0  0  0  0  0  0  0  0  0  0
    4.2827   -4.2829    0.0000 C   0  0  0  0  0  0  0  0  0  0  0  0
    4.2827   -3.4579    0.0000 C   0  0  0  0  0  0  0  0  0  0  0  0
    4.9972   -3.0454    0.0000 C   0  0  0  0  0  0  0  0  0  0  0  0
    3.5682   -4.6954    0.0000 C   0  0  0  0  0  0  0  0  0  0  0  0
    3.5682   -5.5204    0.0000 C   0  0  0  0  0  0  0  0  0  0  0  0
    2.8538   -5.9329    0.0000 C   0  0  0  0  0  0  0  0  0  0  0  0
    2.1393   -5.5204    0.0000 C   0  0  0  0  0  0  0  0  0  0  0  0
    2.1393   -4.6954    0.0000 C   0  0  0  0  0  0  0  0  0  0  0  0
    2.8538   -4.2829    0.0000 C   0  0  0  0  0  0  0  0  0  0  0  0
    6.4261   -2.2204    0.0000 O   0  0  0  0  0  0  0  0  0  0  0  0
  1  2  1  0  0  0  0
  3  4  1  0  0  0  0
  4  5  2  0  0  0  0
  5  6  1  0  0  0  0
  6  7  2  0  0  0  0
  7  8  1  0  0  0  0
  3  8  2  0  0  0  0
  9 10  1  0  0  0  0
 10 11  1  0  0  0  0
 11 12  1  0  0  0  0
 12 13  1  0  0  0  0
 13 14  1  0  0  0  0
  9 14  1  0  0  0  0
  6  9  1  0  0  0  0
  1  3  1  0  0  0  0
  1 15  2  0  0  0  0
M  END
>  <cdx:groupId>
48

>  <cdx:fragmentId>
21

$$$$
