87732.cdx
  Mrv1902 05222410242D          

 24 27  0  0  0  0            999 V2000
    9.4261   -6.7634    0.0000 C   0  0  0  0  0  0  0  0  0  0  0  0
    8.7092   -7.1715    0.0000 C   0  0  0  0  0  0  0  0  0  0  0  0
    8.7042   -7.9965    0.0000 C   0  0  0  0  0  0  0  0  0  0  0  0
    9.4162   -8.4133    0.0000 C   0  0  0  0  0  0  0  0  0  0  0  0
   10.1381   -7.1802    0.0000 C   0  0  0  0  0  0  0  0  0  0  0  0
   10.1331   -8.0051    0.0000 C   0  0  0  0  0  0  0  0  0  0  0  0
   10.9162   -8.2648    0.0000 O   0  0  0  0  0  0  0  0  0  0  0  0
   11.4052   -7.6003    0.0000 C   0  0  0  0  0  0  0  0  0  0  0  0
   10.9243   -6.9300    0.0000 O   0  0  0  0  0  0  0  0  0  0  0  0
    7.9873   -8.4047    0.0000 C   0  0  0  0  0  0  0  0  0  0  0  0
    5.1245   -9.2125    0.0000 O   0  0  0  0  0  0  0  0  0  0  0  0
    3.7105   -6.7289    0.0000 O   0  0  0  0  0  0  0  0  0  0  0  0
    3.7005   -8.3789    0.0000 C   0  0  0  0  0  0  0  0  0  0  0  0
    6.5534   -9.2211    0.0000 O   0  0  0  0  0  0  0  0  0  0  0  0
    6.5683   -6.7461    0.0000 O   0  0  0  0  0  0  0  0  0  0  0  0
    5.8514   -7.1543    0.0000 C   0  0  0  0  0  0  0  0  0  0  0  0
    5.1394   -6.7375    0.0000 C   0  0  0  0  0  0  0  0  0  0  0  0
    4.4225   -7.1457    0.0000 C   0  0  0  0  0  0  0  0  0  0  0  0
    4.4175   -7.9707    0.0000 C   0  0  0  0  0  0  0  0  0  0  0  0
    5.1295   -8.3875    0.0000 C   0  0  0  0  0  0  0  0  0  0  0  0
    5.8464   -7.9793    0.0000 C   0  0  0  0  0  0  0  0  0  0  0  0
    6.5584   -8.3961    0.0000 C   0  0  0  0  0  0  0  0  0  0  0  0
    7.2753   -7.9879    0.0000 C   0  0  0  0  0  0  0  0  0  0  0  0
    7.2803   -7.1629    0.0000 C   0  0  0  0  0  0  0  0  0  0  0  0
 23 10  1  0  0  0  0
 10  3  1  0  0  0  0
  4  6  2  0  0  0  0
  1  5  2  0  0  0  0
  2  1  1  0  0  0  0
  3  2  2  0  0  0  0
  4  3  1  0  0  0  0
  9  5  1  0  0  0  0
  6  5  1  0  0  0  0
  7  6  1  0  0  0  0
  8  7  1  0  0  0  0
  9  8  1  0  0  0  0
 20 11  1  0  0  0  0
 18 12  1  0  0  0  0
 19 13  1  0  0  0  0
 22 14  2  0  0  0  0
 24 15  1  0  0  0  0
 16 15  1  0  0  0  0
 21 16  2  0  0  0  0
 17 16  1  0  0  0  0
 18 17  2  0  0  0  0
 19 18  1  0  0  0  0
 20 19  2  0  0  0  0
 21 20  1  0  0  0  0
 22 21  1  0  0  0  0
 23 22  1  0  0  0  0
 24 23  2  0  0  0  0
M  END
>  <cdx:groupId>
40573

>  <cdx:fragmentId>
40501

$$$$
