87752.cdx
  Mrv1902 05222410282D          

 20 22  0  0  0  0            999 V2000
    4.9797   -5.1092    0.0000 N   0  0  0  0  0  0  0  0  0  0  0  0
    5.6942   -4.6967    0.0000 C   0  0  0  0  0  0  0  0  0  0  0  0
    6.4087   -5.1092    0.0000 C   0  0  0  0  0  0  0  0  0  0  0  0
    6.4087   -5.9342    0.0000 C   0  0  0  0  0  0  0  0  0  0  0  0
    5.6942   -6.3467    0.0000 C   0  0  0  0  0  0  0  0  0  0  0  0
    4.9797   -5.9342    0.0000 C   0  0  0  0  0  0  0  0  0  0  0  0
    5.6942   -3.8717    0.0000 O   0  0  0  0  0  0  0  0  0  0  0  0
    4.2652   -6.3467    0.0000 O   0  0  0  0  0  0  0  0  0  0  0  0
    4.2652   -4.6967    0.0000 C   0  0  0  0  0  0  0  0  0  0  0  0
    4.2652   -3.8717    0.0000 C   0  0  1  0  0  0  0  0  0  0  0  0
    4.9797   -3.4592    0.0000 C   0  0  0  0  0  0  0  0  0  0  0  0
    4.9797   -2.6342    0.0000 C   0  0  0  0  0  0  0  0  0  0  0  0
    4.2652   -2.2217    0.0000 C   0  0  0  0  0  0  0  0  0  0  0  0
    3.5508   -2.6342    0.0000 N   0  0  0  0  0  0  0  0  0  0  0  0
    2.8363   -2.2217    0.0000 C   0  0  0  0  0  0  0  0  0  0  0  0
    2.1218   -2.6342    0.0000 C   0  0  0  0  0  0  0  0  0  0  0  0
    2.1218   -3.4592    0.0000 C   0  0  0  0  0  0  0  0  0  0  0  0
    2.8363   -3.8717    0.0000 C   0  0  0  0  0  0  0  0  0  0  0  0
    3.5508   -3.4592    0.0000 C   0  0  2  0  0  0  0  0  0  0  0  0
    3.5508   -4.2842    0.0000 H   0  0  0  0  0  0  0  0  0  0  0  0
  1  2  1  0  0  0  0
  2  3  1  0  0  0  0
  3  4  1  0  0  0  0
  4  5  1  0  0  0  0
  5  6  1  0  0  0  0
  1  6  1  0  0  0  0
  2  7  2  0  0  0  0
  6  8  2  0  0  0  0
 10 11  1  0  0  0  0
 11 12  1  0  0  0  0
 12 13  1  0  0  0  0
 13 14  1  0  0  0  0
 14 15  1  0  0  0  0
 15 16  1  0  0  0  0
 16 17  1  0  0  0  0
 17 18  1  0  0  0  0
 18 19  1  0  0  0  0
 14 19  1  0  0  0  0
 10 19  1  0  0  0  0
 10  9  1  6  0  0  0
  1  9  1  0  0  0  0
 19 20  1  6  0  0  0
M  END
>  <cdx:groupId>
64

>  <cdx:fragmentId>
23

$$$$
