12877769.cdx
  Mrv1902 05222410242D          

 38 42  0  0  0  0            999 V2000
   13.4735  -10.2973    0.0000 N   0  0  0  0  0  0  0  0  0  0  0  0
   12.7590  -10.7098    0.0000 C   0  0  0  0  0  0  0  0  0  0  0  0
   12.0446  -10.2973    0.0000 C   0  0  0  0  0  0  0  0  0  0  0  0
   11.3301  -10.7098    0.0000 C   0  0  0  0  0  0  0  0  0  0  0  0
   10.6156  -10.2973    0.0000 C   0  0  0  0  0  0  0  0  0  0  0  0
   10.6156   -9.4723    0.0000 N   0  0  0  0  0  0  0  0  0  0  0  0
   11.3301   -9.0598    0.0000 C   0  0  0  0  0  0  0  0  0  0  0  0
   11.3301   -8.2348    0.0000 C   0  0  0  0  0  0  0  0  0  0  0  0
   12.0446   -7.8223    0.0000 C   0  0  0  0  0  0  0  0  0  0  0  0
   12.7590   -8.2348    0.0000 N   0  0  0  0  0  0  0  0  0  0  0  0
   13.4735   -7.8223    0.0000 C   0  0  1  0  0  0  0  0  0  0  0  0
   14.1880   -8.2348    0.0000 C   0  0  0  0  0  0  0  0  0  0  0  0
   14.1880   -9.0598    0.0000 C   0  0  0  0  0  0  0  0  0  0  0  0
   14.9024   -9.4723    0.0000 C   0  0  0  0  0  0  0  0  0  0  0  0
   15.6165   -9.0591    0.0000 C   0  0  0  0  0  0  0  0  0  0  0  0
   16.1303   -9.7059    0.0000 O   0  0  0  0  0  0  0  0  0  0  0  0
   15.7182  -10.4206    0.0000 C   0  0  2  0  0  0  0  0  0  0  0  0
   14.9024  -10.2973    0.0000 C   0  0  2  0  0  0  0  0  0  0  0  0
   14.1880  -10.7098    0.0000 C   0  0  0  0  0  0  0  0  0  0  0  0
   14.9340  -11.5087    0.0000 C   0  0  0  0  0  0  0  0  0  0  0  0
   16.8279  -11.3912    0.0000 C   0  0  0  0  0  0  0  0  0  0  0  0
   18.1274  -10.0085    0.0000 C   0  0  0  0  0  0  0  0  0  0  0  0
   18.1274   -8.1110    0.0000 N   0  0  0  0  0  0  0  0  0  0  0  0
   16.8279   -6.7283    0.0000 C   0  0  0  0  0  0  0  0  0  0  0  0
   14.9340   -6.6108    0.0000 C   0  0  0  0  0  0  0  0  0  0  0  0
   15.6162   -8.2341    0.0000 C   0  0  0  0  0  0  0  0  0  0  0  0
   14.9019   -7.8213    0.0000 C   0  0  0  0  0  0  0  0  0  0  0  0
   14.1880  -11.5348    0.0000 O   0  0  0  0  0  0  0  0  0  0  0  0
   17.2404   -6.0139    0.0000 O   0  0  0  0  0  0  0  0  0  0  0  0
   16.4326  -11.6581    0.0000 C   0  0  0  0  0  0  0  0  0  0  0  0
   17.2576  -11.6581    0.0000 C   0  0  0  0  0  0  0  0  0  0  0  0
   17.6701  -12.3725    0.0000 C   0  0  0  0  0  0  0  0  0  0  0  0
   17.2576  -13.0870    0.0000 C   0  0  0  0  0  0  0  0  0  0  0  0
   16.4326  -13.0870    0.0000 C   0  0  0  0  0  0  0  0  0  0  0  0
   16.0201  -12.3725    0.0000 C   0  0  0  0  0  0  0  0  0  0  0  0
   17.6701  -13.8015    0.0000 O   0  0  0  0  0  0  0  0  0  0  0  0
   13.0610   -7.1078    0.0000 H   0  0  0  0  0  0  0  0  0  0  0  0
   15.0556  -11.1079    0.0000 H   0  0  0  0  0  0  0  0  0  0  0  0
  1  2  1  0  0  0  0
  2  3  1  0  0  0  0
  3  4  1  0  0  0  0
  4  5  1  0  0  0  0
  5  6  1  0  0  0  0
  6  7  1  0  0  0  0
  7  8  1  0  0  0  0
  8  9  1  0  0  0  0
  9 10  1  0  0  0  0
 10 11  1  0  0  0  0
 11 12  1  1  0  0  0
 12 13  2  0  0  0  0
 13 14  1  0  0  0  0
 14 15  2  0  0  0  0
 15 16  1  0  0  0  0
 16 17  1  0  0  0  0
 17 18  1  0  0  0  0
 18 19  1  0  0  0  0
 20 21  1  0  0  0  0
 21 22  1  0  0  0  0
 22 23  1  0  0  0  0
 23 24  1  0  0  0  0
 24 25  1  0  0  0  0
 26 27  2  0  0  0  0
  1 19  1  0  0  0  0
  1 20  1  0  0  0  0
 25 11  1  0  0  0  0
 14 18  1  0  0  0  0
 15 26  1  0  0  0  0
 27 12  1  0  0  0  0
 19 28  2  0  0  0  0
 24 29  2  0  0  0  0
 30 31  1  0  0  0  0
 31 32  2  0  0  0  0
 32 33  1  0  0  0  0
 33 34  2  0  0  0  0
 34 35  1  0  0  0  0
 30 35  2  0  0  0  0
 33 36  1  0  0  0  0
 17 30  1  1  0  0  0
 11 37  1  0  0  0  0
 18 38  1  1  0  0  0
M  END
>  <cdx:groupId>
46666

>  <cdx:fragmentId>
46551

$$$$
