87793.cdx
  Mrv1902 05222410272D          

 11 11  0  0  0  0            999 V2000
    5.5019   -4.0929    0.0000 C   0  0  0  0  0  0  0  0  0  0  0  0
    5.4157   -4.9133    0.0000 C   0  0  0  0  0  0  0  0  0  0  0  0
    4.6087   -5.0849    0.0000 C   0  0  0  0  0  0  0  0  0  0  0  0
    4.1962   -4.3704    0.0000 C   0  0  0  0  0  0  0  0  0  0  0  0
    4.7483   -3.7573    0.0000 S   0  0  0  0  0  0  0  0  0  0  0  0
    6.2164   -3.6804    0.0000 C   0  0  0  0  0  0  0  0  0  0  0  0
    6.9309   -4.0929    0.0000 C   0  0  0  0  0  0  0  0  0  0  0  0
    7.6454   -3.6804    0.0000 C   0  0  0  0  0  0  0  0  0  0  0  0
    8.3598   -4.0929    0.0000 C   0  0  0  0  0  0  0  0  0  0  0  0
    9.0743   -3.6804    0.0000 C   0  0  0  0  0  0  0  0  0  0  0  0
    9.7888   -4.0929    0.0000 C   0  0  0  0  0  0  0  0  0  0  0  0
  1  2  2  0  0  0  0
  2  3  1  0  0  0  0
  3  4  2  0  0  0  0
  4  5  1  0  0  0  0
  1  5  1  0  0  0  0
  6  7  1  0  0  0  0
  7  8  1  0  0  0  0
  8  9  1  0  0  0  0
  9 10  1  0  0  0  0
  1  6  1  0  0  0  0
 10 11  1  0  0  0  0
M  END
>  <cdx:fragmentId>
15

$$$$
