8785.cdx
  Mrv1902 05222410252D          

 11 11  0  0  0  0            999 V2000
    5.5760   -4.5441    0.0000 C   0  0  0  0  0  0  0  0  0  0  0  0
    4.8615   -4.9566    0.0000 C   0  0  0  0  0  0  0  0  0  0  0  0
    5.5760   -3.7191    0.0000 O   0  0  0  0  0  0  0  0  0  0  0  0
    6.2905   -4.9566    0.0000 O   0  0  0  0  0  0  0  0  0  0  0  0
    7.0049   -4.5441    0.0000 C   0  0  0  0  0  0  0  0  0  0  0  0
    7.7194   -4.9566    0.0000 C   0  0  0  0  0  0  0  0  0  0  0  0
    8.4339   -4.5441    0.0000 C   0  0  0  0  0  0  0  0  0  0  0  0
    9.1484   -4.9566    0.0000 C   0  0  0  0  0  0  0  0  0  0  0  0
    9.1484   -5.7816    0.0000 C   0  0  0  0  0  0  0  0  0  0  0  0
    8.4339   -6.1941    0.0000 C   0  0  0  0  0  0  0  0  0  0  0  0
    7.7194   -5.7816    0.0000 C   0  0  0  0  0  0  0  0  0  0  0  0
  1  2  1  0  0  0  0
  1  3  2  0  0  0  0
  1  4  1  0  0  0  0
  5  6  1  0  0  0  0
  6  7  1  0  0  0  0
  7  8  2  0  0  0  0
  8  9  1  0  0  0  0
  9 10  2  0  0  0  0
 10 11  1  0  0  0  0
  6 11  2  0  0  0  0
  4  5  1  0  0  0  0
M  END
>  <cdx:fragmentId>
13

$$$$
