8794.cdx
  Mrv1902 05222410242D          

  9  9  0  0  0  0            999 V2000
    6.1667   -8.8688    0.0000 C   0  0  0  0  0  0  0  0  0  0  0  0
    6.8812   -9.2813    0.0000 C   0  0  0  0  0  0  0  0  0  0  0  0
    5.4522   -8.4563    0.0000 N   0  0  0  0  0  0  0  0  0  0  0  0
    7.5957   -8.8688    0.0000 C   0  0  0  0  0  0  0  0  0  0  0  0
    7.5957   -8.0437    0.0000 C   0  0  0  0  0  0  0  0  0  0  0  0
    8.3101   -7.6313    0.0000 C   0  0  0  0  0  0  0  0  0  0  0  0
    9.0246   -8.0437    0.0000 C   0  0  0  0  0  0  0  0  0  0  0  0
    9.0246   -8.8688    0.0000 C   0  0  0  0  0  0  0  0  0  0  0  0
    8.3101   -9.2813    0.0000 C   0  0  0  0  0  0  0  0  0  0  0  0
  1  2  1  0  0  0  0
  1  3  3  0  0  0  0
  4  5  1  0  0  0  0
  5  6  2  0  0  0  0
  6  7  1  0  0  0  0
  7  8  2  0  0  0  0
  8  9  1  0  0  0  0
  4  9  2  0  0  0  0
  2  4  1  0  0  0  0
M  END
>  <cdx:fragmentId>
40

$$$$
