8797.cdx
  Mrv1902 05222410232D          

 11 11  0  0  0  0            999 V2000
    7.8646   -3.8550    0.0000 C   0  0  0  0  0  0  0  0  0  0  0  0
    7.8648   -3.0300    0.0000 C   0  0  0  0  0  0  0  0  0  0  0  0
    8.5789   -4.2677    0.0000 O   0  0  0  0  0  0  0  0  0  0  0  0
    7.1500   -4.2673    0.0000 O   0  0  0  0  0  0  0  0  0  0  0  0
    7.1498   -5.0923    0.0000 C   0  0  0  0  0  0  0  0  0  0  0  0
    7.8641   -5.5050    0.0000 C   0  0  0  0  0  0  0  0  0  0  0  0
    7.8639   -6.3300    0.0000 C   0  0  0  0  0  0  0  0  0  0  0  0
    7.1493   -6.7423    0.0000 C   0  0  0  0  0  0  0  0  0  0  0  0
    6.4350   -6.3297    0.0000 C   0  0  0  0  0  0  0  0  0  0  0  0
    6.4352   -5.5047    0.0000 C   0  0  0  0  0  0  0  0  0  0  0  0
    7.1491   -7.5673    0.0000 C   0  0  0  0  0  0  0  0  0  0  0  0
  1  2  1  0  0  0  0
  1  3  2  0  0  0  0
  1  4  1  0  0  0  0
  5  6  1  0  0  0  0
  6  7  2  0  0  0  0
  7  8  1  0  0  0  0
  8  9  2  0  0  0  0
  9 10  1  0  0  0  0
  5 10  2  0  0  0  0
  8 11  1  0  0  0  0
  4  5  1  0  0  0  0
M  END
>  <cdx:fragmentId>
13

$$$$
