879760.cdx
  Mrv1902 05222410222D          

 19 20  0  0  0  0            999 V2000
    8.0150   -7.5894    0.0000 C   0  0  0  0  0  0  0  0  0  0  0  0
    8.7295   -7.1769    0.0000 C   0  0  0  0  0  0  0  0  0  0  0  0
    9.4440   -7.5894    0.0000 C   0  0  0  0  0  0  0  0  0  0  0  0
   10.1584   -7.1769    0.0000 C   0  0  0  0  0  0  0  0  0  0  0  0
   10.1584   -6.3519    0.0000 C   0  0  0  0  0  0  0  0  0  0  0  0
    9.4440   -5.9394    0.0000 C   0  0  0  0  0  0  0  0  0  0  0  0
    8.7295   -6.3519    0.0000 C   0  0  0  0  0  0  0  0  0  0  0  0
   10.8729   -5.9394    0.0000 O   0  0  0  0  0  0  0  0  0  0  0  0
   11.5874   -6.3519    0.0000 C   0  0  0  0  0  0  0  0  0  0  0  0
   10.8729   -7.5894    0.0000 O   0  0  0  0  0  0  0  0  0  0  0  0
    7.3005   -7.1769    0.0000 C   0  0  0  0  0  0  0  0  0  0  0  0
    4.4427   -7.1769    0.0000 O   0  0  0  0  0  0  0  0  0  0  0  0
    5.8716   -9.6519    0.0000 O   0  0  0  0  0  0  0  0  0  0  0  0
    6.5861   -8.4144    0.0000 C   0  0  0  0  0  0  0  0  0  0  0  0
    6.5861   -7.5894    0.0000 C   0  0  0  0  0  0  0  0  0  0  0  0
    5.8716   -7.1769    0.0000 C   0  0  0  0  0  0  0  0  0  0  0  0
    5.1571   -7.5894    0.0000 C   0  0  0  0  0  0  0  0  0  0  0  0
    5.1571   -8.4144    0.0000 C   0  0  0  0  0  0  0  0  0  0  0  0
    5.8716   -8.8269    0.0000 C   0  0  0  0  0  0  0  0  0  0  0  0
 15 11  1  0  0  0  0
 17 12  1  0  0  0  0
 19 13  1  0  0  0  0
 19 14  2  0  0  0  0
 15 14  1  0  0  0  0
 16 15  2  0  0  0  0
 17 16  1  0  0  0  0
 18 17  2  0  0  0  0
 19 18  1  0  0  0  0
 11  1  2  0  0  0  0
  2  3  1  0  0  0  0
  3  4  2  0  0  0  0
  4  5  1  0  0  0  0
  5  6  2  0  0  0  0
  6  7  1  0  0  0  0
  2  7  2  0  0  0  0
  8  9  1  0  0  0  0
  5  8  1  0  0  0  0
  4 10  1  0  0  0  0
  1  2  1  0  0  0  0
M  END
>  <cdx:fragmentId>
25

$$$$
