879809.cdx
  Mrv1902 05222410212D          

 27 29  0  0  0  0            999 V2000
    8.6422   -7.4519    0.0000 C   0  0  0  0  0  0  0  0  0  0  0  0
    8.6422   -8.2769    0.0000 C   0  0  0  0  0  0  0  0  0  0  0  0
    7.9277   -8.6894    0.0000 C   0  0  0  0  0  0  0  0  0  0  0  0
    7.2132   -8.2769    0.0000 C   0  0  0  0  0  0  0  0  0  0  0  0
    7.2132   -7.4519    0.0000 C   0  0  0  0  0  0  0  0  0  0  0  0
    7.9277   -7.0394    0.0000 O   0  0  0  0  0  0  0  0  0  0  0  0
    7.9277   -9.5144    0.0000 O   0  0  0  0  0  0  0  0  0  0  0  0
    6.4988   -7.0394    0.0000 C   0  0  0  0  0  0  0  0  0  0  0  0
    5.7843   -7.4519    0.0000 C   0  0  0  0  0  0  0  0  0  0  0  0
    5.0698   -7.0394    0.0000 C   0  0  0  0  0  0  0  0  0  0  0  0
    4.3554   -7.4519    0.0000 C   0  0  0  0  0  0  0  0  0  0  0  0
    3.6409   -7.0394    0.0000 C   0  0  0  0  0  0  0  0  0  0  0  0
    3.6409   -6.2144    0.0000 C   0  0  0  0  0  0  0  0  0  0  0  0
    4.3554   -5.8019    0.0000 C   0  0  0  0  0  0  0  0  0  0  0  0
    5.0698   -6.2144    0.0000 C   0  0  0  0  0  0  0  0  0  0  0  0
    2.9264   -7.4519    0.0000 O   0  0  0  0  0  0  0  0  0  0  0  0
    2.2120   -7.0394    0.0000 C   0  0  0  0  0  0  0  0  0  0  0  0
    2.9264   -5.8019    0.0000 O   0  0  0  0  0  0  0  0  0  0  0  0
    9.3567   -7.0394    0.0000 C   0  0  0  0  0  0  0  0  0  0  0  0
   10.0711   -7.4519    0.0000 C   0  0  0  0  0  0  0  0  0  0  0  0
   10.7856   -7.0394    0.0000 C   0  0  0  0  0  0  0  0  0  0  0  0
   10.7856   -6.2144    0.0000 C   0  0  0  0  0  0  0  0  0  0  0  0
   10.0711   -5.8019    0.0000 C   0  0  0  0  0  0  0  0  0  0  0  0
    9.3567   -6.2144    0.0000 C   0  0  0  0  0  0  0  0  0  0  0  0
   11.5001   -7.4519    0.0000 O   0  0  0  0  0  0  0  0  0  0  0  0
   12.2145   -7.0394    0.0000 C   0  0  0  0  0  0  0  0  0  0  0  0
   11.5001   -5.8019    0.0000 O   0  0  0  0  0  0  0  0  0  0  0  0
  1  2  1  0  0  0  0
  2  3  1  0  0  0  0
  3  4  1  0  0  0  0
  4  5  2  0  0  0  0
  5  6  1  0  0  0  0
  1  6  1  0  0  0  0
  3  7  2  0  0  0  0
  8  9  2  0  0  0  0
 10 11  1  0  0  0  0
 11 12  2  0  0  0  0
 12 13  1  0  0  0  0
 13 14  2  0  0  0  0
 14 15  1  0  0  0  0
 10 15  2  0  0  0  0
 16 17  1  0  0  0  0
 12 16  1  0  0  0  0
 13 18  1  0  0  0  0
  9 10  1  0  0  0  0
  5  8  1  0  0  0  0
 19 20  1  0  0  0  0
 20 21  2  0  0  0  0
 21 22  1  0  0  0  0
 22 23  2  0  0  0  0
 23 24  1  0  0  0  0
 19 24  2  0  0  0  0
 25 26  1  0  0  0  0
 21 25  1  0  0  0  0
 22 27  1  0  0  0  0
  1 19  1  0  0  0  0
M  END
>  <cdx:fragmentId>
194248

$$$$
