8799.cdx
  Mrv1902 05222410222D          

 30 33  0  0  0  0            999 V2000
    5.6651   -5.4796    0.0000 C   0  0  2  0  0  0  0  0  0  0  0  0
    4.9465   -5.8848    0.0000 C   0  0  2  0  0  0  0  0  0  0  0  0
    4.9381   -6.7097    0.0000 C   0  0  1  0  0  0  0  0  0  0  0  0
    5.6483   -7.1295    0.0000 C   0  0  2  0  0  0  0  0  0  0  0  0
    6.3670   -6.7243    0.0000 C   0  0  1  0  0  0  0  0  0  0  0  0
    6.3754   -5.8993    0.0000 O   0  0  0  0  0  0  0  0  0  0  0  0
   11.3679   -9.6123    0.0000 C   0  0  0  0  0  0  0  0  0  0  0  0
    9.9351   -7.1395    0.0000 O   0  0  0  0  0  0  0  0  0  0  0  0
    8.5062   -7.1418    0.0000 O   0  0  0  0  0  0  0  0  0  0  0  0
    8.5114  -10.4418    0.0000 O   0  0  0  0  0  0  0  0  0  0  0  0
    9.9390   -9.6145    0.0000 C   0  0  0  0  0  0  0  0  0  0  0  0
   10.6528   -9.2009    0.0000 C   0  0  0  0  0  0  0  0  0  0  0  0
   10.6515   -8.3759    0.0000 C   0  0  0  0  0  0  0  0  0  0  0  0
    9.9364   -7.9645    0.0000 C   0  0  0  0  0  0  0  0  0  0  0  0
    8.5101   -9.6168    0.0000 C   0  0  0  0  0  0  0  0  0  0  0  0
    9.2239   -9.2031    0.0000 C   0  0  0  0  0  0  0  0  0  0  0  0
    9.2226   -8.3781    0.0000 C   0  0  0  0  0  0  0  0  0  0  0  0
    8.5075   -7.9668    0.0000 C   0  0  0  0  0  0  0  0  0  0  0  0
    6.3660   -9.2077    0.0000 C   0  0  0  0  0  0  0  0  0  0  0  0
    7.0811   -9.6190    0.0000 C   0  0  0  0  0  0  0  0  0  0  0  0
    7.7949   -9.2054    0.0000 C   0  0  0  0  0  0  0  0  0  0  0  0
    7.7936   -8.3804    0.0000 C   0  0  0  0  0  0  0  0  0  0  0  0
    6.3647   -8.3827    0.0000 C   0  0  0  0  0  0  0  0  0  0  0  0
    7.0785   -7.9690    0.0000 C   0  0  0  0  0  0  0  0  0  0  0  0
    7.0772   -7.1440    0.0000 O   0  0  0  0  0  0  0  0  0  0  0  0
    5.6735   -4.6546    0.0000 C   0  0  0  0  0  0  0  0  0  0  0  0
    4.9633   -4.2349    0.0000 O   0  0  0  0  0  0  0  0  0  0  0  0
    4.2195   -7.1150    0.0000 O   0  0  0  0  0  0  0  0  0  0  0  0
    5.6400   -7.9544    0.0000 O   0  0  0  0  0  0  0  0  0  0  0  0
    4.2363   -5.4650    0.0000 O   0  0  0  0  0  0  0  0  0  0  0  0
 12  7  1  0  0  0  0
 14  8  1  0  0  0  0
 18  9  2  0  0  0  0
 15 10  2  0  0  0  0
  1  2  1  0  0  0  0
  2  3  1  0  0  0  0
  3  4  1  0  0  0  0
  4  5  1  0  0  0  0
 11 16  1  0  0  0  0
 12 11  2  0  0  0  0
 13 12  1  0  0  0  0
 14 13  2  0  0  0  0
 17 14  1  0  0  0  0
 15 21  1  0  0  0  0
 16 15  1  0  0  0  0
 17 16  2  0  0  0  0
 18 17  1  0  0  0  0
 22 18  1  0  0  0  0
 19 23  1  0  0  0  0
 20 19  2  0  0  0  0
 21 20  1  0  0  0  0
 22 21  2  0  0  0  0
 24 22  1  0  0  0  0
 24 23  2  0  0  0  0
 25 24  1  0  0  0  0
  5  6  1  0  0  0  0
  6  1  1  0  0  0  0
  5 25  1  1  0  0  0
  1 26  1  1  0  0  0
 26 27  1  0  0  0  0
  3 28  1  1  0  0  0
  4 29  1  6  0  0  0
  2 30  1  6  0  0  0
M  END
>  <cdx:fragmentId>
5

$$$$
