8800.cdx
  Mrv1902 05222410252D          

 41 45  0  0  0  0            999 V2000
    3.9483   -8.2318    0.0000 O   0  0  0  0  0  0  0  0  0  0  0  0
    5.3554  -10.7193    0.0000 O   0  0  0  0  0  0  0  0  0  0  0  0
    3.9338   -9.8817    0.0000 O   0  0  0  0  0  0  0  0  0  0  0  0
    4.6737   -7.0006    0.0000 O   0  0  0  0  0  0  0  0  0  0  0  0
    5.3845   -7.4194    0.0000 C   0  0  0  0  0  0  0  0  0  0  0  0
    6.7915   -9.9069    0.0000 O   0  0  0  0  0  0  0  0  0  0  0  0
    6.0880   -8.6631    0.0000 O   0  0  0  0  0  0  0  0  0  0  0  0
    6.0807   -9.4881    0.0000 C   0  0  2  0  0  0  0  0  0  0  0  0
    5.3627   -9.8943    0.0000 C   0  0  1  0  0  0  0  0  0  0  0  0
    4.6518   -9.4755    0.0000 C   0  0  2  0  0  0  0  0  0  0  0  0
    4.6591   -8.6505    0.0000 C   0  0  1  0  0  0  0  0  0  0  0  0
    5.3772   -8.2444    0.0000 C   0  0  1  0  0  0  0  0  0  0  0  0
    4.6809   -6.1756    0.0000 C   0  0  0  0  0  0  0  0  0  0  0  0
    3.9701   -5.7569    0.0000 C   0  0  0  0  0  0  0  0  0  0  0  0
    5.3990   -5.7694    0.0000 O   0  0  0  0  0  0  0  0  0  0  0  0
    3.2520   -6.1631    0.0000 C   0  0  0  0  0  0  0  0  0  0  0  0
    2.5412   -5.7443    0.0000 C   0  0  0  0  0  0  0  0  0  0  0  0
    2.5485   -4.9193    0.0000 C   0  0  0  0  0  0  0  0  0  0  0  0
    3.2666   -4.5131    0.0000 C   0  0  0  0  0  0  0  0  0  0  0  0
    3.9774   -4.9319    0.0000 C   0  0  0  0  0  0  0  0  0  0  0  0
    6.7915  -10.7319    0.0000 C   0  0  0  0  0  0  0  0  0  0  0  0
    6.0771  -11.1444    0.0000 C   0  0  0  0  0  0  0  0  0  0  0  0
    7.5060  -11.1444    0.0000 C   0  0  0  0  0  0  0  0  0  0  0  0
    7.5060  -11.9694    0.0000 C   0  0  0  0  0  0  0  0  0  0  0  0
    6.7915  -12.3819    0.0000 C   0  0  0  0  0  0  0  0  0  0  0  0
    6.0771  -11.9694    0.0000 C   0  0  0  0  0  0  0  0  0  0  0  0
    8.2205  -10.7319    0.0000 C   0  0  0  0  0  0  0  0  0  0  0  0
    8.9350  -11.1444    0.0000 C   0  0  0  0  0  0  0  0  0  0  0  0
    8.9350  -11.9694    0.0000 C   0  0  0  0  0  0  0  0  0  0  0  0
    8.2205  -12.3819    0.0000 C   0  0  0  0  0  0  0  0  0  0  0  0
    9.6494  -10.7319    0.0000 C   0  0  0  0  0  0  0  0  0  0  0  0
   10.3639  -11.1444    0.0000 C   0  0  0  0  0  0  0  0  0  0  0  0
   10.3639  -11.9694    0.0000 C   0  0  0  0  0  0  0  0  0  0  0  0
    9.6494  -12.3819    0.0000 C   0  0  0  0  0  0  0  0  0  0  0  0
    8.2205  -13.2069    0.0000 O   0  0  0  0  0  0  0  0  0  0  0  0
    8.2205   -9.9069    0.0000 O   0  0  0  0  0  0  0  0  0  0  0  0
    9.6494   -9.9069    0.0000 O   0  0  0  0  0  0  0  0  0  0  0  0
   11.0784  -12.3819    0.0000 C   0  0  0  0  0  0  0  0  0  0  0  0
    1.8231   -6.1505    0.0000 O   0  0  0  0  0  0  0  0  0  0  0  0
    1.8377   -4.5005    0.0000 O   0  0  0  0  0  0  0  0  0  0  0  0
    3.2738   -3.6881    0.0000 O   0  0  0  0  0  0  0  0  0  0  0  0
 11  1  1  6  0  0  0
  9  2  1  6  0  0  0
 10  3  1  1  0  0  0
  5  4  1  0  0  0  0
 12  5  1  1  0  0  0
  8  6  1  1  0  0  0
  7 12  1  0  0  0  0
  8  7  1  0  0  0  0
  9  8  1  0  0  0  0
 10  9  1  0  0  0  0
 11 10  1  0  0  0  0
 12 11  1  0  0  0  0
  4 13  1  0  0  0  0
 13 14  1  0  0  0  0
 13 15  2  0  0  0  0
 14 16  1  0  0  0  0
 16 17  2  0  0  0  0
  6 21  1  0  0  0  0
 21 22  2  0  0  0  0
 21 23  1  0  0  0  0
 23 24  2  0  0  0  0
 24 25  1  0  0  0  0
 25 26  2  0  0  0  0
 26 22  1  0  0  0  0
 23 27  1  0  0  0  0
 27 28  1  0  0  0  0
 28 29  2  0  0  0  0
 29 30  1  0  0  0  0
 30 24  1  0  0  0  0
 28 31  1  0  0  0  0
 31 32  2  0  0  0  0
 32 33  1  0  0  0  0
 33 34  2  0  0  0  0
 34 29  1  0  0  0  0
 17 18  1  0  0  0  0
 18 19  2  0  0  0  0
 19 20  1  0  0  0  0
 20 14  2  0  0  0  0
 30 35  2  0  0  0  0
 27 36  2  0  0  0  0
 31 37  1  0  0  0  0
 33 38  1  0  0  0  0
 17 39  1  0  0  0  0
 18 40  1  0  0  0  0
 19 41  1  0  0  0  0
M  END
>  <cdx:fragmentId>
5

$$$$
