129880591.cdx
  Mrv1902 05222410272D          

 23 25  0  0  0  0            999 V2000
    7.8778  -14.5920    0.0000 C   0  0  0  0  0  0  0  0  0  0  0  0
    8.7028  -14.5920    0.0000 C   0  0  2  0  0  0  0  0  0  0  0  0
    9.1153  -15.3064    0.0000 C   0  0  0  0  0  0  0  0  0  0  0  0
    7.4653  -15.3064    0.0000 O   0  0  0  0  0  0  0  0  0  0  0  0
    7.4653  -13.8775    0.0000 O   0  0  0  0  0  0  0  0  0  0  0  0
    9.1153  -13.8775    0.0000 C   0  0  0  0  0  0  0  0  0  0  0  0
    8.7028  -13.1630    0.0000 C   0  0  0  0  0  0  0  0  0  0  0  0
    9.1153  -12.4485    0.0000 C   0  0  0  0  0  0  0  0  0  0  0  0
    9.9403  -12.4485    0.0000 C   0  0  0  0  0  0  0  0  0  0  0  0
   10.3528  -13.1630    0.0000 C   0  0  0  0  0  0  0  0  0  0  0  0
    9.9403  -13.8775    0.0000 C   0  0  0  0  0  0  0  0  0  0  0  0
    9.9403  -15.3064    0.0000 O   0  0  0  0  0  0  0  0  0  0  0  0
    5.4780  -12.9506    0.0000 C   0  0  0  0  0  0  0  0  0  0  0  0
    6.2823  -13.1342    0.0000 C   0  0  0  0  0  0  0  0  0  0  0  0
    6.6403  -13.8775    0.0000 C   0  0  0  0  0  0  0  0  0  0  0  0
    6.2823  -14.6208    0.0000 C   0  0  0  0  0  0  0  0  0  0  0  0
    5.4780  -14.8044    0.0000 C   0  0  0  0  0  0  0  0  0  0  0  0
    4.8330  -14.2900    0.0000 C   0  0  0  0  0  0  0  0  0  0  0  0
    4.8330  -13.4650    0.0000 C   0  0  0  0  0  0  0  0  0  0  0  0
    4.9434  -13.8766    0.0000 N   0  0  0  0  0  0  0  0  0  0  0  0
    4.1184  -13.8766    0.0000 C   0  0  0  0  0  0  0  0  0  0  0  0
    5.2944  -12.1463    0.0000 C   0  0  0  0  0  0  0  0  0  0  0  0
    4.5061  -11.9031    0.0000 O   0  0  0  0  0  0  0  0  0  0  0  0
  1  2  1  0  0  0  0
  2  3  1  1  0  0  0
  1  4  2  0  0  0  0
  1  5  1  0  0  0  0
  6  7  1  0  0  0  0
  7  8  2  0  0  0  0
  8  9  1  0  0  0  0
  9 10  2  0  0  0  0
 10 11  1  0  0  0  0
  6 11  2  0  0  0  0
  2  6  1  0  0  0  0
  3 12  1  0  0  0  0
 13 14  1  0  0  0  0
 14 15  1  0  0  0  0
 15 16  1  0  0  0  0
 16 17  1  0  0  0  0
 17 18  1  0  0  0  0
 18 19  1  0  0  0  0
 13 19  1  0  0  0  0
 13 20  1  0  0  0  0
 20 17  1  0  0  0  0
 20 21  1  0  0  0  0
 22 23  2  0  0  0  0
 13 22  1  0  0  0  0
  5 15  1  0  0  0  0
M  END
>  <cdx:groupId>
44386

>  <cdx:fragmentId>
44328

$$$$
