881265.cdx
  Mrv1902 05222410272D          

 43 46  0  0  0  0            999 V2000
    9.2976   -5.0621    0.0000 C   0  0  0  0  0  0  0  0  0  0  0  0
    9.0427   -5.8468    0.0000 C   0  0  0  0  0  0  0  0  0  0  0  0
    8.2357   -6.0183    0.0000 C   0  0  0  0  0  0  0  0  0  0  0  0
    7.9808   -6.8029    0.0000 C   0  0  0  0  0  0  0  0  0  0  0  0
    7.1738   -6.9744    0.0000 C   0  0  1  0  0  0  0  0  0  0  0  0
    6.6218   -6.3614    0.0000 C   0  0  0  0  0  0  0  0  0  0  0  0
    7.6837   -5.4052    0.0000 O   0  0  0  0  0  0  0  0  0  0  0  0
    8.7456   -4.4491    0.0000 C   0  0  0  0  0  0  0  0  0  0  0  0
    3.2763   -8.8390    0.0000 C   0  0  0  0  0  0  0  0  0  0  0  0
    2.5619   -9.2515    0.0000 C   0  0  0  0  0  0  0  0  0  0  0  0
    2.5619  -10.0765    0.0000 C   0  0  0  0  0  0  0  0  0  0  0  0
    3.2763  -10.4890    0.0000 C   0  0  0  0  0  0  0  0  0  0  0  0
    3.9908  -10.0765    0.0000 C   0  0  2  0  0  0  0  0  0  0  0  0
    4.7053  -10.4890    0.0000 C   0  0  0  0  0  0  0  0  0  0  0  0
    5.4198  -10.0765    0.0000 C   0  0  1  0  0  0  0  0  0  0  0  0
    5.4198   -9.2515    0.0000 C   0  0  0  0  0  0  0  0  0  0  0  0
    6.1342   -8.8390    0.0000 C   0  0  2  0  0  0  0  0  0  0  0  0
    6.9189   -9.0939    0.0000 C   0  0  2  0  0  0  0  0  0  0  0  0
    7.4038   -8.4265    0.0000 C   0  0  0  0  0  0  0  0  0  0  0  0
    6.9189   -7.7591    0.0000 C   0  0  1  0  0  0  0  0  0  0  0  0
    6.1342   -8.0140    0.0000 C   0  0  1  0  0  0  0  0  0  0  0  0
    5.4198   -7.6015    0.0000 C   0  0  0  0  0  0  0  0  0  0  0  0
    4.7053   -8.0140    0.0000 C   0  0  0  0  0  0  0  0  0  0  0  0
    4.7053   -8.8390    0.0000 C   0  0  0  0  0  0  0  0  0  0  0  0
    3.9908   -9.2515    0.0000 C   0  0  1  0  0  0  0  0  0  0  0  0
    3.9908   -7.6015    0.0000 O   0  0  0  0  0  0  0  0  0  0  0  0
    1.8474  -10.4890    0.0000 O   0  0  0  0  0  0  0  0  0  0  0  0
    6.1342   -9.6817    0.0000 C   0  0  0  0  0  0  0  0  0  0  0  0
    6.1342   -7.2855    0.0000 C   0  0  0  0  0  0  0  0  0  0  0  0
    3.9908   -8.4265    0.0000 C   0  0  0  0  0  0  0  0  0  0  0  0
    3.6888  -11.2035    0.0000 C   0  0  0  0  0  0  0  0  0  0  0  0
    2.8638  -11.2035    0.0000 C   0  0  0  0  0  0  0  0  0  0  0  0
    7.1738   -9.8786    0.0000 O   0  0  0  0  0  0  0  0  0  0  0  0
    6.1342  -10.4890    0.0000 O   0  0  0  0  0  0  0  0  0  0  0  0
   12.4833   -2.1937    0.0000 C   0  0  0  0  0  0  0  0  0  0  0  0
    3.9908  -10.9015    0.0000 H   0  0  0  0  0  0  0  0  0  0  0  0
   12.2284   -2.9783    0.0000 C   0  0  0  0  0  0  0  0  0  0  0  0
   11.4214   -3.1499    0.0000 C   0  0  0  0  0  0  0  0  0  0  0  0
   11.1665   -3.9345    0.0000 C   0  0  0  0  0  0  0  0  0  0  0  0
   10.3595   -4.1060    0.0000 O   0  0  0  0  0  0  0  0  0  0  0  0
   10.6566   -5.5037    0.0000 O   0  0  0  0  0  0  0  0  0  0  0  0
   10.1046   -4.8906    0.0000 C   0  0  0  0  0  0  0  0  0  0  0  0
    7.8630   -7.5061    0.0000 H   0  0  0  0  0  0  0  0  0  0  0  0
 40 39  1  0  0  0  0
 37 35  1  0  0  0  0
 38 37  1  0  0  0  0
 39 38  1  0  0  0  0
 42 40  1  0  0  0  0
 42 41  2  0  0  0  0
 42  1  1  0  0  0  0
  1  2  1  0  0  0  0
  2  3  1  0  0  0  0
  3  4  1  0  0  0  0
  4  5  1  0  0  0  0
  5  6  1  6  0  0  0
  3  7  2  0  0  0  0
  1  8  1  0  0  0  0
  9 10  1  0  0  0  0
 10 11  1  0  0  0  0
 11 12  1  0  0  0  0
 12 13  1  0  0  0  0
 13 14  1  0  0  0  0
 14 15  1  0  0  0  0
 15 16  1  0  0  0  0
 16 17  1  0  0  0  0
 17 18  1  0  0  0  0
 18 19  1  0  0  0  0
 20 19  1  0  0  0  0
 20 21  1  0  0  0  0
 17 21  1  0  0  0  0
 21 22  1  0  0  0  0
 22 23  1  0  0  0  0
 23 24  1  0  0  0  0
 16 24  2  0  0  0  0
 24 25  1  0  0  0  0
 13 25  1  0  0  0  0
  9 25  1  0  0  0  0
 23 26  2  0  0  0  0
 11 27  2  0  0  0  0
 17 28  1  6  0  0  0
 21 29  1  1  0  0  0
 25 30  1  1  0  0  0
 12 31  1  0  0  0  0
 12 32  1  0  0  0  0
 18 33  1  6  0  0  0
 15 34  1  1  0  0  0
  5 20  1  0  0  0  0
 13 36  1  6  0  0  0
 20 43  1  6  0  0  0
M  END
>  <cdx:groupId>
131

>  <cdx:fragmentId>
27

$$$$
