8815.cdx
  Mrv1902 05222410242D          

 11 11  0  0  0  0            999 V2000
    6.3852   -9.2822    0.0000 C   0  0  0  0  0  0  0  0  0  0  0  0
    7.0997   -8.8697    0.0000 C   0  0  0  0  0  0  0  0  0  0  0  0
    7.8141   -9.2822    0.0000 C   0  0  0  0  0  0  0  0  0  0  0  0
    7.8141  -10.1072    0.0000 C   0  0  0  0  0  0  0  0  0  0  0  0
    7.0997  -10.5197    0.0000 C   0  0  0  0  0  0  0  0  0  0  0  0
    6.3852  -10.1072    0.0000 C   0  0  0  0  0  0  0  0  0  0  0  0
    8.5286  -10.5197    0.0000 C   0  0  0  0  0  0  0  0  0  0  0  0
    9.2431  -10.1072    0.0000 C   0  0  0  0  0  0  0  0  0  0  0  0
    9.9575  -10.5197    0.0000 C   0  0  0  0  0  0  0  0  0  0  0  0
    5.6707   -8.8697    0.0000 O   0  0  0  0  0  0  0  0  0  0  0  0
    4.9563   -9.2822    0.0000 C   0  0  0  0  0  0  0  0  0  0  0  0
  1  2  1  0  0  0  0
  2  3  2  0  0  0  0
  3  4  1  0  0  0  0
  4  5  2  0  0  0  0
  5  6  1  0  0  0  0
  1  6  2  0  0  0  0
  7  8  1  0  0  0  0
  8  9  2  0  0  0  0
  4  7  1  0  0  0  0
 10 11  1  0  0  0  0
  1 10  1  0  0  0  0
M  END
>  <cdx:fragmentId>
52

$$$$
