10881804.cdx
  Mrv1902 05222410222D          

 24 26  0  0  0  0            999 V2000
    5.9122  -10.4862    0.0000 C   0  0  0  0  0  0  0  0  0  0  0  0
    6.6267  -10.0737    0.0000 C   0  0  0  0  0  0  0  0  0  0  0  0
    7.3412  -10.4862    0.0000 C   0  0  0  0  0  0  0  0  0  0  0  0
    5.9122  -11.3112    0.0000 O   0  0  0  0  0  0  0  0  0  0  0  0
   10.9135   -9.2487    0.0000 C   0  0  0  0  0  0  0  0  0  0  0  0
   10.9135  -10.0737    0.0000 C   0  0  0  0  0  0  0  0  0  0  0  0
   10.1990  -10.4862    0.0000 C   0  0  0  0  0  0  0  0  0  0  0  0
    9.4846  -10.0737    0.0000 C   0  0  0  0  0  0  0  0  0  0  0  0
    8.7701  -10.4862    0.0000 C   0  0  0  0  0  0  0  0  0  0  0  0
    8.0556  -10.0737    0.0000 C   0  0  0  0  0  0  0  0  0  0  0  0
    8.0556   -9.2487    0.0000 C   0  0  0  0  0  0  0  0  0  0  0  0
    8.7701   -8.8362    0.0000 C   0  0  0  0  0  0  0  0  0  0  0  0
    9.4846   -9.2487    0.0000 C   0  0  0  0  0  0  0  0  0  0  0  0
   10.1990   -8.8362    0.0000 O   0  0  0  0  0  0  0  0  0  0  0  0
   11.3260   -8.5342    0.0000 C   0  0  0  0  0  0  0  0  0  0  0  0
   11.7385   -9.2487    0.0000 C   0  0  0  0  0  0  0  0  0  0  0  0
    5.1977  -10.0737    0.0000 C   0  0  0  0  0  0  0  0  0  0  0  0
    5.1977   -9.2487    0.0000 C   0  0  0  0  0  0  0  0  0  0  0  0
    4.4833   -8.8362    0.0000 C   0  0  0  0  0  0  0  0  0  0  0  0
    3.7688   -9.2487    0.0000 C   0  0  0  0  0  0  0  0  0  0  0  0
    3.7688  -10.0737    0.0000 C   0  0  0  0  0  0  0  0  0  0  0  0
    4.4833  -10.4862    0.0000 C   0  0  0  0  0  0  0  0  0  0  0  0
    3.0543   -8.8362    0.0000 O   0  0  0  0  0  0  0  0  0  0  0  0
    5.9122   -8.8362    0.0000 O   0  0  0  0  0  0  0  0  0  0  0  0
  1  2  1  0  0  0  0
  2  3  2  0  0  0  0
  1  4  2  0  0  0  0
  5  6  1  0  0  0  0
  6  7  2  0  0  0  0
  7  8  1  0  0  0  0
  8  9  1  0  0  0  0
  9 10  2  0  0  0  0
 10 11  1  0  0  0  0
 11 12  2  0  0  0  0
 12 13  1  0  0  0  0
  8 13  2  0  0  0  0
 13 14  1  0  0  0  0
  5 14  1  0  0  0  0
  5 15  1  0  0  0  0
  5 16  1  0  0  0  0
  3 10  1  0  0  0  0
 17 18  1  0  0  0  0
 18 19  2  0  0  0  0
 19 20  1  0  0  0  0
 20 21  2  0  0  0  0
 21 22  1  0  0  0  0
 17 22  2  0  0  0  0
 20 23  1  0  0  0  0
 18 24  1  0  0  0  0
  1 17  1  0  0  0  0
M  END
>  <cdx:fragmentId>
61999

$$$$
