16088230.cdx
  Mrv1902 05222410232D          

 21 23  0  0  0  0            999 V2000
    6.8398  -16.1204    0.0000 O   0  0  0  0  0  0  0  0  0  0  0  0
    7.3247  -15.4529    0.0000 C   0  0  0  0  0  0  0  0  0  0  0  0
    6.8398  -14.7855    0.0000 C   0  0  0  0  0  0  0  0  0  0  0  0
    6.0552  -15.0404    0.0000 C   0  0  0  0  0  0  0  0  0  0  0  0
    5.3407  -14.6279    0.0000 C   0  0  0  0  0  0  0  0  0  0  0  0
    4.6262  -15.0404    0.0000 C   0  0  0  0  0  0  0  0  0  0  0  0
    4.6262  -15.8654    0.0000 C   0  0  0  0  0  0  0  0  0  0  0  0
    5.3407  -16.2779    0.0000 C   0  0  0  0  0  0  0  0  0  0  0  0
    6.0552  -15.8654    0.0000 C   0  0  0  0  0  0  0  0  0  0  0  0
    7.0947  -14.0009    0.0000 C   0  0  0  0  0  0  0  0  0  0  0  0
    6.5427  -13.3878    0.0000 O   0  0  0  0  0  0  0  0  0  0  0  0
    8.1497  -15.4529    0.0000 C   0  0  0  0  0  0  0  0  0  0  0  0
    8.5622  -14.7385    0.0000 C   0  0  0  0  0  0  0  0  0  0  0  0
    9.3872  -14.7385    0.0000 C   0  0  0  0  0  0  0  0  0  0  0  0
    9.7997  -15.4529    0.0000 C   0  0  0  0  0  0  0  0  0  0  0  0
    9.3872  -16.1674    0.0000 C   0  0  0  0  0  0  0  0  0  0  0  0
    8.5622  -16.1674    0.0000 C   0  0  0  0  0  0  0  0  0  0  0  0
    8.1497  -14.0240    0.0000 O   0  0  0  0  0  0  0  0  0  0  0  0
    8.5622  -13.3095    0.0000 C   0  0  0  0  0  0  0  0  0  0  0  0
   10.6247  -15.4529    0.0000 O   0  0  0  0  0  0  0  0  0  0  0  0
    3.9118  -16.2779    0.0000 O   0  0  0  0  0  0  0  0  0  0  0  0
  1  2  1  0  0  0  0
  2  3  2  0  0  0  0
  3  4  1  0  0  0  0
  4  5  1  0  0  0  0
  5  6  2  0  0  0  0
  6  7  1  0  0  0  0
  7  8  2  0  0  0  0
  8  9  1  0  0  0  0
  4  9  2  0  0  0  0
  1  9  1  0  0  0  0
 10 11  2  0  0  0  0
  3 10  1  0  0  0  0
 12 13  1  0  0  0  0
 13 14  2  0  0  0  0
 14 15  1  0  0  0  0
 15 16  2  0  0  0  0
 16 17  1  0  0  0  0
 12 17  2  0  0  0  0
 18 19  1  0  0  0  0
 13 18  1  0  0  0  0
 15 20  1  0  0  0  0
  2 12  1  0  0  0  0
  7 21  1  0  0  0  0
M  END
>  <cdx:groupId>
118476

>  <cdx:fragmentId>
118414

$$$$
