88279.cdx
  Mrv1902 05222410192D          

 33 36  0  0  0  0            999 V2000
    6.8384   -7.4335    0.0000 C   0  0  0  0  0  0  0  0  0  0  0  0
    6.8384   -8.2585    0.0000 C   0  0  0  0  0  0  0  0  0  0  0  0
    6.1239   -8.6710    0.0000 C   0  0  0  0  0  0  0  0  0  0  0  0
    6.1239   -9.4960    0.0000 O   0  0  0  0  0  0  0  0  0  0  0  0
    5.4095   -8.2585    0.0000 C   0  0  0  0  0  0  0  0  0  0  0  0
    4.6950   -8.6710    0.0000 C   0  0  0  0  0  0  0  0  0  0  0  0
    4.6950   -9.4960    0.0000 O   0  0  0  0  0  0  0  0  0  0  0  0
    3.9805   -8.2585    0.0000 C   0  0  0  0  0  0  0  0  0  0  0  0
    3.9805   -7.4335    0.0000 C   0  0  0  0  0  0  0  0  0  0  0  0
    3.2661   -7.0210    0.0000 O   0  0  0  0  0  0  0  0  0  0  0  0
    4.6950   -7.0210    0.0000 C   0  0  0  0  0  0  0  0  0  0  0  0
    5.4095   -7.4335    0.0000 C   0  0  0  0  0  0  0  0  0  0  0  0
    6.1239   -7.0210    0.0000 O   0  0  0  0  0  0  0  0  0  0  0  0
    7.5529   -7.0210    0.0000 C   0  0  0  0  0  0  0  0  0  0  0  0
    7.5529   -6.1960    0.0000 C   0  0  0  0  0  0  0  0  0  0  0  0
    8.2674   -5.7835    0.0000 C   0  0  0  0  0  0  0  0  0  0  0  0
    8.2674   -4.9585    0.0000 O   0  0  0  0  0  0  0  0  0  0  0  0
    8.9818   -6.1960    0.0000 C   0  0  0  0  0  0  0  0  0  0  0  0
    9.6963   -5.7835    0.0000 O   0  0  0  0  0  0  0  0  0  0  0  0
    8.9818   -7.0210    0.0000 C   0  0  0  0  0  0  0  0  0  0  0  0
    8.2674   -7.4335    0.0000 C   0  0  0  0  0  0  0  0  0  0  0  0
    7.5529   -8.6710    0.0000 O   0  0  0  0  0  0  0  0  0  0  0  0
    7.5529   -9.4960    0.0000 C   0  0  0  0  0  0  0  0  0  0  0  0
    8.2674   -9.9085    0.0000 C   0  0  0  0  0  0  0  0  0  0  0  0
    8.2674  -10.7335    0.0000 C   0  0  0  0  0  0  0  0  0  0  0  0
    8.9818  -11.1460    0.0000 O   0  0  0  0  0  0  0  0  0  0  0  0
    7.5529  -11.1460    0.0000 C   0  0  0  0  0  0  0  0  0  0  0  0
    7.5529  -11.9710    0.0000 O   0  0  0  0  0  0  0  0  0  0  0  0
    6.8384  -10.7335    0.0000 C   0  0  0  0  0  0  0  0  0  0  0  0
    6.8384   -9.9085    0.0000 O   0  0  0  0  0  0  0  0  0  0  0  0
    6.1239  -11.1460    0.0000 C   0  0  0  0  0  0  0  0  0  0  0  0
    6.1239  -11.9710    0.0000 O   0  0  0  0  0  0  0  0  0  0  0  0
    8.9818   -9.4960    0.0000 O   0  0  0  0  0  0  0  0  0  0  0  0
  1  2  2  0  0  0  0
  2  3  1  0  0  0  0
  3  4  2  0  0  0  0
  3  5  1  0  0  0  0
  5  6  1  0  0  0  0
  6  7  1  0  0  0  0
  6  8  2  0  0  0  0
  8  9  1  0  0  0  0
  9 10  1  0  0  0  0
  9 11  2  0  0  0  0
 11 12  1  0  0  0  0
  5 12  2  0  0  0  0
 12 13  1  0  0  0  0
  1 13  1  0  0  0  0
  1 14  1  0  0  0  0
 14 15  1  0  0  0  0
 15 16  2  0  0  0  0
 16 17  1  0  0  0  0
 16 18  1  0  0  0  0
 18 19  1  0  0  0  0
 18 20  2  0  0  0  0
 20 21  1  0  0  0  0
 14 21  2  0  0  0  0
 22 23  1  0  0  0  0
 24 23  1  0  0  0  0
 25 26  1  0  0  0  0
 25 24  1  0  0  0  0
 27 28  1  0  0  0  0
 27 25  1  0  0  0  0
 29 30  1  0  0  0  0
 29 27  1  0  0  0  0
 31 32  1  0  0  0  0
 31 29  1  0  0  0  0
 23 30  1  0  0  0  0
  2 22  1  0  0  0  0
 24 33  1  0  0  0  0
M  END
>  <cdx:fragmentId>
47

$$$$
