883.cdx
  Mrv1902 05222410192D          

 40 44  0  0  0  0            999 V2000
    8.4532   -7.4587    0.0000 C   0  0  0  0  0  0  0  0  0  0  0  0
    9.0052   -8.0718    0.0000 C   0  0  0  0  0  0  0  0  0  0  0  0
    9.8122   -7.9003    0.0000 C   0  0  0  0  0  0  0  0  0  0  0  0
    8.7081   -6.6741    0.0000 O   0  0  0  0  0  0  0  0  0  0  0  0
    7.6462   -7.6302    0.0000 O   0  0  0  0  0  0  0  0  0  0  0  0
   10.3642   -8.5134    0.0000 C   0  0  0  0  0  0  0  0  0  0  0  0
   11.1712   -8.3418    0.0000 C   0  0  0  0  0  0  0  0  0  0  0  0
   11.7232   -8.9549    0.0000 C   0  0  0  0  0  0  0  0  0  0  0  0
   11.4683   -9.7395    0.0000 C   0  0  0  0  0  0  0  0  0  0  0  0
   10.6613   -9.9111    0.0000 C   0  0  0  0  0  0  0  0  0  0  0  0
   10.1093   -9.2980    0.0000 C   0  0  0  0  0  0  0  0  0  0  0  0
   12.0203  -10.3526    0.0000 O   0  0  0  0  0  0  0  0  0  0  0  0
   12.5302   -8.7834    0.0000 O   0  0  0  0  0  0  0  0  0  0  0  0
    6.6066   -9.4948    0.0000 C   0  0  2  0  0  0  0  0  0  0  0  0
    7.3913   -9.7497    0.0000 C   0  0  1  0  0  0  0  0  0  0  0  0
    8.2117   -9.8360    0.0000 O   0  0  0  0  0  0  0  0  0  0  0  0
    7.8762   -9.0823    0.0000 C   0  0  1  0  0  0  0  0  0  0  0  0
    7.3913   -8.4148    0.0000 C   0  0  2  0  0  0  0  0  0  0  0  0
    6.6066   -8.6698    0.0000 C   0  0  2  0  0  0  0  0  0  0  0  0
    5.8922   -8.2573    0.0000 C   0  0  0  0  0  0  0  0  0  0  0  0
    5.1777   -8.6698    0.0000 C   0  0  0  0  0  0  0  0  0  0  0  0
    5.1777   -9.4948    0.0000 O   0  0  0  0  0  0  0  0  0  0  0  0
    5.8922   -9.9073    0.0000 C   0  0  1  0  0  0  0  0  0  0  0  0
    5.8922  -10.7323    0.0000 O   0  0  0  0  0  0  0  0  0  0  0  0
    4.4632  -10.7323    0.0000 O   0  0  0  0  0  0  0  0  0  0  0  0
    5.1777  -11.1448    0.0000 C   0  0  2  0  0  0  0  0  0  0  0  0
    5.1777  -11.9698    0.0000 C   0  0  1  0  0  0  0  0  0  0  0  0
    4.4632  -12.3823    0.0000 C   0  0  2  0  0  0  0  0  0  0  0  0
    3.7488  -11.9698    0.0000 C   0  0  1  0  0  0  0  0  0  0  0  0
    3.7488  -11.1448    0.0000 C   0  0  1  0  0  0  0  0  0  0  0  0
    3.0343  -10.7323    0.0000 C   0  0  0  0  0  0  0  0  0  0  0  0
    2.3198  -11.1448    0.0000 O   0  0  0  0  0  0  0  0  0  0  0  0
    3.0343  -12.3823    0.0000 O   0  0  0  0  0  0  0  0  0  0  0  0
    4.4632  -13.2073    0.0000 O   0  0  0  0  0  0  0  0  0  0  0  0
    5.8922  -12.3823    0.0000 O   0  0  0  0  0  0  0  0  0  0  0  0
    7.2197  -10.5567    0.0000 C   0  0  0  0  0  0  0  0  0  0  0  0
    7.8031  -11.1401    0.0000 O   0  0  0  0  0  0  0  0  0  0  0  0
    6.6066  -10.3198    0.0000 H   0  0  0  0  0  0  0  0  0  0  0  0
    8.5907   -8.6698    0.0000 H   0  0  0  0  0  0  0  0  0  0  0  0
    6.6929   -7.8493    0.0000 H   0  0  0  0  0  0  0  0  0  0  0  0
  1  2  1  0  0  0  0
  2  3  2  0  0  0  0
  1  4  2  0  0  0  0
  1  5  1  0  0  0  0
  6  7  1  0  0  0  0
  7  8  2  0  0  0  0
  8  9  1  0  0  0  0
  9 10  2  0  0  0  0
 10 11  1  0  0  0  0
  6 11  2  0  0  0  0
  9 12  1  0  0  0  0
  8 13  1  0  0  0  0
  3  6  1  0  0  0  0
 14 15  1  0  0  0  0
 15 16  1  0  0  0  0
 16 17  1  0  0  0  0
 17 18  1  0  0  0  0
 18 19  1  0  0  0  0
 19 20  1  0  0  0  0
 20 21  2  0  0  0  0
 21 22  1  0  0  0  0
 22 23  1  0  0  0  0
 14 23  1  0  0  0  0
 14 19  1  0  0  0  0
 15 17  1  0  0  0  0
 25 26  1  0  0  0  0
 26 27  1  0  0  0  0
 27 28  1  0  0  0  0
 28 29  1  0  0  0  0
 29 30  1  0  0  0  0
 25 30  1  0  0  0  0
 31 32  1  0  0  0  0
 30 31  1  1  0  0  0
 29 33  1  6  0  0  0
 28 34  1  1  0  0  0
 27 35  1  6  0  0  0
 26 24  1  1  0  0  0
 23 24  1  6  0  0  0
 36 37  1  0  0  0  0
 15 36  1  1  0  0  0
 18  5  1  6  0  0  0
 14 38  1  6  0  0  0
 17 39  1  1  0  0  0
 19 40  1  6  0  0  0
M  END
>  <cdx:groupId>
11114

>  <cdx:fragmentId>
11041

$$$$
