8830.cdx
  Mrv1902 05222410222D          

 19 21  0  0  0  0            999 V2000
    5.2214   -5.9950    0.0000 C   0  0  0  0  0  0  0  0  0  0  0  0
    5.2214   -6.8200    0.0000 C   0  0  0  0  0  0  0  0  0  0  0  0
    5.9359   -7.2325    0.0000 C   0  0  0  0  0  0  0  0  0  0  0  0
    6.6503   -6.8200    0.0000 C   0  0  0  0  0  0  0  0  0  0  0  0
    6.6503   -5.9950    0.0000 C   0  0  0  0  0  0  0  0  0  0  0  0
    5.9359   -5.5825    0.0000 C   0  0  0  0  0  0  0  0  0  0  0  0
    7.3648   -7.2325    0.0000 C   0  0  0  0  0  0  0  0  0  0  0  0
    8.0793   -6.8200    0.0000 C   0  0  0  0  0  0  0  0  0  0  0  0
    8.0793   -5.9950    0.0000 C   0  0  0  0  0  0  0  0  0  0  0  0
    7.3648   -5.5825    0.0000 C   0  0  0  0  0  0  0  0  0  0  0  0
    8.7938   -7.2325    0.0000 C   0  0  0  0  0  0  0  0  0  0  0  0
    9.5082   -6.8200    0.0000 C   0  0  0  0  0  0  0  0  0  0  0  0
    9.5082   -5.9950    0.0000 C   0  0  0  0  0  0  0  0  0  0  0  0
    8.7938   -5.5825    0.0000 C   0  0  0  0  0  0  0  0  0  0  0  0
    5.9359   -4.7575    0.0000 O   0  0  0  0  0  0  0  0  0  0  0  0
    7.3648   -4.7575    0.0000 O   0  0  0  0  0  0  0  0  0  0  0  0
    7.3648   -8.0575    0.0000 O   0  0  0  0  0  0  0  0  0  0  0  0
    8.7938   -4.7575    0.0000 O   0  0  0  0  0  0  0  0  0  0  0  0
   10.2227   -7.2325    0.0000 C   0  0  0  0  0  0  0  0  0  0  0  0
  1  2  1  0  0  0  0
  2  3  2  0  0  0  0
  3  4  1  0  0  0  0
  4  5  2  0  0  0  0
  5  6  1  0  0  0  0
  6  1  2  0  0  0  0
  4  7  1  0  0  0  0
  7  8  1  0  0  0  0
  8  9  2  0  0  0  0
  9 10  1  0  0  0  0
 10  5  1  0  0  0  0
  8 11  1  0  0  0  0
 11 12  2  0  0  0  0
 12 13  1  0  0  0  0
 13 14  2  0  0  0  0
 14  9  1  0  0  0  0
  6 15  1  0  0  0  0
 10 16  2  0  0  0  0
  7 17  2  0  0  0  0
 14 18  1  0  0  0  0
 12 19  1  0  0  0  0
M  END
>  <cdx:fragmentId>
5

$$$$
