88303.cdx
  Mrv1902 05222410262D          

 13 14  0  0  0  0            999 V2000
    7.7775   -6.5181    0.0000 H   0  0  0  0  0  0  0  0  0  0  0  0
    7.3925   -8.9919    0.0000 H   0  0  0  0  0  0  0  0  0  0  0  0
    9.1035   -7.5350    0.0000 C   0  0  0  0  0  0  0  0  0  0  0  0
    8.9724   -8.5309    0.0000 C   0  0  0  0  0  0  0  0  0  0  0  0
    6.2440   -9.5425    0.0000 C   0  0  0  0  0  0  0  0  0  0  0  0
    4.7871   -8.2985    0.0000 O   0  0  0  0  0  0  0  0  0  0  0  0
    6.8215   -6.2425    0.0000 C   0  0  0  0  0  0  0  0  0  0  0  0
    8.3890   -7.9475    0.0000 C   0  0  0  0  0  0  0  0  0  0  0  0
    7.5640   -7.3150    0.0000 C   0  0  1  0  0  0  0  0  0  0  0  0
    5.8865   -7.3150    0.0000 C   0  0  0  0  0  0  0  0  0  0  0  0
    5.5840   -8.0850    0.0000 C   0  0  2  0  0  0  0  0  0  0  0  0
    6.2440   -8.7175    0.0000 C   0  0  0  0  0  0  0  0  0  0  0  0
    7.1790   -8.1950    0.0000 C   0  0  2  0  0  0  0  0  0  0  0  0
  9  1  1  6  0  0  0
 13  2  1  1  0  0  0
  8  3  1  0  0  0  0
  8  4  1  0  0  0  0
 12  5  2  0  0  0  0
 11  6  1  6  0  0  0
  7  9  1  0  0  0  0
 13  7  1  0  0  0  0
 13  8  1  0  0  0  0
  9  8  1  0  0  0  0
 10  9  1  0  0  0  0
 11 10  1  0  0  0  0
 12 11  1  0  0  0  0
 13 12  1  0  0  0  0
M  END
>  <cdx:fragmentId>
5

$$$$
