88302.cdx
  Mrv1902 05222410262D          

 13 14  0  0  0  0            999 V2000
    6.4350   -8.1950    0.0000 C   0  0  1  0  0  0  0  0  0  0  0  0
    7.3700   -8.7175    0.0000 C   0  0  0  0  0  0  0  0  0  0  0  0
    8.0300   -8.0850    0.0000 C   0  0  2  0  0  0  0  0  0  0  0  0
    7.7275   -7.3150    0.0000 C   0  0  0  0  0  0  0  0  0  0  0  0
    6.0500   -7.3150    0.0000 C   0  0  1  0  0  0  0  0  0  0  0  0
    5.2250   -7.9475    0.0000 C   0  0  0  0  0  0  0  0  0  0  0  0
    6.7925   -6.2425    0.0000 C   0  0  0  0  0  0  0  0  0  0  0  0
    8.8269   -8.2985    0.0000 O   0  0  0  0  0  0  0  0  0  0  0  0
    7.3700   -9.5425    0.0000 C   0  0  0  0  0  0  0  0  0  0  0  0
    4.6416   -8.5309    0.0000 C   0  0  0  0  0  0  0  0  0  0  0  0
    4.5105   -7.5350    0.0000 C   0  0  0  0  0  0  0  0  0  0  0  0
    6.2215   -8.9919    0.0000 H   0  0  0  0  0  0  0  0  0  0  0  0
    5.8365   -6.5181    0.0000 H   0  0  0  0  0  0  0  0  0  0  0  0
  1  2  1  0  0  0  0
  2  3  1  0  0  0  0
  3  4  1  0  0  0  0
  4  5  1  0  0  0  0
  5  6  1  0  0  0  0
  1  6  1  0  0  0  0
  1  7  1  0  0  0  0
  7  5  1  0  0  0  0
  3  8  1  6  0  0  0
  2  9  2  0  0  0  0
  6 10  1  0  0  0  0
  6 11  1  0  0  0  0
  1 12  1  6  0  0  0
  5 13  1  6  0  0  0
M  END
>  <cdx:fragmentId>
5

$$$$
