8833.cdx
  Mrv1902 05222410212D          

 27 29  0  0  0  0            999 V2000
    3.7364   -7.3838    0.0000 C   0  0  0  0  0  0  0  0  0  0  0  0
    3.7364   -8.2088    0.0000 C   0  0  0  0  0  0  0  0  0  0  0  0
    4.4509   -8.6212    0.0000 C   0  0  0  0  0  0  0  0  0  0  0  0
    5.1653   -8.2088    0.0000 C   0  0  0  0  0  0  0  0  0  0  0  0
    5.1653   -7.3838    0.0000 C   0  0  0  0  0  0  0  0  0  0  0  0
    4.4509   -6.9712    0.0000 C   0  0  0  0  0  0  0  0  0  0  0  0
    5.8798   -8.6212    0.0000 C   0  0  0  0  0  0  0  0  0  0  0  0
    6.5943   -8.2088    0.0000 C   0  0  0  0  0  0  0  0  0  0  0  0
    6.5943   -7.3838    0.0000 C   0  0  0  0  0  0  0  0  0  0  0  0
    5.8798   -6.9712    0.0000 C   0  0  0  0  0  0  0  0  0  0  0  0
    7.3088   -6.9712    0.0000 C   0  0  0  0  0  0  0  0  0  0  0  0
    7.3088   -6.1463    0.0000 C   0  0  0  0  0  0  0  0  0  0  0  0
    8.0232   -7.3838    0.0000 C   0  0  0  0  0  0  0  0  0  0  0  0
    8.7377   -6.9712    0.0000 C   0  0  0  0  0  0  0  0  0  0  0  0
    8.7377   -6.1463    0.0000 C   0  0  0  0  0  0  0  0  0  0  0  0
    8.0232   -5.7338    0.0000 C   0  0  0  0  0  0  0  0  0  0  0  0
    3.0219   -6.9713    0.0000 O   0  0  0  0  0  0  0  0  0  0  0  0
    2.3075   -6.5587    0.0000 C   0  0  0  0  0  0  0  0  0  0  0  0
    3.0219   -8.6212    0.0000 O   0  0  0  0  0  0  0  0  0  0  0  0
    4.4509   -9.4462    0.0000 O   0  0  0  0  0  0  0  0  0  0  0  0
    5.8798   -9.4462    0.0000 O   0  0  0  0  0  0  0  0  0  0  0  0
    7.3088   -8.6213    0.0000 O   0  0  0  0  0  0  0  0  0  0  0  0
    8.0232   -4.9088    0.0000 H   0  0  0  0  0  0  0  0  0  0  0  0
    9.4522   -5.7338    0.0000 O   0  0  0  0  0  0  0  0  0  0  0  0
    9.4522   -7.3838    0.0000 H   0  0  0  0  0  0  0  0  0  0  0  0
    2.3075   -9.0338    0.0000 C   0  0  0  0  0  0  0  0  0  0  0  0
    8.0232   -9.0337    0.0000 C   0  0  0  0  0  0  0  0  0  0  0  0
  1  2  1  0  0  0  0
  2  3  2  0  0  0  0
  3  4  1  0  0  0  0
  4  5  2  0  0  0  0
  5  6  1  0  0  0  0
  6  1  2  0  0  0  0
  4  7  1  0  0  0  0
  7  8  1  0  0  0  0
  8  9  2  0  0  0  0
  9 10  1  0  0  0  0
 10  5  1  0  0  0  0
  9 11  1  0  0  0  0
 11 12  2  0  0  0  0
 11 13  1  0  0  0  0
 13 14  2  0  0  0  0
 14 15  1  0  0  0  0
 15 16  2  0  0  0  0
 16 12  1  0  0  0  0
  1 17  1  0  0  0  0
  2 19  1  0  0  0  0
  3 20  1  0  0  0  0
  7 21  2  0  0  0  0
  8 22  1  0  0  0  0
 16 23  1  0  0  0  0
 15 24  1  0  0  0  0
 14 25  1  0  0  0  0
 17 18  1  0  0  0  0
 19 26  1  0  0  0  0
 22 27  1  0  0  0  0
M  STY  3   1 SUP   2 SUP   3 SUP
M  SAL   1  2  17  18
M  SBL   1  1  19
M  SMT   1 OCH3
M  SAP   1  1  17   1  1
M  SAL   2  2  19  26
M  SBL   2  1  20
M  SMT   2 OCH3
M  SAP   2  1  19   2  1
M  SAL   3  2  22  27
M  SBL   3  1  23
M  SMT   3 OCH3
M  SAP   3  1  22   8  1
M  END
>  <cdx:fragmentId>
5

$$$$
