883304.cdx
  Mrv1902 05222410262D          

 23 25  0  0  0  0            999 V2000
    8.4527   -7.9084    0.0000 C   0  0  0  0  0  0  0  0  0  0  0  0
    9.1672   -8.3209    0.0000 C   0  0  0  0  0  0  0  0  0  0  0  0
    9.1672   -9.1459    0.0000 C   0  0  0  0  0  0  0  0  0  0  0  0
    8.4527   -9.5584    0.0000 C   0  0  0  0  0  0  0  0  0  0  0  0
    7.7382   -9.1459    0.0000 C   0  0  0  0  0  0  0  0  0  0  0  0
    7.0238   -9.5584    0.0000 C   0  0  0  0  0  0  0  0  0  0  0  0
    6.3093   -9.1459    0.0000 C   0  0  0  0  0  0  0  0  0  0  0  0
    5.5948   -9.5584    0.0000 C   0  0  0  0  0  0  0  0  0  0  0  0
    4.8804   -9.1459    0.0000 C   0  0  0  0  0  0  0  0  0  0  0  0
    4.8804   -8.3209    0.0000 C   0  0  0  0  0  0  0  0  0  0  0  0
    5.5948   -7.9084    0.0000 C   0  0  0  0  0  0  0  0  0  0  0  0
    6.3093   -8.3209    0.0000 C   0  0  0  0  0  0  0  0  0  0  0  0
    7.0238   -7.9084    0.0000 C   0  0  0  0  0  0  0  0  0  0  0  0
    7.7382   -8.3209    0.0000 C   0  0  0  0  0  0  0  0  0  0  0  0
    9.8816   -7.9084    0.0000 C   0  0  0  0  0  0  0  0  0  0  0  0
    9.8816   -7.0834    0.0000 O   0  0  0  0  0  0  0  0  0  0  0  0
   10.5961   -8.3209    0.0000 O   0  0  0  0  0  0  0  0  0  0  0  0
    7.0238  -10.3834    0.0000 O   0  0  0  0  0  0  0  0  0  0  0  0
    7.0238   -7.0834    0.0000 O   0  0  0  0  0  0  0  0  0  0  0  0
    8.4527   -7.0834    0.0000 C   0  0  0  0  0  0  0  0  0  0  0  0
    5.5948   -7.0834    0.0000 O   0  0  0  0  0  0  0  0  0  0  0  0
    4.1659   -9.5584    0.0000 O   0  0  0  0  0  0  0  0  0  0  0  0
    9.8816   -9.5584    0.0000 O   0  0  0  0  0  0  0  0  0  0  0  0
  1  2  1  0  0  0  0
  2  3  2  0  0  0  0
  3  4  1  0  0  0  0
  4  5  2  0  0  0  0
  5  6  1  0  0  0  0
  6  7  1  0  0  0  0
  7  8  1  0  0  0  0
  8  9  2  0  0  0  0
  9 10  1  0  0  0  0
 10 11  2  0  0  0  0
 11 12  1  0  0  0  0
  7 12  2  0  0  0  0
 12 13  1  0  0  0  0
 13 14  1  0  0  0  0
  5 14  1  0  0  0  0
  1 14  2  0  0  0  0
 15 16  2  0  0  0  0
 15 17  1  0  0  0  0
  2 15  1  0  0  0  0
  6 18  2  0  0  0  0
 13 19  2  0  0  0  0
  1 20  1  0  0  0  0
 11 21  1  0  0  0  0
  9 22  1  0  0  0  0
  3 23  1  0  0  0  0
M  END
>  <cdx:fragmentId>
31200

$$$$
