8834.cdx
  Mrv1902 05222410222D          

 15 14  0  0  0  0            999 V2000
    3.7900   -2.5858    0.0000 C   0  0  0  0  0  0  0  0  0  0  0  0
    3.0755   -2.1733    0.0000 C   0  0  0  0  0  0  0  0  0  0  0  0
    2.3610   -2.5858    0.0000 C   0  0  0  0  0  0  0  0  0  0  0  0
    3.7900   -3.4108    0.0000 O   0  0  0  0  0  0  0  0  0  0  0  0
    4.5044   -2.1733    0.0000 O   0  0  0  0  0  0  0  0  0  0  0  0
    5.2189   -2.5858    0.0000 C   0  0  0  0  0  0  0  0  0  0  0  0
    5.9334   -2.1733    0.0000 C   0  0  0  0  0  0  0  0  0  0  0  0
    6.6479   -2.5858    0.0000 C   0  0  0  0  0  0  0  0  0  0  0  0
    7.3623   -2.1733    0.0000 C   0  0  0  0  0  0  0  0  0  0  0  0
    8.0768   -2.5858    0.0000 C   0  0  0  0  0  0  0  0  0  0  0  0
    8.7913   -2.1733    0.0000 C   0  0  0  0  0  0  0  0  0  0  0  0
    9.5057   -2.5858    0.0000 C   0  0  0  0  0  0  0  0  0  0  0  0
   10.2202   -2.1733    0.0000 C   0  0  0  0  0  0  0  0  0  0  0  0
    9.5057   -3.4108    0.0000 C   0  0  0  0  0  0  0  0  0  0  0  0
    6.6479   -3.4108    0.0000 C   0  0  0  0  0  0  0  0  0  0  0  0
  1  2  1  0  0  0  0
  2  3  1  0  0  0  0
  1  4  2  0  0  0  0
  1  5  1  0  0  0  0
  6  7  1  0  0  0  0
  7  8  1  0  0  0  0
  8  9  1  0  0  0  0
  9 10  1  0  0  0  0
 10 11  1  0  0  0  0
 11 12  2  0  0  0  0
 12 13  1  0  0  0  0
 12 14  1  0  0  0  0
  8 15  1  0  0  0  0
  5  6  1  0  0  0  0
M  END
>  <cdx:fragmentId>
15

$$$$
