8835.cdx
  Mrv1902 05222410222D          

 16 15  0  0  0  0            999 V2000
    4.7893   -3.0464    0.0000 C   0  0  0  0  0  0  0  0  0  0  0  0
    4.0749   -2.6339    0.0000 C   0  0  0  0  0  0  0  0  0  0  0  0
    3.3604   -3.0464    0.0000 C   0  0  0  0  0  0  0  0  0  0  0  0
    2.6459   -2.6339    0.0000 C   0  0  0  0  0  0  0  0  0  0  0  0
    4.7893   -3.8714    0.0000 O   0  0  0  0  0  0  0  0  0  0  0  0
    5.5038   -2.6339    0.0000 O   0  0  0  0  0  0  0  0  0  0  0  0
    6.2183   -3.0464    0.0000 C   0  0  0  0  0  0  0  0  0  0  0  0
    6.9327   -2.6339    0.0000 C   0  0  0  0  0  0  0  0  0  0  0  0
    7.6472   -3.0464    0.0000 C   0  0  0  0  0  0  0  0  0  0  0  0
    8.3617   -2.6339    0.0000 C   0  0  0  0  0  0  0  0  0  0  0  0
    9.0762   -3.0464    0.0000 C   0  0  0  0  0  0  0  0  0  0  0  0
    9.7906   -2.6339    0.0000 C   0  0  0  0  0  0  0  0  0  0  0  0
   10.5051   -3.0464    0.0000 C   0  0  0  0  0  0  0  0  0  0  0  0
   10.5051   -3.8714    0.0000 C   0  0  0  0  0  0  0  0  0  0  0  0
   11.2196   -2.6339    0.0000 C   0  0  0  0  0  0  0  0  0  0  0  0
    7.6472   -3.8714    0.0000 C   0  0  0  0  0  0  0  0  0  0  0  0
  1  2  1  0  0  0  0
  2  3  1  0  0  0  0
  3  4  1  0  0  0  0
  1  5  2  0  0  0  0
  1  6  1  0  0  0  0
  7  8  1  0  0  0  0
  8  9  1  0  0  0  0
  9 10  1  0  0  0  0
 10 11  1  0  0  0  0
 11 12  1  0  0  0  0
 12 13  2  0  0  0  0
 13 14  1  0  0  0  0
 13 15  1  0  0  0  0
  9 16  1  0  0  0  0
  6  7  1  0  0  0  0
M  END
>  <cdx:fragmentId>
17

$$$$
