884.cdx
  Mrv1902 05222410182D          

 11 10  0  0  0  0            999 V2000
    4.4561   -2.8449    0.0000 C   0  0  0  0  0  0  0  0  0  0  0  0
    5.1667   -2.4257    0.0000 C   0  0  0  0  0  0  0  0  0  0  0  0
    5.8850   -2.8314    0.0000 C   0  0  2  0  0  0  0  0  0  0  0  0
    6.5956   -2.4123    0.0000 C   0  0  0  0  0  0  0  0  0  0  0  0
    7.3139   -2.8180    0.0000 C   0  0  0  0  0  0  0  0  0  0  0  0
    8.0245   -2.3988    0.0000 C   0  0  0  0  0  0  0  0  0  0  0  0
    8.7428   -2.8046    0.0000 C   0  0  0  0  0  0  0  0  0  0  0  0
    8.7505   -3.6296    0.0000 C   0  0  0  0  0  0  0  0  0  0  0  0
    3.7378   -2.4391    0.0000 O   0  0  0  0  0  0  0  0  0  0  0  0
    9.4533   -2.3854    0.0000 C   0  0  0  0  0  0  0  0  0  0  0  0
    5.8928   -3.6564    0.0000 C   0  0  0  0  0  0  0  0  0  0  0  0
  1  2  1  0  0  0  0
  2  3  1  0  0  0  0
  3  4  1  0  0  0  0
  4  5  1  0  0  0  0
  5  6  1  0  0  0  0
  6  7  2  0  0  0  0
  7  8  1  0  0  0  0
  1  9  1  0  0  0  0
  7 10  1  0  0  0  0
  3 11  1  6  0  0  0
M  END
>  <cdx:fragmentId>
5

$$$$
