8840.cdx
  Mrv1902 05222410202D          

 22 21  0  0  0  0            999 V2000
   12.4329   -3.7614    0.0000 C   0  0  0  0  0  0  0  0  0  0  0  0
   11.7184   -4.1739    0.0000 C   0  0  0  0  0  0  0  0  0  0  0  0
   11.0040   -3.7614    0.0000 C   0  0  0  0  0  0  0  0  0  0  0  0
   10.2895   -4.1739    0.0000 C   0  0  0  0  0  0  0  0  0  0  0  0
    9.5750   -3.7614    0.0000 C   0  0  0  0  0  0  0  0  0  0  0  0
    8.8606   -4.1739    0.0000 C   0  0  0  0  0  0  0  0  0  0  0  0
    8.1461   -3.7614    0.0000 C   0  0  0  0  0  0  0  0  0  0  0  0
    7.4316   -4.1739    0.0000 C   0  0  0  0  0  0  0  0  0  0  0  0
    6.7171   -3.7614    0.0000 C   0  0  0  0  0  0  0  0  0  0  0  0
    6.0027   -4.1739    0.0000 C   0  0  0  0  0  0  0  0  0  0  0  0
    5.2882   -3.7614    0.0000 C   0  0  0  0  0  0  0  0  0  0  0  0
    4.5737   -4.1739    0.0000 C   0  0  0  0  0  0  0  0  0  0  0  0
    3.8593   -3.7614    0.0000 C   0  0  0  0  0  0  0  0  0  0  0  0
    3.1448   -4.1739    0.0000 C   0  0  0  0  0  0  0  0  0  0  0  0
    2.4303   -3.7614    0.0000 C   0  0  0  0  0  0  0  0  0  0  0  0
    1.7158   -4.1739    0.0000 C   0  0  0  0  0  0  0  0  0  0  0  0
    1.0014   -3.7614    0.0000 C   0  0  0  0  0  0  0  0  0  0  0  0
    0.2869   -4.1739    0.0000 C   0  0  0  0  0  0  0  0  0  0  0  0
   12.4329   -2.9364    0.0000 O   0  0  0  0  0  0  0  0  0  0  0  0
   13.1474   -4.1739    0.0000 O   0  0  0  0  0  0  0  0  0  0  0  0
    4.5737   -4.9989    0.0000 O   0  0  0  0  0  0  0  0  0  0  0  0
   13.8618   -3.7614    0.0000 C   0  0  0  0  0  0  0  0  0  0  0  0
  1  2  1  0  0  0  0
  2  3  1  0  0  0  0
  3  4  1  0  0  0  0
  4  5  1  0  0  0  0
  5  6  1  0  0  0  0
  6  7  1  0  0  0  0
  7  8  1  0  0  0  0
  8  9  1  0  0  0  0
  9 10  1  0  0  0  0
 10 11  1  0  0  0  0
 11 12  1  0  0  0  0
 12 13  1  0  0  0  0
 13 14  1  0  0  0  0
 14 15  1  0  0  0  0
 15 16  1  0  0  0  0
 16 17  1  0  0  0  0
 17 18  1  0  0  0  0
  1 19  2  0  0  0  0
  1 20  1  0  0  0  0
 12 21  1  0  0  0  0
 20 22  1  0  0  0  0
M  END
>  <cdx:groupId>
67

>  <cdx:fragmentId>
5

$$$$
