chuanxiongin B.cdx
  Mrv1902 05222410182D          

 33 34  0  0  0  0            999 V2000
   10.7474   -6.6192    0.0000 C   0  0  0  0  0  0  0  0  0  0  0  0
   10.7474   -7.2792    0.0000 C   0  0  1  0  0  0  0  0  0  0  0  0
   11.3190   -7.6092    0.0000 C   0  0  1  0  0  0  0  0  0  0  0  0
   11.8906   -7.2792    0.0000 C   0  0  0  0  0  0  0  0  0  0  0  0
   11.8906   -6.6192    0.0000 C   0  0  0  0  0  0  0  0  0  0  0  0
   11.3190   -6.2892    0.0000 C   0  0  0  0  0  0  0  0  0  0  0  0
   12.5183   -7.4832    0.0000 C   0  0  0  0  0  0  0  0  0  0  0  0
   12.9062   -6.9492    0.0000 O   0  0  0  0  0  0  0  0  0  0  0  0
   12.5183   -6.4153    0.0000 C   0  0  0  0  0  0  0  0  0  0  0  0
   12.6891   -5.7778    0.0000 C   0  0  0  0  0  0  0  0  0  0  0  0
   13.3266   -5.6069    0.0000 C   0  0  0  0  0  0  0  0  0  0  0  0
   13.4974   -4.9694    0.0000 C   0  0  0  0  0  0  0  0  0  0  0  0
   14.1349   -4.7986    0.0000 C   0  0  0  0  0  0  0  0  0  0  0  0
   12.6891   -8.1207    0.0000 O   0  0  0  0  0  0  0  0  0  0  0  0
   10.1758   -7.6092    0.0000 O   0  0  0  0  0  0  0  0  0  0  0  0
   11.3067   -8.2692    0.0000 O   0  0  0  0  0  0  0  0  0  0  0  0
    9.6077   -7.9277    0.0000 C   0  0  0  0  0  0  0  0  0  0  0  0
    9.0361   -7.5977    0.0000 C   0  0  0  0  0  0  0  0  0  0  0  0
    8.4645   -7.9277    0.0000 C   0  0  0  0  0  0  0  0  0  0  0  0
    7.8929   -7.5977    0.0000 C   0  0  0  0  0  0  0  0  0  0  0  0
    7.3213   -7.9277    0.0000 C   0  0  0  0  0  0  0  0  0  0  0  0
    6.7498   -7.5977    0.0000 C   0  0  0  0  0  0  0  0  0  0  0  0
    6.1782   -7.9277    0.0000 C   0  0  0  0  0  0  0  0  0  0  0  0
    5.6066   -7.5977    0.0000 C   0  0  0  0  0  0  0  0  0  0  0  0
    5.0350   -7.9277    0.0000 C   0  0  0  0  0  0  0  0  0  0  0  0
    4.4635   -7.5977    0.0000 C   0  0  0  0  0  0  0  0  0  0  0  0
    3.8919   -7.9277    0.0000 C   0  0  0  0  0  0  0  0  0  0  0  0
    3.3203   -7.5977    0.0000 C   0  0  0  0  0  0  0  0  0  0  0  0
    2.7487   -7.9277    0.0000 C   0  0  0  0  0  0  0  0  0  0  0  0
    2.1772   -7.5977    0.0000 C   0  0  0  0  0  0  0  0  0  0  0  0
    1.6056   -7.9277    0.0000 C   0  0  0  0  0  0  0  0  0  0  0  0
    1.0340   -7.5977    0.0000 C   0  0  0  0  0  0  0  0  0  0  0  0
    9.6077   -8.7527    0.0000 O   0  0  0  0  0  0  0  0  0  0  0  0
  1  2  1  0  0  0  0
  2  3  1  0  0  0  0
  3  4  1  0  0  0  0
  4  5  2  0  0  0  0
  5  6  1  0  0  0  0
  6  1  1  0  0  0  0
  4  7  1  0  0  0  0
  7  8  1  0  0  0  0
  8  9  1  0  0  0  0
  9  5  1  0  0  0  0
  9 10  2  0  0  0  0
 10 11  1  0  0  0  0
 11 12  1  0  0  0  0
 12 13  1  0  0  0  0
  7 14  2  0  0  0  0
  2 15  1  1  0  0  0
  3 16  1  1  0  0  0
 18 17  1  0  0  0  0
 19 18  1  0  0  0  0
 20 19  1  0  0  0  0
 21 20  1  0  0  0  0
 22 21  1  0  0  0  0
 23 22  1  0  0  0  0
 24 23  1  0  0  0  0
 25 24  1  0  0  0  0
 26 25  1  0  0  0  0
 27 26  1  0  0  0  0
 28 27  1  0  0  0  0
 29 28  1  0  0  0  0
 30 29  1  0  0  0  0
 31 30  1  0  0  0  0
 32 31  1  0  0  0  0
 17 33  2  0  0  0  0
 17 15  1  0  0  0  0
M  END
>  <cdx:fragmentId>
262

$$$$
