8845.cdx
  Mrv1902 05222410182D          

 35 36  0  0  0  0            999 V2000
    9.8646   -7.1548    0.0000 C   0  0  0  0  0  0  0  0  0  0  0  0
    9.8646   -7.7323    0.0000 C   0  0  1  0  0  0  0  0  0  0  0  0
   10.3647   -8.0210    0.0000 C   0  0  1  0  0  0  0  0  0  0  0  0
   10.8648   -7.7323    0.0000 C   0  0  0  0  0  0  0  0  0  0  0  0
   10.8648   -7.1548    0.0000 C   0  0  0  0  0  0  0  0  0  0  0  0
   10.3647   -6.8660    0.0000 C   0  0  0  0  0  0  0  0  0  0  0  0
   11.4141   -7.9107    0.0000 C   0  0  0  0  0  0  0  0  0  0  0  0
   11.7535   -7.4435    0.0000 O   0  0  0  0  0  0  0  0  0  0  0  0
   11.4141   -6.9763    0.0000 C   0  0  0  0  0  0  0  0  0  0  0  0
   11.5635   -6.4185    0.0000 C   0  0  0  0  0  0  0  0  0  0  0  0
   12.1214   -6.2690    0.0000 C   0  0  0  0  0  0  0  0  0  0  0  0
   12.2708   -5.7112    0.0000 C   0  0  0  0  0  0  0  0  0  0  0  0
   12.8286   -5.5617    0.0000 C   0  0  0  0  0  0  0  0  0  0  0  0
   11.7028   -8.4109    0.0000 O   0  0  0  0  0  0  0  0  0  0  0  0
    9.3644   -8.0210    0.0000 O   0  0  0  0  0  0  0  0  0  0  0  0
   10.3647   -8.5985    0.0000 O   0  0  0  0  0  0  0  0  0  0  0  0
    9.8253   -8.9678    0.0000 C   0  0  0  0  0  0  0  0  0  0  0  0
    9.3251   -8.6790    0.0000 C   0  0  0  0  0  0  0  0  0  0  0  0
    8.8250   -8.9678    0.0000 C   0  0  0  0  0  0  0  0  0  0  0  0
    8.3249   -8.6790    0.0000 C   0  0  0  0  0  0  0  0  0  0  0  0
    7.8248   -8.9678    0.0000 C   0  0  0  0  0  0  0  0  0  0  0  0
    7.3246   -8.6790    0.0000 C   0  0  0  0  0  0  0  0  0  0  0  0
    6.8245   -8.9678    0.0000 C   0  0  0  0  0  0  0  0  0  0  0  0
    6.3244   -8.6790    0.0000 C   0  0  0  0  0  0  0  0  0  0  0  0
    5.8242   -8.9678    0.0000 C   0  0  0  0  0  0  0  0  0  0  0  0
    9.8253   -9.5453    0.0000 O   0  0  0  0  0  0  0  0  0  0  0  0
    5.2467   -8.9678    0.0000 C   0  0  0  0  0  0  0  0  0  0  0  0
    4.7433   -8.6790    0.0000 C   0  0  0  0  0  0  0  0  0  0  0  0
    4.2431   -8.9678    0.0000 C   0  0  0  0  0  0  0  0  0  0  0  0
    3.7430   -8.6790    0.0000 C   0  0  0  0  0  0  0  0  0  0  0  0
    3.2429   -8.9678    0.0000 C   0  0  0  0  0  0  0  0  0  0  0  0
    2.7428   -8.6790    0.0000 C   0  0  0  0  0  0  0  0  0  0  0  0
    2.2426   -8.9678    0.0000 C   0  0  0  0  0  0  0  0  0  0  0  0
    1.7425   -8.6790    0.0000 C   0  0  0  0  0  0  0  0  0  0  0  0
    1.2424   -8.9678    0.0000 C   0  0  0  0  0  0  0  0  0  0  0  0
  1  2  1  0  0  0  0
  2  3  1  0  0  0  0
  3  4  1  0  0  0  0
  4  5  2  0  0  0  0
  5  6  1  0  0  0  0
  6  1  1  0  0  0  0
  4  7  1  0  0  0  0
  7  8  1  0  0  0  0
  8  9  1  0  0  0  0
  9  5  1  0  0  0  0
  9 10  2  0  0  0  0
 10 11  1  0  0  0  0
 11 12  1  0  0  0  0
 12 13  1  0  0  0  0
  7 14  2  0  0  0  0
  2 15  1  1  0  0  0
  3 16  1  1  0  0  0
 17 18  1  0  0  0  0
 18 19  1  0  0  0  0
 19 20  1  0  0  0  0
 20 21  1  0  0  0  0
 21 22  1  0  0  0  0
 22 23  1  0  0  0  0
 23 24  1  0  0  0  0
 24 25  1  0  0  0  0
 17 26  2  0  0  0  0
 25 27  2  0  0  0  0
 28 29  1  0  0  0  0
 29 30  1  0  0  0  0
 30 31  1  0  0  0  0
 31 32  1  0  0  0  0
 32 33  1  0  0  0  0
 33 34  1  0  0  0  0
 34 35  1  0  0  0  0
 28 27  1  0  0  0  0
 17 16  1  0  0  0  0
M  END
>  <cdx:fragmentId>
44

$$$$
