8847.cdx
  Mrv1902 05222410192D          

 35 36  0  0  0  0            999 V2000
    9.8646   -7.1548    0.0000 C   0  0  0  0  0  0  0  0  0  0  0  0
    9.8646   -7.7323    0.0000 C   0  0  1  0  0  0  0  0  0  0  0  0
   10.3647   -8.0210    0.0000 C   0  0  1  0  0  0  0  0  0  0  0  0
   10.8648   -7.7323    0.0000 C   0  0  0  0  0  0  0  0  0  0  0  0
   10.8648   -7.1548    0.0000 C   0  0  0  0  0  0  0  0  0  0  0  0
   10.3647   -6.8660    0.0000 C   0  0  0  0  0  0  0  0  0  0  0  0
   11.4141   -7.9107    0.0000 C   0  0  0  0  0  0  0  0  0  0  0  0
   11.7535   -7.4435    0.0000 O   0  0  0  0  0  0  0  0  0  0  0  0
   11.4141   -6.9763    0.0000 C   0  0  0  0  0  0  0  0  0  0  0  0
   11.5635   -6.4185    0.0000 C   0  0  0  0  0  0  0  0  0  0  0  0
   12.1214   -6.2690    0.0000 C   0  0  0  0  0  0  0  0  0  0  0  0
   12.2708   -5.7112    0.0000 C   0  0  0  0  0  0  0  0  0  0  0  0
   12.8286   -5.5617    0.0000 C   0  0  0  0  0  0  0  0  0  0  0  0
   11.7028   -8.4109    0.0000 O   0  0  0  0  0  0  0  0  0  0  0  0
    9.3644   -8.0210    0.0000 O   0  0  0  0  0  0  0  0  0  0  0  0
   10.3647   -8.5985    0.0000 O   0  0  0  0  0  0  0  0  0  0  0  0
    9.8493   -8.9248    0.0000 C   0  0  0  0  0  0  0  0  0  0  0  0
    9.3492   -8.6361    0.0000 C   0  0  0  0  0  0  0  0  0  0  0  0
    8.8490   -8.9248    0.0000 C   0  0  0  0  0  0  0  0  0  0  0  0
    8.3489   -8.6361    0.0000 C   0  0  0  0  0  0  0  0  0  0  0  0
    7.8488   -8.9248    0.0000 C   0  0  0  0  0  0  0  0  0  0  0  0
    7.3486   -8.6361    0.0000 C   0  0  0  0  0  0  0  0  0  0  0  0
    6.8485   -8.9248    0.0000 C   0  0  0  0  0  0  0  0  0  0  0  0
    6.3484   -8.6361    0.0000 C   0  0  0  0  0  0  0  0  0  0  0  0
    5.8482   -8.9248    0.0000 C   0  0  0  0  0  0  0  0  0  0  0  0
    5.2707   -8.9248    0.0000 C   0  0  0  0  0  0  0  0  0  0  0  0
    4.7706   -8.6361    0.0000 C   0  0  0  0  0  0  0  0  0  0  0  0
    4.2705   -8.9248    0.0000 C   0  0  0  0  0  0  0  0  0  0  0  0
    3.6930   -8.9248    0.0000 C   0  0  0  0  0  0  0  0  0  0  0  0
    3.1929   -8.6361    0.0000 C   0  0  0  0  0  0  0  0  0  0  0  0
    2.6927   -8.9248    0.0000 C   0  0  0  0  0  0  0  0  0  0  0  0
    2.1926   -8.6361    0.0000 C   0  0  0  0  0  0  0  0  0  0  0  0
    1.6925   -8.9248    0.0000 C   0  0  0  0  0  0  0  0  0  0  0  0
    1.1923   -8.6361    0.0000 C   0  0  0  0  0  0  0  0  0  0  0  0
    9.8493   -9.5023    0.0000 O   0  0  0  0  0  0  0  0  0  0  0  0
  1  2  1  0  0  0  0
  2  3  1  0  0  0  0
  3  4  1  0  0  0  0
  4  5  2  0  0  0  0
  5  6  1  0  0  0  0
  6  1  1  0  0  0  0
  4  7  1  0  0  0  0
  7  8  1  0  0  0  0
  8  9  1  0  0  0  0
  9  5  1  0  0  0  0
  9 10  2  0  0  0  0
 10 11  1  0  0  0  0
 11 12  1  0  0  0  0
 12 13  1  0  0  0  0
  7 14  2  0  0  0  0
  2 15  1  1  0  0  0
  3 16  1  1  0  0  0
 17 18  1  0  0  0  0
 18 19  1  0  0  0  0
 19 20  1  0  0  0  0
 20 21  1  0  0  0  0
 21 22  1  0  0  0  0
 22 23  1  0  0  0  0
 23 24  1  0  0  0  0
 24 25  1  0  0  0  0
 25 26  2  0  0  0  0
 26 27  1  0  0  0  0
 27 28  1  0  0  0  0
 28 29  2  0  0  0  0
 29 30  1  0  0  0  0
 30 31  1  0  0  0  0
 31 32  1  0  0  0  0
 32 33  1  0  0  0  0
 33 34  1  0  0  0  0
 17 35  2  0  0  0  0
 17 16  1  0  0  0  0
M  END
>  <cdx:fragmentId>
95

$$$$
