884993.cdx
  Mrv1902 05222410212D          

 47 50  0  0  0  0            999 V2000
    8.8914   -8.0002    0.0000 O   0  0  0  0  0  0  0  0  0  0  0  0
   13.1862   -6.3711    0.0000 O   0  0  0  0  0  0  0  0  0  0  0  0
   13.8946   -7.6120    0.0000 C   0  0  0  0  0  0  0  0  0  0  0  0
   13.1782   -8.0210    0.0000 O   0  0  0  0  0  0  0  0  0  0  0  0
   11.0368   -7.5981    0.0000 C   0  0  0  0  0  0  0  0  0  0  0  0
   11.7493   -8.0141    0.0000 C   0  0  0  0  0  0  0  0  0  0  0  0
   12.4657   -7.6051    0.0000 C   0  0  0  0  0  0  0  0  0  0  0  0
   12.4697   -6.7801    0.0000 C   0  0  0  0  0  0  0  0  0  0  0  0
   11.7573   -6.3641    0.0000 C   0  0  0  0  0  0  0  0  0  0  0  0
   11.0408   -6.7731    0.0000 C   0  0  0  0  0  0  0  0  0  0  0  0
   10.3283   -6.3572    0.0000 C   0  0  0  0  0  0  0  0  0  0  0  0
    9.6119   -6.7662    0.0000 C   0  0  0  0  0  0  0  0  0  0  0  0
    8.8994   -6.3502    0.0000 O   0  0  0  0  0  0  0  0  0  0  0  0
    6.0456   -5.5114    0.0000 O   0  0  0  0  0  0  0  0  0  0  0  0
    6.0416   -6.3364    0.0000 C   0  0  0  0  0  0  0  0  0  0  0  0
    7.4505  -10.4682    0.0000 O   0  0  0  0  0  0  0  0  0  0  0  0
    6.0175  -11.2863    0.0000 O   0  0  0  0  0  0  0  0  0  0  0  0
    4.5926  -10.4544    0.0000 O   0  0  0  0  0  0  0  0  0  0  0  0
    3.8842   -9.2134    0.0000 O   0  0  0  0  0  0  0  0  0  0  0  0
    4.6006   -8.8044    0.0000 C   0  0  0  0  0  0  0  0  0  0  0  0
    5.3131   -9.2203    0.0000 C   0  0  2  0  0  0  0  0  0  0  0  0
    5.3091  -10.0453    0.0000 C   0  0  2  0  0  0  0  0  0  0  0  0
    6.0215  -10.4613    0.0000 C   0  0  1  0  0  0  0  0  0  0  0  0
    6.7380  -10.0523    0.0000 C   0  0  2  0  0  0  0  0  0  0  0  0
    6.7420   -9.2273    0.0000 C   0  0  1  0  0  0  0  0  0  0  0  0
    6.0295   -8.8113    0.0000 O   0  0  0  0  0  0  0  0  0  0  0  0
    7.4585   -8.8183    0.0000 O   0  0  0  0  0  0  0  0  0  0  0  0
    8.1830   -6.7593    0.0000 C   0  0  1  0  0  0  0  0  0  0  0  0
    8.1789   -7.5843    0.0000 C   0  0  1  0  0  0  0  0  0  0  0  0
    7.4625   -7.9933    0.0000 C   0  0  2  0  0  0  0  0  0  0  0  0
    6.7500   -7.5773    0.0000 C   0  0  1  0  0  0  0  0  0  0  0  0
    6.7540   -6.7523    0.0000 C   0  0  2  0  0  0  0  0  0  0  0  0
    7.4705   -6.3433    0.0000 O   0  0  0  0  0  0  0  0  0  0  0  0
    1.0263   -9.1995    0.0000 O   0  0  0  0  0  0  0  0  0  0  0  0
    0.3179   -7.9586    0.0000 C   0  0  0  0  0  0  0  0  0  0  0  0
    1.0343   -7.5495    0.0000 O   0  0  0  0  0  0  0  0  0  0  0  0
    3.1717   -8.7974    0.0000 C   0  0  0  0  0  0  0  0  0  0  0  0
    2.4552   -9.2065    0.0000 C   0  0  0  0  0  0  0  0  0  0  0  0
    1.7428   -8.7905    0.0000 C   0  0  0  0  0  0  0  0  0  0  0  0
    1.7468   -7.9655    0.0000 C   0  0  0  0  0  0  0  0  0  0  0  0
    2.4632   -7.5565    0.0000 C   0  0  0  0  0  0  0  0  0  0  0  0
    3.1757   -7.9724    0.0000 C   0  0  0  0  0  0  0  0  0  0  0  0
    6.0336   -7.9863    0.0000 O   0  0  0  0  0  0  0  0  0  0  0  0
    5.3251   -6.7454    0.0000 O   0  0  0  0  0  0  0  0  0  0  0  0
    3.8922   -7.5634    0.0000 C   0  0  0  0  0  0  0  0  0  0  0  0
    4.6046   -7.9794    0.0000 C   0  0  0  0  0  0  0  0  0  0  0  0
    5.3211   -7.5704    0.0000 C   0  0  0  0  0  0  0  0  0  0  0  0
 31 43  1  6  0  0  0
 29  1  1  6  0  0  0
 28 13  1  1  0  0  0
 11 10  1  0  0  0  0
  8  2  1  0  0  0  0
  7  4  1  0  0  0  0
  4  3  1  0  0  0  0
 10  5  2  0  0  0  0
  6  5  1  0  0  0  0
  7  6  2  0  0  0  0
  8  7  1  0  0  0  0
  9  8  2  0  0  0  0
 10  9  1  0  0  0  0
 13 12  1  0  0  0  0
 12 11  1  0  0  0  0
 32 15  1  1  0  0  0
 15 14  1  0  0  0  0
 30 27  1  1  0  0  0
 25 27  1  1  0  0  0
 24 16  1  6  0  0  0
 23 17  1  1  0  0  0
 22 18  1  6  0  0  0
 21 20  1  1  0  0  0
 20 19  1  0  0  0  0
 26 21  1  0  0  0  0
 22 21  1  0  0  0  0
 23 22  1  0  0  0  0
 24 23  1  0  0  0  0
 25 24  1  0  0  0  0
 26 25  1  0  0  0  0
 33 28  1  0  0  0  0
 29 28  1  0  0  0  0
 30 29  1  0  0  0  0
 31 30  1  0  0  0  0
 32 31  1  0  0  0  0
 33 32  1  0  0  0  0
 45 42  1  0  0  0  0
 39 34  1  0  0  0  0
 40 36  1  0  0  0  0
 36 35  1  0  0  0  0
 42 37  2  0  0  0  0
 38 37  1  0  0  0  0
 39 38  2  0  0  0  0
 40 39  1  0  0  0  0
 41 40  2  0  0  0  0
 42 41  1  0  0  0  0
 47 43  1  0  0  0  0
 47 44  2  0  0  0  0
 46 45  2  0  0  0  0
 47 46  1  0  0  0  0
M  END
>  <cdx:groupId>
218662

>  <cdx:fragmentId>
218563

$$$$
