91884970.cdx
  Mrv1902 05222410242D          

 20 21  0  0  0  0            999 V2000
    5.9761   -7.0896    0.0000 C   0  0  1  0  0  0  0  0  0  0  0  0
    5.4911   -6.4221    0.0000 C   0  0  0  0  0  0  0  0  0  0  0  0
    5.9761   -5.7547    0.0000 C   0  0  0  0  0  0  0  0  0  0  0  0
    6.7607   -6.0096    0.0000 C   0  0  1  0  0  0  0  0  0  0  0  0
    7.4057   -5.4952    0.0000 C   0  0  1  0  0  0  0  0  0  0  0  0
    8.2100   -5.6788    0.0000 C   0  0  0  0  0  0  0  0  0  0  0  0
    8.5680   -6.4221    0.0000 C   0  0  0  0  0  0  0  0  0  0  0  0
    8.2100   -7.1654    0.0000 C   0  0  2  0  0  0  0  0  0  0  0  0
    7.4057   -7.3490    0.0000 C   0  0  2  0  0  0  0  0  0  0  0  0
    6.7607   -6.8346    0.0000 C   0  0  2  0  0  0  0  0  0  0  0  0
    6.1476   -7.8965    0.0000 O   0  0  0  0  0  0  0  0  0  0  0  0
    6.8446   -4.8905    0.0000 O   0  0  0  0  0  0  0  0  0  0  0  0
    7.2221   -8.1533    0.0000 O   0  0  0  0  0  0  0  0  0  0  0  0
    8.4230   -8.5784    0.0000 C   0  0  0  0  0  0  0  0  0  0  0  0
    8.7244   -7.8104    0.0000 C   0  0  0  0  0  0  0  0  0  0  0  0
    9.5402   -7.6875    0.0000 C   0  0  0  0  0  0  0  0  0  0  0  0
    7.6489   -4.7069    0.0000 C   0  0  0  0  0  0  0  0  0  0  0  0
    5.3630   -7.6416    0.0000 C   0  0  0  0  0  0  0  0  0  0  0  0
    6.4747   -5.2358    0.0000 H   0  0  0  0  0  0  0  0  0  0  0  0
    6.6134   -7.6464    0.0000 H   0  0  0  0  0  0  0  0  0  0  0  0
  1  2  1  0  0  0  0
  2  3  1  0  0  0  0
  3  4  1  0  0  0  0
  4  5  1  0  0  0  0
  5  6  1  0  0  0  0
  6  7  1  0  0  0  0
  7  8  1  0  0  0  0
  8  9  1  0  0  0  0
  9 10  1  0  0  0  0
  1 10  1  0  0  0  0
  4 10  1  0  0  0  0
  1 11  1  1  0  0  0
  5 12  1  6  0  0  0
  9 13  1  1  0  0  0
 14 15  1  0  0  0  0
 15 16  1  0  0  0  0
  8 15  1  1  0  0  0
  5 17  1  1  0  0  0
  1 18  1  6  0  0  0
  4 19  1  6  0  0  0
 10 20  1  1  0  0  0
M  END
>  <cdx:groupId>
63

>  <cdx:fragmentId>
5

$$$$
