88502.cdx
  Mrv1902 05222410272D          

 31 33  0  0  0  0            999 V2000
    6.8247   -9.2491    0.0000 C   0  0  0  0  0  0  0  0  0  0  0  0
    6.8220   -8.4241    0.0000 C   0  0  2  0  0  0  0  0  0  0  0  0
    7.5351   -8.0093    0.0000 C   0  0  2  0  0  0  0  0  0  0  0  0
    8.2509   -8.4194    0.0000 C   0  0  0  0  0  0  0  0  0  0  0  0
    8.9640   -8.0046    0.0000 C   0  0  0  0  0  0  0  0  0  0  0  0
    9.6798   -8.4148    0.0000 C   0  0  0  0  0  0  0  0  0  0  0  0
    9.6825   -9.2398    0.0000 C   0  0  0  0  0  0  0  0  0  0  0  0
    8.9694   -9.6546    0.0000 C   0  0  0  0  0  0  0  0  0  0  0  0
    8.2536   -9.2444    0.0000 C   0  0  0  0  0  0  0  0  0  0  0  0
    7.5405   -9.6593    0.0000 O   0  0  0  0  0  0  0  0  0  0  0  0
   10.3930   -8.0000    0.0000 C   0  0  0  0  0  0  0  0  0  0  0  0
   10.3903   -7.1750    0.0000 C   0  0  0  0  0  0  0  0  0  0  0  0
    9.6745   -6.7648    0.0000 C   0  0  0  0  0  0  0  0  0  0  0  0
    8.9613   -7.1796    0.0000 O   0  0  0  0  0  0  0  0  0  0  0  0
    9.6718   -5.9398    0.0000 O   0  0  0  0  0  0  0  0  0  0  0  0
    6.4145   -9.9649    0.0000 C   0  0  0  0  0  0  0  0  0  0  0  0
    5.9997   -9.2518    0.0000 C   0  0  0  0  0  0  0  0  0  0  0  0
    7.5324   -7.1843    0.0000 O   0  0  0  0  0  0  0  0  0  0  0  0
    6.1062   -8.0139    0.0000 O   0  0  0  0  0  0  0  0  0  0  0  0
    5.3930   -8.4288    0.0000 C   0  0  0  0  0  0  0  0  0  0  0  0
    4.6772   -8.0186    0.0000 C   0  0  0  0  0  0  0  0  0  0  0  0
    5.3957   -9.2538    0.0000 O   0  0  0  0  0  0  0  0  0  0  0  0
    3.9641   -8.4334    0.0000 C   0  0  0  0  0  0  0  0  0  0  0  0
    4.6745   -7.1936    0.0000 C   0  0  0  0  0  0  0  0  0  0  0  0
    3.9641   -9.2584    0.0000 C   0  0  0  0  0  0  0  0  0  0  0  0
    6.8166   -6.7741    0.0000 C   0  0  0  0  0  0  0  0  0  0  0  0
    6.1035   -7.1889    0.0000 O   0  0  0  0  0  0  0  0  0  0  0  0
    6.8139   -5.9491    0.0000 C   0  0  0  0  0  0  0  0  0  0  0  0
    6.0981   -5.5389    0.0000 C   0  0  0  0  0  0  0  0  0  0  0  0
    6.0954   -4.7140    0.0000 C   0  0  0  0  0  0  0  0  0  0  0  0
    7.5270   -5.5343    0.0000 C   0  0  0  0  0  0  0  0  0  0  0  0
  1  2  1  0  0  0  0
  2  3  1  0  0  0  0
  3  4  1  0  0  0  0
  4  5  1  0  0  0  0
  5  6  2  0  0  0  0
  6  7  1  0  0  0  0
  7  8  2  0  0  0  0
  8  9  1  0  0  0  0
  4  9  2  0  0  0  0
  9 10  1  0  0  0  0
  1 10  1  0  0  0  0
 11 12  2  0  0  0  0
 12 13  1  0  0  0  0
 13 14  1  0  0  0  0
 14  5  1  0  0  0  0
 11  6  1  0  0  0  0
 13 15  2  0  0  0  0
  1 16  1  0  0  0  0
  1 17  1  0  0  0  0
  3 18  1  1  0  0  0
  2 19  1  1  0  0  0
 19 20  1  0  0  0  0
 20 21  1  0  0  0  0
 20 22  2  0  0  0  0
 21 23  2  0  0  0  0
 21 24  1  0  0  0  0
 23 25  1  0  0  0  0
 18 26  1  0  0  0  0
 26 27  2  0  0  0  0
 26 28  1  0  0  0  0
 28 29  1  0  0  0  0
 29 30  1  0  0  0  0
 28 31  1  0  0  0  0
M  END
>  <cdx:fragmentId>
5

$$$$
