8851.cdx
  Mrv1902 05222410182D          

 18 20  0  0  0  0            999 V2000
    5.4311   -8.4672    0.0000 C   0  0  1  0  0  0  0  0  0  0  0  0
    5.4288   -9.2921    0.0000 C   0  0  0  0  0  0  0  0  0  0  0  0
    6.1421   -9.7066    0.0000 C   0  0  0  0  0  0  0  0  0  0  0  0
    6.8578   -9.2961    0.0000 C   0  0  1  0  0  0  0  0  0  0  0  0
    6.8601   -8.4712    0.0000 C   0  0  0  0  0  0  0  0  0  0  0  0
    6.1467   -8.0567    0.0000 C   0  0  0  0  0  0  0  0  0  0  0  0
    7.5711   -9.7106    0.0000 C   0  0  0  0  0  0  0  0  0  0  0  0
    8.2867   -9.3001    0.0000 C   0  0  0  0  0  0  0  0  0  0  0  0
    8.2890   -8.4751    0.0000 C   0  0  2  0  0  0  0  0  0  0  0  0
    7.5757   -8.0607    0.0000 C   0  0  2  0  0  0  0  0  0  0  0  0
    8.9036   -7.9248    0.0000 C   0  0  0  0  0  0  0  0  0  0  0  0
    8.5702   -7.1702    0.0000 C   0  0  0  0  0  0  0  0  0  0  0  0
    7.7495   -7.2542    0.0000 O   0  0  0  0  0  0  0  0  0  0  0  0
    4.7178   -8.0527    0.0000 O   0  0  0  0  0  0  0  0  0  0  0  0
    6.1491   -7.2317    0.0000 C   0  0  0  0  0  0  0  0  0  0  0  0
    6.8554  -10.1211    0.0000 C   0  0  0  0  0  0  0  0  0  0  0  0
    8.9847   -6.4569    0.0000 O   0  0  0  0  0  0  0  0  0  0  0  0
    9.6999   -8.1406    0.0000 C   0  0  0  0  0  0  0  0  0  0  0  0
  1  2  1  0  0  0  0
  2  3  1  0  0  0  0
  3  4  1  0  0  0  0
  4  5  1  0  0  0  0
  5  6  2  0  0  0  0
  6  1  1  0  0  0  0
  4  7  1  0  0  0  0
  7  8  1  0  0  0  0
  8  9  1  0  0  0  0
  9 10  1  0  0  0  0
 10  5  1  0  0  0  0
  9 11  1  6  0  0  0
 11 12  1  0  0  0  0
 12 13  1  0  0  0  0
 10 13  1  1  0  0  0
  1 14  1  6  0  0  0
  6 15  1  0  0  0  0
  4 16  1  6  0  0  0
 12 17  2  0  0  0  0
 11 18  2  0  0  0  0
M  END
>  <cdx:fragmentId>
5

$$$$
