10885340.cdx
  Mrv1902 05222410192D          

 35 39  0  0  0  0            999 V2000
    5.6068  -10.3944    0.0000 C   0  0  2  0  0  0  0  0  0  0  0  0
    5.6068  -11.2194    0.0000 C   0  0  2  0  0  0  0  0  0  0  0  0
    4.8923  -11.6319    0.0000 C   0  0  0  0  0  0  0  0  0  0  0  0
    4.1779  -11.2194    0.0000 C   0  0  0  0  0  0  0  0  0  0  0  0
    3.4634  -11.6319    0.0000 C   0  0  0  0  0  0  0  0  0  0  0  0
    2.7489  -11.2194    0.0000 C   0  0  0  0  0  0  0  0  0  0  0  0
    2.7489  -10.3944    0.0000 C   0  0  0  0  0  0  0  0  0  0  0  0
    3.4634   -9.9819    0.0000 C   0  0  0  0  0  0  0  0  0  0  0  0
    4.1779  -10.3944    0.0000 C   0  0  0  0  0  0  0  0  0  0  0  0
    4.8923   -9.9819    0.0000 O   0  0  0  0  0  0  0  0  0  0  0  0
    4.8923  -12.4569    0.0000 O   0  0  0  0  0  0  0  0  0  0  0  0
    8.4647   -8.7444    0.0000 O   0  0  0  0  0  0  0  0  0  0  0  0
    9.1792   -9.1569    0.0000 C   0  0  2  0  0  0  0  0  0  0  0  0
    9.1792   -9.9819    0.0000 C   0  0  1  0  0  0  0  0  0  0  0  0
    8.4647  -10.3944    0.0000 O   0  0  0  0  0  0  0  0  0  0  0  0
    7.7502   -9.9819    0.0000 C   0  0  0  0  0  0  0  0  0  0  0  0
    7.7502   -9.1569    0.0000 C   0  0  0  0  0  0  0  0  0  0  0  0
    7.0357  -10.3944    0.0000 C   0  0  0  0  0  0  0  0  0  0  0  0
    6.3213   -9.9819    0.0000 C   0  0  0  0  0  0  0  0  0  0  0  0
    6.3213   -9.1569    0.0000 C   0  0  0  0  0  0  0  0  0  0  0  0
    7.0357   -8.7444    0.0000 C   0  0  0  0  0  0  0  0  0  0  0  0
    9.8936  -10.3944    0.0000 C   0  0  0  0  0  0  0  0  0  0  0  0
   10.6081   -9.9819    0.0000 O   0  0  0  0  0  0  0  0  0  0  0  0
    9.8936   -8.7444    0.0000 C   0  0  0  0  0  0  0  0  0  0  0  0
   10.6081   -9.1569    0.0000 C   0  0  0  0  0  0  0  0  0  0  0  0
   11.3226   -8.7444    0.0000 C   0  0  0  0  0  0  0  0  0  0  0  0
   11.3226   -7.9194    0.0000 C   0  0  0  0  0  0  0  0  0  0  0  0
   10.6081   -7.5069    0.0000 C   0  0  0  0  0  0  0  0  0  0  0  0
    9.8936   -7.9194    0.0000 C   0  0  0  0  0  0  0  0  0  0  0  0
   12.0370   -9.1569    0.0000 O   0  0  0  0  0  0  0  0  0  0  0  0
   12.7515   -8.7444    0.0000 C   0  0  0  0  0  0  0  0  0  0  0  0
   12.0370   -7.5069    0.0000 O   0  0  0  0  0  0  0  0  0  0  0  0
    2.0345   -9.9819    0.0000 O   0  0  0  0  0  0  0  0  0  0  0  0
    3.4634  -12.4569    0.0000 O   0  0  0  0  0  0  0  0  0  0  0  0
    6.3213  -11.6319    0.0000 O   0  0  0  0  0  0  0  0  0  0  0  0
  1  2  1  0  0  0  0
  2  3  1  0  0  0  0
  3  4  1  0  0  0  0
  4  5  1  0  0  0  0
  5  6  2  0  0  0  0
  6  7  1  0  0  0  0
  7  8  2  0  0  0  0
  8  9  1  0  0  0  0
  4  9  2  0  0  0  0
  9 10  1  0  0  0  0
  1 10  1  0  0  0  0
  3 11  2  0  0  0  0
 12 13  1  0  0  0  0
 13 14  1  0  0  0  0
 14 15  1  0  0  0  0
 15 16  1  0  0  0  0
 16 17  1  0  0  0  0
 12 17  1  0  0  0  0
 18 19  1  0  0  0  0
 19 20  2  0  0  0  0
 20 21  1  0  0  0  0
 21 17  2  0  0  0  0
 18 16  2  0  0  0  0
 22 23  1  0  0  0  0
 14 22  1  6  0  0  0
 24 25  1  0  0  0  0
 25 26  2  0  0  0  0
 26 27  1  0  0  0  0
 27 28  2  0  0  0  0
 28 29  1  0  0  0  0
 24 29  2  0  0  0  0
 30 31  1  0  0  0  0
 26 30  1  0  0  0  0
 27 32  1  0  0  0  0
 13 24  1  1  0  0  0
  1 19  1  6  0  0  0
  7 33  1  0  0  0  0
  5 34  1  0  0  0  0
  2 35  1  1  0  0  0
M  END
>  <cdx:groupId>
62178

>  <cdx:fragmentId>
62094

$$$$
