885531.cdx
  Mrv1902 05222410222D          

 23 25  0  0  0  0            999 V2000
    4.3462   -9.2832    0.0000 O   0  0  0  0  0  0  0  0  0  0  0  0
    4.3462   -7.6332    0.0000 O   0  0  0  0  0  0  0  0  0  0  0  0
    8.6330  -10.1082    0.0000 C   0  0  0  0  0  0  0  0  0  0  0  0
    8.6330   -9.2832    0.0000 O   0  0  0  0  0  0  0  0  0  0  0  0
    5.0606  -10.5207    0.0000 C   0  0  0  0  0  0  0  0  0  0  0  0
    5.7751  -10.1082    0.0000 O   0  0  0  0  0  0  0  0  0  0  0  0
    8.6330   -6.8082    0.0000 C   0  0  0  0  0  0  0  0  0  0  0  0
    9.3475   -6.3957    0.0000 C   0  0  0  0  0  0  0  0  0  0  0  0
   10.0619   -6.8082    0.0000 C   0  0  0  0  0  0  0  0  0  0  0  0
   10.0619   -7.6332    0.0000 C   0  0  0  0  0  0  0  0  0  0  0  0
    9.3475   -8.0457    0.0000 C   0  0  0  0  0  0  0  0  0  0  0  0
    8.6330   -7.6332    0.0000 C   0  0  0  0  0  0  0  0  0  0  0  0
    7.2040  -10.1082    0.0000 O   0  0  0  0  0  0  0  0  0  0  0  0
    7.2040   -7.6332    0.0000 O   0  0  0  0  0  0  0  0  0  0  0  0
    6.4896   -8.0457    0.0000 C   0  0  0  0  0  0  0  0  0  0  0  0
    5.7751   -7.6332    0.0000 C   0  0  0  0  0  0  0  0  0  0  0  0
    5.0606   -8.0457    0.0000 C   0  0  0  0  0  0  0  0  0  0  0  0
    5.0606   -8.8707    0.0000 C   0  0  0  0  0  0  0  0  0  0  0  0
    5.7751   -9.2832    0.0000 C   0  0  0  0  0  0  0  0  0  0  0  0
    6.4896   -8.8707    0.0000 C   0  0  0  0  0  0  0  0  0  0  0  0
    7.2040   -9.2832    0.0000 C   0  0  0  0  0  0  0  0  0  0  0  0
    7.9185   -8.8707    0.0000 C   0  0  0  0  0  0  0  0  0  0  0  0
    7.9185   -8.0457    0.0000 C   0  0  0  0  0  0  0  0  0  0  0  0
 18  1  1  0  0  0  0
 17  2  1  0  0  0  0
 22  4  1  0  0  0  0
  4  3  1  0  0  0  0
 19  6  1  0  0  0  0
  6  5  1  0  0  0  0
 23 12  1  0  0  0  0
 12  7  2  0  0  0  0
  8  7  1  0  0  0  0
  9  8  2  0  0  0  0
 10  9  1  0  0  0  0
 11 10  2  0  0  0  0
 12 11  1  0  0  0  0
 21 13  2  0  0  0  0
 23 14  1  0  0  0  0
 15 14  1  0  0  0  0
 20 15  2  0  0  0  0
 16 15  1  0  0  0  0
 17 16  2  0  0  0  0
 18 17  1  0  0  0  0
 19 18  2  0  0  0  0
 20 19  1  0  0  0  0
 21 20  1  0  0  0  0
 22 21  1  0  0  0  0
 23 22  2  0  0  0  0
M  END
>  <cdx:fragmentId>
42738

$$$$
