8857.cdx
  Mrv1902 05222410192D          

  6  5  0  0  0  0            999 V2000
    4.0045   -4.4214    0.0000 C   0  0  0  0  0  0  0  0  0  0  0  0
    3.2901   -4.8339    0.0000 C   0  0  0  0  0  0  0  0  0  0  0  0
    4.0045   -3.5964    0.0000 O   0  0  0  0  0  0  0  0  0  0  0  0
    4.7190   -4.8339    0.0000 O   0  0  0  0  0  0  0  0  0  0  0  0
    5.4335   -4.4214    0.0000 C   0  0  0  0  0  0  0  0  0  0  0  0
    6.1479   -4.8339    0.0000 C   0  0  0  0  0  0  0  0  0  0  0  0
  1  2  1  0  0  0  0
  1  3  2  0  0  0  0
  1  4  1  0  0  0  0
  5  6  1  0  0  0  0
  4  5  1  0  0  0  0
M  END
>  <cdx:groupId>
19

>  <cdx:fragmentId>
5

$$$$
