8858.cdx
  Mrv1902 05222410262D          

  7  6  0  0  0  0            999 V2000
    8.4442   -8.7516    0.0000 C   0  0  0  0  0  0  0  0  0  0  0  0
    6.3008   -7.5141    0.0000 O   0  0  0  0  0  0  0  0  0  0  0  0
    7.7297   -7.5141    0.0000 C   0  0  0  0  0  0  0  0  0  0  0  0
    7.7297   -8.3391    0.0000 C   0  0  0  0  0  0  0  0  0  0  0  0
    7.0152   -8.7516    0.0000 C   0  0  0  0  0  0  0  0  0  0  0  0
    6.3008   -8.3391    0.0000 C   0  0  0  0  0  0  0  0  0  0  0  0
    5.5863   -8.7516    0.0000 C   0  0  0  0  0  0  0  0  0  0  0  0
  4  1  1  0  0  0  0
  6  2  2  0  0  0  0
  4  3  1  0  0  0  0
  5  4  2  0  0  0  0
  6  5  1  0  0  0  0
  7  6  1  0  0  0  0
M  END
>  <cdx:fragmentId>
5

$$$$
