886689.cdx
  Mrv1902 05222410202D          

 25 27  0  0  0  0            999 V2000
    7.8180   -9.5148    0.0000 C   0  0  0  0  0  0  0  0  0  0  0  0
    7.8180  -10.3398    0.0000 C   0  0  0  0  0  0  0  0  0  0  0  0
    7.1035  -10.7523    0.0000 C   0  0  0  0  0  0  0  0  0  0  0  0
    6.3890  -10.3398    0.0000 C   0  0  0  0  0  0  0  0  0  0  0  0
    5.6746  -10.7523    0.0000 C   0  0  0  0  0  0  0  0  0  0  0  0
    4.9601  -10.3398    0.0000 C   0  0  0  0  0  0  0  0  0  0  0  0
    4.9601   -9.5148    0.0000 C   0  0  0  0  0  0  0  0  0  0  0  0
    5.6746   -9.1023    0.0000 C   0  0  0  0  0  0  0  0  0  0  0  0
    6.3890   -9.5148    0.0000 C   0  0  0  0  0  0  0  0  0  0  0  0
    7.1035   -9.1023    0.0000 O   0  0  0  0  0  0  0  0  0  0  0  0
    7.1035  -11.5773    0.0000 O   0  0  0  0  0  0  0  0  0  0  0  0
    5.6746   -8.2773    0.0000 C   0  0  0  0  0  0  0  0  0  0  0  0
    4.9601   -7.8648    0.0000 C   0  0  0  0  0  0  0  0  0  0  0  0
    4.9601   -7.0398    0.0000 C   0  0  0  0  0  0  0  0  0  0  0  0
    5.6746   -6.6273    0.0000 C   0  0  0  0  0  0  0  0  0  0  0  0
    4.2456   -6.6273    0.0000 C   0  0  0  0  0  0  0  0  0  0  0  0
    4.2456   -9.1023    0.0000 O   0  0  0  0  0  0  0  0  0  0  0  0
    9.2469   -7.0398    0.0000 O   0  0  0  0  0  0  0  0  0  0  0  0
   10.6759   -7.8648    0.0000 O   0  0  0  0  0  0  0  0  0  0  0  0
    9.2469   -9.5148    0.0000 C   0  0  0  0  0  0  0  0  0  0  0  0
    9.9614   -9.1023    0.0000 C   0  0  0  0  0  0  0  0  0  0  0  0
    9.9614   -8.2773    0.0000 C   0  0  0  0  0  0  0  0  0  0  0  0
    9.2469   -7.8648    0.0000 C   0  0  0  0  0  0  0  0  0  0  0  0
    8.5325   -8.2773    0.0000 C   0  0  0  0  0  0  0  0  0  0  0  0
    8.5325   -9.1023    0.0000 C   0  0  0  0  0  0  0  0  0  0  0  0
 23 18  1  0  0  0  0
 22 19  1  0  0  0  0
 25 20  2  0  0  0  0
 21 20  1  0  0  0  0
 22 21  2  0  0  0  0
 23 22  1  0  0  0  0
 24 23  2  0  0  0  0
 25 24  1  0  0  0  0
  1  2  2  0  0  0  0
  2  3  1  0  0  0  0
  3  4  1  0  0  0  0
  4  5  1  0  0  0  0
  5  6  2  0  0  0  0
  6  7  1  0  0  0  0
  7  8  2  0  0  0  0
  8  9  1  0  0  0  0
  4  9  2  0  0  0  0
  9 10  1  0  0  0  0
  1 10  1  0  0  0  0
  3 11  2  0  0  0  0
 12 13  1  0  0  0  0
 13 14  2  0  0  0  0
 14 15  1  0  0  0  0
 14 16  1  0  0  0  0
  8 12  1  0  0  0  0
  7 17  1  0  0  0  0
  1 25  1  0  0  0  0
M  END
>  <cdx:groupId>
218751

>  <cdx:fragmentId>
218677

$$$$
