886678.cdx
  Mrv1902 05222410272D          

 22 24  0  0  0  0            999 V2000
    7.6126  -10.1556    0.0000 C   0  0  0  0  0  0  0  0  0  0  0  0
    7.6126   -9.3306    0.0000 O   0  0  0  0  0  0  0  0  0  0  0  0
   11.1850   -8.9181    0.0000 C   0  0  0  0  0  0  0  0  0  0  0  0
   10.4705   -9.3306    0.0000 O   0  0  0  0  0  0  0  0  0  0  0  0
    9.0416   -7.6806    0.0000 C   0  0  0  0  0  0  0  0  0  0  0  0
    9.7560   -8.0931    0.0000 C   0  0  0  0  0  0  0  0  0  0  0  0
    9.7560   -8.9181    0.0000 C   0  0  0  0  0  0  0  0  0  0  0  0
    9.0416   -9.3306    0.0000 C   0  0  0  0  0  0  0  0  0  0  0  0
    8.3271   -8.9181    0.0000 C   0  0  0  0  0  0  0  0  0  0  0  0
    8.3271   -8.0931    0.0000 C   0  0  0  0  0  0  0  0  0  0  0  0
    4.0403   -6.4431    0.0000 O   0  0  0  0  0  0  0  0  0  0  0  0
    6.8982   -8.9181    0.0000 O   0  0  0  0  0  0  0  0  0  0  0  0
    6.8982   -6.4431    0.0000 O   0  0  0  0  0  0  0  0  0  0  0  0
    6.1837   -6.8556    0.0000 C   0  0  0  0  0  0  0  0  0  0  0  0
    5.4692   -6.4431    0.0000 C   0  0  0  0  0  0  0  0  0  0  0  0
    4.7547   -6.8556    0.0000 C   0  0  0  0  0  0  0  0  0  0  0  0
    4.7547   -7.6806    0.0000 C   0  0  0  0  0  0  0  0  0  0  0  0
    5.4692   -8.0931    0.0000 C   0  0  0  0  0  0  0  0  0  0  0  0
    6.1837   -7.6806    0.0000 C   0  0  0  0  0  0  0  0  0  0  0  0
    6.8982   -8.0931    0.0000 C   0  0  0  0  0  0  0  0  0  0  0  0
    7.6126   -7.6806    0.0000 C   0  0  0  0  0  0  0  0  0  0  0  0
    7.6126   -6.8556    0.0000 C   0  0  0  0  0  0  0  0  0  0  0  0
 21 10  1  0  0  0  0
  9  2  1  0  0  0  0
  2  1  1  0  0  0  0
  7  4  1  0  0  0  0
  4  3  1  0  0  0  0
 10  5  2  0  0  0  0
  6  5  1  0  0  0  0
  7  6  2  0  0  0  0
  8  7  1  0  0  0  0
  9  8  2  0  0  0  0
 10  9  1  0  0  0  0
 16 11  1  0  0  0  0
 20 12  2  0  0  0  0
 22 13  1  0  0  0  0
 14 13  1  0  0  0  0
 19 14  2  0  0  0  0
 15 14  1  0  0  0  0
 16 15  2  0  0  0  0
 17 16  1  0  0  0  0
 18 17  2  0  0  0  0
 19 18  1  0  0  0  0
 20 19  1  0  0  0  0
 21 20  1  0  0  0  0
 22 21  1  0  0  0  0
M  END
>  <cdx:fragmentId>
97173

$$$$
