886723.cdx
  Mrv1902 05222410282D          

 24 26  0  0  0  0            999 V2000
    5.1517   -8.4672    0.0000 O   0  0  0  0  0  0  0  0  0  0  0  0
    3.7443   -5.9798    0.0000 O   0  0  0  0  0  0  0  0  0  0  0  0
   11.5996   -6.4607    0.0000 C   0  0  0  0  0  0  0  0  0  0  0  0
   10.8887   -6.0420    0.0000 O   0  0  0  0  0  0  0  0  0  0  0  0
    8.7418   -6.4358    0.0000 C   0  0  0  0  0  0  0  0  0  0  0  0
    9.4598   -6.0296    0.0000 C   0  0  0  0  0  0  0  0  0  0  0  0
   10.1707   -6.4482    0.0000 C   0  0  0  0  0  0  0  0  0  0  0  0
   10.1635   -7.2732    0.0000 C   0  0  0  0  0  0  0  0  0  0  0  0
    9.4455   -7.6795    0.0000 C   0  0  0  0  0  0  0  0  0  0  0  0
    8.7346   -7.2608    0.0000 C   0  0  0  0  0  0  0  0  0  0  0  0
    8.0166   -7.6671    0.0000 C   0  0  0  0  0  0  0  0  0  0  0  0
    3.7299   -7.6298    0.0000 C   0  0  0  0  0  0  0  0  0  0  0  0
    5.1804   -5.1673    0.0000 C   0  0  0  0  0  0  0  0  0  0  0  0
    6.5805   -8.4796    0.0000 O   0  0  0  0  0  0  0  0  0  0  0  0
    6.6021   -6.0047    0.0000 O   0  0  0  0  0  0  0  0  0  0  0  0
    5.8840   -6.4110    0.0000 C   0  0  0  0  0  0  0  0  0  0  0  0
    5.1732   -5.9923    0.0000 C   0  0  0  0  0  0  0  0  0  0  0  0
    4.4551   -6.3985    0.0000 C   0  0  0  0  0  0  0  0  0  0  0  0
    4.4480   -7.2235    0.0000 C   0  0  0  0  0  0  0  0  0  0  0  0
    5.1588   -7.6422    0.0000 C   0  0  0  0  0  0  0  0  0  0  0  0
    5.8769   -7.2359    0.0000 C   0  0  0  0  0  0  0  0  0  0  0  0
    6.5877   -7.6546    0.0000 C   0  0  0  0  0  0  0  0  0  0  0  0
    7.3058   -7.2484    0.0000 C   0  0  1  0  0  0  0  0  0  0  0  0
    7.3129   -6.4234    0.0000 C   0  0  0  0  0  0  0  0  0  0  0  0
 20  1  1  0  0  0  0
 18  2  1  0  0  0  0
 23 11  1  1  0  0  0
 11 10  1  0  0  0  0
  7  4  1  0  0  0  0
  4  3  1  0  0  0  0
 10  5  2  0  0  0  0
  6  5  1  0  0  0  0
  7  6  2  0  0  0  0
  8  7  1  0  0  0  0
  9  8  2  0  0  0  0
 10  9  1  0  0  0  0
 19 12  1  0  0  0  0
 17 13  1  0  0  0  0
 22 14  2  0  0  0  0
 24 15  1  0  0  0  0
 16 15  1  0  0  0  0
 21 16  2  0  0  0  0
 17 16  1  0  0  0  0
 18 17  2  0  0  0  0
 19 18  1  0  0  0  0
 20 19  2  0  0  0  0
 21 20  1  0  0  0  0
 22 21  1  0  0  0  0
 23 22  1  0  0  0  0
 24 23  1  0  0  0  0
M  END
>  <cdx:groupId>
178444

>  <cdx:fragmentId>
178373

$$$$
