88708.cdx
  Mrv1902 05222410192D          

 25 27  0  0  0  0            999 V2000
    6.7230   -6.0624    0.0000 C   0  0  0  0  0  0  0  0  0  0  0  0
    7.4415   -5.6569    0.0000 C   0  0  0  0  0  0  0  0  0  0  0  0
    8.1519   -6.0764    0.0000 C   0  0  0  0  0  0  0  0  0  0  0  0
    8.1438   -6.9013    0.0000 C   0  0  2  0  0  0  0  0  0  0  0  0
    7.4253   -7.3068    0.0000 C   0  0  1  0  0  0  0  0  0  0  0  0
    6.7149   -6.8873    0.0000 O   0  0  0  0  0  0  0  0  0  0  0  0
    7.4496   -4.8319    0.0000 C   0  0  0  0  0  0  0  0  0  0  0  0
    8.8704   -5.6709    0.0000 C   0  0  0  0  0  0  0  0  0  0  0  0
    8.8785   -4.8460    0.0000 C   0  0  0  0  0  0  0  0  0  0  0  0
    8.1681   -4.4265    0.0000 O   0  0  0  0  0  0  0  0  0  0  0  0
    6.7392   -4.4124    0.0000 O   0  0  0  0  0  0  0  0  0  0  0  0
    7.4172   -8.1318    0.0000 O   0  0  0  0  0  0  0  0  0  0  0  0
    6.6987   -8.5372    0.0000 C   0  0  2  0  0  0  0  0  0  0  0  0
    5.9884   -8.1178    0.0000 O   0  0  0  0  0  0  0  0  0  0  0  0
    5.2699   -8.5232    0.0000 C   0  0  1  0  0  0  0  0  0  0  0  0
    5.2618   -9.3482    0.0000 C   0  0  2  0  0  0  0  0  0  0  0  0
    5.9722   -9.7677    0.0000 C   0  0  2  0  0  0  0  0  0  0  0  0
    5.9641  -10.5926    0.0000 O   0  0  0  0  0  0  0  0  0  0  0  0
    4.5433   -9.7537    0.0000 O   0  0  0  0  0  0  0  0  0  0  0  0
    4.5595   -8.1037    0.0000 C   0  0  0  0  0  0  0  0  0  0  0  0
    8.8542   -7.3208    0.0000 C   0  0  0  0  0  0  0  0  0  0  0  0
    9.5687   -6.9083    0.0000 C   0  0  0  0  0  0  0  0  0  0  0  0
    6.6907   -9.3622    0.0000 C   0  0  1  0  0  0  0  0  0  0  0  0
    3.8410   -8.5092    0.0000 O   0  0  0  0  0  0  0  0  0  0  0  0
    7.4010   -9.7817    0.0000 O   0  0  0  0  0  0  0  0  0  0  0  0
  1  2  2  0  0  0  0
  2  3  1  0  0  0  0
  3  4  1  0  0  0  0
  4  5  1  0  0  0  0
  5  6  1  0  0  0  0
  1  6  1  0  0  0  0
  8  9  1  0  0  0  0
  9 10  1  0  0  0  0
  7 10  1  0  0  0  0
  7  2  1  0  0  0  0
  8  3  2  0  0  0  0
  7 11  2  0  0  0  0
 13 14  1  0  0  0  0
 14 15  1  0  0  0  0
 15 16  1  0  0  0  0
 16 17  1  0  0  0  0
 17 18  1  1  0  0  0
 16 19  1  6  0  0  0
 15 20  1  1  0  0  0
 13 12  1  1  0  0  0
  5 12  1  6  0  0  0
 21 22  2  0  0  0  0
  4 21  1  1  0  0  0
 13 23  1  0  0  0  0
 17 23  1  0  0  0  0
 20 24  1  0  0  0  0
 23 25  1  6  0  0  0
M  END
>  <cdx:fragmentId>
29

$$$$
