88701.cdx
  Mrv1902 05222410272D          

 51 57  0  0  0  0            999 V2000
   10.2655   -8.8435    0.0000 C   0  0  1  0  0  0  0  0  0  0  0  0
    9.5560   -8.4224    0.0000 C   0  0  0  0  0  0  0  0  0  0  0  0
    8.8367   -8.8264    0.0000 C   0  0  0  0  0  0  0  0  0  0  0  0
    8.8268   -9.6513    0.0000 C   0  0  1  0  0  0  0  0  0  0  0  0
    9.5363  -10.0723    0.0000 C   0  0  2  0  0  0  0  0  0  0  0  0
   10.2556   -9.6684    0.0000 C   0  0  1  0  0  0  0  0  0  0  0  0
    8.1074  -10.0552    0.0000 C   0  0  2  0  0  0  0  0  0  0  0  0
    8.0975  -10.8801    0.0000 C   0  0  0  0  0  0  0  0  0  0  0  0
    8.8070  -11.3012    0.0000 C   0  0  0  0  0  0  0  0  0  0  0  0
    9.5264  -10.8973    0.0000 C   0  0  0  0  0  0  0  0  0  0  0  0
    7.3979   -9.6342    0.0000 C   0  0  0  0  0  0  0  0  0  0  0  0
    6.6786  -10.0381    0.0000 C   0  0  0  0  0  0  0  0  0  0  0  0
    6.6687  -10.8630    0.0000 C   0  0  1  0  0  0  0  0  0  0  0  0
    7.3782  -11.2841    0.0000 C   0  0  0  0  0  0  0  0  0  0  0  0
   11.0371   -9.9327    0.0000 C   0  0  0  0  0  0  0  0  0  0  0  0
   11.5300   -9.2712    0.0000 C   0  0  0  0  0  0  0  0  0  0  0  0
   11.0531   -8.5980    0.0000 C   0  0  2  0  0  0  0  0  0  0  0  0
   11.3174   -7.8164    0.0000 C   0  0  0  0  0  0  0  0  0  0  0  0
   12.1051   -7.5709    0.0000 C   0  0  0  0  0  0  0  0  0  0  0  0
   12.1150   -6.7460    0.0000 C   0  0  0  0  0  0  0  0  0  0  0  0
   11.3334   -6.4817    0.0000 O   0  0  0  0  0  0  0  0  0  0  0  0
   10.8406   -7.1432    0.0000 C   0  0  0  0  0  0  0  0  0  0  0  0
   12.7882   -6.2691    0.0000 O   0  0  0  0  0  0  0  0  0  0  0  0
   10.2754   -8.0185    0.0000 C   0  0  0  0  0  0  0  0  0  0  0  0
   10.2457  -10.4934    0.0000 O   0  0  0  0  0  0  0  0  0  0  0  0
    9.5461   -9.2474    0.0000 H   0  0  0  0  0  0  0  0  0  0  0  0
    8.8169  -10.4762    0.0000 H   0  0  0  0  0  0  0  0  0  0  0  0
    5.9493  -11.2669    0.0000 O   0  0  0  0  0  0  0  0  0  0  0  0
    5.2399  -10.8459    0.0000 C   0  0  2  0  0  0  0  0  0  0  0  0
    5.2497  -10.0210    0.0000 O   0  0  0  0  0  0  0  0  0  0  0  0
    4.5403   -9.5999    0.0000 C   0  0  0  0  0  0  0  0  0  0  0  0
    3.8209  -10.0039    0.0000 C   0  0  2  0  0  0  0  0  0  0  0  0
    3.8110  -10.8288    0.0000 C   0  0  1  0  0  0  0  0  0  0  0  0
    4.5205  -11.2498    0.0000 C   0  0  1  0  0  0  0  0  0  0  0  0
    4.5106  -12.0748    0.0000 O   0  0  0  0  0  0  0  0  0  0  0  0
    3.0917  -11.2327    0.0000 O   0  0  0  0  0  0  0  0  0  0  0  0
    3.1114   -9.5828    0.0000 O   0  0  0  0  0  0  0  0  0  0  0  0
    3.1213   -8.7579    0.0000 C   0  0  2  0  0  0  0  0  0  0  0  0
    3.8407   -8.3540    0.0000 O   0  0  0  0  0  0  0  0  0  0  0  0
    3.8506   -7.5290    0.0000 C   0  0  1  0  0  0  0  0  0  0  0  0
    3.1411   -7.1080    0.0000 C   0  0  2  0  0  0  0  0  0  0  0  0
    2.4217   -7.5119    0.0000 C   0  0  1  0  0  0  0  0  0  0  0  0
    2.4118   -8.3369    0.0000 C   0  0  1  0  0  0  0  0  0  0  0  0
    4.5699   -7.1251    0.0000 C   0  0  0  0  0  0  0  0  0  0  0  0
    1.7122   -7.0909    0.0000 O   0  0  0  0  0  0  0  0  0  0  0  0
    3.1510   -6.2831    0.0000 O   0  0  0  0  0  0  0  0  0  0  0  0
    1.6925   -8.7408    0.0000 O   0  0  0  0  0  0  0  0  0  0  0  0
    4.5798   -6.3002    0.0000 O   0  0  0  0  0  0  0  0  0  0  0  0
    8.1173   -9.2303    0.0000 C   0  0  0  0  0  0  0  0  0  0  0  0
    7.4078   -8.8092    0.0000 O   0  0  0  0  0  0  0  0  0  0  0  0
   11.8407   -8.3524    0.0000 H   0  0  0  0  0  0  0  0  0  0  0  0
  1  2  1  0  0  0  0
  2  3  1  0  0  0  0
  3  4  1  0  0  0  0
  4  5  1  0  0  0  0
  5  6  1  0  0  0  0
  6  1  1  0  0  0  0
  4  7  1  0  0  0  0
  7  8  1  0  0  0  0
  8  9  1  0  0  0  0
  9 10  1  0  0  0  0
 10  5  1  0  0  0  0
  7 11  1  0  0  0  0
 11 12  1  0  0  0  0
 12 13  1  0  0  0  0
 13 14  1  0  0  0  0
 14  8  2  0  0  0  0
  6 15  1  0  0  0  0
 15 16  1  0  0  0  0
 16 17  1  0  0  0  0
 17  1  1  0  0  0  0
 17 18  1  0  0  0  0
 18 19  2  0  0  0  0
 19 20  1  0  0  0  0
 20 21  1  0  0  0  0
 21 22  1  0  0  0  0
 22 18  1  0  0  0  0
 20 23  2  0  0  0  0
  1 24  1  1  0  0  0
  6 25  1  1  0  0  0
  5 26  1  1  0  0  0
  4 27  1  6  0  0  0
 13 28  1  1  0  0  0
 29 28  1  1  0  0  0
 29 30  1  0  0  0  0
 30 31  1  0  0  0  0
 31 32  1  0  0  0  0
 32 33  1  0  0  0  0
 33 34  1  0  0  0  0
 34 29  1  0  0  0  0
 34 35  1  6  0  0  0
 33 36  1  1  0  0  0
 32 37  1  6  0  0  0
 38 37  1  1  0  0  0
 38 39  1  0  0  0  0
 39 40  1  0  0  0  0
 40 41  1  0  0  0  0
 41 42  1  0  0  0  0
 42 43  1  0  0  0  0
 43 38  1  0  0  0  0
 40 44  1  1  0  0  0
 42 45  1  1  0  0  0
 41 46  1  6  0  0  0
 43 47  1  6  0  0  0
 44 48  1  0  0  0  0
  7 49  1  1  0  0  0
 49 50  2  0  0  0  0
 17 51  1  6  0  0  0
M  END
>  <cdx:fragmentId>
124

$$$$
