8871.cdx
  Mrv1902 05222410262D          

  7  7  0  0  0  0            999 V2000
    5.0914   -3.2822    0.0000 C   0  0  0  0  0  0  0  0  0  0  0  0
    5.0914   -4.1072    0.0000 C   0  0  0  0  0  0  0  0  0  0  0  0
    4.3769   -4.5197    0.0000 C   0  0  0  0  0  0  0  0  0  0  0  0
    3.6624   -4.1072    0.0000 C   0  0  0  0  0  0  0  0  0  0  0  0
    3.6624   -3.2822    0.0000 C   0  0  0  0  0  0  0  0  0  0  0  0
    4.3769   -2.8697    0.0000 N   0  0  0  0  0  0  0  0  0  0  0  0
    5.8058   -2.8697    0.0000 O   0  0  0  0  0  0  0  0  0  0  0  0
  1  2  1  0  0  0  0
  2  3  2  0  0  0  0
  3  4  1  0  0  0  0
  4  5  2  0  0  0  0
  5  6  1  0  0  0  0
  1  6  1  0  0  0  0
  1  7  2  0  0  0  0
M  END
>  <cdx:groupId>
23

>  <cdx:fragmentId>
5

$$$$
