8872.cdx
  Mrv1902 05222410272D          

 19 21  0  0  0  0            999 V2000
    6.4383   -7.0950    0.0000 C   0  0  2  0  0  0  0  0  0  0  0  0
    6.4383   -7.9200    0.0000 C   0  0  1  0  0  0  0  0  0  0  0  0
    7.1527   -8.3325    0.0000 C   0  0  2  0  0  0  0  0  0  0  0  0
    7.8672   -7.9200    0.0000 C   0  0  0  0  0  0  0  0  0  0  0  0
    7.8672   -7.0950    0.0000 C   0  0  0  0  0  0  0  0  0  0  0  0
    7.1527   -6.6825    0.0000 C   0  0  1  0  0  0  0  0  0  0  0  0
    5.6537   -6.8401    0.0000 C   0  0  0  0  0  0  0  0  0  0  0  0
    5.1687   -7.5075    0.0000 C   0  0  1  0  0  0  0  0  0  0  0  0
    5.6537   -8.1749    0.0000 C   0  0  1  0  0  0  0  0  0  0  0  0
    6.9850   -7.3975    0.0000 C   0  0  2  0  0  0  0  0  0  0  0  0
    6.1600   -7.3975    0.0000 O   0  0  0  0  0  0  0  0  0  0  0  0
    4.3437   -7.5075    0.0000 O   0  0  0  0  0  0  0  0  0  0  0  0
    6.4383   -6.2700    0.0000 H   0  0  0  0  0  0  0  0  0  0  0  0
    6.4383   -8.7450    0.0000 H   0  0  0  0  0  0  0  0  0  0  0  0
    7.1527   -5.8575    0.0000 C   0  0  0  0  0  0  0  0  0  0  0  0
    7.1527   -9.1575    0.0000 C   0  0  0  0  0  0  0  0  0  0  0  0
    5.2412   -8.8894    0.0000 C   0  0  0  0  0  0  0  0  0  0  0  0
    6.4383   -9.5700    0.0000 C   0  0  0  0  0  0  0  0  0  0  0  0
    7.8672   -9.5700    0.0000 C   0  0  0  0  0  0  0  0  0  0  0  0
  1  2  1  0  0  0  0
  2  3  1  0  0  0  0
  3  4  1  0  0  0  0
  4  5  1  0  0  0  0
  5  6  1  0  0  0  0
  6  1  1  0  0  0  0
  1  7  1  0  0  0  0
  7  8  1  0  0  0  0
  8  9  1  0  0  0  0
  9  2  1  0  0  0  0
  6 10  1  1  0  0  0
  9 10  1  1  0  0  0
 10 11  1  1  0  0  0
  8 12  1  1  0  0  0
  1 13  1  6  0  0  0
  2 14  1  6  0  0  0
  6 15  1  6  0  0  0
  3 16  1  6  0  0  0
  9 17  1  6  0  0  0
 16 18  1  0  0  0  0
 16 19  1  0  0  0  0
M  END
>  <cdx:fragmentId>
5

$$$$
