8873.cdx
  Mrv1902 05222410262D          

 19 20  0  0  0  0            999 V2000
    4.4377   -5.9606    0.0000 C   0  0  0  0  0  0  0  0  0  0  0  0
    4.4377   -6.7856    0.0000 C   0  0  1  0  0  0  0  0  0  0  0  0
    5.1521   -7.1981    0.0000 C   0  0  0  0  0  0  0  0  0  0  0  0
    5.8666   -6.7856    0.0000 C   0  0  2  0  0  0  0  0  0  0  0  0
    5.8666   -5.9606    0.0000 C   0  0  2  0  0  0  0  0  0  0  0  0
    5.1521   -5.5481    0.0000 C   0  0  0  0  0  0  0  0  0  0  0  0
    6.5811   -7.1981    0.0000 C   0  0  1  0  0  0  0  0  0  0  0  0
    7.2955   -6.7856    0.0000 C   0  0  0  0  0  0  0  0  0  0  0  0
    7.2955   -5.9606    0.0000 C   0  0  0  0  0  0  0  0  0  0  0  0
    6.5811   -5.5481    0.0000 C   0  0  1  0  0  0  0  0  0  0  0  0
    3.6127   -6.7856    0.0000 C   0  0  0  0  0  0  0  0  0  0  0  0
    5.1521   -8.0231    0.0000 O   0  0  0  0  0  0  0  0  0  0  0  0
    4.0252   -7.5001    0.0000 O   0  0  0  0  0  0  0  0  0  0  0  0
    6.5811   -8.0231    0.0000 C   0  0  0  0  0  0  0  0  0  0  0  0
    5.8666   -5.1356    0.0000 O   0  0  0  0  0  0  0  0  0  0  0  0
    5.8666   -7.6106    0.0000 H   0  0  0  0  0  0  0  0  0  0  0  0
    6.5811   -4.7231    0.0000 C   0  0  0  0  0  0  0  0  0  0  0  0
    5.8666   -8.4356    0.0000 C   0  0  0  0  0  0  0  0  0  0  0  0
    7.2955   -8.4356    0.0000 C   0  0  0  0  0  0  0  0  0  0  0  0
  1  2  1  0  0  0  0
  2  3  1  0  0  0  0
  3  4  1  0  0  0  0
  4  5  1  0  0  0  0
  5  6  1  0  0  0  0
  6  1  2  0  0  0  0
  4  7  1  0  0  0  0
  7  8  1  0  0  0  0
  8  9  1  0  0  0  0
  9 10  1  0  0  0  0
 10  5  1  0  0  0  0
  2 11  1  0  0  0  0
  3 12  2  0  0  0  0
  2 13  1  6  0  0  0
  7 14  1  1  0  0  0
  5 15  1  1  0  0  0
  4 16  1  1  0  0  0
 10 17  1  6  0  0  0
 14 18  1  0  0  0  0
 14 19  1  0  0  0  0
M  END
>  <cdx:fragmentId>
5

$$$$
