887348.cdx
  Mrv1902 05222410262D          

 22 22  0  0  0  0            999 V2000
    8.9818   -7.4335    0.0000 C   0  0  0  0  0  0  0  0  0  0  0  0
    8.9818   -8.2585    0.0000 C   0  0  0  0  0  0  0  0  0  0  0  0
    9.6963   -8.6710    0.0000 C   0  0  0  0  0  0  0  0  0  0  0  0
   10.4108   -8.2585    0.0000 C   0  0  0  0  0  0  0  0  0  0  0  0
    8.2674   -7.0210    0.0000 O   0  0  0  0  0  0  0  0  0  0  0  0
    9.6963   -7.0210    0.0000 O   0  0  0  0  0  0  0  0  0  0  0  0
   10.4108   -7.4335    0.0000 O   0  0  0  0  0  0  0  0  0  0  0  0
   11.1252   -8.6710    0.0000 O   0  0  0  0  0  0  0  0  0  0  0  0
    9.6963   -9.4960    0.0000 O   0  0  0  0  0  0  0  0  0  0  0  0
    8.2674   -8.6710    0.0000 O   0  0  0  0  0  0  0  0  0  0  0  0
    7.5529   -8.2585    0.0000 C   0  0  0  0  0  0  0  0  0  0  0  0
    6.8384   -8.6710    0.0000 C   0  0  0  0  0  0  0  0  0  0  0  0
    6.1239   -8.2585    0.0000 C   0  0  0  0  0  0  0  0  0  0  0  0
    7.5529   -7.4335    0.0000 O   0  0  0  0  0  0  0  0  0  0  0  0
    5.4095   -8.6710    0.0000 C   0  0  0  0  0  0  0  0  0  0  0  0
    4.6950   -8.2585    0.0000 C   0  0  0  0  0  0  0  0  0  0  0  0
    3.9805   -8.6710    0.0000 C   0  0  0  0  0  0  0  0  0  0  0  0
    3.9805   -9.4960    0.0000 C   0  0  0  0  0  0  0  0  0  0  0  0
    4.6950   -9.9085    0.0000 C   0  0  0  0  0  0  0  0  0  0  0  0
    5.4095   -9.4960    0.0000 C   0  0  0  0  0  0  0  0  0  0  0  0
    3.2661   -9.9085    0.0000 O   0  0  0  0  0  0  0  0  0  0  0  0
    3.2661   -8.2585    0.0000 O   0  0  0  0  0  0  0  0  0  0  0  0
  2  1  1  0  0  0  0
  2  3  1  0  0  0  0
  3  4  1  0  0  0  0
  1  5  2  0  0  0  0
  1  6  1  0  0  0  0
  4  7  2  0  0  0  0
  4  8  1  0  0  0  0
  3  9  1  0  0  0  0
 11 12  1  0  0  0  0
 12 13  2  0  0  0  0
 11 14  2  0  0  0  0
 15 16  1  0  0  0  0
 16 17  2  0  0  0  0
 17 18  1  0  0  0  0
 18 19  2  0  0  0  0
 19 20  1  0  0  0  0
 15 20  2  0  0  0  0
 18 21  1  0  0  0  0
 17 22  1  0  0  0  0
 13 15  1  0  0  0  0
 10 11  1  0  0  0  0
  2 10  1  0  0  0  0
M  END
>  <cdx:fragmentId>
33

$$$$
