88793.cdx
  Mrv1902 05222410202D          

 29 30  0  0  0  0            999 V2000
    4.5105   -4.2900    0.0000 C   0  0  0  0  0  0  0  0  0  0  0  0
    4.5105   -5.1150    0.0000 C   0  0  0  0  0  0  0  0  0  0  0  0
    5.2250   -5.5275    0.0000 C   0  0  0  0  0  0  0  0  0  0  0  0
    5.9395   -5.1150    0.0000 C   0  0  0  0  0  0  0  0  0  0  0  0
    5.9395   -4.2900    0.0000 C   0  0  0  0  0  0  0  0  0  0  0  0
    5.2250   -3.8775    0.0000 C   0  0  0  0  0  0  0  0  0  0  0  0
    5.2250   -3.0525    0.0000 O   0  0  0  0  0  0  0  0  0  0  0  0
    3.7961   -3.8775    0.0000 O   0  0  0  0  0  0  0  0  0  0  0  0
    4.5105   -2.6400    0.0000 C   0  0  0  0  0  0  0  0  0  0  0  0
    3.0816   -4.2900    0.0000 C   0  0  0  0  0  0  0  0  0  0  0  0
    6.6539   -5.5275    0.0000 C   0  0  0  0  0  0  0  0  0  0  0  0
    7.3684   -5.1150    0.0000 O   0  0  0  0  0  0  0  0  0  0  0  0
    6.6539   -6.3525    0.0000 O   0  0  0  0  0  0  0  0  0  0  0  0
    7.3684   -6.7650    0.0000 C   0  0  0  0  0  0  0  0  0  0  0  0
    8.0829   -6.3525    0.0000 C   0  0  0  0  0  0  0  0  0  0  0  0
    7.3684   -7.5900    0.0000 C   0  0  0  0  0  0  0  0  0  0  0  0
    8.7974   -6.7650    0.0000 C   0  0  0  0  0  0  0  0  0  0  0  0
    8.0829   -5.5275    0.0000 C   0  0  0  0  0  0  0  0  0  0  0  0
    9.5118   -6.3525    0.0000 C   0  0  0  0  0  0  0  0  0  0  0  0
    8.7974   -7.5900    0.0000 O   0  0  0  0  0  0  0  0  0  0  0  0
    6.6539   -8.0025    0.0000 C   0  0  0  0  0  0  0  0  0  0  0  0
    6.6539   -8.8275    0.0000 C   0  0  0  0  0  0  0  0  0  0  0  0
    7.3684   -9.2400    0.0000 C   0  0  0  0  0  0  0  0  0  0  0  0
    8.0829   -8.8275    0.0000 C   0  0  0  0  0  0  0  0  0  0  0  0
    8.0829   -8.0025    0.0000 C   0  0  0  0  0  0  0  0  0  0  0  0
    7.3684  -10.0650    0.0000 O   0  0  0  0  0  0  0  0  0  0  0  0
    5.9395   -9.2400    0.0000 O   0  0  0  0  0  0  0  0  0  0  0  0
    8.0829  -10.4775    0.0000 C   0  0  0  0  0  0  0  0  0  0  0  0
    5.9395  -10.0650    0.0000 C   0  0  0  0  0  0  0  0  0  0  0  0
  1  2  1  0  0  0  0
  2  3  2  0  0  0  0
  3  4  1  0  0  0  0
  4  5  2  0  0  0  0
  5  6  1  0  0  0  0
  6  1  2  0  0  0  0
  6  7  1  0  0  0  0
  1  8  1  0  0  0  0
  7  9  1  0  0  0  0
  8 10  1  0  0  0  0
  4 11  1  0  0  0  0
 11 12  2  0  0  0  0
 11 13  1  0  0  0  0
 13 14  1  0  0  0  0
 14 15  1  0  0  0  0
 14 16  1  0  0  0  0
 15 17  1  0  0  0  0
 15 18  1  0  0  0  0
 17 19  1  0  0  0  0
 17 20  2  0  0  0  0
 16 21  2  0  0  0  0
 21 22  1  0  0  0  0
 22 23  2  0  0  0  0
 23 24  1  0  0  0  0
 24 25  2  0  0  0  0
 25 16  1  0  0  0  0
 23 26  1  0  0  0  0
 22 27  1  0  0  0  0
 26 28  1  0  0  0  0
 27 29  1  0  0  0  0
M  END
>  <cdx:fragmentId>
65

$$$$
