88792.cdx
  Mrv1902 05222410212D          

 14 14  0  0  0  0            999 V2000
    7.5137   -3.6697    0.0000 C   0  0  0  0  0  0  0  0  0  0  0  0
    8.6387   -3.9683    0.0000 C   0  0  0  0  0  0  0  0  0  0  0  0
    8.3387   -5.0987    0.0000 C   0  0  0  0  0  0  0  0  0  0  0  0
    7.9262   -4.3842    0.0000 C   0  0  0  0  0  0  0  0  0  0  0  0
    5.7788   -3.1535    0.0000 C   0  0  0  0  0  0  0  0  0  0  0  0
    6.4933   -3.5660    0.0000 O   0  0  0  0  0  0  0  0  0  0  0  0
    7.2235   -7.2785    0.0000 C   0  0  0  0  0  0  0  0  0  0  0  0
    6.5090   -6.8660    0.0000 O   0  0  0  0  0  0  0  0  0  0  0  0
    5.7847   -4.8069    0.0000 C   0  0  0  0  0  0  0  0  0  0  0  0
    5.7887   -5.6319    0.0000 C   0  0  0  0  0  0  0  0  0  0  0  0
    6.5051   -6.0410    0.0000 C   0  0  0  0  0  0  0  0  0  0  0  0
    7.2176   -5.6251    0.0000 C   0  0  0  0  0  0  0  0  0  0  0  0
    7.2137   -4.8001    0.0000 C   0  0  0  0  0  0  0  0  0  0  0  0
    6.4972   -4.3910    0.0000 C   0  0  0  0  0  0  0  0  0  0  0  0
 13  4  1  0  0  0  0
  4  2  1  0  0  0  0
  4  1  1  0  0  0  0
  4  3  1  0  0  0  0
 14  6  1  0  0  0  0
  6  5  1  0  0  0  0
 11  8  1  0  0  0  0
  8  7  1  0  0  0  0
 14  9  2  0  0  0  0
 10  9  1  0  0  0  0
 11 10  2  0  0  0  0
 12 11  1  0  0  0  0
 13 12  2  0  0  0  0
 14 13  1  0  0  0  0
M  END
>  <cdx:fragmentId>
5

$$$$
