13888132.cdx
  Mrv1902 05222410272D          

 27 28  0  0  0  0            999 V2000
    9.4117  -15.2537    0.0000 C   0  0  0  0  0  0  0  0  0  0  0  0
    8.6972  -14.8412    0.0000 C   0  0  0  0  0  0  0  0  0  0  0  0
    7.9827  -15.2537    0.0000 C   0  0  1  0  0  0  0  0  0  0  0  0
    7.2682  -14.8412    0.0000 C   0  0  0  0  0  0  0  0  0  0  0  0
    6.5538  -15.2537    0.0000 C   0  0  2  0  0  0  0  0  0  0  0  0
    5.8393  -14.8412    0.0000 C   0  0  0  0  0  0  0  0  0  0  0  0
    5.1248  -15.2537    0.0000 C   0  0  0  0  0  0  0  0  0  0  0  0
    7.9827  -16.0787    0.0000 O   0  0  0  0  0  0  0  0  0  0  0  0
    6.5538  -16.0787    0.0000 O   0  0  0  0  0  0  0  0  0  0  0  0
    4.4104  -14.8412    0.0000 C   0  0  0  0  0  0  0  0  0  0  0  0
    3.6959  -15.2537    0.0000 C   0  0  0  0  0  0  0  0  0  0  0  0
    2.9814  -14.8412    0.0000 C   0  0  0  0  0  0  0  0  0  0  0  0
    2.9814  -14.0162    0.0000 C   0  0  0  0  0  0  0  0  0  0  0  0
    3.6959  -13.6037    0.0000 C   0  0  0  0  0  0  0  0  0  0  0  0
    4.4104  -14.0162    0.0000 C   0  0  0  0  0  0  0  0  0  0  0  0
    2.2670  -15.2537    0.0000 O   0  0  0  0  0  0  0  0  0  0  0  0
    1.5525  -14.8412    0.0000 C   0  0  0  0  0  0  0  0  0  0  0  0
    2.2670  -13.6037    0.0000 O   0  0  0  0  0  0  0  0  0  0  0  0
   10.1261  -14.8412    0.0000 C   0  0  0  0  0  0  0  0  0  0  0  0
   10.8406  -15.2537    0.0000 C   0  0  0  0  0  0  0  0  0  0  0  0
   11.5551  -14.8412    0.0000 C   0  0  0  0  0  0  0  0  0  0  0  0
   11.5551  -14.0162    0.0000 C   0  0  0  0  0  0  0  0  0  0  0  0
   10.8406  -13.6037    0.0000 C   0  0  0  0  0  0  0  0  0  0  0  0
   10.1261  -14.0162    0.0000 C   0  0  0  0  0  0  0  0  0  0  0  0
   12.2695  -15.2537    0.0000 O   0  0  0  0  0  0  0  0  0  0  0  0
   12.9840  -14.8412    0.0000 C   0  0  0  0  0  0  0  0  0  0  0  0
   12.2695  -13.6037    0.0000 O   0  0  0  0  0  0  0  0  0  0  0  0
  1  2  1  0  0  0  0
  2  3  1  0  0  0  0
  3  4  1  0  0  0  0
  4  5  1  0  0  0  0
  5  6  1  0  0  0  0
  6  7  1  0  0  0  0
  3  8  1  6  0  0  0
  5  9  1  1  0  0  0
 10 11  1  0  0  0  0
 11 12  2  0  0  0  0
 12 13  1  0  0  0  0
 13 14  2  0  0  0  0
 14 15  1  0  0  0  0
 10 15  2  0  0  0  0
 16 17  1  0  0  0  0
 12 16  1  0  0  0  0
 13 18  1  0  0  0  0
  7 10  1  0  0  0  0
 19 20  1  0  0  0  0
 20 21  2  0  0  0  0
 21 22  1  0  0  0  0
 22 23  2  0  0  0  0
 23 24  1  0  0  0  0
 19 24  2  0  0  0  0
 25 26  1  0  0  0  0
 21 25  1  0  0  0  0
 22 27  1  0  0  0  0
  1 19  1  0  0  0  0
M  END
>  <cdx:groupId>
97327

>  <cdx:fragmentId>
97266

$$$$
