888221.cdx
  Mrv1902 05222410262D          

 35 38  0  0  0  0            999 V2000
    4.7775   -7.7907    0.0000 C   0  0  0  0  0  0  0  0  0  0  0  0
    4.0631   -8.2032    0.0000 C   0  0  0  0  0  0  0  0  0  0  0  0
    4.0631   -9.0282    0.0000 C   0  0  0  0  0  0  0  0  0  0  0  0
    4.7775   -9.4407    0.0000 C   0  0  0  0  0  0  0  0  0  0  0  0
    5.4920   -9.0282    0.0000 C   0  0  2  0  0  0  0  0  0  0  0  0
    6.2065   -9.4407    0.0000 C   0  0  0  0  0  0  0  0  0  0  0  0
    6.9210   -9.0282    0.0000 C   0  0  0  0  0  0  0  0  0  0  0  0
    6.9210   -8.2032    0.0000 C   0  0  0  0  0  0  0  0  0  0  0  0
    7.6354   -7.7907    0.0000 C   0  0  2  0  0  0  0  0  0  0  0  0
    8.4201   -8.0457    0.0000 C   0  0  0  0  0  0  0  0  0  0  0  0
    8.9050   -7.3782    0.0000 C   0  0  0  0  0  0  0  0  0  0  0  0
    8.4201   -6.7108    0.0000 C   0  0  1  0  0  0  0  0  0  0  0  0
    7.6354   -6.9657    0.0000 C   0  0  1  0  0  0  0  0  0  0  0  0
    6.9210   -6.5532    0.0000 C   0  0  0  0  0  0  0  0  0  0  0  0
    6.2065   -6.9657    0.0000 C   0  0  0  0  0  0  0  0  0  0  0  0
    6.2065   -7.7907    0.0000 C   0  0  0  0  0  0  0  0  0  0  0  0
    5.4920   -8.2032    0.0000 C   0  0  1  0  0  0  0  0  0  0  0  0
    3.3486   -9.4407    0.0000 O   0  0  0  0  0  0  0  0  0  0  0  0
    7.6354   -8.6157    0.0000 C   0  0  0  0  0  0  0  0  0  0  0  0
    7.6354   -6.1407    0.0000 C   0  0  0  0  0  0  0  0  0  0  0  0
    5.4920   -7.3782    0.0000 C   0  0  0  0  0  0  0  0  0  0  0  0
    5.1900  -10.1552    0.0000 C   0  0  0  0  0  0  0  0  0  0  0  0
    4.3650  -10.1552    0.0000 C   0  0  0  0  0  0  0  0  0  0  0  0
    8.1230   -5.3131    0.0000 C   0  0  0  0  0  0  0  0  0  0  0  0
    8.6750   -5.9262    0.0000 C   0  0  2  0  0  0  0  0  0  0  0  0
    9.4820   -5.7547    0.0000 C   0  0  0  0  0  0  0  0  0  0  0  0
    9.7369   -4.9700    0.0000 C   0  0  0  0  0  0  0  0  0  0  0  0
   10.5439   -4.7985    0.0000 C   0  0  2  0  0  0  0  0  0  0  0  0
   11.0538   -3.2293    0.0000 O   0  0  0  0  0  0  0  0  0  0  0  0
   11.0959   -5.4116    0.0000 O   0  0  0  0  0  0  0  0  0  0  0  0
   10.0019   -3.8004    0.0000 C   0  0  0  0  0  0  0  0  0  0  0  0
   11.5957   -4.2274    0.0000 C   0  0  0  0  0  0  0  0  0  0  0  0
   10.7988   -4.0139    0.0000 C   0  0  0  0  0  0  0  0  0  0  0  0
    9.2349   -6.5817    0.0000 H   0  0  0  0  0  0  0  0  0  0  0  0
    5.4920   -9.8532    0.0000 H   0  0  0  0  0  0  0  0  0  0  0  0
 33 29  1  0  0  0  0
 33 31  1  0  0  0  0
 33 32  1  0  0  0  0
  1  2  1  0  0  0  0
  2  3  1  0  0  0  0
  3  4  1  0  0  0  0
  4  5  1  0  0  0  0
  5  6  1  0  0  0  0
  6  7  1  0  0  0  0
  7  8  2  0  0  0  0
  8  9  1  0  0  0  0
  9 10  1  0  0  0  0
 10 11  1  0  0  0  0
 12 11  1  0  0  0  0
 12 13  1  0  0  0  0
  9 13  1  0  0  0  0
 13 14  1  0  0  0  0
 14 15  1  0  0  0  0
 15 16  2  0  0  0  0
  8 16  1  0  0  0  0
 16 17  1  0  0  0  0
  5 17  1  0  0  0  0
  1 17  1  0  0  0  0
  3 18  2  0  0  0  0
  9 19  1  6  0  0  0
 13 20  1  1  0  0  0
 17 21  1  1  0  0  0
  4 22  1  0  0  0  0
  4 23  1  0  0  0  0
 25 24  1  6  0  0  0
 25 26  1  0  0  0  0
 26 27  1  0  0  0  0
 27 28  1  0  0  0  0
 28 33  1  0  0  0  0
 28 30  1  1  0  0  0
 12 25  1  0  0  0  0
 12 34  1  6  0  0  0
  5 35  1  6  0  0  0
M  END
>  <cdx:fragmentId>
5

$$$$
