8883.cdx
  Mrv1902 05222410202D          

 33 35  0  0  0  0            999 V2000
    5.0404   -7.0040    0.0000 C   0  0  2  0  0  0  0  0  0  0  0  0
    5.0359   -7.8290    0.0000 C   0  0  2  0  0  0  0  0  0  0  0  0
    5.7481   -8.2455    0.0000 C   0  0  1  0  0  0  0  0  0  0  0  0
    6.4648   -7.8369    0.0000 C   0  0  2  0  0  0  0  0  0  0  0  0
    6.4694   -7.0119    0.0000 C   0  0  1  0  0  0  0  0  0  0  0  0
    5.7572   -6.5955    0.0000 O   0  0  0  0  0  0  0  0  0  0  0  0
    4.3283   -6.5876    0.0000 C   0  0  0  0  0  0  0  0  0  0  0  0
    3.6115   -6.9962    0.0000 O   0  0  0  0  0  0  0  0  0  0  0  0
    4.3192   -8.2376    0.0000 O   0  0  0  0  0  0  0  0  0  0  0  0
    5.7436   -9.0704    0.0000 O   0  0  0  0  0  0  0  0  0  0  0  0
    7.1770   -8.2533    0.0000 O   0  0  0  0  0  0  0  0  0  0  0  0
    7.8937   -7.8447    0.0000 C   0  0  0  0  0  0  0  0  0  0  0  0
    7.8983   -7.0198    0.0000 O   0  0  0  0  0  0  0  0  0  0  0  0
    7.1861   -6.6033    0.0000 O   0  0  0  0  0  0  0  0  0  0  0  0
    7.1906   -5.7783    0.0000 C   0  0  0  0  0  0  0  0  0  0  0  0
    6.4784   -5.3619    0.0000 O   0  0  0  0  0  0  0  0  0  0  0  0
    7.9074   -5.3698    0.0000 C   0  0  0  0  0  0  0  0  0  0  0  0
    7.9119   -4.5448    0.0000 C   0  0  0  0  0  0  0  0  0  0  0  0
    8.6196   -5.7862    0.0000 C   0  0  0  0  0  0  0  0  0  0  0  0
    9.3363   -5.3776    0.0000 C   0  0  0  0  0  0  0  0  0  0  0  0
    9.3408   -4.5527    0.0000 C   0  0  0  0  0  0  0  0  0  0  0  0
    8.6286   -4.1362    0.0000 C   0  0  0  0  0  0  0  0  0  0  0  0
    8.6059   -8.2612    0.0000 C   0  0  0  0  0  0  0  0  0  0  0  0
    9.3227   -7.8526    0.0000 C   0  0  0  0  0  0  0  0  0  0  0  0
   10.0349   -8.2690    0.0000 C   0  0  0  0  0  0  0  0  0  0  0  0
   10.7516   -7.8605    0.0000 C   0  0  0  0  0  0  0  0  0  0  0  0
   10.0303   -9.0940    0.0000 C   0  0  0  0  0  0  0  0  0  0  0  0
   10.7425   -9.5104    0.0000 C   0  0  0  0  0  0  0  0  0  0  0  0
   11.4592   -9.1019    0.0000 C   0  0  0  0  0  0  0  0  0  0  0  0
   11.4638   -8.2769    0.0000 C   0  0  0  0  0  0  0  0  0  0  0  0
   10.0485   -5.7941    0.0000 O   0  0  0  0  0  0  0  0  0  0  0  0
   10.0575   -4.1441    0.0000 O   0  0  0  0  0  0  0  0  0  0  0  0
    8.6332   -3.3112    0.0000 O   0  0  0  0  0  0  0  0  0  0  0  0
  1  2  1  0  0  0  0
  2  3  1  0  0  0  0
  3  4  1  0  0  0  0
  4  5  1  0  0  0  0
  5  6  1  0  0  0  0
  6  1  1  0  0  0  0
  1  7  1  1  0  0  0
  7  8  1  0  0  0  0
  2  9  1  6  0  0  0
  3 10  1  1  0  0  0
  4 11  1  6  0  0  0
 11 12  1  0  0  0  0
 12 13  2  0  0  0  0
  5 14  1  1  0  0  0
 14 15  1  0  0  0  0
 15 16  2  0  0  0  0
 15 17  1  0  0  0  0
 17 18  1  0  0  0  0
 17 19  2  0  0  0  0
 19 20  1  0  0  0  0
 20 21  2  0  0  0  0
 21 22  1  0  0  0  0
 22 18  2  0  0  0  0
 12 23  1  0  0  0  0
 23 24  2  0  0  0  0
 24 25  1  0  0  0  0
 25 26  1  0  0  0  0
 25 27  2  0  0  0  0
 27 28  1  0  0  0  0
 28 29  2  0  0  0  0
 29 30  1  0  0  0  0
 30 26  2  0  0  0  0
 20 31  1  0  0  0  0
 21 32  1  0  0  0  0
 22 33  1  0  0  0  0
M  END
>  <cdx:fragmentId>
5

$$$$
