8884.cdx
  Mrv1902 05222410192D          

 31 34  0  0  0  0            999 V2000
    7.8105   -6.7925    0.0000 N   0  0  0  0  0  0  0  0  0  0  0  0
    7.8105   -7.6175    0.0000 C   0  0  0  0  0  0  0  0  0  0  0  0
    8.5250   -8.0300    0.0000 C   0  0  0  0  0  0  0  0  0  0  0  0
    9.2395   -7.6175    0.0000 C   0  0  1  0  0  0  0  0  0  0  0  0
    9.2395   -6.7925    0.0000 C   0  0  2  0  0  0  0  0  0  0  0  0
    8.5250   -6.3800    0.0000 C   0  0  0  0  0  0  0  0  0  0  0  0
    9.9539   -8.0300    0.0000 C   0  0  0  0  0  0  0  0  0  0  0  0
   10.6684   -7.6175    0.0000 C   0  0  0  0  0  0  0  0  0  0  0  0
   10.6684   -6.7925    0.0000 O   0  0  0  0  0  0  0  0  0  0  0  0
    9.9539   -6.3800    0.0000 C   0  0  2  0  0  0  0  0  0  0  0  0
    9.9539   -5.5550    0.0000 C   0  0  0  0  0  0  0  0  0  0  0  0
    9.2395   -5.9675    0.0000 H   0  0  0  0  0  0  0  0  0  0  0  0
    9.2395   -8.4425    0.0000 H   0  0  0  0  0  0  0  0  0  0  0  0
    7.0961   -8.0300    0.0000 O   0  0  0  0  0  0  0  0  0  0  0  0
    7.0961   -6.3800    0.0000 C   0  0  0  0  0  0  0  0  0  0  0  0
    6.3816   -6.7925    0.0000 C   0  0  0  0  0  0  0  0  0  0  0  0
    6.3816   -7.6175    0.0000 C   0  0  2  0  0  0  0  0  0  0  0  0
    5.5955   -7.8679    0.0000 C   0  0  0  0  0  0  0  0  0  0  0  0
    5.5907   -8.6929    0.0000 C   0  0  0  0  0  0  0  0  0  0  0  0
    6.3738   -8.9524    0.0000 N   0  0  0  0  0  0  0  0  0  0  0  0
    6.8626   -8.2877    0.0000 C   0  0  0  0  0  0  0  0  0  0  0  0
    7.6876   -8.2925    0.0000 O   0  0  0  0  0  0  0  0  0  0  0  0
    4.8834   -7.4512    0.0000 C   0  0  0  0  0  0  0  0  0  0  0  0
    4.1666   -7.8596    0.0000 C   0  0  0  0  0  0  0  0  0  0  0  0
    4.1618   -8.6846    0.0000 C   0  0  0  0  0  0  0  0  0  0  0  0
    4.8739   -9.1012    0.0000 C   0  0  0  0  0  0  0  0  0  0  0  0
    7.0961   -7.2050    0.0000 O   0  0  0  0  0  0  0  0  0  0  0  0
   10.6684  -10.0925    0.0000 C   0  0  0  0  0  0  0  0  0  0  0  0
   10.6684   -9.2675    0.0000 O   0  0  0  0  0  0  0  0  0  0  0  0
    9.2395   -9.2675    0.0000 O   0  0  0  0  0  0  0  0  0  0  0  0
    9.9539   -8.8550    0.0000 C   0  0  0  0  0  0  0  0  0  0  0  0
  1  2  1  0  0  0  0
  2  3  1  0  0  0  0
  3  4  1  0  0  0  0
  4  5  1  0  0  0  0
  5  6  1  0  0  0  0
  6  1  1  0  0  0  0
  4  7  1  0  0  0  0
  7  8  2  0  0  0  0
  8  9  1  0  0  0  0
  9 10  1  0  0  0  0
 10  5  1  0  0  0  0
 29 28  1  0  0  0  0
  7 31  1  0  0  0  0
 10 11  1  1  0  0  0
  5 12  1  1  0  0  0
  4 13  1  6  0  0  0
  2 14  2  0  0  0  0
  1 15  1  0  0  0  0
 15 16  1  0  0  0  0
 17 16  1  1  0  0  0
 17 18  1  0  0  0  0
 18 19  2  0  0  0  0
 19 20  1  0  0  0  0
 20 21  1  0  0  0  0
 21 17  1  0  0  0  0
 21 22  2  0  0  0  0
 18 23  1  0  0  0  0
 23 24  2  0  0  0  0
 24 25  1  0  0  0  0
 25 26  2  0  0  0  0
 26 19  1  0  0  0  0
 17 27  1  6  0  0  0
 31 29  1  0  0  0  0
 31 30  2  0  0  0  0
M  END
>  <cdx:fragmentId>
40

$$$$
