888973.cdx
  Mrv1902 05222410242D          

 23 25  0  0  0  0            999 V2000
    7.0482   -9.8757    0.0000 C   0  0  0  0  0  0  0  0  0  0  0  0
    7.0482   -9.0507    0.0000 C   0  0  2  0  0  0  0  0  0  0  0  0
    6.3338   -8.6382    0.0000 C   0  0  2  0  0  0  0  0  0  0  0  0
    5.6193   -9.0507    0.0000 C   0  0  0  0  0  0  0  0  0  0  0  0
    4.9048   -8.6382    0.0000 C   0  0  0  0  0  0  0  0  0  0  0  0
    4.1904   -9.0507    0.0000 C   0  0  0  0  0  0  0  0  0  0  0  0
    4.1904   -9.8757    0.0000 C   0  0  0  0  0  0  0  0  0  0  0  0
    4.9048  -10.2882    0.0000 C   0  0  0  0  0  0  0  0  0  0  0  0
    5.6193   -9.8757    0.0000 C   0  0  0  0  0  0  0  0  0  0  0  0
    6.3338  -10.2882    0.0000 O   0  0  0  0  0  0  0  0  0  0  0  0
    7.0482   -8.2257    0.0000 O   0  0  0  0  0  0  0  0  0  0  0  0
    3.4759  -10.2882    0.0000 O   0  0  0  0  0  0  0  0  0  0  0  0
    6.3338   -7.8132    0.0000 O   0  0  0  0  0  0  0  0  0  0  0  0
    7.0482   -7.4007    0.0000 C   0  0  0  0  0  0  0  0  0  0  0  0
    7.7627   -8.6382    0.0000 C   0  0  0  0  0  0  0  0  0  0  0  0
    8.4772   -9.0507    0.0000 C   0  0  0  0  0  0  0  0  0  0  0  0
    9.1917   -8.6382    0.0000 C   0  0  0  0  0  0  0  0  0  0  0  0
    9.9061   -9.0507    0.0000 C   0  0  0  0  0  0  0  0  0  0  0  0
    9.9061   -9.8757    0.0000 C   0  0  0  0  0  0  0  0  0  0  0  0
    9.1917  -10.2882    0.0000 C   0  0  0  0  0  0  0  0  0  0  0  0
    8.4772   -9.8757    0.0000 C   0  0  0  0  0  0  0  0  0  0  0  0
   10.6206  -10.2882    0.0000 O   0  0  0  0  0  0  0  0  0  0  0  0
   10.6206   -8.6382    0.0000 O   0  0  0  0  0  0  0  0  0  0  0  0
  1  2  1  0  0  0  0
  2  3  1  0  0  0  0
  3  4  1  0  0  0  0
  4  5  1  0  0  0  0
  5  6  2  0  0  0  0
  6  7  1  0  0  0  0
  7  8  2  0  0  0  0
  8  9  1  0  0  0  0
  4  9  2  0  0  0  0
  9 10  1  0  0  0  0
  1 10  1  0  0  0  0
  2 11  1  6  0  0  0
  7 12  1  0  0  0  0
 13 14  1  0  0  0  0
  3 13  1  6  0  0  0
 16 17  1  0  0  0  0
 17 18  2  0  0  0  0
 18 19  1  0  0  0  0
 19 20  2  0  0  0  0
 20 21  1  0  0  0  0
 16 21  2  0  0  0  0
 19 22  1  0  0  0  0
 18 23  1  0  0  0  0
 15 16  1  0  0  0  0
  2 15  1  0  0  0  0
M  END
>  <cdx:fragmentId>
97340

$$$$
