888974.cdx
  Mrv1902 05222410242D          

 23 25  0  0  0  0            999 V2000
    7.3507   -9.5732    0.0000 C   0  0  0  0  0  0  0  0  0  0  0  0
    7.3507   -8.7482    0.0000 C   0  0  2  0  0  0  0  0  0  0  0  0
    6.6363   -8.3357    0.0000 C   0  0  1  0  0  0  0  0  0  0  0  0
    5.9218   -8.7482    0.0000 C   0  0  0  0  0  0  0  0  0  0  0  0
    5.2073   -8.3357    0.0000 C   0  0  0  0  0  0  0  0  0  0  0  0
    4.4929   -8.7482    0.0000 C   0  0  0  0  0  0  0  0  0  0  0  0
    4.4929   -9.5732    0.0000 C   0  0  0  0  0  0  0  0  0  0  0  0
    5.2073   -9.9857    0.0000 C   0  0  0  0  0  0  0  0  0  0  0  0
    5.9218   -9.5732    0.0000 C   0  0  0  0  0  0  0  0  0  0  0  0
    6.6363   -9.9857    0.0000 O   0  0  0  0  0  0  0  0  0  0  0  0
    7.3507   -7.9232    0.0000 O   0  0  0  0  0  0  0  0  0  0  0  0
    3.7784   -9.9857    0.0000 O   0  0  0  0  0  0  0  0  0  0  0  0
    6.6363   -7.5107    0.0000 O   0  0  0  0  0  0  0  0  0  0  0  0
    7.3507   -7.0982    0.0000 C   0  0  0  0  0  0  0  0  0  0  0  0
    8.0652   -8.3357    0.0000 C   0  0  0  0  0  0  0  0  0  0  0  0
    8.7797   -8.7482    0.0000 C   0  0  0  0  0  0  0  0  0  0  0  0
    9.4942   -8.3357    0.0000 C   0  0  0  0  0  0  0  0  0  0  0  0
   10.2086   -8.7482    0.0000 C   0  0  0  0  0  0  0  0  0  0  0  0
   10.2086   -9.5732    0.0000 C   0  0  0  0  0  0  0  0  0  0  0  0
    9.4942   -9.9857    0.0000 C   0  0  0  0  0  0  0  0  0  0  0  0
    8.7797   -9.5732    0.0000 C   0  0  0  0  0  0  0  0  0  0  0  0
   10.9231   -9.9857    0.0000 O   0  0  0  0  0  0  0  0  0  0  0  0
   10.9231   -8.3357    0.0000 O   0  0  0  0  0  0  0  0  0  0  0  0
  1  2  1  0  0  0  0
  2  3  1  0  0  0  0
  3  4  1  0  0  0  0
  4  5  1  0  0  0  0
  5  6  2  0  0  0  0
  6  7  1  0  0  0  0
  7  8  2  0  0  0  0
  8  9  1  0  0  0  0
  4  9  2  0  0  0  0
  9 10  1  0  0  0  0
  1 10  1  0  0  0  0
  2 11  1  6  0  0  0
  7 12  1  0  0  0  0
 13 14  1  0  0  0  0
  3 13  1  1  0  0  0
 16 17  1  0  0  0  0
 17 18  2  0  0  0  0
 18 19  1  0  0  0  0
 19 20  2  0  0  0  0
 20 21  1  0  0  0  0
 16 21  2  0  0  0  0
 19 22  1  0  0  0  0
 18 23  1  0  0  0  0
 15 16  1  0  0  0  0
  2 15  1  0  0  0  0
M  END
>  <cdx:fragmentId>
97418

$$$$
