889022.cdx
  Mrv1902 05222410192D          

 25 27  0  0  0  0            999 V2000
    9.0998   -6.6733    0.0000 C   0  0  0  0  0  0  0  0  0  0  0  0
    9.0917   -5.8483    0.0000 C   0  0  0  0  0  0  0  0  0  0  0  0
    9.8021   -5.4288    0.0000 C   0  0  0  0  0  0  0  0  0  0  0  0
   10.5206   -5.8342    0.0000 C   0  0  0  0  0  0  0  0  0  0  0  0
   10.5287   -6.6592    0.0000 C   0  0  0  0  0  0  0  0  0  0  0  0
    9.8183   -7.0787    0.0000 C   0  0  0  0  0  0  0  0  0  0  0  0
    9.8265   -7.9037    0.0000 O   0  0  0  0  0  0  0  0  0  0  0  0
   10.5409   -8.3162    0.0000 C   0  0  0  0  0  0  0  0  0  0  0  0
    8.3732   -5.4429    0.0000 O   0  0  0  0  0  0  0  0  0  0  0  0
    6.2665   -9.1763    0.0000 O   0  0  0  0  0  0  0  0  0  0  0  0
    4.1028   -7.1350    0.0000 C   0  0  0  0  0  0  0  0  0  0  0  0
    4.8132   -6.7155    0.0000 O   0  0  0  0  0  0  0  0  0  0  0  0
    5.5155   -5.4710    0.0000 C   0  0  0  0  0  0  0  0  0  0  0  0
    6.2340   -5.8764    0.0000 O   0  0  0  0  0  0  0  0  0  0  0  0
    7.6953   -9.1622    0.0000 O   0  0  0  0  0  0  0  0  0  0  0  0
    7.6710   -6.6873    0.0000 O   0  0  0  0  0  0  0  0  0  0  0  0
    6.9606   -7.1068    0.0000 C   0  0  0  0  0  0  0  0  0  0  0  0
    6.2421   -6.7014    0.0000 C   0  0  0  0  0  0  0  0  0  0  0  0
    5.5317   -7.1209    0.0000 C   0  0  0  0  0  0  0  0  0  0  0  0
    5.5398   -7.9459    0.0000 C   0  0  0  0  0  0  0  0  0  0  0  0
    6.2583   -8.3513    0.0000 C   0  0  0  0  0  0  0  0  0  0  0  0
    6.9687   -7.9318    0.0000 C   0  0  0  0  0  0  0  0  0  0  0  0
    7.6872   -8.3372    0.0000 C   0  0  0  0  0  0  0  0  0  0  0  0
    8.3976   -7.9177    0.0000 C   0  0  0  0  0  0  0  0  0  0  0  0
    8.3895   -7.0928    0.0000 C   0  0  0  0  0  0  0  0  0  0  0  0
 21 10  1  0  0  0  0
 25  1  1  0  0  0  0
 19 12  1  0  0  0  0
 12 11  1  0  0  0  0
 18 14  1  0  0  0  0
 14 13  1  0  0  0  0
 23 15  2  0  0  0  0
 25 16  1  0  0  0  0
 17 16  1  0  0  0  0
 22 17  2  0  0  0  0
 18 17  1  0  0  0  0
 19 18  2  0  0  0  0
 20 19  1  0  0  0  0
 21 20  2  0  0  0  0
 22 21  1  0  0  0  0
 23 22  1  0  0  0  0
 24 23  1  0  0  0  0
 25 24  2  0  0  0  0
  1  2  1  0  0  0  0
  2  3  2  0  0  0  0
  3  4  1  0  0  0  0
  4  5  2  0  0  0  0
  5  6  1  0  0  0  0
  1  6  2  0  0  0  0
  7  8  1  0  0  0  0
  6  7  1  0  0  0  0
  2  9  1  0  0  0  0
M  END
>  <cdx:fragmentId>
97496

$$$$
