889042.cdx
  Mrv1902 05222410232D          

 24 26  0  0  0  0            999 V2000
    8.9292   -5.3038    0.0000 O   0  0  0  0  0  0  0  0  0  0  0  0
   11.8976   -7.3663    0.0000 C   0  0  0  0  0  0  0  0  0  0  0  0
   11.4851   -8.0807    0.0000 C   0  0  0  0  0  0  0  0  0  0  0  0
   10.3582   -7.7788    0.0000 O   0  0  0  0  0  0  0  0  0  0  0  0
    9.6437   -7.3663    0.0000 C   0  0  0  0  0  0  0  0  0  0  0  0
    8.9292   -7.7788    0.0000 C   0  0  0  0  0  0  0  0  0  0  0  0
    8.2147   -7.3663    0.0000 C   0  0  0  0  0  0  0  0  0  0  0  0
    8.2147   -6.5413    0.0000 C   0  0  0  0  0  0  0  0  0  0  0  0
    8.9292   -6.1288    0.0000 C   0  0  0  0  0  0  0  0  0  0  0  0
    9.6437   -6.5413    0.0000 C   0  0  0  0  0  0  0  0  0  0  0  0
   10.3582   -6.1288    0.0000 C   0  0  0  0  0  0  0  0  0  0  0  0
   11.0726   -6.5413    0.0000 C   0  0  0  0  0  0  0  0  0  0  0  0
   11.0726   -7.3663    0.0000 C   0  0  0  0  0  0  0  0  0  0  0  0
    3.2134   -7.7788    0.0000 O   0  0  0  0  0  0  0  0  0  0  0  0
    5.3569   -7.3663    0.0000 C   0  0  0  0  0  0  0  0  0  0  0  0
    4.6424   -7.7788    0.0000 C   0  0  0  0  0  0  0  0  0  0  0  0
    3.9279   -7.3663    0.0000 C   0  0  0  0  0  0  0  0  0  0  0  0
    3.9279   -6.5413    0.0000 C   0  0  0  0  0  0  0  0  0  0  0  0
    4.6424   -6.1288    0.0000 C   0  0  0  0  0  0  0  0  0  0  0  0
    5.3569   -6.5413    0.0000 C   0  0  0  0  0  0  0  0  0  0  0  0
    7.5003   -5.3038    0.0000 O   0  0  0  0  0  0  0  0  0  0  0  0
    6.0713   -6.1288    0.0000 C   0  0  0  0  0  0  0  0  0  0  0  0
    6.7858   -6.5413    0.0000 C   0  0  0  0  0  0  0  0  0  0  0  0
    7.5003   -6.1288    0.0000 C   0  0  0  0  0  0  0  0  0  0  0  0
 24  8  1  0  0  0  0
  9  1  1  0  0  0  0
 13  2  1  0  0  0  0
 13  3  1  0  0  0  0
 13  4  1  0  0  0  0
  5  4  1  0  0  0  0
 10  5  2  0  0  0  0
  6  5  1  0  0  0  0
  7  6  2  0  0  0  0
  8  7  1  0  0  0  0
  9  8  2  0  0  0  0
 10  9  1  0  0  0  0
 11 10  1  0  0  0  0
 12 11  2  0  0  0  0
 13 12  1  0  0  0  0
 22 20  1  0  0  0  0
 17 14  1  0  0  0  0
 20 15  2  0  0  0  0
 16 15  1  0  0  0  0
 17 16  2  0  0  0  0
 18 17  1  0  0  0  0
 19 18  2  0  0  0  0
 20 19  1  0  0  0  0
 24 21  2  0  0  0  0
 23 22  2  0  0  0  0
 24 23  1  0  0  0  0
M  END
>  <cdx:groupId>
76

>  <cdx:fragmentId>
27

$$$$
