8892.cdx
  Mrv1902 05222410182D          

  8  7  0  0  0  0            999 V2000
    6.0810   -3.2252    0.0000 C   0  0  0  0  0  0  0  0  0  0  0  0
    5.3665   -3.6377    0.0000 C   0  0  0  0  0  0  0  0  0  0  0  0
    4.6520   -3.2252    0.0000 C   0  0  0  0  0  0  0  0  0  0  0  0
    3.9375   -3.6377    0.0000 C   0  0  0  0  0  0  0  0  0  0  0  0
    3.2231   -3.2252    0.0000 C   0  0  0  0  0  0  0  0  0  0  0  0
    2.5086   -3.6377    0.0000 C   0  0  0  0  0  0  0  0  0  0  0  0
    6.0810   -2.4002    0.0000 O   0  0  0  0  0  0  0  0  0  0  0  0
    6.7954   -3.6377    0.0000 O   0  0  0  0  0  0  0  0  0  0  0  0
  1  2  1  0  0  0  0
  2  3  1  0  0  0  0
  3  4  1  0  0  0  0
  4  5  1  0  0  0  0
  5  6  1  0  0  0  0
  1  7  2  0  0  0  0
  1  8  1  0  0  0  0
M  END
>  <cdx:groupId>
25

>  <cdx:fragmentId>
5

$$$$
