8893.cdx
  Mrv1902 05222410182D          

 27 30  0  0  0  0            999 V2000
    8.3770   -6.1600    0.0000 C   0  0  2  0  0  0  0  0  0  0  0  0
    8.3770   -6.9850    0.0000 C   0  0  1  0  0  0  0  0  0  0  0  0
    9.0915   -7.3975    0.0000 C   0  0  0  0  0  0  0  0  0  0  0  0
    9.8060   -6.9850    0.0000 C   0  0  0  0  0  0  0  0  0  0  0  0
    9.8060   -6.1600    0.0000 C   0  0  1  0  0  0  0  0  0  0  0  0
    9.0915   -5.7475    0.0000 C   0  0  1  0  0  0  0  0  0  0  0  0
    9.0915   -4.9225    0.0000 O   0  0  0  0  0  0  0  0  0  0  0  0
    8.3770   -7.8100    0.0000 O   0  0  0  0  0  0  0  0  0  0  0  0
   10.5204   -5.7475    0.0000 C   0  0  0  0  0  0  0  0  0  0  0  0
    7.5924   -5.9051    0.0000 C   0  0  2  0  0  0  0  0  0  0  0  0
    7.1075   -6.5725    0.0000 C   0  0  2  0  0  0  0  0  0  0  0  0
    7.5924   -7.2399    0.0000 C   0  0  2  0  0  0  0  0  0  0  0  0
    7.1075   -5.2376    0.0000 C   0  0  0  0  0  0  0  0  0  0  0  0
    6.3229   -5.4926    0.0000 C   0  0  0  0  0  0  0  0  0  0  0  0
    6.3229   -6.3176    0.0000 C   0  0  0  0  0  0  0  0  0  0  0  0
    7.3624   -4.4530    0.0000 C   0  0  0  0  0  0  0  0  0  0  0  0
    5.6554   -5.0076    0.0000 C   0  0  0  0  0  0  0  0  0  0  0  0
    4.9017   -5.3432    0.0000 C   0  0  0  0  0  0  0  0  0  0  0  0
    5.7417   -4.1872    0.0000 C   0  0  0  0  0  0  0  0  0  0  0  0
    4.9017   -6.1682    0.0000 O   0  0  0  0  0  0  0  0  0  0  0  0
    7.8059   -5.1082    0.0000 O   0  0  0  0  0  0  0  0  0  0  0  0
    6.3106   -6.7860    0.0000 O   0  0  0  0  0  0  0  0  0  0  0  0
    7.9200   -6.6550    0.0000 O   0  0  0  0  0  0  0  0  0  0  0  0
    7.5924   -8.0649    0.0000 C   0  0  0  0  0  0  0  0  0  0  0  0
    6.9300   -7.7550    0.0000 C   0  0  0  0  0  0  0  0  0  0  0  0
    6.4350   -7.3150    0.0000 C   0  0  0  0  0  0  0  0  0  0  0  0
    5.6100   -7.3150    0.0000 O   0  0  0  0  0  0  0  0  0  0  0  0
  1  2  1  0  0  0  0
  2  3  1  0  0  0  0
  3  4  1  0  0  0  0
  4  5  1  0  0  0  0
  5  6  1  0  0  0  0
  6  1  1  0  0  0  0
  6  7  1  6  0  0  0
  2  8  1  1  0  0  0
  5  9  1  1  0  0  0
  1 10  1  0  0  0  0
 10 11  1  0  0  0  0
 11 12  1  0  0  0  0
 12  2  1  0  0  0  0
 10 13  1  0  0  0  0
 13 14  2  0  0  0  0
 14 15  1  0  0  0  0
 15 11  1  0  0  0  0
 13 16  1  0  0  0  0
 14 17  1  0  0  0  0
 17 18  1  0  0  0  0
 17 19  1  0  0  0  0
 18 20  1  0  0  0  0
 10 21  1  1  0  0  0
 11 22  1  1  0  0  0
  1 23  1  6  0  0  0
 12 24  1  1  0  0  0
 12 25  1  0  0  0  0
 25 26  1  0  0  0  0
 23 26  1  0  0  0  0
 26 27  2  0  0  0  0
M  END
>  <cdx:fragmentId>
81

$$$$
