8894.cdx
  Mrv1902 05222410192D          

 30 34  0  0  0  0            999 V2000
    7.8848   -6.7593    0.0000 C   0  0  2  0  0  0  0  0  0  0  0  0
    8.1375   -7.5447    0.0000 C   0  0  2  0  0  0  0  0  0  0  0  0
    8.9440   -7.7185    0.0000 C   0  0  0  0  0  0  0  0  0  0  0  0
    9.4977   -7.1070    0.0000 C   0  0  0  0  0  0  0  0  0  0  0  0
    9.2450   -6.3216    0.0000 C   0  0  1  0  0  0  0  0  0  0  0  0
    8.4386   -6.1478    0.0000 C   0  0  1  0  0  0  0  0  0  0  0  0
    7.0598   -6.7570    0.0000 C   0  0  2  0  0  0  0  0  0  0  0  0
    6.8026   -7.5408    0.0000 C   0  0  2  0  0  0  0  0  0  0  0  0
    7.4687   -8.0277    0.0000 C   0  0  2  0  0  0  0  0  0  0  0  0
    6.3937   -6.2701    0.0000 C   0  0  2  0  0  0  0  0  0  0  0  0
    5.7249   -6.7531    0.0000 C   0  0  2  0  0  0  0  0  0  0  0  0
    5.9776   -7.5385    0.0000 C   0  0  0  0  0  0  0  0  0  0  0  0
    8.1859   -5.3625    0.0000 O   0  0  0  0  0  0  0  0  0  0  0  0
    9.7988   -5.7101    0.0000 C   0  0  0  0  0  0  0  0  0  0  0  0
    8.7397   -4.7509    0.0000 C   0  0  0  0  0  0  0  0  0  0  0  0
    8.4870   -3.9656    0.0000 O   0  0  0  0  0  0  0  0  0  0  0  0
    9.5461   -4.9248    0.0000 C   0  0  0  0  0  0  0  0  0  0  0  0
    7.2733   -5.9601    0.0000 O   0  0  0  0  0  0  0  0  0  0  0  0
    8.3510   -8.3416    0.0000 O   0  0  0  0  0  0  0  0  0  0  0  0
    6.3961   -5.4451    0.0000 C   0  0  0  0  0  0  0  0  0  0  0  0
    4.9410   -6.4960    0.0000 C   0  0  0  0  0  0  0  0  0  0  0  0
    5.4722   -5.9678    0.0000 O   0  0  0  0  0  0  0  0  0  0  0  0
    4.3264   -7.0462    0.0000 C   0  0  0  0  0  0  0  0  0  0  0  0
    4.7718   -5.6885    0.0000 C   0  0  0  0  0  0  0  0  0  0  0  0
    7.5900   -7.4250    0.0000 O   0  0  0  0  0  0  0  0  0  0  0  0
    7.8812   -8.7421    0.0000 C   0  0  0  0  0  0  0  0  0  0  0  0
    7.0950   -8.7450    0.0000 C   0  0  0  0  0  0  0  0  0  0  0  0
    6.5175   -8.4425    0.0000 C   0  0  0  0  0  0  0  0  0  0  0  0
    5.6106   -8.5735    0.0000 O   0  0  0  0  0  0  0  0  0  0  0  0
    6.0881   -7.9533    0.0000 O   0  0  0  0  0  0  0  0  0  0  0  0
  1  2  1  0  0  0  0
  2  3  1  0  0  0  0
  3  4  1  0  0  0  0
  4  5  1  0  0  0  0
  5  6  1  0  0  0  0
  6  1  1  0  0  0  0
  1  7  1  0  0  0  0
  7  8  1  0  0  0  0
  8  9  1  0  0  0  0
  9  2  1  0  0  0  0
  7 10  1  0  0  0  0
 10 11  1  0  0  0  0
 11 12  1  0  0  0  0
 12  8  1  0  0  0  0
  6 13  1  6  0  0  0
  5 14  1  1  0  0  0
 13 15  1  0  0  0  0
 15 16  2  0  0  0  0
 15 17  1  0  0  0  0
  7 18  1  1  0  0  0
  2 19  1  1  0  0  0
 10 20  1  1  0  0  0
 11 21  1  0  0  0  0
 11 22  1  1  0  0  0
 21 23  1  0  0  0  0
 21 24  1  0  0  0  0
  1 25  1  6  0  0  0
  9 26  1  1  0  0  0
  9 27  1  0  0  0  0
 27 28  1  0  0  0  0
 25 28  1  0  0  0  0
 28 29  1  0  0  0  0
 10 28  1  0  0  0  0
  8 30  1  1  0  0  0
M  END
>  <cdx:fragmentId>
126

$$$$
