8897.cdx
  Mrv1902 05222410202D          

  9  8  0  0  0  0            999 V2000
    5.9829   -2.8718    0.0000 C   0  0  0  0  0  0  0  0  0  0  0  0
    5.2685   -3.2843    0.0000 C   0  0  0  0  0  0  0  0  0  0  0  0
    5.9829   -2.0468    0.0000 O   0  0  0  0  0  0  0  0  0  0  0  0
    6.6974   -3.2843    0.0000 O   0  0  0  0  0  0  0  0  0  0  0  0
    4.5540   -2.8718    0.0000 N   0  0  0  0  0  0  0  0  0  0  0  0
    3.8395   -3.2843    0.0000 C   0  0  0  0  0  0  0  0  0  0  0  0
    3.1251   -2.8718    0.0000 C   0  0  0  0  0  0  0  0  0  0  0  0
    3.1251   -2.0468    0.0000 O   0  0  0  0  0  0  0  0  0  0  0  0
    2.4106   -3.2843    0.0000 O   0  0  0  0  0  0  0  0  0  0  0  0
  1  2  1  0  0  0  0
  1  3  2  0  0  0  0
  1  4  1  0  0  0  0
  7  8  2  0  0  0  0
  7  9  1  0  0  0  0
  6  7  1  0  0  0  0
  5  6  1  0  0  0  0
  2  5  1  0  0  0  0
M  END
>  <cdx:groupId>
28

>  <cdx:fragmentId>
17

$$$$
