889736.cdx
  Mrv1902 05222410212D          

 32 35  0  0  0  0            999 V2000
    6.4812   -9.7529    0.0000 C   0  0  1  0  0  0  0  0  0  0  0  0
    7.1956   -8.5154    0.0000 O   0  0  0  0  0  0  0  0  0  0  0  0
    6.4812   -8.9279    0.0000 C   0  0  2  0  0  0  0  0  0  0  0  0
    5.7667   -8.5154    0.0000 C   0  0  1  0  0  0  0  0  0  0  0  0
    5.7667   -7.6904    0.0000 C   0  0  2  0  0  0  0  0  0  0  0  0
    6.4812   -7.2779    0.0000 C   0  0  1  0  0  0  0  0  0  0  0  0
    7.1956   -7.6904    0.0000 C   0  0  1  0  0  0  0  0  0  0  0  0
    7.9101   -7.2779    0.0000 C   0  0  0  0  0  0  0  0  0  0  0  0
    7.9101   -6.4529    0.0000 O   0  0  0  0  0  0  0  0  0  0  0  0
    6.4812   -6.4529    0.0000 O   0  0  0  0  0  0  0  0  0  0  0  0
    5.0522   -7.2779    0.0000 O   0  0  0  0  0  0  0  0  0  0  0  0
    5.0522   -8.9279    0.0000 O   0  0  0  0  0  0  0  0  0  0  0  0
    5.7667   -9.3404    0.0000 O   0  0  0  0  0  0  0  0  0  0  0  0
    7.9101  -12.2279    0.0000 O   0  0  0  0  0  0  0  0  0  0  0  0
    5.0522  -12.2279    0.0000 O   0  0  0  0  0  0  0  0  0  0  0  0
   10.0535  -10.1654    0.0000 O   0  0  0  0  0  0  0  0  0  0  0  0
    9.3391   -9.7529    0.0000 C   0  0  0  0  0  0  0  0  0  0  0  0
    6.4812  -12.2279    0.0000 O   0  0  0  0  0  0  0  0  0  0  0  0
    7.1956  -10.9904    0.0000 C   0  0  0  0  0  0  0  0  0  0  0  0
    6.4812  -11.4029    0.0000 C   0  0  0  0  0  0  0  0  0  0  0  0
    5.7667  -10.9904    0.0000 C   0  0  0  0  0  0  0  0  0  0  0  0
    5.0522  -11.4029    0.0000 C   0  0  0  0  0  0  0  0  0  0  0  0
    4.3378  -10.9904    0.0000 C   0  0  0  0  0  0  0  0  0  0  0  0
    4.3378  -10.1654    0.0000 C   0  0  0  0  0  0  0  0  0  0  0  0
    5.0522   -9.7529    0.0000 C   0  0  0  0  0  0  0  0  0  0  0  0
    5.7667  -10.1654    0.0000 C   0  0  0  0  0  0  0  0  0  0  0  0
    7.1956  -10.1654    0.0000 C   0  0  0  0  0  0  0  0  0  0  0  0
    7.9101   -9.7529    0.0000 C   0  0  0  0  0  0  0  0  0  0  0  0
    8.6246  -10.1654    0.0000 C   0  0  0  0  0  0  0  0  0  0  0  0
    8.6246  -10.9904    0.0000 C   0  0  0  0  0  0  0  0  0  0  0  0
    7.9101  -11.4029    0.0000 C   0  0  0  0  0  0  0  0  0  0  0  0
    7.1956   -9.3404    0.0000 H   0  0  0  0  0  0  0  0  0  0  0  0
 31 14  1  0  0  0  0
 22 15  1  0  0  0  0
 29 17  1  0  0  0  0
 17 16  1  0  0  0  0
 20 18  2  0  0  0  0
 31 19  2  0  0  0  0
 27 19  1  0  0  0  0
 20 19  1  0  0  0  0
 21 20  1  0  0  0  0
 26 21  2  0  0  0  0
 22 21  1  0  0  0  0
 23 22  2  0  0  0  0
 24 23  1  0  0  0  0
 25 24  2  0  0  0  0
 26 25  1  0  0  0  0
  1 26  1  0  0  0  0
 27  1  1  0  0  0  0
 28 27  2  0  0  0  0
 29 28  1  0  0  0  0
 30 29  2  0  0  0  0
 31 30  1  0  0  0  0
  3  2  1  0  0  0  0
  3  4  1  0  0  0  0
  4  5  1  0  0  0  0
  5  6  1  0  0  0  0
  6  7  1  0  0  0  0
  2  7  1  0  0  0  0
  8  9  1  0  0  0  0
  7  8  1  1  0  0  0
  6 10  1  6  0  0  0
  5 11  1  1  0  0  0
  4 12  1  6  0  0  0
  1  3  1  0  0  0  0
  1 13  1  1  0  0  0
  3 32  1  6  0  0  0
M  END
>  <cdx:fragmentId>
5

$$$$
