8900.cdx
  Mrv1902 05222410282D          

  7  6  0  0  0  0            999 V2000
    2.1631   -2.2687    0.0000 C   0  0  0  0  0  0  0  0  0  0  0  0
    2.8776   -1.8563    0.0000 C   0  0  0  0  0  0  0  0  0  0  0  0
    3.5920   -2.2688    0.0000 C   0  0  0  0  0  0  0  0  0  0  0  0
    4.3065   -1.8563    0.0000 C   0  0  0  0  0  0  0  0  0  0  0  0
    5.0210   -2.2688    0.0000 C   0  0  0  0  0  0  0  0  0  0  0  0
    5.7354   -1.8563    0.0000 C   0  0  0  0  0  0  0  0  0  0  0  0
    6.4499   -2.2688    0.0000 C   0  0  0  0  0  0  0  0  0  0  0  0
  1  2  1  0  0  0  0
  2  3  1  0  0  0  0
  3  4  1  0  0  0  0
  4  5  1  0  0  0  0
  5  6  1  0  0  0  0
  6  7  1  0  0  0  0
M  END
>  <cdx:groupId>
22

>  <cdx:fragmentId>
5

$$$$
