89047.cdx
  Mrv1902 05222410252D          

 14 16  0  0  0  0            999 V2000
    5.6622   -6.0442    0.0000 C   0  0  0  0  0  0  0  0  0  0  0  0
    4.9478   -5.6317    0.0000 N   0  0  0  0  0  0  0  0  0  0  0  0
    4.9478   -4.8067    0.0000 C   0  0  0  0  0  0  0  0  0  0  0  0
    5.6622   -4.3942    0.0000 C   0  0  0  0  0  0  0  0  0  0  0  0
    6.3767   -4.8067    0.0000 C   0  0  0  0  0  0  0  0  0  0  0  0
    7.0912   -4.3942    0.0000 C   0  0  0  0  0  0  0  0  0  0  0  0
    7.8056   -4.8067    0.0000 C   0  0  0  0  0  0  0  0  0  0  0  0
    7.8056   -5.6317    0.0000 C   0  0  0  0  0  0  0  0  0  0  0  0
    7.0912   -6.0442    0.0000 C   0  0  0  0  0  0  0  0  0  0  0  0
    6.3767   -5.6317    0.0000 C   0  0  0  0  0  0  0  0  0  0  0  0
    8.5903   -5.8866    0.0000 O   0  0  0  0  0  0  0  0  0  0  0  0
    9.0752   -5.2192    0.0000 C   0  0  0  0  0  0  0  0  0  0  0  0
    8.5903   -4.5517    0.0000 O   0  0  0  0  0  0  0  0  0  0  0  0
    5.6622   -6.8692    0.0000 O   0  0  0  0  0  0  0  0  0  0  0  0
  1  2  1  0  0  0  0
  2  3  1  0  0  0  0
  3  4  1  0  0  0  0
  4  5  1  0  0  0  0
  5  6  2  0  0  0  0
  6  7  1  0  0  0  0
  7  8  2  0  0  0  0
  8  9  1  0  0  0  0
  9 10  2  0  0  0  0
  1 10  1  0  0  0  0
  5 10  1  0  0  0  0
 11 12  1  0  0  0  0
 12 13  1  0  0  0  0
 13  7  1  0  0  0  0
 11  8  1  0  0  0  0
  1 14  2  0  0  0  0
M  END
>  <cdx:fragmentId>
5

$$$$
