890558.cdx
  Mrv1902 05222410202D          

 38 41  0  0  0  0            999 V2000
    6.1486   -2.8433    0.0000 O   0  0  0  0  0  0  0  0  0  0  0  0
    4.5548   -6.3908    0.0000 C   0  0  0  0  0  0  0  0  0  0  0  0
    5.2325   -5.9203    0.0000 O   0  0  0  0  0  0  0  0  0  0  0  0
    4.7478   -8.0743    0.0000 C   0  0  0  0  0  0  0  0  0  0  0  0
    4.9645   -7.2783    0.0000 O   0  0  0  0  0  0  0  0  0  0  0  0
    6.7077   -9.0352    0.0000 C   0  0  0  0  0  0  0  0  0  0  0  0
    6.1266   -8.4496    0.0000 O   0  0  0  0  0  0  0  0  0  0  0  0
    4.7669   -3.2077    0.0000 C   0  0  0  0  0  0  0  0  0  0  0  0
    4.9773   -4.0054    0.0000 O   0  0  0  0  0  0  0  0  0  0  0  0
    4.5607   -4.8897    0.0000 C   0  0  0  0  0  0  0  0  0  0  0  0
    5.2347   -5.3655    0.0000 O   0  0  0  0  0  0  0  0  0  0  0  0
    9.5292   -6.3880    0.0000 C   0  0  0  0  0  0  0  0  0  0  0  0
    9.5349   -4.9316    0.0000 C   0  0  0  0  0  0  0  0  0  0  0  0
    5.9837   -5.0198    0.0000 C   0  0  0  0  0  0  0  0  0  0  0  0
    5.7734   -4.2221    0.0000 C   0  0  0  0  0  0  0  0  0  0  0  0
    6.3590   -3.6410    0.0000 C   0  0  0  0  0  0  0  0  0  0  0  0
    7.1550   -3.8577    0.0000 C   0  0  0  0  0  0  0  0  0  0  0  0
    7.3654   -4.6554    0.0000 C   0  0  0  0  0  0  0  0  0  0  0  0
    8.1904   -4.6586    0.0000 C   0  0  0  0  0  0  0  0  0  0  0  0
    8.7715   -5.2443    0.0000 C   0  0  1  0  0  0  0  0  0  0  0  0
    8.7683   -6.0693    0.0000 C   0  0  1  0  0  0  0  0  0  0  0  0
    8.1826   -6.6503    0.0000 C   0  0  2  0  0  0  0  0  0  0  0  0
    7.3576   -6.6471    0.0000 C   0  0  0  0  0  0  0  0  0  0  0  0
    7.1410   -7.4432    0.0000 C   0  0  0  0  0  0  0  0  0  0  0  0
    6.3432   -7.6535    0.0000 C   0  0  0  0  0  0  0  0  0  0  0  0
    5.7622   -7.0679    0.0000 C   0  0  0  0  0  0  0  0  0  0  0  0
    5.9788   -6.2719    0.0000 C   0  0  0  0  0  0  0  0  0  0  0  0
    6.7765   -6.0615    0.0000 C   0  0  0  0  0  0  0  0  0  0  0  0
    6.7798   -5.2365    0.0000 C   0  0  0  0  0  0  0  0  0  0  0  0
    8.4953   -7.4138    0.0000 O   0  0  0  0  0  0  0  0  0  0  0  0
    9.8176   -6.8721    0.0000 O   0  0  0  0  0  0  0  0  0  0  0  0
   10.4431   -8.3990    0.0000 C   0  0  0  0  0  0  0  0  0  0  0  0
   10.7558   -9.1624    0.0000 C   0  0  0  0  0  0  0  0  0  0  0  0
   10.2510   -9.8150    0.0000 C   0  0  0  0  0  0  0  0  0  0  0  0
    9.4335   -9.7041    0.0000 C   0  0  0  0  0  0  0  0  0  0  0  0
    9.1208   -8.9407    0.0000 C   0  0  0  0  0  0  0  0  0  0  0  0
    9.6256   -8.2881    0.0000 C   0  0  0  0  0  0  0  0  0  0  0  0
    9.3128   -7.5247    0.0000 C   0  0  0  0  0  0  0  0  0  0  0  0
 22 30  1  1  0  0  0
 16  1  1  0  0  0  0
 27  3  1  0  0  0  0
  3  2  1  0  0  0  0
 26  5  1  0  0  0  0
  5  4  1  0  0  0  0
 25  7  1  0  0  0  0
  7  6  1  0  0  0  0
 15  9  1  0  0  0  0
  9  8  1  0  0  0  0
 14 11  1  0  0  0  0
 11 10  1  0  0  0  0
 21 12  1  6  0  0  0
 20 13  1  6  0  0  0
 28 23  1  0  0  0  0
 29 18  1  0  0  0  0
 29 14  2  0  0  0  0
 15 14  1  0  0  0  0
 16 15  2  0  0  0  0
 17 16  1  0  0  0  0
 18 17  2  0  0  0  0
 19 18  1  0  0  0  0
 20 19  1  0  0  0  0
 21 20  1  0  0  0  0
 22 21  1  0  0  0  0
 23 22  1  0  0  0  0
 24 23  2  0  0  0  0
 25 24  1  0  0  0  0
 26 25  2  0  0  0  0
 27 26  1  0  0  0  0
 28 27  2  0  0  0  0
 29 28  1  0  0  0  0
 38 30  1  0  0  0  0
 38 31  2  0  0  0  0
 37 32  2  0  0  0  0
 33 32  1  0  0  0  0
 34 33  2  0  0  0  0
 35 34  1  0  0  0  0
 36 35  2  0  0  0  0
 37 36  1  0  0  0  0
 38 37  1  0  0  0  0
M  END
>  <cdx:fragmentId>
109977

$$$$
