890510.cdx
  Mrv1902 05222410222D          

 14 13  0  0  0  0            999 V2000
    7.1956   -8.0956    0.0000 O   0  0  0  0  0  0  0  0  0  0  0  0
    7.1956   -8.9206    0.0000 C   0  0  0  0  0  0  0  0  0  0  0  0
    6.8937  -10.0475    0.0000 C   0  0  0  0  0  0  0  0  0  0  0  0
    6.0687  -10.0475    0.0000 C   0  0  0  0  0  0  0  0  0  0  0  0
    9.3391   -9.3331    0.0000 C   0  0  0  0  0  0  0  0  0  0  0  0
    5.7667   -8.0956    0.0000 O   0  0  0  0  0  0  0  0  0  0  0  0
    6.4812   -6.8581    0.0000 C   0  0  0  0  0  0  0  0  0  0  0  0
    6.4812   -7.6831    0.0000 C   0  0  0  0  0  0  0  0  0  0  0  0
    6.4812   -9.3331    0.0000 C   0  0  0  0  0  0  0  0  0  0  0  0
    5.7667   -8.9206    0.0000 C   0  0  0  0  0  0  0  0  0  0  0  0
    5.0522   -9.3331    0.0000 C   0  0  0  0  0  0  0  0  0  0  0  0
    8.6246   -8.0956    0.0000 C   0  0  0  0  0  0  0  0  0  0  0  0
    8.6246   -8.9206    0.0000 C   0  0  0  0  0  0  0  0  0  0  0  0
    7.9101   -9.3331    0.0000 C   0  0  0  0  0  0  0  0  0  0  0  0
  8  1  1  0  0  0  0
  9  3  1  0  0  0  0
  9  4  1  0  0  0  0
  8  6  2  0  0  0  0
  8  7  1  0  0  0  0
  9  2  1  0  0  0  0
 10  9  1  0  0  0  0
 11 10  2  0  0  0  0
 13  5  1  0  0  0  0
 13 12  1  0  0  0  0
 14 13  2  0  0  0  0
  2 14  1  0  0  0  0
  1  2  1  0  0  0  0
M  END
>  <cdx:fragmentId>
13

$$$$
