8907.cdx
  Mrv1902 05222410272D          

 21 20  0  0  0  0            999 V2000
   11.4437   -3.4727    0.0000 C   0  0  0  0  0  0  0  0  0  0  0  0
   10.7292   -3.8852    0.0000 C   0  0  0  0  0  0  0  0  0  0  0  0
   10.0148   -3.4727    0.0000 C   0  0  0  0  0  0  0  0  0  0  0  0
    9.3003   -3.8852    0.0000 C   0  0  0  0  0  0  0  0  0  0  0  0
    8.5858   -3.4727    0.0000 C   0  0  0  0  0  0  0  0  0  0  0  0
    7.8713   -3.8852    0.0000 C   0  0  0  0  0  0  0  0  0  0  0  0
    7.1569   -3.4727    0.0000 C   0  0  0  0  0  0  0  0  0  0  0  0
    6.4424   -3.8852    0.0000 C   0  0  0  0  0  0  0  0  0  0  0  0
    5.7279   -3.4727    0.0000 C   0  0  0  0  0  0  0  0  0  0  0  0
    5.0135   -3.8852    0.0000 C   0  0  0  0  0  0  0  0  0  0  0  0
    4.2990   -3.4727    0.0000 C   0  0  0  0  0  0  0  0  0  0  0  0
    3.5845   -3.8852    0.0000 C   0  0  0  0  0  0  0  0  0  0  0  0
    2.8700   -3.4727    0.0000 C   0  0  0  0  0  0  0  0  0  0  0  0
    2.1556   -3.8852    0.0000 C   0  0  0  0  0  0  0  0  0  0  0  0
    1.4411   -3.4727    0.0000 C   0  0  0  0  0  0  0  0  0  0  0  0
    0.7266   -3.8852    0.0000 C   0  0  0  0  0  0  0  0  0  0  0  0
   11.4437   -2.6477    0.0000 O   0  0  0  0  0  0  0  0  0  0  0  0
   12.1582   -3.8852    0.0000 O   0  0  0  0  0  0  0  0  0  0  0  0
   12.8726   -2.6477    0.0000 C   0  0  0  0  0  0  0  0  0  0  0  0
   12.8726   -3.4727    0.0000 C   0  0  0  0  0  0  0  0  0  0  0  0
   13.5871   -3.8852    0.0000 C   0  0  0  0  0  0  0  0  0  0  0  0
  1  2  1  0  0  0  0
  2  3  1  0  0  0  0
  3  4  1  0  0  0  0
  4  5  1  0  0  0  0
  5  6  1  0  0  0  0
  6  7  1  0  0  0  0
  7  8  1  0  0  0  0
  8  9  1  0  0  0  0
  9 10  1  0  0  0  0
 10 11  1  0  0  0  0
 11 12  1  0  0  0  0
 12 13  1  0  0  0  0
 13 14  1  0  0  0  0
 14 15  1  0  0  0  0
 15 16  1  0  0  0  0
  1 17  2  0  0  0  0
  1 18  1  0  0  0  0
 19 20  1  0  0  0  0
 20 21  1  0  0  0  0
 18 20  1  0  0  0  0
M  END
>  <cdx:groupId>
64

>  <cdx:fragmentId>
5

$$$$
