8908.cdx
  Mrv1902 05222410202D          

 10  9  0  0  0  0            999 V2000
    3.1325   -2.7508    0.0000 C   0  0  0  0  0  0  0  0  0  0  0  0
    2.4180   -3.1633    0.0000 C   0  0  0  0  0  0  0  0  0  0  0  0
    3.1325   -1.9258    0.0000 O   0  0  0  0  0  0  0  0  0  0  0  0
    3.8469   -3.1633    0.0000 O   0  0  0  0  0  0  0  0  0  0  0  0
    4.5614   -2.7508    0.0000 C   0  0  0  0  0  0  0  0  0  0  0  0
    5.2759   -3.1633    0.0000 C   0  0  0  0  0  0  0  0  0  0  0  0
    5.9903   -2.7508    0.0000 C   0  0  0  0  0  0  0  0  0  0  0  0
    6.7048   -3.1633    0.0000 C   0  0  0  0  0  0  0  0  0  0  0  0
    7.4193   -2.7508    0.0000 C   0  0  0  0  0  0  0  0  0  0  0  0
    8.1338   -3.1633    0.0000 C   0  0  0  0  0  0  0  0  0  0  0  0
  1  2  1  0  0  0  0
  1  3  2  0  0  0  0
  1  4  1  0  0  0  0
  5  6  1  0  0  0  0
  6  7  1  0  0  0  0
  7  8  1  0  0  0  0
  8  9  1  0  0  0  0
  9 10  1  0  0  0  0
  4  5  1  0  0  0  0
M  END
>  <cdx:groupId>
31

>  <cdx:fragmentId>
13

$$$$
