8909.cdx
  Mrv1902 05222410202D          

  9  8  0  0  0  0            999 V2000
    3.8602   -2.2629    0.0000 C   0  0  0  0  0  0  0  0  0  0  0  0
    3.1457   -2.6754    0.0000 C   0  0  0  0  0  0  0  0  0  0  0  0
    2.4312   -2.2629    0.0000 C   0  0  0  0  0  0  0  0  0  0  0  0
    1.7167   -2.6754    0.0000 C   0  0  0  0  0  0  0  0  0  0  0  0
    4.5746   -2.6754    0.0000 O   0  0  0  0  0  0  0  0  0  0  0  0
    5.2891   -2.2629    0.0000 C   0  0  0  0  0  0  0  0  0  0  0  0
    6.0036   -2.6754    0.0000 C   0  0  0  0  0  0  0  0  0  0  0  0
    6.7180   -2.2629    0.0000 C   0  0  0  0  0  0  0  0  0  0  0  0
    7.4325   -2.6754    0.0000 C   0  0  0  0  0  0  0  0  0  0  0  0
  1  2  1  0  0  0  0
  2  3  1  0  0  0  0
  3  4  1  0  0  0  0
  6  7  1  0  0  0  0
  7  8  1  0  0  0  0
  8  9  1  0  0  0  0
  5  6  1  0  0  0  0
  1  5  1  0  0  0  0
M  END
>  <cdx:groupId>
28

>  <cdx:fragmentId>
15

$$$$
