890994.cdx
  Mrv1902 05222410192D          

 36 40  0  0  0  0            999 V2000
    5.2816   -6.6367    0.0000 C   0  0  0  0  0  0  0  0  0  0  0  0
    4.5671   -7.0492    0.0000 C   0  0  0  0  0  0  0  0  0  0  0  0
    4.5671   -7.8742    0.0000 C   0  0  1  0  0  0  0  0  0  0  0  0
    5.2816   -8.2867    0.0000 C   0  0  1  0  0  0  0  0  0  0  0  0
    5.9961   -7.8742    0.0000 C   0  0  2  0  0  0  0  0  0  0  0  0
    6.7105   -8.2867    0.0000 C   0  0  0  0  0  0  0  0  0  0  0  0
    7.4250   -7.8742    0.0000 C   0  0  0  0  0  0  0  0  0  0  0  0
    7.4250   -7.0492    0.0000 C   0  0  1  0  0  0  0  0  0  0  0  0
    8.1395   -6.6367    0.0000 C   0  0  2  0  0  0  0  0  0  0  0  0
    8.8539   -7.0492    0.0000 C   0  0  0  0  0  0  0  0  0  0  0  0
    9.5684   -6.6367    0.0000 C   0  0  2  0  0  0  0  0  0  0  0  0
    9.5684   -5.8117    0.0000 C   0  0  1  0  0  0  0  0  0  0  0  0
   10.2829   -5.3992    0.0000 C   0  0  0  0  0  0  0  0  0  0  0  0
   10.2829   -4.5742    0.0000 C   0  0  0  0  0  0  0  0  0  0  0  0
    9.5684   -4.1617    0.0000 C   0  0  1  0  0  0  0  0  0  0  0  0
    8.8539   -4.5742    0.0000 C   0  0  0  0  0  0  0  0  0  0  0  0
    8.8539   -5.3992    0.0000 C   0  0  0  0  0  0  0  0  0  0  0  0
    8.1395   -5.8117    0.0000 C   0  0  0  0  0  0  0  0  0  0  0  0
    7.4250   -5.3992    0.0000 C   0  0  0  0  0  0  0  0  0  0  0  0
    6.7105   -5.8117    0.0000 C   0  0  0  0  0  0  0  0  0  0  0  0
    6.7105   -6.6367    0.0000 C   0  0  2  0  0  0  0  0  0  0  0  0
    5.9961   -7.0492    0.0000 C   0  0  1  0  0  0  0  0  0  0  0  0
    3.8526   -8.2867    0.0000 O   0  0  0  0  0  0  0  0  0  0  0  0
   10.2829   -7.0492    0.0000 O   0  0  0  0  0  0  0  0  0  0  0  0
    5.9961   -6.2242    0.0000 C   0  0  0  0  0  0  0  0  0  0  0  0
    9.1559   -3.4472    0.0000 C   0  0  0  0  0  0  0  0  0  0  0  0
    9.9809   -3.4472    0.0000 C   0  0  0  0  0  0  0  0  0  0  0  0
    8.1395   -7.4617    0.0000 C   0  0  0  0  0  0  0  0  0  0  0  0
    7.4250   -6.2242    0.0000 C   0  0  0  0  0  0  0  0  0  0  0  0
    4.8691   -9.0012    0.0000 C   0  0  0  0  0  0  0  0  0  0  0  0
   10.2829   -6.2242    0.0000 C   0  0  0  0  0  0  0  0  0  0  0  0
   10.9974   -5.8117    0.0000 O   0  0  0  0  0  0  0  0  0  0  0  0
    5.6941   -9.0012    0.0000 C   0  0  0  0  0  0  0  0  0  0  0  0
    5.2816   -9.7156    0.0000 O   0  0  0  0  0  0  0  0  0  0  0  0
    5.9961   -8.6992    0.0000 H   0  0  0  0  0  0  0  0  0  0  0  0
    6.7105   -7.4617    0.0000 H   0  0  0  0  0  0  0  0  0  0  0  0
  1  2  1  0  0  0  0
  2  3  1  0  0  0  0
  3  4  1  0  0  0  0
  4  5  1  0  0  0  0
  5  6  1  0  0  0  0
  6  7  1  0  0  0  0
  7  8  1  0  0  0  0
  8  9  1  0  0  0  0
  9 10  1  0  0  0  0
 10 11  1  0  0  0  0
 11 12  1  0  0  0  0
 12 13  1  0  0  0  0
 13 14  1  0  0  0  0
 14 15  1  0  0  0  0
 15 16  1  0  0  0  0
 16 17  1  0  0  0  0
 12 17  1  0  0  0  0
 17 18  2  0  0  0  0
  9 18  1  0  0  0  0
 18 19  1  0  0  0  0
 19 20  2  0  0  0  0
 20 21  1  0  0  0  0
  8 21  1  0  0  0  0
 21 22  1  0  0  0  0
  5 22  1  0  0  0  0
  1 22  1  0  0  0  0
  3 23  1  1  0  0  0
 11 24  1  6  0  0  0
 22 25  1  1  0  0  0
 15 26  1  1  0  0  0
 15 27  1  6  0  0  0
  9 28  1  6  0  0  0
  8 29  1  1  0  0  0
  4 30  1  1  0  0  0
 31 32  1  0  0  0  0
 12 31  1  1  0  0  0
 33 34  1  0  0  0  0
  4 33  1  6  0  0  0
  5 35  1  6  0  0  0
 21 36  1  6  0  0  0
M  END
>  <cdx:fragmentId>
9

$$$$
