8914.cdx
  Mrv1902 05222410282D          

 10  9  0  0  0  0            999 V2000
    1.9966   -4.6554    0.0000 C   0  0  0  0  0  0  0  0  0  0  0  0
    2.7111   -5.0679    0.0000 C   0  0  0  0  0  0  0  0  0  0  0  0
    3.4255   -4.6554    0.0000 C   0  0  0  0  0  0  0  0  0  0  0  0
    4.1400   -5.0679    0.0000 C   0  0  0  0  0  0  0  0  0  0  0  0
    4.8545   -4.6554    0.0000 C   0  0  0  0  0  0  0  0  0  0  0  0
    5.5689   -5.0679    0.0000 C   0  0  0  0  0  0  0  0  0  0  0  0
    6.2834   -4.6554    0.0000 C   0  0  0  0  0  0  0  0  0  0  0  0
    6.9979   -5.0679    0.0000 C   0  0  0  0  0  0  0  0  0  0  0  0
    7.7124   -4.6554    0.0000 C   0  0  0  0  0  0  0  0  0  0  0  0
    1.2821   -5.0679    0.0000 O   0  0  0  0  0  0  0  0  0  0  0  0
  1  2  1  0  0  0  0
  2  3  1  0  0  0  0
  3  4  1  0  0  0  0
  4  5  1  0  0  0  0
  5  6  1  0  0  0  0
  6  7  1  0  0  0  0
  7  8  1  0  0  0  0
  8  9  1  0  0  0  0
  1 10  1  0  0  0  0
M  END
>  <cdx:groupId>
31

>  <cdx:fragmentId>
5

$$$$
