891602.cdx
  Mrv1902 05222410242D          

 22 23  0  0  0  0            999 V2000
    5.4663  -12.8099    0.0000 C   0  0  0  0  0  0  0  0  0  0  0  0
    5.4663  -11.9849    0.0000 C   0  0  0  0  0  0  0  0  0  0  0  0
    6.1807  -11.5724    0.0000 C   0  0  2  0  0  0  0  0  0  0  0  0
    6.1807  -10.7474    0.0000 C   0  0  0  0  0  0  0  0  0  0  0  0
    6.8952  -10.3349    0.0000 C   0  0  0  0  0  0  0  0  0  0  0  0
    7.0057  -11.5724    0.0000 O   0  0  0  0  0  0  0  0  0  0  0  0
    6.5932  -12.2869    0.0000 C   0  0  0  0  0  0  0  0  0  0  0  0
    6.8952   -9.5099    0.0000 C   0  0  1  0  0  0  0  0  0  0  0  0
    6.1807   -9.0974    0.0000 C   0  0  0  0  0  0  0  0  0  0  0  0
    6.1807   -8.2724    0.0000 C   0  0  0  0  0  0  0  0  0  0  0  0
    6.8952   -7.8599    0.0000 C   0  0  0  0  0  0  0  0  0  0  0  0
    7.6097   -8.2724    0.0000 C   0  0  1  0  0  0  0  0  0  0  0  0
    8.3241   -7.8599    0.0000 C   0  0  0  0  0  0  0  0  0  0  0  0
    9.0386   -8.2724    0.0000 C   0  0  0  0  0  0  0  0  0  0  0  0
    9.0386   -9.0974    0.0000 C   0  0  0  0  0  0  0  0  0  0  0  0
    8.3241   -9.5099    0.0000 C   0  0  0  0  0  0  0  0  0  0  0  0
    7.6097   -9.0974    0.0000 C   0  0  2  0  0  0  0  0  0  0  0  0
    5.4663   -9.5099    0.0000 C   0  0  0  0  0  0  0  0  0  0  0  0
    7.6097   -9.9224    0.0000 C   0  0  0  0  0  0  0  0  0  0  0  0
    7.9116   -7.1455    0.0000 C   0  0  0  0  0  0  0  0  0  0  0  0
    8.7366   -7.1455    0.0000 C   0  0  0  0  0  0  0  0  0  0  0  0
    7.6097   -7.4474    0.0000 H   0  0  0  0  0  0  0  0  0  0  0  0
  1  2  2  0  0  0  0
  2  3  1  0  0  0  0
  3  4  1  0  0  0  0
  4  5  1  0  0  0  0
  3  6  1  6  0  0  0
  3  7  1  1  0  0  0
  8  9  1  0  0  0  0
  9 10  1  0  0  0  0
 10 11  1  0  0  0  0
 11 12  1  0  0  0  0
 12 13  1  0  0  0  0
 13 14  1  0  0  0  0
 14 15  1  0  0  0  0
 15 16  1  0  0  0  0
 16 17  1  0  0  0  0
  8 17  1  0  0  0  0
 12 17  1  0  0  0  0
  9 18  2  0  0  0  0
 17 19  1  1  0  0  0
 13 20  1  0  0  0  0
 13 21  1  0  0  0  0
  8  5  1  1  0  0  0
 12 22  1  6  0  0  0
M  END
>  <cdx:fragmentId>
62309

$$$$
