8918.cdx
  Mrv1902 05222410182D          

 13 12  0  0  0  0            999 V2000
    5.1174   -2.0702    0.0000 C   0  0  0  0  0  0  0  0  0  0  0  0
    4.4029   -2.4827    0.0000 C   0  0  0  0  0  0  0  0  0  0  0  0
    5.1174   -1.2452    0.0000 O   0  0  0  0  0  0  0  0  0  0  0  0
    5.8319   -2.4827    0.0000 O   0  0  0  0  0  0  0  0  0  0  0  0
    6.5463   -2.0702    0.0000 C   0  0  0  0  0  0  0  0  0  0  0  0
    7.2608   -2.4827    0.0000 C   0  0  0  0  0  0  0  0  0  0  0  0
    7.9753   -2.0702    0.0000 C   0  0  0  0  0  0  0  0  0  0  0  0
    8.6897   -2.4827    0.0000 C   0  0  0  0  0  0  0  0  0  0  0  0
    9.4042   -2.0702    0.0000 C   0  0  0  0  0  0  0  0  0  0  0  0
   10.1187   -2.4827    0.0000 C   0  0  0  0  0  0  0  0  0  0  0  0
   10.8331   -2.0702    0.0000 C   0  0  0  0  0  0  0  0  0  0  0  0
   11.5476   -2.4827    0.0000 C   0  0  0  0  0  0  0  0  0  0  0  0
   12.2621   -2.0702    0.0000 C   0  0  0  0  0  0  0  0  0  0  0  0
  1  2  1  0  0  0  0
  1  3  2  0  0  0  0
  1  4  1  0  0  0  0
  5  6  1  0  0  0  0
  6  7  1  0  0  0  0
  7  8  1  0  0  0  0
  8  9  1  0  0  0  0
  9 10  1  0  0  0  0
 10 11  1  0  0  0  0
 11 12  1  0  0  0  0
 12 13  1  0  0  0  0
  4  5  1  0  0  0  0
M  END
>  <cdx:groupId>
40

>  <cdx:fragmentId>
13

$$$$
