89180.cdx
  Mrv1902 05222410262D          

 10  9  0  0  0  0            999 V2000
    6.6355   -3.8291    0.0000 C   0  0  0  0  0  0  0  0  0  0  0  0
    5.9211   -3.4166    0.0000 C   0  0  0  0  0  0  0  0  0  0  0  0
    5.2066   -3.8291    0.0000 C   0  0  0  0  0  0  0  0  0  0  0  0
    4.4921   -3.4166    0.0000 C   0  0  0  0  0  0  0  0  0  0  0  0
    3.7777   -3.8291    0.0000 C   0  0  0  0  0  0  0  0  0  0  0  0
    3.0632   -3.4166    0.0000 C   0  0  0  0  0  0  0  0  0  0  0  0
    3.0632   -2.5916    0.0000 C   0  0  0  0  0  0  0  0  0  0  0  0
    5.9211   -2.5916    0.0000 O   0  0  0  0  0  0  0  0  0  0  0  0
    2.3487   -3.8291    0.0000 C   0  0  0  0  0  0  0  0  0  0  0  0
    4.4921   -2.5916    0.0000 C   0  0  0  0  0  0  0  0  0  0  0  0
  1  2  1  0  0  0  0
  2  3  1  0  0  0  0
  3  4  1  0  0  0  0
  4  5  1  0  0  0  0
  5  6  1  0  0  0  0
  6  7  1  0  0  0  0
  2  8  2  0  0  0  0
  6  9  1  0  0  0  0
  4 10  1  0  0  0  0
M  END
>  <cdx:groupId>
31

>  <cdx:fragmentId>
5

$$$$
