892.cdx
  Mrv1902 05222410182D          

 12 12  0  0  0  0            999 V2000
    7.9566   -5.3977    0.0000 C   0  0  0  0  0  0  0  0  0  0  0  0
    7.2421   -5.8102    0.0000 C   0  0  0  0  0  0  0  0  0  0  0  0
    6.5277   -5.3977    0.0000 C   0  0  0  0  0  0  0  0  0  0  0  0
    6.5277   -4.5727    0.0000 C   0  0  0  0  0  0  0  0  0  0  0  0
    7.2421   -4.1602    0.0000 C   0  0  0  0  0  0  0  0  0  0  0  0
    7.9566   -4.5727    0.0000 C   0  0  0  0  0  0  0  0  0  0  0  0
    8.6711   -5.8102    0.0000 O   0  0  0  0  0  0  0  0  0  0  0  0
    7.2421   -6.6352    0.0000 O   0  0  0  0  0  0  0  0  0  0  0  0
    5.8132   -5.8102    0.0000 O   0  0  0  0  0  0  0  0  0  0  0  0
    5.8132   -4.1602    0.0000 O   0  0  0  0  0  0  0  0  0  0  0  0
    7.2421   -3.3352    0.0000 O   0  0  0  0  0  0  0  0  0  0  0  0
    8.6711   -4.1602    0.0000 O   0  0  0  0  0  0  0  0  0  0  0  0
  1  2  1  0  0  0  0
  2  3  1  0  0  0  0
  3  4  1  0  0  0  0
  4  5  1  0  0  0  0
  5  6  1  0  0  0  0
  1  6  1  0  0  0  0
  1  7  1  0  0  0  0
  2  8  1  0  0  0  0
  3  9  1  0  0  0  0
  4 10  1  0  0  0  0
  5 11  1  0  0  0  0
  6 12  1  0  0  0  0
M  END
>  <cdx:fragmentId>
5

$$$$
