892721.cdx
  Mrv1902 05222410262D          

 30 32  0  0  0  0            999 V2000
    7.5686   -7.5692    0.0000 C   0  0  1  0  0  0  0  0  0  0  0  0
    8.2831   -7.1567    0.0000 C   0  0  1  0  0  0  0  0  0  0  0  0
    8.2831   -6.3317    0.0000 C   0  0  1  0  0  0  0  0  0  0  0  0
    7.5686   -5.9192    0.0000 C   0  0  0  0  0  0  0  0  0  0  0  0
    6.8541   -6.3317    0.0000 C   0  0  0  0  0  0  0  0  0  0  0  0
    6.8541   -7.1567    0.0000 O   0  0  0  0  0  0  0  0  0  0  0  0
    9.0677   -6.0767    0.0000 C   0  0  1  0  0  0  0  0  0  0  0  0
    9.5526   -6.7442    0.0000 C   0  0  0  0  0  0  0  0  0  0  0  0
    9.0677   -7.4116    0.0000 C   0  0  1  0  0  0  0  0  0  0  0  0
    7.5686   -5.0942    0.0000 C   0  0  0  0  0  0  0  0  0  0  0  0
    8.2831   -4.6817    0.0000 O   0  0  0  0  0  0  0  0  0  0  0  0
    6.8541   -4.6817    0.0000 O   0  0  0  0  0  0  0  0  0  0  0  0
    7.5686   -8.3942    0.0000 O   0  0  0  0  0  0  0  0  0  0  0  0
    6.1397   -8.3942    0.0000 O   0  0  0  0  0  0  0  0  0  0  0  0
    6.8541   -8.8067    0.0000 C   0  0  2  0  0  0  0  0  0  0  0  0
    6.8541   -9.6317    0.0000 C   0  0  1  0  0  0  0  0  0  0  0  0
    6.1397  -10.0442    0.0000 C   0  0  2  0  0  0  0  0  0  0  0  0
    5.4252   -9.6317    0.0000 C   0  0  1  0  0  0  0  0  0  0  0  0
    5.4252   -8.8067    0.0000 C   0  0  1  0  0  0  0  0  0  0  0  0
    4.7107   -8.3942    0.0000 C   0  0  0  0  0  0  0  0  0  0  0  0
    3.9963   -8.8067    0.0000 O   0  0  0  0  0  0  0  0  0  0  0  0
    4.7107  -10.0442    0.0000 O   0  0  0  0  0  0  0  0  0  0  0  0
    6.1397  -10.8692    0.0000 O   0  0  0  0  0  0  0  0  0  0  0  0
    7.5686  -10.0442    0.0000 O   0  0  0  0  0  0  0  0  0  0  0  0
    8.8962   -8.2186    0.0000 C   0  0  0  0  0  0  0  0  0  0  0  0
    9.6808   -7.9637    0.0000 O   0  0  0  0  0  0  0  0  0  0  0  0
    9.3227   -5.2921    0.0000 O   0  0  0  0  0  0  0  0  0  0  0  0
    6.8541   -3.8567    0.0000 C   0  0  0  0  0  0  0  0  0  0  0  0
    8.2831   -5.5067    0.0000 H   0  0  0  0  0  0  0  0  0  0  0  0
    8.2831   -7.9817    0.0000 H   0  0  0  0  0  0  0  0  0  0  0  0
  1  2  1  0  0  0  0
  2  3  1  0  0  0  0
  3  4  1  0  0  0  0
  4  5  2  0  0  0  0
  5  6  1  0  0  0  0
  1  6  1  0  0  0  0
  7  8  1  0  0  0  0
  8  9  1  0  0  0  0
  9  2  1  0  0  0  0
  7  3  1  0  0  0  0
 10 11  2  0  0  0  0
 10 12  1  0  0  0  0
  4 10  1  0  0  0  0
 14 15  1  0  0  0  0
 15 16  1  0  0  0  0
 16 17  1  0  0  0  0
 17 18  1  0  0  0  0
 18 19  1  0  0  0  0
 14 19  1  0  0  0  0
 20 21  1  0  0  0  0
 19 20  1  1  0  0  0
 18 22  1  6  0  0  0
 17 23  1  1  0  0  0
 16 24  1  6  0  0  0
 15 13  1  1  0  0  0
  1 13  1  6  0  0  0
  9 25  1  1  0  0  0
  9 26  1  6  0  0  0
  7 27  1  6  0  0  0
 12 28  1  0  0  0  0
  3 29  1  6  0  0  0
  2 30  1  6  0  0  0
M  END
>  <cdx:fragmentId>
83012

$$$$
