892717.cdx
  Mrv1902 05222410222D          

 28 30  0  0  0  0            999 V2000
    7.6639   -7.9524    0.0000 C   0  0  1  0  0  0  0  0  0  0  0  0
    8.3784   -7.5399    0.0000 C   0  0  1  0  0  0  0  0  0  0  0  0
    8.3784   -6.7149    0.0000 C   0  0  1  0  0  0  0  0  0  0  0  0
    7.6639   -6.3024    0.0000 C   0  0  0  0  0  0  0  0  0  0  0  0
    6.9495   -6.7149    0.0000 C   0  0  0  0  0  0  0  0  0  0  0  0
    6.9495   -7.5399    0.0000 O   0  0  0  0  0  0  0  0  0  0  0  0
    9.1630   -6.4600    0.0000 C   0  0  0  0  0  0  0  0  0  0  0  0
    9.6479   -7.1274    0.0000 C   0  0  0  0  0  0  0  0  0  0  0  0
    9.1630   -7.7949    0.0000 C   0  0  2  0  0  0  0  0  0  0  0  0
    7.6639   -5.4774    0.0000 C   0  0  0  0  0  0  0  0  0  0  0  0
    8.3784   -5.0649    0.0000 O   0  0  0  0  0  0  0  0  0  0  0  0
    6.9495   -5.0649    0.0000 O   0  0  0  0  0  0  0  0  0  0  0  0
    7.6639   -8.7774    0.0000 O   0  0  0  0  0  0  0  0  0  0  0  0
    6.2350   -8.7774    0.0000 O   0  0  0  0  0  0  0  0  0  0  0  0
    6.9495   -9.1899    0.0000 C   0  0  2  0  0  0  0  0  0  0  0  0
    6.9495  -10.0149    0.0000 C   0  0  1  0  0  0  0  0  0  0  0  0
    6.2350  -10.4274    0.0000 C   0  0  2  0  0  0  0  0  0  0  0  0
    5.5205  -10.0149    0.0000 C   0  0  1  0  0  0  0  0  0  0  0  0
    5.5205   -9.1899    0.0000 C   0  0  1  0  0  0  0  0  0  0  0  0
    4.8060   -8.7774    0.0000 C   0  0  0  0  0  0  0  0  0  0  0  0
    4.0916   -9.1899    0.0000 O   0  0  0  0  0  0  0  0  0  0  0  0
    4.8060  -10.4274    0.0000 O   0  0  0  0  0  0  0  0  0  0  0  0
    6.2350  -11.2524    0.0000 O   0  0  0  0  0  0  0  0  0  0  0  0
    7.6639  -10.4274    0.0000 O   0  0  0  0  0  0  0  0  0  0  0  0
    9.4180   -8.5795    0.0000 C   0  0  0  0  0  0  0  0  0  0  0  0
   10.2249   -8.7510    0.0000 O   0  0  0  0  0  0  0  0  0  0  0  0
    8.4646   -5.8944    0.0000 H   0  0  0  0  0  0  0  0  0  0  0  0
    8.4646   -8.3604    0.0000 H   0  0  0  0  0  0  0  0  0  0  0  0
  1  2  1  0  0  0  0
  2  3  1  0  0  0  0
  3  4  1  0  0  0  0
  4  5  2  0  0  0  0
  5  6  1  0  0  0  0
  1  6  1  0  0  0  0
  7  8  1  0  0  0  0
  8  9  1  0  0  0  0
  9  2  1  0  0  0  0
  7  3  1  0  0  0  0
 10 11  2  0  0  0  0
 10 12  1  0  0  0  0
  4 10  1  0  0  0  0
 14 15  1  0  0  0  0
 15 16  1  0  0  0  0
 16 17  1  0  0  0  0
 17 18  1  0  0  0  0
 18 19  1  0  0  0  0
 14 19  1  0  0  0  0
 20 21  1  0  0  0  0
 19 20  1  1  0  0  0
 18 22  1  6  0  0  0
 17 23  1  1  0  0  0
 16 24  1  6  0  0  0
 15 13  1  1  0  0  0
  1 13  1  6  0  0  0
 25 26  1  0  0  0  0
  9 25  1  6  0  0  0
  3 27  1  6  0  0  0
  2 28  1  6  0  0  0
M  END
>  <cdx:fragmentId>
97800

$$$$
