893.cdx
  Mrv1902 05222410192D          

 12 12  0  0  0  0            999 V2000
    8.2316   -5.5352    0.0000 C   0  0  2  0  0  0  0  0  0  0  0  0
    7.5171   -5.9477    0.0000 C   0  0  2  0  0  0  0  0  0  0  0  0
    6.8027   -5.5352    0.0000 C   0  0  1  0  0  0  0  0  0  0  0  0
    6.8027   -4.7102    0.0000 C   0  0  2  0  0  0  0  0  0  0  0  0
    7.5171   -4.2977    0.0000 C   0  0  1  0  0  0  0  0  0  0  0  0
    8.2316   -4.7102    0.0000 C   0  0  2  0  0  0  0  0  0  0  0  0
    8.9461   -5.9477    0.0000 O   0  0  0  0  0  0  0  0  0  0  0  0
    7.5171   -6.7727    0.0000 O   0  0  0  0  0  0  0  0  0  0  0  0
    6.0882   -5.9477    0.0000 O   0  0  0  0  0  0  0  0  0  0  0  0
    6.0882   -4.2977    0.0000 O   0  0  0  0  0  0  0  0  0  0  0  0
    7.5171   -3.4727    0.0000 O   0  0  0  0  0  0  0  0  0  0  0  0
    8.9461   -4.2977    0.0000 O   0  0  0  0  0  0  0  0  0  0  0  0
  1  2  1  0  0  0  0
  2  3  1  0  0  0  0
  3  4  1  0  0  0  0
  4  5  1  0  0  0  0
  5  6  1  0  0  0  0
  1  6  1  0  0  0  0
  1  7  1  6  0  0  0
  2  8  1  1  0  0  0
  3  9  1  6  0  0  0
  4 10  1  1  0  0  0
  5 11  1  6  0  0  0
  6 12  1  6  0  0  0
M  END
>  <cdx:fragmentId>
5

$$$$
