332.cdx
  Mrv1902 05222410252D          

 11 11  0  0  0  0            999 V2000
    7.9085   -4.5452    0.0000 C   0  0  0  0  0  0  0  0  0  0  0  0
    7.9085   -5.3702    0.0000 C   0  0  0  0  0  0  0  0  0  0  0  0
    7.1940   -5.7827    0.0000 C   0  0  0  0  0  0  0  0  0  0  0  0
    6.4795   -5.3702    0.0000 C   0  0  0  0  0  0  0  0  0  0  0  0
    6.4795   -4.5452    0.0000 C   0  0  0  0  0  0  0  0  0  0  0  0
    7.1940   -4.1327    0.0000 C   0  0  0  0  0  0  0  0  0  0  0  0
    8.6229   -4.1327    0.0000 O   0  0  0  0  0  0  0  0  0  0  0  0
    8.6229   -5.7827    0.0000 O   0  0  0  0  0  0  0  0  0  0  0  0
    9.3374   -5.3702    0.0000 C   0  0  0  0  0  0  0  0  0  0  0  0
    5.7651   -5.7827    0.0000 C   0  0  0  0  0  0  0  0  0  0  0  0
    5.0506   -5.3702    0.0000 C   0  0  0  0  0  0  0  0  0  0  0  0
  1  2  1  0  0  0  0
  2  3  2  0  0  0  0
  3  4  1  0  0  0  0
  4  5  2  0  0  0  0
  5  6  1  0  0  0  0
  1  6  2  0  0  0  0
  1  7  1  0  0  0  0
  8  9  1  0  0  0  0
  2  8  1  0  0  0  0
 10 11  2  0  0  0  0
  4 10  1  0  0  0  0
M  END
>  <cdx:groupId>
35

>  <cdx:fragmentId>
5

$$$$
