89359.cdx
  Mrv1902 05222410192D          

  9  9  0  0  0  0            999 V2000
    7.8260   -4.9989    0.0000 C   0  0  0  0  0  0  0  0  0  0  0  0
    7.8260   -5.8239    0.0000 C   0  0  0  0  0  0  0  0  0  0  0  0
    7.1115   -6.2364    0.0000 C   0  0  0  0  0  0  0  0  0  0  0  0
    6.3970   -5.8239    0.0000 C   0  0  0  0  0  0  0  0  0  0  0  0
    6.3970   -4.9989    0.0000 C   0  0  0  0  0  0  0  0  0  0  0  0
    7.1115   -4.5864    0.0000 C   0  0  0  0  0  0  0  0  0  0  0  0
    8.5404   -4.5864    0.0000 O   0  0  0  0  0  0  0  0  0  0  0  0
    7.1115   -7.0614    0.0000 O   0  0  0  0  0  0  0  0  0  0  0  0
    5.6826   -4.5864    0.0000 O   0  0  0  0  0  0  0  0  0  0  0  0
  1  2  1  0  0  0  0
  2  3  2  0  0  0  0
  3  4  1  0  0  0  0
  4  5  2  0  0  0  0
  5  6  1  0  0  0  0
  1  6  2  0  0  0  0
  1  7  1  0  0  0  0
  3  8  1  0  0  0  0
  5  9  1  0  0  0  0
M  END
>  <cdx:fragmentId>
5

$$$$
