89402.cdx
  Mrv1902 05222410192D          

 28 30  0  0  0  0            999 V2000
    7.0349   -7.8379    0.0000 C   0  0  0  0  0  0  0  0  0  0  0  0
    7.0538   -7.0131    0.0000 C   0  0  0  0  0  0  0  0  0  0  0  0
    6.2620   -6.7814    0.0000 C   0  0  0  0  0  0  0  0  0  0  0  0
    6.0667   -5.9799    0.0000 C   0  0  0  0  0  0  0  0  0  0  0  0
    6.6632   -5.4100    0.0000 C   0  0  0  0  0  0  0  0  0  0  0  0
    7.4550   -5.6416    0.0000 C   0  0  0  0  0  0  0  0  0  0  0  0
    7.6503   -6.4432    0.0000 C   0  0  0  0  0  0  0  0  0  0  0  0
    8.4751   -6.4620    0.0000 C   0  0  0  0  0  0  0  0  0  0  0  0
    9.0450   -7.0585    0.0000 C   0  0  1  0  0  0  0  0  0  0  0  0
    9.0261   -7.8833    0.0000 C   0  0  1  0  0  0  0  0  0  0  0  0
    8.4296   -8.4532    0.0000 C   0  0  0  0  0  0  0  0  0  0  0  0
    7.6048   -8.4344    0.0000 C   0  0  0  0  0  0  0  0  0  0  0  0
    7.3732   -9.2262    0.0000 C   0  0  0  0  0  0  0  0  0  0  0  0
    6.5716   -9.4215    0.0000 C   0  0  0  0  0  0  0  0  0  0  0  0
    6.0017   -8.8249    0.0000 C   0  0  0  0  0  0  0  0  0  0  0  0
    6.2334   -8.0331    0.0000 C   0  0  0  0  0  0  0  0  0  0  0  0
    5.5755   -7.2391    0.0000 O   0  0  0  0  0  0  0  0  0  0  0  0
    6.3400  -10.2133    0.0000 O   0  0  0  0  0  0  0  0  0  0  0  0
    9.7809   -8.2163    0.0000 C   0  0  0  0  0  0  0  0  0  0  0  0
    9.8142   -6.7603    0.0000 C   0  0  0  0  0  0  0  0  0  0  0  0
    5.4938   -7.6675    0.0000 O   0  0  0  0  0  0  0  0  0  0  0  0
    4.8074   -8.1252    0.0000 C   0  0  0  0  0  0  0  0  0  0  0  0
    5.2002   -9.0202    0.0000 O   0  0  0  0  0  0  0  0  0  0  0  0
    4.9685   -9.8120    0.0000 C   0  0  0  0  0  0  0  0  0  0  0  0
    6.4679   -4.6084    0.0000 O   0  0  0  0  0  0  0  0  0  0  0  0
    7.0644   -4.0385    0.0000 C   0  0  0  0  0  0  0  0  0  0  0  0
    5.2749   -5.7482    0.0000 O   0  0  0  0  0  0  0  0  0  0  0  0
    4.6783   -6.3181    0.0000 C   0  0  0  0  0  0  0  0  0  0  0  0
  1  2  1  0  0  0  0
  2  3  2  0  0  0  0
  3  4  1  0  0  0  0
  4  5  2  0  0  0  0
  5  6  1  0  0  0  0
  6  7  2  0  0  0  0
  7  8  1  0  0  0  0
  8  9  1  0  0  0  0
  9 10  1  0  0  0  0
 10 11  1  0  0  0  0
 11 12  1  0  0  0  0
 12 13  2  0  0  0  0
 13 14  1  0  0  0  0
 14 15  2  0  0  0  0
 15 16  1  0  0  0  0
  1 16  2  0  0  0  0
  1 12  1  0  0  0  0
  2  7  1  0  0  0  0
  3 17  1  0  0  0  0
 14 18  1  0  0  0  0
 10 19  1  6  0  0  0
  9 20  1  6  0  0  0
 21 22  1  0  0  0  0
 16 21  1  0  0  0  0
 23 24  1  0  0  0  0
 15 23  1  0  0  0  0
 25 26  1  0  0  0  0
  5 25  1  0  0  0  0
 27 28  1  0  0  0  0
  4 27  1  0  0  0  0
M  END
>  <cdx:fragmentId>
118960

$$$$
