9894522.cdx
  Mrv1902 05222410272D          

 43 48  0  0  0  0            999 V2000
    9.1792  -11.2772    0.0000 C   0  0  0  0  0  0  0  0  0  0  0  0
    9.1792  -10.4522    0.0000 C   0  0  0  0  0  0  0  0  0  0  0  0
    8.4647  -10.0397    0.0000 C   0  0  0  0  0  0  0  0  0  0  0  0
    7.7502  -10.4522    0.0000 C   0  0  0  0  0  0  0  0  0  0  0  0
    7.0357  -10.0397    0.0000 C   0  0  0  0  0  0  0  0  0  0  0  0
    6.3213  -10.4522    0.0000 C   0  0  0  0  0  0  0  0  0  0  0  0
    6.3213  -11.2772    0.0000 C   0  0  0  0  0  0  0  0  0  0  0  0
    7.0357  -11.6897    0.0000 C   0  0  0  0  0  0  0  0  0  0  0  0
    7.7502  -11.2772    0.0000 C   0  0  0  0  0  0  0  0  0  0  0  0
    8.4647  -11.6897    0.0000 O   0  0  0  0  0  0  0  0  0  0  0  0
    8.4647   -9.2147    0.0000 O   0  0  0  0  0  0  0  0  0  0  0  0
    9.8936  -11.6897    0.0000 C   0  0  0  0  0  0  0  0  0  0  0  0
   10.6081  -11.2772    0.0000 C   0  0  0  0  0  0  0  0  0  0  0  0
   11.3226  -11.6897    0.0000 C   0  0  0  0  0  0  0  0  0  0  0  0
   11.3226  -12.5147    0.0000 C   0  0  0  0  0  0  0  0  0  0  0  0
   10.6081  -12.9272    0.0000 C   0  0  0  0  0  0  0  0  0  0  0  0
    9.8936  -12.5147    0.0000 C   0  0  0  0  0  0  0  0  0  0  0  0
   12.0370  -12.9272    0.0000 O   0  0  0  0  0  0  0  0  0  0  0  0
   12.7515  -12.5147    0.0000 C   0  0  0  0  0  0  0  0  0  0  0  0
    5.6068  -11.6897    0.0000 O   0  0  0  0  0  0  0  0  0  0  0  0
    4.8923  -11.2772    0.0000 C   0  0  0  0  0  0  0  0  0  0  0  0
    7.0357   -9.2147    0.0000 O   0  0  0  0  0  0  0  0  0  0  0  0
    7.0357  -12.5147    0.0000 C   0  0  0  0  0  0  0  0  0  0  0  0
    7.7502  -12.9272    0.0000 C   0  0  0  0  0  0  0  0  0  0  0  0
    7.7502  -13.7522    0.0000 C   0  0  0  0  0  0  0  0  0  0  0  0
    7.0357  -14.1647    0.0000 C   0  0  0  0  0  0  0  0  0  0  0  0
    6.3213  -13.7522    0.0000 C   0  0  0  0  0  0  0  0  0  0  0  0
    6.3213  -12.9272    0.0000 C   0  0  0  0  0  0  0  0  0  0  0  0
    8.4647  -12.5147    0.0000 O   0  0  0  0  0  0  0  0  0  0  0  0
    9.1792  -12.9272    0.0000 C   0  0  0  0  0  0  0  0  0  0  0  0
    5.6068  -14.1647    0.0000 C   0  0  0  0  0  0  0  0  0  0  0  0
    5.6068  -14.9897    0.0000 C   0  0  0  0  0  0  0  0  0  0  0  0
    4.8923  -15.4022    0.0000 C   0  0  0  0  0  0  0  0  0  0  0  0
    4.1779  -14.9897    0.0000 C   0  0  0  0  0  0  0  0  0  0  0  0
    3.4634  -15.4022    0.0000 C   0  0  0  0  0  0  0  0  0  0  0  0
    2.7489  -14.9897    0.0000 C   0  0  0  0  0  0  0  0  0  0  0  0
    2.7489  -14.1647    0.0000 C   0  0  0  0  0  0  0  0  0  0  0  0
    3.4634  -13.7522    0.0000 C   0  0  0  0  0  0  0  0  0  0  0  0
    4.1779  -14.1647    0.0000 C   0  0  0  0  0  0  0  0  0  0  0  0
    4.8923  -13.7522    0.0000 O   0  0  0  0  0  0  0  0  0  0  0  0
    4.8923  -16.2272    0.0000 O   0  0  0  0  0  0  0  0  0  0  0  0
    2.0345  -13.7522    0.0000 O   0  0  0  0  0  0  0  0  0  0  0  0
    3.4634  -16.2272    0.0000 O   0  0  0  0  0  0  0  0  0  0  0  0
  1  2  2  0  0  0  0
  2  3  1  0  0  0  0
  3  4  1  0  0  0  0
  4  5  1  0  0  0  0
  5  6  2  0  0  0  0
  6  7  1  0  0  0  0
  7  8  2  0  0  0  0
  8  9  1  0  0  0  0
  4  9  2  0  0  0  0
  9 10  1  0  0  0  0
  1 10  1  0  0  0  0
  3 11  2  0  0  0  0
 12 13  1  0  0  0  0
 13 14  2  0  0  0  0
 14 15  1  0  0  0  0
 15 16  2  0  0  0  0
 16 17  1  0  0  0  0
 12 17  2  0  0  0  0
 18 19  1  0  0  0  0
 15 18  1  0  0  0  0
  1 12  1  0  0  0  0
 20 21  1  0  0  0  0
  7 20  1  0  0  0  0
  5 22  1  0  0  0  0
 23 24  1  0  0  0  0
 24 25  2  0  0  0  0
 25 26  1  0  0  0  0
 26 27  2  0  0  0  0
 27 28  1  0  0  0  0
 23 28  2  0  0  0  0
 29 30  1  0  0  0  0
 24 29  1  0  0  0  0
 31 32  2  0  0  0  0
 32 33  1  0  0  0  0
 33 34  1  0  0  0  0
 34 35  1  0  0  0  0
 35 36  2  0  0  0  0
 36 37  1  0  0  0  0
 37 38  2  0  0  0  0
 38 39  1  0  0  0  0
 34 39  2  0  0  0  0
 39 40  1  0  0  0  0
 31 40  1  0  0  0  0
 33 41  2  0  0  0  0
 37 42  1  0  0  0  0
 35 43  1  0  0  0  0
 27 31  1  0  0  0  0
  8 23  1  0  0  0  0
M  END
>  <cdx:groupId>
31535

>  <cdx:fragmentId>
31404

$$$$
