894670.cdx
  Mrv1902 05222410192D          

 51 56  0  0  0  0            999 V2000
    7.4680   -6.8727    0.0000 C   0  0  0  0  0  0  0  0  0  0  0  0
    6.7535   -7.2852    0.0000 C   0  0  0  0  0  0  0  0  0  0  0  0
    7.4680   -6.0477    0.0000 O   0  0  0  0  0  0  0  0  0  0  0  0
    8.1825   -7.2852    0.0000 O   0  0  0  0  0  0  0  0  0  0  0  0
    7.4680   -9.3477    0.0000 C   0  0  2  0  0  0  0  0  0  0  0  0
    6.7535   -8.9352    0.0000 C   0  0  0  0  0  0  0  0  0  0  0  0
    6.7535   -9.7602    0.0000 C   0  0  1  0  0  0  0  0  0  0  0  0
    6.0390   -9.3477    0.0000 C   0  0  0  0  0  0  0  0  0  0  0  0
    5.3246   -9.7602    0.0000 C   0  0  0  0  0  0  0  0  0  0  0  0
    5.3246  -10.5852    0.0000 C   0  0  1  0  0  0  0  0  0  0  0  0
    6.0390  -10.9977    0.0000 C   0  0  0  0  0  0  0  0  0  0  0  0
    6.7535  -10.5852    0.0000 C   0  0  2  0  0  0  0  0  0  0  0  0
    7.4680  -10.9977    0.0000 C   0  0  0  0  0  0  0  0  0  0  0  0
    8.1825  -10.5852    0.0000 C   0  0  0  0  0  0  0  0  0  0  0  0
    8.1825   -9.7602    0.0000 C   0  0  0  0  0  0  0  0  0  0  0  0
    8.8969   -9.3477    0.0000 C   0  0  2  0  0  0  0  0  0  0  0  0
    9.6815   -9.6026    0.0000 C   0  0  2  0  0  0  0  0  0  0  0  0
   10.1665   -8.9352    0.0000 C   0  0  0  0  0  0  0  0  0  0  0  0
    9.6815   -8.2677    0.0000 C   0  0  1  0  0  0  0  0  0  0  0  0
    8.8969   -8.5227    0.0000 C   0  0  1  0  0  0  0  0  0  0  0  0
    8.1825   -8.1102    0.0000 C   0  0  1  0  0  0  0  0  0  0  0  0
    7.4680   -8.5227    0.0000 C   0  0  0  0  0  0  0  0  0  0  0  0
    4.6101  -10.9977    0.0000 O   0  0  0  0  0  0  0  0  0  0  0  0
    3.8956   -9.7602    0.0000 O   0  0  0  0  0  0  0  0  0  0  0  0
    3.8956  -10.5852    0.0000 C   0  0  2  0  0  0  0  0  0  0  0  0
    3.1812  -10.9977    0.0000 C   0  0  1  0  0  0  0  0  0  0  0  0
    2.4667  -10.5852    0.0000 C   0  0  2  0  0  0  0  0  0  0  0  0
    2.4667   -9.7602    0.0000 C   0  0  2  0  0  0  0  0  0  0  0  0
    3.1812   -9.3477    0.0000 C   0  0  0  0  0  0  0  0  0  0  0  0
    1.7522   -9.3477    0.0000 O   0  0  0  0  0  0  0  0  0  0  0  0
    1.7522  -10.9977    0.0000 O   0  0  0  0  0  0  0  0  0  0  0  0
    3.1812  -11.8227    0.0000 O   0  0  0  0  0  0  0  0  0  0  0  0
   10.9915   -8.9352    0.0000 O   0  0  0  0  0  0  0  0  0  0  0  0
    8.8969   -7.6977    0.0000 C   0  0  0  0  0  0  0  0  0  0  0  0
    8.8969  -10.1727    0.0000 C   0  0  0  0  0  0  0  0  0  0  0  0
    6.4515  -11.7121    0.0000 C   0  0  0  0  0  0  0  0  0  0  0  0
    5.6265  -11.7121    0.0000 C   0  0  0  0  0  0  0  0  0  0  0  0
    9.9365  -10.3872    0.0000 O   0  0  0  0  0  0  0  0  0  0  0  0
    9.3844   -6.8700    0.0000 C   0  0  0  0  0  0  0  0  0  0  0  0
    9.9365   -7.4831    0.0000 C   0  0  2  0  0  0  0  0  0  0  0  0
   10.7435   -7.3116    0.0000 C   0  0  0  0  0  0  0  0  0  0  0  0
   10.9984   -6.5270    0.0000 C   0  0  0  0  0  0  0  0  0  0  0  0
   11.8054   -6.3554    0.0000 C   0  0  1  0  0  0  0  0  0  0  0  0
   12.0603   -5.5708    0.0000 C   0  0  0  0  0  0  0  0  0  0  0  0
   11.2634   -5.3573    0.0000 C   0  0  0  0  0  0  0  0  0  0  0  0
   10.4464   -5.9139    0.0000 O   0  0  0  0  0  0  0  0  0  0  0  0
   12.8572   -5.7843    0.0000 C   0  0  0  0  0  0  0  0  0  0  0  0
   12.3152   -4.7862    0.0000 O   0  0  0  0  0  0  0  0  0  0  0  0
   12.3574   -6.9685    0.0000 O   0  0  0  0  0  0  0  0  0  0  0  0
    6.7535  -11.4102    0.0000 H   0  0  0  0  0  0  0  0  0  0  0  0
   10.4662   -8.0128    0.0000 H   0  0  0  0  0  0  0  0  0  0  0  0
  1  2  1  0  0  0  0
  1  3  2  0  0  0  0
  1  4  1  0  0  0  0
  5  6  1  1  0  0  0
  7  6  1  1  0  0  0
  7  8  1  0  0  0  0
  8  9  1  0  0  0  0
  9 10  1  0  0  0  0
 10 11  1  0  0  0  0
 11 12  1  0  0  0  0
 12 13  1  0  0  0  0
 13 14  1  0  0  0  0
 14 15  2  0  0  0  0
 15 16  1  0  0  0  0
 16 17  1  0  0  0  0
 17 18  1  0  0  0  0
 19 18  1  0  0  0  0
 19 20  1  0  0  0  0
 20 21  1  0  0  0  0
 21 22  1  0  0  0  0
  5 22  1  0  0  0  0
  5 15  1  0  0  0  0
 16 20  1  0  0  0  0
  7 12  1  0  0  0  0
  5  7  1  0  0  0  0
 24 25  1  0  0  0  0
 25 26  1  0  0  0  0
 26 27  1  0  0  0  0
 27 28  1  0  0  0  0
 28 29  1  0  0  0  0
 24 29  1  0  0  0  0
 28 30  1  1  0  0  0
 27 31  1  1  0  0  0
 26 32  1  6  0  0  0
 25 23  1  1  0  0  0
 10 23  1  1  0  0  0
 18 33  2  0  0  0  0
 20 34  1  1  0  0  0
 16 35  1  6  0  0  0
 11 36  1  0  0  0  0
 11 37  1  0  0  0  0
 17 38  1  6  0  0  0
 40 39  1  6  0  0  0
 40 41  1  0  0  0  0
 41 42  1  0  0  0  0
 42 43  1  0  0  0  0
 43 44  1  0  0  0  0
 44 45  1  0  0  0  0
 42 46  2  0  0  0  0
 44 47  1  0  0  0  0
 44 48  1  0  0  0  0
 43 49  1  1  0  0  0
 19 40  1  0  0  0  0
 21  4  1  1  0  0  0
 12 50  1  6  0  0  0
 19 51  1  6  0  0  0
M  END
>  <cdx:fragmentId>
116853

$$$$
