894671.cdx
  Mrv1902 05222410182D          

 50 56  0  0  0  0            999 V2000
    7.6027   -6.8713    0.0000 C   0  0  0  0  0  0  0  0  0  0  0  0
    6.8882   -7.2838    0.0000 C   0  0  0  0  0  0  0  0  0  0  0  0
    7.6027   -6.0463    0.0000 O   0  0  0  0  0  0  0  0  0  0  0  0
    8.3171   -7.2838    0.0000 O   0  0  0  0  0  0  0  0  0  0  0  0
    7.6027   -9.3463    0.0000 C   0  0  2  0  0  0  0  0  0  0  0  0
    6.8882   -8.9338    0.0000 C   0  0  0  0  0  0  0  0  0  0  0  0
    6.8882   -9.7588    0.0000 C   0  0  1  0  0  0  0  0  0  0  0  0
    6.1737   -9.3463    0.0000 C   0  0  0  0  0  0  0  0  0  0  0  0
    5.4593   -9.7588    0.0000 C   0  0  0  0  0  0  0  0  0  0  0  0
    5.4593  -10.5838    0.0000 C   0  0  1  0  0  0  0  0  0  0  0  0
    6.1737  -10.9963    0.0000 C   0  0  0  0  0  0  0  0  0  0  0  0
    6.8882  -10.5838    0.0000 C   0  0  2  0  0  0  0  0  0  0  0  0
    7.6027  -10.9963    0.0000 C   0  0  0  0  0  0  0  0  0  0  0  0
    8.3171  -10.5838    0.0000 C   0  0  0  0  0  0  0  0  0  0  0  0
    8.3171   -9.7588    0.0000 C   0  0  0  0  0  0  0  0  0  0  0  0
    9.0316   -9.3463    0.0000 C   0  0  2  0  0  0  0  0  0  0  0  0
    9.8162   -9.6012    0.0000 C   0  0  2  0  0  0  0  0  0  0  0  0
   10.3012   -8.9338    0.0000 C   0  0  0  0  0  0  0  0  0  0  0  0
    9.8162   -8.2664    0.0000 C   0  0  1  0  0  0  0  0  0  0  0  0
    9.0316   -8.5213    0.0000 C   0  0  1  0  0  0  0  0  0  0  0  0
    8.3171   -8.1088    0.0000 C   0  0  1  0  0  0  0  0  0  0  0  0
    7.6027   -8.5213    0.0000 C   0  0  0  0  0  0  0  0  0  0  0  0
    4.7448  -10.9963    0.0000 O   0  0  0  0  0  0  0  0  0  0  0  0
    4.0303   -9.7588    0.0000 O   0  0  0  0  0  0  0  0  0  0  0  0
    4.0303  -10.5838    0.0000 C   0  0  2  0  0  0  0  0  0  0  0  0
    3.3158  -10.9963    0.0000 C   0  0  1  0  0  0  0  0  0  0  0  0
    2.6014  -10.5838    0.0000 C   0  0  2  0  0  0  0  0  0  0  0  0
    2.6014   -9.7588    0.0000 C   0  0  2  0  0  0  0  0  0  0  0  0
    3.3158   -9.3463    0.0000 C   0  0  0  0  0  0  0  0  0  0  0  0
    1.8869   -9.3463    0.0000 O   0  0  0  0  0  0  0  0  0  0  0  0
    1.8869  -10.9963    0.0000 O   0  0  0  0  0  0  0  0  0  0  0  0
    3.3158  -11.8213    0.0000 O   0  0  0  0  0  0  0  0  0  0  0  0
   11.1262   -8.9338    0.0000 O   0  0  0  0  0  0  0  0  0  0  0  0
    9.0316   -7.6963    0.0000 C   0  0  0  0  0  0  0  0  0  0  0  0
    9.0316  -10.1713    0.0000 C   0  0  0  0  0  0  0  0  0  0  0  0
    6.5862  -11.7108    0.0000 C   0  0  0  0  0  0  0  0  0  0  0  0
    5.7612  -11.7108    0.0000 C   0  0  0  0  0  0  0  0  0  0  0  0
   10.0712  -10.3859    0.0000 O   0  0  0  0  0  0  0  0  0  0  0  0
    9.5191   -6.8686    0.0000 C   0  0  0  0  0  0  0  0  0  0  0  0
   10.0712   -7.4817    0.0000 C   0  0  2  0  0  0  0  0  0  0  0  0
   10.8781   -7.3102    0.0000 C   0  0  0  0  0  0  0  0  0  0  0  0
   11.1331   -6.5256    0.0000 C   0  0  0  0  0  0  0  0  0  0  0  0
   10.5811   -5.9125    0.0000 O   0  0  0  0  0  0  0  0  0  0  0  0
   12.7247   -6.6090    0.0000 O   0  0  0  0  0  0  0  0  0  0  0  0
   11.9401   -6.3541    0.0000 C   0  0  2  0  0  0  0  0  0  0  0  0
   12.5531   -5.8020    0.0000 C   0  0  0  0  0  0  0  0  0  0  0  0
   12.3816   -4.9951    0.0000 C   0  0  0  0  0  0  0  0  0  0  0  0
   13.1662   -5.2500    0.0000 C   0  0  0  0  0  0  0  0  0  0  0  0
    6.8882  -11.4088    0.0000 H   0  0  0  0  0  0  0  0  0  0  0  0
   10.6009   -8.0114    0.0000 H   0  0  0  0  0  0  0  0  0  0  0  0
  1  2  1  0  0  0  0
  1  3  2  0  0  0  0
  1  4  1  0  0  0  0
  5  6  1  1  0  0  0
  7  6  1  1  0  0  0
  7  8  1  0  0  0  0
  8  9  1  0  0  0  0
  9 10  1  0  0  0  0
 10 11  1  0  0  0  0
 11 12  1  0  0  0  0
 12 13  1  0  0  0  0
 13 14  1  0  0  0  0
 14 15  2  0  0  0  0
 15 16  1  0  0  0  0
 16 17  1  0  0  0  0
 17 18  1  0  0  0  0
 19 18  1  0  0  0  0
 19 20  1  0  0  0  0
 20 21  1  0  0  0  0
 21 22  1  0  0  0  0
  5 22  1  0  0  0  0
  5 15  1  0  0  0  0
 16 20  1  0  0  0  0
  7 12  1  0  0  0  0
  5  7  1  0  0  0  0
 24 25  1  0  0  0  0
 25 26  1  0  0  0  0
 26 27  1  0  0  0  0
 27 28  1  0  0  0  0
 28 29  1  0  0  0  0
 24 29  1  0  0  0  0
 28 30  1  1  0  0  0
 27 31  1  1  0  0  0
 26 32  1  6  0  0  0
 25 23  1  1  0  0  0
 10 23  1  1  0  0  0
 18 33  2  0  0  0  0
 20 34  1  1  0  0  0
 16 35  1  6  0  0  0
 11 36  1  0  0  0  0
 11 37  1  0  0  0  0
 17 38  1  6  0  0  0
 40 39  1  6  0  0  0
 40 41  1  0  0  0  0
 41 42  1  0  0  0  0
 42 43  2  0  0  0  0
 44 45  1  0  0  0  0
 45 46  1  0  0  0  0
 44 46  1  0  0  0  0
 46 47  1  0  0  0  0
 46 48  1  0  0  0  0
 45 42  1  1  0  0  0
 19 40  1  0  0  0  0
 21  4  1  1  0  0  0
 12 49  1  6  0  0  0
 19 50  1  6  0  0  0
M  END
>  <cdx:fragmentId>
117017

$$$$
