894672.cdx
  Mrv1902 05222410182D          

 49 55  0  0  0  0            999 V2000
    7.5752   -6.0463    0.0000 C   0  0  0  0  0  0  0  0  0  0  0  0
    6.8607   -6.4588    0.0000 C   0  0  0  0  0  0  0  0  0  0  0  0
    7.5752   -5.2213    0.0000 O   0  0  0  0  0  0  0  0  0  0  0  0
    8.2896   -6.4588    0.0000 O   0  0  0  0  0  0  0  0  0  0  0  0
    7.5752   -8.5213    0.0000 C   0  0  2  0  0  0  0  0  0  0  0  0
    6.8607   -8.1088    0.0000 C   0  0  0  0  0  0  0  0  0  0  0  0
    6.8607   -8.9338    0.0000 C   0  0  1  0  0  0  0  0  0  0  0  0
    6.1462   -8.5213    0.0000 C   0  0  0  0  0  0  0  0  0  0  0  0
    5.4318   -8.9338    0.0000 C   0  0  0  0  0  0  0  0  0  0  0  0
    5.4318   -9.7588    0.0000 C   0  0  1  0  0  0  0  0  0  0  0  0
    6.1462  -10.1713    0.0000 C   0  0  0  0  0  0  0  0  0  0  0  0
    6.8607   -9.7588    0.0000 C   0  0  2  0  0  0  0  0  0  0  0  0
    7.5752  -10.1713    0.0000 C   0  0  0  0  0  0  0  0  0  0  0  0
    8.2896   -9.7588    0.0000 C   0  0  0  0  0  0  0  0  0  0  0  0
    8.2896   -8.9338    0.0000 C   0  0  0  0  0  0  0  0  0  0  0  0
    9.0041   -8.5213    0.0000 C   0  0  2  0  0  0  0  0  0  0  0  0
    9.7887   -8.7762    0.0000 C   0  0  0  0  0  0  0  0  0  0  0  0
   10.2737   -8.1088    0.0000 C   0  0  0  0  0  0  0  0  0  0  0  0
    9.7887   -7.4414    0.0000 C   0  0  1  0  0  0  0  0  0  0  0  0
    9.0041   -7.6963    0.0000 C   0  0  1  0  0  0  0  0  0  0  0  0
    8.2896   -7.2838    0.0000 C   0  0  1  0  0  0  0  0  0  0  0  0
    7.5752   -7.6963    0.0000 C   0  0  0  0  0  0  0  0  0  0  0  0
    4.7173  -10.1713    0.0000 O   0  0  0  0  0  0  0  0  0  0  0  0
    4.0028   -8.9338    0.0000 O   0  0  0  0  0  0  0  0  0  0  0  0
    4.0028   -9.7588    0.0000 C   0  0  2  0  0  0  0  0  0  0  0  0
    3.2883  -10.1713    0.0000 C   0  0  1  0  0  0  0  0  0  0  0  0
    2.5739   -9.7588    0.0000 C   0  0  2  0  0  0  0  0  0  0  0  0
    2.5739   -8.9338    0.0000 C   0  0  2  0  0  0  0  0  0  0  0  0
    3.2883   -8.5213    0.0000 C   0  0  0  0  0  0  0  0  0  0  0  0
    1.8594   -8.5213    0.0000 O   0  0  0  0  0  0  0  0  0  0  0  0
    1.8594  -10.1713    0.0000 O   0  0  0  0  0  0  0  0  0  0  0  0
    3.2883  -10.9963    0.0000 O   0  0  0  0  0  0  0  0  0  0  0  0
   11.0987   -8.1088    0.0000 O   0  0  0  0  0  0  0  0  0  0  0  0
    9.0041   -6.8713    0.0000 C   0  0  0  0  0  0  0  0  0  0  0  0
    9.0041   -9.3463    0.0000 C   0  0  0  0  0  0  0  0  0  0  0  0
    6.5587  -10.8858    0.0000 C   0  0  0  0  0  0  0  0  0  0  0  0
    5.7337  -10.8858    0.0000 C   0  0  0  0  0  0  0  0  0  0  0  0
    9.4916   -6.0436    0.0000 C   0  0  0  0  0  0  0  0  0  0  0  0
   10.0437   -6.6567    0.0000 C   0  0  2  0  0  0  0  0  0  0  0  0
   10.8506   -6.4852    0.0000 C   0  0  0  0  0  0  0  0  0  0  0  0
   11.1056   -5.7006    0.0000 C   0  0  0  0  0  0  0  0  0  0  0  0
   10.5536   -5.0875    0.0000 O   0  0  0  0  0  0  0  0  0  0  0  0
   12.6972   -5.7840    0.0000 O   0  0  0  0  0  0  0  0  0  0  0  0
   11.9126   -5.5291    0.0000 C   0  0  2  0  0  0  0  0  0  0  0  0
   12.5256   -4.9770    0.0000 C   0  0  0  0  0  0  0  0  0  0  0  0
   12.3541   -4.1701    0.0000 C   0  0  0  0  0  0  0  0  0  0  0  0
   13.1387   -4.4250    0.0000 C   0  0  0  0  0  0  0  0  0  0  0  0
    6.8607  -10.5838    0.0000 H   0  0  0  0  0  0  0  0  0  0  0  0
   10.5734   -7.1864    0.0000 H   0  0  0  0  0  0  0  0  0  0  0  0
  1  2  1  0  0  0  0
  1  3  2  0  0  0  0
  1  4  1  0  0  0  0
  5  6  1  1  0  0  0
  7  6  1  1  0  0  0
  7  8  1  0  0  0  0
  8  9  1  0  0  0  0
  9 10  1  0  0  0  0
 10 11  1  0  0  0  0
 11 12  1  0  0  0  0
 12 13  1  0  0  0  0
 13 14  1  0  0  0  0
 14 15  2  0  0  0  0
 15 16  1  0  0  0  0
 16 17  1  0  0  0  0
 17 18  1  0  0  0  0
 19 18  1  0  0  0  0
 19 20  1  0  0  0  0
 20 21  1  0  0  0  0
 21 22  1  0  0  0  0
  5 22  1  0  0  0  0
  5 15  1  0  0  0  0
 16 20  1  0  0  0  0
  7 12  1  0  0  0  0
  5  7  1  0  0  0  0
 24 25  1  0  0  0  0
 25 26  1  0  0  0  0
 26 27  1  0  0  0  0
 27 28  1  0  0  0  0
 28 29  1  0  0  0  0
 24 29  1  0  0  0  0
 28 30  1  1  0  0  0
 27 31  1  1  0  0  0
 26 32  1  6  0  0  0
 25 23  1  1  0  0  0
 10 23  1  1  0  0  0
 18 33  2  0  0  0  0
 20 34  1  1  0  0  0
 16 35  1  6  0  0  0
 11 36  1  0  0  0  0
 11 37  1  0  0  0  0
 39 38  1  6  0  0  0
 39 40  1  0  0  0  0
 40 41  1  0  0  0  0
 41 42  2  0  0  0  0
 43 44  1  0  0  0  0
 44 45  1  0  0  0  0
 43 45  1  0  0  0  0
 45 46  1  0  0  0  0
 45 47  1  0  0  0  0
 44 41  1  1  0  0  0
 19 39  1  0  0  0  0
 21  4  1  1  0  0  0
 12 48  1  6  0  0  0
 19 49  1  6  0  0  0
M  END
>  <cdx:fragmentId>
117182

$$$$
