8948.cdx
  Mrv1902 05222410252D          

 20 19  0  0  0  0            999 V2000
    5.2855   -5.1703    0.0000 C   0  0  0  0  0  0  0  0  0  0  0  0
    6.0000   -4.7578    0.0000 C   0  0  0  0  0  0  0  0  0  0  0  0
    6.7144   -5.1703    0.0000 C   0  0  0  0  0  0  0  0  0  0  0  0
    7.4289   -4.7578    0.0000 C   0  0  0  0  0  0  0  0  0  0  0  0
    8.1434   -5.1703    0.0000 C   0  0  0  0  0  0  0  0  0  0  0  0
    8.8579   -4.7578    0.0000 C   0  0  0  0  0  0  0  0  0  0  0  0
    9.5723   -5.1703    0.0000 C   0  0  0  0  0  0  0  0  0  0  0  0
    4.5710   -4.7578    0.0000 O   0  0  0  0  0  0  0  0  0  0  0  0
    5.2855   -5.9953    0.0000 O   0  0  0  0  0  0  0  0  0  0  0  0
    9.5723   -5.9953    0.0000 C   0  0  0  0  0  0  0  0  0  0  0  0
   10.2868   -6.4078    0.0000 C   0  0  0  0  0  0  0  0  0  0  0  0
   10.2868   -7.2328    0.0000 C   0  0  0  0  0  0  0  0  0  0  0  0
    9.5723   -7.6453    0.0000 C   0  0  0  0  0  0  0  0  0  0  0  0
    9.5723   -8.4703    0.0000 C   0  0  0  0  0  0  0  0  0  0  0  0
    8.8579   -8.8828    0.0000 C   0  0  0  0  0  0  0  0  0  0  0  0
    8.1434   -8.4703    0.0000 C   0  0  0  0  0  0  0  0  0  0  0  0
    7.4289   -8.8828    0.0000 C   0  0  0  0  0  0  0  0  0  0  0  0
    6.7144   -8.4703    0.0000 C   0  0  0  0  0  0  0  0  0  0  0  0
    6.0000   -8.8828    0.0000 C   0  0  0  0  0  0  0  0  0  0  0  0
    5.2855   -8.4703    0.0000 C   0  0  0  0  0  0  0  0  0  0  0  0
  1  2  1  0  0  0  0
  2  3  1  0  0  0  0
  3  4  1  0  0  0  0
  4  5  1  0  0  0  0
  5  6  1  0  0  0  0
  6  7  2  0  0  0  0
  1  8  1  0  0  0  0
  1  9  2  0  0  0  0
  7 10  1  0  0  0  0
 10 11  1  0  0  0  0
 11 12  2  0  0  0  0
 12 13  1  0  0  0  0
 13 14  1  0  0  0  0
 14 15  2  0  0  0  0
 15 16  1  0  0  0  0
 16 17  1  0  0  0  0
 17 18  1  0  0  0  0
 18 19  1  0  0  0  0
 19 20  1  0  0  0  0
M  END
>  <cdx:fragmentId>
11736

$$$$
