895349.cdx
  Mrv1902 05222410272D          

 32 35  0  0  0  0            999 V2000
    6.4812   -8.0960    0.0000 O   0  0  0  0  0  0  0  0  0  0  0  0
    5.7667   -8.5085    0.0000 C   0  0  2  0  0  0  0  0  0  0  0  0
    5.0522   -8.0960    0.0000 C   0  0  1  0  0  0  0  0  0  0  0  0
    5.0522   -7.2710    0.0000 C   0  0  2  0  0  0  0  0  0  0  0  0
    5.7667   -6.8585    0.0000 C   0  0  1  0  0  0  0  0  0  0  0  0
    6.4812   -7.2710    0.0000 C   0  0  1  0  0  0  0  0  0  0  0  0
    7.1956   -6.8585    0.0000 C   0  0  0  0  0  0  0  0  0  0  0  0
    7.9101   -7.2710    0.0000 O   0  0  0  0  0  0  0  0  0  0  0  0
    5.7667   -6.0335    0.0000 O   0  0  0  0  0  0  0  0  0  0  0  0
    4.3378   -6.8585    0.0000 O   0  0  0  0  0  0  0  0  0  0  0  0
    4.3378   -8.5085    0.0000 O   0  0  0  0  0  0  0  0  0  0  0  0
    5.7667  -11.8085    0.0000 O   0  0  0  0  0  0  0  0  0  0  0  0
    4.3378   -9.3335    0.0000 O   0  0  0  0  0  0  0  0  0  0  0  0
   10.7680   -8.0960    0.0000 O   0  0  0  0  0  0  0  0  0  0  0  0
    8.6246   -8.5085    0.0000 C   0  0  0  0  0  0  0  0  0  0  0  0
    9.3391   -8.0960    0.0000 C   0  0  0  0  0  0  0  0  0  0  0  0
   10.0535   -8.5085    0.0000 C   0  0  0  0  0  0  0  0  0  0  0  0
   10.0535   -9.3335    0.0000 C   0  0  0  0  0  0  0  0  0  0  0  0
    9.3391   -9.7460    0.0000 C   0  0  0  0  0  0  0  0  0  0  0  0
    8.6246   -9.3335    0.0000 C   0  0  0  0  0  0  0  0  0  0  0  0
    7.1956  -11.8085    0.0000 O   0  0  0  0  0  0  0  0  0  0  0  0
    7.1956   -9.3335    0.0000 O   0  0  0  0  0  0  0  0  0  0  0  0
    6.4812   -9.7460    0.0000 C   0  0  0  0  0  0  0  0  0  0  0  0
    5.7667   -9.3335    0.0000 C   0  0  0  0  0  0  0  0  0  0  0  0
    5.0522   -9.7460    0.0000 C   0  0  0  0  0  0  0  0  0  0  0  0
    5.0522  -10.5710    0.0000 C   0  0  0  0  0  0  0  0  0  0  0  0
    5.7667  -10.9835    0.0000 C   0  0  0  0  0  0  0  0  0  0  0  0
    6.4812  -10.5710    0.0000 C   0  0  0  0  0  0  0  0  0  0  0  0
    7.1956  -10.9835    0.0000 C   0  0  0  0  0  0  0  0  0  0  0  0
    7.9101  -10.5710    0.0000 C   0  0  0  0  0  0  0  0  0  0  0  0
    7.9101   -9.7460    0.0000 C   0  0  1  0  0  0  0  0  0  0  0  0
    6.4812   -8.9210    0.0000 H   0  0  0  0  0  0  0  0  0  0  0  0
 27 12  1  0  0  0  0
 25 13  1  0  0  0  0
 31 20  1  6  0  0  0
 17 14  1  0  0  0  0
 20 15  2  0  0  0  0
 16 15  1  0  0  0  0
 17 16  2  0  0  0  0
 18 17  1  0  0  0  0
 19 18  2  0  0  0  0
 20 19  1  0  0  0  0
  2 24  1  0  0  0  0
 29 21  2  0  0  0  0
 31 22  1  0  0  0  0
 23 22  1  0  0  0  0
 28 23  2  0  0  0  0
 24 23  1  0  0  0  0
 25 24  2  0  0  0  0
 26 25  1  0  0  0  0
 27 26  2  0  0  0  0
 28 27  1  0  0  0  0
 29 28  1  0  0  0  0
 30 29  1  0  0  0  0
 31 30  1  0  0  0  0
  1  2  1  0  0  0  0
  2  3  1  0  0  0  0
  3  4  1  0  0  0  0
  4  5  1  0  0  0  0
  5  6  1  0  0  0  0
  1  6  1  0  0  0  0
  7  8  1  0  0  0  0
  6  7  1  1  0  0  0
  5  9  1  6  0  0  0
  4 10  1  1  0  0  0
  3 11  1  6  0  0  0
  2 32  1  6  0  0  0
M  END
>  <cdx:fragmentId>
5

$$$$
