8955.cdx
  Mrv1902 05222410222D          

 26 29  0  0  0  0            999 V2000
    9.5433   -5.1019    0.0000 C   0  0  0  0  0  0  0  0  0  0  0  0
   10.3503   -4.9304    0.0000 C   0  0  0  0  0  0  0  0  0  0  0  0
    5.6459   -6.9665    0.0000 C   0  0  0  0  0  0  0  0  0  0  0  0
    4.9314   -7.3790    0.0000 C   0  0  0  0  0  0  0  0  0  0  0  0
    4.9314   -8.2040    0.0000 C   0  0  1  0  0  0  0  0  0  0  0  0
    5.6459   -8.6165    0.0000 C   0  0  0  0  0  0  0  0  0  0  0  0
    6.3604   -8.2040    0.0000 C   0  0  0  0  0  0  0  0  0  0  0  0
    7.0748   -8.6165    0.0000 C   0  0  0  0  0  0  0  0  0  0  0  0
    7.7893   -8.2040    0.0000 C   0  0  0  0  0  0  0  0  0  0  0  0
    7.7893   -7.3790    0.0000 C   0  0  1  0  0  0  0  0  0  0  0  0
    8.5038   -6.9665    0.0000 C   0  0  2  0  0  0  0  0  0  0  0  0
    9.2884   -7.2214    0.0000 C   0  0  0  0  0  0  0  0  0  0  0  0
    9.7733   -6.5540    0.0000 C   0  0  0  0  0  0  0  0  0  0  0  0
    9.2884   -5.8866    0.0000 C   0  0  1  0  0  0  0  0  0  0  0  0
    8.5038   -6.1415    0.0000 C   0  0  1  0  0  0  0  0  0  0  0  0
    7.7893   -5.7290    0.0000 C   0  0  0  0  0  0  0  0  0  0  0  0
    7.0748   -6.1415    0.0000 C   0  0  0  0  0  0  0  0  0  0  0  0
    7.0748   -6.9665    0.0000 C   0  0  2  0  0  0  0  0  0  0  0  0
    6.3604   -7.3790    0.0000 C   0  0  1  0  0  0  0  0  0  0  0  0
    8.5038   -5.3165    0.0000 C   0  0  0  0  0  0  0  0  0  0  0  0
    6.3604   -6.5540    0.0000 C   0  0  0  0  0  0  0  0  0  0  0  0
    4.2169   -8.6165    0.0000 O   0  0  0  0  0  0  0  0  0  0  0  0
    8.9913   -4.4888    0.0000 O   0  0  0  0  0  0  0  0  0  0  0  0
    7.7893   -6.5540    0.0000 H   0  0  0  0  0  0  0  0  0  0  0  0
    7.0748   -7.7915    0.0000 H   0  0  0  0  0  0  0  0  0  0  0  0
    8.5038   -7.7915    0.0000 H   0  0  0  0  0  0  0  0  0  0  0  0
  1  2  1  0  0  0  0
  3  4  1  0  0  0  0
  4  5  1  0  0  0  0
  5  6  1  0  0  0  0
  6  7  1  0  0  0  0
  7  8  2  0  0  0  0
  8  9  1  0  0  0  0
  9 10  1  0  0  0  0
 10 11  1  0  0  0  0
 11 12  1  0  0  0  0
 12 13  1  0  0  0  0
 13 14  1  0  0  0  0
 14 15  1  0  0  0  0
 11 15  1  0  0  0  0
 15 16  1  0  0  0  0
 16 17  1  0  0  0  0
 17 18  1  0  0  0  0
 10 18  1  0  0  0  0
 18 19  1  0  0  0  0
  7 19  1  0  0  0  0
  3 19  1  0  0  0  0
 15 20  1  1  0  0  0
 19 21  1  1  0  0  0
  5 22  1  1  0  0  0
 14  1  1  1  0  0  0
  1 23  2  0  0  0  0
 10 24  1  1  0  0  0
 18 25  1  6  0  0  0
 11 26  1  6  0  0  0
M  END
>  <cdx:fragmentId>
9

$$$$
