89560.cdx
  Mrv1902 05222410202D          

 10  9  0  0  0  0            999 V2000
    5.3663   -6.6960    0.0000 O   0  0  0  0  0  0  0  0  0  0  0  0
    9.6531   -7.5210    0.0000 C   0  0  0  0  0  0  0  0  0  0  0  0
    8.9387   -7.9335    0.0000 C   0  0  0  0  0  0  0  0  0  0  0  0
    8.2242   -7.5210    0.0000 C   0  0  0  0  0  0  0  0  0  0  0  0
    7.5097   -7.9335    0.0000 C   0  0  0  0  0  0  0  0  0  0  0  0
    6.7952   -7.5210    0.0000 C   0  0  0  0  0  0  0  0  0  0  0  0
    6.0808   -7.9335    0.0000 C   0  0  0  0  0  0  0  0  0  0  0  0
    5.3663   -7.5210    0.0000 C   0  0  0  0  0  0  0  0  0  0  0  0
    4.6518   -7.9335    0.0000 C   0  0  0  0  0  0  0  0  0  0  0  0
    3.9374   -7.5210    0.0000 C   0  0  0  0  0  0  0  0  0  0  0  0
  8  1  1  0  0  0  0
  3  2  1  0  0  0  0
  4  3  1  0  0  0  0
  5  4  1  0  0  0  0
  6  5  1  0  0  0  0
  7  6  1  0  0  0  0
  8  7  1  0  0  0  0
  9  8  1  0  0  0  0
 10  9  2  0  0  0  0
M  END
>  <cdx:fragmentId>
5

$$$$
