896.cdx
  Mrv1902 05222410192D          

 17 18  0  0  0  0            999 V2000
    8.2774   -2.3756    0.0000 C   0  0  0  0  0  0  0  0  0  0  0  0
    8.8294   -2.9887    0.0000 C   0  0  0  0  0  0  0  0  0  0  0  0
    8.5323   -1.5910    0.0000 O   0  0  0  0  0  0  0  0  0  0  0  0
    7.4704   -2.5471    0.0000 N   0  0  0  0  0  0  0  0  0  0  0  0
    7.2154   -3.3317    0.0000 C   0  0  0  0  0  0  0  0  0  0  0  0
    6.4085   -3.5033    0.0000 C   0  0  0  0  0  0  0  0  0  0  0  0
    6.1535   -5.6228    0.0000 N   0  0  0  0  0  0  0  0  0  0  0  0
    6.6385   -4.9553    0.0000 C   0  0  0  0  0  0  0  0  0  0  0  0
    6.1535   -4.2879    0.0000 C   0  0  0  0  0  0  0  0  0  0  0  0
    5.3689   -4.5428    0.0000 C   0  0  0  0  0  0  0  0  0  0  0  0
    4.6544   -4.1303    0.0000 C   0  0  0  0  0  0  0  0  0  0  0  0
    3.9400   -4.5428    0.0000 C   0  0  0  0  0  0  0  0  0  0  0  0
    3.9400   -5.3678    0.0000 C   0  0  0  0  0  0  0  0  0  0  0  0
    4.6544   -5.7803    0.0000 C   0  0  0  0  0  0  0  0  0  0  0  0
    5.3689   -5.3678    0.0000 C   0  0  0  0  0  0  0  0  0  0  0  0
    3.2255   -4.1303    0.0000 O   0  0  0  0  0  0  0  0  0  0  0  0
    2.5110   -4.5428    0.0000 C   0  0  0  0  0  0  0  0  0  0  0  0
  1  2  1  0  0  0  0
  1  3  2  0  0  0  0
  1  4  1  0  0  0  0
  5  6  1  0  0  0  0
  7  8  1  0  0  0  0
  8  9  2  0  0  0  0
  9 10  1  0  0  0  0
 10 11  1  0  0  0  0
 11 12  2  0  0  0  0
 12 13  1  0  0  0  0
 13 14  2  0  0  0  0
 14 15  1  0  0  0  0
  7 15  1  0  0  0  0
 10 15  2  0  0  0  0
 16 17  1  0  0  0  0
 12 16  1  0  0  0  0
  6  9  1  0  0  0  0
  4  5  1  0  0  0  0
M  END
>  <cdx:groupId>
54

>  <cdx:fragmentId>
17

$$$$
