89664.cdx
  Mrv1902 05222410202D          

 13 14  0  0  0  0            999 V2000
    8.0876   -7.0427    0.0000 C   0  0  1  0  0  0  0  0  0  0  0  0
    7.3732   -7.4552    0.0000 C   0  0  2  0  0  0  0  0  0  0  0  0
    6.6587   -7.0427    0.0000 C   0  0  0  0  0  0  0  0  0  0  0  0
    6.6587   -6.2177    0.0000 C   0  0  0  0  0  0  0  0  0  0  0  0
    7.3732   -5.8052    0.0000 C   0  0  2  0  0  0  0  0  0  0  0  0
    8.0876   -6.2177    0.0000 C   0  0  0  0  0  0  0  0  0  0  0  0
    7.5559   -6.5249    0.0000 C   0  0  0  0  0  0  0  0  0  0  0  0
    7.3732   -8.2802    0.0000 O   0  0  0  0  0  0  0  0  0  0  0  0
    8.5001   -5.5033    0.0000 C   0  0  0  0  0  0  0  0  0  0  0  0
    8.9126   -6.2177    0.0000 C   0  0  0  0  0  0  0  0  0  0  0  0
    5.9442   -5.8052    0.0000 C   0  0  0  0  0  0  0  0  0  0  0  0
    8.8021   -7.4552    0.0000 H   0  0  0  0  0  0  0  0  0  0  0  0
    7.3732   -4.9802    0.0000 H   0  0  0  0  0  0  0  0  0  0  0  0
  1  2  1  0  0  0  0
  2  3  1  0  0  0  0
  3  4  2  0  0  0  0
  4  5  1  0  0  0  0
  5  6  1  0  0  0  0
  1  6  1  0  0  0  0
  1  7  1  1  0  0  0
  5  7  1  1  0  0  0
  2  8  1  1  0  0  0
  6  9  1  0  0  0  0
  6 10  1  0  0  0  0
  4 11  1  0  0  0  0
  1 12  1  0  0  0  0
  5 13  1  0  0  0  0
M  END
>  <cdx:groupId>
42

>  <cdx:fragmentId>
5

$$$$
