8969.cdx
  Mrv1902 05222410222D          

 29 33  0  0  0  0            999 V2000
    9.5366   -9.8265    0.0000 C   0  0  1  0  0  0  0  0  0  0  0  0
    5.6204   -9.4178    0.0000 N   0  0  0  0  0  0  0  0  0  0  0  0
    6.1053   -8.7504    0.0000 C   0  0  0  0  0  0  0  0  0  0  0  0
    6.9258   -8.6641    0.0000 C   0  0  1  0  0  0  0  0  0  0  0  0
    7.2614   -7.9105    0.0000 N   0  0  0  0  0  0  0  0  0  0  0  0
    6.7764   -7.2430    0.0000 C   0  0  0  0  0  0  0  0  0  0  0  0
    5.9560   -7.3293    0.0000 C   0  0  0  0  0  0  0  0  0  0  0  0
    5.6204   -8.0829    0.0000 C   0  0  0  0  0  0  0  0  0  0  0  0
    4.8358   -8.3379    0.0000 C   0  0  0  0  0  0  0  0  0  0  0  0
    4.1213   -7.9254    0.0000 C   0  0  0  0  0  0  0  0  0  0  0  0
    3.4068   -8.3379    0.0000 C   0  0  0  0  0  0  0  0  0  0  0  0
    3.4068   -9.1629    0.0000 C   0  0  0  0  0  0  0  0  0  0  0  0
    4.1213   -9.5754    0.0000 C   0  0  0  0  0  0  0  0  0  0  0  0
    4.8358   -9.1629    0.0000 C   0  0  0  0  0  0  0  0  0  0  0  0
    8.0818   -7.8242    0.0000 C   0  0  0  0  0  0  0  0  0  0  0  0
    8.5668   -8.4917    0.0000 C   0  0  2  0  0  0  0  0  0  0  0  0
    9.3873   -8.4054    0.0000 C   0  0  0  0  0  0  0  0  0  0  0  0
    9.8722   -9.0729    0.0000 C   0  0  0  0  0  0  0  0  0  0  0  0
    8.7161   -9.9128    0.0000 C   0  0  1  0  0  0  0  0  0  0  0  0
    8.2312   -9.2453    0.0000 C   0  0  1  0  0  0  0  0  0  0  0  0
    7.4107   -9.3316    0.0000 C   0  0  0  0  0  0  0  0  0  0  0  0
    8.9023   -7.7380    0.0000 H   0  0  0  0  0  0  0  0  0  0  0  0
    7.8957   -9.9990    0.0000 H   0  0  0  0  0  0  0  0  0  0  0  0
    6.5903   -9.4178    0.0000 H   0  0  0  0  0  0  0  0  0  0  0  0
   10.0215  -10.4940    0.0000 O   0  0  0  0  0  0  0  0  0  0  0  0
    8.3806  -10.6664    0.0000 C   0  0  0  0  0  0  0  0  0  0  0  0
    8.8655  -11.3339    0.0000 O   0  0  0  0  0  0  0  0  0  0  0  0
    7.5601  -10.7527    0.0000 O   0  0  0  0  0  0  0  0  0  0  0  0
    8.5299  -12.0876    0.0000 C   0  0  0  0  0  0  0  0  0  0  0  0
  2  3  1  0  0  0  0
  3  4  1  0  0  0  0
  4  5  1  0  0  0  0
  5  6  1  0  0  0  0
  6  7  1  0  0  0  0
  7  8  1  0  0  0  0
  3  8  2  0  0  0  0
  8  9  1  0  0  0  0
  9 10  1  0  0  0  0
 10 11  2  0  0  0  0
 11 12  1  0  0  0  0
 12 13  2  0  0  0  0
 13 14  1  0  0  0  0
  9 14  2  0  0  0  0
  2 14  1  0  0  0  0
  5 15  1  0  0  0  0
 15 16  1  0  0  0  0
 16 17  1  0  0  0  0
 17 18  1  0  0  0  0
  1 18  1  0  0  0  0
  1 19  1  0  0  0  0
 19 20  1  0  0  0  0
 16 20  1  0  0  0  0
 20 21  1  0  0  0  0
  4 21  1  0  0  0  0
 16 22  1  1  0  0  0
 20 23  1  6  0  0  0
  4 24  1  6  0  0  0
  1 25  1  6  0  0  0
 19 26  1  6  0  0  0
 26 27  1  0  0  0  0
 26 28  2  0  0  0  0
 27 29  1  0  0  0  0
M  END
>  <cdx:fragmentId>
7

$$$$
