8970.cdx
  Mrv1902 05222410242D          

 12 13  0  0  0  0            999 V2000
    7.8719   -9.1200    0.0000 C   0  0  1  0  0  0  0  0  0  0  0  0
    8.6565   -8.8651    0.0000 C   0  0  0  0  0  0  0  0  0  0  0  0
    8.6565   -8.0401    0.0000 C   0  0  0  0  0  0  0  0  0  0  0  0
    7.8719   -7.7851    0.0000 C   0  0  0  0  0  0  0  0  0  0  0  0
    7.3869   -8.4526    0.0000 C   0  0  2  0  0  0  0  0  0  0  0  0
    6.9744   -7.7381    0.0000 C   0  0  1  0  0  0  0  0  0  0  0  0
    6.1494   -7.7381    0.0000 C   0  0  0  0  0  0  0  0  0  0  0  0
    5.7369   -8.4526    0.0000 C   0  0  0  0  0  0  0  0  0  0  0  0
    6.1494   -9.1670    0.0000 C   0  0  0  0  0  0  0  0  0  0  0  0
    6.9744   -9.1670    0.0000 C   0  0  0  0  0  0  0  0  0  0  0  0
    7.3869   -7.0236    0.0000 C   0  0  0  0  0  0  0  0  0  0  0  0
    7.6169   -9.9046    0.0000 C   0  0  0  0  0  0  0  0  0  0  0  0
  1  2  1  0  0  0  0
  2  3  1  0  0  0  0
  3  4  1  0  0  0  0
  5  4  1  6  0  0  0
  5  6  1  0  0  0  0
  6  7  1  0  0  0  0
  7  8  1  0  0  0  0
  8  9  1  0  0  0  0
  9 10  1  0  0  0  0
  5  1  1  0  0  0  0
 10  5  1  0  0  0  0
  6 11  1  1  0  0  0
  1 12  1  6  0  0  0
M  END
>  <cdx:fragmentId>
5

$$$$
