8974.cdx
  Mrv1902 05222410252D          

 20 22  0  0  0  0            999 V2000
    5.1015   -9.3214    0.0000 O   0  0  0  0  0  0  0  0  0  0  0  0
    5.8855   -9.0645    0.0000 C   0  0  2  0  0  0  0  0  0  0  0  0
    6.3721   -9.7307    0.0000 C   0  0  1  0  0  0  0  0  0  0  0  0
    5.8889  -10.3994    0.0000 C   0  0  1  0  0  0  0  0  0  0  0  0
    5.1036  -10.1464    0.0000 C   0  0  1  0  0  0  0  0  0  0  0  0
    7.1971   -9.7286    0.0000 O   0  0  0  0  0  0  0  0  0  0  0  0
    6.1458  -11.1834    0.0000 O   0  0  0  0  0  0  0  0  0  0  0  0
    4.4374  -10.6330    0.0000 C   0  0  0  0  0  0  0  0  0  0  0  0
    4.4374  -11.4580    0.0000 O   0  0  0  0  0  0  0  0  0  0  0  0
    6.1351   -6.9444    0.0000 N   0  0  0  0  0  0  0  0  0  0  0  0
    5.6518   -7.6130    0.0000 C   0  0  0  0  0  0  0  0  0  0  0  0
    6.1385   -8.2792    0.0000 N   0  0  0  0  0  0  0  0  0  0  0  0
    6.9224   -8.0223    0.0000 C   0  0  0  0  0  0  0  0  0  0  0  0
    7.6379   -8.4330    0.0000 N   0  0  0  0  0  0  0  0  0  0  0  0
    8.3514   -8.0187    0.0000 C   0  0  0  0  0  0  0  0  0  0  0  0
    8.3493   -7.1937    0.0000 N   0  0  0  0  0  0  0  0  0  0  0  0
    7.6338   -6.7830    0.0000 C   0  0  0  0  0  0  0  0  0  0  0  0
    6.9203   -7.1973    0.0000 C   0  0  0  0  0  0  0  0  0  0  0  0
    9.0669   -8.4294    0.0000 Cl  0  0  0  0  0  0  0  0  0  0  0  0
    7.6317   -5.9580    0.0000 N   0  0  0  0  0  0  0  0  0  0  0  0
  1  2  1  0  0  0  0
  2  3  1  0  0  0  0
  3  4  1  0  0  0  0
  4  5  1  0  0  0  0
  1  5  1  0  0  0  0
  3  6  1  6  0  0  0
  4  7  1  6  0  0  0
  8  9  1  0  0  0  0
  5  8  1  1  0  0  0
 10 11  2  0  0  0  0
 11 12  1  0  0  0  0
 12 13  1  0  0  0  0
 13 14  2  0  0  0  0
 14 15  1  0  0  0  0
 15 16  2  0  0  0  0
 16 17  1  0  0  0  0
 17 18  2  0  0  0  0
 10 18  1  0  0  0  0
 13 18  1  0  0  0  0
 15 19  1  0  0  0  0
 17 20  1  0  0  0  0
  2 12  1  1  0  0  0
M  END
>  <cdx:fragmentId>
23

$$$$
