89795.cdx
  Mrv1902 05222410282D          

 24 26  0  0  0  0            999 V2000
    7.7965   -8.7862    0.0000 O   0  0  0  0  0  0  0  0  0  0  0  0
    7.0820   -8.3737    0.0000 O   0  0  0  0  0  0  0  0  0  0  0  0
    8.5109   -5.0737    0.0000 O   0  0  0  0  0  0  0  0  0  0  0  0
    5.6531   -5.8988    0.0000 C   0  0  0  0  0  0  0  0  0  0  0  0
    4.9386   -6.3113    0.0000 N   0  0  0  0  0  0  0  0  0  0  0  0
    5.6531   -7.5488    0.0000 C   0  0  0  0  0  0  0  0  0  0  0  0
    7.0820   -5.8988    0.0000 C   0  0  0  0  0  0  0  0  0  0  0  0
    6.3675   -6.3113    0.0000 C   0  0  0  0  0  0  0  0  0  0  0  0
    6.3675   -7.1362    0.0000 O   0  0  0  0  0  0  0  0  0  0  0  0
    7.0820   -7.5488    0.0000 C   0  0  0  0  0  0  0  0  0  0  0  0
    9.2254   -6.3113    0.0000 O   0  0  0  0  0  0  0  0  0  0  0  0
    8.5109   -5.8988    0.0000 C   0  0  0  0  0  0  0  0  0  0  0  0
    7.7965   -6.3113    0.0000 C   0  0  1  0  0  0  0  0  0  0  0  0
    7.7965   -7.1362    0.0000 C   0  0  2  0  0  0  0  0  0  0  0  0
    9.2254   -7.1362    0.0000 C   0  0  0  0  0  0  0  0  0  0  0  0
    8.5109   -7.5488    0.0000 C   0  0  0  0  0  0  0  0  0  0  0  0
    8.5109   -8.3737    0.0000 C   0  0  0  0  0  0  0  0  0  0  0  0
    9.2254   -8.7862    0.0000 N   0  0  0  0  0  0  0  0  0  0  0  0
   10.6543   -7.1362    0.0000 C   0  0  0  0  0  0  0  0  0  0  0  0
    9.9399   -7.5488    0.0000 C   0  0  0  0  0  0  0  0  0  0  0  0
    9.9399   -8.3737    0.0000 C   0  0  0  0  0  0  0  0  0  0  0  0
   10.6543   -8.7862    0.0000 C   0  0  0  0  0  0  0  0  0  0  0  0
   11.3688   -8.3737    0.0000 C   0  0  0  0  0  0  0  0  0  0  0  0
   11.3688   -7.5488    0.0000 C   0  0  0  0  0  0  0  0  0  0  0  0
 17  1  2  0  0  0  0
 10  2  2  0  0  0  0
 12  3  2  0  0  0  0
  4  8  1  0  0  0  0
  5  4  1  0  0  0  0
  9  6  1  0  0  0  0
 13  7  1  1  0  0  0
  8  7  1  0  0  0  0
 10  9  1  0  0  0  0
 14 10  1  6  0  0  0
 11 15  1  0  0  0  0
 12 11  1  0  0  0  0
 13 12  1  0  0  0  0
 14 13  1  0  0  0  0
 16 14  1  0  0  0  0
 15 20  1  0  0  0  0
 16 15  2  0  0  0  0
 17 16  1  0  0  0  0
 18 17  1  0  0  0  0
 21 18  1  0  0  0  0
 19 24  1  0  0  0  0
 20 19  2  0  0  0  0
 21 20  1  0  0  0  0
 22 21  2  0  0  0  0
 23 22  1  0  0  0  0
 24 23  2  0  0  0  0
M  END
>  <cdx:fragmentId>
5

$$$$
