89799.cdx
  Mrv1902 05222410182D          

 17 18  0  0  0  0            999 V2000
    6.4837   -8.0290    0.0000 O   0  0  0  0  0  0  0  0  0  0  0  0
    4.8485   -7.6143    0.0000 C   0  0  0  0  0  0  0  0  0  0  0  0
    5.6454   -7.8278    0.0000 O   0  0  0  0  0  0  0  0  0  0  0  0
    6.0152   -6.4475    0.0000 O   0  0  0  0  0  0  0  0  0  0  0  0
    6.2287   -7.2444    0.0000 C   0  0  0  0  0  0  0  0  0  0  0  0
    7.0256   -7.4579    0.0000 C   0  0  0  0  0  0  0  0  0  0  0  0
    8.7797   -7.2600    0.0000 O   0  0  0  0  0  0  0  0  0  0  0  0
    5.9706   -8.9100    0.0000 O   0  0  0  0  0  0  0  0  0  0  0  0
    7.2806   -8.2426    0.0000 C   0  0  2  0  0  0  0  0  0  0  0  0
    6.7956   -8.9100    0.0000 C   0  0  0  0  0  0  0  0  0  0  0  0
    7.2806   -9.5774    0.0000 N   0  0  0  0  0  0  0  0  0  0  0  0
    8.7797   -8.0850    0.0000 C   0  0  0  0  0  0  0  0  0  0  0  0
    8.0652   -8.4975    0.0000 C   0  0  0  0  0  0  0  0  0  0  0  0
    8.0652   -9.3225    0.0000 C   0  0  0  0  0  0  0  0  0  0  0  0
    8.7797   -9.7350    0.0000 C   0  0  0  0  0  0  0  0  0  0  0  0
    9.4941   -9.3225    0.0000 C   0  0  0  0  0  0  0  0  0  0  0  0
    9.4941   -8.4975    0.0000 C   0  0  0  0  0  0  0  0  0  0  0  0
  9  1  1  1  0  0  0
  3  2  1  0  0  0  0
  5  3  1  0  0  0  0
  5  4  2  0  0  0  0
  6  5  1  0  0  0  0
  9  6  1  0  0  0  0
 12  7  1  0  0  0  0
 10  8  2  0  0  0  0
  9 13  1  0  0  0  0
 10  9  1  0  0  0  0
 11 10  1  0  0  0  0
 14 11  1  0  0  0  0
 12 17  1  0  0  0  0
 13 12  2  0  0  0  0
 14 13  1  0  0  0  0
 15 14  2  0  0  0  0
 16 15  1  0  0  0  0
 17 16  2  0  0  0  0
M  END
>  <cdx:fragmentId>
5

$$$$
