89796.cdx
  Mrv1902 05222410272D          

 18 19  0  0  0  0            999 V2000
    5.9920   -8.3875    0.0000 O   0  0  0  0  0  0  0  0  0  0  0  0
    5.9920   -9.2125    0.0000 O   0  0  0  0  0  0  0  0  0  0  0  0
    5.2775   -6.3250    0.0000 O   0  0  0  0  0  0  0  0  0  0  0  0
    4.5631   -6.7375    0.0000 C   0  0  0  0  0  0  0  0  0  0  0  0
    7.4209   -6.7375    0.0000 O   0  0  0  0  0  0  0  0  0  0  0  0
    6.7065   -6.3250    0.0000 O   0  0  0  0  0  0  0  0  0  0  0  0
    5.9920   -6.7375    0.0000 C   0  0  0  0  0  0  0  0  0  0  0  0
    5.9920   -7.5625    0.0000 C   0  0  0  0  0  0  0  0  0  0  0  0
    7.4209   -7.5625    0.0000 C   0  0  0  0  0  0  0  0  0  0  0  0
    6.7065   -7.9750    0.0000 C   0  0  1  0  0  0  0  0  0  0  0  0
    6.7065   -8.8000    0.0000 C   0  0  0  0  0  0  0  0  0  0  0  0
    7.4209   -9.2125    0.0000 N   0  0  0  0  0  0  0  0  0  0  0  0
    8.8499   -7.5625    0.0000 C   0  0  0  0  0  0  0  0  0  0  0  0
    8.1354   -7.9750    0.0000 C   0  0  0  0  0  0  0  0  0  0  0  0
    8.1354   -8.8000    0.0000 C   0  0  0  0  0  0  0  0  0  0  0  0
    8.8499   -9.2125    0.0000 C   0  0  0  0  0  0  0  0  0  0  0  0
    9.5644   -8.8000    0.0000 C   0  0  0  0  0  0  0  0  0  0  0  0
    9.5644   -7.9750    0.0000 C   0  0  0  0  0  0  0  0  0  0  0  0
 10  1  1  1  0  0  0
 11  2  2  0  0  0  0
  3  7  1  0  0  0  0
  4  3  1  0  0  0  0
  5  9  2  0  0  0  0
  7  6  2  0  0  0  0
  8  7  1  0  0  0  0
 10  8  1  0  0  0  0
  9 14  1  0  0  0  0
 10  9  1  0  0  0  0
 11 10  1  0  0  0  0
 12 11  1  0  0  0  0
 15 12  1  0  0  0  0
 13 18  1  0  0  0  0
 14 13  2  0  0  0  0
 15 14  1  0  0  0  0
 16 15  2  0  0  0  0
 17 16  1  0  0  0  0
 18 17  2  0  0  0  0
M  END
>  <cdx:fragmentId>
5

$$$$
