89798.cdx
  Mrv1902 05222410182D          

 14 15  0  0  0  0            999 V2000
    5.4996   -8.4563    0.0000 O   0  0  0  0  0  0  0  0  0  0  0  0
    5.4996   -9.2813    0.0000 O   0  0  0  0  0  0  0  0  0  0  0  0
    6.9286   -6.8062    0.0000 O   0  0  0  0  0  0  0  0  0  0  0  0
    5.4996   -7.6313    0.0000 C   0  0  0  0  0  0  0  0  0  0  0  0
    6.9286   -7.6313    0.0000 C   0  0  0  0  0  0  0  0  0  0  0  0
    6.2141   -8.0437    0.0000 C   0  0  1  0  0  0  0  0  0  0  0  0
    6.2141   -8.8688    0.0000 C   0  0  0  0  0  0  0  0  0  0  0  0
    6.9286   -9.2813    0.0000 N   0  0  0  0  0  0  0  0  0  0  0  0
    8.3575   -7.6313    0.0000 C   0  0  0  0  0  0  0  0  0  0  0  0
    7.6431   -8.0437    0.0000 C   0  0  0  0  0  0  0  0  0  0  0  0
    7.6431   -8.8688    0.0000 C   0  0  0  0  0  0  0  0  0  0  0  0
    8.3575   -9.2813    0.0000 C   0  0  0  0  0  0  0  0  0  0  0  0
    9.0720   -8.8688    0.0000 C   0  0  0  0  0  0  0  0  0  0  0  0
    9.0720   -8.0437    0.0000 C   0  0  0  0  0  0  0  0  0  0  0  0
  6  1  1  1  0  0  0
  7  2  2  0  0  0  0
  3  5  2  0  0  0  0
  6  4  1  0  0  0  0
  5 10  1  0  0  0  0
  6  5  1  0  0  0  0
  7  6  1  0  0  0  0
  8  7  1  0  0  0  0
 11  8  1  0  0  0  0
  9 14  1  0  0  0  0
 10  9  2  0  0  0  0
 11 10  1  0  0  0  0
 12 11  2  0  0  0  0
 13 12  1  0  0  0  0
 14 13  2  0  0  0  0
M  END
>  <cdx:fragmentId>
5

$$$$
