89797.cdx
  Mrv1902 05222410272D          

 17 19  0  0  0  0            999 V2000
    5.5962   -9.5131    0.0000 O   0  0  0  0  0  0  0  0  0  0  0  0
    5.5374   -6.0241    0.0000 C   0  0  0  0  0  0  0  0  0  0  0  0
    4.7225   -6.1531    0.0000 C   0  0  0  0  0  0  0  0  0  0  0  0
    4.5935   -6.9680    0.0000 C   0  0  0  0  0  0  0  0  0  0  0  0
    8.0348   -8.5800    0.0000 C   0  0  0  0  0  0  0  0  0  0  0  0
    8.7492   -8.1675    0.0000 C   0  0  0  0  0  0  0  0  0  0  0  0
    8.7492   -7.3425    0.0000 C   0  0  0  0  0  0  0  0  0  0  0  0
    8.0348   -6.9300    0.0000 C   0  0  0  0  0  0  0  0  0  0  0  0
    7.0526   -5.9969    0.0000 O   0  0  0  0  0  0  0  0  0  0  0  0
    6.7369   -6.7591    0.0000 C   0  0  0  0  0  0  0  0  0  0  0  0
    5.9119   -6.7591    0.0000 N   0  0  0  0  0  0  0  0  0  0  0  0
    5.3286   -7.3425    0.0000 C   0  0  1  0  0  0  0  0  0  0  0  0
    5.3286   -8.1675    0.0000 N   0  0  0  0  0  0  0  0  0  0  0  0
    5.9119   -8.7509    0.0000 C   0  0  0  0  0  0  0  0  0  0  0  0
    6.7369   -8.7509    0.0000 N   0  0  0  0  0  0  0  0  0  0  0  0
    7.3203   -8.1675    0.0000 C   0  0  0  0  0  0  0  0  0  0  0  0
    7.3203   -7.3425    0.0000 C   0  0  0  0  0  0  0  0  0  0  0  0
 14  1  2  0  0  0  0
  2 11  1  0  0  0  0
  3  2  1  0  0  0  0
  4  3  1  0  0  0  0
 12  4  1  0  0  0  0
  5 16  1  0  0  0  0
  6  5  2  0  0  0  0
  7  6  1  0  0  0  0
  8  7  2  0  0  0  0
 17  8  1  0  0  0  0
 10  9  2  0  0  0  0
 10 17  1  0  0  0  0
 11 10  1  0  0  0  0
 12 11  1  1  0  0  0
 13 12  1  0  0  0  0
 14 13  1  0  0  0  0
 15 14  1  0  0  0  0
 16 15  1  0  0  0  0
 17 16  2  0  0  0  0
M  END
>  <cdx:fragmentId>
5

$$$$
