897906.cdx
  Mrv1902 05222410212D          

 39 44  0  0  0  0            999 V2000
    3.1960  -12.3750    0.0000 C   0  0  0  0  0  0  0  0  0  0  0  0
    3.1960  -13.2000    0.0000 C   0  0  2  0  0  0  0  0  0  0  0  0
    3.9105  -13.6125    0.0000 C   0  0  0  0  0  0  0  0  0  0  0  0
    4.6250  -13.2000    0.0000 C   0  0  2  0  0  0  0  0  0  0  0  0
    4.6250  -12.3750    0.0000 C   0  0  2  0  0  0  0  0  0  0  0  0
    3.9105  -11.9625    0.0000 C   0  0  2  0  0  0  0  0  0  0  0  0
    5.3394  -13.6125    0.0000 C   0  0  2  0  0  0  0  0  0  0  0  0
    6.0539  -13.2000    0.0000 C   0  0  0  0  0  0  0  0  0  0  0  0
    6.0539  -12.3750    0.0000 C   0  0  2  0  0  0  0  0  0  0  0  0
    5.3394  -11.9625    0.0000 C   0  0  2  0  0  0  0  0  0  0  0  0
    6.6670  -11.8230    0.0000 C   0  0  1  0  0  0  0  0  0  0  0  0
    6.3314  -11.0693    0.0000 C   0  0  0  0  0  0  0  0  0  0  0  0
    5.5110  -11.1555    0.0000 C   0  0  0  0  0  0  0  0  0  0  0  0
    7.4875  -11.9092    0.0000 C   0  0  0  0  0  0  0  0  0  0  0  0
    7.9724  -11.2418    0.0000 C   0  0  0  0  0  0  0  0  0  0  0  0
    7.6369  -10.4881    0.0000 C   0  0  2  0  0  0  0  0  0  0  0  0
    6.8164  -10.4019    0.0000 C   0  0  0  0  0  0  0  0  0  0  0  0
    8.4619  -10.4881    0.0000 C   0  0  1  0  0  0  0  0  0  0  0  0
    8.7168   -9.7035    0.0000 C   0  0  1  0  0  0  0  0  0  0  0  0
    8.0494   -9.2185    0.0000 C   0  0  2  0  0  0  0  0  0  0  0  0
    7.3819   -9.7035    0.0000 O   0  0  0  0  0  0  0  0  0  0  0  0
    9.4705   -9.3679    0.0000 N   0  0  0  0  0  0  0  0  0  0  0  0
    9.5567   -8.5474    0.0000 C   0  0  0  0  0  0  0  0  0  0  0  0
    8.8893   -8.0625    0.0000 C   0  0  2  0  0  0  0  0  0  0  0  0
    8.1356   -8.3981    0.0000 C   0  0  0  0  0  0  0  0  0  0  0  0
    3.9105  -11.1375    0.0000 O   0  0  0  0  0  0  0  0  0  0  0  0
    2.4816  -13.6125    0.0000 O   0  0  0  0  0  0  0  0  0  0  0  0
    4.6250  -11.5500    0.0000 C   0  0  0  0  0  0  0  0  0  0  0  0
    5.3394  -12.7875    0.0000 H   0  0  0  0  0  0  0  0  0  0  0  0
    6.7684  -12.7875    0.0000 H   0  0  0  0  0  0  0  0  0  0  0  0
    7.0795  -12.5374    0.0000 H   0  0  0  0  0  0  0  0  0  0  0  0
    5.3394  -14.4375    0.0000 O   0  0  0  0  0  0  0  0  0  0  0  0
    4.9589  -10.5424    0.0000 O   0  0  0  0  0  0  0  0  0  0  0  0
    6.4039   -9.6874    0.0000 C   0  0  0  0  0  0  0  0  0  0  0  0
    7.4660   -8.6352    0.0000 H   0  0  0  0  0  0  0  0  0  0  0  0
    9.3002  -10.2868    0.0000 H   0  0  0  0  0  0  0  0  0  0  0  0
    8.9755   -7.2420    0.0000 C   0  0  0  0  0  0  0  0  0  0  0  0
    8.8744  -11.2026    0.0000 C   0  0  0  0  0  0  0  0  0  0  0  0
    4.6250  -14.0250    0.0000 H   0  0  0  0  0  0  0  0  0  0  0  0
  1  2  1  0  0  0  0
  2  3  1  0  0  0  0
  3  4  1  0  0  0  0
  4  5  1  0  0  0  0
  5  6  1  0  0  0  0
  6  1  1  0  0  0  0
  4  7  1  0  0  0  0
  7  8  1  0  0  0  0
  8  9  1  0  0  0  0
  9 10  1  0  0  0  0
 10  5  1  0  0  0  0
  9 11  1  0  0  0  0
 11 12  1  0  0  0  0
 12 13  1  0  0  0  0
 13 10  1  0  0  0  0
 11 14  1  0  0  0  0
 14 15  1  0  0  0  0
 15 16  1  0  0  0  0
 16 17  1  0  0  0  0
 17 12  2  0  0  0  0
 16 18  1  0  0  0  0
 18 19  1  0  0  0  0
 19 20  1  0  0  0  0
 20 21  1  0  0  0  0
 16 21  1  1  0  0  0
 19 22  1  0  0  0  0
 22 23  1  0  0  0  0
 23 24  1  0  0  0  0
 24 25  1  0  0  0  0
 25 20  1  0  0  0  0
  6 26  1  1  0  0  0
  2 27  1  6  0  0  0
  5 28  1  1  0  0  0
 10 29  1  6  0  0  0
  9 30  1  1  0  0  0
 11 31  1  6  0  0  0
  7 32  1  6  0  0  0
 13 33  2  0  0  0  0
 17 34  1  0  0  0  0
 20 35  1  1  0  0  0
 19 36  1  6  0  0  0
 24 37  1  6  0  0  0
 18 38  1  1  0  0  0
  4 39  1  1  0  0  0
M  END
>  <cdx:fragmentId>
51258

$$$$
