8982.cdx
  Mrv1902 05222410222D          

 13 13  0  0  0  0            999 V2000
    7.2839   -9.4875    0.0000 C   0  0  0  0  0  0  0  0  0  0  0  0
    7.2839  -10.3125    0.0000 C   0  0  0  0  0  0  0  0  0  0  0  0
    7.9984  -10.7250    0.0000 C   0  0  0  0  0  0  0  0  0  0  0  0
    8.7128  -10.3125    0.0000 C   0  0  0  0  0  0  0  0  0  0  0  0
    8.7128   -9.4875    0.0000 C   0  0  0  0  0  0  0  0  0  0  0  0
    7.9984   -9.0750    0.0000 C   0  0  0  0  0  0  0  0  0  0  0  0
    6.5694   -9.0750    0.0000 O   0  0  0  0  0  0  0  0  0  0  0  0
    7.9984  -11.5500    0.0000 O   0  0  0  0  0  0  0  0  0  0  0  0
    7.9984   -8.2500    0.0000 C   0  0  0  0  0  0  0  0  0  0  0  0
    8.7128   -7.8375    0.0000 C   0  0  0  0  0  0  0  0  0  0  0  0
    9.4273   -8.2500    0.0000 C   0  0  0  0  0  0  0  0  0  0  0  0
   10.1418   -7.8375    0.0000 O   0  0  0  0  0  0  0  0  0  0  0  0
    9.4273   -9.0750    0.0000 O   0  0  0  0  0  0  0  0  0  0  0  0
  1  2  2  0  0  0  0
  2  3  1  0  0  0  0
  3  4  2  0  0  0  0
  4  5  1  0  0  0  0
  5  6  2  0  0  0  0
  6  1  1  0  0  0  0
  1  7  1  0  0  0  0
  3  8  1  0  0  0  0
  6  9  1  0  0  0  0
  9 10  2  0  0  0  0
 10 11  1  0  0  0  0
 11 12  1  0  0  0  0
 11 13  2  0  0  0  0
M  END
>  <cdx:fragmentId>
5

$$$$
