898871.cdx
  Mrv1902 05222410282D          

 11 11  0  0  0  0            999 V2000
    9.0849  -10.0902    0.0000 C   0  0  2  0  0  0  0  0  0  0  0  0
    8.2599  -10.0902    0.0000 C   0  0  2  0  0  0  0  0  0  0  0  0
    8.6724   -9.3757    0.0000 C   0  0  0  0  0  0  0  0  0  0  0  0
    7.5455  -10.5027    0.0000 C   0  0  0  0  0  0  0  0  0  0  0  0
    6.8310  -10.0902    0.0000 C   0  0  0  0  0  0  0  0  0  0  0  0
    6.1165  -10.5027    0.0000 C   0  0  0  0  0  0  0  0  0  0  0  0
    5.4021  -10.0902    0.0000 C   0  0  0  0  0  0  0  0  0  0  0  0
    4.6876  -10.5027    0.0000 C   0  0  0  0  0  0  0  0  0  0  0  0
    3.9731  -10.0902    0.0000 C   0  0  0  0  0  0  0  0  0  0  0  0
    9.7994  -10.5027    0.0000 C   0  0  0  0  0  0  0  0  0  0  0  0
   10.5139  -10.0902    0.0000 C   0  0  0  0  0  0  0  0  0  0  0  0
  1  2  1  0  0  0  0
  2  3  1  0  0  0  0
  1  3  1  0  0  0  0
  4  5  2  0  0  0  0
  5  6  1  0  0  0  0
  6  7  1  0  0  0  0
  7  8  1  0  0  0  0
  8  9  1  0  0  0  0
  2  4  1  1  0  0  0
 10 11  2  0  0  0  0
  1 10  1  6  0  0  0
M  END
>  <cdx:fragmentId>
62640

$$$$
