8991.cdx
  Mrv1902 05222410202D          

 11 11  0  0  0  0            999 V2000
    6.7090   -8.4591    0.0000 C   0  0  2  0  0  0  0  0  0  0  0  0
    6.9732   -9.2406    0.0000 C   0  0  0  0  0  0  0  0  0  0  0  0
    7.7981   -9.2309    0.0000 C   0  0  0  0  0  0  0  0  0  0  0  0
    8.0438   -8.4433    0.0000 C   0  0  0  0  0  0  0  0  0  0  0  0
    7.3707   -7.9663    0.0000 C   0  0  2  0  0  0  0  0  0  0  0  0
    7.3178   -7.1430    0.0000 C   0  0  0  0  0  0  0  0  0  0  0  0
    5.9001   -8.2971    0.0000 C   0  0  0  0  0  0  0  0  0  0  0  0
    5.3553   -8.9166    0.0000 C   0  0  0  0  0  0  0  0  0  0  0  0
    8.0044   -6.6856    0.0000 C   0  0  0  0  0  0  0  0  0  0  0  0
    7.9515   -5.8623    0.0000 C   0  0  0  0  0  0  0  0  0  0  0  0
    8.6380   -5.4048    0.0000 C   0  0  0  0  0  0  0  0  0  0  0  0
  1  2  1  0  0  0  0
  2  3  1  0  0  0  0
  3  4  2  0  0  0  0
  4  5  1  0  0  0  0
  5  1  1  0  0  0  0
  5  6  1  1  0  0  0
  1  7  1  1  0  0  0
  7  8  2  0  0  0  0
  6  9  1  0  0  0  0
  9 10  1  0  0  0  0
 10 11  1  0  0  0  0
M  END
>  <cdx:fragmentId>
5

$$$$
