8996.cdx
  Mrv1902 05222410222D          

 11 11  0  0  0  0            999 V2000
    5.6133   -7.8581    0.0000 C   0  0  0  0  0  0  0  0  0  0  0  0
    5.6133   -8.6831    0.0000 C   0  0  0  0  0  0  0  0  0  0  0  0
    6.3277   -9.0956    0.0000 C   0  0  0  0  0  0  0  0  0  0  0  0
    7.0422   -8.6831    0.0000 C   0  0  0  0  0  0  0  0  0  0  0  0
    7.0422   -7.8581    0.0000 C   0  0  1  0  0  0  0  0  0  0  0  0
    6.3277   -7.4456    0.0000 C   0  0  2  0  0  0  0  0  0  0  0  0
    6.3277   -9.9206    0.0000 C   0  0  0  0  0  0  0  0  0  0  0  0
    6.3277   -6.6206    0.0000 C   0  0  0  0  0  0  0  0  0  0  0  0
    5.6133   -6.2081    0.0000 C   0  0  0  0  0  0  0  0  0  0  0  0
    7.0422   -6.2081    0.0000 C   0  0  0  0  0  0  0  0  0  0  0  0
    7.7567   -7.4456    0.0000 O   0  0  0  0  0  0  0  0  0  0  0  0
  1  2  1  0  0  0  0
  2  3  1  0  0  0  0
  3  4  2  0  0  0  0
  4  5  1  0  0  0  0
  5  6  1  0  0  0  0
  6  1  1  0  0  0  0
  3  7  1  0  0  0  0
  6  8  1  1  0  0  0
  8  9  1  0  0  0  0
  8 10  1  0  0  0  0
  5 11  1  1  0  0  0
M  END
>  <cdx:fragmentId>
5

$$$$
