899657.cdx
  Mrv1902 05222410222D          

 22 24  0  0  0  0            999 V2000
    5.5395   -4.6332    0.0000 C   0  0  0  0  0  0  0  0  0  0  0  0
    5.5395   -5.4582    0.0000 C   0  0  0  0  0  0  0  0  0  0  0  0
    6.2540   -5.8707    0.0000 C   0  0  0  0  0  0  0  0  0  0  0  0
    6.9685   -5.4582    0.0000 C   0  0  0  0  0  0  0  0  0  0  0  0
    7.6829   -5.8707    0.0000 C   0  0  0  0  0  0  0  0  0  0  0  0
    8.3974   -5.4582    0.0000 C   0  0  0  0  0  0  0  0  0  0  0  0
    8.3974   -4.6332    0.0000 C   0  0  0  0  0  0  0  0  0  0  0  0
    7.6829   -4.2207    0.0000 C   0  0  0  0  0  0  0  0  0  0  0  0
    6.9685   -4.6332    0.0000 C   0  0  0  0  0  0  0  0  0  0  0  0
    6.2540   -4.2207    0.0000 O   0  0  0  0  0  0  0  0  0  0  0  0
    9.1820   -4.3782    0.0000 O   0  0  0  0  0  0  0  0  0  0  0  0
    9.1820   -5.7131    0.0000 C   0  0  0  0  0  0  0  0  0  0  0  0
    9.6670   -5.0457    0.0000 C   0  0  0  0  0  0  0  0  0  0  0  0
    4.8251   -4.2207    0.0000 O   0  0  0  0  0  0  0  0  0  0  0  0
    7.6829   -6.6957    0.0000 O   0  0  0  0  0  0  0  0  0  0  0  0
    8.3974   -7.1082    0.0000 C   0  0  0  0  0  0  0  0  0  0  0  0
    8.3974   -7.9332    0.0000 C   0  0  1  0  0  0  0  0  0  0  0  0
    9.1119   -8.3457    0.0000 C   0  0  0  0  0  0  0  0  0  0  0  0
    9.1119   -9.1707    0.0000 C   0  0  0  0  0  0  0  0  0  0  0  0
    9.8264   -7.9332    0.0000 C   0  0  0  0  0  0  0  0  0  0  0  0
    9.8264   -8.7582    0.0000 O   0  0  0  0  0  0  0  0  0  0  0  0
    7.6829   -8.3457    0.0000 O   0  0  0  0  0  0  0  0  0  0  0  0
  1  2  1  0  0  0  0
  2  3  2  0  0  0  0
  3  4  1  0  0  0  0
  4  5  2  0  0  0  0
  5  6  1  0  0  0  0
  6  7  2  0  0  0  0
  7  8  1  0  0  0  0
  8  9  2  0  0  0  0
  4  9  1  0  0  0  0
  9 10  1  0  0  0  0
  1 10  1  0  0  0  0
 12 13  2  0  0  0  0
 11 13  1  0  0  0  0
 12  6  1  0  0  0  0
 11  7  1  0  0  0  0
  1 14  2  0  0  0  0
 16 17  1  0  0  0  0
 17 18  1  0  0  0  0
 18 19  1  0  0  0  0
 15 16  1  0  0  0  0
 18 20  1  0  0  0  0
 18 21  1  0  0  0  0
 17 22  1  1  0  0  0
  5 15  1  0  0  0  0
M  END
>  <cdx:groupId>
70

>  <cdx:fragmentId>
5

$$$$
