90002.cdx
  Mrv1902 05222410262D          

 42 45  0  0  0  0            999 V2000
    7.3702   -8.0258    0.0000 C   0  0  2  0  0  0  0  0  0  0  0  0
    7.3540   -7.2010    0.0000 C   0  0  2  0  0  0  0  0  0  0  0  0
    6.6316   -6.8025    0.0000 C   0  0  1  0  0  0  0  0  0  0  0  0
    5.9254   -7.2290    0.0000 C   0  0  2  0  0  0  0  0  0  0  0  0
    5.9415   -8.0538    0.0000 C   0  0  1  0  0  0  0  0  0  0  0  0
    6.6640   -8.4522    0.0000 O   0  0  0  0  0  0  0  0  0  0  0  0
    5.2353   -8.4802    0.0000 O   0  0  0  0  0  0  0  0  0  0  0  0
    5.2515   -9.3051    0.0000 C   0  0  0  0  0  0  0  0  0  0  0  0
    5.9739   -9.7035    0.0000 O   0  0  0  0  0  0  0  0  0  0  0  0
    4.5452   -9.7315    0.0000 C   0  0  0  0  0  0  0  0  0  0  0  0
    4.5614  -10.5564    0.0000 C   0  0  0  0  0  0  0  0  0  0  0  0
    3.1327  -10.5844    0.0000 C   0  0  0  0  0  0  0  0  0  0  0  0
    3.8552  -10.9828    0.0000 C   0  0  0  0  0  0  0  0  0  0  0  0
    2.4265  -11.0108    0.0000 C   0  0  0  0  0  0  0  0  0  0  0  0
    2.4427  -11.8356    0.0000 C   0  0  0  0  0  0  0  0  0  0  0  0
    3.1651  -12.2341    0.0000 C   0  0  0  0  0  0  0  0  0  0  0  0
    3.8713  -11.8076    0.0000 C   0  0  0  0  0  0  0  0  0  0  0  0
    1.7041  -10.6124    0.0000 O   0  0  0  0  0  0  0  0  0  0  0  0
    1.6879   -9.7875    0.0000 C   0  0  0  0  0  0  0  0  0  0  0  0
    1.7364  -12.2621    0.0000 O   0  0  0  0  0  0  0  0  0  0  0  0
    3.1813  -13.0589    0.0000 O   0  0  0  0  0  0  0  0  0  0  0  0
    3.9037  -13.4573    0.0000 C   0  0  0  0  0  0  0  0  0  0  0  0
    8.0926   -8.4242    0.0000 C   0  0  0  0  0  0  0  0  0  0  0  0
    6.6154   -5.9777    0.0000 O   0  0  0  0  0  0  0  0  0  0  0  0
    8.0603   -6.7745    0.0000 O   0  0  0  0  0  0  0  0  0  0  0  0
    5.2029   -6.8306    0.0000 O   0  0  0  0  0  0  0  0  0  0  0  0
   12.0874  -11.5160    0.0000 O   0  0  0  0  0  0  0  0  0  0  0  0
    8.7939   -8.0014    0.0000 O   0  0  0  0  0  0  0  0  0  0  0  0
    9.5084   -8.4139    0.0000 C   0  0  0  0  0  0  0  0  0  0  0  0
    8.0794   -9.2389    0.0000 O   0  0  0  0  0  0  0  0  0  0  0  0
   11.2624  -11.5160    0.0000 C   0  0  0  0  0  0  0  0  0  0  0  0
   11.0075  -10.7313    0.0000 C   0  0  0  0  0  0  0  0  0  0  0  0
   11.4924  -10.0639    0.0000 C   0  0  0  0  0  0  0  0  0  0  0  0
   11.0075   -9.3965    0.0000 C   0  0  0  0  0  0  0  0  0  0  0  0
    9.5084   -9.2389    0.0000 C   0  0  1  0  0  0  0  0  0  0  0  0
    8.7939   -9.6514    0.0000 C   0  0  0  0  0  0  0  0  0  0  0  0
    8.7939  -10.4764    0.0000 O   0  0  0  0  0  0  0  0  0  0  0  0
    9.5084  -10.8889    0.0000 C   0  0  0  0  0  0  0  0  0  0  0  0
   10.2228  -10.4764    0.0000 C   0  0  1  0  0  0  0  0  0  0  0  0
   10.2228   -9.6514    0.0000 C   0  0  2  0  0  0  0  0  0  0  0  0
   10.2228   -8.8264    0.0000 H   0  0  0  0  0  0  0  0  0  0  0  0
   10.2228  -11.3014    0.0000 H   0  0  0  0  0  0  0  0  0  0  0  0
 23 28  1  0  0  0  0
  1  2  1  0  0  0  0
  2  3  1  0  0  0  0
  3  4  1  0  0  0  0
  4  5  1  0  0  0  0
  5  6  1  0  0  0  0
  6  1  1  0  0  0  0
  5  7  1  1  0  0  0
  7  8  1  0  0  0  0
  8  9  2  0  0  0  0
  8 10  1  0  0  0  0
 10 11  2  0  0  0  0
 12 13  2  0  0  0  0
 13 11  1  0  0  0  0
 12 14  1  0  0  0  0
 14 15  2  0  0  0  0
 15 16  1  0  0  0  0
 16 17  2  0  0  0  0
 17 13  1  0  0  0  0
 14 18  1  0  0  0  0
 18 19  1  0  0  0  0
 15 20  1  0  0  0  0
 16 21  1  0  0  0  0
 21 22  1  0  0  0  0
  1 23  1  1  0  0  0
  3 24  1  1  0  0  0
  2 25  1  6  0  0  0
  4 26  1  6  0  0  0
 31 27  1  0  0  0  0
 29 28  1  0  0  0  0
 35 29  1  6  0  0  0
 36 30  2  0  0  0  0
 32 31  1  0  0  0  0
 32 39  1  0  0  0  0
 33 32  2  0  0  0  0
 34 33  1  0  0  0  0
 40 34  1  0  0  0  0
 35 40  1  0  0  0  0
 36 35  1  0  0  0  0
 37 36  1  0  0  0  0
 38 37  1  0  0  0  0
 39 38  1  0  0  0  0
 40 39  1  0  0  0  0
 40 41  1  6  0  0  0
 39 42  1  6  0  0  0
M  END
>  <cdx:fragmentId>
46

$$$$
