90000.cdx
  Mrv1902 05222410262D          

 16 16  0  0  0  0            999 V2000
    5.5256  -10.3939    0.0000 C   0  0  0  0  0  0  0  0  0  0  0  0
    5.5256  -11.2189    0.0000 C   0  0  0  0  0  0  0  0  0  0  0  0
    6.2400  -11.6314    0.0000 C   0  0  0  0  0  0  0  0  0  0  0  0
    6.9545  -11.2189    0.0000 C   0  0  0  0  0  0  0  0  0  0  0  0
    6.9545  -10.3939    0.0000 C   0  0  0  0  0  0  0  0  0  0  0  0
    6.2400   -9.9814    0.0000 C   0  0  0  0  0  0  0  0  0  0  0  0
    6.2400  -12.4564    0.0000 O   0  0  0  0  0  0  0  0  0  0  0  0
    6.2400   -9.1564    0.0000 C   0  0  0  0  0  0  0  0  0  0  0  0
    6.9545   -8.7439    0.0000 C   0  0  0  0  0  0  0  0  0  0  0  0
    6.9545   -7.9189    0.0000 C   0  0  0  0  0  0  0  0  0  0  0  0
    7.6690   -7.5064    0.0000 O   0  0  0  0  0  0  0  0  0  0  0  0
    6.2400   -7.5064    0.0000 O   0  0  0  0  0  0  0  0  0  0  0  0
    7.6690   -6.6814    0.0000 C   0  0  0  0  0  0  0  0  0  0  0  0
    8.3834   -6.2689    0.0000 C   0  0  0  0  0  0  0  0  0  0  0  0
    8.3834   -5.4439    0.0000 C   0  0  0  0  0  0  0  0  0  0  0  0
    9.0979   -5.0314    0.0000 C   0  0  0  0  0  0  0  0  0  0  0  0
  1  2  2  0  0  0  0
  2  3  1  0  0  0  0
  3  4  2  0  0  0  0
  4  5  1  0  0  0  0
  5  6  2  0  0  0  0
  6  1  1  0  0  0  0
  3  7  1  0  0  0  0
  6  8  1  0  0  0  0
  8  9  2  0  0  0  0
  9 10  1  0  0  0  0
 10 11  1  0  0  0  0
 10 12  2  0  0  0  0
 11 13  1  0  0  0  0
 13 14  1  0  0  0  0
 14 15  1  0  0  0  0
 15 16  1  0  0  0  0
M  END
>  <cdx:fragmentId>
5

$$$$
