90008.cdx
  Mrv1902 05222410182D          

 35 36  0  0  0  0            999 V2000
    1.9506   -7.8089    0.0000 C   0  0  0  0  0  0  0  0  0  0  0  0
    1.9506   -8.6339    0.0000 C   0  0  0  0  0  0  0  0  0  0  0  0
    2.6650   -9.0464    0.0000 C   0  0  0  0  0  0  0  0  0  0  0  0
    3.3795   -8.6339    0.0000 C   0  0  0  0  0  0  0  0  0  0  0  0
    3.3795   -7.8089    0.0000 C   0  0  0  0  0  0  0  0  0  0  0  0
    2.6650   -7.3964    0.0000 C   0  0  0  0  0  0  0  0  0  0  0  0
    1.2361   -7.3964    0.0000 O   0  0  0  0  0  0  0  0  0  0  0  0
    0.5216   -7.8089    0.0000 C   0  0  0  0  0  0  0  0  0  0  0  0
    1.2361   -9.0464    0.0000 O   0  0  0  0  0  0  0  0  0  0  0  0
    2.6650   -9.8714    0.0000 O   0  0  0  0  0  0  0  0  0  0  0  0
    3.3795  -10.2839    0.0000 C   0  0  0  0  0  0  0  0  0  0  0  0
    4.0940   -7.3964    0.0000 C   0  0  0  0  0  0  0  0  0  0  0  0
    4.8084   -7.8089    0.0000 C   0  0  0  0  0  0  0  0  0  0  0  0
    5.5229   -7.3964    0.0000 C   0  0  0  0  0  0  0  0  0  0  0  0
    6.2374   -7.8089    0.0000 O   0  0  0  0  0  0  0  0  0  0  0  0
    5.5229   -6.5714    0.0000 O   0  0  0  0  0  0  0  0  0  0  0  0
    6.9519   -7.3964    0.0000 C   0  0  0  0  0  0  0  0  0  0  0  0
    7.6663   -7.8089    0.0000 C   0  0  2  0  0  0  0  0  0  0  0  0
    7.6663   -8.6339    0.0000 C   0  0  2  0  0  0  0  0  0  0  0  0
    8.3808   -9.0464    0.0000 C   0  0  1  0  0  0  0  0  0  0  0  0
    9.0953   -8.6339    0.0000 C   0  0  2  0  0  0  0  0  0  0  0  0
    9.0953   -7.8089    0.0000 C   0  0  1  0  0  0  0  0  0  0  0  0
    8.3808   -7.3964    0.0000 O   0  0  0  0  0  0  0  0  0  0  0  0
    8.3808   -9.8714    0.0000 O   0  0  0  0  0  0  0  0  0  0  0  0
    9.8097   -7.3964    0.0000 O   0  0  0  0  0  0  0  0  0  0  0  0
    6.9519   -9.0464    0.0000 O   0  0  0  0  0  0  0  0  0  0  0  0
    9.8097   -9.0464    0.0000 O   0  0  0  0  0  0  0  0  0  0  0  0
   10.5242   -7.8089    0.0000 C   0  0  0  0  0  0  0  0  0  0  0  0
   11.2387   -7.3964    0.0000 C   0  0  1  0  0  0  0  0  0  0  0  0
   11.9531   -7.8089    0.0000 C   0  0  1  0  0  0  0  0  0  0  0  0
   12.6676   -7.3964    0.0000 C   0  0  0  0  0  0  0  0  0  0  0  0
   11.2387   -6.5714    0.0000 O   0  0  0  0  0  0  0  0  0  0  0  0
   11.5406   -8.5234    0.0000 O   0  0  0  0  0  0  0  0  0  0  0  0
   12.3656   -8.5234    0.0000 C   0  0  0  0  0  0  0  0  0  0  0  0
   13.3821   -7.8089    0.0000 O   0  0  0  0  0  0  0  0  0  0  0  0
  1  2  2  0  0  0  0
  2  3  1  0  0  0  0
  3  4  2  0  0  0  0
  4  5  1  0  0  0  0
  5  6  2  0  0  0  0
  6  1  1  0  0  0  0
  1  7  1  0  0  0  0
  7  8  1  0  0  0  0
  2  9  1  0  0  0  0
  3 10  1  0  0  0  0
 10 11  1  0  0  0  0
  5 12  1  0  0  0  0
 12 13  2  0  0  0  0
 13 14  1  0  0  0  0
 14 15  1  0  0  0  0
 14 16  2  0  0  0  0
 15 17  1  0  0  0  0
 18 17  1  1  0  0  0
 18 19  1  0  0  0  0
 19 20  1  0  0  0  0
 20 21  1  0  0  0  0
 21 22  1  0  0  0  0
 22 23  1  0  0  0  0
 23 18  1  0  0  0  0
 20 24  1  1  0  0  0
 22 25  1  1  0  0  0
 19 26  1  6  0  0  0
 21 27  1  6  0  0  0
 25 28  1  0  0  0  0
 28 29  1  0  0  0  0
 29 30  1  0  0  0  0
 30 31  1  0  0  0  0
 29 32  1  6  0  0  0
 30 33  1  1  0  0  0
 30 34  1  0  0  0  0
 31 35  1  0  0  0  0
M  END
>  <cdx:fragmentId>
5

$$$$
