91.cdx
  Mrv1902 05222410242D          

 12 12  0  0  0  0            999 V2000
    8.4852   -1.9907    0.0000 C   0  0  0  0  0  0  0  0  0  0  0  0
    7.7707   -2.4032    0.0000 C   0  0  0  0  0  0  0  0  0  0  0  0
    7.0562   -1.9907    0.0000 C   0  0  0  0  0  0  0  0  0  0  0  0
    8.4852   -1.1657    0.0000 O   0  0  0  0  0  0  0  0  0  0  0  0
    9.1996   -2.4032    0.0000 O   0  0  0  0  0  0  0  0  0  0  0  0
    6.3418   -2.4032    0.0000 C   0  0  0  0  0  0  0  0  0  0  0  0
    5.6273   -1.9907    0.0000 C   0  0  0  0  0  0  0  0  0  0  0  0
    4.9128   -2.4032    0.0000 C   0  0  0  0  0  0  0  0  0  0  0  0
    4.9128   -3.2282    0.0000 C   0  0  0  0  0  0  0  0  0  0  0  0
    5.6273   -3.6407    0.0000 C   0  0  0  0  0  0  0  0  0  0  0  0
    6.3418   -3.2282    0.0000 C   0  0  0  0  0  0  0  0  0  0  0  0
    4.1984   -1.9907    0.0000 O   0  0  0  0  0  0  0  0  0  0  0  0
  1  2  1  0  0  0  0
  2  3  1  0  0  0  0
  1  4  2  0  0  0  0
  1  5  1  0  0  0  0
  6  7  1  0  0  0  0
  7  8  2  0  0  0  0
  8  9  1  0  0  0  0
  9 10  2  0  0  0  0
 10 11  1  0  0  0  0
  6 11  2  0  0  0  0
  8 12  1  0  0  0  0
  3  6  1  0  0  0  0
M  END
>  <cdx:groupId>
38

>  <cdx:fragmentId>
15

$$$$
