90006.cdx
  Mrv1902 05222410272D          

 48 53  0  0  0  0            999 V2000
    3.5773   -8.3972    0.0000 C   0  0  0  0  0  0  0  0  0  0  0  0
    3.5948   -9.2220    0.0000 C   0  0  1  0  0  0  0  0  0  0  0  0
    4.3179   -9.6193    0.0000 C   0  0  0  0  0  0  0  0  0  0  0  0
    5.0234   -9.1917    0.0000 C   0  0  1  0  0  0  0  0  0  0  0  0
    5.0060   -8.3669    0.0000 C   0  0  2  0  0  0  0  0  0  0  0  0
    4.2829   -7.9697    0.0000 C   0  0  0  0  0  0  0  0  0  0  0  0
    5.7465   -9.5890    0.0000 C   0  0  0  0  0  0  0  0  0  0  0  0
    6.4521   -9.1615    0.0000 C   0  0  0  0  0  0  0  0  0  0  0  0
    6.4346   -8.3366    0.0000 C   0  0  2  0  0  0  0  0  0  0  0  0
    5.7115   -7.9394    0.0000 C   0  0  2  0  0  0  0  0  0  0  0  0
    7.1402   -7.9091    0.0000 C   0  0  1  0  0  0  0  0  0  0  0  0
    7.1227   -7.0843    0.0000 C   0  0  0  0  0  0  0  0  0  0  0  0
    6.3996   -6.6870    0.0000 C   0  0  0  0  0  0  0  0  0  0  0  0
    5.6940   -7.1146    0.0000 C   0  0  0  0  0  0  0  0  0  0  0  0
    7.8632   -8.3064    0.0000 C   0  0  0  0  0  0  0  0  0  0  0  0
    8.5688   -7.8788    0.0000 C   0  0  0  0  0  0  0  0  0  0  0  0
    8.5513   -7.0540    0.0000 C   0  0  2  0  0  0  0  0  0  0  0  0
    7.8282   -6.6567    0.0000 C   0  0  1  0  0  0  0  0  0  0  0  0
    9.2569   -6.6265    0.0000 C   0  0  0  0  0  0  0  0  0  0  0  0
    9.2394   -5.8016    0.0000 C   0  0  0  0  0  0  0  0  0  0  0  0
    8.5163   -5.4044    0.0000 C   0  0  2  0  0  0  0  0  0  0  0  0
    7.8108   -5.8319    0.0000 C   0  0  2  0  0  0  0  0  0  0  0  0
    2.8893   -9.6496    0.0000 O   0  0  0  0  0  0  0  0  0  0  0  0
    3.9206  -10.3423    0.0000 C   0  0  0  0  0  0  0  0  0  0  0  0
    4.9885   -7.5421    0.0000 C   0  0  0  0  0  0  0  0  0  0  0  0
    6.4171   -7.5118    0.0000 C   0  0  0  0  0  0  0  0  0  0  0  0
    9.2743   -7.4513    0.0000 C   0  0  0  0  0  0  0  0  0  0  0  0
    7.0877   -5.4347    0.0000 C   0  0  0  0  0  0  0  0  0  0  0  0
    4.7454  -10.3249    0.0000 C   0  0  0  0  0  0  0  0  0  0  0  0
    5.0409  -10.0166    0.0000 H   0  0  0  0  0  0  0  0  0  0  0  0
    7.1576   -8.7339    0.0000 C   0  0  0  0  0  0  0  0  0  0  0  0
    8.4988   -4.5796    0.0000 C   0  0  0  0  0  0  0  0  0  0  0  0
    7.9948   -9.1748    0.0000 O   0  0  0  0  0  0  0  0  0  0  0  0
    7.2693  -10.4058    0.0000 O   0  0  0  0  0  0  0  0  0  0  0  0
   12.2593  -11.6880    0.0000 O   0  0  0  0  0  0  0  0  0  0  0  0
   10.1196  -11.2564    0.0000 C   0  0  0  0  0  0  0  0  0  0  0  0
   10.8304  -11.6753    0.0000 C   0  0  0  0  0  0  0  0  0  0  0  0
   11.5485  -11.2692    0.0000 C   0  0  0  0  0  0  0  0  0  0  0  0
   11.5559  -10.4442    0.0000 C   0  0  0  0  0  0  0  0  0  0  0  0
   10.8452  -10.0253    0.0000 C   0  0  0  0  0  0  0  0  0  0  0  0
   10.1270  -10.4314    0.0000 C   0  0  0  0  0  0  0  0  0  0  0  0
    9.4163  -10.0125    0.0000 C   0  0  0  0  0  0  0  0  0  0  0  0
    8.6981  -10.4186    0.0000 C   0  0  0  0  0  0  0  0  0  0  0  0
    7.9874   -9.9997    0.0000 C   0  0  0  0  0  0  0  0  0  0  0  0
    5.7290   -8.7642    0.0000 H   0  0  0  0  0  0  0  0  0  0  0  0
    7.1052   -6.2595    0.0000 H   0  0  0  0  0  0  0  0  0  0  0  0
    9.9799   -7.0237    0.0000 O   0  0  0  0  0  0  0  0  0  0  0  0
    9.2918   -8.2761    0.0000 O   0  0  0  0  0  0  0  0  0  0  0  0
  1  2  1  0  0  0  0
  2  3  1  0  0  0  0
  3  4  1  0  0  0  0
  4  5  1  0  0  0  0
  5  6  1  0  0  0  0
  6  1  1  0  0  0  0
  4  7  1  0  0  0  0
  7  8  1  0  0  0  0
  8  9  1  0  0  0  0
  9 10  1  0  0  0  0
 10  5  1  0  0  0  0
  9 11  1  0  0  0  0
 11 12  1  0  0  0  0
 12 13  2  0  0  0  0
 13 14  1  0  0  0  0
 14 10  1  0  0  0  0
 11 15  1  0  0  0  0
 15 16  1  0  0  0  0
 16 17  1  0  0  0  0
 17 18  1  0  0  0  0
 18 12  1  0  0  0  0
 17 19  1  0  0  0  0
 19 20  1  0  0  0  0
 20 21  1  0  0  0  0
 21 22  1  0  0  0  0
 22 18  1  0  0  0  0
  2 23  1  1  0  0  0
  3 24  1  0  0  0  0
  5 25  1  1  0  0  0
  9 26  1  1  0  0  0
 17 27  1  1  0  0  0
 22 28  1  1  0  0  0
  3 29  1  0  0  0  0
  4 30  1  6  0  0  0
 11 31  1  6  0  0  0
 21 32  1  6  0  0  0
 44 33  1  0  0  0  0
 44 34  2  0  0  0  0
 38 35  1  0  0  0  0
 36 41  1  0  0  0  0
 37 36  2  0  0  0  0
 38 37  1  0  0  0  0
 39 38  2  0  0  0  0
 40 39  1  0  0  0  0
 41 40  2  0  0  0  0
 42 41  1  0  0  0  0
 43 42  2  0  0  0  0
 44 43  1  0  0  0  0
 31 33  1  0  0  0  0
 10 45  1  6  0  0  0
 18 46  1  1  0  0  0
 27 47  1  0  0  0  0
 27 48  2  0  0  0  0
M  END
>  <cdx:fragmentId>
5

$$$$
