90004.cdx
  Mrv1902 05222410282D          

 25 27  0  0  0  0            999 V2000
    5.9915  -11.3151    0.0000 O   0  0  0  0  0  0  0  0  0  0  0  0
    4.5625   -8.8401    0.0000 C   0  0  0  0  0  0  0  0  0  0  0  0
    3.8481   -9.2526    0.0000 C   0  0  0  0  0  0  0  0  0  0  0  0
    3.8481  -10.0776    0.0000 C   0  0  0  0  0  0  0  0  0  0  0  0
    4.5625  -10.4901    0.0000 C   0  0  0  0  0  0  0  0  0  0  0  0
    5.2770   -9.2526    0.0000 C   0  0  0  0  0  0  0  0  0  0  0  0
    5.2770  -10.0776    0.0000 C   0  0  0  0  0  0  0  0  0  0  0  0
    5.9915  -10.4901    0.0000 C   0  0  0  0  0  0  0  0  0  0  0  0
    6.7059  -10.0776    0.0000 C   0  0  0  0  0  0  0  0  0  0  0  0
    5.9915   -8.8401    0.0000 O   0  0  0  0  0  0  0  0  0  0  0  0
    6.7059   -9.2526    0.0000 C   0  0  0  0  0  0  0  0  0  0  0  0
    8.1349   -7.6026    0.0000 C   0  0  0  0  0  0  0  0  0  0  0  0
    7.4204   -8.0151    0.0000 C   0  0  0  0  0  0  0  0  0  0  0  0
    7.4204   -8.8401    0.0000 C   0  0  0  0  0  0  0  0  0  0  0  0
    8.1349   -9.2526    0.0000 C   0  0  0  0  0  0  0  0  0  0  0  0
    8.8494   -8.8401    0.0000 C   0  0  0  0  0  0  0  0  0  0  0  0
    8.8494   -8.0151    0.0000 C   0  0  0  0  0  0  0  0  0  0  0  0
    3.1336   -8.8401    0.0000 O   0  0  0  0  0  0  0  0  0  0  0  0
    2.4191   -9.2526    0.0000 C   0  0  0  0  0  0  0  0  0  0  0  0
    4.5625  -11.3151    0.0000 O   0  0  0  0  0  0  0  0  0  0  0  0
    9.5638   -7.6026    0.0000 O   0  0  0  0  0  0  0  0  0  0  0  0
   10.2783   -8.0151    0.0000 C   0  0  0  0  0  0  0  0  0  0  0  0
   10.9928   -7.6026    0.0000 C   0  0  0  0  0  0  0  0  0  0  0  0
    9.5638   -9.2526    0.0000 O   0  0  0  0  0  0  0  0  0  0  0  0
    8.1349   -6.7776    0.0000 O   0  0  0  0  0  0  0  0  0  0  0  0
  8  1  2  0  0  0  0
  2  6  2  0  0  0  0
  3  2  1  0  0  0  0
  4  3  2  0  0  0  0
  5  4  1  0  0  0  0
  7  5  2  0  0  0  0
  6 10  1  0  0  0  0
  7  6  1  0  0  0  0
  8  7  1  0  0  0  0
  9  8  1  0  0  0  0
 11  9  2  0  0  0  0
 11 10  1  0  0  0  0
 14 11  1  0  0  0  0
 12 17  1  0  0  0  0
 13 12  2  0  0  0  0
 14 13  1  0  0  0  0
 15 14  2  0  0  0  0
 16 15  1  0  0  0  0
 17 16  2  0  0  0  0
  3 18  1  0  0  0  0
 18 19  1  0  0  0  0
  5 20  1  0  0  0  0
 17 21  1  0  0  0  0
 21 22  1  0  0  0  0
 22 23  1  0  0  0  0
 16 24  1  0  0  0  0
 12 25  1  0  0  0  0
M  END
>  <cdx:fragmentId>
5

$$$$
