90009.cdx
  Mrv1902 05222410182D          

 41 44  0  0  0  0            999 V2000
    7.3450   -7.4239    0.0000 O   0  0  0  0  0  0  0  0  0  0  0  0
    6.6305   -7.8364    0.0000 C   0  0  2  0  0  0  0  0  0  0  0  0
    5.9161   -7.4239    0.0000 O   0  0  0  0  0  0  0  0  0  0  0  0
    5.2016   -7.8364    0.0000 C   0  0  1  0  0  0  0  0  0  0  0  0
    5.2016   -8.6614    0.0000 C   0  0  2  0  0  0  0  0  0  0  0  0
    5.9161   -9.0739    0.0000 C   0  0  1  0  0  0  0  0  0  0  0  0
    6.6305   -8.6614    0.0000 C   0  0  1  0  0  0  0  0  0  0  0  0
    5.9161   -9.8989    0.0000 O   0  0  0  0  0  0  0  0  0  0  0  0
    4.4871   -7.4239    0.0000 C   0  0  0  0  0  0  0  0  0  0  0  0
    4.4871   -9.0739    0.0000 O   0  0  0  0  0  0  0  0  0  0  0  0
    7.3450   -9.0739    0.0000 O   0  0  0  0  0  0  0  0  0  0  0  0
    3.7726   -7.8364    0.0000 O   0  0  0  0  0  0  0  0  0  0  0  0
    8.1696   -9.0470    0.0000 C   0  0  0  0  0  0  0  0  0  0  0  0
    8.5586   -8.3195    0.0000 O   0  0  0  0  0  0  0  0  0  0  0  0
    8.6051   -9.7477    0.0000 C   0  0  0  0  0  0  0  0  0  0  0  0
    8.0595   -7.0114    0.0000 H   0  0  0  0  0  0  0  0  0  0  0  0
    8.0595   -4.5364    0.0000 H   0  0  0  0  0  0  0  0  0  0  0  0
   10.1540   -5.7739    0.0000 O   0  0  0  0  0  0  0  0  0  0  0  0
    9.4297   -9.7208    0.0000 C   0  0  0  0  0  0  0  0  0  0  0  0
    9.8652  -10.4215    0.0000 C   0  0  0  0  0  0  0  0  0  0  0  0
    9.4762  -11.1490    0.0000 C   0  0  0  0  0  0  0  0  0  0  0  0
    9.9117  -11.8497    0.0000 C   0  0  0  0  0  0  0  0  0  0  0  0
   10.7363  -11.8228    0.0000 C   0  0  0  0  0  0  0  0  0  0  0  0
   11.1253  -11.0953    0.0000 C   0  0  0  0  0  0  0  0  0  0  0  0
   10.6898  -10.3946    0.0000 C   0  0  0  0  0  0  0  0  0  0  0  0
   11.1718  -12.5235    0.0000 O   0  0  0  0  0  0  0  0  0  0  0  0
   11.9499  -11.0685    0.0000 O   0  0  0  0  0  0  0  0  0  0  0  0
   12.3389  -10.3409    0.0000 C   0  0  0  0  0  0  0  0  0  0  0  0
    6.6305   -3.7114    0.0000 O   0  0  0  0  0  0  0  0  0  0  0  0
    8.0595   -3.7114    0.0000 O   0  0  0  0  0  0  0  0  0  0  0  0
    7.3450   -4.1239    0.0000 C   0  0  0  0  0  0  0  0  0  0  0  0
    9.0990   -7.2260    0.0000 C   0  0  0  0  0  0  0  0  0  0  0  0
    8.8441   -6.4413    0.0000 C   0  0  0  0  0  0  0  0  0  0  0  0
    9.3290   -5.7739    0.0000 C   0  0  2  0  0  0  0  0  0  0  0  0
    8.8441   -5.1065    0.0000 C   0  0  0  0  0  0  0  0  0  0  0  0
    7.3450   -4.9489    0.0000 C   0  0  0  0  0  0  0  0  0  0  0  0
    6.6305   -5.3614    0.0000 C   0  0  0  0  0  0  0  0  0  0  0  0
    6.6305   -6.1864    0.0000 O   0  0  0  0  0  0  0  0  0  0  0  0
    7.3450   -6.5989    0.0000 C   0  0  2  0  0  0  0  0  0  0  0  0
    8.0595   -6.1864    0.0000 C   0  0  1  0  0  0  0  0  0  0  0  0
    8.0595   -5.3614    0.0000 C   0  0  2  0  0  0  0  0  0  0  0  0
  2  1  1  1  0  0  0
  2  3  1  0  0  0  0
  3  4  1  0  0  0  0
  4  5  1  0  0  0  0
  5  6  1  0  0  0  0
  6  7  1  0  0  0  0
  7  2  1  0  0  0  0
  6  8  1  1  0  0  0
  4  9  1  1  0  0  0
  5 10  1  6  0  0  0
  7 11  1  6  0  0  0
  9 12  1  0  0  0  0
 11 13  1  0  0  0  0
 13 14  2  0  0  0  0
 40 16  1  6  0  0  0
 41 17  1  6  0  0  0
 34 18  1  6  0  0  0
 13 15  1  0  0  0  0
 15 19  2  0  0  0  0
 19 20  1  0  0  0  0
 20 21  2  0  0  0  0
 21 22  1  0  0  0  0
 22 23  2  0  0  0  0
 23 24  1  0  0  0  0
 24 25  2  0  0  0  0
 25 20  1  0  0  0  0
 23 26  1  0  0  0  0
 24 27  1  0  0  0  0
 39  1  1  6  0  0  0
 27 28  1  0  0  0  0
 31 29  1  0  0  0  0
 31 30  2  0  0  0  0
 36 31  1  0  0  0  0
 33 32  2  0  0  0  0
 33 40  1  0  0  0  0
 34 33  1  0  0  0  0
 35 34  1  0  0  0  0
 41 35  1  0  0  0  0
 36 41  1  0  0  0  0
 37 36  2  0  0  0  0
 38 37  1  0  0  0  0
 39 38  1  0  0  0  0
 40 39  1  0  0  0  0
 41 40  1  0  0  0  0
M  END
>  <cdx:fragmentId>
5

$$$$
