19.cdx
  Mrv1902 05222410262D          

 11 11  0  0  0  0            999 V2000
    8.2657   -4.9222    0.0000 C   0  0  0  0  0  0  0  0  0  0  0  0
    7.5512   -5.3347    0.0000 C   0  0  0  0  0  0  0  0  0  0  0  0
    6.8368   -4.9222    0.0000 C   0  0  0  0  0  0  0  0  0  0  0  0
    6.1223   -5.3347    0.0000 C   0  0  0  0  0  0  0  0  0  0  0  0
    6.1223   -6.1597    0.0000 C   0  0  0  0  0  0  0  0  0  0  0  0
    6.8368   -6.5722    0.0000 C   0  0  0  0  0  0  0  0  0  0  0  0
    7.5512   -6.1597    0.0000 C   0  0  0  0  0  0  0  0  0  0  0  0
    8.2657   -4.0972    0.0000 O   0  0  0  0  0  0  0  0  0  0  0  0
    8.9802   -5.3347    0.0000 O   0  0  0  0  0  0  0  0  0  0  0  0
    5.4078   -4.9222    0.0000 O   0  0  0  0  0  0  0  0  0  0  0  0
    6.8368   -4.0972    0.0000 O   0  0  0  0  0  0  0  0  0  0  0  0
  1  2  1  0  0  0  0
  2  3  1  0  0  0  0
  3  4  2  0  0  0  0
  4  5  1  0  0  0  0
  5  6  2  0  0  0  0
  6  7  1  0  0  0  0
  2  7  2  0  0  0  0
  1  8  2  0  0  0  0
  1  9  1  0  0  0  0
  4 10  1  0  0  0  0
  3 11  1  0  0  0  0
M  END
>  <cdx:groupId>
41

>  <cdx:fragmentId>
11

$$$$
