90005.cdx
  Mrv1902 05222410282D          

 41 44  0  0  0  0            999 V2000
    6.1031  -10.2839    0.0000 C   0  0  0  0  0  0  0  0  0  0  0  0
    6.1031  -11.1089    0.0000 C   0  0  0  0  0  0  0  0  0  0  0  0
    6.8175  -11.5214    0.0000 C   0  0  0  0  0  0  0  0  0  0  0  0
    7.5320  -11.1089    0.0000 C   0  0  0  0  0  0  0  0  0  0  0  0
    7.5320  -10.2839    0.0000 C   0  0  0  0  0  0  0  0  0  0  0  0
    6.8175   -9.8714    0.0000 C   0  0  0  0  0  0  0  0  0  0  0  0
    5.3886   -9.8714    0.0000 O   0  0  0  0  0  0  0  0  0  0  0  0
    8.2465   -9.8714    0.0000 O   0  0  0  0  0  0  0  0  0  0  0  0
    6.8175  -12.3464    0.0000 O   0  0  0  0  0  0  0  0  0  0  0  0
    6.8175   -9.0464    0.0000 C   0  0  0  0  0  0  0  0  0  0  0  0
    7.5320   -8.6339    0.0000 C   0  0  0  0  0  0  0  0  0  0  0  0
    7.5320   -7.8089    0.0000 C   0  0  0  0  0  0  0  0  0  0  0  0
    8.2465   -7.3964    0.0000 C   0  0  0  0  0  0  0  0  0  0  0  0
    8.9609   -7.8089    0.0000 C   0  0  0  0  0  0  0  0  0  0  0  0
    9.6754   -7.3964    0.0000 C   0  0  0  0  0  0  0  0  0  0  0  0
    9.6754   -6.5714    0.0000 C   0  0  0  0  0  0  0  0  0  0  0  0
    8.9609   -6.1589    0.0000 C   0  0  0  0  0  0  0  0  0  0  0  0
    8.2465   -6.5714    0.0000 C   0  0  0  0  0  0  0  0  0  0  0  0
    6.1031   -8.6339    0.0000 O   0  0  0  0  0  0  0  0  0  0  0  0
    3.2293  -10.2839    0.0000 C   0  0  2  0  0  0  0  0  0  0  0  0
    3.2293  -11.1089    0.0000 C   0  0  2  0  0  0  0  0  0  0  0  0
    3.9438  -11.5214    0.0000 C   0  0  1  0  0  0  0  0  0  0  0  0
    4.6582  -11.1089    0.0000 C   0  0  2  0  0  0  0  0  0  0  0  0
    4.6582  -10.2839    0.0000 C   0  0  1  0  0  0  0  0  0  0  0  0
    3.9438   -9.8714    0.0000 O   0  0  0  0  0  0  0  0  0  0  0  0
    2.5148   -9.8714    0.0000 C   0  0  0  0  0  0  0  0  0  0  0  0
    3.9438  -12.3464    0.0000 O   0  0  0  0  0  0  0  0  0  0  0  0
    5.3727  -11.5214    0.0000 O   0  0  0  0  0  0  0  0  0  0  0  0
    2.5148  -11.5214    0.0000 O   0  0  0  0  0  0  0  0  0  0  0  0
    1.8004  -10.2839    0.0000 O   0  0  0  0  0  0  0  0  0  0  0  0
    8.8410  -12.6966    0.0000 C   0  0  2  0  0  0  0  0  0  0  0  0
    9.5533  -12.2803    0.0000 C   0  0  2  0  0  0  0  0  0  0  0  0
    9.5488  -11.4553    0.0000 C   0  0  1  0  0  0  0  0  0  0  0  0
    8.8321  -11.0466    0.0000 C   0  0  2  0  0  0  0  0  0  0  0  0
    8.1199  -11.4630    0.0000 C   0  0  1  0  0  0  0  0  0  0  0  0
    8.1243  -12.2880    0.0000 O   0  0  0  0  0  0  0  0  0  0  0  0
    8.8455  -13.5216    0.0000 C   0  0  0  0  0  0  0  0  0  0  0  0
   10.2610  -11.0389    0.0000 O   0  0  0  0  0  0  0  0  0  0  0  0
    8.8277  -10.2217    0.0000 O   0  0  0  0  0  0  0  0  0  0  0  0
   10.2700  -12.6889    0.0000 O   0  0  0  0  0  0  0  0  0  0  0  0
    9.5622  -13.9302    0.0000 O   0  0  0  0  0  0  0  0  0  0  0  0
  1  2  2  0  0  0  0
  2  3  1  0  0  0  0
  3  4  2  0  0  0  0
  4  5  1  0  0  0  0
  5  6  2  0  0  0  0
  6  1  1  0  0  0  0
  1  7  1  0  0  0  0
  5  8  1  0  0  0  0
  3  9  1  0  0  0  0
  6 10  1  0  0  0  0
 10 11  1  0  0  0  0
 11 12  1  0  0  0  0
 12 13  1  0  0  0  0
 13 14  2  0  0  0  0
 14 15  1  0  0  0  0
 15 16  2  0  0  0  0
 16 17  1  0  0  0  0
 17 18  2  0  0  0  0
 18 13  1  0  0  0  0
 10 19  2  0  0  0  0
 20 21  1  0  0  0  0
 21 22  1  0  0  0  0
 22 23  1  0  0  0  0
 23 24  1  0  0  0  0
 24 25  1  0  0  0  0
 25 20  1  0  0  0  0
 20 26  1  1  0  0  0
 22 27  1  1  0  0  0
 23 28  1  6  0  0  0
 21 29  1  6  0  0  0
 26 30  1  0  0  0  0
 31 32  1  0  0  0  0
 32 33  1  0  0  0  0
 33 34  1  0  0  0  0
 34 35  1  0  0  0  0
 35 36  1  0  0  0  0
 36 31  1  0  0  0  0
 31 37  1  1  0  0  0
 33 38  1  1  0  0  0
 34 39  1  6  0  0  0
 32 40  1  6  0  0  0
 37 41  1  0  0  0  0
 24  7  1  1  0  0  0
 35  4  1  1  0  0  0
M  END
>  <cdx:fragmentId>
5

$$$$
