45.cdx
  Mrv1902 05222410232D          

  8  7  0  0  0  0            999 V2000
    6.7782   -4.7514    0.0000 C   0  0  0  0  0  0  0  0  0  0  0  0
    6.0638   -5.1639    0.0000 C   0  0  0  0  0  0  0  0  0  0  0  0
    6.0638   -5.9889    0.0000 O   0  0  0  0  0  0  0  0  0  0  0  0
    5.3493   -4.7514    0.0000 C   0  0  0  0  0  0  0  0  0  0  0  0
    6.7782   -3.9264    0.0000 O   0  0  0  0  0  0  0  0  0  0  0  0
    7.4927   -5.1639    0.0000 O   0  0  0  0  0  0  0  0  0  0  0  0
    5.3493   -3.9264    0.0000 O   0  0  0  0  0  0  0  0  0  0  0  0
    4.6348   -5.1639    0.0000 O   0  0  0  0  0  0  0  0  0  0  0  0
  1  2  1  0  0  0  0
  2  3  1  0  0  0  0
  2  4  1  0  0  0  0
  1  5  2  0  0  0  0
  1  6  1  0  0  0  0
  4  7  2  0  0  0  0
  4  8  1  0  0  0  0
M  END
>  <cdx:groupId>
26

>  <cdx:fragmentId>
6

$$$$
