90001.cdx
  Mrv1902 05222410262D          

 31 32  0  0  0  0            999 V2000
    3.7793   -8.4139    0.0000 C   0  0  2  0  0  0  0  0  0  0  0  0
    3.7793   -9.2389    0.0000 C   0  0  1  0  0  0  0  0  0  0  0  0
    4.4938   -9.6514    0.0000 C   0  0  2  0  0  0  0  0  0  0  0  0
    5.2082   -9.2389    0.0000 C   0  0  1  0  0  0  0  0  0  0  0  0
    5.2082   -8.4139    0.0000 O   0  0  0  0  0  0  0  0  0  0  0  0
    4.4938   -8.0014    0.0000 C   0  0  0  0  0  0  0  0  0  0  0  0
    4.4938  -10.4764    0.0000 O   0  0  0  0  0  0  0  0  0  0  0  0
    5.9227  -10.4764    0.0000 C   0  0  0  0  0  0  0  0  0  0  0  0
    5.9227   -9.6514    0.0000 O   0  0  0  0  0  0  0  0  0  0  0  0
    5.9227  -12.1264    0.0000 O   0  0  0  0  0  0  0  0  0  0  0  0
    6.6372  -11.7139    0.0000 C   0  0  2  0  0  0  0  0  0  0  0  0
    6.6372  -10.8889    0.0000 C   0  0  2  0  0  0  0  0  0  0  0  0
    7.3517  -12.1264    0.0000 C   0  0  1  0  0  0  0  0  0  0  0  0
    8.0661  -11.7139    0.0000 C   0  0  2  0  0  0  0  0  0  0  0  0
    8.0661  -10.8889    0.0000 C   0  0  1  0  0  0  0  0  0  0  0  0
    7.3517  -10.4764    0.0000 O   0  0  0  0  0  0  0  0  0  0  0  0
    8.7806  -10.4764    0.0000 O   0  0  0  0  0  0  0  0  0  0  0  0
    8.7806   -9.6514    0.0000 C   0  0  0  0  0  0  0  0  0  0  0  0
    7.9556   -9.6514    0.0000 C   0  0  0  0  0  0  0  0  0  0  0  0
    9.6056   -9.6514    0.0000 C   0  0  0  0  0  0  0  0  0  0  0  0
   10.0181  -10.3659    0.0000 C   0  0  0  0  0  0  0  0  0  0  0  0
    8.7806   -8.8264    0.0000 C   0  0  0  0  0  0  0  0  0  0  0  0
    9.4951   -8.4139    0.0000 C   0  0  0  0  0  0  0  0  0  0  0  0
    9.4951   -7.5889    0.0000 C   0  0  0  0  0  0  0  0  0  0  0  0
   10.2095   -7.1764    0.0000 C   0  0  0  0  0  0  0  0  0  0  0  0
   10.2095   -6.3514    0.0000 C   0  0  0  0  0  0  0  0  0  0  0  0
   10.9240   -7.5889    0.0000 C   0  0  0  0  0  0  0  0  0  0  0  0
    3.0648   -8.0014    0.0000 O   0  0  0  0  0  0  0  0  0  0  0  0
    3.0648   -9.6514    0.0000 O   0  0  0  0  0  0  0  0  0  0  0  0
    7.3517  -12.9514    0.0000 O   0  0  0  0  0  0  0  0  0  0  0  0
    8.7806  -12.1264    0.0000 O   0  0  0  0  0  0  0  0  0  0  0  0
  1  2  1  0  0  0  0
  2  3  1  0  0  0  0
  3  4  1  0  0  0  0
  4  5  1  0  0  0  0
  5  6  1  0  0  0  0
  6  1  1  0  0  0  0
  3  7  1  6  0  0  0
  8  9  1  0  0  0  0
  4  9  1  1  0  0  0
 11 10  1  6  0  0  0
 11 12  1  0  0  0  0
 12  8  1  1  0  0  0
 11 13  1  0  0  0  0
 13 14  1  0  0  0  0
 14 15  1  0  0  0  0
 15 16  1  0  0  0  0
 16 12  1  0  0  0  0
 15 17  1  1  0  0  0
 18 17  1  6  0  0  0
 18 19  1  0  0  0  0
 18 20  1  0  0  0  0
 20 21  2  0  0  0  0
 18 22  1  0  0  0  0
 22 23  1  0  0  0  0
 23 24  1  0  0  0  0
 24 25  2  0  0  0  0
 25 26  1  0  0  0  0
 25 27  1  0  0  0  0
  1 28  1  1  0  0  0
  2 29  1  1  0  0  0
 13 30  1  1  0  0  0
 14 31  1  6  0  0  0
M  END
>  <cdx:fragmentId>
5

$$$$
