49.cdx
  Mrv1902 05222410222D          

  8  7  0  0  0  0            999 V2000
    3.6855   -1.7581    0.0000 C   0  0  0  0  0  0  0  0  0  0  0  0
    2.9711   -2.1706    0.0000 C   0  0  0  0  0  0  0  0  0  0  0  0
    2.2566   -1.7581    0.0000 C   0  0  0  0  0  0  0  0  0  0  0  0
    1.5421   -2.1706    0.0000 C   0  0  0  0  0  0  0  0  0  0  0  0
    2.2566   -0.9331    0.0000 C   0  0  0  0  0  0  0  0  0  0  0  0
    3.6855   -0.9331    0.0000 O   0  0  0  0  0  0  0  0  0  0  0  0
    4.4000   -2.1706    0.0000 O   0  0  0  0  0  0  0  0  0  0  0  0
    2.9711   -2.9956    0.0000 O   0  0  0  0  0  0  0  0  0  0  0  0
  1  2  1  0  0  0  0
  2  3  1  0  0  0  0
  3  4  1  0  0  0  0
  3  5  1  0  0  0  0
  1  6  2  0  0  0  0
  1  7  1  0  0  0  0
  2  8  2  0  0  0  0
M  END
>  <cdx:groupId>
25

>  <cdx:fragmentId>
5

$$$$
