90014.cdx
  Mrv1902 05222410262D          

 22 23  0  0  0  0            999 V2000
    5.4293   -8.9501    0.0000 C   0  0  0  0  0  0  0  0  0  0  0  0
    5.4293   -9.7751    0.0000 C   0  0  0  0  0  0  0  0  0  0  0  0
    6.1438  -10.1876    0.0000 C   0  0  0  0  0  0  0  0  0  0  0  0
    6.8582   -9.7751    0.0000 C   0  0  0  0  0  0  0  0  0  0  0  0
    6.8582   -8.9501    0.0000 C   0  0  0  0  0  0  0  0  0  0  0  0
    6.1438   -8.5376    0.0000 C   0  0  0  0  0  0  0  0  0  0  0  0
    6.1438   -7.7126    0.0000 C   0  0  0  0  0  0  0  0  0  0  0  0
    6.8582   -7.3001    0.0000 O   0  0  0  0  0  0  0  0  0  0  0  0
    6.1438  -11.0126    0.0000 O   0  0  0  0  0  0  0  0  0  0  0  0
    6.8582  -11.4251    0.0000 C   0  0  0  0  0  0  0  0  0  0  0  0
    4.7148  -10.1876    0.0000 O   0  0  0  0  0  0  0  0  0  0  0  0
    8.2864   -8.9468    0.0000 C   0  0  2  0  0  0  0  0  0  0  0  0
    8.9989   -8.5309    0.0000 C   0  0  2  0  0  0  0  0  0  0  0  0
    8.9950   -7.7059    0.0000 C   0  0  1  0  0  0  0  0  0  0  0  0
    8.2786   -7.2968    0.0000 C   0  0  2  0  0  0  0  0  0  0  0  0
    7.5661   -7.7127    0.0000 C   0  0  1  0  0  0  0  0  0  0  0  0
    7.5700   -8.5377    0.0000 O   0  0  0  0  0  0  0  0  0  0  0  0
    8.2903   -9.7718    0.0000 C   0  0  0  0  0  0  0  0  0  0  0  0
    9.7076   -7.2901    0.0000 O   0  0  0  0  0  0  0  0  0  0  0  0
    8.2748   -6.4718    0.0000 O   0  0  0  0  0  0  0  0  0  0  0  0
    9.7153   -8.9401    0.0000 O   0  0  0  0  0  0  0  0  0  0  0  0
    9.0067  -10.1809    0.0000 O   0  0  0  0  0  0  0  0  0  0  0  0
  1  2  2  0  0  0  0
  2  3  1  0  0  0  0
  3  4  2  0  0  0  0
  4  5  1  0  0  0  0
  5  6  2  0  0  0  0
  6  1  1  0  0  0  0
  6  7  1  0  0  0  0
  7  8  1  0  0  0  0
  3  9  1  0  0  0  0
  9 10  1  0  0  0  0
  2 11  1  0  0  0  0
 12 13  1  0  0  0  0
 13 14  1  0  0  0  0
 14 15  1  0  0  0  0
 15 16  1  0  0  0  0
 16 17  1  0  0  0  0
 17 12  1  0  0  0  0
 12 18  1  1  0  0  0
 14 19  1  1  0  0  0
 15 20  1  6  0  0  0
 13 21  1  6  0  0  0
 18 22  1  0  0  0  0
 16  8  1  1  0  0  0
M  END
>  <cdx:fragmentId>
5

$$$$
