90011.cdx
  Mrv1902 05222410282D          

 26 30  0  0  0  0            999 V2000
   10.5210   -8.2493    0.0000 C   0  0  0  0  0  0  0  0  0  0  0  0
    9.0863   -6.6027    0.0000 C   0  0  0  0  0  0  0  0  0  0  0  0
    8.3737   -7.0185    0.0000 O   0  0  0  0  0  0  0  0  0  0  0  0
    8.3776   -7.8435    0.0000 C   0  0  0  0  0  0  0  0  0  0  0  0
    9.0940   -8.2527    0.0000 C   0  0  0  0  0  0  0  0  0  0  0  0
    9.8065   -7.8368    0.0000 O   0  0  0  0  0  0  0  0  0  0  0  0
    7.6650   -8.2593    0.0000 C   0  0  0  0  0  0  0  0  0  0  0  0
    7.6689   -9.0843    0.0000 C   0  0  0  0  0  0  0  0  0  0  0  0
    8.3853   -9.4935    0.0000 C   0  0  0  0  0  0  0  0  0  0  0  0
    9.0978   -9.0777    0.0000 C   0  0  0  0  0  0  0  0  0  0  0  0
    6.9563   -9.5002    0.0000 C   0  0  0  0  0  0  0  0  0  0  0  0
    6.9602  -10.3252    0.0000 N   0  0  0  0  0  0  0  0  0  0  0  0
    7.6766  -10.7343    0.0000 C   0  0  0  0  0  0  0  0  0  0  0  0
    8.3891  -10.3185    0.0000 C   0  0  0  0  0  0  0  0  0  0  0  0
    6.2399   -9.0910    0.0000 C   0  0  0  0  0  0  0  0  0  0  0  0
    5.5274   -9.5068    0.0000 C   0  0  0  0  0  0  0  0  0  0  0  0
    5.5313  -10.3318    0.0000 C   0  0  0  0  0  0  0  0  0  0  0  0
    6.2476  -10.7410    0.0000 C   0  0  0  0  0  0  0  0  0  0  0  0
    4.8110   -9.0977    0.0000 C   0  0  0  0  0  0  0  0  0  0  0  0
    4.0985   -9.5135    0.0000 C   0  0  0  0  0  0  0  0  0  0  0  0
    4.1023  -10.3385    0.0000 C   0  0  0  0  0  0  0  0  0  0  0  0
    4.8187  -10.7476    0.0000 C   0  0  0  0  0  0  0  0  0  0  0  0
    3.4918  -10.8934    0.0000 O   0  0  0  0  0  0  0  0  0  0  0  0
    3.8309  -11.6455    0.0000 C   0  0  0  0  0  0  0  0  0  0  0  0
    4.6510  -11.5554    0.0000 O   0  0  0  0  0  0  0  0  0  0  0  0
    6.2515  -11.5660    0.0000 O   0  0  0  0  0  0  0  0  0  0  0  0
  2  3  1  0  0  0  0
  3  4  1  0  0  0  0
  4  5  2  0  0  0  0
  5  6  1  0  0  0  0
  6  1  1  0  0  0  0
  4  7  1  0  0  0  0
  7  8  2  0  0  0  0
  8  9  1  0  0  0  0
  9 10  2  0  0  0  0
 10  5  1  0  0  0  0
  8 11  1  0  0  0  0
 11 12  1  0  0  0  0
 12 13  1  0  0  0  0
 13 14  1  0  0  0  0
 14  9  1  0  0  0  0
 11 15  2  0  0  0  0
 15 16  1  0  0  0  0
 16 17  2  0  0  0  0
 17 18  1  0  0  0  0
 18 12  1  0  0  0  0
 16 19  1  0  0  0  0
 19 20  2  0  0  0  0
 20 21  1  0  0  0  0
 21 22  2  0  0  0  0
 22 17  1  0  0  0  0
 21 23  1  0  0  0  0
 23 24  1  0  0  0  0
 24 25  1  0  0  0  0
 25 22  1  0  0  0  0
 18 26  2  0  0  0  0
M  END
>  <cdx:fragmentId>
5

$$$$
