900187.cdx
  Mrv1902 05222410272D          

 10  9  0  0  0  0            999 V2000
    8.4139   -5.3399    0.0000 N   0  3  0  0  0  0  0  0  0  0  0  0
    8.0014   -4.6255    0.0000 C   0  0  0  0  0  0  0  0  0  0  0  0
    9.1284   -4.9274    0.0000 C   0  0  0  0  0  0  0  0  0  0  0  0
    8.8264   -6.0544    0.0000 C   0  0  0  0  0  0  0  0  0  0  0  0
    7.6995   -5.7524    0.0000 C   0  0  0  0  0  0  0  0  0  0  0  0
    6.9850   -5.3399    0.0000 C   0  0  0  0  0  0  0  0  0  0  0  0
    6.2705   -5.7524    0.0000 O   0  0  0  0  0  0  0  0  0  0  0  0
    5.5561   -5.3399    0.0000 C   0  0  0  0  0  0  0  0  0  0  0  0
    5.5561   -4.5149    0.0000 O   0  0  0  0  0  0  0  0  0  0  0  0
    4.8416   -5.7524    0.0000 C   0  0  0  0  0  0  0  0  0  0  0  0
  1  2  1  0  0  0  0
  1  3  1  0  0  0  0
  1  4  1  0  0  0  0
  5  6  1  0  0  0  0
  8  9  2  0  0  0  0
  8 10  1  0  0  0  0
  7  8  1  0  0  0  0
  6  7  1  0  0  0  0
  1  5  1  0  0  0  0
M  CHG  1   1   1
M  END
>  <cdx:groupId>
31

>  <cdx:fragmentId>
19

$$$$
