129.cdx
  Mrv1902 05222410222D          

  7  6  0  0  0  0            999 V2000
   11.3216   -6.7571    0.0000 C   0  0  0  0  0  0  0  0  0  0  0  0
   10.6072   -6.3446    0.0000 C   0  0  0  0  0  0  0  0  0  0  0  0
    9.8927   -6.7571    0.0000 C   0  0  0  0  0  0  0  0  0  0  0  0
    9.1782   -6.3446    0.0000 C   0  0  0  0  0  0  0  0  0  0  0  0
    8.4638   -6.7571    0.0000 C   0  0  0  0  0  0  0  0  0  0  0  0
   12.0361   -6.3446    0.0000 O   0  0  0  0  0  0  0  0  0  0  0  0
    9.1782   -5.5196    0.0000 C   0  0  0  0  0  0  0  0  0  0  0  0
  1  2  1  0  0  0  0
  2  3  1  0  0  0  0
  3  4  1  0  0  0  0
  4  5  1  0  0  0  0
  1  6  2  0  0  0  0
  4  7  1  0  0  0  0
M  END
>  <cdx:groupId>
22

>  <cdx:fragmentId>
5

$$$$
