176.cdx
  Mrv1902 05222410202D          

  4  3  0  0  0  0            999 V2000
    1.4551   -1.3896    0.0000 C   0  0  0  0  0  0  0  0  0  0  0  0
    0.7407   -1.8021    0.0000 C   0  0  0  0  0  0  0  0  0  0  0  0
    1.4551   -0.5646    0.0000 O   0  0  0  0  0  0  0  0  0  0  0  0
    2.1696   -1.8021    0.0000 O   0  0  0  0  0  0  0  0  0  0  0  0
  1  2  1  0  0  0  0
  1  3  2  0  0  0  0
  1  4  1  0  0  0  0
M  END
>  <cdx:groupId>
13

>  <cdx:fragmentId>
5

$$$$
