90019.cdx
  Mrv1902 05222410202D          

 38 40  0  0  0  0            999 V2000
   10.0493   -9.4864    0.0000 C   0  0  0  0  0  0  0  0  0  0  0  0
   10.0493  -10.3114    0.0000 C   0  0  0  0  0  0  0  0  0  0  0  0
   10.7638  -10.7239    0.0000 C   0  0  0  0  0  0  0  0  0  0  0  0
   11.4782  -10.3114    0.0000 C   0  0  0  0  0  0  0  0  0  0  0  0
   11.4782   -9.4864    0.0000 C   0  0  0  0  0  0  0  0  0  0  0  0
   10.7638   -9.0739    0.0000 C   0  0  0  0  0  0  0  0  0  0  0  0
    9.3348   -9.0739    0.0000 O   0  0  0  0  0  0  0  0  0  0  0  0
    8.6204   -9.4864    0.0000 C   0  0  1  0  0  0  0  0  0  0  0  0
    8.6204  -10.3114    0.0000 C   0  0  1  0  0  0  0  0  0  0  0  0
    7.9059   -9.0739    0.0000 O   0  0  0  0  0  0  0  0  0  0  0  0
    7.1914   -9.4864    0.0000 C   0  0  1  0  0  0  0  0  0  0  0  0
    7.1914  -10.3114    0.0000 C   0  0  2  0  0  0  0  0  0  0  0  0
    7.9059  -10.7239    0.0000 C   0  0  2  0  0  0  0  0  0  0  0  0
    9.3348  -10.7239    0.0000 O   0  0  0  0  0  0  0  0  0  0  0  0
    6.4769  -10.7239    0.0000 O   0  0  0  0  0  0  0  0  0  0  0  0
    6.4769   -9.0739    0.0000 C   0  0  0  0  0  0  0  0  0  0  0  0
    7.9059  -11.5489    0.0000 O   0  0  0  0  0  0  0  0  0  0  0  0
   10.7638   -8.2489    0.0000 O   0  0  0  0  0  0  0  0  0  0  0  0
   12.1927  -10.7239    0.0000 C   0  0  0  0  0  0  0  0  0  0  0  0
   12.9072  -10.3114    0.0000 O   0  0  0  0  0  0  0  0  0  0  0  0
   12.1927  -11.5489    0.0000 O   0  0  0  0  0  0  0  0  0  0  0  0
   11.4782   -7.8364    0.0000 C   0  0  0  0  0  0  0  0  0  0  0  0
    5.7625   -9.4864    0.0000 O   0  0  0  0  0  0  0  0  0  0  0  0
    5.0480   -9.0739    0.0000 C   0  0  0  0  0  0  0  0  0  0  0  0
    4.3335   -9.4864    0.0000 C   0  0  0  0  0  0  0  0  0  0  0  0
    5.0480   -8.2489    0.0000 O   0  0  0  0  0  0  0  0  0  0  0  0
    3.6191   -9.0739    0.0000 C   0  0  0  0  0  0  0  0  0  0  0  0
    2.9046   -9.4864    0.0000 C   0  0  0  0  0  0  0  0  0  0  0  0
    2.1901   -9.0739    0.0000 C   0  0  0  0  0  0  0  0  0  0  0  0
    1.4757   -9.4864    0.0000 C   0  0  0  0  0  0  0  0  0  0  0  0
    1.4757  -10.3114    0.0000 C   0  0  0  0  0  0  0  0  0  0  0  0
    2.1901  -10.7239    0.0000 C   0  0  0  0  0  0  0  0  0  0  0  0
    2.9046  -10.3114    0.0000 C   0  0  0  0  0  0  0  0  0  0  0  0
    0.7612  -10.7239    0.0000 O   0  0  0  0  0  0  0  0  0  0  0  0
    0.7612   -9.0739    0.0000 O   0  0  0  0  0  0  0  0  0  0  0  0
    0.7612   -8.2489    0.0000 C   0  0  0  0  0  0  0  0  0  0  0  0
    2.1901  -11.5489    0.0000 O   0  0  0  0  0  0  0  0  0  0  0  0
    2.9046  -11.9614    0.0000 C   0  0  0  0  0  0  0  0  0  0  0  0
  1  2  2  0  0  0  0
  2  3  1  0  0  0  0
  3  4  2  0  0  0  0
  4  5  1  0  0  0  0
  5  6  2  0  0  0  0
  6  1  1  0  0  0  0
  1  7  1  0  0  0  0
  8  7  1  1  0  0  0
  8  9  1  0  0  0  0
  8 10  1  0  0  0  0
 10 11  1  0  0  0  0
 11 12  1  0  0  0  0
 12 13  1  0  0  0  0
 13  9  1  0  0  0  0
  9 14  1  6  0  0  0
 12 15  1  6  0  0  0
 11 16  1  1  0  0  0
 13 17  1  1  0  0  0
  6 18  1  0  0  0  0
  4 19  1  0  0  0  0
 19 20  1  0  0  0  0
 19 21  2  0  0  0  0
 18 22  1  0  0  0  0
 16 23  1  0  0  0  0
 23 24  1  0  0  0  0
 24 25  1  0  0  0  0
 24 26  2  0  0  0  0
 25 27  2  0  0  0  0
 27 28  1  0  0  0  0
 28 29  2  0  0  0  0
 29 30  1  0  0  0  0
 30 31  2  0  0  0  0
 31 32  1  0  0  0  0
 32 33  2  0  0  0  0
 33 28  1  0  0  0  0
 31 34  1  0  0  0  0
 30 35  1  0  0  0  0
 35 36  1  0  0  0  0
 32 37  1  0  0  0  0
 37 38  1  0  0  0  0
M  END
>  <cdx:fragmentId>
5

$$$$
