177.cdx
  Mrv1902 05222410202D          

  3  2  0  0  0  0            999 V2000
    3.0931   -1.6846    0.0000 C   0  0  0  0  0  0  0  0  0  0  0  0
    2.3786   -2.0971    0.0000 C   0  0  0  0  0  0  0  0  0  0  0  0
    3.8075   -2.0971    0.0000 O   0  0  0  0  0  0  0  0  0  0  0  0
  1  2  1  0  0  0  0
  1  3  2  0  0  0  0
M  END
>  <cdx:groupId>
10

>  <cdx:fragmentId>
5

$$$$
