900179.cdx
  Mrv1902 05222410262D          

  6  5  0  0  0  0            999 V2000
    8.2038   -5.2052    0.0000 C   0  0  0  0  0  0  0  0  0  0  0  0
    7.4894   -4.7927    0.0000 C   0  0  0  0  0  0  0  0  0  0  0  0
    6.7749   -5.2052    0.0000 C   0  0  0  0  0  0  0  0  0  0  0  0
    6.0604   -4.7927    0.0000 C   0  0  0  0  0  0  0  0  0  0  0  0
    7.4894   -3.9677    0.0000 O   0  0  0  0  0  0  0  0  0  0  0  0
    6.7749   -6.0302    0.0000 O   0  0  0  0  0  0  0  0  0  0  0  0
  1  2  1  0  0  0  0
  2  3  1  0  0  0  0
  3  4  1  0  0  0  0
  2  5  2  0  0  0  0
  3  6  1  0  0  0  0
M  END
>  <cdx:fragmentId>
5

$$$$
