90010.cdx
  Mrv1902 05222410282D          

 39 42  0  0  0  0            999 V2000
    5.2137   -7.9464    0.0000 O   0  0  0  0  0  0  0  0  0  0  0  0
    4.5079   -8.3735    0.0000 C   0  0  2  0  0  0  0  0  0  0  0  0
    3.7851   -7.9758    0.0000 O   0  0  0  0  0  0  0  0  0  0  0  0
    3.0793   -8.4029    0.0000 C   0  0  1  0  0  0  0  0  0  0  0  0
    3.0962   -9.2277    0.0000 C   0  0  2  0  0  0  0  0  0  0  0  0
    3.8191   -9.6254    0.0000 C   0  0  1  0  0  0  0  0  0  0  0  0
    4.5249   -9.1983    0.0000 C   0  0  1  0  0  0  0  0  0  0  0  0
    3.8360  -10.4503    0.0000 O   0  0  0  0  0  0  0  0  0  0  0  0
    2.3565   -8.0052    0.0000 C   0  0  0  0  0  0  0  0  0  0  0  0
    2.3904   -9.6548    0.0000 O   0  0  0  0  0  0  0  0  0  0  0  0
    2.3395   -7.1804    0.0000 O   0  0  0  0  0  0  0  0  0  0  0  0
   10.2734  -10.7304    0.0000 O   0  0  0  0  0  0  0  0  0  0  0  0
    5.9282   -7.5339    0.0000 H   0  0  0  0  0  0  0  0  0  0  0  0
    5.9282   -5.0589    0.0000 H   0  0  0  0  0  0  0  0  0  0  0  0
    8.0228   -6.2964    0.0000 O   0  0  0  0  0  0  0  0  0  0  0  0
    8.1219  -10.3621    0.0000 C   0  0  0  0  0  0  0  0  0  0  0  0
    8.8448  -10.7598    0.0000 C   0  0  0  0  0  0  0  0  0  0  0  0
    9.5506  -10.3327    0.0000 C   0  0  0  0  0  0  0  0  0  0  0  0
    9.5336   -9.5079    0.0000 C   0  0  0  0  0  0  0  0  0  0  0  0
    8.8108   -9.1101    0.0000 C   0  0  0  0  0  0  0  0  0  0  0  0
    8.1050   -9.5373    0.0000 C   0  0  0  0  0  0  0  0  0  0  0  0
    7.3822   -9.1395    0.0000 C   0  0  0  0  0  0  0  0  0  0  0  0
    5.9366   -8.3441    0.0000 O   0  0  0  0  0  0  0  0  0  0  0  0
    6.6763   -9.5667    0.0000 C   0  0  0  0  0  0  0  0  0  0  0  0
    5.9535   -9.1689    0.0000 C   0  0  0  0  0  0  0  0  0  0  0  0
    5.2477   -9.5961    0.0000 O   0  0  0  0  0  0  0  0  0  0  0  0
    4.4993   -4.2339    0.0000 O   0  0  0  0  0  0  0  0  0  0  0  0
    5.9282   -4.2339    0.0000 O   0  0  0  0  0  0  0  0  0  0  0  0
    5.2137   -4.6464    0.0000 C   0  0  0  0  0  0  0  0  0  0  0  0
    6.9678   -7.7485    0.0000 C   0  0  0  0  0  0  0  0  0  0  0  0
    6.7128   -6.9638    0.0000 C   0  0  0  0  0  0  0  0  0  0  0  0
    7.1978   -6.2964    0.0000 C   0  0  2  0  0  0  0  0  0  0  0  0
    6.7128   -5.6290    0.0000 C   0  0  0  0  0  0  0  0  0  0  0  0
    5.2137   -5.4714    0.0000 C   0  0  0  0  0  0  0  0  0  0  0  0
    4.4993   -5.8839    0.0000 C   0  0  0  0  0  0  0  0  0  0  0  0
    4.4993   -6.7089    0.0000 O   0  0  0  0  0  0  0  0  0  0  0  0
    5.2137   -7.1214    0.0000 C   0  0  2  0  0  0  0  0  0  0  0  0
    5.9282   -6.7089    0.0000 C   0  0  1  0  0  0  0  0  0  0  0  0
    5.9282   -5.8839    0.0000 C   0  0  2  0  0  0  0  0  0  0  0  0
  2  1  1  1  0  0  0
  2  3  1  0  0  0  0
  3  4  1  0  0  0  0
  4  5  1  0  0  0  0
  5  6  1  0  0  0  0
  6  7  1  0  0  0  0
  7  2  1  0  0  0  0
  6  8  1  1  0  0  0
  4  9  1  1  0  0  0
  5 10  1  6  0  0  0
 18 12  1  0  0  0  0
  7 26  1  6  0  0  0
  9 11  1  0  0  0  0
 38 13  1  6  0  0  0
 39 14  1  6  0  0  0
 32 15  1  6  0  0  0
 16 21  1  0  0  0  0
 17 16  2  0  0  0  0
 18 17  1  0  0  0  0
 19 18  2  0  0  0  0
 20 19  1  0  0  0  0
 21 20  2  0  0  0  0
 22 21  1  0  0  0  0
 24 22  2  0  0  0  0
 25 23  2  0  0  0  0
 25 24  1  0  0  0  0
 26 25  1  0  0  0  0
 37  1  1  6  0  0  0
 29 27  1  0  0  0  0
 29 28  2  0  0  0  0
 34 29  1  0  0  0  0
 31 30  2  0  0  0  0
 31 38  1  0  0  0  0
 32 31  1  0  0  0  0
 33 32  1  0  0  0  0
 39 33  1  0  0  0  0
 34 39  1  0  0  0  0
 35 34  2  0  0  0  0
 36 35  1  0  0  0  0
 37 36  1  0  0  0  0
 38 37  1  0  0  0  0
 39 38  1  0  0  0  0
M  END
>  <cdx:fragmentId>
5

$$$$
