90017.cdx
  Mrv1902 05222410272D          

 27 29  0  0  0  0            999 V2000
    4.1368   -8.0151    0.0000 C   0  0  0  0  0  0  0  0  0  0  0  0
    4.1368   -8.8401    0.0000 C   0  0  0  0  0  0  0  0  0  0  0  0
    4.8513   -9.2526    0.0000 C   0  0  0  0  0  0  0  0  0  0  0  0
    5.5657   -8.8401    0.0000 C   0  0  0  0  0  0  0  0  0  0  0  0
    5.5657   -8.0151    0.0000 C   0  0  0  0  0  0  0  0  0  0  0  0
    4.8513   -7.6026    0.0000 C   0  0  0  0  0  0  0  0  0  0  0  0
    6.2802   -9.2526    0.0000 C   0  0  0  0  0  0  0  0  0  0  0  0
    6.9947   -8.8401    0.0000 C   0  0  0  0  0  0  0  0  0  0  0  0
    6.9947   -8.0151    0.0000 C   0  0  0  0  0  0  0  0  0  0  0  0
    6.2802   -7.6026    0.0000 O   0  0  0  0  0  0  0  0  0  0  0  0
    8.4236   -8.0151    0.0000 C   0  0  0  0  0  0  0  0  0  0  0  0
    7.7092   -7.6026    0.0000 C   0  0  0  0  0  0  0  0  0  0  0  0
    9.1381   -7.6026    0.0000 C   0  0  0  0  0  0  0  0  0  0  0  0
    9.1381   -6.7776    0.0000 C   0  0  0  0  0  0  0  0  0  0  0  0
    8.4236   -6.3651    0.0000 C   0  0  0  0  0  0  0  0  0  0  0  0
    7.7092   -6.7776    0.0000 C   0  0  0  0  0  0  0  0  0  0  0  0
    3.4223   -7.6026    0.0000 O   0  0  0  0  0  0  0  0  0  0  0  0
    2.7079   -8.0151    0.0000 C   0  0  0  0  0  0  0  0  0  0  0  0
    3.4223   -9.2526    0.0000 O   0  0  0  0  0  0  0  0  0  0  0  0
    3.4223  -10.0776    0.0000 C   0  0  0  0  0  0  0  0  0  0  0  0
    4.8513  -10.0776    0.0000 O   0  0  0  0  0  0  0  0  0  0  0  0
    5.5657  -10.4901    0.0000 C   0  0  0  0  0  0  0  0  0  0  0  0
    6.2802  -10.0776    0.0000 O   0  0  0  0  0  0  0  0  0  0  0  0
    9.8526   -6.3651    0.0000 O   0  0  0  0  0  0  0  0  0  0  0  0
    9.8526   -5.5401    0.0000 C   0  0  0  0  0  0  0  0  0  0  0  0
    9.8526   -8.0151    0.0000 O   0  0  0  0  0  0  0  0  0  0  0  0
   10.5670   -7.6026    0.0000 C   0  0  0  0  0  0  0  0  0  0  0  0
  1  2  2  0  0  0  0
  2  3  1  0  0  0  0
  3  4  2  0  0  0  0
  4  5  1  0  0  0  0
  5  6  2  0  0  0  0
  6  1  1  0  0  0  0
  4  7  1  0  0  0  0
  7  8  1  0  0  0  0
  8  9  2  0  0  0  0
  9 10  1  0  0  0  0
 10  5  1  0  0  0  0
 11 12  1  0  0  0  0
 12  9  1  0  0  0  0
 11 13  2  0  0  0  0
 13 14  1  0  0  0  0
 14 15  2  0  0  0  0
 15 16  1  0  0  0  0
 16 12  2  0  0  0  0
  1 17  1  0  0  0  0
 17 18  1  0  0  0  0
  2 19  1  0  0  0  0
 19 20  1  0  0  0  0
  3 21  1  0  0  0  0
 21 22  1  0  0  0  0
  7 23  2  0  0  0  0
 14 24  1  0  0  0  0
 24 25  1  0  0  0  0
 13 26  1  0  0  0  0
 26 27  1  0  0  0  0
M  END
>  <cdx:fragmentId>
5

$$$$
