900119.cdx
  Mrv1902 05222410232D          

  7  6  0  0  0  0            999 V2000
    6.2694   -4.2427    0.0000 C   0  0  0  0  0  0  0  0  0  0  0  0
    6.9838   -3.8302    0.0000 C   0  0  0  0  0  0  0  0  0  0  0  0
    7.6983   -4.2427    0.0000 C   0  0  0  0  0  0  0  0  0  0  0  0
    8.4128   -3.8302    0.0000 C   0  0  0  0  0  0  0  0  0  0  0  0
    6.2694   -5.0677    0.0000 O   0  0  0  0  0  0  0  0  0  0  0  0
    5.5549   -3.8302    0.0000 O   0  0  0  0  0  0  0  0  0  0  0  0
    9.1273   -4.2427    0.0000 N   0  0  0  0  0  0  0  0  0  0  0  0
  1  2  1  0  0  0  0
  2  3  1  0  0  0  0
  3  4  1  0  0  0  0
  1  5  2  0  0  0  0
  1  6  1  0  0  0  0
  4  7  1  0  0  0  0
M  END
>  <cdx:fragmentId>
5

$$$$
