107.cdx
  Mrv1902 05222410212D          

 11 11  0  0  0  0            999 V2000
    5.6925   -4.2416    0.0000 C   0  0  0  0  0  0  0  0  0  0  0  0
    4.9780   -4.6541    0.0000 C   0  0  0  0  0  0  0  0  0  0  0  0
    4.2636   -4.2416    0.0000 C   0  0  0  0  0  0  0  0  0  0  0  0
    5.6925   -3.4166    0.0000 O   0  0  0  0  0  0  0  0  0  0  0  0
    6.4070   -4.6541    0.0000 O   0  0  0  0  0  0  0  0  0  0  0  0
    3.5491   -4.6541    0.0000 C   0  0  0  0  0  0  0  0  0  0  0  0
    3.5491   -5.4791    0.0000 C   0  0  0  0  0  0  0  0  0  0  0  0
    2.8346   -5.8916    0.0000 C   0  0  0  0  0  0  0  0  0  0  0  0
    2.1202   -5.4791    0.0000 C   0  0  0  0  0  0  0  0  0  0  0  0
    2.1202   -4.6541    0.0000 C   0  0  0  0  0  0  0  0  0  0  0  0
    2.8346   -4.2416    0.0000 C   0  0  0  0  0  0  0  0  0  0  0  0
  1  2  1  0  0  0  0
  2  3  1  0  0  0  0
  1  4  2  0  0  0  0
  1  5  1  0  0  0  0
  6  7  1  0  0  0  0
  7  8  2  0  0  0  0
  8  9  1  0  0  0  0
  9 10  2  0  0  0  0
 10 11  1  0  0  0  0
  6 11  2  0  0  0  0
  3  6  1  0  0  0  0
M  END
>  <cdx:groupId>
35

>  <cdx:fragmentId>
15

$$$$
