900180.cdx
  Mrv1902 05222410282D          

  4  3  0  0  0  0            999 V2000
    7.5785   -4.4155    0.0000 C   0  0  0  0  0  0  0  0  0  0  0  0
    6.8640   -4.0030    0.0000 C   0  0  0  0  0  0  0  0  0  0  0  0
    6.1495   -4.4155    0.0000 C   0  0  0  0  0  0  0  0  0  0  0  0
    6.8640   -3.1780    0.0000 O   0  0  0  0  0  0  0  0  0  0  0  0
  1  2  1  0  0  0  0
  2  3  1  0  0  0  0
  2  4  2  0  0  0  0
M  END
>  <cdx:fragmentId>
5

$$$$
