900127.cdx
  Mrv1902 05222410242D          

 11 11  0  0  0  0            999 V2000
    8.0042   -3.2046    0.0000 C   0  0  0  0  0  0  0  0  0  0  0  0
    7.2897   -3.6171    0.0000 C   0  0  0  0  0  0  0  0  0  0  0  0
    8.0042   -2.3796    0.0000 O   0  0  0  0  0  0  0  0  0  0  0  0
    8.7187   -3.6171    0.0000 O   0  0  0  0  0  0  0  0  0  0  0  0
    6.5752   -3.2046    0.0000 C   0  0  0  0  0  0  0  0  0  0  0  0
    5.8608   -3.6171    0.0000 C   0  0  0  0  0  0  0  0  0  0  0  0
    5.1463   -3.2046    0.0000 C   0  0  0  0  0  0  0  0  0  0  0  0
    5.1463   -2.3796    0.0000 C   0  0  0  0  0  0  0  0  0  0  0  0
    5.8608   -1.9671    0.0000 C   0  0  0  0  0  0  0  0  0  0  0  0
    6.5752   -2.3796    0.0000 C   0  0  0  0  0  0  0  0  0  0  0  0
    4.4318   -1.9671    0.0000 O   0  0  0  0  0  0  0  0  0  0  0  0
  1  2  1  0  0  0  0
  1  3  2  0  0  0  0
  1  4  1  0  0  0  0
  5  6  1  0  0  0  0
  6  7  2  0  0  0  0
  7  8  1  0  0  0  0
  8  9  2  0  0  0  0
  9 10  1  0  0  0  0
  5 10  2  0  0  0  0
  8 11  1  0  0  0  0
  2  5  1  0  0  0  0
M  END
>  <cdx:fragmentId>
13

$$$$
