90013.cdx
  Mrv1902 05222410272D          

 17 17  0  0  0  0            999 V2000
    6.0481  -10.4489    0.0000 C   0  0  0  0  0  0  0  0  0  0  0  0
    6.0481  -11.2739    0.0000 C   0  0  0  0  0  0  0  0  0  0  0  0
    6.7625  -11.6864    0.0000 C   0  0  0  0  0  0  0  0  0  0  0  0
    7.4770  -11.2739    0.0000 C   0  0  0  0  0  0  0  0  0  0  0  0
    7.4770  -10.4489    0.0000 C   0  0  0  0  0  0  0  0  0  0  0  0
    6.7625  -10.0364    0.0000 C   0  0  0  0  0  0  0  0  0  0  0  0
    6.7625  -12.5114    0.0000 O   0  0  0  0  0  0  0  0  0  0  0  0
    5.3336  -11.6864    0.0000 O   0  0  0  0  0  0  0  0  0  0  0  0
    4.6191  -11.2739    0.0000 C   0  0  0  0  0  0  0  0  0  0  0  0
    8.1915  -11.6864    0.0000 O   0  0  0  0  0  0  0  0  0  0  0  0
    8.9059  -11.2739    0.0000 C   0  0  0  0  0  0  0  0  0  0  0  0
    6.7625   -9.2114    0.0000 C   0  0  0  0  0  0  0  0  0  0  0  0
    7.4770   -8.7989    0.0000 C   0  0  0  0  0  0  0  0  0  0  0  0
    7.4770   -7.9739    0.0000 C   0  0  0  0  0  0  0  0  0  0  0  0
    8.1915   -7.5614    0.0000 O   0  0  0  0  0  0  0  0  0  0  0  0
    6.7625   -7.5614    0.0000 O   0  0  0  0  0  0  0  0  0  0  0  0
    8.1915   -6.7364    0.0000 C   0  0  0  0  0  0  0  0  0  0  0  0
  1  2  2  0  0  0  0
  2  3  1  0  0  0  0
  3  4  2  0  0  0  0
  4  5  1  0  0  0  0
  5  6  2  0  0  0  0
  6  1  1  0  0  0  0
  3  7  1  0  0  0  0
  2  8  1  0  0  0  0
  8  9  1  0  0  0  0
  4 10  1  0  0  0  0
 10 11  1  0  0  0  0
  6 12  1  0  0  0  0
 12 13  2  0  0  0  0
 13 14  1  0  0  0  0
 14 15  1  0  0  0  0
 14 16  2  0  0  0  0
 15 17  1  0  0  0  0
M  END
>  <cdx:fragmentId>
5

$$$$
