261.cdx
  Mrv1902 05222410222D          

  5  4  0  0  0  0            999 V2000
    4.2692   -1.8496    0.0000 C   0  0  0  0  0  0  0  0  0  0  0  0
    4.9837   -2.2621    0.0000 C   0  0  0  0  0  0  0  0  0  0  0  0
    5.6982   -1.8496    0.0000 C   0  0  0  0  0  0  0  0  0  0  0  0
    6.4126   -2.2621    0.0000 C   0  0  0  0  0  0  0  0  0  0  0  0
    3.5547   -2.2621    0.0000 O   0  0  0  0  0  0  0  0  0  0  0  0
  1  2  1  0  0  0  0
  2  3  1  0  0  0  0
  3  4  1  0  0  0  0
  1  5  2  0  0  0  0
M  END
>  <cdx:groupId>
16

>  <cdx:fragmentId>
5

$$$$
