900288.cdx
  Mrv1902 05222410222D          

 11 10  0  0  0  0            999 V2000
    7.0567   -5.9725    0.0000 O   0  0  0  0  0  0  0  0  0  0  0  0
    4.9133   -5.5600    0.0000 C   0  0  0  0  0  0  0  0  0  0  0  0
    6.0403   -5.8620    0.0000 C   0  0  0  0  0  0  0  0  0  0  0  0
    5.2153   -4.4330    0.0000 C   0  0  0  0  0  0  0  0  0  0  0  0
    5.6278   -5.1475    0.0000 N   0  3  0  0  0  0  0  0  0  0  0  0
    9.2002   -4.7350    0.0000 O   0  5  0  0  0  0  0  0  0  0  0  0
    8.4857   -5.9725    0.0000 O   0  0  0  0  0  0  0  0  0  0  0  0
    6.3423   -4.7350    0.0000 C   0  0  0  0  0  0  0  0  0  0  0  0
    7.0567   -5.1475    0.0000 C   0  0  1  0  0  0  0  0  0  0  0  0
    7.7712   -4.7350    0.0000 C   0  0  0  0  0  0  0  0  0  0  0  0
    8.4857   -5.1475    0.0000 C   0  0  0  0  0  0  0  0  0  0  0  0
  9  1  1  1  0  0  0
  8  5  1  0  0  0  0
  5  2  1  0  0  0  0
  5  3  1  0  0  0  0
  5  4  1  0  0  0  0
 11  6  1  0  0  0  0
 11  7  2  0  0  0  0
  9  8  1  0  0  0  0
 10  9  1  0  0  0  0
 11 10  1  0  0  0  0
M  CHG  2   5   1   6  -1
M  END
>  <cdx:fragmentId>
8488

$$$$
