90027.cdx
  Mrv1902 05222410192D          

 44 47  0  0  0  0            999 V2000
    7.6293   -8.7301    0.0000 C   0  0  2  0  0  0  0  0  0  0  0  0
    7.6293   -9.5551    0.0000 C   0  0  2  0  0  0  0  0  0  0  0  0
    8.3438   -9.9676    0.0000 C   0  0  1  0  0  0  0  0  0  0  0  0
    9.0582   -9.5551    0.0000 C   0  0  2  0  0  0  0  0  0  0  0  0
    9.0582   -8.7301    0.0000 C   0  0  1  0  0  0  0  0  0  0  0  0
    8.3438   -8.3176    0.0000 O   0  0  0  0  0  0  0  0  0  0  0  0
    9.7727   -8.3176    0.0000 O   0  0  0  0  0  0  0  0  0  0  0  0
    9.7727   -7.4926    0.0000 C   0  0  2  0  0  0  0  0  0  0  0  0
    9.0582   -7.0801    0.0000 O   0  0  0  0  0  0  0  0  0  0  0  0
   10.4872   -7.0801    0.0000 C   0  0  1  0  0  0  0  0  0  0  0  0
   10.4872   -6.2551    0.0000 C   0  0  1  0  0  0  0  0  0  0  0  0
    9.7727   -5.8426    0.0000 C   0  0  0  0  0  0  0  0  0  0  0  0
    9.0582   -6.2551    0.0000 C   0  0  0  0  0  0  0  0  0  0  0  0
   11.2718   -7.3351    0.0000 C   0  0  0  0  0  0  0  0  0  0  0  0
   11.7567   -6.6676    0.0000 C   0  0  0  0  0  0  0  0  0  0  0  0
   11.2718   -6.0002    0.0000 C   0  0  0  0  0  0  0  0  0  0  0  0
    6.9148   -8.3176    0.0000 C   0  0  0  0  0  0  0  0  0  0  0  0
    6.2004   -8.7301    0.0000 O   0  0  0  0  0  0  0  0  0  0  0  0
    9.7727   -5.0176    0.0000 C   0  0  0  0  0  0  0  0  0  0  0  0
    9.0582   -4.6051    0.0000 O   0  0  0  0  0  0  0  0  0  0  0  0
   10.4872   -4.6051    0.0000 O   0  0  0  0  0  0  0  0  0  0  0  0
   11.5267   -8.1197    0.0000 C   0  0  0  0  0  0  0  0  0  0  0  0
    8.3438  -10.7926    0.0000 O   0  0  0  0  0  0  0  0  0  0  0  0
    6.9148   -9.9676    0.0000 O   0  0  0  0  0  0  0  0  0  0  0  0
    9.7727   -9.9676    0.0000 O   0  0  0  0  0  0  0  0  0  0  0  0
   10.5734   -7.9006    0.0000 H   0  0  0  0  0  0  0  0  0  0  0  0
   10.5734   -5.4347    0.0000 H   0  0  0  0  0  0  0  0  0  0  0  0
    5.4859   -8.3176    0.0000 C   0  0  0  0  0  0  0  0  0  0  0  0
    4.7714   -8.7301    0.0000 C   0  0  0  0  0  0  0  0  0  0  0  0
    5.4859   -7.4926    0.0000 O   0  0  0  0  0  0  0  0  0  0  0  0
    4.0569   -8.3176    0.0000 C   0  0  0  0  0  0  0  0  0  0  0  0
    3.3425   -8.7301    0.0000 C   0  0  0  0  0  0  0  0  0  0  0  0
    2.6280   -8.3176    0.0000 C   0  0  0  0  0  0  0  0  0  0  0  0
    1.9135   -8.7301    0.0000 C   0  0  0  0  0  0  0  0  0  0  0  0
    1.9135   -9.5551    0.0000 C   0  0  0  0  0  0  0  0  0  0  0  0
    2.6280   -9.9676    0.0000 C   0  0  0  0  0  0  0  0  0  0  0  0
    3.3425   -9.5551    0.0000 C   0  0  0  0  0  0  0  0  0  0  0  0
    1.1991   -9.9676    0.0000 O   0  0  0  0  0  0  0  0  0  0  0  0
    1.1991   -8.3176    0.0000 O   0  0  0  0  0  0  0  0  0  0  0  0
    1.1991   -7.4926    0.0000 C   0  0  0  0  0  0  0  0  0  0  0  0
    2.6280  -10.7926    0.0000 O   0  0  0  0  0  0  0  0  0  0  0  0
    3.3425  -11.2051    0.0000 C   0  0  0  0  0  0  0  0  0  0  0  0
    9.0582   -3.7801    0.0000 C   0  0  0  0  0  0  0  0  0  0  0  0
   12.3236   -8.3332    0.0000 O   0  0  0  0  0  0  0  0  0  0  0  0
  1  2  1  0  0  0  0
  2  3  1  0  0  0  0
  3  4  1  0  0  0  0
  4  5  1  0  0  0  0
  5  6  1  0  0  0  0
  6  1  1  0  0  0  0
  5  7  1  1  0  0  0
  8  7  1  6  0  0  0
  8  9  1  0  0  0  0
  8 10  1  0  0  0  0
 10 11  1  0  0  0  0
 11 12  1  0  0  0  0
 12 13  2  0  0  0  0
 13  9  1  0  0  0  0
 10 14  1  0  0  0  0
 14 15  2  0  0  0  0
 15 16  1  0  0  0  0
 16 11  1  0  0  0  0
  1 17  1  1  0  0  0
 17 18  1  0  0  0  0
 12 19  1  0  0  0  0
 19 20  1  0  0  0  0
 19 21  2  0  0  0  0
 14 22  1  0  0  0  0
  3 23  1  1  0  0  0
  2 24  1  6  0  0  0
  4 25  1  6  0  0  0
 10 26  1  6  0  0  0
 11 27  1  6  0  0  0
 18 28  1  0  0  0  0
 28 29  1  0  0  0  0
 28 30  2  0  0  0  0
 29 31  2  0  0  0  0
 31 32  1  0  0  0  0
 32 33  2  0  0  0  0
 33 34  1  0  0  0  0
 34 35  2  0  0  0  0
 35 36  1  0  0  0  0
 36 37  2  0  0  0  0
 37 32  1  0  0  0  0
 35 38  1  0  0  0  0
 34 39  1  0  0  0  0
 39 40  1  0  0  0  0
 36 41  1  0  0  0  0
 41 42  1  0  0  0  0
 20 43  1  0  0  0  0
 22 44  1  0  0  0  0
M  END
>  <cdx:fragmentId>
5

$$$$
