284.cdx
  Mrv1902 05222410232D          

  3  2  0  0  0  0            999 V2000
    2.5207   -1.5403    0.0000 C   0  0  0  0  0  0  0  0  0  0  0  0
    3.2351   -1.9528    0.0000 O   0  0  0  0  0  0  0  0  0  0  0  0
    1.8062   -1.9528    0.0000 O   0  0  0  0  0  0  0  0  0  0  0  0
  1  2  2  0  0  0  0
  1  3  1  0  0  0  0
M  END
>  <cdx:groupId>
10

>  <cdx:fragmentId>
5

$$$$
