277.cdx
  Mrv1902 05222410222D          

  4  3  0  0  0  0            999 V2000
   12.9940  -19.2169    0.0000 C   0  0  0  0  0  0  0  0  0  0  0  0
   12.2796  -19.6294    0.0000 N   0  0  0  0  0  0  0  0  0  0  0  0
   12.9940  -18.3919    0.0000 O   0  0  0  0  0  0  0  0  0  0  0  0
   13.7085  -19.6294    0.0000 O   0  0  0  0  0  0  0  0  0  0  0  0
  1  2  1  0  0  0  0
  1  3  2  0  0  0  0
  1  4  1  0  0  0  0
M  END
>  <cdx:fragmentId>
7057

$$$$
