239.cdx
  Mrv1902 05222410182D          

  6  5  0  0  0  0            999 V2000
    3.8782   -2.6601    0.0000 C   0  0  0  0  0  0  0  0  0  0  0  0
    3.1638   -3.0726    0.0000 C   0  0  0  0  0  0  0  0  0  0  0  0
    2.4493   -2.6601    0.0000 C   0  0  0  0  0  0  0  0  0  0  0  0
    3.8782   -1.8351    0.0000 O   0  0  0  0  0  0  0  0  0  0  0  0
    4.5927   -3.0726    0.0000 O   0  0  0  0  0  0  0  0  0  0  0  0
    1.7348   -3.0726    0.0000 N   0  0  0  0  0  0  0  0  0  0  0  0
  1  2  1  0  0  0  0
  2  3  1  0  0  0  0
  1  4  2  0  0  0  0
  1  5  1  0  0  0  0
  3  6  1  0  0  0  0
M  END
>  <cdx:groupId>
19

>  <cdx:fragmentId>
5

$$$$
