900280.cdx
  Mrv1902 05222410262D          

  3  2  0  0  0  0            999 V2000
    6.9534   -3.3482    0.0000 C   0  0  0  0  0  0  0  0  0  0  0  0
    7.7784   -3.3482    0.0000 O   0  0  0  0  0  0  0  0  0  0  0  0
    6.1284   -3.3482    0.0000 O   0  0  0  0  0  0  0  0  0  0  0  0
  1  2  2  0  0  0  0
  1  3  2  0  0  0  0
M  END
>  <cdx:groupId>
10

>  <cdx:fragmentId>
5

$$$$
