289.cdx
  Mrv1902 05222410232D          

  8  8  0  0  0  0            999 V2000
    3.9402   -2.0496    0.0000 C   0  0  0  0  0  0  0  0  0  0  0  0
    3.9402   -2.8746    0.0000 C   0  0  0  0  0  0  0  0  0  0  0  0
    3.2257   -3.2871    0.0000 C   0  0  0  0  0  0  0  0  0  0  0  0
    2.5112   -2.8746    0.0000 C   0  0  0  0  0  0  0  0  0  0  0  0
    2.5112   -2.0496    0.0000 C   0  0  0  0  0  0  0  0  0  0  0  0
    3.2257   -1.6371    0.0000 C   0  0  0  0  0  0  0  0  0  0  0  0
    4.6547   -1.6371    0.0000 O   0  0  0  0  0  0  0  0  0  0  0  0
    4.6547   -3.2871    0.0000 O   0  0  0  0  0  0  0  0  0  0  0  0
  1  2  1  0  0  0  0
  2  3  2  0  0  0  0
  3  4  1  0  0  0  0
  4  5  2  0  0  0  0
  5  6  1  0  0  0  0
  1  6  2  0  0  0  0
  1  7  1  0  0  0  0
  2  8  1  0  0  0  0
M  END
>  <cdx:groupId>
26

>  <cdx:fragmentId>
5

$$$$
