90024.cdx
  Mrv1902 05222410202D          

 51 55  0  0  0  0            999 V2000
   11.1375  -11.3846    0.0000 C   0  0  1  0  0  0  0  0  0  0  0  0
   11.8520  -10.9721    0.0000 C   0  0  1  0  0  0  0  0  0  0  0  0
   11.8520  -10.1471    0.0000 C   0  0  1  0  0  0  0  0  0  0  0  0
   11.1375   -9.7346    0.0000 C   0  0  0  0  0  0  0  0  0  0  0  0
   10.4230  -10.1471    0.0000 C   0  0  0  0  0  0  0  0  0  0  0  0
   10.4230  -10.9721    0.0000 O   0  0  0  0  0  0  0  0  0  0  0  0
   12.6366   -9.8922    0.0000 C   0  0  0  0  0  0  0  0  0  0  0  0
   13.1215  -10.5596    0.0000 C   0  0  0  0  0  0  0  0  0  0  0  0
   12.6366  -11.2271    0.0000 C   0  0  0  0  0  0  0  0  0  0  0  0
   11.1375   -8.9096    0.0000 C   0  0  0  0  0  0  0  0  0  0  0  0
   11.8520   -8.4971    0.0000 O   0  0  0  0  0  0  0  0  0  0  0  0
   10.4230   -8.4971    0.0000 O   0  0  0  0  0  0  0  0  0  0  0  0
   11.1375  -12.2096    0.0000 O   0  0  0  0  0  0  0  0  0  0  0  0
    9.7086  -12.2096    0.0000 O   0  0  0  0  0  0  0  0  0  0  0  0
   10.4230  -12.6221    0.0000 C   0  0  2  0  0  0  0  0  0  0  0  0
   10.4230  -13.4471    0.0000 C   0  0  1  0  0  0  0  0  0  0  0  0
    9.7086  -13.8596    0.0000 C   0  0  2  0  0  0  0  0  0  0  0  0
    8.9941  -13.4471    0.0000 C   0  0  1  0  0  0  0  0  0  0  0  0
    8.9941  -12.6221    0.0000 C   0  0  1  0  0  0  0  0  0  0  0  0
    8.2796  -12.2096    0.0000 C   0  0  0  0  0  0  0  0  0  0  0  0
    7.5651  -12.6221    0.0000 O   0  0  0  0  0  0  0  0  0  0  0  0
    8.2796  -13.8596    0.0000 O   0  0  0  0  0  0  0  0  0  0  0  0
    9.7086  -14.6846    0.0000 O   0  0  0  0  0  0  0  0  0  0  0  0
   11.1375  -13.8596    0.0000 O   0  0  0  0  0  0  0  0  0  0  0  0
   12.8915  -12.0117    0.0000 C   0  0  0  0  0  0  0  0  0  0  0  0
   13.6985  -12.1832    0.0000 O   0  0  0  0  0  0  0  0  0  0  0  0
   11.9382   -9.3266    0.0000 H   0  0  0  0  0  0  0  0  0  0  0  0
   11.9382  -11.7926    0.0000 H   0  0  0  0  0  0  0  0  0  0  0  0
   10.4230   -7.6721    0.0000 C   0  0  0  0  0  0  0  0  0  0  0  0
    6.8507  -12.2096    0.0000 C   0  0  2  0  0  0  0  0  0  0  0  0
    6.8507  -11.3846    0.0000 O   0  0  0  0  0  0  0  0  0  0  0  0
    6.1362  -10.9721    0.0000 C   0  0  1  0  0  0  0  0  0  0  0  0
    5.4217  -11.3846    0.0000 C   0  0  2  0  0  0  0  0  0  0  0  0
    5.4217  -12.2096    0.0000 C   0  0  1  0  0  0  0  0  0  0  0  0
    6.1362  -12.6221    0.0000 C   0  0  1  0  0  0  0  0  0  0  0  0
    6.1362  -10.1471    0.0000 C   0  0  0  0  0  0  0  0  0  0  0  0
    4.7073  -12.6221    0.0000 O   0  0  0  0  0  0  0  0  0  0  0  0
    6.1362  -13.4471    0.0000 O   0  0  0  0  0  0  0  0  0  0  0  0
    4.7073  -10.9721    0.0000 O   0  0  0  0  0  0  0  0  0  0  0  0
    5.4217   -9.7346    0.0000 O   0  0  0  0  0  0  0  0  0  0  0  0
    5.4217   -8.9096    0.0000 C   0  0  0  0  0  0  0  0  0  0  0  0
    6.1362   -8.4971    0.0000 O   0  0  0  0  0  0  0  0  0  0  0  0
    4.7073   -8.4971    0.0000 C   0  0  0  0  0  0  0  0  0  0  0  0
    4.7073   -7.6721    0.0000 C   0  0  0  0  0  0  0  0  0  0  0  0
    3.9928   -7.2596    0.0000 C   0  0  0  0  0  0  0  0  0  0  0  0
    3.9928   -6.4346    0.0000 C   0  0  0  0  0  0  0  0  0  0  0  0
    3.2783   -6.0221    0.0000 C   0  0  0  0  0  0  0  0  0  0  0  0
    2.5638   -6.4346    0.0000 C   0  0  0  0  0  0  0  0  0  0  0  0
    2.5638   -7.2596    0.0000 C   0  0  0  0  0  0  0  0  0  0  0  0
    3.2783   -7.6721    0.0000 C   0  0  0  0  0  0  0  0  0  0  0  0
    1.8494   -6.0221    0.0000 O   0  0  0  0  0  0  0  0  0  0  0  0
  1  2  1  0  0  0  0
  2  3  1  0  0  0  0
  3  4  1  0  0  0  0
  4  5  2  0  0  0  0
  5  6  1  0  0  0  0
  1  6  1  0  0  0  0
  7  8  1  0  0  0  0
  8  9  2  0  0  0  0
  2  9  1  0  0  0  0
  3  7  1  0  0  0  0
 10 11  2  0  0  0  0
 10 12  1  0  0  0  0
  4 10  1  0  0  0  0
 14 15  1  0  0  0  0
 15 16  1  0  0  0  0
 16 17  1  0  0  0  0
 17 18  1  0  0  0  0
 18 19  1  0  0  0  0
 14 19  1  0  0  0  0
 20 21  1  0  0  0  0
 19 20  1  1  0  0  0
 18 22  1  6  0  0  0
 17 23  1  1  0  0  0
 16 24  1  6  0  0  0
 15 13  1  1  0  0  0
  1 13  1  6  0  0  0
 25 26  1  0  0  0  0
  9 25  1  0  0  0  0
  3 27  1  6  0  0  0
  2 28  1  6  0  0  0
 12 29  1  0  0  0  0
 30 21  1  1  0  0  0
 30 31  1  0  0  0  0
 31 32  1  0  0  0  0
 32 33  1  0  0  0  0
 33 34  1  0  0  0  0
 34 35  1  0  0  0  0
 35 30  1  0  0  0  0
 32 36  1  1  0  0  0
 34 37  1  1  0  0  0
 35 38  1  6  0  0  0
 33 39  1  6  0  0  0
 36 40  1  0  0  0  0
 40 41  1  0  0  0  0
 41 42  2  0  0  0  0
 41 43  1  0  0  0  0
 43 44  2  0  0  0  0
 44 45  1  0  0  0  0
 45 46  2  0  0  0  0
 46 47  1  0  0  0  0
 47 48  2  0  0  0  0
 48 49  1  0  0  0  0
 49 50  2  0  0  0  0
 50 45  1  0  0  0  0
 48 51  1  0  0  0  0
M  END
>  <cdx:fragmentId>
5002

$$$$
