900242.cdx
  Mrv1902 05222410252D          

  9  9  0  0  0  0            999 V2000
    8.1228   -5.1670    0.0000 C   0  0  0  0  0  0  0  0  0  0  0  0
    7.4083   -5.5795    0.0000 C   0  0  0  0  0  0  0  0  0  0  0  0
    6.6939   -5.1670    0.0000 C   0  0  0  0  0  0  0  0  0  0  0  0
    5.9794   -5.5795    0.0000 C   0  0  0  0  0  0  0  0  0  0  0  0
    5.9794   -6.4045    0.0000 C   0  0  0  0  0  0  0  0  0  0  0  0
    6.6939   -6.8170    0.0000 C   0  0  0  0  0  0  0  0  0  0  0  0
    7.4083   -6.4045    0.0000 C   0  0  0  0  0  0  0  0  0  0  0  0
    8.1228   -4.3420    0.0000 O   0  0  0  0  0  0  0  0  0  0  0  0
    8.8373   -5.5795    0.0000 O   0  5  0  0  0  0  0  0  0  0  0  0
  1  2  1  0  0  0  0
  2  3  1  0  0  0  0
  3  4  2  0  0  0  0
  4  5  1  0  0  0  0
  5  6  2  0  0  0  0
  6  7  1  0  0  0  0
  2  7  2  0  0  0  0
  1  8  2  0  0  0  0
  1  9  1  0  0  0  0
M  CHG  1   9  -1
M  END
>  <cdx:groupId>
29

>  <cdx:fragmentId>
5

$$$$
