900204.cdx
  Mrv1902 05222410182D          

 11 11  0  0  0  0            999 V2000
    7.3277   -3.9700    0.0000 N   0  0  0  0  0  0  0  0  0  0  0  0
    8.0421   -3.5575    0.0000 C   0  0  0  0  0  0  0  0  0  0  0  0
    8.0421   -2.7325    0.0000 O   0  0  0  0  0  0  0  0  0  0  0  0
    8.7566   -3.9700    0.0000 N   0  0  0  0  0  0  0  0  0  0  0  0
    5.3075   -3.2799    0.0000 C   0  0  0  0  0  0  0  0  0  0  0  0
    5.8595   -3.8930    0.0000 N   0  0  0  0  0  0  0  0  0  0  0  0
    6.6132   -3.5575    0.0000 C   0  0  0  0  0  0  0  0  0  0  0  0
    6.5270   -2.7370    0.0000 C   0  0  0  0  0  0  0  0  0  0  0  0
    5.7200   -2.5655    0.0000 N   0  0  0  0  0  0  0  0  0  0  0  0
    7.1400   -2.1850    0.0000 O   0  0  0  0  0  0  0  0  0  0  0  0
    4.4870   -3.3662    0.0000 O   0  0  0  0  0  0  0  0  0  0  0  0
  1  2  1  0  0  0  0
  2  3  2  0  0  0  0
  2  4  1  0  0  0  0
  5  6  1  0  0  0  0
  6  7  1  0  0  0  0
  7  8  1  0  0  0  0
  8  9  1  0  0  0  0
  5  9  1  0  0  0  0
  8 10  2  0  0  0  0
  5 11  2  0  0  0  0
  1  7  1  0  0  0  0
M  END
>  <cdx:fragmentId>
13

$$$$
