90021.cdx
  Mrv1902 05222410182D          

 26 28  0  0  0  0            999 V2000
   11.4333   -7.6611    0.0000 C   0  0  0  0  0  0  0  0  0  0  0  0
   10.7188   -7.2486    0.0000 O   0  0  0  0  0  0  0  0  0  0  0  0
    8.5754   -6.0111    0.0000 C   0  0  0  0  0  0  0  0  0  0  0  0
    9.2899   -6.4236    0.0000 O   0  0  0  0  0  0  0  0  0  0  0  0
   10.0044   -8.4861    0.0000 C   0  0  0  0  0  0  0  0  0  0  0  0
   10.0044   -7.6611    0.0000 C   0  0  0  0  0  0  0  0  0  0  0  0
    9.2899   -7.2486    0.0000 C   0  0  0  0  0  0  0  0  0  0  0  0
    8.5754   -7.6611    0.0000 C   0  0  0  0  0  0  0  0  0  0  0  0
    9.2899   -8.8986    0.0000 C   0  0  0  0  0  0  0  0  0  0  0  0
    8.5754   -8.4861    0.0000 C   0  0  0  0  0  0  0  0  0  0  0  0
    5.7175  -10.9611    0.0000 O   0  0  0  0  0  0  0  0  0  0  0  0
    7.1465  -10.9611    0.0000 O   0  0  0  0  0  0  0  0  0  0  0  0
    4.2886   -8.4861    0.0000 O   0  0  0  0  0  0  0  0  0  0  0  0
    3.5741   -8.8986    0.0000 C   0  0  0  0  0  0  0  0  0  0  0  0
    7.1465  -10.1361    0.0000 C   0  0  0  0  0  0  0  0  0  0  0  0
    7.8609   -9.7236    0.0000 C   0  0  0  0  0  0  0  0  0  0  0  0
    7.8609   -8.8986    0.0000 C   0  0  0  0  0  0  0  0  0  0  0  0
    7.1465   -8.4861    0.0000 O   0  0  0  0  0  0  0  0  0  0  0  0
    5.7175  -10.1361    0.0000 C   0  0  0  0  0  0  0  0  0  0  0  0
    6.4320   -9.7236    0.0000 C   0  0  0  0  0  0  0  0  0  0  0  0
    6.4320   -8.8986    0.0000 C   0  0  0  0  0  0  0  0  0  0  0  0
    5.7175   -8.4861    0.0000 C   0  0  0  0  0  0  0  0  0  0  0  0
    5.0031   -8.8986    0.0000 C   0  0  0  0  0  0  0  0  0  0  0  0
    5.0031   -9.7236    0.0000 C   0  0  0  0  0  0  0  0  0  0  0  0
   10.7188   -8.8986    0.0000 O   0  0  0  0  0  0  0  0  0  0  0  0
   10.7188   -9.7236    0.0000 C   0  0  0  0  0  0  0  0  0  0  0  0
  2  1  1  0  0  0  0
  6  2  1  0  0  0  0
  4  3  1  0  0  0  0
  7  4  1  0  0  0  0
  5  9  2  0  0  0  0
  6  5  1  0  0  0  0
  7  6  2  0  0  0  0
  8  7  1  0  0  0  0
 10  8  2  0  0  0  0
 10  9  1  0  0  0  0
 17 10  1  0  0  0  0
 11 19  1  0  0  0  0
 15 12  2  0  0  0  0
 13 23  1  0  0  0  0
 14 13  1  0  0  0  0
 15 20  1  0  0  0  0
 16 15  1  0  0  0  0
 17 16  2  0  0  0  0
 18 17  1  0  0  0  0
 21 18  1  0  0  0  0
 19 24  1  0  0  0  0
 20 19  2  0  0  0  0
 21 20  1  0  0  0  0
 22 21  2  0  0  0  0
 23 22  1  0  0  0  0
 24 23  2  0  0  0  0
  5 25  1  0  0  0  0
 25 26  1  0  0  0  0
M  END
>  <cdx:fragmentId>
5

$$$$
