900241.cdx
  Mrv1902 05222410242D          

  6  6  0  0  0  0            999 V2000
    7.4095   -8.0650    0.0000 C   0  0  0  0  0  0  0  0  0  0  0  0
    6.6950   -8.4775    0.0000 C   0  0  0  0  0  0  0  0  0  0  0  0
    5.9805   -8.0650    0.0000 C   0  0  0  0  0  0  0  0  0  0  0  0
    5.9805   -7.2400    0.0000 C   0  0  0  0  0  0  0  0  0  0  0  0
    6.6950   -6.8275    0.0000 C   0  0  0  0  0  0  0  0  0  0  0  0
    7.4095   -7.2400    0.0000 C   0  0  0  0  0  0  0  0  0  0  0  0
  1  2  1  0  0  0  0
  2  3  2  0  0  0  0
  3  4  1  0  0  0  0
  4  5  2  0  0  0  0
  5  6  1  0  0  0  0
  1  6  2  0  0  0  0
M  END
>  <cdx:fragmentId>
1900

$$$$
