90022.cdx
  Mrv1902 05222410192D          

 42 45  0  0  0  0            999 V2000
   10.3400   -6.6821    0.0000 C   0  0  1  0  0  0  0  0  0  0  0  0
   11.0545   -6.2696    0.0000 C   0  0  1  0  0  0  0  0  0  0  0  0
   11.0545   -5.4446    0.0000 C   0  0  1  0  0  0  0  0  0  0  0  0
   10.3400   -5.0321    0.0000 C   0  0  0  0  0  0  0  0  0  0  0  0
    9.6255   -5.4446    0.0000 C   0  0  0  0  0  0  0  0  0  0  0  0
    9.6255   -6.2696    0.0000 O   0  0  0  0  0  0  0  0  0  0  0  0
   11.8391   -5.1897    0.0000 C   0  0  2  0  0  0  0  0  0  0  0  0
   12.3240   -5.8571    0.0000 C   0  0  0  0  0  0  0  0  0  0  0  0
   11.8391   -6.5246    0.0000 C   0  0  0  0  0  0  0  0  0  0  0  0
   10.3400   -4.2071    0.0000 C   0  0  0  0  0  0  0  0  0  0  0  0
   11.0545   -3.7946    0.0000 O   0  0  0  0  0  0  0  0  0  0  0  0
    9.6255   -3.7946    0.0000 O   0  0  0  0  0  0  0  0  0  0  0  0
   10.3400   -7.5071    0.0000 O   0  0  0  0  0  0  0  0  0  0  0  0
    8.9111   -7.5071    0.0000 O   0  0  0  0  0  0  0  0  0  0  0  0
    9.6255   -7.9196    0.0000 C   0  0  2  0  0  0  0  0  0  0  0  0
    9.6255   -8.7446    0.0000 C   0  0  1  0  0  0  0  0  0  0  0  0
    8.9111   -9.1571    0.0000 C   0  0  2  0  0  0  0  0  0  0  0  0
    8.1966   -8.7446    0.0000 C   0  0  1  0  0  0  0  0  0  0  0  0
    8.1966   -7.9196    0.0000 C   0  0  1  0  0  0  0  0  0  0  0  0
    7.4821   -7.5071    0.0000 C   0  0  0  0  0  0  0  0  0  0  0  0
    6.7676   -7.9196    0.0000 O   0  0  0  0  0  0  0  0  0  0  0  0
    7.4821   -9.1571    0.0000 O   0  0  0  0  0  0  0  0  0  0  0  0
    8.9111   -9.9821    0.0000 O   0  0  0  0  0  0  0  0  0  0  0  0
   10.3400   -9.1571    0.0000 O   0  0  0  0  0  0  0  0  0  0  0  0
   12.0940   -7.3092    0.0000 C   0  0  0  0  0  0  0  0  0  0  0  0
   12.9010   -7.4807    0.0000 O   0  0  0  0  0  0  0  0  0  0  0  0
   11.1407   -4.6241    0.0000 H   0  0  0  0  0  0  0  0  0  0  0  0
   11.1407   -7.0901    0.0000 H   0  0  0  0  0  0  0  0  0  0  0  0
    9.6255   -2.9696    0.0000 C   0  0  0  0  0  0  0  0  0  0  0  0
   12.0940   -4.4051    0.0000 O   0  0  0  0  0  0  0  0  0  0  0  0
    6.0532   -7.5071    0.0000 C   0  0  0  0  0  0  0  0  0  0  0  0
    5.3387   -7.9196    0.0000 C   0  0  0  0  0  0  0  0  0  0  0  0
    6.0532   -6.6821    0.0000 O   0  0  0  0  0  0  0  0  0  0  0  0
    4.6242   -7.5071    0.0000 C   0  0  0  0  0  0  0  0  0  0  0  0
    3.9098   -7.9196    0.0000 C   0  0  0  0  0  0  0  0  0  0  0  0
    3.1953   -7.5071    0.0000 C   0  0  0  0  0  0  0  0  0  0  0  0
    2.4808   -7.9196    0.0000 C   0  0  0  0  0  0  0  0  0  0  0  0
    2.4808   -8.7446    0.0000 C   0  0  0  0  0  0  0  0  0  0  0  0
    3.1953   -9.1571    0.0000 C   0  0  0  0  0  0  0  0  0  0  0  0
    3.9098   -8.7446    0.0000 C   0  0  0  0  0  0  0  0  0  0  0  0
    1.7663   -7.5071    0.0000 O   0  0  0  0  0  0  0  0  0  0  0  0
    1.7663   -9.1571    0.0000 O   0  0  0  0  0  0  0  0  0  0  0  0
  1  2  1  0  0  0  0
  2  3  1  0  0  0  0
  3  4  1  0  0  0  0
  4  5  2  0  0  0  0
  5  6  1  0  0  0  0
  1  6  1  0  0  0  0
  7  8  1  0  0  0  0
  8  9  2  0  0  0  0
  2  9  1  0  0  0  0
  3  7  1  0  0  0  0
 10 11  2  0  0  0  0
 10 12  1  0  0  0  0
  4 10  1  0  0  0  0
 14 15  1  0  0  0  0
 15 16  1  0  0  0  0
 16 17  1  0  0  0  0
 17 18  1  0  0  0  0
 18 19  1  0  0  0  0
 14 19  1  0  0  0  0
 20 21  1  0  0  0  0
 19 20  1  1  0  0  0
 18 22  1  6  0  0  0
 17 23  1  1  0  0  0
 16 24  1  6  0  0  0
 15 13  1  1  0  0  0
  1 13  1  6  0  0  0
 25 26  1  0  0  0  0
  9 25  1  0  0  0  0
  3 27  1  6  0  0  0
  2 28  1  6  0  0  0
 12 29  1  0  0  0  0
  7 30  1  1  0  0  0
 21 31  1  0  0  0  0
 31 32  1  0  0  0  0
 31 33  2  0  0  0  0
 32 34  2  0  0  0  0
 34 35  1  0  0  0  0
 35 36  2  0  0  0  0
 36 37  1  0  0  0  0
 37 38  2  0  0  0  0
 38 39  1  0  0  0  0
 39 40  2  0  0  0  0
 40 35  1  0  0  0  0
 37 41  1  0  0  0  0
 38 42  1  0  0  0  0
M  END
>  <cdx:fragmentId>
5002

$$$$
