243.cdx
  Mrv1902 05222410262D          

  9  9  0  0  0  0            999 V2000
    3.4312   -1.9729    0.0000 C   0  0  0  0  0  0  0  0  0  0  0  0
    2.7167   -2.3854    0.0000 C   0  0  0  0  0  0  0  0  0  0  0  0
    2.0022   -1.9729    0.0000 C   0  0  0  0  0  0  0  0  0  0  0  0
    1.2878   -2.3854    0.0000 C   0  0  0  0  0  0  0  0  0  0  0  0
    1.2878   -3.2104    0.0000 C   0  0  0  0  0  0  0  0  0  0  0  0
    2.0022   -3.6229    0.0000 C   0  0  0  0  0  0  0  0  0  0  0  0
    2.7167   -3.2104    0.0000 C   0  0  0  0  0  0  0  0  0  0  0  0
    3.4312   -1.1479    0.0000 O   0  0  0  0  0  0  0  0  0  0  0  0
    4.1456   -2.3854    0.0000 O   0  0  0  0  0  0  0  0  0  0  0  0
  1  2  1  0  0  0  0
  2  3  1  0  0  0  0
  3  4  2  0  0  0  0
  4  5  1  0  0  0  0
  5  6  2  0  0  0  0
  6  7  1  0  0  0  0
  2  7  2  0  0  0  0
  1  8  2  0  0  0  0
  1  9  1  0  0  0  0
M  END
>  <cdx:groupId>
29

>  <cdx:fragmentId>
5

$$$$
