90028.cdx
  Mrv1902 05222410262D          

 52 56  0  0  0  0            999 V2000
    0.8381   -9.3056    0.0000 O   0  0  0  0  0  0  0  0  0  0  0  0
    2.2683  -10.1285    0.0000 O   0  0  0  0  0  0  0  0  0  0  0  0
    2.2609   -5.1785    0.0000 O   0  0  0  0  0  0  0  0  0  0  0  0
    2.9760   -5.5900    0.0000 C   0  0  0  0  0  0  0  0  0  0  0  0
    2.9772   -6.4150    0.0000 C   0  0  0  0  0  0  0  0  0  0  0  0
    2.2634   -6.8285    0.0000 C   0  0  0  0  0  0  0  0  0  0  0  0
    2.9809   -8.8900    0.0000 C   0  0  0  0  0  0  0  0  0  0  0  0
    2.9797   -8.0650    0.0000 C   0  0  0  0  0  0  0  0  0  0  0  0
    2.2646   -7.6535    0.0000 C   0  0  0  0  0  0  0  0  0  0  0  0
    1.5507   -8.0671    0.0000 C   0  0  0  0  0  0  0  0  0  0  0  0
    1.5520   -8.8921    0.0000 C   0  0  0  0  0  0  0  0  0  0  0  0
    2.2671   -9.3035    0.0000 C   0  0  0  0  0  0  0  0  0  0  0  0
    8.7071   -8.8837    0.0000 O   0  0  0  0  0  0  0  0  0  0  0  0
    7.2782   -3.9337    0.0000 O   0  0  0  0  0  0  0  0  0  0  0  0
    4.4203   -3.9337    0.0000 O   0  0  0  0  0  0  0  0  0  0  0  0
   10.1360   -5.5837    0.0000 C   0  0  2  0  0  0  0  0  0  0  0  0
    9.4216   -5.1712    0.0000 O   0  0  0  0  0  0  0  0  0  0  0  0
    5.8492   -3.1087    0.0000 O   0  0  0  0  0  0  0  0  0  0  0  0
    3.7058   -5.1712    0.0000 O   0  0  0  0  0  0  0  0  0  0  0  0
   10.8505   -5.1712    0.0000 C   0  0  1  0  0  0  0  0  0  0  0  0
   10.8505   -4.3462    0.0000 C   0  0  1  0  0  0  0  0  0  0  0  0
   10.1360   -3.9337    0.0000 C   0  0  0  0  0  0  0  0  0  0  0  0
    9.4216   -4.3462    0.0000 C   0  0  0  0  0  0  0  0  0  0  0  0
   11.6351   -5.4262    0.0000 C   0  0  0  0  0  0  0  0  0  0  0  0
   12.1201   -4.7587    0.0000 C   0  0  0  0  0  0  0  0  0  0  0  0
   11.6351   -4.0913    0.0000 C   0  0  0  0  0  0  0  0  0  0  0  0
   10.1360   -3.1087    0.0000 C   0  0  0  0  0  0  0  0  0  0  0  0
   10.8505   -2.6962    0.0000 O   0  0  0  0  0  0  0  0  0  0  0  0
    9.4216   -2.6962    0.0000 O   0  0  0  0  0  0  0  0  0  0  0  0
    9.4216   -1.8712    0.0000 C   0  0  0  0  0  0  0  0  0  0  0  0
   11.8901   -6.2108    0.0000 C   0  0  0  0  0  0  0  0  0  0  0  0
   12.6970   -6.3823    0.0000 O   0  0  0  0  0  0  0  0  0  0  0  0
    4.4203   -5.5837    0.0000 C   0  0  0  0  0  0  0  0  0  0  0  0
   10.1360   -8.0587    0.0000 O   0  0  0  0  0  0  0  0  0  0  0  0
   10.1360   -6.4087    0.0000 O   0  0  0  0  0  0  0  0  0  0  0  0
    8.7071   -8.0587    0.0000 C   0  0  2  0  0  0  0  0  0  0  0  0
    9.4216   -7.6462    0.0000 C   0  0  2  0  0  0  0  0  0  0  0  0
    9.4216   -6.8212    0.0000 C   0  0  1  0  0  0  0  0  0  0  0  0
    8.7071   -6.4087    0.0000 O   0  0  0  0  0  0  0  0  0  0  0  0
    7.2782   -8.0587    0.0000 O   0  0  0  0  0  0  0  0  0  0  0  0
    7.9926   -7.6462    0.0000 C   0  0  2  0  0  0  0  0  0  0  0  0
    7.9926   -6.8212    0.0000 C   0  0  1  0  0  0  0  0  0  0  0  0
    7.2782   -6.4087    0.0000 C   0  0  0  0  0  0  0  0  0  0  0  0
    7.2782   -5.5837    0.0000 O   0  0  0  0  0  0  0  0  0  0  0  0
    5.8492   -5.5837    0.0000 O   0  0  0  0  0  0  0  0  0  0  0  0
    6.5637   -5.1712    0.0000 C   0  0  2  0  0  0  0  0  0  0  0  0
   10.8505   -3.5212    0.0000 H   0  0  0  0  0  0  0  0  0  0  0  0
   10.8505   -5.9962    0.0000 H   0  0  0  0  0  0  0  0  0  0  0  0
    6.5637   -4.3462    0.0000 C   0  0  1  0  0  0  0  0  0  0  0  0
    5.8492   -3.9337    0.0000 C   0  0  2  0  0  0  0  0  0  0  0  0
    5.1347   -4.3462    0.0000 C   0  0  1  0  0  0  0  0  0  0  0  0
    5.1347   -5.1712    0.0000 C   0  0  1  0  0  0  0  0  0  0  0  0
 11  1  1  0  0  0  0
 12  2  1  0  0  0  0
  4 19  1  0  0  0  0
  4  3  2  0  0  0  0
  5  4  1  0  0  0  0
  6  5  2  0  0  0  0
  9  6  1  0  0  0  0
  7 12  1  0  0  0  0
  8  7  2  0  0  0  0
  9  8  1  0  0  0  0
 10  9  2  0  0  0  0
 11 10  1  0  0  0  0
 12 11  2  0  0  0  0
 36 13  1  1  0  0  0
 49 14  1  1  0  0  0
 51 15  1  1  0  0  0
 50 18  1  6  0  0  0
 33 19  1  0  0  0  0
 16 35  1  6  0  0  0
 16 17  1  0  0  0  0
 16 20  1  0  0  0  0
 20 21  1  0  0  0  0
 21 22  1  0  0  0  0
 22 23  2  0  0  0  0
 23 17  1  0  0  0  0
 20 24  1  0  0  0  0
 24 25  2  0  0  0  0
 25 26  1  0  0  0  0
 26 21  1  0  0  0  0
 22 27  1  0  0  0  0
 27 28  2  0  0  0  0
 27 29  1  0  0  0  0
 29 30  1  0  0  0  0
 24 31  1  0  0  0  0
 31 32  1  0  0  0  0
 52 33  1  6  0  0  0
 37 34  1  6  0  0  0
 38 35  1  1  0  0  0
 36 41  1  0  0  0  0
 37 36  1  0  0  0  0
 38 37  1  0  0  0  0
 39 38  1  0  0  0  0
 42 39  1  0  0  0  0
 41 40  1  6  0  0  0
 42 41  1  0  0  0  0
 42 43  1  1  0  0  0
 44 43  1  0  0  0  0
 46 44  1  6  0  0  0
 45 52  1  0  0  0  0
 46 45  1  0  0  0  0
 49 46  1  0  0  0  0
 50 49  1  0  0  0  0
 51 50  1  0  0  0  0
 52 51  1  0  0  0  0
 21 47  1  6  0  0  0
 20 48  1  6  0  0  0
M  END
>  <cdx:fragmentId>
5

$$$$
