90037.cdx
  Mrv1902 05222410182D          

 16 16  0  0  0  0            999 V2000
    4.8243   -8.9089    0.0000 C   0  0  0  0  0  0  0  0  0  0  0  0
    4.8243   -9.7339    0.0000 C   0  0  0  0  0  0  0  0  0  0  0  0
    5.5388  -10.1464    0.0000 C   0  0  0  0  0  0  0  0  0  0  0  0
    6.2532   -9.7339    0.0000 C   0  0  0  0  0  0  0  0  0  0  0  0
    6.2532   -8.9089    0.0000 C   0  0  0  0  0  0  0  0  0  0  0  0
    5.5388   -8.4964    0.0000 C   0  0  0  0  0  0  0  0  0  0  0  0
    4.1098  -10.1464    0.0000 O   0  0  0  0  0  0  0  0  0  0  0  0
    5.5388  -10.9714    0.0000 O   0  0  0  0  0  0  0  0  0  0  0  0
    6.9677   -8.4964    0.0000 C   0  0  0  0  0  0  0  0  0  0  0  0
    7.6822   -8.9089    0.0000 C   0  0  0  0  0  0  0  0  0  0  0  0
    8.3967   -8.4964    0.0000 C   0  0  0  0  0  0  0  0  0  0  0  0
    7.6822   -9.7339    0.0000 O   0  0  0  0  0  0  0  0  0  0  0  0
    9.1111   -8.9089    0.0000 O   0  0  0  0  0  0  0  0  0  0  0  0
    8.3967   -7.6714    0.0000 O   0  0  0  0  0  0  0  0  0  0  0  0
    9.8256   -8.4964    0.0000 C   0  0  0  0  0  0  0  0  0  0  0  0
    6.9677   -7.6714    0.0000 O   0  0  0  0  0  0  0  0  0  0  0  0
  1  2  2  0  0  0  0
  2  3  1  0  0  0  0
  3  4  2  0  0  0  0
  4  5  1  0  0  0  0
  5  6  2  0  0  0  0
  6  1  1  0  0  0  0
  2  7  1  0  0  0  0
  3  8  1  0  0  0  0
  5  9  1  0  0  0  0
  9 10  1  0  0  0  0
 10 11  1  0  0  0  0
 10 12  1  0  0  0  0
 11 13  1  0  0  0  0
 11 14  2  0  0  0  0
 13 15  1  0  0  0  0
  9 16  1  0  0  0  0
M  END
>  <cdx:fragmentId>
5

$$$$
