90031.cdx
  Mrv1902 05222410202D          

 39 42  0  0  0  0            999 V2000
    5.6356   -9.8989    0.0000 O   0  0  0  0  0  0  0  0  0  0  0  0
    6.3500  -11.1364    0.0000 O   0  0  0  0  0  0  0  0  0  0  0  0
    7.0645  -10.7239    0.0000 C   0  0  2  0  0  0  0  0  0  0  0  0
    7.0645   -9.8989    0.0000 C   0  0  1  0  0  0  0  0  0  0  0  0
    6.3500   -9.4864    0.0000 C   0  0  0  0  0  0  0  0  0  0  0  0
    7.7790  -11.1364    0.0000 C   0  0  1  0  0  0  0  0  0  0  0  0
    8.4934  -10.7239    0.0000 C   0  0  2  0  0  0  0  0  0  0  0  0
    8.4934   -9.8989    0.0000 C   0  0  1  0  0  0  0  0  0  0  0  0
    7.7790   -9.4864    0.0000 O   0  0  0  0  0  0  0  0  0  0  0  0
    9.2079   -9.4864    0.0000 O   0  0  0  0  0  0  0  0  0  0  0  0
    9.2079   -8.6614    0.0000 C   0  0  2  0  0  0  0  0  0  0  0  0
    8.4934   -8.2489    0.0000 O   0  0  0  0  0  0  0  0  0  0  0  0
    9.9224   -8.2489    0.0000 C   0  0  1  0  0  0  0  0  0  0  0  0
    9.9224   -7.4239    0.0000 C   0  0  1  0  0  0  0  0  0  0  0  0
    9.2079   -7.0114    0.0000 C   0  0  0  0  0  0  0  0  0  0  0  0
    8.4934   -7.4239    0.0000 C   0  0  0  0  0  0  0  0  0  0  0  0
   10.7070   -8.5038    0.0000 C   0  0  0  0  0  0  0  0  0  0  0  0
   11.1919   -7.8364    0.0000 C   0  0  0  0  0  0  0  0  0  0  0  0
   10.7070   -7.1690    0.0000 C   0  0  0  0  0  0  0  0  0  0  0  0
   10.9619   -9.2885    0.0000 C   0  0  0  0  0  0  0  0  0  0  0  0
   11.7588   -9.5020    0.0000 O   0  0  0  0  0  0  0  0  0  0  0  0
    9.2079   -6.1864    0.0000 C   0  0  0  0  0  0  0  0  0  0  0  0
    8.4934   -5.7739    0.0000 O   0  0  0  0  0  0  0  0  0  0  0  0
    9.9224   -5.7739    0.0000 O   0  0  0  0  0  0  0  0  0  0  0  0
    7.7790  -11.9614    0.0000 O   0  0  0  0  0  0  0  0  0  0  0  0
    9.2079  -11.1364    0.0000 O   0  0  0  0  0  0  0  0  0  0  0  0
   10.0086   -9.0694    0.0000 H   0  0  0  0  0  0  0  0  0  0  0  0
   10.0086   -6.6034    0.0000 H   0  0  0  0  0  0  0  0  0  0  0  0
    4.9211   -9.4864    0.0000 C   0  0  0  0  0  0  0  0  0  0  0  0
    4.2066   -9.8989    0.0000 C   0  0  0  0  0  0  0  0  0  0  0  0
    4.9211   -8.6614    0.0000 O   0  0  0  0  0  0  0  0  0  0  0  0
    3.4921   -9.4864    0.0000 C   0  0  0  0  0  0  0  0  0  0  0  0
    2.7777   -9.8989    0.0000 C   0  0  0  0  0  0  0  0  0  0  0  0
    2.7777  -10.7239    0.0000 C   0  0  0  0  0  0  0  0  0  0  0  0
    2.0632  -11.1364    0.0000 C   0  0  0  0  0  0  0  0  0  0  0  0
    1.3487  -10.7239    0.0000 C   0  0  0  0  0  0  0  0  0  0  0  0
    1.3487   -9.8989    0.0000 C   0  0  0  0  0  0  0  0  0  0  0  0
    2.0632   -9.4864    0.0000 C   0  0  0  0  0  0  0  0  0  0  0  0
    0.6343  -11.1364    0.0000 O   0  0  0  0  0  0  0  0  0  0  0  0
  3  2  1  6  0  0  0
  3  4  1  0  0  0  0
  4  5  1  1  0  0  0
  5  1  1  0  0  0  0
  3  6  1  0  0  0  0
  6  7  1  0  0  0  0
  7  8  1  0  0  0  0
  8  9  1  0  0  0  0
  9  4  1  0  0  0  0
  8 10  1  1  0  0  0
 11 10  1  6  0  0  0
 11 12  1  0  0  0  0
 11 13  1  0  0  0  0
 13 14  1  0  0  0  0
 14 15  1  0  0  0  0
 15 16  2  0  0  0  0
 16 12  1  0  0  0  0
 13 17  1  0  0  0  0
 17 18  2  0  0  0  0
 18 19  1  0  0  0  0
 19 14  1  0  0  0  0
 17 20  1  0  0  0  0
 20 21  1  0  0  0  0
 15 22  1  0  0  0  0
 22 23  1  0  0  0  0
 22 24  2  0  0  0  0
  6 25  1  1  0  0  0
  7 26  1  6  0  0  0
 13 27  1  6  0  0  0
 14 28  1  6  0  0  0
  1 29  1  0  0  0  0
 29 30  1  0  0  0  0
 29 31  2  0  0  0  0
 30 32  2  0  0  0  0
 32 33  1  0  0  0  0
 33 34  2  0  0  0  0
 34 35  1  0  0  0  0
 35 36  2  0  0  0  0
 36 37  1  0  0  0  0
 37 38  2  0  0  0  0
 38 33  1  0  0  0  0
 36 39  1  0  0  0  0
M  END
>  <cdx:fragmentId>
5

$$$$
