90034.cdx
  Mrv1902 05222410182D          

 55 59  0  0  0  0            999 V2000
    5.5386  -10.5989    0.0000 C   0  0  2  0  0  0  0  0  0  0  0  0
    4.8236  -11.0105    0.0000 C   0  0  2  0  0  0  0  0  0  0  0  0
    4.8226  -11.8355    0.0000 C   0  0  1  0  0  0  0  0  0  0  0  0
    5.5366  -12.2489    0.0000 C   0  0  2  0  0  0  0  0  0  0  0  0
    6.2515  -11.8373    0.0000 C   0  0  1  0  0  0  0  0  0  0  0  0
    6.2526  -11.0123    0.0000 O   0  0  0  0  0  0  0  0  0  0  0  0
    6.9655  -12.2507    0.0000 O   0  0  0  0  0  0  0  0  0  0  0  0
    5.5396   -9.7739    0.0000 C   0  0  0  0  0  0  0  0  0  0  0  0
    4.8257   -9.3605    0.0000 O   0  0  0  0  0  0  0  0  0  0  0  0
    4.1076  -12.2471    0.0000 O   0  0  0  0  0  0  0  0  0  0  0  0
    4.1097  -10.5971    0.0000 O   0  0  0  0  0  0  0  0  0  0  0  0
    5.5355  -13.0739    0.0000 O   0  0  0  0  0  0  0  0  0  0  0  0
    4.8267   -8.5355    0.0000 C   0  0  0  0  0  0  0  0  0  0  0  0
    4.1127   -8.1221    0.0000 C   0  0  0  0  0  0  0  0  0  0  0  0
    5.5417   -8.1239    0.0000 O   0  0  0  0  0  0  0  0  0  0  0  0
    4.1138   -7.2971    0.0000 C   0  0  0  0  0  0  0  0  0  0  0  0
    3.3998   -6.8837    0.0000 C   0  0  0  0  0  0  0  0  0  0  0  0
    3.4008   -6.0587    0.0000 C   0  0  0  0  0  0  0  0  0  0  0  0
    2.6869   -5.6453    0.0000 C   0  0  0  0  0  0  0  0  0  0  0  0
    1.9719   -6.0570    0.0000 C   0  0  0  0  0  0  0  0  0  0  0  0
    1.9709   -6.8820    0.0000 C   0  0  0  0  0  0  0  0  0  0  0  0
    2.6848   -7.2953    0.0000 C   0  0  0  0  0  0  0  0  0  0  0  0
    1.2579   -5.6436    0.0000 O   0  0  0  0  0  0  0  0  0  0  0  0
    2.6879   -4.8203    0.0000 O   0  0  0  0  0  0  0  0  0  0  0  0
    3.4029   -4.4087    0.0000 C   0  0  0  0  0  0  0  0  0  0  0  0
    1.2559   -7.2936    0.0000 O   0  0  0  0  0  0  0  0  0  0  0  0
    1.2549   -8.1186    0.0000 C   0  0  0  0  0  0  0  0  0  0  0  0
    7.6805  -11.8390    0.0000 C   0  0  0  0  0  0  0  0  0  0  0  0
    8.3944  -12.2524    0.0000 C   0  0  2  0  0  0  0  0  0  0  0  0
    8.3934  -13.0774    0.0000 C   0  0  2  0  0  0  0  0  0  0  0  0
    9.1074  -13.4908    0.0000 C   0  0  1  0  0  0  0  0  0  0  0  0
    9.8224  -13.0792    0.0000 C   0  0  2  0  0  0  0  0  0  0  0  0
    9.8234  -12.2542    0.0000 C   0  0  1  0  0  0  0  0  0  0  0  0
    9.1094  -11.8408    0.0000 O   0  0  0  0  0  0  0  0  0  0  0  0
   10.5384  -11.8426    0.0000 O   0  0  0  0  0  0  0  0  0  0  0  0
    9.1064  -14.3158    0.0000 O   0  0  0  0  0  0  0  0  0  0  0  0
    7.6784  -13.4890    0.0000 O   0  0  0  0  0  0  0  0  0  0  0  0
   10.5363  -13.4926    0.0000 O   0  0  0  0  0  0  0  0  0  0  0  0
   10.5394  -11.0176    0.0000 C   0  0  1  0  0  0  0  0  0  0  0  0
   11.2544  -10.6060    0.0000 C   0  0  1  0  0  0  0  0  0  0  0  0
   11.2554   -9.7810    0.0000 C   0  0  1  0  0  0  0  0  0  0  0  0
   10.5414   -9.3676    0.0000 C   0  0  0  0  0  0  0  0  0  0  0  0
    9.8265   -9.7792    0.0000 C   0  0  0  0  0  0  0  0  0  0  0  0
    9.8254  -10.6042    0.0000 O   0  0  0  0  0  0  0  0  0  0  0  0
   12.0387  -10.8619    0.0000 C   0  0  0  0  0  0  0  0  0  0  0  0
   12.5244  -10.1951    0.0000 C   0  0  0  0  0  0  0  0  0  0  0  0
   12.0403   -9.5270    0.0000 C   0  0  0  0  0  0  0  0  0  0  0  0
   10.5425   -8.5426    0.0000 C   0  0  0  0  0  0  0  0  0  0  0  0
    9.8285   -8.1292    0.0000 O   0  0  0  0  0  0  0  0  0  0  0  0
   11.2574   -8.1310    0.0000 O   0  0  0  0  0  0  0  0  0  0  0  0
    9.8295   -7.3042    0.0000 C   0  0  0  0  0  0  0  0  0  0  0  0
   12.2926  -11.6468    0.0000 C   0  0  0  0  0  0  0  0  0  0  0  0
   13.0994  -11.8194    0.0000 O   0  0  0  0  0  0  0  0  0  0  0  0
   11.3426   -8.9606    0.0000 H   0  0  0  0  0  0  0  0  0  0  0  0
   11.3396  -11.4266    0.0000 H   0  0  0  0  0  0  0  0  0  0  0  0
  1  2  1  0  0  0  0
  2  3  1  0  0  0  0
  3  4  1  0  0  0  0
  4  5  1  0  0  0  0
  5  6  1  0  0  0  0
  6  1  1  0  0  0  0
  5  7  1  1  0  0  0
  1  8  1  1  0  0  0
  8  9  1  0  0  0  0
  3 10  1  1  0  0  0
  2 11  1  6  0  0  0
  4 12  1  6  0  0  0
  9 13  1  0  0  0  0
 13 14  1  0  0  0  0
 13 15  2  0  0  0  0
 14 16  2  0  0  0  0
 16 17  1  0  0  0  0
 17 18  2  0  0  0  0
 18 19  1  0  0  0  0
 19 20  2  0  0  0  0
 20 21  1  0  0  0  0
 21 22  2  0  0  0  0
 22 17  1  0  0  0  0
 20 23  1  0  0  0  0
 19 24  1  0  0  0  0
 24 25  1  0  0  0  0
 21 26  1  0  0  0  0
 26 27  1  0  0  0  0
  7 28  1  0  0  0  0
 29 28  1  1  0  0  0
 29 30  1  0  0  0  0
 30 31  1  0  0  0  0
 31 32  1  0  0  0  0
 32 33  1  0  0  0  0
 33 34  1  0  0  0  0
 34 29  1  0  0  0  0
 33 35  1  1  0  0  0
 31 36  1  1  0  0  0
 30 37  1  6  0  0  0
 32 38  1  6  0  0  0
 39 35  1  6  0  0  0
 39 40  1  0  0  0  0
 40 41  1  0  0  0  0
 41 42  1  0  0  0  0
 42 43  2  0  0  0  0
 43 44  1  0  0  0  0
 44 39  1  0  0  0  0
 40 45  1  0  0  0  0
 45 46  2  0  0  0  0
 46 47  1  0  0  0  0
 47 41  1  0  0  0  0
 42 48  1  0  0  0  0
 48 49  1  0  0  0  0
 48 50  2  0  0  0  0
 49 51  1  0  0  0  0
 45 52  1  0  0  0  0
 52 53  1  0  0  0  0
 41 54  1  6  0  0  0
 40 55  1  6  0  0  0
M  END
>  <cdx:fragmentId>
5

$$$$
