90038.cdx
  Mrv1902 05222410282D          

 30 33  0  0  0  0            999 V2000
    7.7447   -6.7846    0.0000 C   0  0  0  0  0  0  0  0  0  0  0  0
    7.0342   -7.2038    0.0000 C   0  0  0  0  0  0  0  0  0  0  0  0
    7.0420   -8.0288    0.0000 O   0  0  0  0  0  0  0  0  0  0  0  0
    7.7603   -8.4345    0.0000 C   0  0  2  0  0  0  0  0  0  0  0  0
    8.4709   -8.0153    0.0000 C   0  0  1  0  0  0  0  0  0  0  0  0
    8.4631   -7.1904    0.0000 C   0  0  2  0  0  0  0  0  0  0  0  0
    9.2579   -8.2628    0.0000 C   0  0  2  0  0  0  0  0  0  0  0  0
    9.7365   -7.5908    0.0000 C   0  0  2  0  0  0  0  0  0  0  0  0
    9.2453   -6.9280    0.0000 C   0  0  0  0  0  0  0  0  0  0  0  0
    9.5202   -9.0450    0.0000 C   0  0  0  0  0  0  0  0  0  0  0  0
   10.3288   -9.2089    0.0000 O   0  0  0  0  0  0  0  0  0  0  0  0
    7.7370   -5.9597    0.0000 C   0  0  0  0  0  0  0  0  0  0  0  0
    7.0186   -5.5539    0.0000 O   0  0  0  0  0  0  0  0  0  0  0  0
    8.4475   -5.5404    0.0000 O   0  0  0  0  0  0  0  0  0  0  0  0
    7.0108   -4.7290    0.0000 C   0  0  0  0  0  0  0  0  0  0  0  0
    7.7681   -9.2595    0.0000 O   0  0  0  0  0  0  0  0  0  0  0  0
    5.6280   -9.7024    0.0000 C   0  0  2  0  0  0  0  0  0  0  0  0
    5.6387  -10.5274    0.0000 C   0  0  2  0  0  0  0  0  0  0  0  0
    6.3585  -10.9306    0.0000 C   0  0  1  0  0  0  0  0  0  0  0  0
    7.0675  -10.5088    0.0000 C   0  0  2  0  0  0  0  0  0  0  0  0
    7.0568   -9.6839    0.0000 C   0  0  1  0  0  0  0  0  0  0  0  0
    6.3371   -9.2807    0.0000 O   0  0  0  0  0  0  0  0  0  0  0  0
    4.9083   -9.2992    0.0000 C   0  0  0  0  0  0  0  0  0  0  0  0
    6.3692  -11.7555    0.0000 O   0  0  0  0  0  0  0  0  0  0  0  0
    4.9297  -10.9491    0.0000 O   0  0  0  0  0  0  0  0  0  0  0  0
    7.7873  -10.9120    0.0000 O   0  0  0  0  0  0  0  0  0  0  0  0
    4.1992   -9.7210    0.0000 O   0  0  0  0  0  0  0  0  0  0  0  0
   10.0670   -8.3510    0.0000 O   0  0  0  0  0  0  0  0  0  0  0  0
    8.4553   -6.3654    0.0000 H   0  0  0  0  0  0  0  0  0  0  0  0
    8.4787   -8.8403    0.0000 H   0  0  0  0  0  0  0  0  0  0  0  0
  1  2  2  0  0  0  0
  2  3  1  0  0  0  0
  3  4  1  0  0  0  0
  4  5  1  0  0  0  0
  5  6  1  0  0  0  0
  6  1  1  0  0  0  0
  5  7  1  0  0  0  0
  7  8  1  0  0  0  0
  8  9  1  0  0  0  0
  9  6  1  0  0  0  0
  7 10  1  6  0  0  0
 10 11  1  0  0  0  0
  1 12  1  0  0  0  0
 12 13  1  0  0  0  0
 12 14  2  0  0  0  0
 13 15  1  0  0  0  0
  4 16  1  6  0  0  0
 17 18  1  0  0  0  0
 18 19  1  0  0  0  0
 19 20  1  0  0  0  0
 20 21  1  0  0  0  0
 21 22  1  0  0  0  0
 22 17  1  0  0  0  0
 17 23  1  1  0  0  0
 19 24  1  1  0  0  0
 18 25  1  6  0  0  0
 20 26  1  6  0  0  0
 23 27  1  0  0  0  0
 21 16  1  1  0  0  0
  7 28  1  1  0  0  0
  8 28  1  6  0  0  0
  6 29  1  6  0  0  0
  5 30  1  6  0  0  0
M  END
>  <cdx:fragmentId>
5

$$$$
