900341.cdx
  Mrv1902 05222410282D          

 23 24  0  0  0  0            999 V2000
    4.3540   -5.5558    0.0000 C   0  0  0  0  0  0  0  0  0  0  0  0
    5.0685   -5.9683    0.0000 C   0  0  0  0  0  0  0  0  0  0  0  0
    5.0685   -6.7933    0.0000 C   0  0  0  0  0  0  0  0  0  0  0  0
    5.7829   -7.2058    0.0000 C   0  0  0  0  0  0  0  0  0  0  0  0
    6.4974   -6.7933    0.0000 C   0  0  0  0  0  0  0  0  0  0  0  0
    6.4974   -5.9683    0.0000 C   0  0  0  0  0  0  0  0  0  0  0  0
    5.7829   -5.5558    0.0000 C   0  0  0  0  0  0  0  0  0  0  0  0
    4.3540   -4.7308    0.0000 O   0  0  0  0  0  0  0  0  0  0  0  0
    3.6395   -5.9683    0.0000 O   0  0  0  0  0  0  0  0  0  0  0  0
    7.2119   -5.5558    0.0000 O   0  0  0  0  0  0  0  0  0  0  0  0
    7.9263   -5.9683    0.0000 C   0  0  0  0  0  0  0  0  0  0  0  0
    8.6408   -5.5558    0.0000 C   0  0  0  0  0  0  0  0  0  0  0  0
    9.3553   -5.9683    0.0000 C   0  0  0  0  0  0  0  0  0  0  0  0
   10.0698   -5.5558    0.0000 C   0  0  0  0  0  0  0  0  0  0  0  0
   10.0698   -4.7308    0.0000 C   0  0  0  0  0  0  0  0  0  0  0  0
    9.3553   -4.3183    0.0000 C   0  0  0  0  0  0  0  0  0  0  0  0
    8.6408   -4.7308    0.0000 C   0  0  0  0  0  0  0  0  0  0  0  0
    7.9263   -6.7933    0.0000 O   0  0  0  0  0  0  0  0  0  0  0  0
    9.3553   -3.4933    0.0000 O   0  0  0  0  0  0  0  0  0  0  0  0
   10.7842   -4.3183    0.0000 O   0  0  0  0  0  0  0  0  0  0  0  0
   10.7842   -5.9683    0.0000 O   0  0  0  0  0  0  0  0  0  0  0  0
    7.2119   -7.2058    0.0000 O   0  0  0  0  0  0  0  0  0  0  0  0
    5.7829   -8.0308    0.0000 O   0  0  0  0  0  0  0  0  0  0  0  0
  1  2  1  0  0  0  0
  2  3  1  0  0  0  0
  3  4  2  0  0  0  0
  4  5  1  0  0  0  0
  5  6  2  0  0  0  0
  6  7  1  0  0  0  0
  2  7  2  0  0  0  0
  1  8  2  0  0  0  0
  1  9  1  0  0  0  0
 11 12  1  0  0  0  0
 12 13  1  0  0  0  0
 13 14  2  0  0  0  0
 14 15  1  0  0  0  0
 15 16  2  0  0  0  0
 16 17  1  0  0  0  0
 12 17  2  0  0  0  0
 11 18  2  0  0  0  0
 16 19  1  0  0  0  0
 15 20  1  0  0  0  0
 14 21  1  0  0  0  0
 10 11  1  0  0  0  0
  6 10  1  0  0  0  0
  5 22  1  0  0  0  0
  4 23  1  0  0  0  0
M  END
>  <cdx:fragmentId>
25

$$$$
