90033.cdx
  Mrv1902 05222410192D          

 43 46  0  0  0  0            999 V2000
    7.9593   -9.2251    0.0000 C   0  0  2  0  0  0  0  0  0  0  0  0
    7.9593  -10.0501    0.0000 C   0  0  2  0  0  0  0  0  0  0  0  0
    8.6738  -10.4626    0.0000 C   0  0  1  0  0  0  0  0  0  0  0  0
    9.3882  -10.0501    0.0000 C   0  0  2  0  0  0  0  0  0  0  0  0
    9.3882   -9.2251    0.0000 C   0  0  1  0  0  0  0  0  0  0  0  0
    8.6738   -8.8126    0.0000 O   0  0  0  0  0  0  0  0  0  0  0  0
   10.1027   -8.8126    0.0000 O   0  0  0  0  0  0  0  0  0  0  0  0
   10.1027   -7.9876    0.0000 C   0  0  2  0  0  0  0  0  0  0  0  0
    9.3882   -7.5751    0.0000 O   0  0  0  0  0  0  0  0  0  0  0  0
   10.8172   -7.5751    0.0000 C   0  0  1  0  0  0  0  0  0  0  0  0
   10.8172   -6.7501    0.0000 C   0  0  1  0  0  0  0  0  0  0  0  0
   10.1027   -6.3376    0.0000 C   0  0  0  0  0  0  0  0  0  0  0  0
    9.3882   -6.7501    0.0000 C   0  0  0  0  0  0  0  0  0  0  0  0
   11.6018   -7.8301    0.0000 C   0  0  0  0  0  0  0  0  0  0  0  0
   12.0867   -7.1626    0.0000 C   0  0  2  0  0  0  0  0  0  0  0  0
   11.6018   -6.4952    0.0000 C   0  0  0  0  0  0  0  0  0  0  0  0
   10.1027   -5.5126    0.0000 C   0  0  0  0  0  0  0  0  0  0  0  0
    9.3882   -5.1001    0.0000 O   0  0  0  0  0  0  0  0  0  0  0  0
   10.8172   -5.1001    0.0000 O   0  0  0  0  0  0  0  0  0  0  0  0
   11.8567   -8.6147    0.0000 C   0  0  0  0  0  0  0  0  0  0  0  0
    7.2448   -8.8126    0.0000 C   0  0  0  0  0  0  0  0  0  0  0  0
    6.5304   -9.2251    0.0000 O   0  0  0  0  0  0  0  0  0  0  0  0
    8.6738  -11.2876    0.0000 O   0  0  0  0  0  0  0  0  0  0  0  0
    7.2448  -10.4626    0.0000 O   0  0  0  0  0  0  0  0  0  0  0  0
   10.1027  -10.4626    0.0000 O   0  0  0  0  0  0  0  0  0  0  0  0
   10.9034   -8.3956    0.0000 H   0  0  0  0  0  0  0  0  0  0  0  0
   10.9034   -5.9297    0.0000 H   0  0  0  0  0  0  0  0  0  0  0  0
   12.9117   -7.1626    0.0000 O   0  0  0  0  0  0  0  0  0  0  0  0
    5.8159   -8.8126    0.0000 C   0  0  0  0  0  0  0  0  0  0  0  0
    5.1014   -9.2251    0.0000 C   0  0  0  0  0  0  0  0  0  0  0  0
    5.8159   -7.9876    0.0000 O   0  0  0  0  0  0  0  0  0  0  0  0
    4.3869   -8.8126    0.0000 C   0  0  0  0  0  0  0  0  0  0  0  0
    3.6725   -9.2251    0.0000 C   0  0  0  0  0  0  0  0  0  0  0  0
    2.9580   -8.8126    0.0000 C   0  0  0  0  0  0  0  0  0  0  0  0
    2.2435   -9.2251    0.0000 C   0  0  0  0  0  0  0  0  0  0  0  0
    2.2435  -10.0501    0.0000 C   0  0  0  0  0  0  0  0  0  0  0  0
    2.9580  -10.4626    0.0000 C   0  0  0  0  0  0  0  0  0  0  0  0
    3.6725  -10.0501    0.0000 C   0  0  0  0  0  0  0  0  0  0  0  0
    1.5291  -10.4626    0.0000 O   0  0  0  0  0  0  0  0  0  0  0  0
    1.5291   -8.8126    0.0000 O   0  0  0  0  0  0  0  0  0  0  0  0
    1.5291   -7.9876    0.0000 C   0  0  0  0  0  0  0  0  0  0  0  0
    2.9580  -11.2876    0.0000 O   0  0  0  0  0  0  0  0  0  0  0  0
    3.6725  -11.7001    0.0000 C   0  0  0  0  0  0  0  0  0  0  0  0
  1  2  1  0  0  0  0
  2  3  1  0  0  0  0
  3  4  1  0  0  0  0
  4  5  1  0  0  0  0
  5  6  1  0  0  0  0
  6  1  1  0  0  0  0
  5  7  1  1  0  0  0
  8  7  1  6  0  0  0
  8  9  1  0  0  0  0
  8 10  1  0  0  0  0
 10 11  1  0  0  0  0
 11 12  1  0  0  0  0
 12 13  2  0  0  0  0
 13  9  1  0  0  0  0
 10 14  1  0  0  0  0
 14 15  1  0  0  0  0
 15 16  1  0  0  0  0
 16 11  1  0  0  0  0
 12 17  1  0  0  0  0
 17 18  1  0  0  0  0
 17 19  2  0  0  0  0
 14 20  2  0  0  0  0
  1 21  1  1  0  0  0
 21 22  1  0  0  0  0
  3 23  1  1  0  0  0
  2 24  1  6  0  0  0
  4 25  1  6  0  0  0
 10 26  1  6  0  0  0
 11 27  1  6  0  0  0
 15 28  1  6  0  0  0
 22 29  1  0  0  0  0
 29 30  1  0  0  0  0
 29 31  2  0  0  0  0
 30 32  2  0  0  0  0
 32 33  1  0  0  0  0
 33 34  2  0  0  0  0
 34 35  1  0  0  0  0
 35 36  2  0  0  0  0
 36 37  1  0  0  0  0
 37 38  2  0  0  0  0
 38 33  1  0  0  0  0
 36 39  1  0  0  0  0
 35 40  1  0  0  0  0
 40 41  1  0  0  0  0
 37 42  1  0  0  0  0
 42 43  1  0  0  0  0
M  END
>  <cdx:fragmentId>
5

$$$$
