900305.cdx
  Mrv1902 05222410212D          

  7  6  0  0  0  0            999 V2000
    7.8490   -8.2679    0.0000 N   0  3  0  0  0  0  0  0  0  0  0  0
    8.5634   -7.8554    0.0000 C   0  0  0  0  0  0  0  0  0  0  0  0
    7.1345   -8.6804    0.0000 C   0  0  0  0  0  0  0  0  0  0  0  0
    6.4200   -8.2679    0.0000 C   0  0  0  0  0  0  0  0  0  0  0  0
    5.7055   -8.6804    0.0000 O   0  0  0  0  0  0  0  0  0  0  0  0
    7.4365   -7.5534    0.0000 C   0  0  0  0  0  0  0  0  0  0  0  0
    8.2615   -8.9823    0.0000 C   0  0  0  0  0  0  0  0  0  0  0  0
  1  2  1  0  0  0  0
  3  4  1  0  0  0  0
  4  5  1  0  0  0  0
  1  3  1  0  0  0  0
  1  6  1  0  0  0  0
  1  7  1  0  0  0  0
M  CHG  1   1   1
M  END
>  <cdx:fragmentId>
5

$$$$
