311.cdx
  Mrv1902 05222410212D          

 13 12  0  0  0  0            999 V2000
    5.2272   -4.0296    0.0000 C   0  0  0  0  0  0  0  0  0  0  0  0
    4.5127   -3.6171    0.0000 C   0  0  0  0  0  0  0  0  0  0  0  0
    3.7983   -4.0296    0.0000 C   0  0  0  0  0  0  0  0  0  0  0  0
    5.9417   -3.6171    0.0000 C   0  0  0  0  0  0  0  0  0  0  0  0
    5.9417   -2.7921    0.0000 O   0  0  0  0  0  0  0  0  0  0  0  0
    6.6562   -4.0296    0.0000 O   0  0  0  0  0  0  0  0  0  0  0  0
    4.5127   -2.7921    0.0000 C   0  0  0  0  0  0  0  0  0  0  0  0
    3.7983   -2.3796    0.0000 O   0  0  0  0  0  0  0  0  0  0  0  0
    5.2272   -2.3796    0.0000 O   0  0  0  0  0  0  0  0  0  0  0  0
    3.0838   -3.6171    0.0000 C   0  0  0  0  0  0  0  0  0  0  0  0
    3.0838   -2.7921    0.0000 O   0  0  0  0  0  0  0  0  0  0  0  0
    2.3693   -4.0296    0.0000 O   0  0  0  0  0  0  0  0  0  0  0  0
    4.5127   -4.4421    0.0000 O   0  0  0  0  0  0  0  0  0  0  0  0
  1  2  1  0  0  0  0
  2  3  1  0  0  0  0
  4  5  2  0  0  0  0
  4  6  1  0  0  0  0
  1  4  1  0  0  0  0
  7  8  2  0  0  0  0
  7  9  1  0  0  0  0
  2  7  1  0  0  0  0
 10 11  2  0  0  0  0
 10 12  1  0  0  0  0
  3 10  1  0  0  0  0
  2 13  1  0  0  0  0
M  END
>  <cdx:groupId>
40

>  <cdx:fragmentId>
11

$$$$
