379.cdx
  Mrv1902 05222410262D          

 10  9  0  0  0  0            999 V2000
    6.1561   -3.1427    0.0000 C   0  0  0  0  0  0  0  0  0  0  0  0
    5.4416   -3.5552    0.0000 C   0  0  0  0  0  0  0  0  0  0  0  0
    4.7271   -3.1427    0.0000 C   0  0  0  0  0  0  0  0  0  0  0  0
    4.0126   -3.5552    0.0000 C   0  0  0  0  0  0  0  0  0  0  0  0
    3.2982   -3.1427    0.0000 C   0  0  0  0  0  0  0  0  0  0  0  0
    2.5837   -3.5552    0.0000 C   0  0  0  0  0  0  0  0  0  0  0  0
    1.8692   -3.1427    0.0000 C   0  0  0  0  0  0  0  0  0  0  0  0
    1.1548   -3.5552    0.0000 C   0  0  0  0  0  0  0  0  0  0  0  0
    6.1561   -2.3177    0.0000 O   0  0  0  0  0  0  0  0  0  0  0  0
    6.8705   -3.5552    0.0000 O   0  0  0  0  0  0  0  0  0  0  0  0
  1  2  1  0  0  0  0
  2  3  1  0  0  0  0
  3  4  1  0  0  0  0
  4  5  1  0  0  0  0
  5  6  1  0  0  0  0
  6  7  1  0  0  0  0
  7  8  1  0  0  0  0
  1  9  2  0  0  0  0
  1 10  1  0  0  0  0
M  END
>  <cdx:groupId>
31

>  <cdx:fragmentId>
5

$$$$
