90036.cdx
  Mrv1902 05222410192D          

 24 28  0  0  0  0            999 V2000
   10.1397   -5.7475    0.0000 C   0  0  0  0  0  0  0  0  0  0  0  0
    9.8032   -4.9942    0.0000 C   0  0  0  0  0  0  0  0  0  0  0  0
    8.9826   -4.9090    0.0000 C   0  0  0  0  0  0  0  0  0  0  0  0
    8.4985   -5.5771    0.0000 C   0  0  0  0  0  0  0  0  0  0  0  0
    8.8350   -6.3303    0.0000 C   0  0  0  0  0  0  0  0  0  0  0  0
    9.6556   -6.4155    0.0000 C   0  0  0  0  0  0  0  0  0  0  0  0
    7.6781   -5.6644    0.0000 N   0  0  0  0  0  0  0  0  0  0  0  0
    7.5076   -6.4716    0.0000 C   0  0  0  0  0  0  0  0  0  0  0  0
    8.2226   -6.8832    0.0000 C   0  0  0  0  0  0  0  0  0  0  0  0
    6.7937   -6.8850    0.0000 C   0  0  0  0  0  0  0  0  0  0  0  0
    6.7947   -7.7100    0.0000 N   0  0  0  0  0  0  0  0  0  0  0  0
    7.5097   -8.1216    0.0000 C   0  0  0  0  0  0  0  0  0  0  0  0
    8.2236   -7.7082    0.0000 C   0  0  0  0  0  0  0  0  0  0  0  0
    6.0787   -6.4734    0.0000 N   0  0  0  0  0  0  0  0  0  0  0  0
    5.3647   -6.8868    0.0000 C   0  0  0  0  0  0  0  0  0  0  0  0
    5.3658   -7.7118    0.0000 C   0  0  0  0  0  0  0  0  0  0  0  0
    6.0808   -8.1234    0.0000 C   0  0  0  0  0  0  0  0  0  0  0  0
    4.6497   -6.4752    0.0000 C   0  0  0  0  0  0  0  0  0  0  0  0
    3.9358   -6.8886    0.0000 C   0  0  0  0  0  0  0  0  0  0  0  0
    3.9368   -7.7136    0.0000 C   0  0  0  0  0  0  0  0  0  0  0  0
    4.6518   -8.1252    0.0000 C   0  0  0  0  0  0  0  0  0  0  0  0
    6.0818   -8.9484    0.0000 O   0  0  0  0  0  0  0  0  0  0  0  0
    8.9386   -8.1198    0.0000 O   0  0  0  0  0  0  0  0  0  0  0  0
    7.5107   -8.9466    0.0000 O   0  0  0  0  0  0  0  0  0  0  0  0
  1  2  2  0  0  0  0
  2  3  1  0  0  0  0
  3  4  2  0  0  0  0
  4  5  1  0  0  0  0
  5  6  2  0  0  0  0
  6  1  1  0  0  0  0
  4  7  1  0  0  0  0
  7  8  1  0  0  0  0
  8  9  2  0  0  0  0
  9  5  1  0  0  0  0
  8 10  1  0  0  0  0
 10 11  1  0  0  0  0
 11 12  1  0  0  0  0
 12 13  1  0  0  0  0
 13  9  1  0  0  0  0
 10 14  2  0  0  0  0
 14 15  1  0  0  0  0
 15 16  1  0  0  0  0
 16 17  1  0  0  0  0
 17 11  1  0  0  0  0
 15 18  2  0  0  0  0
 18 19  1  0  0  0  0
 19 20  2  0  0  0  0
 20 21  1  0  0  0  0
 21 16  2  0  0  0  0
 17 22  2  0  0  0  0
 13 23  1  0  0  0  0
 12 24  1  0  0  0  0
M  END
>  <cdx:fragmentId>
5

$$$$
