90049.cdx
  Mrv1902 05222410242D          

 24 26  0  0  0  0            999 V2000
    4.9068   -4.8939    0.0000 C   0  0  0  0  0  0  0  0  0  0  0  0
    5.6213   -6.1314    0.0000 O   0  0  0  0  0  0  0  0  0  0  0  0
    6.3357   -5.7189    0.0000 C   0  0  0  0  0  0  0  0  0  0  0  0
    6.3357   -4.8939    0.0000 C   0  0  0  0  0  0  0  0  0  0  0  0
    5.6213   -4.4814    0.0000 O   0  0  0  0  0  0  0  0  0  0  0  0
    7.0502   -6.1314    0.0000 C   0  0  0  0  0  0  0  0  0  0  0  0
    7.7647   -5.7189    0.0000 C   0  0  0  0  0  0  0  0  0  0  0  0
    7.7647   -4.8939    0.0000 C   0  0  0  0  0  0  0  0  0  0  0  0
    7.0502   -4.4814    0.0000 C   0  0  0  0  0  0  0  0  0  0  0  0
    8.4792   -6.1314    0.0000 C   0  0  0  0  0  0  0  0  0  0  0  0
    9.1936   -5.7189    0.0000 N   0  3  0  0  0  0  0  0  0  0  0  0
    9.1936   -4.8939    0.0000 C   0  0  0  0  0  0  0  0  0  0  0  0
    8.4792   -4.4814    0.0000 C   0  0  0  0  0  0  0  0  0  0  0  0
    7.0502   -6.9564    0.0000 C   0  0  0  0  0  0  0  0  0  0  0  0
    7.7647   -7.3689    0.0000 C   0  0  0  0  0  0  0  0  0  0  0  0
    8.4792   -6.9564    0.0000 C   0  0  0  0  0  0  0  0  0  0  0  0
    6.3357   -7.3689    0.0000 C   0  0  0  0  0  0  0  0  0  0  0  0
    6.3357   -8.1939    0.0000 C   0  0  0  0  0  0  0  0  0  0  0  0
    7.0502   -8.6064    0.0000 C   0  0  0  0  0  0  0  0  0  0  0  0
    7.7647   -8.1939    0.0000 C   0  0  0  0  0  0  0  0  0  0  0  0
    9.9081   -6.1314    0.0000 C   0  0  0  0  0  0  0  0  0  0  0  0
    5.6213   -8.6064    0.0000 O   0  0  0  0  0  0  0  0  0  0  0  0
    4.9068   -8.1939    0.0000 C   0  0  0  0  0  0  0  0  0  0  0  0
    7.0502   -9.4314    0.0000 O   0  0  0  0  0  0  0  0  0  0  0  0
  2  3  1  0  0  0  0
  3  4  2  0  0  0  0
  4  5  1  0  0  0  0
  5  1  1  0  0  0  0
  3  6  1  0  0  0  0
  6  7  2  0  0  0  0
  7  8  1  0  0  0  0
  8  9  2  0  0  0  0
  9  4  1  0  0  0  0
  7 10  1  0  0  0  0
 10 11  2  0  0  0  0
 11 12  1  0  0  0  0
 12 13  1  0  0  0  0
 13  8  1  0  0  0  0
 14 15  2  0  0  0  0
 15 16  1  0  0  0  0
 16 10  1  0  0  0  0
 14 17  1  0  0  0  0
 17 18  2  0  0  0  0
 18 19  1  0  0  0  0
 19 20  2  0  0  0  0
 20 15  1  0  0  0  0
 11 21  1  0  0  0  0
 18 22  1  0  0  0  0
 22 23  1  0  0  0  0
 19 24  1  0  0  0  0
M  CHG  1  11   1
M  END
>  <cdx:fragmentId>
5

$$$$
