90048.cdx
  Mrv1902 05222410242D          

 11 11  0  0  0  0            999 V2000
    7.3700   -8.0025    0.0000 C   0  0  0  0  0  0  0  0  0  0  0  0
    7.3700   -8.8275    0.0000 C   0  0  0  0  0  0  0  0  0  0  0  0
    8.0845   -9.2400    0.0000 C   0  0  0  0  0  0  0  0  0  0  0  0
    8.7989   -8.8275    0.0000 C   0  0  0  0  0  0  0  0  0  0  0  0
    8.7989   -8.0025    0.0000 C   0  0  0  0  0  0  0  0  0  0  0  0
    8.0845   -7.5900    0.0000 C   0  0  1  0  0  0  0  0  0  0  0  0
    8.0845   -6.7650    0.0000 C   0  0  0  0  0  0  0  0  0  0  0  0
    7.3700   -6.3525    0.0000 C   0  0  0  0  0  0  0  0  0  0  0  0
    8.7989   -6.3525    0.0000 C   0  0  0  0  0  0  0  0  0  0  0  0
    6.6555   -9.2400    0.0000 O   0  0  0  0  0  0  0  0  0  0  0  0
    8.0845  -10.0650    0.0000 C   0  0  0  0  0  0  0  0  0  0  0  0
  1  2  1  0  0  0  0
  2  3  2  0  0  0  0
  3  4  1  0  0  0  0
  4  5  1  0  0  0  0
  5  6  1  0  0  0  0
  6  1  1  0  0  0  0
  6  7  1  6  0  0  0
  7  8  2  0  0  0  0
  7  9  1  0  0  0  0
  2 10  1  0  0  0  0
  3 11  1  0  0  0  0
M  END
>  <cdx:fragmentId>
49

$$$$
