90045.cdx
  Mrv1902 05222410222D          

 36 39  0  0  0  0            999 V2000
    7.3934   -6.6539    0.0000 O   0  0  0  0  0  0  0  0  0  0  0  0
    6.6790  -10.3664    0.0000 O   0  0  0  0  0  0  0  0  0  0  0  0
    4.5356   -6.6539    0.0000 C   0  0  0  0  0  0  0  0  0  0  0  0
    5.2500   -7.0664    0.0000 O   0  0  0  0  0  0  0  0  0  0  0  0
    3.1066   -8.3039    0.0000 C   0  0  0  0  0  0  0  0  0  0  0  0
    3.8211   -7.8914    0.0000 O   0  0  0  0  0  0  0  0  0  0  0  0
    5.2500  -10.3664    0.0000 O   0  0  0  0  0  0  0  0  0  0  0  0
    9.5369   -7.8914    0.0000 C   0  0  0  0  0  0  0  0  0  0  0  0
    9.5369   -7.0664    0.0000 C   0  0  0  0  0  0  0  0  0  0  0  0
    8.8224   -6.6539    0.0000 C   0  0  0  0  0  0  0  0  0  0  0  0
    8.1079   -7.0664    0.0000 C   0  0  0  0  0  0  0  0  0  0  0  0
    8.8224   -9.1289    0.0000 O   0  0  0  0  0  0  0  0  0  0  0  0
    8.8224   -8.3039    0.0000 C   0  0  0  0  0  0  0  0  0  0  0  0
    8.1079   -7.8914    0.0000 C   0  0  0  0  0  0  0  0  0  0  0  0
    6.6790   -9.5414    0.0000 C   0  0  0  0  0  0  0  0  0  0  0  0
    7.3934   -9.1289    0.0000 C   0  0  0  0  0  0  0  0  0  0  0  0
    7.3934   -8.3039    0.0000 C   0  0  0  0  0  0  0  0  0  0  0  0
    6.6790   -7.8914    0.0000 O   0  0  0  0  0  0  0  0  0  0  0  0
    5.2500   -9.5414    0.0000 C   0  0  0  0  0  0  0  0  0  0  0  0
    5.9645   -9.1289    0.0000 C   0  0  0  0  0  0  0  0  0  0  0  0
    5.9645   -8.3039    0.0000 C   0  0  0  0  0  0  0  0  0  0  0  0
    5.2500   -7.8914    0.0000 C   0  0  0  0  0  0  0  0  0  0  0  0
    4.5356   -8.3039    0.0000 C   0  0  0  0  0  0  0  0  0  0  0  0
    4.5356   -9.1289    0.0000 C   0  0  0  0  0  0  0  0  0  0  0  0
    9.5369   -9.5414    0.0000 C   0  0  2  0  0  0  0  0  0  0  0  0
    9.5369  -10.3664    0.0000 O   0  0  0  0  0  0  0  0  0  0  0  0
   10.2513  -10.7789    0.0000 C   0  0  1  0  0  0  0  0  0  0  0  0
   10.9658  -10.3664    0.0000 C   0  0  2  0  0  0  0  0  0  0  0  0
   10.9658   -9.5414    0.0000 C   0  0  1  0  0  0  0  0  0  0  0  0
   10.2513   -9.1289    0.0000 C   0  0  1  0  0  0  0  0  0  0  0  0
   10.2513  -11.6039    0.0000 C   0  0  0  0  0  0  0  0  0  0  0  0
   11.6803   -9.1289    0.0000 O   0  0  0  0  0  0  0  0  0  0  0  0
   10.2513   -8.3039    0.0000 O   0  0  0  0  0  0  0  0  0  0  0  0
   11.6803  -10.7789    0.0000 O   0  0  0  0  0  0  0  0  0  0  0  0
   10.9658  -12.0164    0.0000 O   0  0  0  0  0  0  0  0  0  0  0  0
    9.5369  -12.0164    0.0000 O   0  0  0  0  0  0  0  0  0  0  0  0
 11  1  1  0  0  0  0
 15  2  2  0  0  0  0
  4  3  1  0  0  0  0
 22  4  1  0  0  0  0
  6  5  1  0  0  0  0
 23  6  1  0  0  0  0
 19  7  1  0  0  0  0
  8 13  2  0  0  0  0
  9  8  1  0  0  0  0
 10  9  2  0  0  0  0
 11 10  1  0  0  0  0
 14 11  2  0  0  0  0
 13 12  1  0  0  0  0
 14 13  1  0  0  0  0
 17 14  1  0  0  0  0
 15 20  1  0  0  0  0
 16 15  1  0  0  0  0
 17 16  2  0  0  0  0
 18 17  1  0  0  0  0
 21 18  1  0  0  0  0
 19 24  2  0  0  0  0
 20 19  1  0  0  0  0
 21 20  2  0  0  0  0
 22 21  1  0  0  0  0
 23 22  2  0  0  0  0
 24 23  1  0  0  0  0
 25 12  1  1  0  0  0
 25 26  1  0  0  0  0
 26 27  1  0  0  0  0
 27 28  1  0  0  0  0
 28 29  1  0  0  0  0
 29 30  1  0  0  0  0
 30 25  1  0  0  0  0
 27 31  1  1  0  0  0
 29 32  1  1  0  0  0
 30 33  1  6  0  0  0
 28 34  1  6  0  0  0
 31 35  1  0  0  0  0
 31 36  2  0  0  0  0
M  END
>  <cdx:fragmentId>
5

$$$$
