90043.cdx
  Mrv1902 05222410202D          

 33 36  0  0  0  0            999 V2000
    6.8318   -7.7401    0.0000 C   0  0  0  0  0  0  0  0  0  0  0  0
    6.8318   -8.5651    0.0000 C   0  0  0  0  0  0  0  0  0  0  0  0
    7.5463   -8.9776    0.0000 C   0  0  0  0  0  0  0  0  0  0  0  0
    8.2607   -8.5651    0.0000 C   0  0  0  0  0  0  0  0  0  0  0  0
    8.2607   -7.7401    0.0000 C   0  0  0  0  0  0  0  0  0  0  0  0
    7.5463   -7.3276    0.0000 C   0  0  0  0  0  0  0  0  0  0  0  0
    8.9752   -8.9776    0.0000 C   0  0  0  0  0  0  0  0  0  0  0  0
    9.6897   -8.5651    0.0000 C   0  0  0  0  0  0  0  0  0  0  0  0
    9.6897   -7.7401    0.0000 C   0  0  0  0  0  0  0  0  0  0  0  0
    8.9752   -7.3276    0.0000 O   0  0  0  0  0  0  0  0  0  0  0  0
   11.1186   -7.7401    0.0000 C   0  0  0  0  0  0  0  0  0  0  0  0
   10.4042   -7.3276    0.0000 C   0  0  0  0  0  0  0  0  0  0  0  0
   11.8331   -7.3276    0.0000 C   0  0  0  0  0  0  0  0  0  0  0  0
   11.8331   -6.5026    0.0000 C   0  0  0  0  0  0  0  0  0  0  0  0
   11.1186   -6.0901    0.0000 C   0  0  0  0  0  0  0  0  0  0  0  0
   10.4042   -6.5026    0.0000 C   0  0  0  0  0  0  0  0  0  0  0  0
    7.5463   -6.5026    0.0000 O   0  0  0  0  0  0  0  0  0  0  0  0
    6.1173   -7.3276    0.0000 O   0  0  0  0  0  0  0  0  0  0  0  0
    7.5463   -9.8026    0.0000 O   0  0  0  0  0  0  0  0  0  0  0  0
    8.9752   -9.8026    0.0000 O   0  0  0  0  0  0  0  0  0  0  0  0
    6.8318   -6.0901    0.0000 C   0  0  0  0  0  0  0  0  0  0  0  0
    5.4029   -7.7401    0.0000 C   0  0  2  0  0  0  0  0  0  0  0  0
    4.6884   -7.3276    0.0000 O   0  0  0  0  0  0  0  0  0  0  0  0
    3.9739   -7.7401    0.0000 C   0  0  1  0  0  0  0  0  0  0  0  0
    3.9739   -8.5651    0.0000 C   0  0  2  0  0  0  0  0  0  0  0  0
    4.6884   -8.9776    0.0000 C   0  0  1  0  0  0  0  0  0  0  0  0
    5.4029   -8.5651    0.0000 C   0  0  1  0  0  0  0  0  0  0  0  0
    3.2594   -7.3276    0.0000 C   0  0  0  0  0  0  0  0  0  0  0  0
    4.6884   -9.8026    0.0000 O   0  0  0  0  0  0  0  0  0  0  0  0
    6.1173   -8.9776    0.0000 O   0  0  0  0  0  0  0  0  0  0  0  0
    3.2594   -8.9776    0.0000 O   0  0  0  0  0  0  0  0  0  0  0  0
    2.5450   -7.7401    0.0000 O   0  0  0  0  0  0  0  0  0  0  0  0
    3.2594   -6.5026    0.0000 O   0  0  0  0  0  0  0  0  0  0  0  0
  1  2  2  0  0  0  0
  2  3  1  0  0  0  0
  3  4  2  0  0  0  0
  4  5  1  0  0  0  0
  5  6  2  0  0  0  0
  6  1  1  0  0  0  0
  4  7  1  0  0  0  0
  7  8  1  0  0  0  0
  8  9  2  0  0  0  0
  9 10  1  0  0  0  0
 10  5  1  0  0  0  0
 11 12  1  0  0  0  0
 12  9  1  0  0  0  0
 11 13  2  0  0  0  0
 13 14  1  0  0  0  0
 14 15  2  0  0  0  0
 15 16  1  0  0  0  0
 16 12  2  0  0  0  0
  6 17  1  0  0  0  0
  1 18  1  0  0  0  0
  3 19  1  0  0  0  0
  7 20  2  0  0  0  0
 17 21  1  0  0  0  0
 22 18  1  1  0  0  0
 22 23  1  0  0  0  0
 23 24  1  0  0  0  0
 24 25  1  0  0  0  0
 25 26  1  0  0  0  0
 26 27  1  0  0  0  0
 27 22  1  0  0  0  0
 24 28  1  1  0  0  0
 26 29  1  1  0  0  0
 27 30  1  6  0  0  0
 25 31  1  6  0  0  0
 28 32  1  0  0  0  0
 28 33  2  0  0  0  0
M  END
>  <cdx:fragmentId>
5

$$$$
