90042.cdx
  Mrv1902 05222410212D          

  9  8  0  0  0  0            999 V2000
    6.3103   -7.9726    0.0000 N   0  0  0  0  0  0  0  0  0  0  0  0
    5.6014   -8.3947    0.0000 C   0  0  0  0  0  0  0  0  0  0  0  0
    5.6126   -9.2196    0.0000 O   0  0  0  0  0  0  0  0  0  0  0  0
    4.8815   -7.9919    0.0000 N   0  0  0  0  0  0  0  0  0  0  0  0
    7.0303   -8.3754    0.0000 N   0  0  0  0  0  0  0  0  0  0  0  0
    7.7391   -7.9533    0.0000 C   0  0  0  0  0  0  0  0  0  0  0  0
    8.4591   -8.3561    0.0000 C   0  0  0  0  0  0  0  0  0  0  0  0
    9.1679   -7.9339    0.0000 C   0  0  0  0  0  0  0  0  0  0  0  0
    9.8879   -8.3367    0.0000 C   0  0  0  0  0  0  0  0  0  0  0  0
  1  2  1  0  0  0  0
  2  3  2  0  0  0  0
  2  4  1  0  0  0  0
  6  7  1  0  0  0  0
  7  8  1  0  0  0  0
  8  9  1  0  0  0  0
  5  6  2  0  0  0  0
  1  5  1  0  0  0  0
M  END
>  <cdx:fragmentId>
15

$$$$
