90041.cdx
  Mrv1902 05222410212D          

 28 29  0  0  0  0            999 V2000
    6.8419   -8.5716    0.0000 C   0  0  0  0  0  0  0  0  0  0  0  0
    6.8419   -9.3966    0.0000 C   0  0  0  0  0  0  0  0  0  0  0  0
    6.1274   -9.8091    0.0000 C   0  0  0  0  0  0  0  0  0  0  0  0
    5.4129   -9.3966    0.0000 C   0  0  0  0  0  0  0  0  0  0  0  0
    5.4129   -8.5716    0.0000 C   0  0  0  0  0  0  0  0  0  0  0  0
    6.1274   -8.1591    0.0000 C   0  0  0  0  0  0  0  0  0  0  0  0
    4.2859  -10.5235    0.0000 C   0  0  0  0  0  0  0  0  0  0  0  0
    4.6984   -9.8091    0.0000 C   0  0  0  0  0  0  0  0  0  0  0  0
    5.1109  -10.5235    0.0000 C   0  0  0  0  0  0  0  0  0  0  0  0
    3.9840   -9.3966    0.0000 C   0  0  0  0  0  0  0  0  0  0  0  0
    3.2695   -9.8091    0.0000 C   0  0  0  0  0  0  0  0  0  0  0  0
    2.5550   -9.3966    0.0000 C   0  0  0  0  0  0  0  0  0  0  0  0
    2.5550   -8.5716    0.0000 C   0  0  0  0  0  0  0  0  0  0  0  0
    3.2695   -8.1591    0.0000 C   0  0  0  0  0  0  0  0  0  0  0  0
    3.9840   -8.5716    0.0000 C   0  0  0  0  0  0  0  0  0  0  0  0
    7.5563   -8.1591    0.0000 O   0  0  0  0  0  0  0  0  0  0  0  0
    7.5563   -7.3341    0.0000 P   0  0  0  0  0  0  0  0  0  0  0  0
    7.5563   -6.5091    0.0000 O   0  0  0  0  0  0  0  0  0  0  0  0
    8.2708   -7.7466    0.0000 O   0  0  0  0  0  0  0  0  0  0  0  0
    8.9853   -7.3341    0.0000 C   0  0  0  0  0  0  0  0  0  0  0  0
    9.6997   -7.7466    0.0000 C   0  0  0  0  0  0  0  0  0  0  0  0
   10.4142   -7.3341    0.0000 C   0  0  0  0  0  0  0  0  0  0  0  0
   11.1287   -7.7466    0.0000 C   0  0  0  0  0  0  0  0  0  0  0  0
   11.8431   -7.3341    0.0000 C   0  0  0  0  0  0  0  0  0  0  0  0
    6.8419   -7.7466    0.0000 C   0  0  0  0  0  0  0  0  0  0  0  0
    6.1274   -7.3341    0.0000 C   0  0  0  0  0  0  0  0  0  0  0  0
    5.4129   -7.7466    0.0000 C   0  0  0  0  0  0  0  0  0  0  0  0
    4.6984   -7.3341    0.0000 C   0  0  0  0  0  0  0  0  0  0  0  0
  1  2  1  0  0  0  0
  2  3  2  0  0  0  0
  3  4  1  0  0  0  0
  4  5  2  0  0  0  0
  5  6  1  0  0  0  0
  1  6  2  0  0  0  0
  7  8  1  0  0  0  0
  8  9  1  0  0  0  0
 10 11  1  0  0  0  0
 11 12  2  0  0  0  0
 12 13  1  0  0  0  0
 13 14  2  0  0  0  0
 14 15  1  0  0  0  0
 10 15  2  0  0  0  0
  8 10  1  0  0  0  0
  4  8  1  0  0  0  0
 17 18  2  0  0  0  0
 20 21  1  0  0  0  0
 21 22  1  0  0  0  0
 22 23  1  0  0  0  0
 23 24  1  0  0  0  0
 19 20  1  0  0  0  0
 17 19  1  0  0  0  0
 25 26  1  0  0  0  0
 26 27  1  0  0  0  0
 27 28  1  0  0  0  0
 17 25  1  0  0  0  0
 16 17  1  0  0  0  0
  1 16  1  0  0  0  0
M  END
>  <cdx:fragmentId>
23

$$$$
