90040.cdx
  Mrv1902 05222410212D          

 29 31  0  0  0  0            999 V2000
   10.4769  -10.5810    0.0000 O   0  0  0  0  0  0  0  0  0  0  0  0
    7.8068  -10.5576    0.0000 O   0  0  0  0  0  0  0  0  0  0  0  0
    8.6075  -10.1406    0.0000 H   0  0  0  0  0  0  0  0  0  0  0  0
    8.6075   -7.6746    0.0000 H   0  0  0  0  0  0  0  0  0  0  0  0
    9.6800  -10.3675    0.0000 C   0  0  0  0  0  0  0  0  0  0  0  0
    9.3059   -9.5750    0.0000 C   0  0  2  0  0  0  0  0  0  0  0  0
    9.7909   -8.9076    0.0000 C   0  0  0  0  0  0  0  0  0  0  0  0
    9.3059   -8.2402    0.0000 C   0  0  0  0  0  0  0  0  0  0  0  0
    7.0924   -8.4951    0.0000 C   0  0  0  0  0  0  0  0  0  0  0  0
    7.0924   -9.3201    0.0000 O   0  0  0  0  0  0  0  0  0  0  0  0
    7.8068   -9.7326    0.0000 C   0  0  2  0  0  0  0  0  0  0  0  0
    8.5213   -9.3201    0.0000 C   0  0  1  0  0  0  0  0  0  0  0  0
    8.5213   -8.4951    0.0000 C   0  0  1  0  0  0  0  0  0  0  0  0
    7.0924  -10.9701    0.0000 C   0  0  2  0  0  0  0  0  0  0  0  0
    6.3779  -10.5576    0.0000 O   0  0  0  0  0  0  0  0  0  0  0  0
    5.6634  -10.9701    0.0000 C   0  0  1  0  0  0  0  0  0  0  0  0
    5.6634  -11.7951    0.0000 C   0  0  2  0  0  0  0  0  0  0  0  0
    6.3779  -12.2076    0.0000 C   0  0  1  0  0  0  0  0  0  0  0  0
    7.0924  -11.7951    0.0000 C   0  0  1  0  0  0  0  0  0  0  0  0
    4.9490  -10.5576    0.0000 C   0  0  0  0  0  0  0  0  0  0  0  0
    6.3779  -13.0326    0.0000 O   0  0  0  0  0  0  0  0  0  0  0  0
    4.9490  -12.2076    0.0000 O   0  0  0  0  0  0  0  0  0  0  0  0
    7.8068  -12.2076    0.0000 O   0  0  0  0  0  0  0  0  0  0  0  0
    4.2345  -10.9701    0.0000 O   0  0  0  0  0  0  0  0  0  0  0  0
    7.8068   -8.0826    0.0000 C   0  0  0  0  0  0  0  0  0  0  0  0
    7.8068   -7.2576    0.0000 C   0  0  0  0  0  0  0  0  0  0  0  0
    7.0937   -6.8428    0.0000 O   0  0  0  0  0  0  0  0  0  0  0  0
    8.5225   -6.8460    0.0000 O   0  0  0  0  0  0  0  0  0  0  0  0
    7.0937   -6.0178    0.0000 C   0  0  0  0  0  0  0  0  0  0  0  0
  5  1  1  0  0  0  0
 11  2  1  6  0  0  0
 12  3  1  6  0  0  0
 13  4  1  6  0  0  0
  6  5  1  1  0  0  0
  6 12  1  0  0  0  0
  7  6  1  0  0  0  0
  8  7  2  0  0  0  0
 13  8  1  0  0  0  0
 25 13  1  0  0  0  0
  9 25  2  0  0  0  0
 10  9  1  0  0  0  0
 11 10  1  0  0  0  0
 12 11  1  0  0  0  0
 13 12  1  0  0  0  0
 14  2  1  1  0  0  0
 14 15  1  0  0  0  0
 15 16  1  0  0  0  0
 16 17  1  0  0  0  0
 17 18  1  0  0  0  0
 18 19  1  0  0  0  0
 19 14  1  0  0  0  0
 16 20  1  1  0  0  0
 18 21  1  1  0  0  0
 17 22  1  6  0  0  0
 19 23  1  6  0  0  0
 20 24  1  0  0  0  0
 25 26  1  0  0  0  0
 26 27  1  0  0  0  0
 26 28  2  0  0  0  0
 27 29  1  0  0  0  0
M  END
>  <cdx:fragmentId>
5

$$$$
