90044.cdx
  Mrv1902 05222410222D          

 45 50  0  0  0  0            999 V2000
    3.4356   -9.1850    0.0000 C   0  0  0  0  0  0  0  0  0  0  0  0
    3.4356  -10.0100    0.0000 C   0  0  0  0  0  0  0  0  0  0  0  0
    4.1500  -10.4225    0.0000 C   0  0  0  0  0  0  0  0  0  0  0  0
    4.8645  -10.0100    0.0000 C   0  0  0  0  0  0  0  0  0  0  0  0
    4.8645   -9.1850    0.0000 C   0  0  0  0  0  0  0  0  0  0  0  0
    4.1500   -8.7725    0.0000 C   0  0  0  0  0  0  0  0  0  0  0  0
    5.6491  -10.2649    0.0000 C   0  0  1  0  0  0  0  0  0  0  0  0
    6.1340   -9.5975    0.0000 C   0  0  1  0  0  0  0  0  0  0  0  0
    5.6491   -8.9301    0.0000 C   0  0  1  0  0  0  0  0  0  0  0  0
    6.1340  -10.9324    0.0000 C   0  0  0  0  0  0  0  0  0  0  0  0
    6.9187  -10.6774    0.0000 C   0  0  0  0  0  0  0  0  0  0  0  0
    6.9187   -9.8524    0.0000 C   0  0  0  0  0  0  0  0  0  0  0  0
    6.9187   -9.3426    0.0000 C   0  0  0  0  0  0  0  0  0  0  0  0
    6.9187   -8.5176    0.0000 C   0  0  0  0  0  0  0  0  0  0  0  0
    6.1340   -8.2626    0.0000 C   0  0  1  0  0  0  0  0  0  0  0  0
    5.8791  -11.7170    0.0000 O   0  0  0  0  0  0  0  0  0  0  0  0
    2.7211   -8.7725    0.0000 O   0  0  0  0  0  0  0  0  0  0  0  0
    2.7211  -10.4225    0.0000 O   0  0  0  0  0  0  0  0  0  0  0  0
    7.5861   -8.0326    0.0000 C   0  0  0  0  0  0  0  0  0  0  0  0
    8.3398   -8.3682    0.0000 N   0  0  0  0  0  0  0  0  0  0  0  0
    7.4999   -7.2122    0.0000 O   0  0  0  0  0  0  0  0  0  0  0  0
    9.0072   -7.8833    0.0000 C   0  0  0  0  0  0  0  0  0  0  0  0
    9.7609   -8.2188    0.0000 C   0  0  0  0  0  0  0  0  0  0  0  0
   10.4283   -7.7339    0.0000 C   0  0  0  0  0  0  0  0  0  0  0  0
   11.1820   -8.0695    0.0000 C   0  0  0  0  0  0  0  0  0  0  0  0
   11.8494   -7.5845    0.0000 C   0  0  0  0  0  0  0  0  0  0  0  0
   11.7632   -6.7641    0.0000 C   0  0  0  0  0  0  0  0  0  0  0  0
   11.0095   -6.4285    0.0000 C   0  0  0  0  0  0  0  0  0  0  0  0
   10.3421   -6.9134    0.0000 C   0  0  0  0  0  0  0  0  0  0  0  0
   12.4306   -6.2791    0.0000 O   0  0  0  0  0  0  0  0  0  0  0  0
    5.8791   -7.4780    0.0000 C   0  0  0  0  0  0  0  0  0  0  0  0
    6.4311   -6.8649    0.0000 O   0  0  0  0  0  0  0  0  0  0  0  0
    5.0721   -7.3065    0.0000 N   0  0  0  0  0  0  0  0  0  0  0  0
    4.8586   -6.5096    0.0000 C   0  0  0  0  0  0  0  0  0  0  0  0
    4.0617   -6.2961    0.0000 C   0  0  0  0  0  0  0  0  0  0  0  0
    3.8482   -5.4992    0.0000 C   0  0  0  0  0  0  0  0  0  0  0  0
    4.4316   -4.9158    0.0000 C   0  0  0  0  0  0  0  0  0  0  0  0
    4.2180   -4.1189    0.0000 C   0  0  0  0  0  0  0  0  0  0  0  0
    3.4211   -3.9054    0.0000 C   0  0  0  0  0  0  0  0  0  0  0  0
    2.8378   -4.4888    0.0000 C   0  0  0  0  0  0  0  0  0  0  0  0
    3.0513   -5.2856    0.0000 C   0  0  0  0  0  0  0  0  0  0  0  0
    3.2076   -3.1085    0.0000 O   0  0  0  0  0  0  0  0  0  0  0  0
    6.7174   -7.6793    0.0000 H   0  0  0  0  0  0  0  0  0  0  0  0
    5.1642   -8.2626    0.0000 H   0  0  0  0  0  0  0  0  0  0  0  0
    5.1642  -10.9324    0.0000 O   0  0  0  0  0  0  0  0  0  0  0  0
  1  2  2  0  0  0  0
  2  3  1  0  0  0  0
  3  4  2  0  0  0  0
  4  5  1  0  0  0  0
  5  6  2  0  0  0  0
  6  1  1  0  0  0  0
  4  7  1  0  0  0  0
  7  8  1  0  0  0  0
  8  9  1  0  0  0  0
  9  5  1  0  0  0  0
  7 10  1  1  0  0  0
 10 11  1  0  0  0  0
 11 12  2  0  0  0  0
  8 12  1  1  0  0  0
  8 13  1  0  0  0  0
 13 14  2  0  0  0  0
 14 15  1  0  0  0  0
 15  9  1  0  0  0  0
 10 16  2  0  0  0  0
  1 17  1  0  0  0  0
  2 18  1  0  0  0  0
 14 19  1  0  0  0  0
 19 20  1  0  0  0  0
 19 21  2  0  0  0  0
 20 22  1  0  0  0  0
 22 23  1  0  0  0  0
 23 24  1  0  0  0  0
 24 25  2  0  0  0  0
 25 26  1  0  0  0  0
 26 27  2  0  0  0  0
 27 28  1  0  0  0  0
 28 29  2  0  0  0  0
 29 24  1  0  0  0  0
 27 30  1  0  0  0  0
 15 31  1  0  0  0  0
 31 32  2  0  0  0  0
 31 33  1  0  0  0  0
 33 34  1  0  0  0  0
 34 35  1  0  0  0  0
 35 36  1  0  0  0  0
 36 37  2  0  0  0  0
 37 38  1  0  0  0  0
 38 39  2  0  0  0  0
 39 40  1  0  0  0  0
 40 41  2  0  0  0  0
 41 36  1  0  0  0  0
 39 42  1  0  0  0  0
 15 43  1  1  0  0  0
  9 44  1  1  0  0  0
  7 45  1  6  0  0  0
M  END
>  <cdx:fragmentId>
5

$$$$
