90046.cdx
  Mrv1902 05222410222D          

 68 71  0  0  0  0            999 V2000
    2.6488  -14.6373    0.0000 O   0  0  0  0  0  0  0  0  0  0  0  0
    6.2230  -13.4554    0.0000 O   0  0  0  0  0  0  0  0  0  0  0  0
    3.3657  -13.4127    0.0000 O   0  0  0  0  0  0  0  0  0  0  0  0
    4.7919  -12.6093    0.0000 O   0  0  0  0  0  0  0  0  0  0  0  0
    3.3583  -15.0583    0.0000 C   0  0  0  0  0  0  0  0  0  0  0  0
    5.5061  -13.8637    0.0000 C   0  0  2  0  0  0  0  0  0  0  0  0
    4.7820  -13.4342    0.0000 C   0  0  2  0  0  0  0  0  0  0  0  0
    4.0776  -13.8296    0.0000 C   0  0  1  0  0  0  0  0  0  0  0  0
    4.0776  -14.6543    0.0000 C   0  0  2  0  0  0  0  0  0  0  0  0
    4.7820  -15.0838    0.0000 O   0  0  0  0  0  0  0  0  0  0  0  0
    5.5061  -14.6884    0.0000 C   0  0  1  0  0  0  0  0  0  0  0  0
   17.9837   -4.6666    0.0000 O   0  0  0  0  0  0  0  0  0  0  0  0
   14.6891   -3.6144    0.0000 O   0  0  0  0  0  0  0  0  0  0  0  0
   17.2610   -3.5803    0.0000 O   0  0  0  0  0  0  0  0  0  0  0  0
   15.9652   -2.8549    0.0000 O   0  0  0  0  0  0  0  0  0  0  0  0
   17.2806   -5.0652    0.0000 C   0  0  0  0  0  0  0  0  0  0  0  0
   15.9947   -5.0822    0.0000 O   0  0  0  0  0  0  0  0  0  0  0  0
   16.6327   -4.7025    0.0000 C   0  0  1  0  0  0  0  0  0  0  0  0
   16.6229   -3.9601    0.0000 C   0  0  2  0  0  0  0  0  0  0  0  0
   15.9750   -3.5973    0.0000 C   0  0  1  0  0  0  0  0  0  0  0  0
   15.3370   -3.9771    0.0000 C   0  0  2  0  0  0  0  0  0  0  0  0
   15.3468   -4.7195    0.0000 C   0  0  2  0  0  0  0  0  0  0  0  0
    8.2121  -16.1981    0.0000 C   0  0  1  0  0  0  0  0  0  0  0  0
    7.5713  -15.8231    0.0000 C   0  0  1  0  0  0  0  0  0  0  0  0
    7.5758  -15.0806    0.0000 C   0  0  2  0  0  0  0  0  0  0  0  0
    8.2210  -14.7132    0.0000 O   0  0  0  0  0  0  0  0  0  0  0  0
   14.7087   -5.0992    0.0000 O   0  0  0  0  0  0  0  0  0  0  0  0
   12.1190   -8.0538    0.0000 C   0  0  0  0  0  0  0  0  0  0  0  0
   13.4183   -5.8340    0.0000 C   0  0  0  0  0  0  0  0  0  0  0  0
    8.8707  -13.6033    0.0000 O   0  0  0  0  0  0  0  0  0  0  0  0
   14.0591   -6.2091    0.0000 C   0  0  0  0  0  0  0  0  0  0  0  0
   14.7043   -5.8417    0.0000 C   0  0  0  0  0  0  0  0  0  0  0  0
   15.3451   -6.2168    0.0000 O   0  0  0  0  0  0  0  0  0  0  0  0
   13.4094   -7.3190    0.0000 C   0  0  0  0  0  0  0  0  0  0  0  0
   14.0546   -6.9516    0.0000 C   0  0  0  0  0  0  0  0  0  0  0  0
   12.7598   -8.4289    0.0000 C   0  0  0  0  0  0  0  0  0  0  0  0
   13.4050   -8.0615    0.0000 C   0  0  0  0  0  0  0  0  0  0  0  0
   12.1101   -9.5388    0.0000 C   0  0  0  0  0  0  0  0  0  0  0  0
   12.7553   -9.1714    0.0000 C   0  0  0  0  0  0  0  0  0  0  0  0
   11.4604  -10.6487    0.0000 C   0  0  0  0  0  0  0  0  0  0  0  0
   12.1057  -10.2813    0.0000 C   0  0  0  0  0  0  0  0  0  0  0  0
   10.8108  -11.7586    0.0000 C   0  0  0  0  0  0  0  0  0  0  0  0
   11.4560  -11.3912    0.0000 C   0  0  0  0  0  0  0  0  0  0  0  0
   12.0968  -11.7663    0.0000 C   0  0  0  0  0  0  0  0  0  0  0  0
   10.1611  -12.8685    0.0000 C   0  0  0  0  0  0  0  0  0  0  0  0
   10.8063  -12.5011    0.0000 C   0  0  0  0  0  0  0  0  0  0  0  0
   10.1567  -13.6110    0.0000 C   0  0  0  0  0  0  0  0  0  0  0  0
   10.7975  -13.9860    0.0000 C   0  0  0  0  0  0  0  0  0  0  0  0
    9.5115  -13.9784    0.0000 C   0  0  0  0  0  0  0  0  0  0  0  0
    8.8618  -15.0883    0.0000 C   0  0  2  0  0  0  0  0  0  0  0  0
    8.8574  -15.8307    0.0000 C   0  0  2  0  0  0  0  0  0  0  0  0
    8.2077  -16.9406    0.0000 O   0  0  0  0  0  0  0  0  0  0  0  0
    9.5070  -14.7209    0.0000 O   0  0  0  0  0  0  0  0  0  0  0  0
    6.9350  -14.7055    0.0000 C   0  0  0  0  0  0  0  0  0  0  0  0
    6.9261  -16.1905    0.0000 O   0  0  0  0  0  0  0  0  0  0  0  0
    9.4982  -16.2058    0.0000 O   0  0  0  0  0  0  0  0  0  0  0  0
    6.2156  -15.1094    0.0000 O   0  0  0  0  0  0  0  0  0  0  0  0
    9.4932  -17.0308    0.0000 C   0  0  2  0  0  0  0  0  0  0  0  0
    8.7800  -17.4455    0.0000 O   0  0  0  0  0  0  0  0  0  0  0  0
    8.7800  -18.2705    0.0000 C   0  0  1  0  0  0  0  0  0  0  0  0
    9.4932  -18.6808    0.0000 C   0  0  2  0  0  0  0  0  0  0  0  0
   10.2065  -18.2705    0.0000 C   0  0  1  0  0  0  0  0  0  0  0  0
   10.2065  -17.4455    0.0000 C   0  0  1  0  0  0  0  0  0  0  0  0
    8.0659  -18.6835    0.0000 C   0  0  0  0  0  0  0  0  0  0  0  0
   10.9206  -18.6835    0.0000 O   0  0  0  0  0  0  0  0  0  0  0  0
    9.4932  -19.5058    0.0000 O   0  0  0  0  0  0  0  0  0  0  0  0
   10.9215  -17.0341    0.0000 O   0  0  0  0  0  0  0  0  0  0  0  0
    8.0665  -19.5085    0.0000 O   0  0  0  0  0  0  0  0  0  0  0  0
 12 16  1  0  0  0  0
  5  1  1  0  0  0  0
  6  2  1  1  0  0  0
  8  3  1  1  0  0  0
  7  4  1  6  0  0  0
  9  5  1  6  0  0  0
  6 11  1  0  0  0  0
  7  6  1  0  0  0  0
  8  7  1  0  0  0  0
  9  8  1  0  0  0  0
 10  9  1  0  0  0  0
 11 10  1  0  0  0  0
 11 57  1  6  0  0  0
 21 13  1  6  0  0  0
 19 14  1  6  0  0  0
 20 15  1  1  0  0  0
 18 16  1  1  0  0  0
 17 22  1  0  0  0  0
 18 17  1  0  0  0  0
 19 18  1  0  0  0  0
 20 19  1  0  0  0  0
 21 20  1  0  0  0  0
 22 21  1  0  0  0  0
 22 27  1  1  0  0  0
 32 27  1  0  0  0  0
 36 28  1  0  0  0  0
 31 29  1  0  0  0  0
 49 30  2  0  0  0  0
 31 35  2  0  0  0  0
 32 31  1  0  0  0  0
 33 32  2  0  0  0  0
 34 37  2  0  0  0  0
 35 34  1  0  0  0  0
 36 39  2  0  0  0  0
 37 36  1  0  0  0  0
 38 41  2  0  0  0  0
 39 38  1  0  0  0  0
 40 43  2  0  0  0  0
 41 40  1  0  0  0  0
 42 46  2  0  0  0  0
 43 42  1  0  0  0  0
 44 43  1  0  0  0  0
 45 47  2  0  0  0  0
 46 45  1  0  0  0  0
 47 49  1  0  0  0  0
 48 47  1  0  0  0  0
 53 49  1  0  0  0  0
 23 24  1  0  0  0  0
 24 25  1  0  0  0  0
 25 26  1  0  0  0  0
 26 50  1  0  0  0  0
 50 51  1  0  0  0  0
 51 23  1  0  0  0  0
 23 52  1  1  0  0  0
 50 53  1  1  0  0  0
 25 54  1  1  0  0  0
 24 55  1  6  0  0  0
 51 56  1  6  0  0  0
 54 57  1  0  0  0  0
 58 56  1  1  0  0  0
 58 59  1  0  0  0  0
 59 60  1  0  0  0  0
 60 61  1  0  0  0  0
 61 62  1  0  0  0  0
 62 63  1  0  0  0  0
 63 58  1  0  0  0  0
 60 64  1  1  0  0  0
 62 65  1  1  0  0  0
 61 66  1  6  0  0  0
 63 67  1  6  0  0  0
 64 68  1  0  0  0  0
M  END
>  <cdx:fragmentId>
300

$$$$
