90055.cdx
  Mrv1902 05222410212D          

 27 29  0  0  0  0            999 V2000
    8.2674   -8.9287    0.0000 C   0  0  0  0  0  0  0  0  0  0  0  0
    8.9818   -8.5162    0.0000 C   0  0  0  0  0  0  0  0  0  0  0  0
    8.9818   -7.6912    0.0000 C   0  0  0  0  0  0  0  0  0  0  0  0
    8.2674   -7.2787    0.0000 C   0  0  0  0  0  0  0  0  0  0  0  0
    7.5529   -7.6912    0.0000 C   0  0  1  0  0  0  0  0  0  0  0  0
    7.5529   -8.5162    0.0000 N   0  3  2  0  0  0  0  0  0  0  0  0
    6.8384   -7.2787    0.0000 C   0  0  0  0  0  0  0  0  0  0  0  0
    6.1239   -7.6912    0.0000 C   0  0  0  0  0  0  0  0  0  0  0  0
    6.1239   -8.5162    0.0000 C   0  0  0  0  0  0  0  0  0  0  0  0
    6.8384   -8.9287    0.0000 C   0  0  0  0  0  0  0  0  0  0  0  0
    9.6963   -7.2787    0.0000 C   0  0  0  0  0  0  0  0  0  0  0  0
    9.6963   -6.4537    0.0000 C   0  0  0  0  0  0  0  0  0  0  0  0
    8.9818   -6.0412    0.0000 C   0  0  0  0  0  0  0  0  0  0  0  0
    8.2674   -6.4537    0.0000 C   0  0  0  0  0  0  0  0  0  0  0  0
    5.4095   -7.2787    0.0000 C   0  0  0  0  0  0  0  0  0  0  0  0
    4.6950   -7.6912    0.0000 C   0  0  0  0  0  0  0  0  0  0  0  0
    4.6950   -8.5162    0.0000 C   0  0  0  0  0  0  0  0  0  0  0  0
    5.4095   -8.9287    0.0000 C   0  0  0  0  0  0  0  0  0  0  0  0
    7.5529   -9.3412    0.0000 C   0  0  0  0  0  0  0  0  0  0  0  0
    7.5529   -6.8662    0.0000 H   0  0  0  0  0  0  0  0  0  0  0  0
    3.9805   -8.9287    0.0000 O   0  0  0  0  0  0  0  0  0  0  0  0
    3.2661   -8.5162    0.0000 C   0  0  0  0  0  0  0  0  0  0  0  0
    3.9805   -7.2787    0.0000 O   0  0  0  0  0  0  0  0  0  0  0  0
    8.9818   -5.2162    0.0000 O   0  0  0  0  0  0  0  0  0  0  0  0
   10.4108   -6.0412    0.0000 O   0  0  0  0  0  0  0  0  0  0  0  0
   11.1252   -6.4537    0.0000 C   0  0  0  0  0  0  0  0  0  0  0  0
    7.4500   -9.9498    0.0000 Cl  0  5  0  0  0  0  0  0  0  0  0  0
  1  2  1  0  0  0  0
  2  3  1  0  0  0  0
  3  4  1  0  0  0  0
  4  5  1  0  0  0  0
  5  6  1  0  0  0  0
  6  1  1  0  0  0  0
  5  7  1  0  0  0  0
  7  8  1  0  0  0  0
  8  9  1  0  0  0  0
  9 10  1  0  0  0  0
 10  6  1  0  0  0  0
  3 11  2  0  0  0  0
 11 12  1  0  0  0  0
 12 13  2  0  0  0  0
 13 14  1  0  0  0  0
 14  4  2  0  0  0  0
  8 15  2  0  0  0  0
 15 16  1  0  0  0  0
 16 17  2  0  0  0  0
 17 18  1  0  0  0  0
 18  9  2  0  0  0  0
  6 19  1  6  0  0  0
  5 20  1  6  0  0  0
 17 21  1  0  0  0  0
 21 22  1  0  0  0  0
 16 23  1  0  0  0  0
 13 24  1  0  0  0  0
 12 25  1  0  0  0  0
 25 26  1  0  0  0  0
M  CHG  2   6   1  27  -1
M  END
>  <cdx:fragmentId>
100

$$$$
