90054.cdx
  Mrv1902 05222410212D          

  8  8  0  0  0  0            999 V2000
    6.5156   -6.6951    0.0000 C   0  0  0  0  0  0  0  0  0  0  0  0
    6.5156   -7.5201    0.0000 C   0  0  0  0  0  0  0  0  0  0  0  0
    7.2300   -7.9326    0.0000 C   0  0  0  0  0  0  0  0  0  0  0  0
    7.9445   -7.5201    0.0000 C   0  0  0  0  0  0  0  0  0  0  0  0
    7.9445   -6.6951    0.0000 C   0  0  0  0  0  0  0  0  0  0  0  0
    7.2300   -6.2826    0.0000 C   0  0  0  0  0  0  0  0  0  0  0  0
    7.2300   -5.4576    0.0000 C   0  0  0  0  0  0  0  0  0  0  0  0
    6.5156   -5.0451    0.0000 O   0  0  0  0  0  0  0  0  0  0  0  0
  1  2  2  0  0  0  0
  2  3  1  0  0  0  0
  3  4  2  0  0  0  0
  4  5  1  0  0  0  0
  5  6  2  0  0  0  0
  6  1  1  0  0  0  0
  6  7  1  0  0  0  0
  7  8  1  0  0  0  0
M  END
>  <cdx:fragmentId>
5

$$$$
