90058.cdx
  Mrv1902 05222410242D          

 47 52  0  0  0  0            999 V2000
    9.1173   -8.0917    0.0000 H   0  0  0  0  0  0  0  0  0  0  0  0
   10.4632   -8.2161    0.0000 H   0  0  0  0  0  0  0  0  0  0  0  0
    4.6546   -7.4903    0.0000 C   0  0  0  0  0  0  0  0  0  0  0  0
    5.4608   -7.6658    0.0000 C   0  0  0  0  0  0  0  0  0  0  0  0
    5.5430   -8.4867    0.0000 C   0  0  0  0  0  0  0  0  0  0  0  0
    4.7877   -8.8185    0.0000 C   0  0  0  0  0  0  0  0  0  0  0  0
    4.2386   -8.2027    0.0000 O   0  0  0  0  0  0  0  0  0  0  0  0
    6.2433  -11.3776    0.0000 O   0  0  0  0  0  0  0  0  0  0  0  0
    4.8103  -12.1956    0.0000 O   0  0  0  0  0  0  0  0  0  0  0  0
    3.3854  -11.3636    0.0000 O   0  0  0  0  0  0  0  0  0  0  0  0
    2.6770  -10.1227    0.0000 O   0  0  0  0  0  0  0  0  0  0  0  0
    3.3935   -9.7137    0.0000 C   0  0  0  0  0  0  0  0  0  0  0  0
    4.1060  -10.1297    0.0000 C   0  0  2  0  0  0  0  0  0  0  0  0
    4.1019  -10.9546    0.0000 C   0  0  2  0  0  0  0  0  0  0  0  0
    4.8144  -11.3706    0.0000 C   0  0  1  0  0  0  0  0  0  0  0  0
    5.5309  -10.9616    0.0000 C   0  0  2  0  0  0  0  0  0  0  0  0
    5.5349  -10.1367    0.0000 C   0  0  1  0  0  0  0  0  0  0  0  0
    4.8225   -9.7207    0.0000 O   0  0  0  0  0  0  0  0  0  0  0  0
    6.2514   -9.7277    0.0000 O   0  0  0  0  0  0  0  0  0  0  0  0
    6.2554   -8.9027    0.0000 C   0  0  2  0  0  0  0  0  0  0  0  0
   11.4199   -7.5018    0.0000 C   0  0  0  0  0  0  0  0  0  0  0  0
   10.9760   -8.1210    0.0000 C   0  0  0  0  0  0  0  0  0  0  0  0
    8.3968   -9.3257    0.0000 C   0  0  0  0  0  0  0  0  0  0  0  0
    6.2595   -8.0777    0.0000 C   0  0  0  0  0  0  0  0  0  0  0  0
    8.4089   -6.8507    0.0000 C   0  0  0  0  0  0  0  0  0  0  0  0
   10.8049   -5.2015    0.0000 O   0  0  0  0  0  0  0  0  0  0  0  0
    9.1092   -9.7416    0.0000 O   0  0  0  0  0  0  0  0  0  0  0  0
    8.0649  -11.1312    0.0000 O   0  0  0  0  0  0  0  0  0  0  0  0
    9.1640  -10.2181    0.0000 O   0  0  0  0  0  0  0  0  0  0  0  0
    8.3508  -10.3574    0.0000 C   0  0  0  0  0  0  0  0  0  0  0  0
    7.8236   -9.7228    0.0000 C   0  0  1  0  0  0  0  0  0  0  0  0
    7.0498   -9.4369    0.0000 O   0  0  0  0  0  0  0  0  0  0  0  0
    7.6924   -7.2597    0.0000 C   0  0  0  0  0  0  0  0  0  0  0  0
    6.9759   -7.6687    0.0000 C   0  0  0  0  0  0  0  0  0  0  0  0
    6.9719   -8.4937    0.0000 C   0  0  2  0  0  0  0  0  0  0  0  0
    7.6843   -8.9097    0.0000 C   0  0  1  0  0  0  0  0  0  0  0  0
    8.4049   -7.6757    0.0000 C   0  0  1  0  0  0  0  0  0  0  0  0
    8.4008   -8.5007    0.0000 C   0  0  2  0  0  0  0  0  0  0  0  0
    9.1133   -8.9167    0.0000 C   0  0  0  0  0  0  0  0  0  0  0  0
    9.8297   -8.5077    0.0000 C   0  0  0  0  0  0  0  0  0  0  0  0
   10.6032   -7.3850    0.0000 C   0  0  0  0  0  0  0  0  0  0  0  0
    9.8338   -7.6827    0.0000 C   0  0  1  0  0  0  0  0  0  0  0  0
    9.1213   -7.2667    0.0000 C   0  0  1  0  0  0  0  0  0  0  0  0
    9.0024   -6.4503    0.0000 C   0  0  0  0  0  0  0  0  0  0  0  0
    9.5665   -5.8483    0.0000 C   0  0  0  0  0  0  0  0  0  0  0  0
   10.3889   -5.9140    0.0000 C   0  0  0  0  0  0  0  0  0  0  0  0
   10.8503   -6.5979    0.0000 O   0  0  0  0  0  0  0  0  0  0  0  0
 37  1  1  1  0  0  0
 42  2  1  1  0  0  0
 35 20  1  0  0  0  0
 20  5  1  0  0  0  0
  7  3  1  0  0  0  0
  4  3  2  0  0  0  0
  5  4  1  0  0  0  0
  6  5  2  0  0  0  0
  7  6  1  0  0  0  0
 20 19  1  1  0  0  0
 17 19  1  1  0  0  0
 16  8  1  6  0  0  0
 15  9  1  1  0  0  0
 14 10  1  6  0  0  0
 13 12  1  1  0  0  0
 12 11  1  0  0  0  0
 18 13  1  0  0  0  0
 14 13  1  0  0  0  0
 15 14  1  0  0  0  0
 16 15  1  0  0  0  0
 17 16  1  0  0  0  0
 18 17  1  0  0  0  0
 41 21  1  0  0  0  0
 41 22  1  0  0  0  0
 38 23  1  6  0  0  0
 35 24  1  1  0  0  0
 43 25  1  6  0  0  0
 46 26  2  0  0  0  0
 39 27  2  0  0  0  0
 31 30  1  1  0  0  0
 30 28  1  0  0  0  0
 30 29  2  0  0  0  0
 31 36  1  0  0  0  0
 36 32  1  6  0  0  0
 32 31  1  0  0  0  0
 36 38  1  0  0  0  0
 33 37  1  0  0  0  0
 34 33  1  0  0  0  0
 35 34  1  0  0  0  0
 36 35  1  0  0  0  0
 40 42  1  0  0  0  0
 37 43  1  0  0  0  0
 38 37  1  0  0  0  0
 39 38  1  0  0  0  0
 40 39  1  0  0  0  0
 47 41  1  0  0  0  0
 42 41  1  0  0  0  0
 43 42  1  0  0  0  0
 44 43  1  0  0  0  0
 45 44  2  0  0  0  0
 46 45  1  0  0  0  0
 47 46  1  0  0  0  0
M  END
>  <cdx:fragmentId>
5

$$$$
