90051.cdx
  Mrv1902 05222410222D          

 22 24  0  0  0  0            999 V2000
    4.4393   -8.7576    0.0000 C   0  0  0  0  0  0  0  0  0  0  0  0
    4.4393   -9.5826    0.0000 C   0  0  0  0  0  0  0  0  0  0  0  0
    5.1538   -9.9951    0.0000 C   0  0  0  0  0  0  0  0  0  0  0  0
    5.8682   -9.5826    0.0000 C   0  0  0  0  0  0  0  0  0  0  0  0
    5.8682   -8.7576    0.0000 C   0  0  0  0  0  0  0  0  0  0  0  0
    5.1538   -8.3451    0.0000 C   0  0  0  0  0  0  0  0  0  0  0  0
    6.5827   -9.9951    0.0000 C   0  0  0  0  0  0  0  0  0  0  0  0
    7.2972   -9.5826    0.0000 C   0  0  0  0  0  0  0  0  0  0  0  0
    7.2972   -8.7576    0.0000 C   0  0  0  0  0  0  0  0  0  0  0  0
    6.5827   -8.3451    0.0000 O   0  0  0  0  0  0  0  0  0  0  0  0
    8.7261   -8.7576    0.0000 C   0  0  0  0  0  0  0  0  0  0  0  0
    8.0117   -8.3451    0.0000 C   0  0  0  0  0  0  0  0  0  0  0  0
    8.0117   -7.5201    0.0000 C   0  0  0  0  0  0  0  0  0  0  0  0
    7.2972   -7.1076    0.0000 O   0  0  0  0  0  0  0  0  0  0  0  0
    9.4406   -8.3451    0.0000 C   0  0  0  0  0  0  0  0  0  0  0  0
    9.4406   -7.5201    0.0000 C   0  0  0  0  0  0  0  0  0  0  0  0
    8.7261   -7.1076    0.0000 C   0  0  0  0  0  0  0  0  0  0  0  0
    3.7248   -8.3451    0.0000 O   0  0  0  0  0  0  0  0  0  0  0  0
    3.7248   -9.9951    0.0000 O   0  0  0  0  0  0  0  0  0  0  0  0
    5.1538  -10.8201    0.0000 O   0  0  0  0  0  0  0  0  0  0  0  0
    6.5827  -10.8201    0.0000 O   0  0  0  0  0  0  0  0  0  0  0  0
    3.7248  -10.8201    0.0000 C   0  0  0  0  0  0  0  0  0  0  0  0
  1  2  1  0  0  0  0
  2  3  2  0  0  0  0
  3  4  1  0  0  0  0
  4  5  2  0  0  0  0
  5  6  1  0  0  0  0
  6  1  2  0  0  0  0
  4  7  1  0  0  0  0
  7  8  1  0  0  0  0
  8  9  2  0  0  0  0
  9 10  1  0  0  0  0
 10  5  1  0  0  0  0
 11 12  2  0  0  0  0
 12  9  1  0  0  0  0
 12 13  1  0  0  0  0
 13 14  1  0  0  0  0
 11 15  1  0  0  0  0
 15 16  2  0  0  0  0
 16 17  1  0  0  0  0
 17 13  2  0  0  0  0
  1 18  1  0  0  0  0
 19  2  1  0  0  0  0
 20  3  1  0  0  0  0
 21  7  2  0  0  0  0
 19 22  1  0  0  0  0
M  END
>  <cdx:fragmentId>
5

$$$$
