90065.cdx
  Mrv1902 05222410252D          

 24 26  0  0  0  0            999 V2000
    9.5585  -10.3096    0.0000 O   0  0  0  0  0  0  0  0  0  0  0  0
    8.1848   -7.2205    0.0000 C   0  0  0  0  0  0  0  0  0  0  0  0
    7.9783   -8.0192    0.0000 C   0  0  0  0  0  0  0  0  0  0  0  0
    3.7995   -5.4100    0.0000 C   0  0  0  0  0  0  0  0  0  0  0  0
    3.8285   -8.7098    0.0000 C   0  0  0  0  0  0  0  0  0  0  0  0
    3.8067   -6.2349    0.0000 O   0  0  0  0  0  0  0  0  0  0  0  0
    3.8212   -7.8849    0.0000 O   0  0  0  0  0  0  0  0  0  0  0  0
    7.4116   -9.9159    0.0000 C   0  0  0  0  0  0  0  0  0  0  0  0
    8.1296  -10.3221    0.0000 C   0  0  0  0  0  0  0  0  0  0  0  0
    8.8404   -9.9034    0.0000 C   0  0  0  0  0  0  0  0  0  0  0  0
    8.8332   -9.0784    0.0000 C   0  0  0  0  0  0  0  0  0  0  0  0
    6.6862   -8.6847    0.0000 C   0  0  0  0  0  0  0  0  0  0  0  0
    7.4043   -9.0909    0.0000 C   0  0  0  0  0  0  0  0  0  0  0  0
    8.1151   -8.6722    0.0000 C   0  0  0  0  0  0  0  0  0  0  0  0
    6.6790   -7.8598    0.0000 C   0  0  0  0  0  0  0  0  0  0  0  0
    7.3898   -7.4410    0.0000 N   0  3  0  0  0  0  0  0  0  0  0  0
    7.3826   -6.6160    0.0000 C   0  0  0  0  0  0  0  0  0  0  0  0
    6.6645   -6.2098    0.0000 C   0  0  0  0  0  0  0  0  0  0  0  0
    5.2501   -7.8723    0.0000 C   0  0  0  0  0  0  0  0  0  0  0  0
    5.9609   -7.4535    0.0000 C   0  0  0  0  0  0  0  0  0  0  0  0
    5.9537   -6.6286    0.0000 C   0  0  0  0  0  0  0  0  0  0  0  0
    5.2356   -6.2224    0.0000 C   0  0  0  0  0  0  0  0  0  0  0  0
    4.5248   -6.6411    0.0000 C   0  0  0  0  0  0  0  0  0  0  0  0
    4.5320   -7.4661    0.0000 C   0  0  0  0  0  0  0  0  0  0  0  0
 10  1  1  0  0  0  0
 16  2  1  0  0  0  0
 16  3  1  0  0  0  0
  6  4  1  0  0  0  0
  7  5  1  0  0  0  0
  6 23  1  0  0  0  0
 24  7  1  0  0  0  0
  8 13  1  0  0  0  0
  9  8  2  0  0  0  0
 10  9  1  0  0  0  0
 11 10  2  0  0  0  0
 14 11  1  0  0  0  0
 12 15  1  0  0  0  0
 13 12  1  0  0  0  0
 14 13  2  0  0  0  0
 15 20  1  0  0  0  0
 16 15  1  0  0  0  0
 17 16  1  0  0  0  0
 18 17  1  0  0  0  0
 21 18  1  0  0  0  0
 19 24  1  0  0  0  0
 20 19  2  0  0  0  0
 21 20  1  0  0  0  0
 22 21  2  0  0  0  0
 23 22  1  0  0  0  0
 24 23  2  0  0  0  0
M  CHG  1  16   1
M  END
>  <cdx:fragmentId>
5

$$$$
