90060.cdx
  Mrv1902 05222410242D          

 29 31  0  0  0  0            999 V2000
    4.6043   -4.9351    0.0000 C   0  0  0  0  0  0  0  0  0  0  0  0
    4.6043   -5.7601    0.0000 C   0  0  0  0  0  0  0  0  0  0  0  0
    5.3188   -6.1726    0.0000 C   0  0  0  0  0  0  0  0  0  0  0  0
    6.0332   -5.7601    0.0000 C   0  0  0  0  0  0  0  0  0  0  0  0
    6.0332   -4.9351    0.0000 C   0  0  0  0  0  0  0  0  0  0  0  0
    5.3188   -4.5226    0.0000 C   0  0  0  0  0  0  0  0  0  0  0  0
    6.7477   -6.1726    0.0000 C   0  0  0  0  0  0  0  0  0  0  0  0
    7.4622   -5.7601    0.0000 C   0  0  0  0  0  0  0  0  0  0  0  0
    7.4622   -4.9351    0.0000 C   0  0  0  0  0  0  0  0  0  0  0  0
    6.7477   -4.5226    0.0000 O   0  0  0  0  0  0  0  0  0  0  0  0
    8.8911   -4.9351    0.0000 C   0  0  0  0  0  0  0  0  0  0  0  0
    8.1767   -4.5226    0.0000 C   0  0  0  0  0  0  0  0  0  0  0  0
    9.6056   -4.5226    0.0000 C   0  0  0  0  0  0  0  0  0  0  0  0
    9.6056   -3.6976    0.0000 C   0  0  0  0  0  0  0  0  0  0  0  0
    8.8911   -3.2851    0.0000 C   0  0  0  0  0  0  0  0  0  0  0  0
    8.1767   -3.6976    0.0000 C   0  0  0  0  0  0  0  0  0  0  0  0
    5.3188   -3.6976    0.0000 O   0  0  0  0  0  0  0  0  0  0  0  0
    4.6043   -3.2851    0.0000 C   0  0  0  0  0  0  0  0  0  0  0  0
    3.8898   -4.5226    0.0000 O   0  0  0  0  0  0  0  0  0  0  0  0
    3.1754   -4.9351    0.0000 C   0  0  0  0  0  0  0  0  0  0  0  0
    3.8898   -6.1726    0.0000 O   0  0  0  0  0  0  0  0  0  0  0  0
    5.3188   -6.9976    0.0000 O   0  0  0  0  0  0  0  0  0  0  0  0
    6.0332   -7.4101    0.0000 C   0  0  0  0  0  0  0  0  0  0  0  0
    6.7477   -6.9976    0.0000 O   0  0  0  0  0  0  0  0  0  0  0  0
   10.3201   -3.2851    0.0000 O   0  0  0  0  0  0  0  0  0  0  0  0
   11.0345   -3.6976    0.0000 C   0  0  0  0  0  0  0  0  0  0  0  0
   10.3201   -4.9351    0.0000 O   0  0  0  0  0  0  0  0  0  0  0  0
    3.8898   -6.9976    0.0000 C   0  0  0  0  0  0  0  0  0  0  0  0
   10.3201   -5.7601    0.0000 C   0  0  0  0  0  0  0  0  0  0  0  0
  1  2  2  0  0  0  0
  2  3  1  0  0  0  0
  3  4  2  0  0  0  0
  4  5  1  0  0  0  0
  5  6  2  0  0  0  0
  6  1  1  0  0  0  0
  4  7  1  0  0  0  0
  7  8  1  0  0  0  0
  8  9  2  0  0  0  0
  9 10  1  0  0  0  0
 10  5  1  0  0  0  0
 11 12  2  0  0  0  0
 12  9  1  0  0  0  0
 11 13  1  0  0  0  0
 13 14  2  0  0  0  0
 14 15  1  0  0  0  0
 15 16  2  0  0  0  0
 16 12  1  0  0  0  0
  6 17  1  0  0  0  0
 17 18  1  0  0  0  0
  1 19  1  0  0  0  0
 19 20  1  0  0  0  0
  2 21  1  0  0  0  0
  3 22  1  0  0  0  0
 22 23  1  0  0  0  0
  7 24  2  0  0  0  0
 14 25  1  0  0  0  0
 25 26  1  0  0  0  0
 13 27  1  0  0  0  0
 21 28  1  0  0  0  0
 27 29  1  0  0  0  0
M  END
>  <cdx:fragmentId>
5

$$$$
