90068.cdx
  Mrv1902 05222410212D          

 14 14  0  0  0  0            999 V2000
    6.2543   -9.2114    0.0000 C   0  0  0  0  0  0  0  0  0  0  0  0
    6.2543  -10.0364    0.0000 C   0  0  0  0  0  0  0  0  0  0  0  0
    6.9688  -10.4489    0.0000 C   0  0  0  0  0  0  0  0  0  0  0  0
    7.6832  -10.0364    0.0000 C   0  0  0  0  0  0  0  0  0  0  0  0
    7.6832   -9.2114    0.0000 C   0  0  0  0  0  0  0  0  0  0  0  0
    6.9688   -8.7989    0.0000 C   0  0  0  0  0  0  0  0  0  0  0  0
    5.5398  -10.4489    0.0000 O   0  0  0  0  0  0  0  0  0  0  0  0
    6.9688  -11.2739    0.0000 C   0  0  0  0  0  0  0  0  0  0  0  0
    8.3977  -10.4489    0.0000 O   0  0  0  0  0  0  0  0  0  0  0  0
    6.9688   -7.9739    0.0000 C   0  0  0  0  0  0  0  0  0  0  0  0
    8.3977   -8.7989    0.0000 C   0  0  0  0  0  0  0  0  0  0  0  0
    9.1122   -9.2114    0.0000 O   0  0  0  0  0  0  0  0  0  0  0  0
    8.3977   -7.9739    0.0000 O   0  0  0  0  0  0  0  0  0  0  0  0
    9.8267   -8.7989    0.0000 C   0  0  0  0  0  0  0  0  0  0  0  0
  1  2  2  0  0  0  0
  2  3  1  0  0  0  0
  3  4  2  0  0  0  0
  4  5  1  0  0  0  0
  5  6  2  0  0  0  0
  6  1  1  0  0  0  0
  2  7  1  0  0  0  0
  3  8  1  0  0  0  0
  4  9  1  0  0  0  0
  6 10  1  0  0  0  0
  5 11  1  0  0  0  0
 11 12  1  0  0  0  0
 11 13  2  0  0  0  0
 12 14  1  0  0  0  0
M  END
>  <cdx:fragmentId>
5

$$$$
