90066.cdx
  Mrv1902 05222410262D          

 30 31  0  0  0  0            999 V2000
    3.8835   -2.4111    0.0000 C   0  0  0  0  0  0  0  0  0  0  0  0
    3.1650   -2.8166    0.0000 C   0  0  0  0  0  0  0  0  0  0  0  0
    3.1569   -3.6416    0.0000 C   0  0  0  0  0  0  0  0  0  0  0  0
    3.8673   -4.0610    0.0000 C   0  0  0  0  0  0  0  0  0  0  0  0
    4.5857   -3.6556    0.0000 C   0  0  0  0  0  0  0  0  0  0  0  0
    4.5938   -2.8306    0.0000 C   0  0  0  0  0  0  0  0  0  0  0  0
    3.8592   -4.8860    0.0000 C   0  0  0  0  0  0  0  0  0  0  0  0
    4.5695   -5.3055    0.0000 C   0  0  0  0  0  0  0  0  0  0  0  0
    4.5615   -6.1305    0.0000 C   0  0  0  0  0  0  0  0  0  0  0  0
    5.2718   -6.5499    0.0000 C   0  0  0  0  0  0  0  0  0  0  0  0
    5.2637   -7.3749    0.0000 C   0  0  0  0  0  0  0  0  0  0  0  0
    5.9741   -7.7944    0.0000 C   0  0  0  0  0  0  0  0  0  0  0  0
    5.9660   -8.6194    0.0000 C   0  0  0  0  0  0  0  0  0  0  0  0
    6.6764   -9.0389    0.0000 C   0  0  0  0  0  0  0  0  0  0  0  0
    6.6683   -9.8638    0.0000 C   0  0  0  0  0  0  0  0  0  0  0  0
    7.3787  -10.2833    0.0000 C   0  0  0  0  0  0  0  0  0  0  0  0
    7.3706  -11.1083    0.0000 C   0  0  0  0  0  0  0  0  0  0  0  0
    8.0810  -11.5278    0.0000 C   0  0  0  0  0  0  0  0  0  0  0  0
    8.0729  -12.3527    0.0000 C   0  0  0  0  0  0  0  0  0  0  0  0
    8.7833  -12.7722    0.0000 C   0  0  0  0  0  0  0  0  0  0  0  0
    8.7752  -13.5972    0.0000 C   0  0  0  0  0  0  0  0  0  0  0  0
    9.4856  -14.0167    0.0000 C   0  0  0  0  0  0  0  0  0  0  0  0
    9.4775  -14.8416    0.0000 N   0  0  0  0  0  0  0  0  0  0  0  0
   10.1879  -15.2611    0.0000 C   0  0  0  0  0  0  0  0  0  0  0  0
   10.9064  -14.8557    0.0000 C   0  0  0  0  0  0  0  0  0  0  0  0
   10.9145  -14.0307    0.0000 C   0  0  0  0  0  0  0  0  0  0  0  0
   10.2041  -13.6112    0.0000 C   0  0  0  0  0  0  0  0  0  0  0  0
   10.1798  -16.0861    0.0000 C   0  0  0  0  0  0  0  0  0  0  0  0
    8.7590  -15.2471    0.0000 C   0  0  0  0  0  0  0  0  0  0  0  0
   11.6167  -15.2751    0.0000 O   0  0  0  0  0  0  0  0  0  0  0  0
  1  2  2  0  0  0  0
  2  3  1  0  0  0  0
  3  4  2  0  0  0  0
  4  5  1  0  0  0  0
  5  6  2  0  0  0  0
  6  1  1  0  0  0  0
  4  7  1  0  0  0  0
  7  8  1  0  0  0  0
  8  9  1  0  0  0  0
  9 10  1  0  0  0  0
 10 11  1  0  0  0  0
 11 12  1  0  0  0  0
 12 13  1  0  0  0  0
 13 14  1  0  0  0  0
 14 15  1  0  0  0  0
 15 16  1  0  0  0  0
 16 17  1  0  0  0  0
 17 18  1  0  0  0  0
 18 19  1  0  0  0  0
 19 20  1  0  0  0  0
 20 21  1  0  0  0  0
 21 22  1  0  0  0  0
 22 23  1  0  0  0  0
 23 24  1  0  0  0  0
 24 25  1  0  0  0  0
 25 26  1  0  0  0  0
 26 27  1  0  0  0  0
 27 22  1  0  0  0  0
 24 28  1  0  0  0  0
 23 29  1  0  0  0  0
 25 30  1  0  0  0  0
M  END
>  <cdx:fragmentId>
5

$$$$
