90069.cdx
  Mrv1902 05222410212D          

 19 18  0  0  0  0            999 V2000
   11.8397   -8.6710    0.0000 C   0  0  0  0  0  0  0  0  0  0  0  0
   11.1252   -9.0835    0.0000 C   0  0  0  0  0  0  0  0  0  0  0  0
   10.4108   -8.6710    0.0000 C   0  0  0  0  0  0  0  0  0  0  0  0
    9.6963   -9.0835    0.0000 C   0  0  0  0  0  0  0  0  0  0  0  0
    8.9818   -8.6710    0.0000 C   0  0  0  0  0  0  0  0  0  0  0  0
    8.2674   -9.0835    0.0000 C   0  0  0  0  0  0  0  0  0  0  0  0
    7.5529   -8.6710    0.0000 C   0  0  0  0  0  0  0  0  0  0  0  0
    6.8384   -9.0835    0.0000 C   0  0  0  0  0  0  0  0  0  0  0  0
    6.1239   -8.6710    0.0000 C   0  0  0  0  0  0  0  0  0  0  0  0
    5.4095   -9.0835    0.0000 C   0  0  0  0  0  0  0  0  0  0  0  0
    4.6950   -8.6710    0.0000 C   0  0  0  0  0  0  0  0  0  0  0  0
    3.9805   -9.0835    0.0000 C   0  0  0  0  0  0  0  0  0  0  0  0
    3.2661   -8.6710    0.0000 C   0  0  0  0  0  0  0  0  0  0  0  0
    2.5516   -9.0835    0.0000 C   0  0  0  0  0  0  0  0  0  0  0  0
    1.8371   -8.6710    0.0000 C   0  0  0  0  0  0  0  0  0  0  0  0
    1.1226   -9.0835    0.0000 C   0  0  0  0  0  0  0  0  0  0  0  0
   11.8397   -7.8460    0.0000 O   0  0  0  0  0  0  0  0  0  0  0  0
   12.5542   -9.0835    0.0000 O   0  0  0  0  0  0  0  0  0  0  0  0
   13.2687   -8.6710    0.0000 C   0  0  0  0  0  0  0  0  0  0  0  0
  1  2  1  0  0  0  0
  2  3  1  0  0  0  0
  3  4  1  0  0  0  0
  4  5  1  0  0  0  0
  5  6  2  0  0  0  0
  6  7  1  0  0  0  0
  7  8  2  0  0  0  0
  8  9  1  0  0  0  0
  9 10  1  0  0  0  0
 10 11  1  0  0  0  0
 11 12  1  0  0  0  0
 12 13  1  0  0  0  0
 13 14  1  0  0  0  0
 14 15  1  0  0  0  0
 15 16  1  0  0  0  0
  1 17  2  0  0  0  0
  1 18  1  0  0  0  0
 18 19  1  0  0  0  0
M  END
>  <cdx:fragmentId>
5

$$$$
