90064.cdx
  Mrv1902 05222410242D          

 26 29  0  0  0  0            999 V2000
    9.1307   -5.5602    0.0000 C   0  0  0  0  0  0  0  0  0  0  0  0
    8.4126   -5.1541    0.0000 C   0  0  0  0  0  0  0  0  0  0  0  0
    7.7018   -5.5729    0.0000 C   0  0  0  0  0  0  0  0  0  0  0  0
    7.7091   -6.3978    0.0000 C   0  0  0  0  0  0  0  0  0  0  0  0
    8.4272   -6.8040    0.0000 C   0  0  0  0  0  0  0  0  0  0  0  0
    9.1380   -6.3852    0.0000 C   0  0  0  0  0  0  0  0  0  0  0  0
    6.9983   -6.8166    0.0000 C   0  0  0  0  0  0  0  0  0  0  0  0
    7.0056   -7.6416    0.0000 N   0  3  0  0  0  0  0  0  0  0  0  0
    7.7237   -8.0478    0.0000 C   0  0  0  0  0  0  0  0  0  0  0  0
    8.4345   -7.6290    0.0000 C   0  0  0  0  0  0  0  0  0  0  0  0
    6.2802   -6.4105    0.0000 C   0  0  0  0  0  0  0  0  0  0  0  0
    5.5694   -6.8293    0.0000 C   0  0  0  0  0  0  0  0  0  0  0  0
    5.5767   -7.6543    0.0000 C   0  0  0  0  0  0  0  0  0  0  0  0
    6.2948   -8.0604    0.0000 C   0  0  0  0  0  0  0  0  0  0  0  0
    4.8513   -6.4231    0.0000 C   0  0  0  0  0  0  0  0  0  0  0  0
    4.1405   -6.8419    0.0000 C   0  0  0  0  0  0  0  0  0  0  0  0
    4.1478   -7.6669    0.0000 C   0  0  0  0  0  0  0  0  0  0  0  0
    4.8659   -8.0731    0.0000 C   0  0  0  0  0  0  0  0  0  0  0  0
    9.8415   -5.1414    0.0000 O   0  0  0  0  0  0  0  0  0  0  0  0
    8.4053   -4.3291    0.0000 O   0  0  0  0  0  0  0  0  0  0  0  0
    7.0129   -8.4666    0.0000 C   0  0  0  0  0  0  0  0  0  0  0  0
    3.4370   -8.0857    0.0000 O   0  0  0  0  0  0  0  0  0  0  0  0
    4.8732   -8.8980    0.0000 O   0  0  0  0  0  0  0  0  0  0  0  0
    7.6872   -3.9229    0.0000 C   0  0  0  0  0  0  0  0  0  0  0  0
    9.8342   -4.3165    0.0000 C   0  0  0  0  0  0  0  0  0  0  0  0
    4.1624   -9.3168    0.0000 C   0  0  0  0  0  0  0  0  0  0  0  0
  1  2  2  0  0  0  0
  2  3  1  0  0  0  0
  3  4  2  0  0  0  0
  4  5  1  0  0  0  0
  5  6  2  0  0  0  0
  6  1  1  0  0  0  0
  4  7  1  0  0  0  0
  7  8  1  0  0  0  0
  8  9  1  0  0  0  0
  9 10  1  0  0  0  0
 10  5  1  0  0  0  0
  7 11  1  0  0  0  0
 11 12  1  0  0  0  0
 12 13  2  0  0  0  0
 13 14  1  0  0  0  0
 14  8  1  0  0  0  0
 12 15  1  0  0  0  0
 15 16  2  0  0  0  0
 16 17  1  0  0  0  0
 17 18  2  0  0  0  0
 18 13  1  0  0  0  0
  1 19  1  0  0  0  0
 20  2  1  0  0  0  0
  8 21  1  0  0  0  0
 17 22  1  0  0  0  0
 18 23  1  0  0  0  0
 20 24  1  0  0  0  0
 19 25  1  0  0  0  0
 23 26  1  0  0  0  0
M  CHG  1   8   1
M  END
>  <cdx:fragmentId>
5

$$$$
