90063.cdx
  Mrv1902 05222410242D          

 32 35  0  0  0  0            999 V2000
    5.9920   -6.7501    0.0000 C   0  0  0  0  0  0  0  0  0  0  0  0
    5.9920   -5.9251    0.0000 C   0  0  0  0  0  0  0  0  0  0  0  0
    6.7065   -7.1626    0.0000 C   0  0  0  0  0  0  0  0  0  0  0  0
    7.4209   -6.7501    0.0000 C   0  0  0  0  0  0  0  0  0  0  0  0
    7.4209   -5.9251    0.0000 C   0  0  0  0  0  0  0  0  0  0  0  0
    6.7065   -5.5126    0.0000 C   0  0  0  0  0  0  0  0  0  0  0  0
    8.1354   -7.1626    0.0000 C   0  0  0  0  0  0  0  0  0  0  0  0
    8.8499   -6.7501    0.0000 N   0  3  0  0  0  0  0  0  0  0  0  0
    8.8499   -5.9251    0.0000 C   0  0  0  0  0  0  0  0  0  0  0  0
    8.1354   -5.5126    0.0000 C   0  0  0  0  0  0  0  0  0  0  0  0
    8.1354   -7.9876    0.0000 C   0  0  0  0  0  0  0  0  0  0  0  0
    8.8499   -8.4001    0.0000 C   0  0  0  0  0  0  0  0  0  0  0  0
    9.5644   -7.9876    0.0000 C   0  0  0  0  0  0  0  0  0  0  0  0
    9.5644   -7.1626    0.0000 C   0  0  0  0  0  0  0  0  0  0  0  0
    8.8499   -9.2251    0.0000 C   0  0  0  0  0  0  0  0  0  0  0  0
    9.5644   -9.6376    0.0000 C   0  0  0  0  0  0  0  0  0  0  0  0
   10.2788   -9.2251    0.0000 C   0  0  0  0  0  0  0  0  0  0  0  0
   10.2788   -8.4001    0.0000 C   0  0  0  0  0  0  0  0  0  0  0  0
   10.9933   -9.6376    0.0000 O   0  0  0  0  0  0  0  0  0  0  0  0
    5.2775   -5.5126    0.0000 O   0  0  0  0  0  0  0  0  0  0  0  0
    5.2775   -7.1626    0.0000 O   0  0  0  0  0  0  0  0  0  0  0  0
    4.4531   -7.1323    0.0000 C   0  0  2  0  0  0  0  0  0  0  0  0
    4.0672   -6.4031    0.0000 O   0  0  0  0  0  0  0  0  0  0  0  0
    3.2427   -6.3727    0.0000 C   0  0  1  0  0  0  0  0  0  0  0  0
    2.8042   -7.0715    0.0000 C   0  0  2  0  0  0  0  0  0  0  0  0
    3.1901   -7.8007    0.0000 C   0  0  1  0  0  0  0  0  0  0  0  0
    4.0146   -7.8311    0.0000 C   0  0  1  0  0  0  0  0  0  0  0  0
    2.8568   -5.6435    0.0000 C   0  0  0  0  0  0  0  0  0  0  0  0
    2.7516   -8.4995    0.0000 O   0  0  0  0  0  0  0  0  0  0  0  0
    4.4005   -8.5602    0.0000 O   0  0  0  0  0  0  0  0  0  0  0  0
    1.9798   -7.0411    0.0000 O   0  0  0  0  0  0  0  0  0  0  0  0
    2.0324   -5.6132    0.0000 O   0  0  0  0  0  0  0  0  0  0  0  0
  1  2  2  0  0  0  0
  1  3  1  0  0  0  0
  3  4  2  0  0  0  0
  4  5  1  0  0  0  0
  5  6  2  0  0  0  0
  6  2  1  0  0  0  0
  4  7  1  0  0  0  0
  7  8  1  0  0  0  0
  8  9  1  0  0  0  0
  9 10  1  0  0  0  0
 10  5  1  0  0  0  0
  7 11  1  0  0  0  0
 11 12  1  0  0  0  0
 12 13  2  0  0  0  0
 14  8  1  0  0  0  0
 12 15  1  0  0  0  0
 15 16  2  0  0  0  0
 16 17  1  0  0  0  0
 17 18  2  0  0  0  0
 18 13  1  0  0  0  0
 17 19  1  0  0  0  0
  2 20  1  0  0  0  0
  1 21  1  0  0  0  0
 22 21  1  1  0  0  0
 22 23  1  0  0  0  0
 23 24  1  0  0  0  0
 24 25  1  0  0  0  0
 25 26  1  0  0  0  0
 26 27  1  0  0  0  0
 27 22  1  0  0  0  0
 24 28  1  1  0  0  0
 26 29  1  1  0  0  0
 27 30  1  6  0  0  0
 25 31  1  6  0  0  0
 28 32  1  0  0  0  0
M  CHG  1   8   1
M  END
>  <cdx:fragmentId>
5

$$$$
