90061.cdx
  Mrv1902 05222410242D          

 26 30  0  0  0  0            999 V2000
    9.0380   -7.2173    0.0000 C   0  0  0  0  0  0  0  0  0  0  0  0
    9.7562   -7.6232    0.0000 C   0  0  0  0  0  0  0  0  0  0  0  0
    8.3274   -7.6364    0.0000 C   0  0  0  0  0  0  0  0  0  0  0  0
    8.3350   -8.4614    0.0000 C   0  0  0  0  0  0  0  0  0  0  0  0
    9.0532   -8.8672    0.0000 C   0  0  0  0  0  0  0  0  0  0  0  0
    9.7639   -8.4481    0.0000 C   0  0  0  0  0  0  0  0  0  0  0  0
    7.6244   -8.8804    0.0000 C   0  0  0  0  0  0  0  0  0  0  0  0
    7.6320   -9.7054    0.0000 N   0  3  0  0  0  0  0  0  0  0  0  0
    8.3502  -10.1113    0.0000 C   0  0  0  0  0  0  0  0  0  0  0  0
    9.0609   -9.6922    0.0000 C   0  0  0  0  0  0  0  0  0  0  0  0
    6.9061   -8.4746    0.0000 C   0  0  0  0  0  0  0  0  0  0  0  0
    6.1955   -8.8937    0.0000 C   0  0  0  0  0  0  0  0  0  0  0  0
    6.2031   -9.7186    0.0000 C   0  0  0  0  0  0  0  0  0  0  0  0
    6.9214  -10.1245    0.0000 C   0  0  0  0  0  0  0  0  0  0  0  0
    5.4772   -8.4878    0.0000 C   0  0  0  0  0  0  0  0  0  0  0  0
    4.7666   -8.9069    0.0000 C   0  0  0  0  0  0  0  0  0  0  0  0
    4.7742   -9.7319    0.0000 C   0  0  0  0  0  0  0  0  0  0  0  0
    5.4925  -10.1377    0.0000 C   0  0  0  0  0  0  0  0  0  0  0  0
    4.0636  -10.1509    0.0000 O   0  0  0  0  0  0  0  0  0  0  0  0
    5.5001  -10.9627    0.0000 O   0  0  0  0  0  0  0  0  0  0  0  0
   10.3642   -7.0655    0.0000 O   0  0  0  0  0  0  0  0  0  0  0  0
   10.0217   -6.3150    0.0000 C   0  0  0  0  0  0  0  0  0  0  0  0
    9.2020   -6.4088    0.0000 O   0  0  0  0  0  0  0  0  0  0  0  0
    7.6396  -10.5304    0.0000 C   0  0  0  0  0  0  0  0  0  0  0  0
    4.7895  -11.3818    0.0000 C   0  0  0  0  0  0  0  0  0  0  0  0
    3.3454   -9.7451    0.0000 C   0  0  0  0  0  0  0  0  0  0  0  0
  1  2  2  0  0  0  0
  1  3  1  0  0  0  0
  3  4  2  0  0  0  0
  4  5  1  0  0  0  0
  5  6  2  0  0  0  0
  6  2  1  0  0  0  0
  4  7  1  0  0  0  0
  7  8  1  0  0  0  0
  8  9  1  0  0  0  0
  9 10  1  0  0  0  0
 10  5  1  0  0  0  0
  7 11  1  0  0  0  0
 11 12  1  0  0  0  0
 12 13  2  0  0  0  0
 13 14  1  0  0  0  0
 14  8  1  0  0  0  0
 12 15  1  0  0  0  0
 15 16  2  0  0  0  0
 16 17  1  0  0  0  0
 17 18  2  0  0  0  0
 18 13  1  0  0  0  0
 17 19  1  0  0  0  0
 20 18  1  0  0  0  0
  2 21  1  0  0  0  0
 21 22  1  0  0  0  0
 22 23  1  0  0  0  0
 23  1  1  0  0  0  0
  8 24  1  0  0  0  0
 20 25  1  0  0  0  0
 19 26  1  0  0  0  0
M  CHG  1   8   1
M  END
>  <cdx:fragmentId>
5

$$$$
