90071.cdx
  Mrv1902 05222410252D          

 27 30  0  0  0  0            999 V2000
   10.2487   -5.6162    0.0000 C   0  0  0  0  0  0  0  0  0  0  0  0
    9.5389   -5.1957    0.0000 C   0  0  0  0  0  0  0  0  0  0  0  0
    8.8198   -5.6001    0.0000 C   0  0  0  0  0  0  0  0  0  0  0  0
    8.8105   -6.4250    0.0000 C   0  0  0  0  0  0  0  0  0  0  0  0
    9.5203   -6.8456    0.0000 C   0  0  0  0  0  0  0  0  0  0  0  0
   10.2394   -6.4411    0.0000 C   0  0  0  0  0  0  0  0  0  0  0  0
    8.0914   -6.8295    0.0000 C   0  0  0  0  0  0  0  0  0  0  0  0
    8.0821   -7.6544    0.0000 N   0  3  0  0  0  0  0  0  0  0  0  0
    8.7919   -8.0749    0.0000 C   0  0  0  0  0  0  0  0  0  0  0  0
    9.5110   -7.6705    0.0000 C   0  0  0  0  0  0  0  0  0  0  0  0
    7.3817   -6.4089    0.0000 C   0  0  0  0  0  0  0  0  0  0  0  0
    6.6626   -6.8134    0.0000 C   0  0  0  0  0  0  0  0  0  0  0  0
    6.6533   -7.6383    0.0000 C   0  0  0  0  0  0  0  0  0  0  0  0
    7.3631   -8.0588    0.0000 C   0  0  0  0  0  0  0  0  0  0  0  0
    5.9528   -6.3928    0.0000 C   0  0  0  0  0  0  0  0  0  0  0  0
    5.2337   -6.7973    0.0000 C   0  0  0  0  0  0  0  0  0  0  0  0
    5.2244   -7.6222    0.0000 C   0  0  0  0  0  0  0  0  0  0  0  0
    5.9342   -8.0427    0.0000 C   0  0  0  0  0  0  0  0  0  0  0  0
   10.9677   -5.2118    0.0000 O   0  0  0  0  0  0  0  0  0  0  0  0
    9.5482   -4.3707    0.0000 O   0  0  0  0  0  0  0  0  0  0  0  0
    4.5240   -6.3767    0.0000 O   0  0  0  0  0  0  0  0  0  0  0  0
    4.5054   -8.0266    0.0000 O   0  0  0  0  0  0  0  0  0  0  0  0
    5.9249   -8.8677    0.0000 O   0  0  0  0  0  0  0  0  0  0  0  0
   10.9770   -4.3868    0.0000 C   0  0  0  0  0  0  0  0  0  0  0  0
   10.2673   -3.9663    0.0000 C   0  0  0  0  0  0  0  0  0  0  0  0
    5.2058   -9.2721    0.0000 C   0  0  0  0  0  0  0  0  0  0  0  0
    3.7956   -7.6061    0.0000 C   0  0  0  0  0  0  0  0  0  0  0  0
  1  2  2  0  0  0  0
  2  3  1  0  0  0  0
  3  4  2  0  0  0  0
  4  5  1  0  0  0  0
  5  6  2  0  0  0  0
  6  1  1  0  0  0  0
  4  7  1  0  0  0  0
  7  8  2  0  0  0  0
  8  9  1  0  0  0  0
  9 10  1  0  0  0  0
 10  5  1  0  0  0  0
  7 11  1  0  0  0  0
 11 12  2  0  0  0  0
 12 13  1  0  0  0  0
 13 14  2  0  0  0  0
 14  8  1  0  0  0  0
 12 15  1  0  0  0  0
 15 16  2  0  0  0  0
 16 17  1  0  0  0  0
 17 18  2  0  0  0  0
 18 13  1  0  0  0  0
  1 19  1  0  0  0  0
  2 20  1  0  0  0  0
 16 21  1  0  0  0  0
 17 22  1  0  0  0  0
 18 23  1  0  0  0  0
 19 24  1  0  0  0  0
 20 25  1  0  0  0  0
 23 26  1  0  0  0  0
 22 27  1  0  0  0  0
M  CHG  1   8   1
M  END
>  <cdx:fragmentId>
5

$$$$
