90076.cdx
  Mrv1902 05222410232D          

 38 41  0  0  0  0            999 V2000
    9.8875   -4.8566    0.0000 H   0  0  0  0  0  0  0  0  0  0  0  0
    9.8694   -7.3225    0.0000 H   0  0  0  0  0  0  0  0  0  0  0  0
    9.0656   -7.7337    0.0000 O   0  0  0  0  0  0  0  0  0  0  0  0
   11.6164   -7.7680    0.0000 O   0  0  0  0  0  0  0  0  0  0  0  0
   10.8211   -7.5486    0.0000 C   0  0  0  0  0  0  0  0  0  0  0  0
    8.3784   -3.1910    0.0000 C   0  0  0  0  0  0  0  0  0  0  0  0
    8.3784   -4.0160    0.0000 O   0  0  0  0  0  0  0  0  0  0  0  0
    9.8073   -4.0265    0.0000 O   0  0  0  0  0  0  0  0  0  0  0  0
    9.0898   -4.4338    0.0000 C   0  0  0  0  0  0  0  0  0  0  0  0
   10.5719   -6.7621    0.0000 C   0  0  0  0  0  0  0  0  0  0  0  0
   11.0617   -6.0983    0.0000 C   0  0  0  0  0  0  0  0  0  0  0  0
   10.5817   -5.4273    0.0000 C   0  0  0  0  0  0  0  0  0  0  0  0
    9.0717   -6.9087    0.0000 C   0  0  1  0  0  0  0  0  0  0  0  0
    9.7892   -6.5014    0.0000 C   0  0  1  0  0  0  0  0  0  0  0  0
    9.7952   -5.6765    0.0000 C   0  0  1  0  0  0  0  0  0  0  0  0
    9.0838   -5.2587    0.0000 C   0  0  0  0  0  0  0  0  0  0  0  0
    8.3663   -5.6660    0.0000 C   0  0  0  0  0  0  0  0  0  0  0  0
    8.3603   -6.4910    0.0000 O   0  0  0  0  0  0  0  0  0  0  0  0
    6.9092   -8.1558    0.0000 C   0  0  2  0  0  0  0  0  0  0  0  0
    6.9125   -8.9808    0.0000 C   0  0  2  0  0  0  0  0  0  0  0  0
    7.6286   -9.3905    0.0000 C   0  0  1  0  0  0  0  0  0  0  0  0
    8.3414   -8.9751    0.0000 C   0  0  2  0  0  0  0  0  0  0  0  0
    8.3381   -8.1501    0.0000 C   0  0  1  0  0  0  0  0  0  0  0  0
    7.6220   -7.7405    0.0000 O   0  0  0  0  0  0  0  0  0  0  0  0
    6.1931   -7.7461    0.0000 C   0  0  0  0  0  0  0  0  0  0  0  0
    7.6318  -10.2155    0.0000 O   0  0  0  0  0  0  0  0  0  0  0  0
    6.1996   -9.3961    0.0000 O   0  0  0  0  0  0  0  0  0  0  0  0
    9.0575   -9.3848    0.0000 O   0  0  0  0  0  0  0  0  0  0  0  0
    5.4803   -8.1615    0.0000 O   0  0  0  0  0  0  0  0  0  0  0  0
    4.7603   -7.7337    0.0000 C   0  0  2  0  0  0  0  0  0  0  0  0
    4.6638   -6.9144    0.0000 O   0  0  0  0  0  0  0  0  0  0  0  0
    3.8548   -6.7529    0.0000 C   0  0  0  0  0  0  0  0  0  0  0  0
    3.4423   -7.4673    0.0000 C   0  0  2  0  0  0  0  0  0  0  0  0
    3.9964   -8.0703    0.0000 C   0  0  1  0  0  0  0  0  0  0  0  0
    3.8274   -8.8778    0.0000 O   0  0  0  0  0  0  0  0  0  0  0  0
    2.8589   -8.0507    0.0000 O   0  0  0  0  0  0  0  0  0  0  0  0
    2.6454   -7.2538    0.0000 C   0  0  0  0  0  0  0  0  0  0  0  0
    2.4319   -6.4569    0.0000 O   0  0  0  0  0  0  0  0  0  0  0  0
 15  1  1  6  0  0  0
 14  2  1  6  0  0  0
 13  3  1  6  0  0  0
  5  4  1  0  0  0  0
 10  5  1  0  0  0  0
  7  6  1  0  0  0  0
  9  7  1  0  0  0  0
  9  8  2  0  0  0  0
 16  9  1  0  0  0  0
 10 14  1  0  0  0  0
 11 10  2  0  0  0  0
 12 11  1  0  0  0  0
 15 12  1  0  0  0  0
 13 18  1  0  0  0  0
 14 13  1  0  0  0  0
 15 14  1  0  0  0  0
 16 15  1  0  0  0  0
 17 16  2  0  0  0  0
 18 17  1  0  0  0  0
 19 20  1  0  0  0  0
 20 21  1  0  0  0  0
 21 22  1  0  0  0  0
 22 23  1  0  0  0  0
 23 24  1  0  0  0  0
 24 19  1  0  0  0  0
 19 25  1  1  0  0  0
 21 26  1  1  0  0  0
 20 27  1  6  0  0  0
 22 28  1  6  0  0  0
 25 29  1  0  0  0  0
 23  3  1  1  0  0  0
 30 29  1  1  0  0  0
 30 31  1  0  0  0  0
 31 32  1  0  0  0  0
 32 33  1  0  0  0  0
 33 34  1  0  0  0  0
 34 30  1  0  0  0  0
 34 35  1  6  0  0  0
 33 36  1  6  0  0  0
 33 37  1  0  0  0  0
 37 38  1  0  0  0  0
M  END
>  <cdx:fragmentId>
5

$$$$
