90079.cdx
  Mrv1902 05222410222D          

 28 29  0  0  0  0            999 V2000
    6.7043   -9.3294    0.0000 C   0  0  0  0  0  0  0  0  0  0  0  0
    5.9976   -8.9037    0.0000 C   0  0  0  0  0  0  0  0  0  0  0  0
    3.1133  -10.5072    0.0000 O   0  0  0  0  0  0  0  0  0  0  0  0
    5.2632  -10.1295    0.0000 C   0  0  0  0  0  0  0  0  0  0  0  0
    5.2765   -9.3046    0.0000 C   0  0  0  0  0  0  0  0  0  0  0  0
    4.5688   -8.8806    0.0000 C   0  0  0  0  0  0  0  0  0  0  0  0
    3.8478   -9.2815    0.0000 C   0  0  0  0  0  0  0  0  0  0  0  0
    3.8344  -10.1064    0.0000 C   0  0  0  0  0  0  0  0  0  0  0  0
    4.5421  -10.5304    0.0000 C   0  0  0  0  0  0  0  0  0  0  0  0
    7.4188   -8.9169    0.0000 C   0  0  0  0  0  0  0  0  0  0  0  0
    8.1332   -9.3294    0.0000 O   0  0  0  0  0  0  0  0  0  0  0  0
    7.4188   -8.0919    0.0000 O   0  0  0  0  0  0  0  0  0  0  0  0
    8.8477   -8.9169    0.0000 C   0  0  1  0  0  0  0  0  0  0  0  0
    9.5622   -9.3294    0.0000 C   0  0  1  0  0  0  0  0  0  0  0  0
   10.2766   -8.9169    0.0000 C   0  0  1  0  0  0  0  0  0  0  0  0
   10.2766   -8.0919    0.0000 C   0  0  0  0  0  0  0  0  0  0  0  0
    9.5622   -7.6794    0.0000 C   0  0  1  0  0  0  0  0  0  0  0  0
    8.8477   -8.0919    0.0000 C   0  0  0  0  0  0  0  0  0  0  0  0
    9.5622  -10.1544    0.0000 O   0  0  0  0  0  0  0  0  0  0  0  0
   10.9911   -9.3294    0.0000 O   0  0  0  0  0  0  0  0  0  0  0  0
    9.1497   -6.9649    0.0000 O   0  0  0  0  0  0  0  0  0  0  0  0
    9.9747   -6.9649    0.0000 C   0  0  0  0  0  0  0  0  0  0  0  0
   10.7997   -6.9649    0.0000 O   0  0  0  0  0  0  0  0  0  0  0  0
    9.5622   -6.2504    0.0000 O   0  0  0  0  0  0  0  0  0  0  0  0
    3.1401   -8.8575    0.0000 O   0  0  0  0  0  0  0  0  0  0  0  0
    2.4190   -9.2583    0.0000 C   0  0  0  0  0  0  0  0  0  0  0  0
   11.2122   -6.2504    0.0000 C   0  0  0  0  0  0  0  0  0  0  0  0
   12.0372   -6.2504    0.0000 C   0  0  0  0  0  0  0  0  0  0  0  0
  2  1  2  0  0  0  0
  5  2  1  0  0  0  0
  8  3  1  0  0  0  0
  4  9  1  0  0  0  0
  5  4  2  0  0  0  0
  6  5  1  0  0  0  0
  7  6  2  0  0  0  0
  8  7  1  0  0  0  0
  9  8  2  0  0  0  0
  1 10  1  0  0  0  0
 10 11  1  0  0  0  0
 10 12  2  0  0  0  0
 13 11  1  6  0  0  0
 13 14  1  0  0  0  0
 14 15  1  0  0  0  0
 15 16  1  0  0  0  0
 16 17  1  0  0  0  0
 17 18  1  0  0  0  0
 18 13  1  0  0  0  0
 14 19  1  1  0  0  0
 15 20  1  1  0  0  0
 17 21  1  1  0  0  0
 17 22  1  0  0  0  0
 22 23  1  0  0  0  0
 22 24  2  0  0  0  0
  7 25  1  0  0  0  0
 25 26  1  0  0  0  0
 23 27  1  0  0  0  0
 27 28  1  0  0  0  0
M  END
>  <cdx:fragmentId>
142

$$$$
