90075.cdx
  Mrv1902 05222410242D          

 39 42  0  0  0  0            999 V2000
    9.3475   -7.9100    0.0000 O   0  0  0  0  0  0  0  0  0  0  0  0
    7.1929   -8.3416    0.0000 C   0  0  2  0  0  0  0  0  0  0  0  0
    7.1998   -9.1665    0.0000 C   0  0  2  0  0  0  0  0  0  0  0  0
    7.9177   -9.5731    0.0000 C   0  0  1  0  0  0  0  0  0  0  0  0
    8.6287   -9.1546    0.0000 C   0  0  2  0  0  0  0  0  0  0  0  0
    8.6218   -8.3297    0.0000 C   0  0  1  0  0  0  0  0  0  0  0  0
    7.9040   -7.9231    0.0000 O   0  0  0  0  0  0  0  0  0  0  0  0
    6.4751   -7.9350    0.0000 C   0  0  0  0  0  0  0  0  0  0  0  0
    7.9246  -10.3980    0.0000 O   0  0  0  0  0  0  0  0  0  0  0  0
    6.4888   -9.5850    0.0000 O   0  0  0  0  0  0  0  0  0  0  0  0
    9.3466   -9.5612    0.0000 O   0  0  0  0  0  0  0  0  0  0  0  0
    5.7641   -8.3535    0.0000 O   0  0  0  0  0  0  0  0  0  0  0  0
    3.6936   -7.6244    0.0000 C   0  0  1  0  0  0  0  0  0  0  0  0
    3.2766   -8.3362    0.0000 C   0  0  1  0  0  0  0  0  0  0  0  0
    3.6846   -9.0533    0.0000 C   0  0  2  0  0  0  0  0  0  0  0  0
    4.5096   -9.0585    0.0000 C   0  0  2  0  0  0  0  0  0  0  0  0
    4.9266   -8.3467    0.0000 C   0  0  1  0  0  0  0  0  0  0  0  0
    4.5186   -7.6296    0.0000 O   0  0  0  0  0  0  0  0  0  0  0  0
    2.4517   -8.3310    0.0000 O   0  0  0  0  0  0  0  0  0  0  0  0
    4.9176   -9.7756    0.0000 O   0  0  0  0  0  0  0  0  0  0  0  0
    3.2676   -9.7652    0.0000 O   0  0  0  0  0  0  0  0  0  0  0  0
    3.2857   -6.9073    0.0000 C   0  0  0  0  0  0  0  0  0  0  0  0
   10.1482   -5.0270    0.0000 H   0  0  0  0  0  0  0  0  0  0  0  0
   10.1482   -7.4930    0.0000 H   0  0  0  0  0  0  0  0  0  0  0  0
   11.8984   -7.9256    0.0000 O   0  0  0  0  0  0  0  0  0  0  0  0
   11.1016   -7.7121    0.0000 C   0  0  0  0  0  0  0  0  0  0  0  0
    7.9186   -4.6100    0.0000 C   0  0  0  0  0  0  0  0  0  0  0  0
    8.6331   -4.1975    0.0000 O   0  0  0  0  0  0  0  0  0  0  0  0
   10.0620   -4.1975    0.0000 O   0  0  0  0  0  0  0  0  0  0  0  0
    9.3475   -4.6100    0.0000 C   0  0  0  0  0  0  0  0  0  0  0  0
   10.8466   -6.9274    0.0000 C   0  0  0  0  0  0  0  0  0  0  0  0
   11.3315   -6.2600    0.0000 C   0  0  0  0  0  0  0  0  0  0  0  0
   10.8466   -5.5926    0.0000 C   0  0  0  0  0  0  0  0  0  0  0  0
    9.3475   -7.0850    0.0000 C   0  0  1  0  0  0  0  0  0  0  0  0
   10.0620   -6.6725    0.0000 C   0  0  1  0  0  0  0  0  0  0  0  0
   10.0620   -5.8475    0.0000 C   0  0  1  0  0  0  0  0  0  0  0  0
    9.3475   -5.4350    0.0000 C   0  0  0  0  0  0  0  0  0  0  0  0
    8.6331   -5.8475    0.0000 C   0  0  0  0  0  0  0  0  0  0  0  0
    8.6331   -6.6725    0.0000 O   0  0  0  0  0  0  0  0  0  0  0  0
  2  3  1  0  0  0  0
  3  4  1  0  0  0  0
  4  5  1  0  0  0  0
  5  6  1  0  0  0  0
  6  7  1  0  0  0  0
  7  2  1  0  0  0  0
  2  8  1  1  0  0  0
  4  9  1  1  0  0  0
  3 10  1  6  0  0  0
  5 11  1  6  0  0  0
  8 12  1  0  0  0  0
  6  1  1  1  0  0  0
 13 14  1  0  0  0  0
 14 15  1  0  0  0  0
 15 16  1  0  0  0  0
 16 17  1  0  0  0  0
 17 18  1  0  0  0  0
 18 13  1  0  0  0  0
 14 19  1  1  0  0  0
 16 20  1  6  0  0  0
 15 21  1  6  0  0  0
 17 12  1  1  0  0  0
 36 23  1  6  0  0  0
 35 24  1  6  0  0  0
 34  1  1  6  0  0  0
 13 22  1  6  0  0  0
 26 25  1  0  0  0  0
 31 26  1  0  0  0  0
 28 27  1  0  0  0  0
 30 28  1  0  0  0  0
 30 29  2  0  0  0  0
 37 30  1  0  0  0  0
 31 35  1  0  0  0  0
 32 31  2  0  0  0  0
 33 32  1  0  0  0  0
 36 33  1  0  0  0  0
 34 39  1  0  0  0  0
 35 34  1  0  0  0  0
 36 35  1  0  0  0  0
 37 36  1  0  0  0  0
 38 37  2  0  0  0  0
 39 38  1  0  0  0  0
M  END
>  <cdx:fragmentId>
5

$$$$
