90078.cdx
  Mrv1902 05222410222D          

 32 35  0  0  0  0            999 V2000
    6.0343   -8.1114    0.0000 C   0  0  0  0  0  0  0  0  0  0  0  0
    6.0343   -8.9364    0.0000 C   0  0  0  0  0  0  0  0  0  0  0  0
    6.7488   -9.3489    0.0000 C   0  0  0  0  0  0  0  0  0  0  0  0
    7.4632   -8.9364    0.0000 C   0  0  0  0  0  0  0  0  0  0  0  0
    7.4632   -8.1114    0.0000 C   0  0  0  0  0  0  0  0  0  0  0  0
    6.7488   -7.6989    0.0000 C   0  0  0  0  0  0  0  0  0  0  0  0
    8.1777   -9.3489    0.0000 C   0  0  0  0  0  0  0  0  0  0  0  0
    8.8922   -8.9364    0.0000 C   0  0  0  0  0  0  0  0  0  0  0  0
    8.8922   -8.1114    0.0000 C   0  0  0  0  0  0  0  0  0  0  0  0
    8.1777   -7.6989    0.0000 O   0  0  0  0  0  0  0  0  0  0  0  0
    9.6067   -9.3489    0.0000 O   0  0  0  0  0  0  0  0  0  0  0  0
   10.3211   -8.1114    0.0000 C   0  0  0  0  0  0  0  0  0  0  0  0
    9.6067   -7.6989    0.0000 C   0  0  0  0  0  0  0  0  0  0  0  0
   11.0356   -7.6989    0.0000 C   0  0  0  0  0  0  0  0  0  0  0  0
   11.0356   -6.8739    0.0000 C   0  0  0  0  0  0  0  0  0  0  0  0
   10.3211   -6.4614    0.0000 C   0  0  0  0  0  0  0  0  0  0  0  0
    9.6067   -6.8739    0.0000 C   0  0  0  0  0  0  0  0  0  0  0  0
    6.7488  -10.1739    0.0000 O   0  0  0  0  0  0  0  0  0  0  0  0
    8.1777  -10.1739    0.0000 O   0  0  0  0  0  0  0  0  0  0  0  0
    5.3198   -7.6989    0.0000 O   0  0  0  0  0  0  0  0  0  0  0  0
    4.6054   -8.1114    0.0000 C   0  0  2  0  0  0  0  0  0  0  0  0
    3.8909   -7.6989    0.0000 O   0  0  0  0  0  0  0  0  0  0  0  0
    3.1764   -8.1114    0.0000 C   0  0  1  0  0  0  0  0  0  0  0  0
    3.1764   -8.9364    0.0000 C   0  0  2  0  0  0  0  0  0  0  0  0
    3.8909   -9.3489    0.0000 C   0  0  1  0  0  0  0  0  0  0  0  0
    4.6054   -8.9364    0.0000 C   0  0  1  0  0  0  0  0  0  0  0  0
    2.4619   -7.6989    0.0000 C   0  0  0  0  0  0  0  0  0  0  0  0
    3.8909  -10.1739    0.0000 O   0  0  0  0  0  0  0  0  0  0  0  0
    5.3198   -9.3489    0.0000 O   0  0  0  0  0  0  0  0  0  0  0  0
    2.4619   -9.3489    0.0000 O   0  0  0  0  0  0  0  0  0  0  0  0
    1.7475   -8.1114    0.0000 O   0  0  0  0  0  0  0  0  0  0  0  0
    2.4619   -6.8739    0.0000 O   0  0  0  0  0  0  0  0  0  0  0  0
  1  2  2  0  0  0  0
  2  3  1  0  0  0  0
  3  4  2  0  0  0  0
  4  5  1  0  0  0  0
  5  6  2  0  0  0  0
  6  1  1  0  0  0  0
  4  7  1  0  0  0  0
  7  8  1  0  0  0  0
  8  9  2  0  0  0  0
  9 10  1  0  0  0  0
 10  5  1  0  0  0  0
  8 11  1  0  0  0  0
 12 13  1  0  0  0  0
 13  9  1  0  0  0  0
 12 14  2  0  0  0  0
 14 15  1  0  0  0  0
 15 16  2  0  0  0  0
 16 17  1  0  0  0  0
 17 13  2  0  0  0  0
  3 18  1  0  0  0  0
 19  7  2  0  0  0  0
  1 20  1  0  0  0  0
 21 20  1  1  0  0  0
 21 22  1  0  0  0  0
 22 23  1  0  0  0  0
 23 24  1  0  0  0  0
 24 25  1  0  0  0  0
 25 26  1  0  0  0  0
 26 21  1  0  0  0  0
 23 27  1  1  0  0  0
 25 28  1  1  0  0  0
 26 29  1  6  0  0  0
 24 30  1  6  0  0  0
 27 31  1  0  0  0  0
 27 32  2  0  0  0  0
M  END
>  <cdx:fragmentId>
5

$$$$
