90074.cdx
  Mrv1902 05222410242D          

 38 41  0  0  0  0            999 V2000
    7.5625   -8.7171    0.0000 C   0  0  1  0  0  0  0  0  0  0  0  0
    8.2770   -8.3046    0.0000 C   0  0  1  0  0  0  0  0  0  0  0  0
    8.2770   -7.4796    0.0000 C   0  0  1  0  0  0  0  0  0  0  0  0
    7.5625   -7.0671    0.0000 C   0  0  0  0  0  0  0  0  0  0  0  0
    6.8480   -7.4796    0.0000 C   0  0  0  0  0  0  0  0  0  0  0  0
    6.8480   -8.3046    0.0000 O   0  0  0  0  0  0  0  0  0  0  0  0
    9.0616   -7.2247    0.0000 C   0  0  0  0  0  0  0  0  0  0  0  0
    9.5465   -7.8921    0.0000 C   0  0  0  0  0  0  0  0  0  0  0  0
    9.0616   -8.5596    0.0000 C   0  0  0  0  0  0  0  0  0  0  0  0
    7.5625   -6.2421    0.0000 C   0  0  0  0  0  0  0  0  0  0  0  0
    8.2770   -5.8296    0.0000 O   0  0  0  0  0  0  0  0  0  0  0  0
    6.8480   -5.8296    0.0000 O   0  0  0  0  0  0  0  0  0  0  0  0
    7.5625   -9.5421    0.0000 O   0  0  0  0  0  0  0  0  0  0  0  0
    9.3165   -9.3442    0.0000 C   0  0  0  0  0  0  0  0  0  0  0  0
   10.1235   -9.5157    0.0000 O   0  0  0  0  0  0  0  0  0  0  0  0
    8.3632   -6.6591    0.0000 H   0  0  0  0  0  0  0  0  0  0  0  0
    8.3632   -9.1251    0.0000 H   0  0  0  0  0  0  0  0  0  0  0  0
    6.8480   -5.0046    0.0000 C   0  0  0  0  0  0  0  0  0  0  0  0
    6.8480   -9.9546    0.0000 C   0  0  2  0  0  0  0  0  0  0  0  0
    6.1336   -9.5421    0.0000 O   0  0  0  0  0  0  0  0  0  0  0  0
    5.4191   -9.9546    0.0000 C   0  0  1  0  0  0  0  0  0  0  0  0
    5.4191  -10.7796    0.0000 C   0  0  2  0  0  0  0  0  0  0  0  0
    6.1336  -11.1921    0.0000 C   0  0  1  0  0  0  0  0  0  0  0  0
    6.8480  -10.7796    0.0000 C   0  0  1  0  0  0  0  0  0  0  0  0
    4.7046   -9.5421    0.0000 C   0  0  0  0  0  0  0  0  0  0  0  0
    6.1336  -12.0171    0.0000 O   0  0  0  0  0  0  0  0  0  0  0  0
    7.5625  -11.1921    0.0000 O   0  0  0  0  0  0  0  0  0  0  0  0
    4.7046  -11.1921    0.0000 O   0  0  0  0  0  0  0  0  0  0  0  0
    3.9901   -9.9546    0.0000 O   0  0  0  0  0  0  0  0  0  0  0  0
    3.2757   -9.5421    0.0000 C   0  0  1  0  0  0  0  0  0  0  0  0
    3.2757   -8.7171    0.0000 O   0  0  0  0  0  0  0  0  0  0  0  0
    2.5612   -8.3046    0.0000 C   0  0  0  0  0  0  0  0  0  0  0  0
    1.8467   -8.7171    0.0000 C   0  0  2  0  0  0  0  0  0  0  0  0
    1.8467   -9.5421    0.0000 C   0  0  1  0  0  0  0  0  0  0  0  0
    2.5612   -9.9546    0.0000 C   0  0  1  0  0  0  0  0  0  0  0  0
    2.5612  -10.7796    0.0000 O   0  0  0  0  0  0  0  0  0  0  0  0
    1.1323   -9.9546    0.0000 O   0  0  0  0  0  0  0  0  0  0  0  0
    1.1323   -8.3046    0.0000 O   0  0  0  0  0  0  0  0  0  0  0  0
  1  2  1  0  0  0  0
  2  3  1  0  0  0  0
  3  4  1  0  0  0  0
  4  5  2  0  0  0  0
  5  6  1  0  0  0  0
  1  6  1  0  0  0  0
  7  8  1  0  0  0  0
  8  9  2  0  0  0  0
  2  9  1  0  0  0  0
  3  7  1  0  0  0  0
 10 11  2  0  0  0  0
 10 12  1  0  0  0  0
  4 10  1  0  0  0  0
  1 13  1  6  0  0  0
 14 15  1  0  0  0  0
  9 14  1  0  0  0  0
  3 16  1  6  0  0  0
  2 17  1  6  0  0  0
 12 18  1  0  0  0  0
 19 13  1  1  0  0  0
 19 20  1  0  0  0  0
 20 21  1  0  0  0  0
 21 22  1  0  0  0  0
 22 23  1  0  0  0  0
 23 24  1  0  0  0  0
 24 19  1  0  0  0  0
 21 25  1  1  0  0  0
 23 26  1  1  0  0  0
 24 27  1  6  0  0  0
 22 28  1  6  0  0  0
 25 29  1  0  0  0  0
 30 29  1  6  0  0  0
 30 31  1  0  0  0  0
 31 32  1  0  0  0  0
 32 33  1  0  0  0  0
 33 34  1  0  0  0  0
 34 35  1  0  0  0  0
 35 30  1  0  0  0  0
 35 36  1  6  0  0  0
 34 37  1  1  0  0  0
 33 38  1  6  0  0  0
M  END
>  <cdx:fragmentId>
5002

$$$$
