90083.cdx
  Mrv1902 05222410212D          

 32 32  0  0  0  0            999 V2000
    2.8168   -5.1551    0.0000 C   0  0  0  0  0  0  0  0  0  0  0  0
    2.8168   -5.9801    0.0000 C   0  0  0  0  0  0  0  0  0  0  0  0
    3.5313   -6.3926    0.0000 C   0  0  0  0  0  0  0  0  0  0  0  0
    4.2457   -5.9801    0.0000 C   0  0  0  0  0  0  0  0  0  0  0  0
    4.2457   -5.1551    0.0000 C   0  0  0  0  0  0  0  0  0  0  0  0
    3.5313   -4.7426    0.0000 C   0  0  0  0  0  0  0  0  0  0  0  0
    3.5313   -7.2176    0.0000 O   0  0  0  0  0  0  0  0  0  0  0  0
    4.9602   -6.3926    0.0000 O   0  0  0  0  0  0  0  0  0  0  0  0
    4.9602   -7.2176    0.0000 C   0  0  0  0  0  0  0  0  0  0  0  0
    3.5313   -3.9176    0.0000 C   0  0  0  0  0  0  0  0  0  0  0  0
    4.2457   -3.5051    0.0000 C   0  0  0  0  0  0  0  0  0  0  0  0
    4.9602   -3.9176    0.0000 C   0  0  0  0  0  0  0  0  0  0  0  0
    5.6747   -3.5051    0.0000 O   0  0  0  0  0  0  0  0  0  0  0  0
    4.9602   -4.7426    0.0000 O   0  0  0  0  0  0  0  0  0  0  0  0
    5.6747   -5.1551    0.0000 C   0  0  0  0  0  0  0  0  0  0  0  0
    5.6747   -5.9801    0.0000 C   0  0  0  0  0  0  0  0  0  0  0  0
    6.3892   -6.3926    0.0000 C   0  0  0  0  0  0  0  0  0  0  0  0
    6.3892   -7.2176    0.0000 C   0  0  0  0  0  0  0  0  0  0  0  0
    7.1036   -7.6301    0.0000 C   0  0  0  0  0  0  0  0  0  0  0  0
    7.1036   -8.4551    0.0000 C   0  0  0  0  0  0  0  0  0  0  0  0
    7.8181   -8.8676    0.0000 C   0  0  0  0  0  0  0  0  0  0  0  0
    7.8181   -9.6926    0.0000 C   0  0  0  0  0  0  0  0  0  0  0  0
    8.5326  -10.1051    0.0000 C   0  0  0  0  0  0  0  0  0  0  0  0
    8.5326  -10.9301    0.0000 C   0  0  0  0  0  0  0  0  0  0  0  0
    9.2470  -11.3426    0.0000 C   0  0  0  0  0  0  0  0  0  0  0  0
    9.2470  -12.1676    0.0000 C   0  0  0  0  0  0  0  0  0  0  0  0
    9.9615  -12.5801    0.0000 C   0  0  0  0  0  0  0  0  0  0  0  0
    9.9615  -13.4051    0.0000 C   0  0  0  0  0  0  0  0  0  0  0  0
   10.6760  -13.8176    0.0000 C   0  0  0  0  0  0  0  0  0  0  0  0
   10.6760  -14.6426    0.0000 C   0  0  0  0  0  0  0  0  0  0  0  0
   11.3905  -15.0551    0.0000 C   0  0  0  0  0  0  0  0  0  0  0  0
   11.3905  -15.8801    0.0000 C   0  0  0  0  0  0  0  0  0  0  0  0
  1  2  2  0  0  0  0
  2  3  1  0  0  0  0
  3  4  2  0  0  0  0
  4  5  1  0  0  0  0
  5  6  2  0  0  0  0
  6  1  1  0  0  0  0
  3  7  1  0  0  0  0
  4  8  1  0  0  0  0
  8  9  1  0  0  0  0
  6 10  1  0  0  0  0
 10 11  2  0  0  0  0
 11 12  1  0  0  0  0
 12 13  2  0  0  0  0
 12 14  1  0  0  0  0
 14 15  1  0  0  0  0
 15 16  1  0  0  0  0
 16 17  1  0  0  0  0
 17 18  1  0  0  0  0
 18 19  1  0  0  0  0
 19 20  1  0  0  0  0
 20 21  1  0  0  0  0
 21 22  1  0  0  0  0
 22 23  1  0  0  0  0
 23 24  1  0  0  0  0
 24 25  1  0  0  0  0
 25 26  1  0  0  0  0
 26 27  1  0  0  0  0
 27 28  1  0  0  0  0
 28 29  1  0  0  0  0
 29 30  1  0  0  0  0
 30 31  1  0  0  0  0
 31 32  1  0  0  0  0
M  END
>  <cdx:fragmentId>
5

$$$$
