90088.cdx
  Mrv1902 05222410242D          

 52 55  0  0  0  0            999 V2000
    6.3618   -5.5600    0.0000 C   0  0  0  0  0  0  0  0  0  0  0  0
    5.4583   -6.0140    0.0000 C   0  0  1  0  0  0  0  0  0  0  0  0
    6.0891   -4.7813    0.0000 O   0  0  0  0  0  0  0  0  0  0  0  0
    4.6810   -6.6792    0.0000 N   0  0  0  0  0  0  0  0  0  0  0  0
    4.3398   -7.6425    0.0000 C   0  0  0  0  0  0  0  0  0  0  0  0
    4.2920   -8.4734    0.0000 C   0  0  1  0  0  0  0  0  0  0  0  0
    3.5291   -7.4893    0.0000 O   0  0  0  0  0  0  0  0  0  0  0  0
    4.4394   -9.4046    0.0000 N   0  0  0  0  0  0  0  0  0  0  0  0
    4.9043  -10.0861    0.0000 C   0  0  0  0  0  0  0  0  0  0  0  0
    5.4017  -10.7616    0.0000 C   0  0  2  0  0  0  0  0  0  0  0  0
    4.2893  -10.6360    0.0000 O   0  0  0  0  0  0  0  0  0  0  0  0
    6.2321  -11.1680    0.0000 N   0  0  0  0  0  0  0  0  0  0  0  0
    7.1281  -11.3488    0.0000 C   0  0  0  0  0  0  0  0  0  0  0  0
    8.0290  -11.2259    0.0000 C   0  0  0  0  0  0  0  0  0  0  0  0
    7.1281  -12.1738    0.0000 O   0  0  0  0  0  0  0  0  0  0  0  0
    8.7426  -10.8137    0.0000 N   0  0  0  0  0  0  0  0  0  0  0  0
    9.3667  -10.3355    0.0000 C   0  0  0  0  0  0  0  0  0  0  0  0
    9.9047   -9.7100    0.0000 C   0  0  2  0  0  0  0  0  0  0  0  0
    9.9166  -10.9505    0.0000 O   0  0  0  0  0  0  0  0  0  0  0  0
   10.0578   -8.8994    0.0000 N   0  0  0  0  0  0  0  0  0  0  0  0
   10.6481  -10.0678    0.0000 C   0  0  0  0  0  0  0  0  0  0  0  0
   11.3296   -9.6029    0.0000 O   0  0  0  0  0  0  0  0  0  0  0  0
   10.1392   -8.1164    0.0000 C   0  0  0  0  0  0  0  0  0  0  0  0
    9.9341   -7.2540    0.0000 C   0  0  2  0  0  0  0  0  0  0  0  0
   10.9619   -8.0545    0.0000 O   0  0  0  0  0  0  0  0  0  0  0  0
   10.7528   -7.1524    0.0000 C   0  0  0  0  0  0  0  0  0  0  0  0
   10.9091   -6.3423    0.0000 C   0  0  0  0  0  0  0  0  0  0  0  0
   10.1870   -5.9433    0.0000 C   0  0  0  0  0  0  0  0  0  0  0  0
    9.5844   -6.5068    0.0000 N   0  0  0  0  0  0  0  0  0  0  0  0
    8.9589   -5.9688    0.0000 C   0  0  0  0  0  0  0  0  0  0  0  0
    8.2155   -5.6111    0.0000 C   0  0  2  0  0  0  0  0  0  0  0  0
    9.3166   -5.2254    0.0000 O   0  0  0  0  0  0  0  0  0  0  0  0
    8.5341   -4.8501    0.0000 C   0  0  0  0  0  0  0  0  0  0  0  0
    7.9089   -4.3119    0.0000 C   0  0  0  0  0  0  0  0  0  0  0  0
    7.2038   -4.7403    0.0000 C   0  0  0  0  0  0  0  0  0  0  0  0
    7.3933   -5.5432    0.0000 N   0  0  0  0  0  0  0  0  0  0  0  0
    5.0255   -5.3117    0.0000 C   0  0  0  0  0  0  0  0  0  0  0  0
    3.4680   -8.5144    0.0000 C   0  0  0  0  0  0  0  0  0  0  0  0
    3.0916   -9.2486    0.0000 C   0  0  0  0  0  0  0  0  0  0  0  0
    4.2008   -5.3354    0.0000 C   0  0  0  0  0  0  0  0  0  0  0  0
    3.8090   -6.0614    0.0000 C   0  0  0  0  0  0  0  0  0  0  0  0
    3.7680   -4.6330    0.0000 C   0  0  0  0  0  0  0  0  0  0  0  0
    2.2676   -9.2896    0.0000 C   0  0  0  0  0  0  0  0  0  0  0  0
    3.5391   -9.9416    0.0000 C   0  0  0  0  0  0  0  0  0  0  0  0
    4.8730  -11.3949    0.0000 C   0  0  0  0  0  0  0  0  0  0  0  0
    5.1571  -12.1695    0.0000 C   0  0  0  0  0  0  0  0  0  0  0  0
    4.6284  -12.8028    0.0000 C   0  0  0  0  0  0  0  0  0  0  0  0
    4.9126  -13.5773    0.0000 C   0  0  0  0  0  0  0  0  0  0  0  0
    5.7254  -13.7185    0.0000 C   0  0  0  0  0  0  0  0  0  0  0  0
    6.2541  -13.0852    0.0000 C   0  0  0  0  0  0  0  0  0  0  0  0
    5.9700  -12.3107    0.0000 C   0  0  0  0  0  0  0  0  0  0  0  0
    6.0095  -14.4931    0.0000 O   0  0  0  0  0  0  0  0  0  0  0  0
  1  2  1  0  0  0  0
  1  3  2  0  0  0  0
  2  4  1  0  0  0  0
  4  5  1  0  0  0  0
  5  6  1  0  0  0  0
  5  7  2  0  0  0  0
  6  8  1  0  0  0  0
  8  9  1  0  0  0  0
  9 10  1  0  0  0  0
  9 11  2  0  0  0  0
 10 12  1  0  0  0  0
 12 13  1  0  0  0  0
 13 14  1  0  0  0  0
 13 15  2  0  0  0  0
 14 16  1  0  0  0  0
 16 17  1  0  0  0  0
 17 18  1  0  0  0  0
 17 19  2  0  0  0  0
 18 20  1  0  0  0  0
 18 21  1  6  0  0  0
 21 22  1  0  0  0  0
 20 23  1  0  0  0  0
 23 24  1  0  0  0  0
 23 25  2  0  0  0  0
 24 26  1  1  0  0  0
 26 27  1  0  0  0  0
 27 28  1  0  0  0  0
 28 29  1  0  0  0  0
 29 24  1  0  0  0  0
 29 30  1  0  0  0  0
 30 31  1  0  0  0  0
 30 32  2  0  0  0  0
 31 33  1  1  0  0  0
 33 34  1  0  0  0  0
 34 35  1  0  0  0  0
 35 36  1  0  0  0  0
 36 31  1  0  0  0  0
 36  1  1  0  0  0  0
  2 37  1  1  0  0  0
  6 38  1  1  0  0  0
 38 39  1  0  0  0  0
 37 40  1  0  0  0  0
 40 41  1  0  0  0  0
 40 42  1  0  0  0  0
 39 43  1  0  0  0  0
 39 44  1  0  0  0  0
 10 45  1  6  0  0  0
 45 46  1  0  0  0  0
 46 47  2  0  0  0  0
 47 48  1  0  0  0  0
 48 49  2  0  0  0  0
 49 50  1  0  0  0  0
 50 51  2  0  0  0  0
 51 46  1  0  0  0  0
 49 52  1  0  0  0  0
M  END
>  <cdx:fragmentId>
314

$$$$
