90087.cdx
  Mrv1902 05222410222D          

 64 67  0  0  0  0            999 V2000
    9.8874   -4.3397    0.0000 C   0  0  0  0  0  0  0  0  0  0  0  0
    9.8874   -5.1647    0.0000 C   0  0  0  0  0  0  0  0  0  0  0  0
    9.1729   -5.5772    0.0000 C   0  0  0  0  0  0  0  0  0  0  0  0
    9.1729   -3.9272    0.0000 O   0  0  0  0  0  0  0  0  0  0  0  0
   10.6018   -3.9272    0.0000 O   0  0  0  0  0  0  0  0  0  0  0  0
   11.3163   -9.2897    0.0000 N   0  0  0  0  0  0  0  0  0  0  0  0
   10.6018   -8.8772    0.0000 C   0  0  0  0  0  0  0  0  0  0  0  0
   10.6018   -8.0522    0.0000 C   0  0  0  0  0  0  0  0  0  0  0  0
    9.8874   -7.6397    0.0000 N   0  0  0  0  0  0  0  0  0  0  0  0
    9.8874   -6.8147    0.0000 C   0  0  0  0  0  0  0  0  0  0  0  0
    9.1729   -6.4022    0.0000 C   0  0  0  0  0  0  0  0  0  0  0  0
    8.4584   -6.8147    0.0000 N   0  0  0  0  0  0  0  0  0  0  0  0
    7.7440   -6.4022    0.0000 C   0  0  0  0  0  0  0  0  0  0  0  0
    7.0295   -6.8147    0.0000 C   0  0  0  0  0  0  0  0  0  0  0  0
    6.3150   -6.4022    0.0000 N   0  0  0  0  0  0  0  0  0  0  0  0
    5.6005   -6.8147    0.0000 C   0  0  0  0  0  0  0  0  0  0  0  0
    5.6005   -7.6397    0.0000 C   0  0  0  0  0  0  0  0  0  0  0  0
    6.3150   -8.0522    0.0000 N   0  0  0  0  0  0  0  0  0  0  0  0
    6.3150   -8.8772    0.0000 C   0  0  0  0  0  0  0  0  0  0  0  0
    5.6005   -9.2897    0.0000 C   0  0  0  0  0  0  0  0  0  0  0  0
    5.6005  -10.1147    0.0000 N   0  0  0  0  0  0  0  0  0  0  0  0
    6.3150  -10.5272    0.0000 C   0  0  0  0  0  0  0  0  0  0  0  0
    7.0295  -10.1147    0.0000 C   0  0  0  0  0  0  0  0  0  0  0  0
    7.7440  -10.5272    0.0000 N   0  0  0  0  0  0  0  0  0  0  0  0
    8.4584  -10.1147    0.0000 C   0  0  0  0  0  0  0  0  0  0  0  0
    9.1729  -10.5272    0.0000 C   0  0  0  0  0  0  0  0  0  0  0  0
    9.8874  -10.1147    0.0000 N   0  0  0  0  0  0  0  0  0  0  0  0
   10.6018  -10.5272    0.0000 C   0  0  0  0  0  0  0  0  0  0  0  0
   11.3163  -10.1147    0.0000 C   0  0  0  0  0  0  0  0  0  0  0  0
   12.1009  -10.3697    0.0000 C   0  0  0  0  0  0  0  0  0  0  0  0
   12.5859   -9.7022    0.0000 C   0  0  0  0  0  0  0  0  0  0  0  0
   12.1009   -9.0348    0.0000 C   0  0  0  0  0  0  0  0  0  0  0  0
   11.3163   -6.8147    0.0000 C   0  0  0  0  0  0  0  0  0  0  0  0
   11.3163   -7.6397    0.0000 C   0  0  0  0  0  0  0  0  0  0  0  0
   12.0308   -8.0522    0.0000 C   0  0  0  0  0  0  0  0  0  0  0  0
   10.6018  -11.3522    0.0000 O   0  0  0  0  0  0  0  0  0  0  0  0
    8.4584   -9.2897    0.0000 O   0  0  0  0  0  0  0  0  0  0  0  0
    6.3150  -11.3522    0.0000 O   0  0  0  0  0  0  0  0  0  0  0  0
    7.1400   -8.8772    0.0000 O   0  0  0  0  0  0  0  0  0  0  0  0
    4.8861   -6.4022    0.0000 O   0  0  0  0  0  0  0  0  0  0  0  0
    7.7440   -5.5772    0.0000 O   0  0  0  0  0  0  0  0  0  0  0  0
   10.6018   -6.4022    0.0000 O   0  0  0  0  0  0  0  0  0  0  0  0
    9.8874   -9.2897    0.0000 O   0  0  0  0  0  0  0  0  0  0  0  0
    7.4420   -9.4003    0.0000 C   0  0  0  0  0  0  0  0  0  0  0  0
    4.8861   -8.0522    0.0000 C   0  0  0  0  0  0  0  0  0  0  0  0
    3.2784   -6.6477    0.0000 N   0  0  0  0  0  0  0  0  0  0  0  0
    4.0854   -6.8192    0.0000 C   0  0  0  0  0  0  0  0  0  0  0  0
    4.1716   -7.6397    0.0000 C   0  0  0  0  0  0  0  0  0  0  0  0
    3.4179   -7.9753    0.0000 C   0  0  0  0  0  0  0  0  0  0  0  0
    3.1630   -8.7599    0.0000 C   0  0  0  0  0  0  0  0  0  0  0  0
    2.3560   -8.9314    0.0000 C   0  0  0  0  0  0  0  0  0  0  0  0
    1.8040   -8.3183    0.0000 C   0  0  0  0  0  0  0  0  0  0  0  0
    2.0589   -7.5337    0.0000 C   0  0  0  0  0  0  0  0  0  0  0  0
    2.8659   -7.3622    0.0000 C   0  0  0  0  0  0  0  0  0  0  0  0
    9.1729  -11.3522    0.0000 C   0  0  0  0  0  0  0  0  0  0  0  0
    9.8874  -11.7647    0.0000 C   0  0  0  0  0  0  0  0  0  0  0  0
    9.8874  -12.5897    0.0000 C   0  0  0  0  0  0  0  0  0  0  0  0
    9.1729  -13.0022    0.0000 O   0  0  0  0  0  0  0  0  0  0  0  0
   10.6018  -13.0022    0.0000 O   0  0  0  0  0  0  0  0  0  0  0  0
    4.8861   -8.8772    0.0000 C   0  0  0  0  0  0  0  0  0  0  0  0
    4.1716   -9.2897    0.0000 C   0  0  0  0  0  0  0  0  0  0  0  0
    4.1716  -10.1147    0.0000 C   0  0  0  0  0  0  0  0  0  0  0  0
    4.8861  -10.5272    0.0000 O   0  0  0  0  0  0  0  0  0  0  0  0
    3.4571  -10.5272    0.0000 O   0  0  0  0  0  0  0  0  0  0  0  0
  1  2  1  0  0  0  0
  2  3  1  0  0  0  0
  1  4  2  0  0  0  0
  1  5  1  0  0  0  0
  6  7  1  0  0  0  0
  7  8  1  0  0  0  0
  8  9  1  0  0  0  0
  9 10  1  0  0  0  0
 10 11  1  0  0  0  0
 11 12  1  0  0  0  0
 12 13  1  0  0  0  0
 13 14  1  0  0  0  0
 14 15  1  0  0  0  0
 15 16  1  0  0  0  0
 16 17  1  0  0  0  0
 17 18  1  0  0  0  0
 18 19  1  0  0  0  0
 19 20  1  0  0  0  0
 20 21  1  0  0  0  0
 21 22  1  0  0  0  0
 22 23  1  0  0  0  0
 23 24  1  0  0  0  0
 24 25  1  0  0  0  0
 25 26  1  0  0  0  0
 26 27  1  0  0  0  0
 27 28  1  0  0  0  0
 28 29  1  0  0  0  0
 29 30  1  0  0  0  0
 30 31  1  0  0  0  0
 31 32  1  0  0  0  0
  6 32  1  0  0  0  0
  6 29  1  0  0  0  0
 33 34  1  0  0  0  0
 34 35  1  0  0  0  0
  8 34  1  0  0  0  0
 28 36  2  0  0  0  0
 25 37  2  0  0  0  0
 22 38  2  0  0  0  0
 19 39  2  0  0  0  0
 16 40  2  0  0  0  0
 13 41  2  0  0  0  0
 10 42  2  0  0  0  0
  7 43  2  0  0  0  0
 23 44  1  0  0  0  0
 46 47  1  0  0  0  0
 47 48  2  0  0  0  0
 48 49  1  0  0  0  0
 49 50  1  0  0  0  0
 50 51  2  0  0  0  0
 51 52  1  0  0  0  0
 52 53  2  0  0  0  0
 53 54  1  0  0  0  0
 46 54  1  0  0  0  0
 49 54  2  0  0  0  0
 45 48  1  0  0  0  0
 17 45  1  0  0  0  0
 55 56  1  0  0  0  0
 57 58  2  0  0  0  0
 57 59  1  0  0  0  0
 56 57  1  0  0  0  0
 26 55  1  0  0  0  0
 60 61  1  0  0  0  0
 62 63  2  0  0  0  0
 62 64  1  0  0  0  0
 61 62  1  0  0  0  0
 20 60  1  0  0  0  0
  3 11  1  0  0  0  0
M  END
>  <cdx:fragmentId>
15

$$$$
