90086.cdx
  Mrv1902 05222410222D          

 52 55  0  0  0  0            999 V2000
   10.7029   -9.5392    0.0000 O   0  0  0  0  0  0  0  0  0  0  0  0
    9.9884   -9.9517    0.0000 C   0  0  0  0  0  0  0  0  0  0  0  0
    3.4219  -13.0383    0.0000 O   0  0  0  0  0  0  0  0  0  0  0  0
    5.0719  -11.6093    0.0000 C   0  0  0  0  0  0  0  0  0  0  0  0
    4.6594  -12.3238    0.0000 C   0  0  0  0  0  0  0  0  0  0  0  0
    3.8344  -12.3238    0.0000 C   0  0  0  0  0  0  0  0  0  0  0  0
    3.4219  -11.6093    0.0000 C   0  0  0  0  0  0  0  0  0  0  0  0
    3.8344  -10.8949    0.0000 C   0  0  0  0  0  0  0  0  0  0  0  0
    4.6594  -10.8949    0.0000 C   0  0  0  0  0  0  0  0  0  0  0  0
    5.0719  -10.1804    0.0000 C   0  0  0  0  0  0  0  0  0  0  0  0
    4.9871   -4.5892    0.0000 C   0  0  0  0  0  0  0  0  0  0  0  0
    6.4161   -4.5892    0.0000 C   0  0  0  0  0  0  0  0  0  0  0  0
    5.7016   -5.0017    0.0000 C   0  0  0  0  0  0  0  0  0  0  0  0
    5.7016   -5.8267    0.0000 C   0  0  0  0  0  0  0  0  0  0  0  0
    9.2740   -3.7642    0.0000 C   0  0  0  0  0  0  0  0  0  0  0  0
    9.9884   -5.0017    0.0000 C   0  0  0  0  0  0  0  0  0  0  0  0
    9.2740   -4.5892    0.0000 C   0  0  0  0  0  0  0  0  0  0  0  0
    8.5595   -5.0017    0.0000 C   0  0  0  0  0  0  0  0  0  0  0  0
    7.1305   -8.3017    0.0000 O   0  0  0  0  0  0  0  0  0  0  0  0
    5.8969  -11.6093    0.0000 O   0  0  0  0  0  0  0  0  0  0  0  0
    9.2676  -11.1783    0.0000 O   0  0  0  0  0  0  0  0  0  0  0  0
    8.5595   -8.3017    0.0000 O   0  0  0  0  0  0  0  0  0  0  0  0
    8.5595   -7.4767    0.0000 O   0  0  0  0  0  0  0  0  0  0  0  0
    7.8450   -7.0642    0.0000 O   0  0  0  0  0  0  0  0  0  0  0  0
    7.1305   -7.4767    0.0000 O   0  0  0  0  0  0  0  0  0  0  0  0
    4.9170   -7.2218    0.0000 C   0  0  0  0  0  0  0  0  0  0  0  0
    4.4321   -7.8892    0.0000 C   0  0  0  0  0  0  0  0  0  0  0  0
    4.9170   -8.5567    0.0000 C   0  0  0  0  0  0  0  0  0  0  0  0
    5.7016   -8.3017    0.0000 C   0  0  0  0  0  0  0  0  0  0  0  0
    6.4161   -8.7142    0.0000 C   0  0  0  0  0  0  0  0  0  0  0  0
    6.4161   -9.5392    0.0000 N   0  0  0  0  0  0  0  0  0  0  0  0
    5.8969  -10.1804    0.0000 C   0  0  0  0  0  0  0  0  0  0  0  0
    6.3094  -10.8949    0.0000 C   0  0  0  0  0  0  0  0  0  0  0  0
    7.1242  -10.7658    0.0000 N   0  0  0  0  0  0  0  0  0  0  0  0
    7.8387  -11.1783    0.0000 C   0  0  0  0  0  0  0  0  0  0  0  0
    8.5532  -10.7658    0.0000 C   0  0  0  0  0  0  0  0  0  0  0  0
    8.5595   -9.9517    0.0000 N   0  0  0  0  0  0  0  0  0  0  0  0
    9.2740   -9.5392    0.0000 C   0  0  0  0  0  0  0  0  0  0  0  0
    9.2740   -8.7142    0.0000 C   0  0  0  0  0  0  0  0  0  0  0  0
    9.9884   -8.3017    0.0000 N   0  0  0  0  0  0  0  0  0  0  0  0
   10.7730   -8.5567    0.0000 C   0  0  0  0  0  0  0  0  0  0  0  0
   11.2580   -7.8892    0.0000 C   0  0  0  0  0  0  0  0  0  0  0  0
   10.7730   -7.2218    0.0000 C   0  0  0  0  0  0  0  0  0  0  0  0
    9.9884   -7.4767    0.0000 C   0  0  0  0  0  0  0  0  0  0  0  0
    9.2740   -7.0642    0.0000 C   0  0  0  0  0  0  0  0  0  0  0  0
    9.2740   -6.2392    0.0000 N   0  0  0  0  0  0  0  0  0  0  0  0
    8.5595   -5.8267    0.0000 C   0  0  0  0  0  0  0  0  0  0  0  0
    7.8450   -6.2392    0.0000 C   0  0  0  0  0  0  0  0  0  0  0  0
    7.1305   -5.8267    0.0000 N   0  0  0  0  0  0  0  0  0  0  0  0
    6.4161   -6.2392    0.0000 C   0  0  0  0  0  0  0  0  0  0  0  0
    6.4161   -7.0642    0.0000 C   0  0  0  0  0  0  0  0  0  0  0  0
    5.7016   -7.4767    0.0000 N   0  0  0  0  0  0  0  0  0  0  0  0
 38  2  1  0  0  0  0
  2  1  1  0  0  0  0
 32 10  1  0  0  0  0
 10  9  1  0  0  0  0
  6  3  1  0  0  0  0
  9  4  2  0  0  0  0
  5  4  1  0  0  0  0
  6  5  2  0  0  0  0
  7  6  1  0  0  0  0
  8  7  2  0  0  0  0
  9  8  1  0  0  0  0
 50 14  1  0  0  0  0
 13 11  1  0  0  0  0
 13 12  1  0  0  0  0
 14 13  1  0  0  0  0
 47 18  1  0  0  0  0
 17 15  1  0  0  0  0
 17 16  1  0  0  0  0
 18 17  1  0  0  0  0
 30 19  2  0  0  0  0
 33 20  2  0  0  0  0
 36 21  2  0  0  0  0
 39 22  2  0  0  0  0
 45 23  2  0  0  0  0
 48 24  2  0  0  0  0
 51 25  2  0  0  0  0
 44 40  1  0  0  0  0
 52 29  1  0  0  0  0
 52 26  1  0  0  0  0
 27 26  1  0  0  0  0
 28 27  1  0  0  0  0
 29 28  1  0  0  0  0
 30 29  1  0  0  0  0
 31 30  1  0  0  0  0
 32 31  1  0  0  0  0
 33 32  1  0  0  0  0
 34 33  1  0  0  0  0
 35 34  1  0  0  0  0
 36 35  1  0  0  0  0
 37 36  1  0  0  0  0
 38 37  1  0  0  0  0
 39 38  1  0  0  0  0
 40 39  1  0  0  0  0
 41 40  1  0  0  0  0
 42 41  1  0  0  0  0
 43 42  1  0  0  0  0
 44 43  1  0  0  0  0
 45 44  1  0  0  0  0
 46 45  1  0  0  0  0
 47 46  1  0  0  0  0
 48 47  1  0  0  0  0
 49 48  1  0  0  0  0
 50 49  1  0  0  0  0
 51 50  1  0  0  0  0
 52 51  1  0  0  0  0
M  END
>  <cdx:fragmentId>
5

$$$$
