90082.cdx
  Mrv1902 05222410222D          

 38 42  0  0  0  0            999 V2000
    3.1193   -9.1014    0.0000 O   0  0  0  0  0  0  0  0  0  0  0  0
    3.8338  -10.3389    0.0000 O   0  0  0  0  0  0  0  0  0  0  0  0
    4.5482   -9.9264    0.0000 C   0  0  0  0  0  0  0  0  0  0  0  0
    4.5482   -9.1014    0.0000 C   0  0  0  0  0  0  0  0  0  0  0  0
    3.8338   -8.6889    0.0000 C   0  0  0  0  0  0  0  0  0  0  0  0
    5.2627  -10.3389    0.0000 C   0  0  0  0  0  0  0  0  0  0  0  0
    5.9772   -9.9264    0.0000 C   0  0  1  0  0  0  0  0  0  0  0  0
    5.9772   -9.1014    0.0000 C   0  0  2  0  0  0  0  0  0  0  0  0
    5.2627   -8.6889    0.0000 C   0  0  0  0  0  0  0  0  0  0  0  0
    6.6917  -10.3389    0.0000 C   0  0  1  0  0  0  0  0  0  0  0  0
    7.4061   -9.9264    0.0000 C   0  0  1  0  0  0  0  0  0  0  0  0
    7.4061   -9.1014    0.0000 C   0  0  2  0  0  0  0  0  0  0  0  0
    6.6917   -8.6889    0.0000 C   0  0  1  0  0  0  0  0  0  0  0  0
    8.1206   -8.6889    0.0000 C   0  0  1  0  0  0  0  0  0  0  0  0
    8.1206   -7.8639    0.0000 C   0  0  2  0  0  0  0  0  0  0  0  0
    7.4061   -7.4514    0.0000 C   0  0  0  0  0  0  0  0  0  0  0  0
    6.6917   -7.8639    0.0000 C   0  0  0  0  0  0  0  0  0  0  0  0
    8.9052   -8.9438    0.0000 C   0  0  0  0  0  0  0  0  0  0  0  0
    9.3901   -8.2764    0.0000 C   0  0  0  0  0  0  0  0  0  0  0  0
    8.9052   -7.6090    0.0000 C   0  0  2  0  0  0  0  0  0  0  0  0
    9.1602   -6.8243    0.0000 C   0  0  1  0  0  0  0  0  0  0  0  0
    8.6081   -6.2112    0.0000 C   0  0  0  0  0  0  0  0  0  0  0  0
    9.9671   -6.6528    0.0000 C   0  0  0  0  0  0  0  0  0  0  0  0
    8.8631   -5.4266    0.0000 C   0  0  0  0  0  0  0  0  0  0  0  0
    9.6477   -5.1717    0.0000 O   0  0  0  0  0  0  0  0  0  0  0  0
    9.6477   -4.3467    0.0000 C   0  0  0  0  0  0  0  0  0  0  0  0
    8.8631   -4.0917    0.0000 C   0  0  0  0  0  0  0  0  0  0  0  0
    8.3781   -4.7592    0.0000 C   0  0  0  0  0  0  0  0  0  0  0  0
    8.6081   -3.3071    0.0000 C   0  0  0  0  0  0  0  0  0  0  0  0
    3.8338   -7.8639    0.0000 O   0  0  0  0  0  0  0  0  0  0  0  0
    5.2627  -11.1639    0.0000 C   0  0  0  0  0  0  0  0  0  0  0  0
    5.9772   -8.2764    0.0000 C   0  0  0  0  0  0  0  0  0  0  0  0
    7.4061   -8.2764    0.0000 H   0  0  0  0  0  0  0  0  0  0  0  0
    6.6917  -11.1639    0.0000 O   0  0  0  0  0  0  0  0  0  0  0  0
    8.1206  -10.3389    0.0000 O   0  0  0  0  0  0  0  0  0  0  0  0
    8.2068   -7.0434    0.0000 C   0  0  0  0  0  0  0  0  0  0  0  0
    8.2068   -9.5094    0.0000 C   0  0  0  0  0  0  0  0  0  0  0  0
    9.7201   -7.4799    0.0000 H   0  0  0  0  0  0  0  0  0  0  0  0
  2  3  1  0  0  0  0
  4  5  1  0  0  0  0
  5  1  1  0  0  0  0
  3  6  1  0  0  0  0
  7  6  1  1  0  0  0
  7  8  1  0  0  0  0
  8  9  1  0  0  0  0
  9  4  1  0  0  0  0
  7 10  1  0  0  0  0
 10 11  1  0  0  0  0
 11 12  1  0  0  0  0
 12 13  1  0  0  0  0
 13  8  1  0  0  0  0
 12 14  1  0  0  0  0
 14 15  1  0  0  0  0
 15 16  1  0  0  0  0
 16 17  1  0  0  0  0
 17 13  1  0  0  0  0
 14 18  1  0  0  0  0
 18 19  1  0  0  0  0
 19 20  1  0  0  0  0
 20 15  1  0  0  0  0
 20 21  1  0  0  0  0
 21 22  1  0  0  0  0
 21 23  1  1  0  0  0
 22 24  1  0  0  0  0
 24 25  1  0  0  0  0
 25 26  1  0  0  0  0
 26 27  2  0  0  0  0
 27 28  1  0  0  0  0
 28 24  2  0  0  0  0
 27 29  1  0  0  0  0
  5 30  2  0  0  0  0
  6 31  2  0  0  0  0
  8 32  1  1  0  0  0
 13 32  1  1  0  0  0
 12 33  1  1  0  0  0
 10 34  1  1  0  0  0
 11 35  1  1  0  0  0
 15 36  1  1  0  0  0
 14 37  1  6  0  0  0
 20 38  1  6  0  0  0
M  END
>  <cdx:fragmentId>
5

$$$$
