90098.cdx
  Mrv1902 05222410252D          

 35 36  0  0  0  0            999 V2000
    6.5156   -7.7676    0.0000 C   0  0  0  0  0  0  0  0  0  0  0  0
    6.5156   -8.5926    0.0000 C   0  0  2  0  0  0  0  0  0  0  0  0
    7.2300   -9.0051    0.0000 C   0  0  1  0  0  0  0  0  0  0  0  0
    7.9445   -8.5926    0.0000 C   0  0  1  0  0  0  0  0  0  0  0  0
    7.9445   -7.7676    0.0000 C   0  0  0  0  0  0  0  0  0  0  0  0
    7.2300   -7.3551    0.0000 C   0  0  2  0  0  0  0  0  0  0  0  0
    7.2300   -9.8301    0.0000 O   0  0  0  0  0  0  0  0  0  0  0  0
    8.6590   -9.0051    0.0000 O   0  0  0  0  0  0  0  0  0  0  0  0
    6.8175   -6.6407    0.0000 O   0  0  0  0  0  0  0  0  0  0  0  0
    5.8011   -9.0051    0.0000 O   0  0  0  0  0  0  0  0  0  0  0  0
    7.6425   -6.6407    0.0000 C   0  0  0  0  0  0  0  0  0  0  0  0
    7.2300   -5.9262    0.0000 O   0  0  0  0  0  0  0  0  0  0  0  0
    8.4675   -6.6407    0.0000 O   0  0  0  0  0  0  0  0  0  0  0  0
    7.9445  -10.2426    0.0000 C   0  0  0  0  0  0  0  0  0  0  0  0
    7.9445  -11.0676    0.0000 O   0  0  0  0  0  0  0  0  0  0  0  0
    8.6590   -9.8301    0.0000 C   0  0  0  0  0  0  0  0  0  0  0  0
    9.3734  -10.2426    0.0000 C   0  0  0  0  0  0  0  0  0  0  0  0
   10.0879   -9.8301    0.0000 C   0  0  0  0  0  0  0  0  0  0  0  0
   10.8024  -10.2426    0.0000 C   0  0  0  0  0  0  0  0  0  0  0  0
   11.5169   -9.8301    0.0000 C   0  0  0  0  0  0  0  0  0  0  0  0
   11.5169   -9.0051    0.0000 C   0  0  0  0  0  0  0  0  0  0  0  0
   10.8024   -8.5926    0.0000 C   0  0  0  0  0  0  0  0  0  0  0  0
   10.0879   -9.0051    0.0000 C   0  0  0  0  0  0  0  0  0  0  0  0
   12.2313   -8.5926    0.0000 O   0  0  0  0  0  0  0  0  0  0  0  0
   12.2313  -10.2426    0.0000 O   0  0  0  0  0  0  0  0  0  0  0  0
    5.0866   -8.5926    0.0000 C   0  0  0  0  0  0  0  0  0  0  0  0
    4.3721   -9.0051    0.0000 C   0  0  0  0  0  0  0  0  0  0  0  0
    5.0866   -7.7676    0.0000 O   0  0  0  0  0  0  0  0  0  0  0  0
    3.6577   -8.5926    0.0000 C   0  0  0  0  0  0  0  0  0  0  0  0
    2.9432   -8.1801    0.0000 C   0  0  0  0  0  0  0  0  0  0  0  0
    4.0702   -7.8782    0.0000 C   0  0  0  0  0  0  0  0  0  0  0  0
    3.2452   -9.3071    0.0000 O   0  0  0  0  0  0  0  0  0  0  0  0
    2.2287   -8.5926    0.0000 C   0  0  0  0  0  0  0  0  0  0  0  0
    1.5143   -8.1801    0.0000 O   0  0  0  0  0  0  0  0  0  0  0  0
    2.2287   -9.4176    0.0000 O   0  0  0  0  0  0  0  0  0  0  0  0
  1  2  1  0  0  0  0
  2  3  1  0  0  0  0
  3  4  1  0  0  0  0
  4  5  1  0  0  0  0
  5  6  1  0  0  0  0
  6  1  1  0  0  0  0
  3  7  1  1  0  0  0
  4  8  1  1  0  0  0
  6  9  1  1  0  0  0
  2 10  1  6  0  0  0
  6 11  1  0  0  0  0
 11 12  2  0  0  0  0
 11 13  1  0  0  0  0
  7 14  1  0  0  0  0
 14 15  2  0  0  0  0
 14 16  1  0  0  0  0
 16 17  2  0  0  0  0
 17 18  1  0  0  0  0
 18 19  2  0  0  0  0
 19 20  1  0  0  0  0
 20 21  2  0  0  0  0
 21 22  1  0  0  0  0
 22 23  2  0  0  0  0
 23 18  1  0  0  0  0
 21 24  1  0  0  0  0
 20 25  1  0  0  0  0
 10 26  1  0  0  0  0
 26 27  1  0  0  0  0
 26 28  2  0  0  0  0
 27 29  1  0  0  0  0
 29 30  1  0  0  0  0
 29 31  1  0  0  0  0
 29 32  1  0  0  0  0
 30 33  1  0  0  0  0
 33 34  1  0  0  0  0
 33 35  2  0  0  0  0
M  END
>  <cdx:fragmentId>
5

$$$$
