90092.cdx
  Mrv1902 05222410222D          

 31 35  0  0  0  0            999 V2000
    3.7243   -9.7339    0.0000 C   0  0  0  0  0  0  0  0  0  0  0  0
    3.7243  -10.5589    0.0000 C   0  0  1  0  0  0  0  0  0  0  0  0
    4.4388  -10.9714    0.0000 C   0  0  1  0  0  0  0  0  0  0  0  0
    5.1532  -10.5589    0.0000 C   0  0  1  0  0  0  0  0  0  0  0  0
    5.1532   -9.7339    0.0000 C   0  0  2  0  0  0  0  0  0  0  0  0
    4.4388   -9.3214    0.0000 C   0  0  0  0  0  0  0  0  0  0  0  0
    5.8677  -10.9714    0.0000 C   0  0  0  0  0  0  0  0  0  0  0  0
    6.5822  -10.5589    0.0000 C   0  0  0  0  0  0  0  0  0  0  0  0
    6.5822   -9.7339    0.0000 C   0  0  2  0  0  0  0  0  0  0  0  0
    5.8677   -9.3214    0.0000 C   0  0  1  0  0  0  0  0  0  0  0  0
    7.2967   -9.3214    0.0000 C   0  0  2  0  0  0  0  0  0  0  0  0
    7.2967   -8.4964    0.0000 C   0  0  1  0  0  0  0  0  0  0  0  0
    6.5822   -8.0839    0.0000 C   0  0  0  0  0  0  0  0  0  0  0  0
    5.8677   -8.4964    0.0000 C   0  0  0  0  0  0  0  0  0  0  0  0
    3.0098  -10.9714    0.0000 N   0  0  0  0  0  0  0  0  0  0  0  0
    4.4388  -11.7964    0.0000 C   0  0  0  0  0  0  0  0  0  0  0  0
    5.1532   -8.9089    0.0000 C   0  0  0  0  0  0  0  0  0  0  0  0
    7.2967   -7.6714    0.0000 C   0  0  0  0  0  0  0  0  0  0  0  0
    7.2967  -10.1464    0.0000 C   0  0  0  0  0  0  0  0  0  0  0  0
    2.2954  -10.5589    0.0000 C   0  0  0  0  0  0  0  0  0  0  0  0
    5.1532  -11.3839    0.0000 H   0  0  0  0  0  0  0  0  0  0  0  0
    6.5822   -8.9089    0.0000 H   0  0  0  0  0  0  0  0  0  0  0  0
    8.0813   -9.5763    0.0000 C   0  0  0  0  0  0  0  0  0  0  0  0
    8.5662   -8.9089    0.0000 C   0  0  2  0  0  0  0  0  0  0  0  0
    8.0813   -8.2415    0.0000 C   0  0  2  0  0  0  0  0  0  0  0  0
    9.3912   -8.9089    0.0000 O   0  0  0  0  0  0  0  0  0  0  0  0
    8.3362   -7.4568    0.0000 C   0  0  2  0  0  0  0  0  0  0  0  0
    7.7842   -6.8437    0.0000 C   0  0  0  0  0  0  0  0  0  0  0  0
    9.1432   -7.2853    0.0000 N   0  0  0  0  0  0  0  0  0  0  0  0
    9.3981   -6.5007    0.0000 C   0  0  0  0  0  0  0  0  0  0  0  0
    8.8659   -7.9865    0.0000 H   0  0  0  0  0  0  0  0  0  0  0  0
  1  2  1  0  0  0  0
  2  3  1  0  0  0  0
  3  4  1  0  0  0  0
  4  5  1  0  0  0  0
  5  6  1  0  0  0  0
  6  1  1  0  0  0  0
  4  7  1  0  0  0  0
  7  8  1  0  0  0  0
  8  9  1  0  0  0  0
  9 10  1  0  0  0  0
 10  5  1  0  0  0  0
  9 11  1  0  0  0  0
 11 12  1  0  0  0  0
 12 13  1  0  0  0  0
 13 14  1  0  0  0  0
 14 10  1  0  0  0  0
  2 15  1  1  0  0  0
  3 16  1  1  0  0  0
  5 17  1  1  0  0  0
 10 17  1  1  0  0  0
 12 18  1  1  0  0  0
 11 19  1  6  0  0  0
 15 20  1  0  0  0  0
  4 21  1  6  0  0  0
  9 22  1  1  0  0  0
 11 23  1  0  0  0  0
 23 24  1  0  0  0  0
 24 25  1  0  0  0  0
 25 12  1  0  0  0  0
 24 26  1  6  0  0  0
 25 27  1  0  0  0  0
 27 28  1  0  0  0  0
 27 29  1  6  0  0  0
 29 30  1  0  0  0  0
 25 31  1  6  0  0  0
M  END
>  <cdx:fragmentId>
5

$$$$
