90093.cdx
  Mrv1902 05222410222D          

 16 16  0  0  0  0            999 V2000
    6.9418  -10.9989    0.0000 C   0  0  0  0  0  0  0  0  0  0  0  0
    6.9418  -11.8239    0.0000 C   0  0  0  0  0  0  0  0  0  0  0  0
    7.6563  -12.2364    0.0000 C   0  0  0  0  0  0  0  0  0  0  0  0
    8.3707  -11.8239    0.0000 C   0  0  0  0  0  0  0  0  0  0  0  0
    8.3707  -10.9989    0.0000 C   0  0  0  0  0  0  0  0  0  0  0  0
    7.6563  -10.5864    0.0000 C   0  0  0  0  0  0  0  0  0  0  0  0
    7.6563   -9.7614    0.0000 C   0  0  0  0  0  0  0  0  0  0  0  0
    6.9418   -9.3489    0.0000 O   0  0  0  0  0  0  0  0  0  0  0  0
    8.3707   -9.3489    0.0000 O   0  0  0  0  0  0  0  0  0  0  0  0
    8.3707   -8.5239    0.0000 C   0  0  0  0  0  0  0  0  0  0  0  0
    9.0852   -8.1114    0.0000 C   0  0  0  0  0  0  0  0  0  0  0  0
    6.2273  -10.5864    0.0000 C   0  0  0  0  0  0  0  0  0  0  0  0
    5.5129  -10.9989    0.0000 O   0  0  0  0  0  0  0  0  0  0  0  0
    6.2273   -9.7614    0.0000 O   0  0  0  0  0  0  0  0  0  0  0  0
    4.7984  -10.5864    0.0000 C   0  0  0  0  0  0  0  0  0  0  0  0
    4.0839  -10.9989    0.0000 C   0  0  0  0  0  0  0  0  0  0  0  0
  1  2  2  0  0  0  0
  2  3  1  0  0  0  0
  3  4  2  0  0  0  0
  4  5  1  0  0  0  0
  5  6  2  0  0  0  0
  6  1  1  0  0  0  0
  6  7  1  0  0  0  0
  7  8  2  0  0  0  0
  7  9  1  0  0  0  0
  9 10  1  0  0  0  0
 10 11  1  0  0  0  0
  1 12  1  0  0  0  0
 12 13  1  0  0  0  0
 12 14  2  0  0  0  0
 13 15  1  0  0  0  0
 15 16  1  0  0  0  0
M  END
>  <cdx:fragmentId>
5

$$$$
