90097.cdx
  Mrv1902 05222410212D          

 27 30  0  0  0  0            999 V2000
    9.8737   -6.8448    0.0000 C   0  0  0  0  0  0  0  0  0  0  0  0
    9.1540   -6.4416    0.0000 C   0  0  0  0  0  0  0  0  0  0  0  0
    8.4449   -6.8632    0.0000 C   0  0  0  0  0  0  0  0  0  0  0  0
    8.4555   -7.6881    0.0000 C   0  0  0  0  0  0  0  0  0  0  0  0
    9.1752   -8.0914    0.0000 C   0  0  0  0  0  0  0  0  0  0  0  0
    9.8843   -7.6698    0.0000 C   0  0  0  0  0  0  0  0  0  0  0  0
    7.7464   -8.1098    0.0000 C   0  0  0  0  0  0  0  0  0  0  0  0
    7.7570   -8.9347    0.0000 N   0  3  0  0  0  0  0  0  0  0  0  0
    8.4767   -9.3380    0.0000 C   0  0  0  0  0  0  0  0  0  0  0  0
    9.1858   -8.9164    0.0000 C   0  0  0  0  0  0  0  0  0  0  0  0
    7.0266   -7.7065    0.0000 C   0  0  0  0  0  0  0  0  0  0  0  0
    6.3175   -8.1282    0.0000 C   0  0  0  0  0  0  0  0  0  0  0  0
    6.3281   -8.9531    0.0000 C   0  0  0  0  0  0  0  0  0  0  0  0
    7.0479   -9.3564    0.0000 C   0  0  0  0  0  0  0  0  0  0  0  0
    5.5978   -7.7249    0.0000 C   0  0  0  0  0  0  0  0  0  0  0  0
    4.8887   -8.1465    0.0000 C   0  0  0  0  0  0  0  0  0  0  0  0
    4.8993   -8.9715    0.0000 C   0  0  0  0  0  0  0  0  0  0  0  0
    5.6190   -9.3747    0.0000 C   0  0  0  0  0  0  0  0  0  0  0  0
   10.5828   -6.4232    0.0000 O   0  0  0  0  0  0  0  0  0  0  0  0
   10.5722   -5.5983    0.0000 C   0  0  0  0  0  0  0  0  0  0  0  0
    9.1434   -5.6166    0.0000 O   0  0  0  0  0  0  0  0  0  0  0  0
    8.4237   -5.2133    0.0000 C   0  0  0  0  0  0  0  0  0  0  0  0
    7.7251   -6.4599    0.0000 O   0  0  0  0  0  0  0  0  0  0  0  0
    4.1690   -7.7433    0.0000 O   0  0  0  0  0  0  0  0  0  0  0  0
    4.1902   -9.3931    0.0000 O   0  0  0  0  0  0  0  0  0  0  0  0
    3.4599   -8.1649    0.0000 C   0  0  0  0  0  0  0  0  0  0  0  0
    4.2008  -10.2181    0.0000 C   0  0  0  0  0  0  0  0  0  0  0  0
  1  2  2  0  0  0  0
  2  3  1  0  0  0  0
  3  4  2  0  0  0  0
  4  5  1  0  0  0  0
  5  6  2  0  0  0  0
  6  1  1  0  0  0  0
  4  7  1  0  0  0  0
  7  8  2  0  0  0  0
  8  9  1  0  0  0  0
  9 10  1  0  0  0  0
 10  5  1  0  0  0  0
  7 11  1  0  0  0  0
 11 12  2  0  0  0  0
 12 13  1  0  0  0  0
 13 14  2  0  0  0  0
 14  8  1  0  0  0  0
 12 15  1  0  0  0  0
 15 16  2  0  0  0  0
 16 17  1  0  0  0  0
 17 18  2  0  0  0  0
 18 13  1  0  0  0  0
  1 19  1  0  0  0  0
 19 20  1  0  0  0  0
  2 21  1  0  0  0  0
 21 22  1  0  0  0  0
  3 23  1  0  0  0  0
 16 24  1  0  0  0  0
 17 25  1  0  0  0  0
 24 26  1  0  0  0  0
 25 27  1  0  0  0  0
M  CHG  1   8   1
M  END
>  <cdx:fragmentId>
5

$$$$
