900927.cdx
  Mrv1902 05222410212D          

 65 70  0  0  0  0            999 V2000
    7.6873   -6.9081    0.0000 O   0  0  0  0  0  0  0  0  0  0  0  0
    8.7468   -5.9493    0.0000 O   0  0  0  0  0  0  0  0  0  0  0  0
    7.9403   -6.1229    0.0000 C   0  0  2  0  0  0  0  0  0  0  0  0
    7.3867   -5.5112    0.0000 C   0  0  1  0  0  0  0  0  0  0  0  0
    7.6397   -4.7259    0.0000 C   0  0  2  0  0  0  0  0  0  0  0  0
    8.4463   -4.5524    0.0000 C   0  0  1  0  0  0  0  0  0  0  0  0
    8.9998   -5.1641    0.0000 C   0  0  1  0  0  0  0  0  0  0  0  0
    9.8064   -4.9906    0.0000 C   0  0  0  0  0  0  0  0  0  0  0  0
   10.0594   -4.2053    0.0000 O   0  0  0  0  0  0  0  0  0  0  0  0
    8.6993   -3.7671    0.0000 O   0  0  0  0  0  0  0  0  0  0  0  0
    7.0862   -4.1142    0.0000 O   0  0  0  0  0  0  0  0  0  0  0  0
    6.5802   -5.6847    0.0000 O   0  0  0  0  0  0  0  0  0  0  0  0
    6.2796   -4.2877    0.0000 O   0  0  0  0  0  0  0  0  0  0  0  0
    6.0266   -5.0730    0.0000 C   0  0  2  0  0  0  0  0  0  0  0  0
    5.2201   -5.2465    0.0000 C   0  0  1  0  0  0  0  0  0  0  0  0
    4.6665   -4.6348    0.0000 C   0  0  2  0  0  0  0  0  0  0  0  0
    4.9195   -3.8495    0.0000 C   0  0  1  0  0  0  0  0  0  0  0  0
    5.7261   -3.6760    0.0000 C   0  0  1  0  0  0  0  0  0  0  0  0
    4.3660   -3.2378    0.0000 O   0  0  0  0  0  0  0  0  0  0  0  0
    3.8600   -4.8083    0.0000 O   0  0  0  0  0  0  0  0  0  0  0  0
    4.9671   -6.0318    0.0000 O   0  0  0  0  0  0  0  0  0  0  0  0
    5.9791   -2.8907    0.0000 C   0  0  0  0  0  0  0  0  0  0  0  0
    6.7856   -2.7172    0.0000 O   0  0  0  0  0  0  0  0  0  0  0  0
    5.4255   -2.2790    0.0000 O   0  0  0  0  0  0  0  0  0  0  0  0
    8.5959  -12.5301    0.0000 O   0  0  0  0  0  0  0  0  0  0  0  0
    9.3134  -13.7658    0.0000 O   0  0  0  0  0  0  0  0  0  0  0  0
    9.3114  -12.9408    0.0000 C   0  0  0  0  0  0  0  0  0  0  0  0
   12.8827  -12.5194    0.0000 O   0  0  0  0  0  0  0  0  0  0  0  0
   12.1713  -13.7587    0.0000 O   0  0  0  0  0  0  0  0  0  0  0  0
   12.1692  -12.9337    0.0000 C   0  0  0  0  0  0  0  0  0  0  0  0
   10.7403  -12.9373    0.0000 N   0  0  0  0  0  0  0  0  0  0  0  0
   11.4538  -12.5230    0.0000 C   0  0  0  0  0  0  0  0  0  0  0  0
   11.4517  -11.6980    0.0000 C   0  0  0  0  0  0  0  0  0  0  0  0
   10.7362  -11.2873    0.0000 C   0  0  0  0  0  0  0  0  0  0  0  0
   10.0228  -11.7015    0.0000 C   0  0  0  0  0  0  0  0  0  0  0  0
   10.0248  -12.5265    0.0000 C   0  0  3  0  0  0  0  0  0  0  0  0
   10.7342  -10.4623    0.0000 C   0  0  0  0  0  0  0  0  0  0  0  0
   10.0187  -10.0515    0.0000 C   0  0  0  0  0  0  0  0  0  0  0  0
    7.1813   -8.4786    0.0000 O   0  0  0  0  0  0  0  0  0  0  0  0
   11.6416   -9.7995    0.0000 O   0  5  0  0  0  0  0  0  0  0  0  0
   12.0798   -8.4394    0.0000 O   0  0  0  0  0  0  0  0  0  0  0  0
   11.4681   -8.9930    0.0000 C   0  0  0  0  0  0  0  0  0  0  0  0
    9.3480   -8.7433    0.0000 C   0  0  0  0  0  0  0  0  0  0  0  0
    8.5414   -8.9168    0.0000 C   0  0  0  0  0  0  0  0  0  0  0  0
    7.9879   -8.3051    0.0000 C   0  0  0  0  0  0  0  0  0  0  0  0
    8.2409   -7.5198    0.0000 C   0  0  0  0  0  0  0  0  0  0  0  0
    9.0474   -7.3463    0.0000 C   0  0  0  0  0  0  0  0  0  0  0  0
    9.6010   -7.9580    0.0000 C   0  0  0  0  0  0  0  0  0  0  0  0
   10.4260   -7.9560    0.0000 C   0  0  0  0  0  0  0  0  0  0  0  0
   10.6828   -8.7400    0.0000 C   0  0  2  0  0  0  0  0  0  0  0  0
   10.0166   -9.2266    0.0000 N   0  3  0  0  0  0  0  0  0  0  0  0
    4.1669   -6.2477    0.0000 C   0  0  0  0  0  0  0  0  0  0  0  0
    3.5702   -5.6780    0.0000 O   0  0  0  0  0  0  0  0  0  0  0  0
    3.9719   -7.0493    0.0000 C   0  0  0  0  0  0  0  0  0  0  0  0
    3.1802   -7.2812    0.0000 C   0  0  0  0  0  0  0  0  0  0  0  0
    2.9852   -8.0829    0.0000 C   0  0  0  0  0  0  0  0  0  0  0  0
    2.1935   -8.3148    0.0000 C   0  0  0  0  0  0  0  0  0  0  0  0
    1.9985   -9.1164    0.0000 C   0  0  0  0  0  0  0  0  0  0  0  0
    2.5952   -9.6861    0.0000 C   0  0  0  0  0  0  0  0  0  0  0  0
    3.3869   -9.4542    0.0000 C   0  0  0  0  0  0  0  0  0  0  0  0
    3.5819   -8.6526    0.0000 C   0  0  0  0  0  0  0  0  0  0  0  0
    2.4002  -10.4877    0.0000 O   0  0  0  0  0  0  0  0  0  0  0  0
   11.2662   -8.1566    0.0000 H   0  0  0  0  0  0  0  0  0  0  0  0
    1.2067   -9.3484    0.0000 O   0  0  0  0  0  0  0  0  0  0  0  0
    0.9932  -10.1453    0.0000 C   0  0  0  0  0  0  0  0  0  0  0  0
 46  1  1  0  0  0  0
  2  3  1  0  0  0  0
 51 38  2  0  0  0  0
 37 34  2  0  0  0  0
 36 27  1  4  0  0  0
 27 25  1  0  0  0  0
 27 26  2  0  0  0  0
 32 30  1  0  0  0  0
 30 28  1  0  0  0  0
 30 29  2  0  0  0  0
 36 31  1  0  0  0  0
 32 31  1  0  0  0  0
 33 32  2  0  0  0  0
 34 33  1  0  0  0  0
 35 34  1  0  0  0  0
 36 35  1  0  0  0  0
 38 37  1  0  0  0  0
 45 39  1  0  0  0  0
 50 42  1  1  0  0  0
 42 40  1  0  0  0  0
 42 41  2  0  0  0  0
 48 43  2  0  0  0  0
 51 43  1  0  0  0  0
 44 43  1  0  0  0  0
 45 44  2  0  0  0  0
 46 45  1  0  0  0  0
 47 46  2  0  0  0  0
 48 47  1  0  0  0  0
 49 48  1  0  0  0  0
 50 49  1  0  0  0  0
 51 50  1  0  0  0  0
  3  4  1  0  0  0  0
  4  5  1  0  0  0  0
  5  6  1  0  0  0  0
  6  7  1  0  0  0  0
  2  7  1  0  0  0  0
  8  9  1  0  0  0  0
  7  8  1  1  0  0  0
  6 10  1  6  0  0  0
  5 11  1  1  0  0  0
 13 14  1  0  0  0  0
 14 15  1  0  0  0  0
 15 16  1  0  0  0  0
 16 17  1  0  0  0  0
 17 18  1  0  0  0  0
 13 18  1  0  0  0  0
 17 19  1  6  0  0  0
 16 20  1  1  0  0  0
 15 21  1  6  0  0  0
 22 23  2  0  0  0  0
 22 24  1  0  0  0  0
 18 22  1  1  0  0  0
 14 12  1  1  0  0  0
  4 12  1  6  0  0  0
  3  1  1  1  0  0  0
 52 53  2  0  0  0  0
 52 54  1  0  0  0  0
 54 55  2  0  0  0  0
 55 56  1  0  0  0  0
 56 57  2  0  0  0  0
 57 58  1  0  0  0  0
 58 59  2  0  0  0  0
 59 60  1  0  0  0  0
 60 61  2  0  0  0  0
 61 56  1  0  0  0  0
 59 62  1  0  0  0  0
 52 21  1  0  0  0  0
 50 63  1  6  0  0  0
 58 64  1  0  0  0  0
 64 65  1  0  0  0  0
M  CHG  2  40  -1  51   1
M  END
>  <cdx:fragmentId>
35

$$$$
