90105.cdx
  Mrv1902 05222410252D          

 35 36  0  0  0  0            999 V2000
    6.3093   -7.1076    0.0000 C   0  0  0  0  0  0  0  0  0  0  0  0
    6.3093   -7.9326    0.0000 C   0  0  2  0  0  0  0  0  0  0  0  0
    7.0238   -8.3451    0.0000 C   0  0  1  0  0  0  0  0  0  0  0  0
    7.7382   -7.9326    0.0000 C   0  0  1  0  0  0  0  0  0  0  0  0
    7.7382   -7.1076    0.0000 C   0  0  0  0  0  0  0  0  0  0  0  0
    7.0238   -6.6951    0.0000 C   0  0  2  0  0  0  0  0  0  0  0  0
    7.0238   -9.1701    0.0000 O   0  0  0  0  0  0  0  0  0  0  0  0
    6.6113   -5.9807    0.0000 O   0  0  0  0  0  0  0  0  0  0  0  0
    5.5948   -8.3451    0.0000 O   0  0  0  0  0  0  0  0  0  0  0  0
    7.4363   -5.9807    0.0000 C   0  0  0  0  0  0  0  0  0  0  0  0
    7.0238   -5.2662    0.0000 O   0  0  0  0  0  0  0  0  0  0  0  0
    8.2613   -5.9807    0.0000 O   0  0  0  0  0  0  0  0  0  0  0  0
    6.3308   -9.5967    0.0000 C   0  0  0  0  0  0  0  0  0  0  0  0
    6.3357  -10.4217    0.0000 C   0  0  0  0  0  0  0  0  0  0  0  0
    5.6138   -9.1885    0.0000 O   0  0  0  0  0  0  0  0  0  0  0  0
    5.6237  -10.8385    0.0000 C   0  0  0  0  0  0  0  0  0  0  0  0
    4.9117  -11.2552    0.0000 C   0  0  0  0  0  0  0  0  0  0  0  0
    5.2069  -10.1265    0.0000 C   0  0  0  0  0  0  0  0  0  0  0  0
    6.0405  -11.5504    0.0000 O   0  0  0  0  0  0  0  0  0  0  0  0
    4.9166  -12.0802    0.0000 C   0  0  0  0  0  0  0  0  0  0  0  0
    4.2047  -12.4970    0.0000 O   0  0  0  0  0  0  0  0  0  0  0  0
    5.6336  -12.4884    0.0000 O   0  0  0  0  0  0  0  0  0  0  0  0
   13.5639   -9.6324    0.0000 O   0  0  0  0  0  0  0  0  0  0  0  0
   13.5639   -7.9824    0.0000 O   0  0  0  0  0  0  0  0  0  0  0  0
   11.4205   -9.2199    0.0000 C   0  0  0  0  0  0  0  0  0  0  0  0
   12.1349   -9.6324    0.0000 C   0  0  0  0  0  0  0  0  0  0  0  0
   12.8494   -9.2199    0.0000 C   0  0  0  0  0  0  0  0  0  0  0  0
   12.8494   -8.3949    0.0000 C   0  0  0  0  0  0  0  0  0  0  0  0
   12.1349   -7.9824    0.0000 C   0  0  0  0  0  0  0  0  0  0  0  0
   11.4205   -8.3949    0.0000 C   0  0  0  0  0  0  0  0  0  0  0  0
   10.7060   -7.9824    0.0000 C   0  0  0  0  0  0  0  0  0  0  0  0
    9.2770   -7.1574    0.0000 O   0  0  0  0  0  0  0  0  0  0  0  0
    9.9915   -8.3949    0.0000 C   0  0  0  0  0  0  0  0  0  0  0  0
    9.2770   -7.9824    0.0000 C   0  0  0  0  0  0  0  0  0  0  0  0
    8.5626   -8.3949    0.0000 O   0  0  0  0  0  0  0  0  0  0  0  0
  1  2  1  0  0  0  0
  2  3  1  0  0  0  0
  3  4  1  0  0  0  0
  4  5  1  0  0  0  0
  5  6  1  0  0  0  0
  6  1  1  0  0  0  0
  3  7  1  1  0  0  0
  6  8  1  1  0  0  0
  2  9  1  6  0  0  0
  6 10  1  0  0  0  0
 10 11  2  0  0  0  0
 10 12  1  0  0  0  0
 13 14  1  0  0  0  0
 13 15  2  0  0  0  0
 14 16  1  0  0  0  0
 16 17  1  0  0  0  0
 16 18  1  0  0  0  0
 16 19  1  0  0  0  0
 17 20  1  0  0  0  0
 20 21  1  0  0  0  0
 20 22  2  0  0  0  0
 13  7  1  0  0  0  0
 27 23  1  0  0  0  0
 28 24  1  0  0  0  0
 25 30  1  0  0  0  0
 26 25  2  0  0  0  0
 27 26  1  0  0  0  0
 28 27  2  0  0  0  0
 29 28  1  0  0  0  0
 30 29  2  0  0  0  0
 31 30  1  0  0  0  0
 33 31  2  0  0  0  0
 34 32  2  0  0  0  0
 34 33  1  0  0  0  0
 35 34  1  0  0  0  0
  4 35  1  1  0  0  0
M  END
>  <cdx:fragmentId>
5

$$$$
