90107.cdx
  Mrv1902 05222410252D          

 23 23  0  0  0  0            999 V2000
    7.2031   -7.4514    0.0000 C   0  0  0  0  0  0  0  0  0  0  0  0
    7.2031   -8.2764    0.0000 C   0  0  2  0  0  0  0  0  0  0  0  0
    7.9175   -8.6889    0.0000 C   0  0  1  0  0  0  0  0  0  0  0  0
    8.6320   -8.2764    0.0000 C   0  0  1  0  0  0  0  0  0  0  0  0
    8.6320   -7.4514    0.0000 C   0  0  0  0  0  0  0  0  0  0  0  0
    7.9175   -7.0389    0.0000 C   0  0  2  0  0  0  0  0  0  0  0  0
    7.9175   -9.5139    0.0000 O   0  0  0  0  0  0  0  0  0  0  0  0
    7.5050   -6.3244    0.0000 O   0  0  0  0  0  0  0  0  0  0  0  0
    6.4886   -8.6889    0.0000 O   0  0  0  0  0  0  0  0  0  0  0  0
    8.3300   -6.3244    0.0000 C   0  0  0  0  0  0  0  0  0  0  0  0
    7.9175   -5.6100    0.0000 O   0  0  0  0  0  0  0  0  0  0  0  0
    9.1550   -6.3244    0.0000 O   0  0  0  0  0  0  0  0  0  0  0  0
    7.2245   -9.9404    0.0000 C   0  0  0  0  0  0  0  0  0  0  0  0
    7.2294  -10.7654    0.0000 C   0  0  0  0  0  0  0  0  0  0  0  0
    6.5076   -9.5322    0.0000 O   0  0  0  0  0  0  0  0  0  0  0  0
    6.5174  -11.1822    0.0000 C   0  0  0  0  0  0  0  0  0  0  0  0
    5.8055  -11.5990    0.0000 C   0  0  0  0  0  0  0  0  0  0  0  0
    6.1007  -10.4702    0.0000 C   0  0  0  0  0  0  0  0  0  0  0  0
    6.9342  -11.8942    0.0000 O   0  0  0  0  0  0  0  0  0  0  0  0
    5.8104  -12.4240    0.0000 C   0  0  0  0  0  0  0  0  0  0  0  0
    5.0984  -12.8407    0.0000 O   0  0  0  0  0  0  0  0  0  0  0  0
    6.5273  -12.8322    0.0000 O   0  0  0  0  0  0  0  0  0  0  0  0
    9.4563   -8.7386    0.0000 O   0  0  0  0  0  0  0  0  0  0  0  0
  1  2  1  0  0  0  0
  2  3  1  0  0  0  0
  3  4  1  0  0  0  0
  4  5  1  0  0  0  0
  5  6  1  0  0  0  0
  6  1  1  0  0  0  0
  3  7  1  1  0  0  0
  6  8  1  1  0  0  0
  2  9  1  6  0  0  0
  6 10  1  0  0  0  0
 10 11  2  0  0  0  0
 10 12  1  0  0  0  0
 13 14  1  0  0  0  0
 13 15  2  0  0  0  0
 14 16  1  0  0  0  0
 16 17  1  0  0  0  0
 16 18  1  0  0  0  0
 16 19  1  0  0  0  0
 17 20  1  0  0  0  0
 20 21  1  0  0  0  0
 20 22  2  0  0  0  0
 13  7  1  0  0  0  0
  4 23  1  1  0  0  0
M  END
>  <cdx:fragmentId>
5

$$$$
