90102.cdx
  Mrv1902 05222410232D          

 35 36  0  0  0  0            999 V2000
    8.3306   -6.1039    0.0000 C   0  0  0  0  0  0  0  0  0  0  0  0
    8.3306   -6.9289    0.0000 C   0  0  2  0  0  0  0  0  0  0  0  0
    9.0450   -7.3414    0.0000 C   0  0  1  0  0  0  0  0  0  0  0  0
    9.7595   -6.9289    0.0000 C   0  0  1  0  0  0  0  0  0  0  0  0
    9.7595   -6.1039    0.0000 C   0  0  0  0  0  0  0  0  0  0  0  0
    9.0450   -5.6914    0.0000 C   0  0  2  0  0  0  0  0  0  0  0  0
    9.0450   -8.1664    0.0000 O   0  0  0  0  0  0  0  0  0  0  0  0
   10.4740   -7.3414    0.0000 O   0  0  0  0  0  0  0  0  0  0  0  0
    8.6325   -4.9769    0.0000 O   0  0  0  0  0  0  0  0  0  0  0  0
    7.6161   -7.3414    0.0000 O   0  0  0  0  0  0  0  0  0  0  0  0
    9.4575   -4.9769    0.0000 C   0  0  0  0  0  0  0  0  0  0  0  0
    9.0450   -4.2625    0.0000 O   0  0  0  0  0  0  0  0  0  0  0  0
   10.2825   -4.9769    0.0000 O   0  0  0  0  0  0  0  0  0  0  0  0
    8.3486   -8.5933    0.0000 C   0  0  0  0  0  0  0  0  0  0  0  0
    8.3636   -9.4182    0.0000 C   0  0  0  0  0  0  0  0  0  0  0  0
    7.6267   -8.1939    0.0000 O   0  0  0  0  0  0  0  0  0  0  0  0
    7.6568   -9.8436    0.0000 C   0  0  0  0  0  0  0  0  0  0  0  0
    6.9499  -10.2691    0.0000 C   0  0  0  0  0  0  0  0  0  0  0  0
    7.2313   -9.1368    0.0000 C   0  0  0  0  0  0  0  0  0  0  0  0
    8.0822  -10.5505    0.0000 O   0  0  0  0  0  0  0  0  0  0  0  0
    6.9650  -11.0939    0.0000 C   0  0  0  0  0  0  0  0  0  0  0  0
    6.2581  -11.5194    0.0000 O   0  0  0  0  0  0  0  0  0  0  0  0
    7.6868  -11.4933    0.0000 O   0  0  0  0  0  0  0  0  0  0  0  0
    6.9016   -6.9289    0.0000 C   0  0  0  0  0  0  0  0  0  0  0  0
    6.1871   -7.3414    0.0000 C   0  0  0  0  0  0  0  0  0  0  0  0
    6.9016   -6.1039    0.0000 O   0  0  0  0  0  0  0  0  0  0  0  0
    5.4727   -6.9289    0.0000 C   0  0  0  0  0  0  0  0  0  0  0  0
    4.7582   -7.3414    0.0000 C   0  0  0  0  0  0  0  0  0  0  0  0
    4.0437   -6.9289    0.0000 C   0  0  0  0  0  0  0  0  0  0  0  0
    3.3293   -7.3414    0.0000 C   0  0  0  0  0  0  0  0  0  0  0  0
    3.3293   -8.1664    0.0000 C   0  0  0  0  0  0  0  0  0  0  0  0
    4.0437   -8.5789    0.0000 C   0  0  0  0  0  0  0  0  0  0  0  0
    4.7582   -8.1664    0.0000 C   0  0  0  0  0  0  0  0  0  0  0  0
    2.6148   -6.9289    0.0000 O   0  0  0  0  0  0  0  0  0  0  0  0
    2.6148   -8.5789    0.0000 O   0  0  0  0  0  0  0  0  0  0  0  0
  1  2  1  0  0  0  0
  2  3  1  0  0  0  0
  3  4  1  0  0  0  0
  4  5  1  0  0  0  0
  5  6  1  0  0  0  0
  6  1  1  0  0  0  0
  3  7  1  1  0  0  0
  4  8  1  1  0  0  0
  6  9  1  1  0  0  0
  2 10  1  6  0  0  0
  6 11  1  0  0  0  0
 11 12  2  0  0  0  0
 11 13  1  0  0  0  0
 14 15  1  0  0  0  0
 14 16  2  0  0  0  0
 15 17  1  0  0  0  0
 17 18  1  0  0  0  0
 17 19  1  0  0  0  0
 17 20  1  0  0  0  0
 18 21  1  0  0  0  0
 21 22  1  0  0  0  0
 21 23  2  0  0  0  0
 14  7  1  0  0  0  0
 10 24  1  0  0  0  0
 24 25  1  0  0  0  0
 24 26  2  0  0  0  0
 25 27  2  0  0  0  0
 27 28  1  0  0  0  0
 28 29  2  0  0  0  0
 29 30  1  0  0  0  0
 30 31  2  0  0  0  0
 31 32  1  0  0  0  0
 32 33  2  0  0  0  0
 33 28  1  0  0  0  0
 30 34  1  0  0  0  0
 31 35  1  0  0  0  0
M  END
>  <cdx:fragmentId>
5

$$$$
