90109.cdx
  Mrv1902 05222410212D          

 23 23  0  0  0  0            999 V2000
    5.5393   -8.2351    0.0000 C   0  0  0  0  0  0  0  0  0  0  0  0
    5.5393   -9.0601    0.0000 C   0  0  2  0  0  0  0  0  0  0  0  0
    6.2538   -9.4726    0.0000 C   0  0  1  0  0  0  0  0  0  0  0  0
    6.9682   -9.0601    0.0000 C   0  0  1  0  0  0  0  0  0  0  0  0
    6.9682   -8.2351    0.0000 C   0  0  0  0  0  0  0  0  0  0  0  0
    6.2538   -7.8226    0.0000 C   0  0  2  0  0  0  0  0  0  0  0  0
    6.2538  -10.2976    0.0000 O   0  0  0  0  0  0  0  0  0  0  0  0
    5.8413   -7.1082    0.0000 O   0  0  0  0  0  0  0  0  0  0  0  0
    4.8248   -9.4726    0.0000 O   0  0  0  0  0  0  0  0  0  0  0  0
    6.6663   -7.1082    0.0000 C   0  0  0  0  0  0  0  0  0  0  0  0
    6.2538   -6.3937    0.0000 O   0  0  0  0  0  0  0  0  0  0  0  0
    7.4913   -7.1082    0.0000 O   0  0  0  0  0  0  0  0  0  0  0  0
    7.7926   -9.5224    0.0000 O   0  0  0  0  0  0  0  0  0  0  0  0
    8.5079   -9.9087    0.0000 C   0  0  0  0  0  0  0  0  0  0  0  0
    9.2183   -9.4891    0.0000 C   0  0  0  0  0  0  0  0  0  0  0  0
    8.5162  -10.7337    0.0000 O   0  0  0  0  0  0  0  0  0  0  0  0
    9.9368   -9.8944    0.0000 C   0  0  0  0  0  0  0  0  0  0  0  0
   10.6554  -10.2998    0.0000 C   0  0  0  0  0  0  0  0  0  0  0  0
    9.5315  -10.6130    0.0000 C   0  0  0  0  0  0  0  0  0  0  0  0
   10.3422   -9.1759    0.0000 O   0  0  0  0  0  0  0  0  0  0  0  0
   11.3657   -9.8802    0.0000 C   0  0  0  0  0  0  0  0  0  0  0  0
   12.0842  -10.2855    0.0000 O   0  0  0  0  0  0  0  0  0  0  0  0
   11.3574   -9.0552    0.0000 O   0  0  0  0  0  0  0  0  0  0  0  0
  1  2  1  0  0  0  0
  2  3  1  0  0  0  0
  3  4  1  0  0  0  0
  4  5  1  0  0  0  0
  5  6  1  0  0  0  0
  6  1  1  0  0  0  0
  3  7  1  1  0  0  0
  6  8  1  1  0  0  0
  2  9  1  6  0  0  0
  6 10  1  0  0  0  0
 10 11  2  0  0  0  0
 10 12  1  0  0  0  0
  4 13  1  1  0  0  0
 14 15  1  0  0  0  0
 14 16  2  0  0  0  0
 15 17  1  0  0  0  0
 17 18  1  0  0  0  0
 17 19  1  0  0  0  0
 17 20  1  0  0  0  0
 18 21  1  0  0  0  0
 21 22  1  0  0  0  0
 21 23  2  0  0  0  0
 14 13  1  0  0  0  0
M  END
>  <cdx:fragmentId>
5

$$$$
