1000.cdx
  Mrv1902 05222410252D          

 28 33  0  0  0  0            999 V2000
    3.2264   -6.6236    0.0000 C   0  0  0  0  0  0  0  0  0  0  0  0
    2.8250   -7.3443    0.0000 C   0  0  0  0  0  0  0  0  0  0  0  0
    3.2485   -8.0524    0.0000 C   0  0  0  0  0  0  0  0  0  0  0  0
    4.0734   -8.0396    0.0000 C   0  0  0  0  0  0  0  0  0  0  0  0
    4.4748   -7.3189    0.0000 C   0  0  0  0  0  0  0  0  0  0  0  0
    4.0513   -6.6109    0.0000 C   0  0  0  0  0  0  0  0  0  0  0  0
    4.6348   -8.6442    0.0000 N   0  0  0  0  0  0  0  0  0  0  0  0
    5.3832   -8.2970    0.0000 C   0  0  0  0  0  0  0  0  0  0  0  0
    5.2843   -7.4780    0.0000 C   0  0  0  0  0  0  0  0  0  0  0  0
    7.3606   -8.0583    0.0000 C   0  0  0  0  0  0  0  0  0  0  0  0
    7.2617   -7.2393    0.0000 C   0  0  0  0  0  0  0  0  0  0  0  0
    6.6126   -6.7300    0.0000 C   0  0  1  0  0  0  0  0  0  0  0  0
    5.7936   -6.8289    0.0000 C   0  0  0  0  0  0  0  0  0  0  0  0
    8.1193   -8.3823    0.0000 N   0  0  0  0  0  0  0  0  0  0  0  0
    8.7792   -7.8871    0.0000 C   0  0  0  0  0  0  0  0  0  0  0  0
    8.6803   -7.0680    0.0000 C   0  0  0  0  0  0  0  0  0  0  0  0
    7.9216   -6.7441    0.0000 C   0  0  0  0  0  0  0  0  0  0  0  0
    9.5380   -8.2110    0.0000 C   0  0  0  0  0  0  0  0  0  0  0  0
   10.1978   -7.7159    0.0000 C   0  0  0  0  0  0  0  0  0  0  0  0
   10.0990   -6.8968    0.0000 C   0  0  0  0  0  0  0  0  0  0  0  0
    9.3402   -6.5729    0.0000 C   0  0  0  0  0  0  0  0  0  0  0  0
    7.7772   -5.9191    0.0000 O   0  0  0  0  0  0  0  0  0  0  0  0
    6.8261   -5.9332    0.0000 H   0  0  0  0  0  0  0  0  0  0  0  0
    6.4689   -8.7714    0.0000 C   0  0  2  0  0  0  0  0  0  0  0  0
    6.4689   -7.9464    0.0000 N   0  0  0  0  0  0  0  0  0  0  0  0
    6.6824   -9.5683    0.0000 C   0  0  0  0  0  0  0  0  0  0  0  0
    6.0293   -7.3340    0.0000 C   0  0  0  0  0  0  0  0  0  0  0  0
    5.6728   -7.3605    0.0000 O   0  0  0  0  0  0  0  0  0  0  0  0
  1  2  2  0  0  0  0
  2  3  1  0  0  0  0
  3  4  2  0  0  0  0
  4  5  1  0  0  0  0
  5  6  2  0  0  0  0
  6  1  1  0  0  0  0
  4  7  1  0  0  0  0
  7  8  1  0  0  0  0
  8  9  2  0  0  0  0
  9  5  1  0  0  0  0
 10 11  1  0  0  0  0
 11 12  1  0  0  0  0
 12 13  1  0  0  0  0
 13  9  1  0  0  0  0
 10 14  2  0  0  0  0
 14 15  1  0  0  0  0
 15 16  2  0  0  0  0
 16 17  1  0  0  0  0
 17 11  1  0  0  0  0
 15 18  1  0  0  0  0
 18 19  2  0  0  0  0
 19 20  1  0  0  0  0
 20 21  2  0  0  0  0
 21 16  1  0  0  0  0
 17 22  2  0  0  0  0
 12 23  1  1  0  0  0
 24  8  1  1  0  0  0
 24 10  1  1  0  0  0
 24 25  1  6  0  0  0
 24 26  1  6  0  0  0
 12 27  1  6  0  0  0
 27 25  1  0  0  0  0
 27 28  2  0  0  0  0
M  END
>  <cdx:fragmentId>
5

$$$$
