901066.cdx
  Mrv1902 05222410262D          

 38 42  0  0  0  0            999 V2000
    9.5294   -8.6062    0.0000 C   0  0  1  0  0  0  0  0  0  0  0  0
    8.8149   -9.0186    0.0000 C   0  0  2  0  0  0  0  0  0  0  0  0
    9.5295   -7.7812    0.0000 C   0  0  0  0  0  0  0  0  0  0  0  0
    8.8151   -7.3686    0.0000 O   0  0  0  0  0  0  0  0  0  0  0  0
    8.1006   -7.7810    0.0000 C   0  0  0  0  0  0  0  0  0  0  0  0
    8.1005   -8.6060    0.0000 C   0  0  0  0  0  0  0  0  0  0  0  0
    7.3861   -7.3685    0.0000 C   0  0  0  0  0  0  0  0  0  0  0  0
    6.6716   -7.7809    0.0000 C   0  0  0  0  0  0  0  0  0  0  0  0
    6.6715   -8.6059    0.0000 C   0  0  0  0  0  0  0  0  0  0  0  0
    7.3860   -9.0185    0.0000 C   0  0  0  0  0  0  0  0  0  0  0  0
    5.9572   -7.3683    0.0000 O   0  0  0  0  0  0  0  0  0  0  0  0
    8.1004   -9.4310    0.0000 H   0  0  0  0  0  0  0  0  0  0  0  0
   10.3263   -8.3928    0.0000 H   0  0  0  0  0  0  0  0  0  0  0  0
    8.9864   -9.8256    0.0000 O   0  0  0  0  0  0  0  0  0  0  0  0
    9.8068   -9.9119    0.0000 C   0  0  0  0  0  0  0  0  0  0  0  0
   10.1425   -9.1583    0.0000 C   0  0  0  0  0  0  0  0  0  0  0  0
   10.2917  -10.5794    0.0000 C   0  0  0  0  0  0  0  0  0  0  0  0
   11.1122  -10.4933    0.0000 C   0  0  0  0  0  0  0  0  0  0  0  0
   11.4478   -9.7396    0.0000 C   0  0  0  0  0  0  0  0  0  0  0  0
   10.9630   -9.0721    0.0000 C   0  0  0  0  0  0  0  0  0  0  0  0
    9.9560  -11.3331    0.0000 O   0  0  0  0  0  0  0  0  0  0  0  0
   10.4409  -12.0006    0.0000 C   0  0  0  0  0  0  0  0  0  0  0  0
   11.5970  -11.1608    0.0000 O   0  0  0  0  0  0  0  0  0  0  0  0
   12.4220  -11.1608    0.0000 C   0  0  0  0  0  0  0  0  0  0  0  0
    3.8110   -7.7823    0.0000 C   0  0  2  0  0  0  0  0  0  0  0  0
    3.8110   -8.6073    0.0000 C   0  0  2  0  0  0  0  0  0  0  0  0
    4.5255   -9.0198    0.0000 C   0  0  1  0  0  0  0  0  0  0  0  0
    5.2399   -8.6073    0.0000 C   0  0  2  0  0  0  0  0  0  0  0  0
    5.2399   -7.7823    0.0000 C   0  0  1  0  0  0  0  0  0  0  0  0
    4.5255   -7.3698    0.0000 O   0  0  0  0  0  0  0  0  0  0  0  0
    4.5255   -9.8448    0.0000 O   0  0  0  0  0  0  0  0  0  0  0  0
    3.0965   -7.3698    0.0000 C   0  0  0  0  0  0  0  0  0  0  0  0
    5.9544   -9.0198    0.0000 O   0  0  0  0  0  0  0  0  0  0  0  0
    3.0965   -9.0198    0.0000 O   0  0  0  0  0  0  0  0  0  0  0  0
    2.3821   -7.7823    0.0000 O   0  0  0  0  0  0  0  0  0  0  0  0
    1.6676   -7.3698    0.0000 C   0  0  0  0  0  0  0  0  0  0  0  0
    0.9531   -7.7823    0.0000 C   0  0  0  0  0  0  0  0  0  0  0  0
    1.6676   -6.5448    0.0000 O   0  0  0  0  0  0  0  0  0  0  0  0
  1  2  1  0  0  0  0
  1  3  1  0  0  0  0
  3  4  1  0  0  0  0
  4  5  1  0  0  0  0
  5  6  2  0  0  0  0
  6  2  1  0  0  0  0
  5  7  1  0  0  0  0
  7  8  2  0  0  0  0
  8  9  1  0  0  0  0
  9 10  2  0  0  0  0
 10  6  1  0  0  0  0
  8 11  1  0  0  0  0
  2 12  1  6  0  0  0
  1 13  1  6  0  0  0
  2 14  1  0  0  0  0
 14 15  1  0  0  0  0
 15 16  2  0  0  0  0
 16  1  1  0  0  0  0
 15 17  1  0  0  0  0
 17 18  2  0  0  0  0
 18 19  1  0  0  0  0
 19 20  2  0  0  0  0
 20 16  1  0  0  0  0
 17 21  1  0  0  0  0
 21 22  1  0  0  0  0
 18 23  1  0  0  0  0
 23 24  1  0  0  0  0
 25 26  1  0  0  0  0
 26 27  1  0  0  0  0
 27 28  1  0  0  0  0
 28 29  1  0  0  0  0
 29 30  1  0  0  0  0
 30 25  1  0  0  0  0
 27 31  1  1  0  0  0
 25 32  1  1  0  0  0
 28 33  1  6  0  0  0
 26 34  1  6  0  0  0
 29 11  1  1  0  0  0
 32 35  1  0  0  0  0
 35 36  1  0  0  0  0
 36 37  1  0  0  0  0
 36 38  2  0  0  0  0
M  END
>  <cdx:fragmentId>
124

$$$$
