901049.cdx
  Mrv1902 05222410272D          

 19 21  0  0  0  0            999 V2000
    5.8506   -8.0813    0.0000 C   0  0  0  0  0  0  0  0  0  0  0  0
    5.8506   -7.2563    0.0000 C   0  0  2  0  0  0  0  0  0  0  0  0
    6.5651   -6.8438    0.0000 C   0  0  2  0  0  0  0  0  0  0  0  0
    7.2795   -7.2563    0.0000 C   0  0  0  0  0  0  0  0  0  0  0  0
    7.9940   -6.8438    0.0000 C   0  0  0  0  0  0  0  0  0  0  0  0
    8.7085   -7.2563    0.0000 C   0  0  0  0  0  0  0  0  0  0  0  0
    8.7085   -8.0813    0.0000 C   0  0  0  0  0  0  0  0  0  0  0  0
    7.9940   -8.4938    0.0000 C   0  0  0  0  0  0  0  0  0  0  0  0
    7.2795   -8.0813    0.0000 C   0  0  0  0  0  0  0  0  0  0  0  0
    6.5651   -8.4938    0.0000 O   0  0  0  0  0  0  0  0  0  0  0  0
    9.4230   -6.8438    0.0000 C   0  0  0  0  0  0  0  0  0  0  0  0
    9.4230   -6.0188    0.0000 C   0  0  0  0  0  0  0  0  0  0  0  0
    8.7085   -5.6063    0.0000 C   0  0  0  0  0  0  0  0  0  0  0  0
    7.9940   -6.0188    0.0000 O   0  0  0  0  0  0  0  0  0  0  0  0
    8.7085   -4.7813    0.0000 O   0  0  0  0  0  0  0  0  0  0  0  0
    5.4381   -8.7957    0.0000 C   0  0  0  0  0  0  0  0  0  0  0  0
    5.0256   -8.0813    0.0000 C   0  0  0  0  0  0  0  0  0  0  0  0
    6.5651   -6.0188    0.0000 O   0  0  0  0  0  0  0  0  0  0  0  0
    5.1361   -6.8438    0.0000 O   0  0  0  0  0  0  0  0  0  0  0  0
  1  2  1  0  0  0  0
  2  3  1  0  0  0  0
  3  4  1  0  0  0  0
  4  5  1  0  0  0  0
  5  6  2  0  0  0  0
  6  7  1  0  0  0  0
  7  8  2  0  0  0  0
  8  9  1  0  0  0  0
  4  9  2  0  0  0  0
  9 10  1  0  0  0  0
  1 10  1  0  0  0  0
 11 12  2  0  0  0  0
 12 13  1  0  0  0  0
 13 14  1  0  0  0  0
 14  5  1  0  0  0  0
 11  6  1  0  0  0  0
 13 15  2  0  0  0  0
  1 16  1  0  0  0  0
  1 17  1  0  0  0  0
  3 18  1  1  0  0  0
  2 19  1  1  0  0  0
M  END
>  <cdx:fragmentId>
66453

$$$$
