901054.cdx
  Mrv1902 05222410192D          

 31 34  0  0  0  0            999 V2000
    3.0886   -4.8900    0.0000 O   0  0  0  0  0  0  0  0  0  0  0  0
    3.8030   -5.3025    0.0000 C   0  0  0  0  0  0  0  0  0  0  0  0
    3.8030   -6.1275    0.0000 C   0  0  0  0  0  0  0  0  0  0  0  0
    4.5175   -6.5400    0.0000 C   0  0  0  0  0  0  0  0  0  0  0  0
    5.2320   -6.1275    0.0000 C   0  0  0  0  0  0  0  0  0  0  0  0
    5.2320   -5.3025    0.0000 C   0  0  0  0  0  0  0  0  0  0  0  0
    4.5175   -4.8900    0.0000 C   0  0  0  0  0  0  0  0  0  0  0  0
    5.9465   -6.5400    0.0000 C   0  0  0  0  0  0  0  0  0  0  0  0
    6.6609   -6.1275    0.0000 C   0  0  2  0  0  0  0  0  0  0  0  0
    6.6609   -5.3025    0.0000 C   0  0  2  0  0  0  0  0  0  0  0  0
    5.9465   -4.8900    0.0000 O   0  0  0  0  0  0  0  0  0  0  0  0
    4.5175   -7.3650    0.0000 O   0  0  0  0  0  0  0  0  0  0  0  0
    7.3754   -6.5400    0.0000 O   0  0  0  0  0  0  0  0  0  0  0  0
    7.3754   -4.8900    0.0000 C   0  0  0  0  0  0  0  0  0  0  0  0
    8.0899   -5.3025    0.0000 C   0  0  0  0  0  0  0  0  0  0  0  0
    8.8043   -4.8900    0.0000 C   0  0  0  0  0  0  0  0  0  0  0  0
    8.8043   -4.0650    0.0000 C   0  0  0  0  0  0  0  0  0  0  0  0
    8.0899   -3.6525    0.0000 C   0  0  0  0  0  0  0  0  0  0  0  0
    7.3754   -4.0650    0.0000 C   0  0  0  0  0  0  0  0  0  0  0  0
    9.5188   -3.6525    0.0000 O   0  0  0  0  0  0  0  0  0  0  0  0
    6.6581   -8.6054    0.0000 C   0  0  2  0  0  0  0  0  0  0  0  0
    7.3730   -9.0171    0.0000 C   0  0  2  0  0  0  0  0  0  0  0  0
    8.0870   -8.6039    0.0000 C   0  0  2  0  0  0  0  0  0  0  0  0
    8.0862   -7.7789    0.0000 C   0  0  2  0  0  0  0  0  0  0  0  0
    7.3713   -7.3671    0.0000 C   0  0  1  0  0  0  0  0  0  0  0  0
    6.6573   -7.7804    0.0000 O   0  0  0  0  0  0  0  0  0  0  0  0
    8.8019   -9.0157    0.0000 O   0  0  0  0  0  0  0  0  0  0  0  0
    5.9440   -9.0186    0.0000 C   0  0  0  0  0  0  0  0  0  0  0  0
    8.8003   -7.3657    0.0000 O   0  0  0  0  0  0  0  0  0  0  0  0
    7.3738   -9.8421    0.0000 O   0  0  0  0  0  0  0  0  0  0  0  0
    5.9449   -9.8436    0.0000 O   0  0  0  0  0  0  0  0  0  0  0  0
  1  2  1  0  0  0  0
  2  3  2  0  0  0  0
  3  4  1  0  0  0  0
  4  5  2  0  0  0  0
  5  6  1  0  0  0  0
  6  7  2  0  0  0  0
  7  2  1  0  0  0  0
  5  8  1  0  0  0  0
  8  9  1  0  0  0  0
  9 10  1  0  0  0  0
 10 11  1  0  0  0  0
 11  6  1  0  0  0  0
  4 12  1  0  0  0  0
  9 13  1  6  0  0  0
 10 14  1  6  0  0  0
 14 15  2  0  0  0  0
 15 16  1  0  0  0  0
 16 17  2  0  0  0  0
 17 18  1  0  0  0  0
 18 19  2  0  0  0  0
 19 14  1  0  0  0  0
 17 20  1  0  0  0  0
 21 22  1  0  0  0  0
 22 23  1  0  0  0  0
 23 24  1  0  0  0  0
 24 25  1  0  0  0  0
 25 26  1  0  0  0  0
 26 21  1  0  0  0  0
 23 27  1  6  0  0  0
 21 28  1  1  0  0  0
 24 29  1  6  0  0  0
 22 30  1  6  0  0  0
 28 31  1  0  0  0  0
 25 13  1  1  0  0  0
M  END
>  <cdx:fragmentId>
5

$$$$
