90104.cdx
  Mrv1902 05222410252D          

 48 50  0  0  0  0            999 V2000
    6.3093   -7.1076    0.0000 C   0  0  0  0  0  0  0  0  0  0  0  0
    6.3093   -7.9326    0.0000 C   0  0  2  0  0  0  0  0  0  0  0  0
    7.0238   -8.3451    0.0000 C   0  0  0  0  0  0  0  0  0  0  0  0
    7.7382   -7.9326    0.0000 C   0  0  1  0  0  0  0  0  0  0  0  0
    7.7382   -7.1076    0.0000 C   0  0  0  0  0  0  0  0  0  0  0  0
    7.0238   -6.6951    0.0000 C   0  0  0  0  0  0  0  0  0  0  0  0
    7.0238   -9.1701    0.0000 O   0  0  0  0  0  0  0  0  0  0  0  0
    6.6113   -5.9807    0.0000 O   0  0  0  0  0  0  0  0  0  0  0  0
    5.5948   -8.3451    0.0000 O   0  0  0  0  0  0  0  0  0  0  0  0
    7.4363   -5.9807    0.0000 C   0  0  0  0  0  0  0  0  0  0  0  0
    7.0238   -5.2662    0.0000 O   0  0  0  0  0  0  0  0  0  0  0  0
    8.2613   -5.9807    0.0000 O   0  0  0  0  0  0  0  0  0  0  0  0
    4.8804   -7.9326    0.0000 C   0  0  0  0  0  0  0  0  0  0  0  0
    4.1659   -8.3451    0.0000 C   0  0  0  0  0  0  0  0  0  0  0  0
    4.8804   -7.1076    0.0000 O   0  0  0  0  0  0  0  0  0  0  0  0
    3.4514   -7.9326    0.0000 C   0  0  0  0  0  0  0  0  0  0  0  0
    2.7369   -8.3451    0.0000 C   0  0  0  0  0  0  0  0  0  0  0  0
    2.0225   -7.9326    0.0000 C   0  0  0  0  0  0  0  0  0  0  0  0
    1.3080   -8.3451    0.0000 C   0  0  0  0  0  0  0  0  0  0  0  0
    1.3080   -9.1701    0.0000 C   0  0  0  0  0  0  0  0  0  0  0  0
    2.0225   -9.5826    0.0000 C   0  0  0  0  0  0  0  0  0  0  0  0
    2.7369   -9.1701    0.0000 C   0  0  0  0  0  0  0  0  0  0  0  0
    0.5935   -7.9326    0.0000 O   0  0  0  0  0  0  0  0  0  0  0  0
    0.5935   -9.5826    0.0000 O   0  0  0  0  0  0  0  0  0  0  0  0
    6.3308   -9.5967    0.0000 C   0  0  0  0  0  0  0  0  0  0  0  0
    6.3357  -10.4217    0.0000 C   0  0  0  0  0  0  0  0  0  0  0  0
    5.6138   -9.1885    0.0000 O   0  0  0  0  0  0  0  0  0  0  0  0
    5.6237  -10.8385    0.0000 C   0  0  0  0  0  0  0  0  0  0  0  0
    4.9117  -11.2552    0.0000 C   0  0  0  0  0  0  0  0  0  0  0  0
    5.2069  -10.1265    0.0000 C   0  0  0  0  0  0  0  0  0  0  0  0
    6.0405  -11.5504    0.0000 O   0  0  0  0  0  0  0  0  0  0  0  0
    4.9166  -12.0802    0.0000 C   0  0  0  0  0  0  0  0  0  0  0  0
    4.2047  -12.4970    0.0000 O   0  0  0  0  0  0  0  0  0  0  0  0
    5.6336  -12.4884    0.0000 O   0  0  0  0  0  0  0  0  0  0  0  0
   13.5639   -9.6324    0.0000 O   0  0  0  0  0  0  0  0  0  0  0  0
   13.5639   -7.9824    0.0000 O   0  0  0  0  0  0  0  0  0  0  0  0
   11.4205   -9.2199    0.0000 C   0  0  0  0  0  0  0  0  0  0  0  0
   12.1349   -9.6324    0.0000 C   0  0  0  0  0  0  0  0  0  0  0  0
   12.8494   -9.2199    0.0000 C   0  0  0  0  0  0  0  0  0  0  0  0
   12.8494   -8.3949    0.0000 C   0  0  0  0  0  0  0  0  0  0  0  0
   12.1349   -7.9824    0.0000 C   0  0  0  0  0  0  0  0  0  0  0  0
   11.4205   -8.3949    0.0000 C   0  0  0  0  0  0  0  0  0  0  0  0
   10.7060   -7.9824    0.0000 C   0  0  0  0  0  0  0  0  0  0  0  0
    9.2770   -7.1574    0.0000 O   0  0  0  0  0  0  0  0  0  0  0  0
    9.9915   -8.3949    0.0000 C   0  0  0  0  0  0  0  0  0  0  0  0
    9.2770   -7.9824    0.0000 C   0  0  0  0  0  0  0  0  0  0  0  0
    8.5626   -8.3949    0.0000 O   0  0  0  0  0  0  0  0  0  0  0  0
    0.5935   -7.1076    0.0000 C   0  0  0  0  0  0  0  0  0  0  0  0
  1  2  1  0  0  0  0
  2  3  1  0  0  0  0
  3  4  1  0  0  0  0
  4  5  1  0  0  0  0
  5  6  1  0  0  0  0
  6  1  1  0  0  0  0
  3  7  1  0  0  0  0
  6  8  1  0  0  0  0
  2  9  1  6  0  0  0
  6 10  1  0  0  0  0
 10 11  2  0  0  0  0
 10 12  1  0  0  0  0
  9 13  1  0  0  0  0
 13 14  1  0  0  0  0
 13 15  2  0  0  0  0
 14 16  2  0  0  0  0
 16 17  1  0  0  0  0
 17 18  2  0  0  0  0
 18 19  1  0  0  0  0
 19 20  2  0  0  0  0
 20 21  1  0  0  0  0
 21 22  2  0  0  0  0
 22 17  1  0  0  0  0
 19 23  1  0  0  0  0
 20 24  1  0  0  0  0
 25 26  1  0  0  0  0
 25 27  2  0  0  0  0
 26 28  1  0  0  0  0
 28 29  1  0  0  0  0
 28 30  1  0  0  0  0
 28 31  1  0  0  0  0
 29 32  1  0  0  0  0
 32 33  1  0  0  0  0
 32 34  2  0  0  0  0
 25  7  1  0  0  0  0
 39 35  1  0  0  0  0
 40 36  1  0  0  0  0
 37 42  1  0  0  0  0
 38 37  2  0  0  0  0
 39 38  1  0  0  0  0
 40 39  2  0  0  0  0
 41 40  1  0  0  0  0
 42 41  2  0  0  0  0
 43 42  1  0  0  0  0
 45 43  2  0  0  0  0
 46 44  2  0  0  0  0
 46 45  1  0  0  0  0
 47 46  1  0  0  0  0
  4 47  1  1  0  0  0
 23 48  1  0  0  0  0
M  END
>  <cdx:fragmentId>
5

$$$$
