1050.cdx
  Mrv1902 05222410192D          

 22 24  0  0  0  0            999 V2000
    3.1383   -6.5794    0.0000 C   0  0  2  0  0  0  0  0  0  0  0  0
    3.1383   -7.4044    0.0000 C   0  0  2  0  0  0  0  0  0  0  0  0
    3.8527   -7.8169    0.0000 C   0  0  1  0  0  0  0  0  0  0  0  0
    4.5672   -7.4044    0.0000 C   0  0  2  0  0  0  0  0  0  0  0  0
    4.5672   -6.5794    0.0000 C   0  0  1  0  0  0  0  0  0  0  0  0
    3.8527   -6.1669    0.0000 O   0  0  0  0  0  0  0  0  0  0  0  0
    5.2817   -6.1669    0.0000 O   0  0  0  0  0  0  0  0  0  0  0  0
    3.8527   -8.6419    0.0000 O   0  0  0  0  0  0  0  0  0  0  0  0
    2.4238   -6.1669    0.0000 C   0  0  0  0  0  0  0  0  0  0  0  0
    1.7093   -6.5794    0.0000 O   0  0  0  0  0  0  0  0  0  0  0  0
    5.2817   -7.8169    0.0000 O   0  0  0  0  0  0  0  0  0  0  0  0
    2.4238   -7.8169    0.0000 O   0  0  0  0  0  0  0  0  0  0  0  0
    5.9962   -6.5794    0.0000 C   0  0  0  0  0  0  0  0  0  0  0  0
    5.9962   -7.4044    0.0000 C   0  0  1  0  0  0  0  0  0  0  0  0
    6.7106   -7.8169    0.0000 C   0  0  0  0  0  0  0  0  0  0  0  0
    7.4251   -7.4044    0.0000 C   0  0  0  0  0  0  0  0  0  0  0  0
    7.4251   -6.5794    0.0000 C   0  0  0  0  0  0  0  0  0  0  0  0
    6.7106   -6.1669    0.0000 C   0  0  2  0  0  0  0  0  0  0  0  0
    6.7106   -6.9919    0.0000 C   0  0  0  0  0  0  0  0  0  0  0  0
    7.6931   -7.2467    0.0000 C   0  0  0  0  0  0  0  0  0  0  0  0
    5.6869   -6.8815    0.0000 C   0  0  0  0  0  0  0  0  0  0  0  0
    6.7106   -8.6419    0.0000 C   0  0  0  0  0  0  0  0  0  0  0  0
  1  2  1  0  0  0  0
  2  3  1  0  0  0  0
  3  4  1  0  0  0  0
  4  5  1  0  0  0  0
  5  6  1  0  0  0  0
  6  1  1  0  0  0  0
  5  7  1  1  0  0  0
  3  8  1  1  0  0  0
  1  9  1  1  0  0  0
  9 10  1  0  0  0  0
  4 11  1  6  0  0  0
  2 12  1  6  0  0  0
  7 13  1  1  0  0  0
 13 14  1  0  0  0  0
 14 15  1  0  0  0  0
 15 16  2  0  0  0  0
 16 17  1  0  0  0  0
 17 18  1  0  0  0  0
 18 13  1  0  0  0  0
 18 19  1  1  0  0  0
 14 19  1  1  0  0  0
 19 20  1  0  0  0  0
 19 21  1  0  0  0  0
 15 22  1  0  0  0  0
M  END
>  <cdx:fragmentId>
5

$$$$
