90100.cdx
  Mrv1902 05222410242D          

 36 37  0  0  0  0            999 V2000
    5.6768   -6.1864    0.0000 C   0  0  0  0  0  0  0  0  0  0  0  0
    5.6768   -7.0114    0.0000 C   0  0  2  0  0  0  0  0  0  0  0  0
    6.3913   -7.4239    0.0000 C   0  0  1  0  0  0  0  0  0  0  0  0
    7.1057   -7.0114    0.0000 C   0  0  1  0  0  0  0  0  0  0  0  0
    7.1057   -6.1864    0.0000 C   0  0  0  0  0  0  0  0  0  0  0  0
    6.3913   -5.7739    0.0000 C   0  0  2  0  0  0  0  0  0  0  0  0
    6.3913   -8.2489    0.0000 O   0  0  0  0  0  0  0  0  0  0  0  0
    7.8202   -7.4239    0.0000 O   0  0  0  0  0  0  0  0  0  0  0  0
    5.9788   -5.0594    0.0000 O   0  0  0  0  0  0  0  0  0  0  0  0
    4.9623   -7.4239    0.0000 O   0  0  0  0  0  0  0  0  0  0  0  0
    6.8038   -5.0594    0.0000 C   0  0  0  0  0  0  0  0  0  0  0  0
    6.3913   -4.3450    0.0000 O   0  0  0  0  0  0  0  0  0  0  0  0
    7.6288   -5.0594    0.0000 O   0  0  0  0  0  0  0  0  0  0  0  0
    4.2479   -7.0114    0.0000 C   0  0  0  0  0  0  0  0  0  0  0  0
    3.5334   -7.4239    0.0000 C   0  0  0  0  0  0  0  0  0  0  0  0
    4.2479   -6.1864    0.0000 O   0  0  0  0  0  0  0  0  0  0  0  0
    2.8189   -7.0114    0.0000 C   0  0  0  0  0  0  0  0  0  0  0  0
    2.1044   -6.5989    0.0000 C   0  0  0  0  0  0  0  0  0  0  0  0
    3.2314   -6.2969    0.0000 C   0  0  0  0  0  0  0  0  0  0  0  0
    2.4064   -7.7259    0.0000 O   0  0  0  0  0  0  0  0  0  0  0  0
    1.3900   -7.0114    0.0000 C   0  0  0  0  0  0  0  0  0  0  0  0
    0.6755   -6.5989    0.0000 O   0  0  0  0  0  0  0  0  0  0  0  0
    1.3900   -7.8364    0.0000 O   0  0  0  0  0  0  0  0  0  0  0  0
    8.5345   -7.8449    0.0000 C   0  0  0  0  0  0  0  0  0  0  0  0
    8.5345   -8.6699    0.0000 O   0  0  0  0  0  0  0  0  0  0  0  0
    9.2490   -7.4324    0.0000 C   0  0  0  0  0  0  0  0  0  0  0  0
    9.9635   -7.8449    0.0000 C   0  0  0  0  0  0  0  0  0  0  0  0
   10.6780   -7.4324    0.0000 C   0  0  0  0  0  0  0  0  0  0  0  0
   11.3924   -7.8449    0.0000 C   0  0  0  0  0  0  0  0  0  0  0  0
   12.1069   -7.4324    0.0000 C   0  0  0  0  0  0  0  0  0  0  0  0
   12.1069   -6.6074    0.0000 C   0  0  0  0  0  0  0  0  0  0  0  0
   11.3924   -6.1949    0.0000 C   0  0  0  0  0  0  0  0  0  0  0  0
   10.6780   -6.6074    0.0000 C   0  0  0  0  0  0  0  0  0  0  0  0
   12.8214   -6.1949    0.0000 O   0  0  0  0  0  0  0  0  0  0  0  0
   12.8214   -7.8449    0.0000 O   0  0  0  0  0  0  0  0  0  0  0  0
   12.8214   -5.3699    0.0000 C   0  0  0  0  0  0  0  0  0  0  0  0
  1  2  1  0  0  0  0
  2  3  1  0  0  0  0
  3  4  1  0  0  0  0
  4  5  1  0  0  0  0
  5  6  1  0  0  0  0
  6  1  1  0  0  0  0
  3  7  1  1  0  0  0
  4  8  1  1  0  0  0
  6  9  1  1  0  0  0
  2 10  1  6  0  0  0
  6 11  1  0  0  0  0
 11 12  2  0  0  0  0
 11 13  1  0  0  0  0
 10 14  1  0  0  0  0
 14 15  1  0  0  0  0
 14 16  2  0  0  0  0
 15 17  1  0  0  0  0
 17 18  1  0  0  0  0
 17 19  1  0  0  0  0
 17 20  1  0  0  0  0
 18 21  1  0  0  0  0
 21 22  1  0  0  0  0
 21 23  2  0  0  0  0
 24 25  2  0  0  0  0
 24 26  1  0  0  0  0
 26 27  2  0  0  0  0
 27 28  1  0  0  0  0
 28 29  2  0  0  0  0
 29 30  1  0  0  0  0
 30 31  2  0  0  0  0
 31 32  1  0  0  0  0
 32 33  2  0  0  0  0
 33 28  1  0  0  0  0
 31 34  1  0  0  0  0
 30 35  1  0  0  0  0
 24  8  1  0  0  0  0
 34 36  1  0  0  0  0
M  END
>  <cdx:fragmentId>
5

$$$$
