90101.cdx
  Mrv1902 05222410242D          

 23 23  0  0  0  0            999 V2000
    7.6018   -8.3726    0.0000 C   0  0  0  0  0  0  0  0  0  0  0  0
    7.6018   -9.1976    0.0000 C   0  0  2  0  0  0  0  0  0  0  0  0
    8.3163   -9.6101    0.0000 C   0  0  1  0  0  0  0  0  0  0  0  0
    9.0307   -9.1976    0.0000 C   0  0  1  0  0  0  0  0  0  0  0  0
    9.0307   -8.3726    0.0000 C   0  0  0  0  0  0  0  0  0  0  0  0
    8.3163   -7.9601    0.0000 C   0  0  2  0  0  0  0  0  0  0  0  0
    8.3163  -10.4351    0.0000 O   0  0  0  0  0  0  0  0  0  0  0  0
    9.7452   -9.6101    0.0000 O   0  0  0  0  0  0  0  0  0  0  0  0
    7.9038   -7.2457    0.0000 O   0  0  0  0  0  0  0  0  0  0  0  0
    6.8873   -9.6101    0.0000 O   0  0  0  0  0  0  0  0  0  0  0  0
    8.7288   -7.2457    0.0000 C   0  0  0  0  0  0  0  0  0  0  0  0
    8.3163   -6.5312    0.0000 O   0  0  0  0  0  0  0  0  0  0  0  0
    9.5538   -7.2457    0.0000 O   0  0  0  0  0  0  0  0  0  0  0  0
    6.1729   -9.1976    0.0000 C   0  0  0  0  0  0  0  0  0  0  0  0
    5.4584   -9.6101    0.0000 C   0  0  0  0  0  0  0  0  0  0  0  0
    6.1729   -8.3726    0.0000 O   0  0  0  0  0  0  0  0  0  0  0  0
    4.7439   -9.1976    0.0000 C   0  0  0  0  0  0  0  0  0  0  0  0
    4.0294   -8.7851    0.0000 C   0  0  0  0  0  0  0  0  0  0  0  0
    5.1564   -8.4832    0.0000 C   0  0  0  0  0  0  0  0  0  0  0  0
    4.3314   -9.9121    0.0000 O   0  0  0  0  0  0  0  0  0  0  0  0
    3.3150   -9.1976    0.0000 C   0  0  0  0  0  0  0  0  0  0  0  0
    2.6005   -8.7851    0.0000 O   0  0  0  0  0  0  0  0  0  0  0  0
    3.3150  -10.0226    0.0000 O   0  0  0  0  0  0  0  0  0  0  0  0
  1  2  1  0  0  0  0
  2  3  1  0  0  0  0
  3  4  1  0  0  0  0
  4  5  1  0  0  0  0
  5  6  1  0  0  0  0
  6  1  1  0  0  0  0
  3  7  1  1  0  0  0
  4  8  1  1  0  0  0
  6  9  1  1  0  0  0
  2 10  1  6  0  0  0
  6 11  1  0  0  0  0
 11 12  2  0  0  0  0
 11 13  1  0  0  0  0
 10 14  1  0  0  0  0
 14 15  1  0  0  0  0
 14 16  2  0  0  0  0
 15 17  1  0  0  0  0
 17 18  1  0  0  0  0
 17 19  1  0  0  0  0
 17 20  1  0  0  0  0
 18 21  1  0  0  0  0
 21 22  1  0  0  0  0
 21 23  2  0  0  0  0
M  END
>  <cdx:fragmentId>
5

$$$$
