90103.cdx
  Mrv1902 05222410232D          

 35 36  0  0  0  0            999 V2000
    6.3093   -7.1076    0.0000 C   0  0  0  0  0  0  0  0  0  0  0  0
    6.3093   -7.9326    0.0000 C   0  0  2  0  0  0  0  0  0  0  0  0
    7.0238   -8.3451    0.0000 C   0  0  0  0  0  0  0  0  0  0  0  0
    7.7382   -7.9326    0.0000 C   0  0  1  0  0  0  0  0  0  0  0  0
    7.7382   -7.1076    0.0000 C   0  0  0  0  0  0  0  0  0  0  0  0
    7.0238   -6.6951    0.0000 C   0  0  0  0  0  0  0  0  0  0  0  0
    7.0238   -9.1701    0.0000 O   0  0  0  0  0  0  0  0  0  0  0  0
    6.6113   -5.9807    0.0000 O   0  0  0  0  0  0  0  0  0  0  0  0
    5.5948   -8.3451    0.0000 O   0  0  0  0  0  0  0  0  0  0  0  0
    7.4363   -5.9807    0.0000 C   0  0  0  0  0  0  0  0  0  0  0  0
    7.0238   -5.2662    0.0000 O   0  0  0  0  0  0  0  0  0  0  0  0
    8.2613   -5.9807    0.0000 O   0  0  0  0  0  0  0  0  0  0  0  0
    4.8804   -7.9326    0.0000 C   0  0  0  0  0  0  0  0  0  0  0  0
    4.1659   -8.3451    0.0000 C   0  0  0  0  0  0  0  0  0  0  0  0
    4.8804   -7.1076    0.0000 O   0  0  0  0  0  0  0  0  0  0  0  0
    3.4514   -7.9326    0.0000 C   0  0  0  0  0  0  0  0  0  0  0  0
    2.7369   -8.3451    0.0000 C   0  0  0  0  0  0  0  0  0  0  0  0
    2.0225   -7.9326    0.0000 C   0  0  0  0  0  0  0  0  0  0  0  0
    1.3080   -8.3451    0.0000 C   0  0  0  0  0  0  0  0  0  0  0  0
    1.3080   -9.1701    0.0000 C   0  0  0  0  0  0  0  0  0  0  0  0
    2.0225   -9.5826    0.0000 C   0  0  0  0  0  0  0  0  0  0  0  0
    2.7369   -9.1701    0.0000 C   0  0  0  0  0  0  0  0  0  0  0  0
    0.5935   -7.9326    0.0000 O   0  0  0  0  0  0  0  0  0  0  0  0
    0.5935   -9.5826    0.0000 O   0  0  0  0  0  0  0  0  0  0  0  0
   12.0167   -8.8130    0.0000 O   0  0  0  0  0  0  0  0  0  0  0  0
   12.7441   -7.5830    0.0000 O   0  0  0  0  0  0  0  0  0  0  0  0
   12.0254   -7.9880    0.0000 C   0  0  0  0  0  0  0  0  0  0  0  0
   11.0015   -8.6918    0.0000 O   0  0  0  0  0  0  0  0  0  0  0  0
   10.1915   -7.2543    0.0000 C   0  0  0  0  0  0  0  0  0  0  0  0
   11.3152   -7.5681    0.0000 C   0  0  0  0  0  0  0  0  0  0  0  0
   10.5965   -7.9731    0.0000 C   0  0  0  0  0  0  0  0  0  0  0  0
    9.1763   -7.1332    0.0000 O   0  0  0  0  0  0  0  0  0  0  0  0
    9.8777   -8.3781    0.0000 C   0  0  0  0  0  0  0  0  0  0  0  0
    9.1676   -7.9581    0.0000 C   0  0  0  0  0  0  0  0  0  0  0  0
    8.4527   -8.3451    0.0000 O   0  0  0  0  0  0  0  0  0  0  0  0
  1  2  1  0  0  0  0
  2  3  1  0  0  0  0
  3  4  1  0  0  0  0
  4  5  1  0  0  0  0
  5  6  1  0  0  0  0
  6  1  1  0  0  0  0
  3  7  1  0  0  0  0
 34 35  1  0  0  0  0
  4 35  1  1  0  0  0
  6  8  1  0  0  0  0
  2  9  1  6  0  0  0
  6 10  1  0  0  0  0
 10 11  2  0  0  0  0
 10 12  1  0  0  0  0
  9 13  1  0  0  0  0
 13 14  1  0  0  0  0
 13 15  2  0  0  0  0
 14 16  2  0  0  0  0
 16 17  1  0  0  0  0
 17 18  2  0  0  0  0
 18 19  1  0  0  0  0
 19 20  2  0  0  0  0
 20 21  1  0  0  0  0
 21 22  2  0  0  0  0
 22 17  1  0  0  0  0
 19 23  1  0  0  0  0
 20 24  1  0  0  0  0
 27 25  2  0  0  0  0
 27 26  1  0  0  0  0
 30 27  1  0  0  0  0
 31 28  1  0  0  0  0
 31 29  1  0  0  0  0
 31 30  1  0  0  0  0
 33 31  1  0  0  0  0
 34 32  2  0  0  0  0
 34 33  1  0  0  0  0
M  END
>  <cdx:fragmentId>
5

$$$$
