1052.cdx
  Mrv1902 05222410182D          

 31 34  0  0  0  0            999 V2000
    2.8014   -5.6943    0.0000 C   0  0  2  0  0  0  0  0  0  0  0  0
    2.8014   -6.5193    0.0000 C   0  0  2  0  0  0  0  0  0  0  0  0
    3.5159   -6.9318    0.0000 C   0  0  1  0  0  0  0  0  0  0  0  0
    4.2303   -6.5193    0.0000 C   0  0  2  0  0  0  0  0  0  0  0  0
    4.2303   -5.6943    0.0000 C   0  0  1  0  0  0  0  0  0  0  0  0
    3.5159   -5.2818    0.0000 O   0  0  0  0  0  0  0  0  0  0  0  0
    3.5159   -7.7568    0.0000 O   0  0  0  0  0  0  0  0  0  0  0  0
    2.0869   -5.2818    0.0000 C   0  0  0  0  0  0  0  0  0  0  0  0
    4.9448   -5.2818    0.0000 O   0  0  0  0  0  0  0  0  0  0  0  0
    4.9448   -6.9318    0.0000 O   0  0  0  0  0  0  0  0  0  0  0  0
    2.0869   -6.9318    0.0000 O   0  0  0  0  0  0  0  0  0  0  0  0
    1.3725   -5.6943    0.0000 O   0  0  0  0  0  0  0  0  0  0  0  0
    5.6593   -5.6943    0.0000 C   0  0  0  0  0  0  0  0  0  0  0  0
    5.6593   -6.5193    0.0000 C   0  0  0  0  0  0  0  0  0  0  0  0
    6.3738   -6.9318    0.0000 C   0  0  0  0  0  0  0  0  0  0  0  0
    7.0882   -6.5193    0.0000 C   0  0  0  0  0  0  0  0  0  0  0  0
    7.0882   -5.6943    0.0000 C   0  0  0  0  0  0  0  0  0  0  0  0
    6.3738   -5.2818    0.0000 C   0  0  0  0  0  0  0  0  0  0  0  0
    7.8027   -6.9318    0.0000 C   0  0  0  0  0  0  0  0  0  0  0  0
    8.5172   -6.5193    0.0000 C   0  0  2  0  0  0  0  0  0  0  0  0
    8.5172   -5.6943    0.0000 C   0  0  2  0  0  0  0  0  0  0  0  0
    7.8027   -5.2818    0.0000 O   0  0  0  0  0  0  0  0  0  0  0  0
    6.3738   -7.7568    0.0000 O   0  0  0  0  0  0  0  0  0  0  0  0
    9.2316   -6.9318    0.0000 O   0  0  0  0  0  0  0  0  0  0  0  0
    9.2316   -5.2818    0.0000 C   0  0  0  0  0  0  0  0  0  0  0  0
    9.9461   -5.6943    0.0000 C   0  0  0  0  0  0  0  0  0  0  0  0
   10.6606   -5.2818    0.0000 C   0  0  0  0  0  0  0  0  0  0  0  0
   10.6606   -4.4568    0.0000 C   0  0  0  0  0  0  0  0  0  0  0  0
    9.9461   -4.0443    0.0000 C   0  0  0  0  0  0  0  0  0  0  0  0
    9.2316   -4.4568    0.0000 C   0  0  0  0  0  0  0  0  0  0  0  0
   11.3751   -4.0443    0.0000 O   0  0  0  0  0  0  0  0  0  0  0  0
  1  2  1  0  0  0  0
  2  3  1  0  0  0  0
  3  4  1  0  0  0  0
  4  5  1  0  0  0  0
  5  6  1  0  0  0  0
  6  1  1  0  0  0  0
  3  7  1  1  0  0  0
  1  8  1  1  0  0  0
  5  9  1  1  0  0  0
  4 10  1  6  0  0  0
  2 11  1  6  0  0  0
  8 12  1  0  0  0  0
  9 13  1  0  0  0  0
 13 14  2  0  0  0  0
 14 15  1  0  0  0  0
 15 16  2  0  0  0  0
 16 17  1  0  0  0  0
 17 18  2  0  0  0  0
 18 13  1  0  0  0  0
 16 19  1  0  0  0  0
 19 20  1  0  0  0  0
 20 21  1  0  0  0  0
 21 22  1  0  0  0  0
 22 17  1  0  0  0  0
 15 23  1  0  0  0  0
 20 24  1  6  0  0  0
 21 25  1  6  0  0  0
 25 26  2  0  0  0  0
 26 27  1  0  0  0  0
 27 28  2  0  0  0  0
 28 29  1  0  0  0  0
 29 30  2  0  0  0  0
 30 25  1  0  0  0  0
 28 31  1  0  0  0  0
M  END
>  <cdx:fragmentId>
5

$$$$
