90108.cdx
  Mrv1902 05222410212D          

 35 36  0  0  0  0            999 V2000
    5.1543   -6.6951    0.0000 C   0  0  0  0  0  0  0  0  0  0  0  0
    5.1543   -7.5201    0.0000 C   0  0  2  0  0  0  0  0  0  0  0  0
    5.8688   -7.9326    0.0000 C   0  0  1  0  0  0  0  0  0  0  0  0
    6.5832   -7.5201    0.0000 C   0  0  1  0  0  0  0  0  0  0  0  0
    6.5832   -6.6951    0.0000 C   0  0  0  0  0  0  0  0  0  0  0  0
    5.8688   -6.2826    0.0000 C   0  0  2  0  0  0  0  0  0  0  0  0
    5.4563   -5.5682    0.0000 O   0  0  0  0  0  0  0  0  0  0  0  0
    4.4398   -7.9326    0.0000 O   0  0  0  0  0  0  0  0  0  0  0  0
    6.2813   -5.5682    0.0000 C   0  0  0  0  0  0  0  0  0  0  0  0
    5.8688   -4.8537    0.0000 O   0  0  0  0  0  0  0  0  0  0  0  0
    7.1063   -5.5682    0.0000 O   0  0  0  0  0  0  0  0  0  0  0  0
    5.1502   -9.1856    0.0000 C   0  0  0  0  0  0  0  0  0  0  0  0
    5.1480  -10.0106    0.0000 C   0  0  0  0  0  0  0  0  0  0  0  0
    4.4368   -8.7712    0.0000 O   0  0  0  0  0  0  0  0  0  0  0  0
    4.4324  -10.4212    0.0000 C   0  0  0  0  0  0  0  0  0  0  0  0
    4.4302  -11.2462    0.0000 C   0  0  0  0  0  0  0  0  0  0  0  0
    3.7146  -11.6568    0.0000 C   0  0  0  0  0  0  0  0  0  0  0  0
    3.7124  -12.4817    0.0000 C   0  0  0  0  0  0  0  0  0  0  0  0
    4.4258  -12.8962    0.0000 C   0  0  0  0  0  0  0  0  0  0  0  0
    5.1413  -12.4856    0.0000 C   0  0  0  0  0  0  0  0  0  0  0  0
    5.1436  -11.6606    0.0000 C   0  0  0  0  0  0  0  0  0  0  0  0
    2.9968  -12.8923    0.0000 O   0  0  0  0  0  0  0  0  0  0  0  0
    4.4236  -13.7212    0.0000 O   0  0  0  0  0  0  0  0  0  0  0  0
   10.9934   -8.2441    0.0000 O   0  0  0  0  0  0  0  0  0  0  0  0
   11.6483   -6.9741    0.0000 O   0  0  0  0  0  0  0  0  0  0  0  0
   10.9542   -7.4200    0.0000 C   0  0  0  0  0  0  0  0  0  0  0  0
    9.9728   -8.1819    0.0000 O   0  0  0  0  0  0  0  0  0  0  0  0
    9.0810   -6.7937    0.0000 C   0  0  0  0  0  0  0  0  0  0  0  0
   10.2210   -7.0419    0.0000 C   0  0  0  0  0  0  0  0  0  0  0  0
    9.5269   -7.4878    0.0000 C   0  0  0  0  0  0  0  0  0  0  0  0
    8.0604   -6.7315    0.0000 O   0  0  0  0  0  0  0  0  0  0  0  0
    8.8328   -7.9337    0.0000 C   0  0  0  0  0  0  0  0  0  0  0  0
    8.0996   -7.5556    0.0000 C   0  0  0  0  0  0  0  0  0  0  0  0
    7.4076   -7.9824    0.0000 O   0  0  0  0  0  0  0  0  0  0  0  0
    5.8688   -8.7576    0.0000 O   0  0  0  0  0  0  0  0  0  0  0  0
  1  2  1  0  0  0  0
  2  3  1  0  0  0  0
  3  4  1  0  0  0  0
  4  5  1  0  0  0  0
  5  6  1  0  0  0  0
  6  1  1  0  0  0  0
 12 35  1  0  0  0  0
  3 35  1  1  0  0  0
  6  7  1  1  0  0  0
  2  8  1  6  0  0  0
  6  9  1  0  0  0  0
  9 10  2  0  0  0  0
  9 11  1  0  0  0  0
 33 34  1  0  0  0  0
  4 34  1  1  0  0  0
 12 13  1  0  0  0  0
 12 14  2  0  0  0  0
 13 15  2  0  0  0  0
 15 16  1  0  0  0  0
 16 17  2  0  0  0  0
 17 18  1  0  0  0  0
 18 19  2  0  0  0  0
 19 20  1  0  0  0  0
 20 21  2  0  0  0  0
 21 16  1  0  0  0  0
 18 22  1  0  0  0  0
 19 23  1  0  0  0  0
 26 24  2  0  0  0  0
 26 25  1  0  0  0  0
 29 26  1  0  0  0  0
 30 27  1  0  0  0  0
 30 28  1  0  0  0  0
 30 29  1  0  0  0  0
 32 30  1  0  0  0  0
 33 31  2  0  0  0  0
 33 32  1  0  0  0  0
M  END
>  <cdx:fragmentId>
5

$$$$
