901001.cdx
  Mrv1902 05222410252D          

 24 24  0  0  0  0            999 V2000
    6.3800   -5.2525    0.0000 C   0  0  0  0  0  0  0  0  0  0  0  0
    7.0945   -4.8400    0.0000 C   0  0  0  0  0  0  0  0  0  0  0  0
    7.8089   -5.2525    0.0000 C   0  0  0  0  0  0  0  0  0  0  0  0
    6.3800   -6.0775    0.0000 C   0  0  0  0  0  0  0  0  0  0  0  0
    8.5234   -4.8400    0.0000 C   0  0  0  0  0  0  0  0  0  0  0  0
    7.8089   -6.0775    0.0000 C   0  0  0  0  0  0  0  0  0  0  0  0
    8.5784   -6.0775    0.0000 C   0  0  0  0  0  0  0  0  0  0  0  0
    5.6095   -6.0775    0.0000 C   0  0  0  0  0  0  0  0  0  0  0  0
    8.9631   -6.7439    0.0000 C   0  0  2  0  0  0  0  0  0  0  0  0
    8.5784   -7.4103    0.0000 C   0  0  0  0  0  0  0  0  0  0  0  0
    5.2242   -6.7448    0.0000 C   0  0  0  0  0  0  0  0  0  0  0  0
    5.6095   -7.4121    0.0000 C   0  0  0  0  0  0  0  0  0  0  0  0
    6.3242   -7.4194    0.0000 C   0  0  0  0  0  0  0  0  0  0  0  0
    7.7806   -7.4166    0.0000 C   0  0  0  0  0  0  0  0  0  0  0  0
    7.0950   -7.9750    0.0000 C   0  0  0  0  0  0  0  0  0  0  0  0
    7.0950   -8.8000    0.0000 C   0  0  0  0  0  0  0  0  0  0  0  0
    9.7326   -6.7439    0.0000 C   0  0  0  0  0  0  0  0  0  0  0  0
    9.7326   -7.5689    0.0000 C   0  0  0  0  0  0  0  0  0  0  0  0
    9.7326   -5.9189    0.0000 C   0  0  0  0  0  0  0  0  0  0  0  0
   10.5021   -6.7439    0.0000 O   0  0  0  0  0  0  0  0  0  0  0  0
    9.2379   -5.2525    0.0000 O   0  0  0  0  0  0  0  0  0  0  0  0
    8.5234   -4.0150    0.0000 O   0  0  0  0  0  0  0  0  0  0  0  0
    5.2242   -5.4102    0.0000 C   0  0  0  0  0  0  0  0  0  0  0  0
    9.3756   -7.4584    0.0000 H   0  0  0  0  0  0  0  0  0  0  0  0
  1  2  1  0  0  0  0
  2  3  2  0  0  0  0
  1  4  1  0  0  0  0
  3  5  1  0  0  0  0
  3  6  1  0  0  0  0
  6  7  2  0  0  0  0
  4  8  2  0  0  0  0
  7  9  1  0  0  0  0
  9 10  1  0  0  0  0
  8 11  1  0  0  0  0
 11 12  1  0  0  0  0
 12 13  1  0  0  0  0
 10 14  1  0  0  0  0
 13 15  2  0  0  0  0
 15 14  1  0  0  0  0
 15 16  1  0  0  0  0
  9 17  1  0  0  0  0
 17 18  1  0  0  0  0
 17 19  1  0  0  0  0
 17 20  1  0  0  0  0
  5 21  1  0  0  0  0
  5 22  2  0  0  0  0
  8 23  1  0  0  0  0
  9 24  1  6  0  0  0
M  END
>  <cdx:fragmentId>
222

$$$$
