90106.cdx
  Mrv1902 05222410252D          

 36 37  0  0  0  0            999 V2000
    4.9481   -7.3276    0.0000 C   0  0  0  0  0  0  0  0  0  0  0  0
    4.9481   -8.1526    0.0000 C   0  0  2  0  0  0  0  0  0  0  0  0
    5.6625   -8.5651    0.0000 C   0  0  1  0  0  0  0  0  0  0  0  0
    6.3770   -8.1526    0.0000 C   0  0  1  0  0  0  0  0  0  0  0  0
    6.3770   -7.3276    0.0000 C   0  0  0  0  0  0  0  0  0  0  0  0
    5.6625   -6.9151    0.0000 C   0  0  2  0  0  0  0  0  0  0  0  0
    5.6625   -9.3901    0.0000 O   0  0  0  0  0  0  0  0  0  0  0  0
    5.2500   -6.2007    0.0000 O   0  0  0  0  0  0  0  0  0  0  0  0
    4.2336   -8.5651    0.0000 O   0  0  0  0  0  0  0  0  0  0  0  0
    6.0750   -6.2007    0.0000 C   0  0  0  0  0  0  0  0  0  0  0  0
    5.6625   -5.4862    0.0000 O   0  0  0  0  0  0  0  0  0  0  0  0
    6.9000   -6.2007    0.0000 O   0  0  0  0  0  0  0  0  0  0  0  0
    4.9695   -9.8167    0.0000 C   0  0  0  0  0  0  0  0  0  0  0  0
    4.9744  -10.6417    0.0000 C   0  0  0  0  0  0  0  0  0  0  0  0
    4.2526   -9.4085    0.0000 O   0  0  0  0  0  0  0  0  0  0  0  0
    4.2624  -11.0585    0.0000 C   0  0  0  0  0  0  0  0  0  0  0  0
    3.5505  -11.4752    0.0000 C   0  0  0  0  0  0  0  0  0  0  0  0
    3.8457  -10.3465    0.0000 C   0  0  0  0  0  0  0  0  0  0  0  0
    4.6792  -11.7704    0.0000 O   0  0  0  0  0  0  0  0  0  0  0  0
    3.5554  -12.3002    0.0000 C   0  0  0  0  0  0  0  0  0  0  0  0
    2.8434  -12.7170    0.0000 O   0  0  0  0  0  0  0  0  0  0  0  0
    4.2723  -12.7084    0.0000 O   0  0  0  0  0  0  0  0  0  0  0  0
   12.2026   -9.8524    0.0000 O   0  0  0  0  0  0  0  0  0  0  0  0
   12.2026   -8.2024    0.0000 O   0  0  0  0  0  0  0  0  0  0  0  0
   10.0592   -9.4399    0.0000 C   0  0  0  0  0  0  0  0  0  0  0  0
   10.7737   -9.8524    0.0000 C   0  0  0  0  0  0  0  0  0  0  0  0
   11.4882   -9.4399    0.0000 C   0  0  0  0  0  0  0  0  0  0  0  0
   11.4882   -8.6149    0.0000 C   0  0  0  0  0  0  0  0  0  0  0  0
   10.7737   -8.2024    0.0000 C   0  0  0  0  0  0  0  0  0  0  0  0
   10.0592   -8.6149    0.0000 C   0  0  0  0  0  0  0  0  0  0  0  0
    9.3447   -8.2024    0.0000 C   0  0  0  0  0  0  0  0  0  0  0  0
    7.9158   -7.3774    0.0000 O   0  0  0  0  0  0  0  0  0  0  0  0
    8.6303   -8.6149    0.0000 C   0  0  0  0  0  0  0  0  0  0  0  0
    7.9158   -8.2024    0.0000 C   0  0  0  0  0  0  0  0  0  0  0  0
    7.2013   -8.6149    0.0000 O   0  0  0  0  0  0  0  0  0  0  0  0
   12.2026   -7.3774    0.0000 C   0  0  0  0  0  0  0  0  0  0  0  0
  1  2  1  0  0  0  0
  2  3  1  0  0  0  0
  3  4  1  0  0  0  0
  4  5  1  0  0  0  0
  5  6  1  0  0  0  0
  6  1  1  0  0  0  0
  3  7  1  1  0  0  0
  6  8  1  1  0  0  0
  2  9  1  6  0  0  0
  6 10  1  0  0  0  0
 10 11  2  0  0  0  0
 10 12  1  0  0  0  0
 13 14  1  0  0  0  0
 13 15  2  0  0  0  0
 14 16  1  0  0  0  0
 16 17  1  0  0  0  0
 16 18  1  0  0  0  0
 16 19  1  0  0  0  0
 17 20  1  0  0  0  0
 20 21  1  0  0  0  0
 20 22  2  0  0  0  0
 13  7  1  0  0  0  0
 27 23  1  0  0  0  0
 28 24  1  0  0  0  0
 25 30  1  0  0  0  0
 26 25  2  0  0  0  0
 27 26  1  0  0  0  0
 28 27  2  0  0  0  0
 29 28  1  0  0  0  0
 30 29  2  0  0  0  0
 31 30  1  0  0  0  0
 33 31  2  0  0  0  0
 34 32  2  0  0  0  0
 34 33  1  0  0  0  0
 35 34  1  0  0  0  0
  4 35  1  1  0  0  0
 24 36  1  0  0  0  0
M  END
>  <cdx:fragmentId>
5

$$$$
