90116.cdx
  Mrv1902 05222410232D          

 57 59  0  0  0  0            999 V2000
    3.6831   -5.0589    0.0000 C   0  0  2  0  0  0  0  0  0  0  0  0
    3.6831   -5.8839    0.0000 C   0  0  2  0  0  0  0  0  0  0  0  0
    4.3975   -6.2964    0.0000 C   0  0  1  0  0  0  0  0  0  0  0  0
    5.1120   -5.8839    0.0000 C   0  0  2  0  0  0  0  0  0  0  0  0
    5.1120   -5.0589    0.0000 C   0  0  1  0  0  0  0  0  0  0  0  0
    4.3975   -4.6464    0.0000 O   0  0  0  0  0  0  0  0  0  0  0  0
    5.8265   -4.6464    0.0000 O   0  0  0  0  0  0  0  0  0  0  0  0
    6.5415   -5.0314    0.0000 C   0  0  0  0  0  0  0  0  0  0  0  0
    7.2559   -4.6189    0.0000 C   0  0  2  0  0  0  0  0  0  0  0  0
    7.2559   -3.7939    0.0000 C   0  0  1  0  0  0  0  0  0  0  0  0
    6.5415   -3.3814    0.0000 O   0  0  0  0  0  0  0  0  0  0  0  0
    7.9704   -5.0314    0.0000 O   0  0  0  0  0  0  0  0  0  0  0  0
    8.6849   -4.6189    0.0000 C   0  0  2  0  0  0  0  0  0  0  0  0
    8.6849   -3.7939    0.0000 C   0  0  1  0  0  0  0  0  0  0  0  0
    7.9704   -3.3814    0.0000 C   0  0  1  0  0  0  0  0  0  0  0  0
    8.6849   -6.2689    0.0000 O   0  0  0  0  0  0  0  0  0  0  0  0
    9.3994   -5.8564    0.0000 C   0  0  0  0  0  0  0  0  0  0  0  0
    9.3994   -5.0314    0.0000 O   0  0  0  0  0  0  0  0  0  0  0  0
    2.9686   -4.6464    0.0000 C   0  0  0  0  0  0  0  0  0  0  0  0
    2.2541   -5.0589    0.0000 O   0  0  0  0  0  0  0  0  0  0  0  0
   10.1138   -6.2689    0.0000 C   0  0  0  0  0  0  0  0  0  0  0  0
   10.8283   -5.8564    0.0000 C   0  0  0  0  0  0  0  0  0  0  0  0
   10.1138   -7.0939    0.0000 C   0  0  0  0  0  0  0  0  0  0  0  0
   10.8283   -7.5064    0.0000 C   0  0  0  0  0  0  0  0  0  0  0  0
   10.8283   -8.3314    0.0000 C   0  0  0  0  0  0  0  0  0  0  0  0
   11.5428   -8.7439    0.0000 C   0  0  0  0  0  0  0  0  0  0  0  0
   11.5428   -9.5689    0.0000 C   0  0  0  0  0  0  0  0  0  0  0  0
   12.2572   -8.3314    0.0000 C   0  0  0  0  0  0  0  0  0  0  0  0
   10.8283   -9.9814    0.0000 C   0  0  0  0  0  0  0  0  0  0  0  0
   10.8283  -10.8064    0.0000 C   0  0  0  0  0  0  0  0  0  0  0  0
   10.1138  -11.2189    0.0000 C   0  0  0  0  0  0  0  0  0  0  0  0
   10.1138  -12.0439    0.0000 C   0  0  0  0  0  0  0  0  0  0  0  0
    9.3994  -12.4564    0.0000 C   0  0  0  0  0  0  0  0  0  0  0  0
   10.8283  -12.4564    0.0000 C   0  0  0  0  0  0  0  0  0  0  0  0
    9.3994  -13.2814    0.0000 C   0  0  0  0  0  0  0  0  0  0  0  0
    7.9699  -14.9451    0.0000 C   0  0  0  0  0  0  0  0  0  0  0  0
    7.9699  -15.7701    0.0000 O   0  0  0  0  0  0  0  0  0  0  0  0
    7.2554  -14.5326    0.0000 O   0  0  0  0  0  0  0  0  0  0  0  0
    7.2554  -16.1826    0.0000 C   0  0  2  0  0  0  0  0  0  0  0  0
    6.5409  -15.7701    0.0000 O   0  0  0  0  0  0  0  0  0  0  0  0
    5.8265  -16.1826    0.0000 C   0  0  1  0  0  0  0  0  0  0  0  0
    5.8265  -17.0076    0.0000 C   0  0  2  0  0  0  0  0  0  0  0  0
    6.5409  -17.4201    0.0000 C   0  0  1  0  0  0  0  0  0  0  0  0
    7.2554  -17.0076    0.0000 C   0  0  1  0  0  0  0  0  0  0  0  0
    5.1120  -15.7701    0.0000 C   0  0  0  0  0  0  0  0  0  0  0  0
    4.3975  -16.1826    0.0000 O   0  0  0  0  0  0  0  0  0  0  0  0
    5.1120  -17.4201    0.0000 O   0  0  0  0  0  0  0  0  0  0  0  0
    8.6849  -13.6939    0.0000 C   0  0  0  0  0  0  0  0  0  0  0  0
    8.6849  -14.5189    0.0000 C   0  0  0  0  0  0  0  0  0  0  0  0
    9.3994  -14.9314    0.0000 C   0  0  0  0  0  0  0  0  0  0  0  0
    4.3975   -7.1214    0.0000 O   0  0  0  0  0  0  0  0  0  0  0  0
    9.3994   -3.3814    0.0000 O   0  0  0  0  0  0  0  0  0  0  0  0
    6.5409  -18.2451    0.0000 O   0  0  0  0  0  0  0  0  0  0  0  0
    7.9699  -17.4201    0.0000 O   0  0  0  0  0  0  0  0  0  0  0  0
    2.9686   -6.2964    0.0000 O   0  0  0  0  0  0  0  0  0  0  0  0
    5.8265   -6.2964    0.0000 O   0  0  0  0  0  0  0  0  0  0  0  0
    7.9704   -2.5564    0.0000 O   0  0  0  0  0  0  0  0  0  0  0  0
  1  2  1  0  0  0  0
  2  3  1  0  0  0  0
  3  4  1  0  0  0  0
  4  5  1  0  0  0  0
  5  6  1  0  0  0  0
  6  1  1  0  0  0  0
  5  7  1  1  0  0  0
  9  8  1  6  0  0  0
  9 10  1  0  0  0  0
 10 11  1  1  0  0  0
  9 12  1  0  0  0  0
 12 13  1  0  0  0  0
 13 14  1  0  0  0  0
 14 15  1  0  0  0  0
 15 10  1  0  0  0  0
 16 17  2  0  0  0  0
 17 18  1  0  0  0  0
 13 18  1  6  0  0  0
  1 19  1  1  0  0  0
 19 20  1  0  0  0  0
 17 21  1  0  0  0  0
 21 22  1  0  0  0  0
 21 23  2  0  0  0  0
 23 24  1  0  0  0  0
 24 25  2  0  0  0  0
 25 26  1  0  0  0  0
 26 27  2  0  0  0  0
 26 28  1  0  0  0  0
 27 29  1  0  0  0  0
 29 30  2  0  0  0  0
 30 31  1  0  0  0  0
 31 32  2  0  0  0  0
 32 33  1  0  0  0  0
 32 34  1  0  0  0  0
 33 35  2  0  0  0  0
 36 37  1  0  0  0  0
 36 38  2  0  0  0  0
 39 37  1  1  0  0  0
 39 40  1  0  0  0  0
 40 41  1  0  0  0  0
 41 42  1  0  0  0  0
 42 43  1  0  0  0  0
 43 44  1  0  0  0  0
 44 39  1  0  0  0  0
 41 45  1  1  0  0  0
 45 46  1  0  0  0  0
 42 47  1  6  0  0  0
 35 48  1  0  0  0  0
 48 49  2  0  0  0  0
 49 50  1  0  0  0  0
 49 36  1  0  0  0  0
  3 51  1  1  0  0  0
 14 52  1  1  0  0  0
 43 53  1  1  0  0  0
 44 54  1  6  0  0  0
  2 55  1  6  0  0  0
  4 56  1  6  0  0  0
 15 57  1  6  0  0  0
  7  8  1  0  0  0  0
M  END
>  <cdx:fragmentId>
285

$$$$
