901146.cdx
  Mrv1902 05222410212D          

 28 30  0  0  0  0            999 V2000
    6.2686   -5.6166    0.0000 C   0  0  0  0  0  0  0  0  0  0  0  0
    5.5617   -6.0421    0.0000 C   0  0  0  0  0  0  0  0  0  0  0  0
    6.2536   -4.7918    0.0000 O   0  0  0  0  0  0  0  0  0  0  0  0
    2.7267   -6.9058    0.0000 C   0  0  0  0  0  0  0  0  0  0  0  0
    3.4412   -7.3183    0.0000 C   0  0  0  0  0  0  0  0  0  0  0  0
    4.1480   -6.8929    0.0000 C   0  0  0  0  0  0  0  0  0  0  0  0
    4.8849   -8.1172    0.0000 O   0  0  0  0  0  0  0  0  0  0  0  0
    4.8699   -7.2923    0.0000 C   0  0  0  0  0  0  0  0  0  0  0  0
    5.9011   -8.8057    0.0000 C   0  0  0  0  0  0  0  0  0  0  0  0
    9.1110   -4.7398    0.0000 O   0  0  0  0  0  0  0  0  0  0  0  0
    6.9904   -6.0161    0.0000 O   0  0  0  0  0  0  0  0  0  0  0  0
    5.5767   -6.8669    0.0000 O   0  0  0  0  0  0  0  0  0  0  0  0
    5.4886   -8.0912    0.0000 C   0  0  0  0  0  0  0  0  0  0  0  0
    7.0054   -6.8410    0.0000 C   0  0  2  0  0  0  0  0  0  0  0  0
    6.2986   -7.2664    0.0000 C   0  0  1  0  0  0  0  0  0  0  0  0
    6.3136   -8.0912    0.0000 C   0  0  0  0  0  0  0  0  0  0  0  0
    7.0354   -8.4907    0.0000 O   0  0  0  0  0  0  0  0  0  0  0  0
    9.8629   -6.7890    0.0000 C   0  0  0  0  0  0  0  0  0  0  0  0
    9.8479   -5.9642    0.0000 C   0  0  0  0  0  0  0  0  0  0  0  0
    9.1260   -5.5647    0.0000 C   0  0  0  0  0  0  0  0  0  0  0  0
    8.4192   -5.9901    0.0000 O   0  0  0  0  0  0  0  0  0  0  0  0
    9.1710   -8.0393    0.0000 C   0  0  0  0  0  0  0  0  0  0  0  0
    9.1560   -7.2144    0.0000 C   0  0  0  0  0  0  0  0  0  0  0  0
    8.4341   -6.8150    0.0000 C   0  0  0  0  0  0  0  0  0  0  0  0
    7.7273   -7.2404    0.0000 C   0  0  0  0  0  0  0  0  0  0  0  0
    7.7423   -8.0653    0.0000 C   0  0  0  0  0  0  0  0  0  0  0  0
    8.4641   -8.4647    0.0000 C   0  0  0  0  0  0  0  0  0  0  0  0
    3.4487   -8.1433    0.0000 C   0  0  0  0  0  0  0  0  0  0  0  0
  1  2  1  0  0  0  0
 11  1  1  0  0  0  0
  1  3  2  0  0  0  0
  5  4  1  0  0  0  0
  6  5  1  0  0  0  0
  8  6  1  0  0  0  0
  8  7  2  0  0  0  0
 12  8  1  0  0  0  0
 16  9  1  0  0  0  0
 20 10  2  0  0  0  0
 14 11  1  1  0  0  0
 15 12  1  1  0  0  0
 16 13  1  0  0  0  0
 14 25  1  0  0  0  0
 15 14  1  0  0  0  0
 16 15  1  0  0  0  0
 17 16  1  0  0  0  0
 26 17  1  0  0  0  0
 18 23  1  0  0  0  0
 19 18  2  0  0  0  0
 20 19  1  0  0  0  0
 21 20  1  0  0  0  0
 24 21  1  0  0  0  0
 22 27  2  0  0  0  0
 23 22  1  0  0  0  0
 24 23  2  0  0  0  0
 25 24  1  0  0  0  0
 26 25  2  0  0  0  0
 27 26  1  0  0  0  0
  5 28  1  0  0  0  0
M  END
>  <cdx:fragmentId>
5

$$$$
