901136.cdx
  Mrv1902 05222410202D          

 32 35  0  0  0  0            999 V2000
    6.0662   -6.8332    0.0000 O   0  0  0  0  0  0  0  0  0  0  0  0
    3.9391   -7.2660    0.0000 C   0  0  2  0  0  0  0  0  0  0  0  0
    3.9439   -8.0910    0.0000 C   0  0  2  0  0  0  0  0  0  0  0  0
    4.6608   -8.4993    0.0000 C   0  0  1  0  0  0  0  0  0  0  0  0
    5.3728   -8.0827    0.0000 C   0  0  2  0  0  0  0  0  0  0  0  0
    5.3680   -7.2577    0.0000 C   0  0  1  0  0  0  0  0  0  0  0  0
    4.6512   -6.8494    0.0000 O   0  0  0  0  0  0  0  0  0  0  0  0
    3.2222   -6.8577    0.0000 C   0  0  0  0  0  0  0  0  0  0  0  0
    4.6656   -9.3243    0.0000 O   0  0  0  0  0  0  0  0  0  0  0  0
    6.0897   -8.4910    0.0000 O   0  0  0  0  0  0  0  0  0  0  0  0
    3.2319   -8.5077    0.0000 O   0  0  0  0  0  0  0  0  0  0  0  0
    2.5102   -7.2744    0.0000 O   0  0  0  0  0  0  0  0  0  0  0  0
   11.0068   -4.7568    0.0000 O   0  0  0  0  0  0  0  0  0  0  0  0
   10.3582   -8.4696    0.0000 O   0  0  0  0  0  0  0  0  0  0  0  0
    7.5030   -9.3037    0.0000 O   0  0  0  0  0  0  0  0  0  0  0  0
   12.4925   -5.5753    0.0000 O   0  0  0  0  0  0  0  0  0  0  0  0
   10.3504   -5.9946    0.0000 C   0  0  0  0  0  0  0  0  0  0  0  0
   11.0635   -5.5798    0.0000 C   0  0  0  0  0  0  0  0  0  0  0  0
   11.7793   -5.9900    0.0000 C   0  0  0  0  0  0  0  0  0  0  0  0
   11.7819   -6.8150    0.0000 C   0  0  0  0  0  0  0  0  0  0  0  0
   11.0688   -7.2298    0.0000 C   0  0  0  0  0  0  0  0  0  0  0  0
   10.3530   -6.8196    0.0000 C   0  0  0  0  0  0  0  0  0  0  0  0
    8.9241   -6.8241    0.0000 O   0  0  0  0  0  0  0  0  0  0  0  0
    9.6398   -7.2343    0.0000 C   0  0  2  0  0  0  0  0  0  0  0  0
    9.6425   -8.0593    0.0000 C   0  0  1  0  0  0  0  0  0  0  0  0
    8.9293   -8.4741    0.0000 C   0  0  0  0  0  0  0  0  0  0  0  0
    7.4951   -6.8287    0.0000 C   0  0  0  0  0  0  0  0  0  0  0  0
    8.2109   -7.2389    0.0000 C   0  0  0  0  0  0  0  0  0  0  0  0
    8.2135   -8.0639    0.0000 C   0  0  0  0  0  0  0  0  0  0  0  0
    7.5004   -8.4787    0.0000 C   0  0  0  0  0  0  0  0  0  0  0  0
    6.7846   -8.0684    0.0000 C   0  0  0  0  0  0  0  0  0  0  0  0
    6.7820   -7.2434    0.0000 C   0  0  0  0  0  0  0  0  0  0  0  0
  2  3  1  0  0  0  0
  3  4  1  0  0  0  0
  4  5  1  0  0  0  0
  5  6  1  0  0  0  0
  6  7  1  0  0  0  0
  7  2  1  0  0  0  0
  2  8  1  1  0  0  0
  4  9  1  1  0  0  0
  5 10  1  6  0  0  0
  3 11  1  6  0  0  0
  8 12  1  0  0  0  0
 18 13  1  0  0  0  0
 25 14  1  6  0  0  0
 30 15  1  0  0  0  0
 32  1  1  0  0  0  0
  6  1  1  1  0  0  0
 19 16  1  0  0  0  0
 17 22  1  0  0  0  0
 18 17  2  0  0  0  0
 19 18  1  0  0  0  0
 20 19  2  0  0  0  0
 21 20  1  0  0  0  0
 22 21  2  0  0  0  0
 24 22  1  1  0  0  0
 23 28  1  0  0  0  0
 24 23  1  0  0  0  0
 25 24  1  0  0  0  0
 26 25  1  0  0  0  0
 29 26  1  0  0  0  0
 27 32  1  0  0  0  0
 28 27  2  0  0  0  0
 29 28  1  0  0  0  0
 30 29  2  0  0  0  0
 31 30  1  0  0  0  0
 32 31  2  0  0  0  0
M  END
>  <cdx:fragmentId>
5

$$$$
