901130.cdx
  Mrv1902 05222410182D          

 31 33  0  0  0  0            999 V2000
    8.3152   -4.6475    0.0000 C   0  0  0  0  0  0  0  0  0  0  0  0
    8.3152   -5.4725    0.0000 C   0  0  0  0  0  0  0  0  0  0  0  0
    7.6007   -5.8850    0.0000 C   0  0  0  0  0  0  0  0  0  0  0  0
    6.8862   -5.4725    0.0000 C   0  0  0  0  0  0  0  0  0  0  0  0
    6.8862   -4.6475    0.0000 C   0  0  0  0  0  0  0  0  0  0  0  0
    7.6007   -4.2350    0.0000 C   0  0  0  0  0  0  0  0  0  0  0  0
    7.6007   -3.4100    0.0000 O   0  0  0  0  0  0  0  0  0  0  0  0
    6.1717   -4.2350    0.0000 O   0  0  0  0  0  0  0  0  0  0  0  0
    9.0296   -5.8850    0.0000 O   0  0  0  0  0  0  0  0  0  0  0  0
    7.6007   -6.7100    0.0000 C   0  0  1  0  0  0  0  0  0  0  0  0
    8.2681   -7.1949    0.0000 C   0  0  1  0  0  0  0  0  0  0  0  0
    8.0132   -7.9795    0.0000 O   0  0  0  0  0  0  0  0  0  0  0  0
    7.1882   -7.9795    0.0000 C   0  0  2  0  0  0  0  0  0  0  0  0
    6.9332   -7.1949    0.0000 C   0  0  1  0  0  0  0  0  0  0  0  0
    6.1364   -6.9814    0.0000 C   0  0  0  0  0  0  0  0  0  0  0  0
    6.7757   -8.6940    0.0000 C   0  0  0  0  0  0  0  0  0  0  0  0
    9.0650   -6.9814    0.0000 C   0  0  0  0  0  0  0  0  0  0  0  0
    7.1882   -9.4085    0.0000 C   0  0  0  0  0  0  0  0  0  0  0  0
    6.7757  -10.1230    0.0000 C   0  0  0  0  0  0  0  0  0  0  0  0
    5.9507  -10.1230    0.0000 C   0  0  0  0  0  0  0  0  0  0  0  0
    5.5382   -9.4085    0.0000 C   0  0  0  0  0  0  0  0  0  0  0  0
    5.9507   -8.6940    0.0000 C   0  0  0  0  0  0  0  0  0  0  0  0
    4.7132   -9.4085    0.0000 O   0  0  0  0  0  0  0  0  0  0  0  0
    5.5382  -10.8374    0.0000 O   0  0  0  0  0  0  0  0  0  0  0  0
    8.0132   -9.4085    0.0000 O   0  0  0  0  0  0  0  0  0  0  0  0
    6.8862   -2.9975    0.0000 C   0  0  0  0  0  0  0  0  0  0  0  0
    9.7441   -5.4725    0.0000 C   0  0  0  0  0  0  0  0  0  0  0  0
    5.4573   -4.6475    0.0000 C   0  0  0  0  0  0  0  0  0  0  0  0
    8.4257   -8.6940    0.0000 C   0  0  0  0  0  0  0  0  0  0  0  0
    4.3007  -10.1230    0.0000 C   0  0  0  0  0  0  0  0  0  0  0  0
    5.9507  -11.5519    0.0000 C   0  0  0  0  0  0  0  0  0  0  0  0
  1  2  2  0  0  0  0
  2  3  1  0  0  0  0
  3  4  2  0  0  0  0
  4  5  1  0  0  0  0
  5  6  2  0  0  0  0
  6  1  1  0  0  0  0
  6  7  1  0  0  0  0
  5  8  1  0  0  0  0
  2  9  1  0  0  0  0
 10  3  1  1  0  0  0
 10 11  1  0  0  0  0
 11 12  1  0  0  0  0
 12 13  1  0  0  0  0
 13 14  1  0  0  0  0
 14 10  1  0  0  0  0
 14 15  1  1  0  0  0
 13 16  1  1  0  0  0
 11 17  1  6  0  0  0
 16 18  2  0  0  0  0
 18 19  1  0  0  0  0
 19 20  2  0  0  0  0
 20 21  1  0  0  0  0
 21 22  2  0  0  0  0
 22 16  1  0  0  0  0
 21 23  1  0  0  0  0
 20 24  1  0  0  0  0
 18 25  1  0  0  0  0
  7 26  1  0  0  0  0
  9 27  1  0  0  0  0
  8 28  1  0  0  0  0
 25 29  1  0  0  0  0
 23 30  1  0  0  0  0
 24 31  1  0  0  0  0
M  END
>  <cdx:fragmentId>
5

$$$$
