90110.cdx
  Mrv1902 05222410252D          

 36 36  0  0  0  0            999 V2000
    2.3631  -11.7276    0.0000 C   0  0  2  0  0  0  0  0  0  0  0  0
    2.3631  -12.5526    0.0000 C   0  0  1  0  0  0  0  0  0  0  0  0
    3.0775  -12.9651    0.0000 C   0  0  1  0  0  0  0  0  0  0  0  0
    3.7920  -12.5526    0.0000 C   0  0  2  0  0  0  0  0  0  0  0  0
    3.7920  -11.7276    0.0000 C   0  0  1  0  0  0  0  0  0  0  0  0
    3.0775  -11.3151    0.0000 O   0  0  0  0  0  0  0  0  0  0  0  0
    1.6486  -11.3151    0.0000 C   0  0  0  0  0  0  0  0  0  0  0  0
    4.5065  -11.3151    0.0000 O   0  0  0  0  0  0  0  0  0  0  0  0
    1.6486  -12.9651    0.0000 O   0  0  0  0  0  0  0  0  0  0  0  0
    3.0775  -13.7901    0.0000 O   0  0  0  0  0  0  0  0  0  0  0  0
    4.5065  -12.9651    0.0000 O   0  0  0  0  0  0  0  0  0  0  0  0
    0.9341  -11.7276    0.0000 O   0  0  0  0  0  0  0  0  0  0  0  0
    4.5065  -10.4901    0.0000 C   0  0  0  0  0  0  0  0  0  0  0  0
    5.2209  -10.0776    0.0000 C   0  0  1  0  0  0  0  0  0  0  0  0
    5.2209   -9.2526    0.0000 C   0  0  0  0  0  0  0  0  0  0  0  0
    5.9354  -10.4901    0.0000 O   0  0  0  0  0  0  0  0  0  0  0  0
    5.9354   -8.8401    0.0000 O   0  0  0  0  0  0  0  0  0  0  0  0
   13.0960   -8.8401    0.0000 C   0  0  0  0  0  0  0  0  0  0  0  0
   12.3815   -9.2526    0.0000 C   0  0  0  0  0  0  0  0  0  0  0  0
   11.6670   -8.8401    0.0000 C   0  0  0  0  0  0  0  0  0  0  0  0
   10.9526   -9.2526    0.0000 C   0  0  0  0  0  0  0  0  0  0  0  0
   10.2381   -8.8401    0.0000 C   0  0  0  0  0  0  0  0  0  0  0  0
    9.5236   -9.2526    0.0000 C   0  0  0  0  0  0  0  0  0  0  0  0
    8.8092   -8.8401    0.0000 C   0  0  0  0  0  0  0  0  0  0  0  0
    8.0947   -9.2526    0.0000 C   0  0  0  0  0  0  0  0  0  0  0  0
    7.3802   -8.8401    0.0000 C   0  0  0  0  0  0  0  0  0  0  0  0
    6.6657   -9.2526    0.0000 C   0  0  0  0  0  0  0  0  0  0  0  0
    6.6657  -10.0776    0.0000 O   0  0  0  0  0  0  0  0  0  0  0  0
   13.0960   -8.0151    0.0000 C   0  0  0  0  0  0  0  0  0  0  0  0
   13.8105   -7.6026    0.0000 C   0  0  0  0  0  0  0  0  0  0  0  0
   13.8105   -6.7776    0.0000 C   0  0  0  0  0  0  0  0  0  0  0  0
   13.0960   -6.3651    0.0000 C   0  0  0  0  0  0  0  0  0  0  0  0
   13.0960   -5.5401    0.0000 C   0  0  0  0  0  0  0  0  0  0  0  0
   12.3815   -5.1276    0.0000 C   0  0  0  0  0  0  0  0  0  0  0  0
   12.3815   -4.3026    0.0000 C   0  0  0  0  0  0  0  0  0  0  0  0
   11.6670   -3.8901    0.0000 C   0  0  0  0  0  0  0  0  0  0  0  0
  1  2  1  0  0  0  0
  2  3  1  0  0  0  0
  3  4  1  0  0  0  0
  4  5  1  0  0  0  0
  5  6  1  0  0  0  0
  6  1  1  0  0  0  0
  1  7  1  1  0  0  0
  5  8  1  1  0  0  0
  2  9  1  1  0  0  0
  3 10  1  1  0  0  0
  4 11  1  6  0  0  0
  7 12  1  0  0  0  0
  8 13  1  0  0  0  0
 13 14  1  0  0  0  0
 14 15  1  0  0  0  0
 14 16  1  1  0  0  0
 15 17  1  0  0  0  0
 19 18  2  0  0  0  0
 20 19  1  0  0  0  0
 21 20  1  0  0  0  0
 22 21  1  0  0  0  0
 23 22  1  0  0  0  0
 24 23  1  0  0  0  0
 25 24  1  0  0  0  0
 26 25  1  0  0  0  0
 27 26  1  0  0  0  0
 27 28  2  0  0  0  0
 18 29  1  0  0  0  0
 29 30  1  0  0  0  0
 30 31  2  0  0  0  0
 31 32  1  0  0  0  0
 32 33  1  0  0  0  0
 33 34  1  0  0  0  0
 34 35  1  0  0  0  0
 35 36  1  0  0  0  0
 27 17  1  0  0  0  0
M  END
>  <cdx:fragmentId>
44

$$$$
