90123.cdx
  Mrv1902 05222410202D          

 38 40  0  0  0  0            999 V2000
    7.2324  -11.5319    0.0000 C   0  0  1  0  0  0  0  0  0  0  0  0
    7.9469  -11.9444    0.0000 C   0  0  1  0  0  0  0  0  0  0  0  0
    8.6613  -11.5319    0.0000 C   0  0  2  0  0  0  0  0  0  0  0  0
    8.6613  -10.7069    0.0000 C   0  0  1  0  0  0  0  0  0  0  0  0
    7.9469  -10.2944    0.0000 O   0  0  0  0  0  0  0  0  0  0  0  0
    7.2324  -10.7069    0.0000 C   0  0  2  0  0  0  0  0  0  0  0  0
    9.3758  -11.9444    0.0000 O   0  0  0  0  0  0  0  0  0  0  0  0
    9.3758  -10.2944    0.0000 O   0  0  0  0  0  0  0  0  0  0  0  0
   10.8048   -9.4694    0.0000 C   0  0  0  0  0  0  0  0  0  0  0  0
   10.0903   -9.0569    0.0000 C   0  0  0  0  0  0  0  0  0  0  0  0
    9.3758   -9.4694    0.0000 C   0  0  0  0  0  0  0  0  0  0  0  0
   11.5192   -9.0569    0.0000 C   0  0  0  0  0  0  0  0  0  0  0  0
   11.5192   -8.2319    0.0000 C   0  0  0  0  0  0  0  0  0  0  0  0
   10.8048   -7.8194    0.0000 C   0  0  0  0  0  0  0  0  0  0  0  0
   10.0903   -8.2319    0.0000 C   0  0  0  0  0  0  0  0  0  0  0  0
    6.5179  -11.9444    0.0000 O   0  0  0  0  0  0  0  0  0  0  0  0
    6.5179  -10.2944    0.0000 C   0  0  0  0  0  0  0  0  0  0  0  0
    7.9469  -12.7694    0.0000 O   0  0  0  0  0  0  0  0  0  0  0  0
    5.8035  -10.7069    0.0000 O   0  0  0  0  0  0  0  0  0  0  0  0
    5.0890  -10.2944    0.0000 C   0  0  0  0  0  0  0  0  0  0  0  0
    4.3745  -10.7069    0.0000 O   0  0  0  0  0  0  0  0  0  0  0  0
    5.0890   -9.4694    0.0000 C   0  0  0  0  0  0  0  0  0  0  0  0
    4.3745   -9.0569    0.0000 C   0  0  0  0  0  0  0  0  0  0  0  0
    4.3745   -8.2319    0.0000 C   0  0  0  0  0  0  0  0  0  0  0  0
    5.0890   -7.8194    0.0000 C   0  0  0  0  0  0  0  0  0  0  0  0
    5.0890   -6.9944    0.0000 C   0  0  0  0  0  0  0  0  0  0  0  0
    4.3745   -6.5819    0.0000 C   0  0  0  0  0  0  0  0  0  0  0  0
    3.6600   -6.9944    0.0000 C   0  0  0  0  0  0  0  0  0  0  0  0
    3.6600   -7.8194    0.0000 C   0  0  0  0  0  0  0  0  0  0  0  0
    2.9456   -6.5819    0.0000 O   0  0  0  0  0  0  0  0  0  0  0  0
    2.2311   -6.9944    0.0000 C   0  0  0  0  0  0  0  0  0  0  0  0
    4.3745   -5.7569    0.0000 O   0  0  0  0  0  0  0  0  0  0  0  0
    5.8035   -6.5819    0.0000 O   0  0  0  0  0  0  0  0  0  0  0  0
    6.5179   -6.9944    0.0000 C   0  0  0  0  0  0  0  0  0  0  0  0
   12.2337   -9.4694    0.0000 O   0  0  0  0  0  0  0  0  0  0  0  0
    9.3758   -7.8194    0.0000 C   0  0  0  0  0  0  0  0  0  0  0  0
   10.3923   -7.1049    0.0000 C   0  0  0  0  0  0  0  0  0  0  0  0
   11.3881   -7.2360    0.0000 C   0  0  0  0  0  0  0  0  0  0  0  0
  1  2  1  0  0  0  0
  2  3  1  0  0  0  0
  3  4  1  0  0  0  0
  4  5  1  0  0  0  0
  5  6  1  0  0  0  0
  6  1  1  0  0  0  0
  3  7  1  6  0  0  0
  4  8  1  1  0  0  0
  9 10  2  0  0  0  0
 10 11  1  0  0  0  0
 11  8  1  0  0  0  0
  9 12  1  0  0  0  0
 12 13  1  0  0  0  0
 13 14  1  0  0  0  0
 14 15  1  0  0  0  0
 15 10  1  0  0  0  0
  1 16  1  6  0  0  0
  6 17  1  1  0  0  0
  2 18  1  1  0  0  0
 17 19  1  0  0  0  0
 19 20  1  0  0  0  0
 20 21  2  0  0  0  0
 20 22  1  0  0  0  0
 22 23  2  0  0  0  0
 23 24  1  0  0  0  0
 24 25  2  0  0  0  0
 25 26  1  0  0  0  0
 26 27  2  0  0  0  0
 27 28  1  0  0  0  0
 28 29  2  0  0  0  0
 29 24  1  0  0  0  0
 28 30  1  0  0  0  0
 30 31  1  0  0  0  0
 27 32  1  0  0  0  0
 26 33  1  0  0  0  0
 33 34  1  0  0  0  0
 12 35  2  0  0  0  0
 15 36  2  0  0  0  0
 14 37  1  0  0  0  0
 14 38  1  0  0  0  0
M  END
>  <cdx:fragmentId>
5

$$$$
