90124.cdx
  Mrv1902 05222410222D          

 39 41  0  0  0  0            999 V2000
    4.4800  -12.8832    0.0000 C   0  0  0  0  0  0  0  0  0  0  0  0
    4.0675  -13.5976    0.0000 C   0  0  0  0  0  0  0  0  0  0  0  0
    4.4800  -14.3121    0.0000 C   0  0  0  0  0  0  0  0  0  0  0  0
    5.3050  -14.3121    0.0000 C   0  0  0  0  0  0  0  0  0  0  0  0
    5.7175  -13.5976    0.0000 C   0  0  0  0  0  0  0  0  0  0  0  0
    5.3050  -12.8832    0.0000 C   0  0  0  0  0  0  0  0  0  0  0  0
    3.2425  -13.5976    0.0000 O   0  0  0  0  0  0  0  0  0  0  0  0
    4.0675  -15.0266    0.0000 O   0  0  0  0  0  0  0  0  0  0  0  0
    5.7175  -15.0266    0.0000 O   0  0  0  0  0  0  0  0  0  0  0  0
    5.7175  -12.1687    0.0000 C   0  0  0  0  0  0  0  0  0  0  0  0
    5.3050  -11.4542    0.0000 C   0  0  0  0  0  0  0  0  0  0  0  0
    5.7175  -10.7398    0.0000 C   0  0  0  0  0  0  0  0  0  0  0  0
    5.3050  -10.0253    0.0000 O   0  0  0  0  0  0  0  0  0  0  0  0
    6.5425  -10.7398    0.0000 O   0  0  0  0  0  0  0  0  0  0  0  0
    6.9550  -10.0242    0.0000 C   0  0  0  0  0  0  0  0  0  0  0  0
    7.7800  -10.0242    0.0000 C   0  0  2  0  0  0  0  0  0  0  0  0
    8.1925  -10.7387    0.0000 C   0  0  2  0  0  0  0  0  0  0  0  0
    9.0175  -10.7387    0.0000 C   0  0  1  0  0  0  0  0  0  0  0  0
    9.4300  -10.0242    0.0000 C   0  0  2  0  0  0  0  0  0  0  0  0
    9.0175   -9.3098    0.0000 C   0  0  1  0  0  0  0  0  0  0  0  0
    8.1925   -9.3098    0.0000 O   0  0  0  0  0  0  0  0  0  0  0  0
    9.4300   -8.5953    0.0000 O   0  0  0  0  0  0  0  0  0  0  0  0
    9.4300  -11.4532    0.0000 O   0  0  0  0  0  0  0  0  0  0  0  0
    7.7800  -11.4532    0.0000 O   0  0  0  0  0  0  0  0  0  0  0  0
   10.2550  -10.0242    0.0000 O   0  0  0  0  0  0  0  0  0  0  0  0
    9.4300   -7.7703    0.0000 C   0  0  1  0  0  0  0  0  0  0  0  0
   10.1445   -7.3578    0.0000 C   0  0  0  0  0  0  0  0  0  0  0  0
   10.1445   -6.5328    0.0000 C   0  0  0  0  0  0  0  0  0  0  0  0
    9.4300   -6.1203    0.0000 C   0  0  0  0  0  0  0  0  0  0  0  0
    8.7156   -6.5328    0.0000 C   0  0  0  0  0  0  0  0  0  0  0  0
    8.7156   -7.3578    0.0000 C   0  0  0  0  0  0  0  0  0  0  0  0
    8.0011   -6.1203    0.0000 C   0  0  0  0  0  0  0  0  0  0  0  0
   10.5570   -5.8183    0.0000 C   0  0  0  0  0  0  0  0  0  0  0  0
   10.9414   -6.7463    0.0000 C   0  0  0  0  0  0  0  0  0  0  0  0
    9.4300   -5.2953    0.0000 C   0  0  0  0  0  0  0  0  0  0  0  0
    8.7156   -4.8828    0.0000 O   0  0  0  0  0  0  0  0  0  0  0  0
   10.1445   -4.8828    0.0000 O   0  0  0  0  0  0  0  0  0  0  0  0
    2.8300  -14.3121    0.0000 C   0  0  0  0  0  0  0  0  0  0  0  0
    5.3050  -15.7411    0.0000 C   0  0  0  0  0  0  0  0  0  0  0  0
  1  2  2  0  0  0  0
  2  3  1  0  0  0  0
  3  4  2  0  0  0  0
  4  5  1  0  0  0  0
  5  6  2  0  0  0  0
  6  1  1  0  0  0  0
  2  7  1  0  0  0  0
  3  8  1  0  0  0  0
  4  9  1  0  0  0  0
  6 10  1  0  0  0  0
 10 11  2  0  0  0  0
 11 12  1  0  0  0  0
 12 13  2  0  0  0  0
 12 14  1  0  0  0  0
 16 15  1  1  0  0  0
 16 17  1  0  0  0  0
 17 18  1  0  0  0  0
 18 19  1  0  0  0  0
 19 20  1  0  0  0  0
 20 21  1  0  0  0  0
 21 16  1  0  0  0  0
 20 22  1  1  0  0  0
 18 23  1  1  0  0  0
 17 24  1  6  0  0  0
 19 25  1  6  0  0  0
 26 22  1  6  0  0  0
 26 27  1  0  0  0  0
 27 28  1  0  0  0  0
 28 29  1  0  0  0  0
 29 30  2  0  0  0  0
 30 31  1  0  0  0  0
 31 26  1  0  0  0  0
 30 32  1  0  0  0  0
 28 33  1  0  0  0  0
 28 34  1  0  0  0  0
 29 35  1  0  0  0  0
 35 36  1  0  0  0  0
 35 37  2  0  0  0  0
  7 38  1  0  0  0  0
  9 39  1  0  0  0  0
 14 15  1  0  0  0  0
M  END
>  <cdx:fragmentId>
5

$$$$
