90126.cdx
  Mrv1902 05222410232D          

 51 55  0  0  0  0            999 V2000
    1.0018   -8.3314    0.0000 C   0  0  0  0  0  0  0  0  0  0  0  0
    1.0018   -9.1564    0.0000 C   0  0  0  0  0  0  0  0  0  0  0  0
    1.7163   -9.5689    0.0000 O   0  0  0  0  0  0  0  0  0  0  0  0
    2.4307   -9.1564    0.0000 C   0  0  0  0  0  0  0  0  0  0  0  0
    2.4307   -8.3314    0.0000 C   0  0  0  0  0  0  0  0  0  0  0  0
    1.7163   -7.9189    0.0000 C   0  0  0  0  0  0  0  0  0  0  0  0
    3.1452   -9.5689    0.0000 C   0  0  0  0  0  0  0  0  0  0  0  0
    3.8597   -9.1564    0.0000 C   0  0  0  0  0  0  0  0  0  0  0  0
    3.8597   -8.3314    0.0000 C   0  0  0  0  0  0  0  0  0  0  0  0
    3.1452   -7.9189    0.0000 C   0  0  0  0  0  0  0  0  0  0  0  0
    4.5742   -9.5689    0.0000 O   0  0  0  0  0  0  0  0  0  0  0  0
    5.2886   -9.1564    0.0000 C   0  0  2  0  0  0  0  0  0  0  0  0
    5.2886   -8.3314    0.0000 C   0  0  1  0  0  0  0  0  0  0  0  0
    4.5742   -7.9189    0.0000 O   0  0  0  0  0  0  0  0  0  0  0  0
    6.0031   -9.5689    0.0000 C   0  0  1  0  0  0  0  0  0  0  0  0
    6.7176   -9.1564    0.0000 C   0  0  2  0  0  0  0  0  0  0  0  0
    6.7176   -8.3314    0.0000 C   0  0  1  0  0  0  0  0  0  0  0  0
    6.0031   -7.9189    0.0000 O   0  0  0  0  0  0  0  0  0  0  0  0
    6.0031  -10.3939    0.0000 O   0  0  0  0  0  0  0  0  0  0  0  0
    7.4320   -7.9189    0.0000 C   0  0  0  0  0  0  0  0  0  0  0  0
    8.1465   -8.3314    0.0000 O   0  0  0  0  0  0  0  0  0  0  0  0
    0.2873   -9.5689    0.0000 O   0  0  0  0  0  0  0  0  0  0  0  0
    7.4320   -9.5689    0.0000 O   0  0  0  0  0  0  0  0  0  0  0  0
    5.0751   -9.9533    0.0000 O   0  0  0  0  0  0  0  0  0  0  0  0
    8.8610   -7.9189    0.0000 C   0  0  0  0  0  0  0  0  0  0  0  0
    9.5755   -8.3314    0.0000 C   0  0  0  0  0  0  0  0  0  0  0  0
   10.2899   -7.9189    0.0000 C   0  0  0  0  0  0  0  0  0  0  0  0
   11.0044   -8.3314    0.0000 C   0  0  0  0  0  0  0  0  0  0  0  0
   11.7189   -7.9189    0.0000 C   0  0  1  0  0  0  0  0  0  0  0  0
   11.7189   -7.0939    0.0000 O   0  0  0  0  0  0  0  0  0  0  0  0
   11.0044   -6.6814    0.0000 C   0  0  0  0  0  0  0  0  0  0  0  0
   10.2899   -7.0939    0.0000 C   0  0  0  0  0  0  0  0  0  0  0  0
   11.0044   -9.1564    0.0000 C   0  0  0  0  0  0  0  0  0  0  0  0
   10.2899   -9.5689    0.0000 C   0  0  0  0  0  0  0  0  0  0  0  0
   12.4333   -8.3314    0.0000 O   0  0  0  0  0  0  0  0  0  0  0  0
    9.5755   -6.6814    0.0000 C   0  0  0  0  0  0  0  0  0  0  0  0
    8.8610   -8.7439    0.0000 O   0  0  0  0  0  0  0  0  0  0  0  0
    8.8610   -7.0939    0.0000 O   0  0  0  0  0  0  0  0  0  0  0  0
    9.5755   -5.8564    0.0000 O   0  0  0  0  0  0  0  0  0  0  0  0
    8.8610   -5.4439    0.0000 C   0  0  0  0  0  0  0  0  0  0  0  0
   11.7341  -10.4008    0.0000 C   0  0  2  0  0  0  0  0  0  0  0  0
   12.4505  -10.8099    0.0000 C   0  0  2  0  0  0  0  0  0  0  0  0
   13.1630  -10.3939    0.0000 C   0  0  1  0  0  0  0  0  0  0  0  0
   13.1590   -9.5689    0.0000 C   0  0  2  0  0  0  0  0  0  0  0  0
   12.4426   -9.1599    0.0000 C   0  0  1  0  0  0  0  0  0  0  0  0
   11.7301   -9.5758    0.0000 O   0  0  0  0  0  0  0  0  0  0  0  0
   11.0216  -10.8167    0.0000 C   0  0  0  0  0  0  0  0  0  0  0  0
   13.8794  -10.8030    0.0000 O   0  0  0  0  0  0  0  0  0  0  0  0
   12.4545  -11.6348    0.0000 O   0  0  0  0  0  0  0  0  0  0  0  0
   13.8715   -9.1530    0.0000 O   0  0  0  0  0  0  0  0  0  0  0  0
   11.0256  -11.6417    0.0000 O   0  0  0  0  0  0  0  0  0  0  0  0
  1  2  1  0  0  0  0
  2  3  1  0  0  0  0
  3  4  1  0  0  0  0
  4  5  2  0  0  0  0
  5  6  1  0  0  0  0
  6  1  2  0  0  0  0
  4  7  1  0  0  0  0
  7  8  2  0  0  0  0
  8  9  1  0  0  0  0
  9 10  2  0  0  0  0
 10  5  1  0  0  0  0
  8 11  1  0  0  0  0
 12 13  1  0  0  0  0
 13 14  1  1  0  0  0
 14  9  1  0  0  0  0
 12 15  1  0  0  0  0
 15 16  1  0  0  0  0
 16 17  1  0  0  0  0
 17 18  1  0  0  0  0
 18 13  1  0  0  0  0
 15 19  1  1  0  0  0
 17 20  1  1  0  0  0
 20 21  1  0  0  0  0
  2 22  2  0  0  0  0
 16 23  1  6  0  0  0
 12 24  1  6  0  0  0
 21 25  1  0  0  0  0
 25 26  1  0  0  0  0
 26 27  1  0  0  0  0
 27 28  1  0  0  0  0
 28 29  1  0  0  0  0
 29 30  1  0  0  0  0
 30 31  1  0  0  0  0
 31 32  2  0  0  0  0
 32 27  1  0  0  0  0
 28 33  2  0  0  0  0
 33 34  1  0  0  0  0
 29 35  1  1  0  0  0
 32 36  1  0  0  0  0
 25 37  2  0  0  0  0
 36 38  2  0  0  0  0
 36 39  1  0  0  0  0
 39 40  1  0  0  0  0
 41 42  1  0  0  0  0
 42 43  1  0  0  0  0
 43 44  1  0  0  0  0
 44 45  1  0  0  0  0
 45 46  1  0  0  0  0
 46 41  1  0  0  0  0
 41 47  1  1  0  0  0
 43 48  1  1  0  0  0
 42 49  1  6  0  0  0
 44 50  1  6  0  0  0
 47 51  1  0  0  0  0
 45 35  1  1  0  0  0
M  END
>  <cdx:fragmentId>
5

$$$$
