90129.cdx
  Mrv1902 05222410242D          

 35 39  0  0  0  0            999 V2000
    3.0643  -10.5314    0.0000 C   0  0  0  0  0  0  0  0  0  0  0  0
    3.0643  -11.3564    0.0000 C   0  0  1  0  0  0  0  0  0  0  0  0
    3.7788  -11.7689    0.0000 C   0  0  0  0  0  0  0  0  0  0  0  0
    4.4932  -11.3564    0.0000 C   0  0  0  0  0  0  0  0  0  0  0  0
    4.4932  -10.5314    0.0000 C   0  0  2  0  0  0  0  0  0  0  0  0
    3.7788  -10.1189    0.0000 C   0  0  0  0  0  0  0  0  0  0  0  0
    5.2077  -11.7689    0.0000 C   0  0  0  0  0  0  0  0  0  0  0  0
    5.9222  -11.3564    0.0000 C   0  0  0  0  0  0  0  0  0  0  0  0
    5.9222  -10.5314    0.0000 C   0  0  2  0  0  0  0  0  0  0  0  0
    5.2077  -10.1189    0.0000 C   0  0  2  0  0  0  0  0  0  0  0  0
    6.6367  -10.1189    0.0000 C   0  0  1  0  0  0  0  0  0  0  0  0
    6.6367   -9.2939    0.0000 C   0  0  2  0  0  0  0  0  0  0  0  0
    5.9222   -8.8814    0.0000 C   0  0  0  0  0  0  0  0  0  0  0  0
    5.2077   -9.2939    0.0000 C   0  0  0  0  0  0  0  0  0  0  0  0
    7.4213  -10.3738    0.0000 C   0  0  0  0  0  0  0  0  0  0  0  0
    7.9062   -9.7064    0.0000 C   0  0  0  0  0  0  0  0  0  0  0  0
    7.4213   -9.0390    0.0000 C   0  0  2  0  0  0  0  0  0  0  0  0
    2.3498  -11.7689    0.0000 O   0  0  0  0  0  0  0  0  0  0  0  0
    7.6762   -8.2543    0.0000 C   0  0  2  0  0  0  0  0  0  0  0  0
    7.1242   -7.6412    0.0000 C   0  0  0  0  0  0  0  0  0  0  0  0
    8.4832   -8.0828    0.0000 C   0  0  0  0  0  0  0  0  0  0  0  0
    8.8957   -7.3683    0.0000 C   0  0  0  0  0  0  0  0  0  0  0  0
    9.7207   -7.3683    0.0000 C   0  0  2  0  0  0  0  0  0  0  0  0
   10.1332   -6.6539    0.0000 C   0  0  0  0  0  0  0  0  0  0  0  0
   10.9582   -6.6539    0.0000 C   0  0  0  0  0  0  0  0  0  0  0  0
    4.4932   -9.7064    0.0000 C   0  0  0  0  0  0  0  0  0  0  0  0
    6.6367   -8.4689    0.0000 C   0  0  0  0  0  0  0  0  0  0  0  0
    6.6367  -10.9439    0.0000 H   0  0  0  0  0  0  0  0  0  0  0  0
    5.9222   -9.7064    0.0000 H   0  0  0  0  0  0  0  0  0  0  0  0
    8.2361   -8.9099    0.0000 H   0  0  0  0  0  0  0  0  0  0  0  0
   10.1332   -8.0828    0.0000 C   0  0  0  0  0  0  0  0  0  0  0  0
   10.9582   -8.0828    0.0000 C   0  0  0  0  0  0  0  0  0  0  0  0
    9.7207   -5.9394    0.0000 C   0  0  0  0  0  0  0  0  0  0  0  0
    4.7575  -10.7800    0.0000 O   0  0  0  0  0  0  0  0  0  0  0  0
    5.3075  -10.4775    0.0000 O   0  0  0  0  0  0  0  0  0  0  0  0
  1  2  1  0  0  0  0
  2  3  1  0  0  0  0
  3  4  1  0  0  0  0
  4  5  1  0  0  0  0
  5  6  1  0  0  0  0
  6  1  1  0  0  0  0
  4  7  1  0  0  0  0
  7  8  2  0  0  0  0
  8  9  1  0  0  0  0
  9 10  1  0  0  0  0
 10  5  1  0  0  0  0
  9 11  1  0  0  0  0
 11 12  1  0  0  0  0
 12 13  1  0  0  0  0
 13 14  1  0  0  0  0
 14 10  1  0  0  0  0
 11 15  1  0  0  0  0
 15 16  1  0  0  0  0
 16 17  1  0  0  0  0
 17 12  1  0  0  0  0
  2 18  1  1  0  0  0
 17 19  1  0  0  0  0
 19 20  1  6  0  0  0
 19 21  1  0  0  0  0
 21 22  2  0  0  0  0
 22 23  1  0  0  0  0
 23 24  1  0  0  0  0
 24 25  1  0  0  0  0
  5 26  1  1  0  0  0
 12 27  1  1  0  0  0
 11 28  1  6  0  0  0
 10 29  1  6  0  0  0
 17 30  1  6  0  0  0
 23 31  1  6  0  0  0
 31 32  1  0  0  0  0
 24 33  1  0  0  0  0
  4 34  1  0  0  0  0
 34 35  1  0  0  0  0
  9 35  1  1  0  0  0
M  END
>  <cdx:fragmentId>
5

$$$$
