901250.cdx
  Mrv1902 05222410182D          

 35 35  0  0  0  0            999 V2000
    3.7518  -12.7176    0.0000 C   0  0  2  0  0  0  0  0  0  0  0  0
    3.7518  -13.5426    0.0000 C   0  0  2  0  0  0  0  0  0  0  0  0
    4.4663  -13.9551    0.0000 C   0  0  1  0  0  0  0  0  0  0  0  0
    5.1807  -13.5426    0.0000 C   0  0  2  0  0  0  0  0  0  0  0  0
    5.1807  -12.7176    0.0000 C   0  0  1  0  0  0  0  0  0  0  0  0
    4.4663  -12.3051    0.0000 O   0  0  0  0  0  0  0  0  0  0  0  0
    5.8952  -12.3051    0.0000 O   0  0  0  0  0  0  0  0  0  0  0  0
    5.8952  -11.4801    0.0000 C   0  0  0  0  0  0  0  0  0  0  0  0
    5.1807  -11.0676    0.0000 O   0  0  0  0  0  0  0  0  0  0  0  0
    6.6097  -11.0676    0.0000 C   0  0  0  0  0  0  0  0  0  0  0  0
    6.6097  -10.2426    0.0000 C   0  0  0  0  0  0  0  0  0  0  0  0
    7.3242   -9.8301    0.0000 C   0  0  0  0  0  0  0  0  0  0  0  0
    5.8952  -13.9551    0.0000 O   0  0  0  0  0  0  0  0  0  0  0  0
    4.4663  -14.7801    0.0000 O   0  0  0  0  0  0  0  0  0  0  0  0
    3.0373  -13.9551    0.0000 O   0  0  0  0  0  0  0  0  0  0  0  0
    3.0373  -12.3051    0.0000 C   0  0  0  0  0  0  0  0  0  0  0  0
    2.3229  -12.7176    0.0000 O   0  0  0  0  0  0  0  0  0  0  0  0
    7.3242  -11.4801    0.0000 C   0  0  0  0  0  0  0  0  0  0  0  0
    7.3242   -9.0051    0.0000 C   0  0  0  0  0  0  0  0  0  0  0  0
    8.0386   -8.5926    0.0000 C   0  0  0  0  0  0  0  0  0  0  0  0
    8.0386   -7.7676    0.0000 C   0  0  0  0  0  0  0  0  0  0  0  0
    8.7531   -7.3551    0.0000 C   0  0  0  0  0  0  0  0  0  0  0  0
    8.7531   -6.5301    0.0000 C   0  0  0  0  0  0  0  0  0  0  0  0
    9.4676   -6.1176    0.0000 C   0  0  0  0  0  0  0  0  0  0  0  0
    9.4676   -5.2926    0.0000 C   0  0  0  0  0  0  0  0  0  0  0  0
   10.1820   -4.8801    0.0000 C   0  0  0  0  0  0  0  0  0  0  0  0
   10.1820   -4.0551    0.0000 C   0  0  0  0  0  0  0  0  0  0  0  0
   10.8965   -3.6426    0.0000 C   0  0  0  0  0  0  0  0  0  0  0  0
   10.8965   -2.8176    0.0000 C   0  0  0  0  0  0  0  0  0  0  0  0
   11.6110   -2.4051    0.0000 C   0  0  0  0  0  0  0  0  0  0  0  0
   11.6110   -1.5801    0.0000 O   0  0  0  0  0  0  0  0  0  0  0  0
   12.3255   -2.8176    0.0000 O   0  0  0  0  0  0  0  0  0  0  0  0
   10.1820   -2.4051    0.0000 C   0  0  0  0  0  0  0  0  0  0  0  0
    8.7531   -4.8801    0.0000 C   0  0  0  0  0  0  0  0  0  0  0  0
    8.7531   -9.0051    0.0000 C   0  0  0  0  0  0  0  0  0  0  0  0
  1  2  1  0  0  0  0
  2  3  1  0  0  0  0
  3  4  1  0  0  0  0
  4  5  1  0  0  0  0
  5  6  1  0  0  0  0
  6  1  1  0  0  0  0
  5  7  1  1  0  0  0
  7  8  1  0  0  0  0
  8  9  2  0  0  0  0
  8 10  1  0  0  0  0
 10 11  2  0  0  0  0
 11 12  1  0  0  0  0
  4 13  1  6  0  0  0
  3 14  1  1  0  0  0
  2 15  1  6  0  0  0
  1 16  1  1  0  0  0
 16 17  1  0  0  0  0
 10 18  1  0  0  0  0
 12 19  2  0  0  0  0
 19 20  1  0  0  0  0
 20 21  2  0  0  0  0
 21 22  1  0  0  0  0
 22 23  2  0  0  0  0
 23 24  1  0  0  0  0
 24 25  2  0  0  0  0
 25 26  1  0  0  0  0
 26 27  2  0  0  0  0
 27 28  1  0  0  0  0
 28 29  2  0  0  0  0
 29 30  1  0  0  0  0
 30 31  1  0  0  0  0
 30 32  2  0  0  0  0
 29 33  1  0  0  0  0
 25 34  1  0  0  0  0
 20 35  1  0  0  0  0
M  END
>  <cdx:fragmentId>
5

$$$$
