9012.cdx
  Mrv1902 05222410262D          

 46 47  0  0  0  0            999 V2000
    8.6849   -6.2689    0.0000 O   0  0  0  0  0  0  0  0  0  0  0  0
    9.3994   -5.8564    0.0000 C   0  0  0  0  0  0  0  0  0  0  0  0
    9.3994   -5.0314    0.0000 O   0  0  0  0  0  0  0  0  0  0  0  0
   10.1138   -6.2689    0.0000 C   0  0  0  0  0  0  0  0  0  0  0  0
   10.8283   -5.8564    0.0000 C   0  0  0  0  0  0  0  0  0  0  0  0
   10.1138   -7.0939    0.0000 C   0  0  0  0  0  0  0  0  0  0  0  0
   10.8283   -7.5064    0.0000 C   0  0  0  0  0  0  0  0  0  0  0  0
   10.8283   -8.3314    0.0000 C   0  0  0  0  0  0  0  0  0  0  0  0
   11.5428   -8.7439    0.0000 C   0  0  0  0  0  0  0  0  0  0  0  0
   11.5428   -9.5689    0.0000 C   0  0  0  0  0  0  0  0  0  0  0  0
   12.2572   -8.3314    0.0000 C   0  0  0  0  0  0  0  0  0  0  0  0
   10.8283   -9.9814    0.0000 C   0  0  0  0  0  0  0  0  0  0  0  0
   10.8283  -10.8064    0.0000 C   0  0  0  0  0  0  0  0  0  0  0  0
   10.1138  -11.2189    0.0000 C   0  0  0  0  0  0  0  0  0  0  0  0
   10.1138  -12.0439    0.0000 C   0  0  0  0  0  0  0  0  0  0  0  0
    9.3994  -12.4564    0.0000 C   0  0  0  0  0  0  0  0  0  0  0  0
   10.8283  -12.4564    0.0000 C   0  0  0  0  0  0  0  0  0  0  0  0
    9.3994  -13.2814    0.0000 C   0  0  0  0  0  0  0  0  0  0  0  0
    7.9699  -14.9451    0.0000 C   0  0  0  0  0  0  0  0  0  0  0  0
    7.9699  -15.7701    0.0000 O   0  0  0  0  0  0  0  0  0  0  0  0
    7.2554  -14.5326    0.0000 O   0  0  0  0  0  0  0  0  0  0  0  0
    7.2554  -16.1826    0.0000 C   0  0  2  0  0  0  0  0  0  0  0  0
    6.5409  -15.7701    0.0000 O   0  0  0  0  0  0  0  0  0  0  0  0
    5.8265  -16.1826    0.0000 C   0  0  1  0  0  0  0  0  0  0  0  0
    5.8265  -17.0076    0.0000 C   0  0  2  0  0  0  0  0  0  0  0  0
    6.5409  -17.4201    0.0000 C   0  0  1  0  0  0  0  0  0  0  0  0
    7.2554  -17.0076    0.0000 C   0  0  1  0  0  0  0  0  0  0  0  0
    5.1120  -15.7701    0.0000 C   0  0  0  0  0  0  0  0  0  0  0  0
    4.3975  -16.1826    0.0000 O   0  0  0  0  0  0  0  0  0  0  0  0
    5.1120  -17.4201    0.0000 O   0  0  0  0  0  0  0  0  0  0  0  0
    4.3975  -14.5326    0.0000 O   0  0  0  0  0  0  0  0  0  0  0  0
    3.6831  -14.9451    0.0000 C   0  0  1  0  0  0  0  0  0  0  0  0
    3.6831  -15.7701    0.0000 C   0  0  1  0  0  0  0  0  0  0  0  0
    2.9686  -14.5326    0.0000 C   0  0  2  0  0  0  0  0  0  0  0  0
    2.2541  -14.9451    0.0000 C   0  0  1  0  0  0  0  0  0  0  0  0
    2.2541  -15.7701    0.0000 C   0  0  2  0  0  0  0  0  0  0  0  0
    2.9686  -16.1826    0.0000 O   0  0  0  0  0  0  0  0  0  0  0  0
    8.6849  -13.6939    0.0000 C   0  0  0  0  0  0  0  0  0  0  0  0
    8.6849  -14.5189    0.0000 C   0  0  0  0  0  0  0  0  0  0  0  0
    9.3994  -14.9314    0.0000 C   0  0  0  0  0  0  0  0  0  0  0  0
    6.5409  -18.2451    0.0000 O   0  0  0  0  0  0  0  0  0  0  0  0
    1.5396  -14.5326    0.0000 O   0  0  0  0  0  0  0  0  0  0  0  0
    1.5396  -16.1826    0.0000 C   0  0  0  0  0  0  0  0  0  0  0  0
    7.9699  -17.4201    0.0000 O   0  0  0  0  0  0  0  0  0  0  0  0
    0.8252  -15.7701    0.0000 O   0  0  0  0  0  0  0  0  0  0  0  0
    2.9686  -13.7076    0.0000 O   0  0  0  0  0  0  0  0  0  0  0  0
  1  2  2  0  0  0  0
  2  3  1  0  0  0  0
  2  4  1  0  0  0  0
  4  5  1  0  0  0  0
  4  6  2  0  0  0  0
  6  7  1  0  0  0  0
  7  8  2  0  0  0  0
  8  9  1  0  0  0  0
  9 10  2  0  0  0  0
  9 11  1  0  0  0  0
 10 12  1  0  0  0  0
 12 13  2  0  0  0  0
 13 14  1  0  0  0  0
 14 15  2  0  0  0  0
 15 16  1  0  0  0  0
 15 17  1  0  0  0  0
 16 18  2  0  0  0  0
 19 20  1  0  0  0  0
 19 21  2  0  0  0  0
 22 20  1  1  0  0  0
 22 23  1  0  0  0  0
 23 24  1  0  0  0  0
 24 25  1  0  0  0  0
 25 26  1  0  0  0  0
 26 27  1  0  0  0  0
 27 22  1  0  0  0  0
 24 28  1  1  0  0  0
 28 29  1  0  0  0  0
 25 30  1  6  0  0  0
 32 31  1  1  0  0  0
 32 33  1  0  0  0  0
 33 29  1  6  0  0  0
 32 34  1  0  0  0  0
 34 35  1  0  0  0  0
 35 36  1  0  0  0  0
 36 37  1  0  0  0  0
 37 33  1  0  0  0  0
 18 38  1  0  0  0  0
 38 39  2  0  0  0  0
 39 40  1  0  0  0  0
 39 19  1  0  0  0  0
 26 41  1  1  0  0  0
 35 42  1  1  0  0  0
 36 43  1  6  0  0  0
 27 44  1  6  0  0  0
 43 45  1  0  0  0  0
 34 46  1  6  0  0  0
M  END
>  <cdx:fragmentId>
5

$$$$
