90122.cdx
  Mrv1902 05222410212D          

 38 40  0  0  0  0            999 V2000
    6.5994  -11.0750    0.0000 C   0  0  1  0  0  0  0  0  0  0  0  0
    7.3139  -11.4875    0.0000 C   0  0  1  0  0  0  0  0  0  0  0  0
    8.0284  -11.0750    0.0000 C   0  0  2  0  0  0  0  0  0  0  0  0
    8.0284  -10.2500    0.0000 C   0  0  1  0  0  0  0  0  0  0  0  0
    7.3139   -9.8375    0.0000 O   0  0  0  0  0  0  0  0  0  0  0  0
    6.5994  -10.2500    0.0000 C   0  0  2  0  0  0  0  0  0  0  0  0
    8.7428  -11.4875    0.0000 O   0  0  0  0  0  0  0  0  0  0  0  0
    8.7428   -9.8375    0.0000 O   0  0  0  0  0  0  0  0  0  0  0  0
   10.1718   -9.8375    0.0000 C   0  0  0  0  0  0  0  0  0  0  0  0
   10.1718   -9.0125    0.0000 C   0  0  0  0  0  0  0  0  0  0  0  0
    9.4573   -8.6000    0.0000 C   0  0  2  0  0  0  0  0  0  0  0  0
    8.7428   -9.0125    0.0000 C   0  0  0  0  0  0  0  0  0  0  0  0
   10.8863   -8.6000    0.0000 C   0  0  0  0  0  0  0  0  0  0  0  0
   10.8863   -7.7750    0.0000 C   0  0  0  0  0  0  0  0  0  0  0  0
   10.1718   -7.3625    0.0000 C   0  0  0  0  0  0  0  0  0  0  0  0
    9.4573   -7.7750    0.0000 C   0  0  0  0  0  0  0  0  0  0  0  0
    5.8850  -11.4875    0.0000 O   0  0  0  0  0  0  0  0  0  0  0  0
    5.8850   -9.8375    0.0000 C   0  0  0  0  0  0  0  0  0  0  0  0
    7.3139  -12.3125    0.0000 O   0  0  0  0  0  0  0  0  0  0  0  0
    5.1705  -10.2500    0.0000 O   0  0  0  0  0  0  0  0  0  0  0  0
    8.6323   -7.7750    0.0000 C   0  0  0  0  0  0  0  0  0  0  0  0
    9.0448   -7.0605    0.0000 C   0  0  0  0  0  0  0  0  0  0  0  0
   11.6007   -7.3625    0.0000 O   0  0  0  0  0  0  0  0  0  0  0  0
    4.4560   -9.8375    0.0000 C   0  0  0  0  0  0  0  0  0  0  0  0
    3.7415  -10.2500    0.0000 O   0  0  0  0  0  0  0  0  0  0  0  0
    4.4560   -9.0125    0.0000 C   0  0  0  0  0  0  0  0  0  0  0  0
    3.7415   -8.6000    0.0000 C   0  0  0  0  0  0  0  0  0  0  0  0
    3.7415   -7.7750    0.0000 C   0  0  0  0  0  0  0  0  0  0  0  0
    4.4560   -7.3625    0.0000 C   0  0  0  0  0  0  0  0  0  0  0  0
    4.4560   -6.5375    0.0000 C   0  0  0  0  0  0  0  0  0  0  0  0
    3.7415   -6.1250    0.0000 C   0  0  0  0  0  0  0  0  0  0  0  0
    3.0271   -6.5375    0.0000 C   0  0  0  0  0  0  0  0  0  0  0  0
    3.0271   -7.3625    0.0000 C   0  0  0  0  0  0  0  0  0  0  0  0
    2.3126   -6.1250    0.0000 O   0  0  0  0  0  0  0  0  0  0  0  0
    1.5981   -6.5375    0.0000 C   0  0  0  0  0  0  0  0  0  0  0  0
    3.7415   -5.3000    0.0000 O   0  0  0  0  0  0  0  0  0  0  0  0
    5.1705   -6.1250    0.0000 O   0  0  0  0  0  0  0  0  0  0  0  0
    5.8850   -6.5375    0.0000 C   0  0  0  0  0  0  0  0  0  0  0  0
  1  2  1  0  0  0  0
  2  3  1  0  0  0  0
  3  4  1  0  0  0  0
  4  5  1  0  0  0  0
  5  6  1  0  0  0  0
  6  1  1  0  0  0  0
  3  7  1  6  0  0  0
  4  8  1  1  0  0  0
  9 10  1  0  0  0  0
 10 11  1  0  0  0  0
 11 12  1  6  0  0  0
 12  8  1  0  0  0  0
 10 13  2  0  0  0  0
 13 14  1  0  0  0  0
 14 15  1  0  0  0  0
 15 16  1  0  0  0  0
 16 11  1  0  0  0  0
  1 17  1  6  0  0  0
  6 18  1  1  0  0  0
  2 19  1  1  0  0  0
 18 20  1  0  0  0  0
 16 21  1  0  0  0  0
 16 22  1  0  0  0  0
 14 23  2  0  0  0  0
 20 24  1  0  0  0  0
 24 25  2  0  0  0  0
 24 26  1  0  0  0  0
 26 27  2  0  0  0  0
 27 28  1  0  0  0  0
 28 29  2  0  0  0  0
 29 30  1  0  0  0  0
 30 31  2  0  0  0  0
 31 32  1  0  0  0  0
 32 33  2  0  0  0  0
 33 28  1  0  0  0  0
 32 34  1  0  0  0  0
 34 35  1  0  0  0  0
 31 36  1  0  0  0  0
 30 37  1  0  0  0  0
 37 38  1  0  0  0  0
M  END
>  <cdx:fragmentId>
5

$$$$
