90127.cdx
  Mrv1902 05222410232D          

 24 23  0  0  0  0            999 V2000
    2.8797   -6.4986    0.0000 O   0  0  0  0  0  0  0  0  0  0  0  0
    2.8894   -5.6737    0.0000 C   0  0  0  0  0  0  0  0  0  0  0  0
    2.1798   -5.2529    0.0000 O   0  0  0  0  0  0  0  0  0  0  0  0
    3.6086   -5.2696    0.0000 C   0  0  0  0  0  0  0  0  0  0  0  0
    3.6183   -4.4446    0.0000 C   0  0  0  0  0  0  0  0  0  0  0  0
    4.3182   -5.6904    0.0000 C   0  0  0  0  0  0  0  0  0  0  0  0
    5.0375   -5.2863    0.0000 C   0  0  0  0  0  0  0  0  0  0  0  0
    5.7471   -5.7071    0.0000 C   0  0  0  0  0  0  0  0  0  0  0  0
    6.4663   -5.3030    0.0000 C   0  0  0  0  0  0  0  0  0  0  0  0
    7.1759   -5.7239    0.0000 C   0  0  0  0  0  0  0  0  0  0  0  0
    6.4760   -4.4781    0.0000 C   0  0  0  0  0  0  0  0  0  0  0  0
    7.1663   -6.5488    0.0000 C   0  0  0  0  0  0  0  0  0  0  0  0
    7.8759   -6.9696    0.0000 C   0  0  0  0  0  0  0  0  0  0  0  0
    7.8662   -7.7946    0.0000 C   0  0  0  0  0  0  0  0  0  0  0  0
    8.5758   -8.2154    0.0000 C   0  0  0  0  0  0  0  0  0  0  0  0
    8.5661   -9.0404    0.0000 C   0  0  0  0  0  0  0  0  0  0  0  0
    9.2950   -7.8113    0.0000 C   0  0  0  0  0  0  0  0  0  0  0  0
    9.2757   -9.4612    0.0000 C   0  0  0  0  0  0  0  0  0  0  0  0
    9.9776  -11.5394    0.0000 C   0  0  0  0  0  0  0  0  0  0  0  0
   10.6872  -11.9602    0.0000 O   0  0  0  0  0  0  0  0  0  0  0  0
    9.2583  -11.9435    0.0000 O   0  0  0  0  0  0  0  0  0  0  0  0
    9.2661  -10.2861    0.0000 C   0  0  0  0  0  0  0  0  0  0  0  0
    9.9757  -10.7070    0.0000 C   0  0  0  0  0  0  0  0  0  0  0  0
   10.6949  -10.3029    0.0000 C   0  0  0  0  0  0  0  0  0  0  0  0
  1  2  2  0  0  0  0
  2  3  1  0  0  0  0
  2  4  1  0  0  0  0
  4  5  1  0  0  0  0
  4  6  2  0  0  0  0
  6  7  1  0  0  0  0
  7  8  2  0  0  0  0
  8  9  1  0  0  0  0
  9 10  2  0  0  0  0
  9 11  1  0  0  0  0
 10 12  1  0  0  0  0
 12 13  2  0  0  0  0
 13 14  1  0  0  0  0
 14 15  2  0  0  0  0
 15 16  1  0  0  0  0
 15 17  1  0  0  0  0
 16 18  2  0  0  0  0
 19 20  1  0  0  0  0
 19 21  2  0  0  0  0
 18 22  1  0  0  0  0
 22 23  2  0  0  0  0
 23 24  1  0  0  0  0
 23 19  1  0  0  0  0
M  END
>  <cdx:fragmentId>
5

$$$$
