90128.cdx
  Mrv1902 05222410242D          

 25 28  0  0  0  0            999 V2000
    9.8277   -8.4097    0.0000 C   0  0  0  0  0  0  0  0  0  0  0  0
    9.1191   -7.9871    0.0000 C   0  0  0  0  0  0  0  0  0  0  0  0
    8.3989   -8.3895    0.0000 C   0  0  0  0  0  0  0  0  0  0  0  0
    8.3872   -9.2144    0.0000 C   0  0  0  0  0  0  0  0  0  0  0  0
    9.0958   -9.6370    0.0000 C   0  0  0  0  0  0  0  0  0  0  0  0
    9.8160   -9.2346    0.0000 C   0  0  0  0  0  0  0  0  0  0  0  0
    7.6670   -9.6168    0.0000 C   0  0  0  0  0  0  0  0  0  0  0  0
    7.6553  -10.4417    0.0000 N   0  3  0  0  0  0  0  0  0  0  0  0
    8.3639  -10.8642    0.0000 C   0  0  0  0  0  0  0  0  0  0  0  0
    9.0841  -10.4619    0.0000 C   0  0  0  0  0  0  0  0  0  0  0  0
    6.9584   -9.1942    0.0000 C   0  0  0  0  0  0  0  0  0  0  0  0
    6.2382   -9.5966    0.0000 C   0  0  0  0  0  0  0  0  0  0  0  0
    6.2265  -10.4215    0.0000 C   0  0  0  0  0  0  0  0  0  0  0  0
    6.9351  -10.8440    0.0000 C   0  0  0  0  0  0  0  0  0  0  0  0
    5.5296   -9.1740    0.0000 C   0  0  0  0  0  0  0  0  0  0  0  0
    4.8094   -9.5763    0.0000 C   0  0  0  0  0  0  0  0  0  0  0  0
    4.7977  -10.4013    0.0000 C   0  0  0  0  0  0  0  0  0  0  0  0
    5.5063  -10.8238    0.0000 C   0  0  0  0  0  0  0  0  0  0  0  0
    4.0775  -10.8036    0.0000 O   0  0  0  0  0  0  0  0  0  0  0  0
    5.4946  -11.6487    0.0000 O   0  0  0  0  0  0  0  0  0  0  0  0
   10.5479   -8.0073    0.0000 O   0  0  0  0  0  0  0  0  0  0  0  0
    9.1308   -7.1622    0.0000 O   0  0  0  0  0  0  0  0  0  0  0  0
    4.1008   -9.1538    0.0000 O   0  0  0  0  0  0  0  0  0  0  0  0
    7.6437  -11.2666    0.0000 C   0  0  0  0  0  0  0  0  0  0  0  0
   10.5596   -7.1824    0.0000 C   0  0  0  0  0  0  0  0  0  0  0  0
  1  2  2  0  0  0  0
  2  3  1  0  0  0  0
  3  4  2  0  0  0  0
  4  5  1  0  0  0  0
  5  6  2  0  0  0  0
  6  1  1  0  0  0  0
  4  7  1  0  0  0  0
  7  8  1  0  0  0  0
  8  9  1  0  0  0  0
  9 10  1  0  0  0  0
 10  5  1  0  0  0  0
  7 11  1  0  0  0  0
 11 12  1  0  0  0  0
 12 13  2  0  0  0  0
 13 14  1  0  0  0  0
 14  8  1  0  0  0  0
 12 15  1  0  0  0  0
 15 16  2  0  0  0  0
 16 17  1  0  0  0  0
 17 18  2  0  0  0  0
 18 13  1  0  0  0  0
 17 19  1  0  0  0  0
 20 18  1  0  0  0  0
  1 21  1  0  0  0  0
  2 22  1  0  0  0  0
 16 23  1  0  0  0  0
  8 24  1  0  0  0  0
 21 25  1  0  0  0  0
M  CHG  1   8   1
M  END
>  <cdx:fragmentId>
5

$$$$
