901245.cdx
  Mrv1902 05222410182D          

 20 20  0  0  0  0            999 V2000
    7.0605  -14.4782    0.0000 C   0  0  0  0  0  0  0  0  0  0  0  0
    6.3460  -14.8907    0.0000 C   0  0  0  0  0  0  0  0  0  0  0  0
    5.6316  -14.4782    0.0000 C   0  0  0  0  0  0  0  0  0  0  0  0
    7.0605  -13.6532    0.0000 O   0  0  0  0  0  0  0  0  0  0  0  0
    7.7750  -14.8907    0.0000 O   0  0  0  0  0  0  0  0  0  0  0  0
    4.9171  -14.8907    0.0000 C   0  0  0  0  0  0  0  0  0  0  0  0
    4.2026  -14.4782    0.0000 C   0  0  0  0  0  0  0  0  0  0  0  0
    3.4881  -14.8907    0.0000 C   0  0  0  0  0  0  0  0  0  0  0  0
    3.4881  -15.7157    0.0000 C   0  0  0  0  0  0  0  0  0  0  0  0
    4.2026  -16.1282    0.0000 C   0  0  0  0  0  0  0  0  0  0  0  0
    4.9171  -15.7157    0.0000 C   0  0  0  0  0  0  0  0  0  0  0  0
    2.7737  -16.1282    0.0000 O   0  0  0  0  0  0  0  0  0  0  0  0
    2.7737  -14.4782    0.0000 O   0  0  0  0  0  0  0  0  0  0  0  0
    8.4894  -13.6532    0.0000 C   0  0  0  0  0  0  0  0  0  0  0  0
    8.4894  -14.4782    0.0000 C   0  0  1  0  0  0  0  0  0  0  0  0
    9.2039  -14.8907    0.0000 C   0  0  0  0  0  0  0  0  0  0  0  0
    9.9184  -14.4782    0.0000 C   0  0  0  0  0  0  0  0  0  0  0  0
   10.6329  -14.8907    0.0000 C   0  0  0  0  0  0  0  0  0  0  0  0
   11.3473  -14.4782    0.0000 C   0  0  0  0  0  0  0  0  0  0  0  0
   12.0618  -14.8907    0.0000 C   0  0  0  0  0  0  0  0  0  0  0  0
  1  2  1  0  0  0  0
  2  3  2  0  0  0  0
  1  4  2  0  0  0  0
  1  5  1  0  0  0  0
  6  7  1  0  0  0  0
  7  8  2  0  0  0  0
  8  9  1  0  0  0  0
  9 10  2  0  0  0  0
 10 11  1  0  0  0  0
  6 11  2  0  0  0  0
  9 12  1  0  0  0  0
  8 13  1  0  0  0  0
  3  6  1  0  0  0  0
 15 14  1  1  0  0  0
 15 16  1  0  0  0  0
 16 17  1  0  0  0  0
 17 18  1  0  0  0  0
 18 19  1  0  0  0  0
 19 20  1  0  0  0  0
  5 15  1  0  0  0  0
M  END
>  <cdx:groupId>
184271

>  <cdx:fragmentId>
184224

$$$$
