90125.cdx
  Mrv1902 05222410222D          

 35 35  0  0  0  0            999 V2000
    5.8265   -4.6464    0.0000 O   0  0  0  0  0  0  0  0  0  0  0  0
    6.5415   -5.0314    0.0000 C   0  0  0  0  0  0  0  0  0  0  0  0
    7.2559   -4.6189    0.0000 C   0  0  2  0  0  0  0  0  0  0  0  0
    7.2559   -3.7939    0.0000 C   0  0  1  0  0  0  0  0  0  0  0  0
    6.5415   -3.3814    0.0000 O   0  0  0  0  0  0  0  0  0  0  0  0
    7.9704   -5.0314    0.0000 O   0  0  0  0  0  0  0  0  0  0  0  0
    8.6849   -4.6189    0.0000 C   0  0  2  0  0  0  0  0  0  0  0  0
    8.6849   -3.7939    0.0000 C   0  0  1  0  0  0  0  0  0  0  0  0
    7.9704   -3.3814    0.0000 C   0  0  1  0  0  0  0  0  0  0  0  0
    8.6849   -6.2689    0.0000 O   0  0  0  0  0  0  0  0  0  0  0  0
    9.3994   -5.8564    0.0000 C   0  0  0  0  0  0  0  0  0  0  0  0
    9.3994   -5.0314    0.0000 O   0  0  0  0  0  0  0  0  0  0  0  0
   10.1138   -6.2689    0.0000 C   0  0  0  0  0  0  0  0  0  0  0  0
   10.8283   -5.8564    0.0000 C   0  0  0  0  0  0  0  0  0  0  0  0
   10.1138   -7.0939    0.0000 C   0  0  0  0  0  0  0  0  0  0  0  0
   10.8283   -7.5064    0.0000 C   0  0  0  0  0  0  0  0  0  0  0  0
   10.8283   -8.3314    0.0000 C   0  0  0  0  0  0  0  0  0  0  0  0
   11.5428   -8.7439    0.0000 C   0  0  0  0  0  0  0  0  0  0  0  0
   11.5428   -9.5689    0.0000 C   0  0  0  0  0  0  0  0  0  0  0  0
   12.2572   -8.3314    0.0000 C   0  0  0  0  0  0  0  0  0  0  0  0
   10.8283   -9.9814    0.0000 C   0  0  0  0  0  0  0  0  0  0  0  0
   10.8283  -10.8064    0.0000 C   0  0  0  0  0  0  0  0  0  0  0  0
   10.1138  -11.2189    0.0000 C   0  0  0  0  0  0  0  0  0  0  0  0
   10.1138  -12.0439    0.0000 C   0  0  0  0  0  0  0  0  0  0  0  0
    9.3994  -12.4564    0.0000 C   0  0  0  0  0  0  0  0  0  0  0  0
   10.8283  -12.4564    0.0000 C   0  0  0  0  0  0  0  0  0  0  0  0
    9.3994  -13.2814    0.0000 C   0  0  0  0  0  0  0  0  0  0  0  0
    7.9699  -14.9451    0.0000 C   0  0  0  0  0  0  0  0  0  0  0  0
    7.9699  -15.7701    0.0000 O   0  0  0  0  0  0  0  0  0  0  0  0
    7.2554  -14.5326    0.0000 O   0  0  0  0  0  0  0  0  0  0  0  0
    8.6849  -13.6939    0.0000 C   0  0  0  0  0  0  0  0  0  0  0  0
    8.6849  -14.5189    0.0000 C   0  0  0  0  0  0  0  0  0  0  0  0
    9.3994  -14.9314    0.0000 C   0  0  0  0  0  0  0  0  0  0  0  0
    9.3994   -3.3814    0.0000 O   0  0  0  0  0  0  0  0  0  0  0  0
    7.9704   -2.5564    0.0000 O   0  0  0  0  0  0  0  0  0  0  0  0
  3  2  1  6  0  0  0
  3  4  1  0  0  0  0
  4  5  1  1  0  0  0
  3  6  1  0  0  0  0
  6  7  1  0  0  0  0
  7  8  1  0  0  0  0
  8  9  1  0  0  0  0
  9  4  1  0  0  0  0
 10 11  2  0  0  0  0
 11 12  1  0  0  0  0
  7 12  1  6  0  0  0
 11 13  1  0  0  0  0
 13 14  1  0  0  0  0
 13 15  2  0  0  0  0
 15 16  1  0  0  0  0
 16 17  2  0  0  0  0
 17 18  1  0  0  0  0
 18 19  2  0  0  0  0
 18 20  1  0  0  0  0
 19 21  1  0  0  0  0
 21 22  2  0  0  0  0
 22 23  1  0  0  0  0
 23 24  2  0  0  0  0
 24 25  1  0  0  0  0
 24 26  1  0  0  0  0
 25 27  2  0  0  0  0
 28 29  1  0  0  0  0
 28 30  2  0  0  0  0
 27 31  1  0  0  0  0
 31 32  2  0  0  0  0
 32 33  1  0  0  0  0
 32 28  1  0  0  0  0
  8 34  1  1  0  0  0
  9 35  1  6  0  0  0
  1  2  1  0  0  0  0
M  END
>  <cdx:fragmentId>
285

$$$$
