90131.cdx
  Mrv1902 05222410222D          

 27 29  0  0  0  0            999 V2000
    9.6045   -7.3276    0.0000 C   0  0  0  0  0  0  0  0  0  0  0  0
    8.8901   -7.7401    0.0000 O   0  0  0  0  0  0  0  0  0  0  0  0
    8.1756   -7.3276    0.0000 C   0  0  0  0  0  0  0  0  0  0  0  0
    7.4611   -7.7401    0.0000 C   0  0  0  0  0  0  0  0  0  0  0  0
    6.7467   -7.3276    0.0000 C   0  0  0  0  0  0  0  0  0  0  0  0
    6.0322   -7.7401    0.0000 C   0  0  0  0  0  0  0  0  0  0  0  0
    5.3177   -7.3276    0.0000 C   0  0  0  0  0  0  0  0  0  0  0  0
    3.4763   -8.0421    0.0000 O   0  0  0  0  0  0  0  0  0  0  0  0
    4.3013   -6.6132    0.0000 C   0  0  0  0  0  0  0  0  0  0  0  0
    3.1743   -6.9151    0.0000 C   0  0  0  0  0  0  0  0  0  0  0  0
    3.8888   -7.3276    0.0000 C   0  0  0  0  0  0  0  0  0  0  0  0
    4.6032   -8.5651    0.0000 O   0  0  0  0  0  0  0  0  0  0  0  0
    4.6032   -7.7401    0.0000 C   0  0  0  0  0  0  0  0  0  0  0  0
    6.7467   -6.5026    0.0000 C   0  0  0  0  0  0  0  0  0  0  0  0
   10.3190   -7.7401    0.0000 C   0  0  0  0  0  0  0  0  0  0  0  0
   11.0335   -7.3276    0.0000 C   0  0  0  0  0  0  0  0  0  0  0  0
   11.0335   -6.5026    0.0000 C   0  0  0  0  0  0  0  0  0  0  0  0
   10.3190   -6.0901    0.0000 C   0  0  0  0  0  0  0  0  0  0  0  0
    9.6045   -6.5026    0.0000 C   0  0  0  0  0  0  0  0  0  0  0  0
   10.1475   -5.2832    0.0000 O   0  0  0  0  0  0  0  0  0  0  0  0
    9.3270   -5.1969    0.0000 C   0  0  0  0  0  0  0  0  0  0  0  0
    8.9914   -5.9506    0.0000 C   0  0  0  0  0  0  0  0  0  0  0  0
   10.3190   -8.5651    0.0000 C   0  0  0  0  0  0  0  0  0  0  0  0
   11.0335   -8.9776    0.0000 C   0  0  0  0  0  0  0  0  0  0  0  0
   11.7480   -8.5651    0.0000 C   0  0  0  0  0  0  0  0  0  0  0  0
   11.7480   -7.7401    0.0000 O   0  0  0  0  0  0  0  0  0  0  0  0
   12.4624   -8.9776    0.0000 O   0  0  0  0  0  0  0  0  0  0  0  0
  1  2  1  0  0  0  0
  2  3  1  0  0  0  0
  3  4  1  0  0  0  0
  4  5  2  0  0  0  0
  5  6  1  0  0  0  0
  6  7  1  0  0  0  0
 11  8  1  0  0  0  0
  7 13  1  0  0  0  0
 11  9  1  0  0  0  0
 11 10  1  0  0  0  0
 13 11  1  0  0  0  0
 13 12  1  0  0  0  0
  5 14  1  0  0  0  0
  1 15  2  0  0  0  0
 15 16  1  0  0  0  0
 16 17  2  0  0  0  0
 17 18  1  0  0  0  0
 18 19  2  0  0  0  0
 19  1  1  0  0  0  0
 18 20  1  0  0  0  0
 20 21  1  0  0  0  0
 21 22  2  0  0  0  0
 22 19  1  0  0  0  0
 15 23  1  0  0  0  0
 23 24  2  0  0  0  0
 24 25  1  0  0  0  0
 25 26  1  0  0  0  0
 26 16  1  0  0  0  0
 25 27  2  0  0  0  0
M  END
>  <cdx:fragmentId>
3

$$$$
