90134.cdx
  Mrv1902 05222410212D          

 68 71  0  0  0  0            999 V2000
    8.9324   -5.8426    0.0000 O   0  0  0  0  0  0  0  0  0  0  0  0
    9.6469   -5.4301    0.0000 C   0  0  0  0  0  0  0  0  0  0  0  0
    9.6469   -4.6051    0.0000 O   0  0  0  0  0  0  0  0  0  0  0  0
   10.3613   -5.8426    0.0000 C   0  0  0  0  0  0  0  0  0  0  0  0
   10.3613   -6.6676    0.0000 C   0  0  0  0  0  0  0  0  0  0  0  0
   11.0758   -7.0801    0.0000 C   0  0  0  0  0  0  0  0  0  0  0  0
   11.0758   -7.9051    0.0000 C   0  0  0  0  0  0  0  0  0  0  0  0
   11.7903   -8.3176    0.0000 C   0  0  0  0  0  0  0  0  0  0  0  0
   11.7903   -9.1426    0.0000 C   0  0  0  0  0  0  0  0  0  0  0  0
   12.5047   -7.9051    0.0000 C   0  0  0  0  0  0  0  0  0  0  0  0
   11.0758   -9.5551    0.0000 C   0  0  0  0  0  0  0  0  0  0  0  0
   11.0758  -10.3801    0.0000 C   0  0  0  0  0  0  0  0  0  0  0  0
   10.3613  -10.7926    0.0000 C   0  0  0  0  0  0  0  0  0  0  0  0
   10.3613  -11.6176    0.0000 C   0  0  0  0  0  0  0  0  0  0  0  0
    9.6469  -12.0301    0.0000 C   0  0  0  0  0  0  0  0  0  0  0  0
   11.0758  -12.0301    0.0000 C   0  0  0  0  0  0  0  0  0  0  0  0
    9.6469  -12.8551    0.0000 C   0  0  0  0  0  0  0  0  0  0  0  0
    8.2174  -14.5189    0.0000 C   0  0  0  0  0  0  0  0  0  0  0  0
    8.2174  -15.3439    0.0000 O   0  0  0  0  0  0  0  0  0  0  0  0
    7.5029  -14.1064    0.0000 O   0  0  0  0  0  0  0  0  0  0  0  0
    7.5029  -15.7564    0.0000 C   0  0  2  0  0  0  0  0  0  0  0  0
    6.7884  -15.3439    0.0000 O   0  0  0  0  0  0  0  0  0  0  0  0
    6.0740  -15.7564    0.0000 C   0  0  1  0  0  0  0  0  0  0  0  0
    6.0740  -16.5814    0.0000 C   0  0  2  0  0  0  0  0  0  0  0  0
    6.7884  -16.9939    0.0000 C   0  0  1  0  0  0  0  0  0  0  0  0
    7.5029  -16.5814    0.0000 C   0  0  1  0  0  0  0  0  0  0  0  0
    5.3595  -15.3439    0.0000 C   0  0  0  0  0  0  0  0  0  0  0  0
    4.6450  -15.7564    0.0000 O   0  0  0  0  0  0  0  0  0  0  0  0
    5.3595  -16.9939    0.0000 O   0  0  0  0  0  0  0  0  0  0  0  0
    8.9324  -13.2676    0.0000 C   0  0  0  0  0  0  0  0  0  0  0  0
    8.9324  -14.0926    0.0000 C   0  0  0  0  0  0  0  0  0  0  0  0
    9.6469  -14.5051    0.0000 C   0  0  0  0  0  0  0  0  0  0  0  0
    6.7884  -17.8189    0.0000 O   0  0  0  0  0  0  0  0  0  0  0  0
    8.2174  -16.9939    0.0000 O   0  0  0  0  0  0  0  0  0  0  0  0
    6.7639   -2.9717    0.0000 O   0  0  0  0  0  0  0  0  0  0  0  0
    7.4817   -3.3785    0.0000 C   0  0  2  0  0  0  0  0  0  0  0  0
    7.4883   -4.2034    0.0000 C   0  0  1  0  0  0  0  0  0  0  0  0
    6.7772   -4.6217    0.0000 C   0  0  0  0  0  0  0  0  0  0  0  0
    8.1928   -2.9602    0.0000 C   0  0  1  0  0  0  0  0  0  0  0  0
    8.9106   -3.3669    0.0000 C   0  0  2  0  0  0  0  0  0  0  0  0
    8.9172   -4.1919    0.0000 C   0  0  1  0  0  0  0  0  0  0  0  0
    8.2061   -4.6102    0.0000 O   0  0  0  0  0  0  0  0  0  0  0  0
    9.6217   -2.9487    0.0000 O   0  0  0  0  0  0  0  0  0  0  0  0
   10.4467   -2.9420    0.0000 C   0  0  2  0  0  0  0  0  0  0  0  0
   10.8649   -3.6532    0.0000 O   0  0  0  0  0  0  0  0  0  0  0  0
    4.6505   -6.7014    0.0000 O   0  0  0  0  0  0  0  0  0  0  0  0
    3.2149   -5.8880    0.0000 O   0  0  0  0  0  0  0  0  0  0  0  0
    2.4905   -4.6563    0.0000 O   0  0  0  0  0  0  0  0  0  0  0  0
    3.2016   -4.2380    0.0000 C   0  0  0  0  0  0  0  0  0  0  0  0
    4.6438   -5.8764    0.0000 C   0  0  1  0  0  0  0  0  0  0  0  0
    3.9261   -5.4697    0.0000 C   0  0  1  0  0  0  0  0  0  0  0  0
    3.9194   -4.6447    0.0000 C   0  0  2  0  0  0  0  0  0  0  0  0
    4.6305   -4.2265    0.0000 O   0  0  0  0  0  0  0  0  0  0  0  0
    6.0727   -5.8649    0.0000 O   0  0  0  0  0  0  0  0  0  0  0  0
    5.3550   -5.4582    0.0000 C   0  0  1  0  0  0  0  0  0  0  0  0
    5.3483   -4.6332    0.0000 C   0  0  2  0  0  0  0  0  0  0  0  0
    6.0594   -4.2150    0.0000 O   0  0  0  0  0  0  0  0  0  0  0  0
   10.8534   -2.2243    0.0000 C   0  0  1  0  0  0  0  0  0  0  0  0
   11.6784   -2.2176    0.0000 C   0  0  2  0  0  0  0  0  0  0  0  0
   12.0966   -2.9287    0.0000 C   0  0  1  0  0  0  0  0  0  0  0  0
   11.6899   -3.6465    0.0000 C   0  0  1  0  0  0  0  0  0  0  0  0
    8.1861   -2.1352    0.0000 O   0  0  0  0  0  0  0  0  0  0  0  0
   10.4351   -1.5131    0.0000 O   0  0  0  0  0  0  0  0  0  0  0  0
   12.9216   -2.9221    0.0000 O   0  0  0  0  0  0  0  0  0  0  0  0
   12.1081   -4.3576    0.0000 C   0  0  0  0  0  0  0  0  0  0  0  0
   12.0851   -1.4998    0.0000 O   0  0  0  0  0  0  0  0  0  0  0  0
   12.9331   -4.3510    0.0000 O   0  0  0  0  0  0  0  0  0  0  0  0
   11.0758   -5.4301    0.0000 C   0  0  0  0  0  0  0  0  0  0  0  0
  1  2  2  0  0  0  0
  2  3  1  0  0  0  0
  2  4  1  0  0  0  0
  4  5  2  0  0  0  0
  5  6  1  0  0  0  0
  6  7  2  0  0  0  0
  7  8  1  0  0  0  0
  8  9  2  0  0  0  0
  8 10  1  0  0  0  0
  9 11  1  0  0  0  0
 11 12  2  0  0  0  0
 12 13  1  0  0  0  0
 13 14  2  0  0  0  0
 14 15  1  0  0  0  0
 14 16  1  0  0  0  0
 15 17  2  0  0  0  0
 18 19  1  0  0  0  0
 18 20  2  0  0  0  0
 21 19  1  1  0  0  0
 21 22  1  0  0  0  0
 22 23  1  0  0  0  0
 23 24  1  0  0  0  0
 24 25  1  0  0  0  0
 25 26  1  0  0  0  0
 26 21  1  0  0  0  0
 23 27  1  1  0  0  0
 27 28  1  0  0  0  0
 24 29  1  6  0  0  0
 17 30  1  0  0  0  0
 30 31  2  0  0  0  0
 31 32  1  0  0  0  0
 31 18  1  0  0  0  0
 25 33  1  1  0  0  0
 26 34  1  6  0  0  0
 50 46  1  1  0  0  0
 36 35  1  1  0  0  0
 36 37  1  0  0  0  0
 37 38  1  6  0  0  0
 38 57  1  0  0  0  0
 36 39  1  0  0  0  0
 39 40  1  0  0  0  0
 40 41  1  0  0  0  0
 42 37  1  0  0  0  0
 40 43  1  1  0  0  0
 44 43  1  1  0  0  0
 44 45  1  0  0  0  0
 51 47  1  6  0  0  0
 49 48  1  0  0  0  0
 52 49  1  1  0  0  0
 50 55  1  0  0  0  0
 51 50  1  0  0  0  0
 52 51  1  0  0  0  0
 53 52  1  0  0  0  0
 56 53  1  0  0  0  0
 55 54  1  6  0  0  0
 56 55  1  0  0  0  0
 56 57  1  1  0  0  0
 42 41  1  0  0  0  0
 44 58  1  0  0  0  0
 58 59  1  0  0  0  0
 59 60  1  0  0  0  0
 60 61  1  0  0  0  0
 61 45  1  0  0  0  0
 39 62  1  6  0  0  0
 58 63  1  6  0  0  0
 60 64  1  6  0  0  0
 61 65  1  1  0  0  0
 59 66  1  1  0  0  0
 65 67  1  0  0  0  0
 41  3  1  6  0  0  0
  4 68  1  0  0  0  0
M  END
>  <cdx:fragmentId>
349

$$$$
