9015.cdx
  Mrv1902 05222410282D          

  9  9  0  0  0  0            999 V2000
    6.3130   -4.9921    0.0000 C   0  0  0  0  0  0  0  0  0  0  0  0
    7.0275   -4.5796    0.0000 C   0  0  0  0  0  0  0  0  0  0  0  0
    7.7420   -4.9921    0.0000 C   0  0  0  0  0  0  0  0  0  0  0  0
    7.7420   -5.8171    0.0000 C   0  0  0  0  0  0  0  0  0  0  0  0
    7.0275   -6.2296    0.0000 C   0  0  0  0  0  0  0  0  0  0  0  0
    6.3130   -5.8171    0.0000 C   0  0  0  0  0  0  0  0  0  0  0  0
    5.5986   -4.5796    0.0000 O   0  0  0  0  0  0  0  0  0  0  0  0
    8.4564   -6.2296    0.0000 O   0  0  0  0  0  0  0  0  0  0  0  0
    9.1709   -5.8171    0.0000 C   0  0  0  0  0  0  0  0  0  0  0  0
  1  2  1  0  0  0  0
  2  3  2  0  0  0  0
  3  4  1  0  0  0  0
  4  5  2  0  0  0  0
  5  6  1  0  0  0  0
  1  6  2  0  0  0  0
  1  7  1  0  0  0  0
  8  9  1  0  0  0  0
  4  8  1  0  0  0  0
M  END
>  <cdx:groupId>
29

>  <cdx:fragmentId>
5

$$$$
