1531.cdx
  Mrv1902 05222410192D          

 31 34  0  0  0  0            999 V2000
    5.8402   -8.1263    0.0000 C   0  0  0  0  0  0  0  0  0  0  0  0
    5.8402   -8.9513    0.0000 C   0  0  0  0  0  0  0  0  0  0  0  0
    6.5546   -9.3637    0.0000 C   0  0  0  0  0  0  0  0  0  0  0  0
    7.2691   -8.9513    0.0000 C   0  0  0  0  0  0  0  0  0  0  0  0
    7.2691   -8.1263    0.0000 C   0  0  0  0  0  0  0  0  0  0  0  0
    6.5546   -7.7138    0.0000 C   0  0  0  0  0  0  0  0  0  0  0  0
    7.9836   -9.3637    0.0000 C   0  0  0  0  0  0  0  0  0  0  0  0
    8.6980   -8.9513    0.0000 C   0  0  0  0  0  0  0  0  0  0  0  0
    8.6980   -8.1263    0.0000 C   0  0  1  0  0  0  0  0  0  0  0  0
    7.9836   -7.7138    0.0000 O   0  0  0  0  0  0  0  0  0  0  0  0
    9.4125   -7.7138    0.0000 C   0  0  0  0  0  0  0  0  0  0  0  0
    9.4125   -6.8888    0.0000 C   0  0  0  0  0  0  0  0  0  0  0  0
   10.1270   -8.1263    0.0000 C   0  0  0  0  0  0  0  0  0  0  0  0
   10.8415   -7.7138    0.0000 C   0  0  0  0  0  0  0  0  0  0  0  0
   10.8415   -6.8888    0.0000 C   0  0  0  0  0  0  0  0  0  0  0  0
   10.1270   -6.4763    0.0000 C   0  0  0  0  0  0  0  0  0  0  0  0
   11.5559   -6.4763    0.0000 O   0  0  0  0  0  0  0  0  0  0  0  0
    7.9836  -10.1888    0.0000 O   0  0  0  0  0  0  0  0  0  0  0  0
    5.1257   -7.7138    0.0000 O   0  0  0  0  0  0  0  0  0  0  0  0
    6.5546  -10.1888    0.0000 O   0  0  0  0  0  0  0  0  0  0  0  0
    3.6745   -9.3844    0.0000 C   0  0  2  0  0  0  0  0  0  0  0  0
    3.6745  -10.2094    0.0000 C   0  0  2  0  0  0  0  0  0  0  0  0
    4.3890  -10.6219    0.0000 C   0  0  1  0  0  0  0  0  0  0  0  0
    5.1035  -10.2094    0.0000 C   0  0  2  0  0  0  0  0  0  0  0  0
    5.1035   -9.3844    0.0000 C   0  0  0  0  0  0  0  0  0  0  0  0
    4.3890   -8.9719    0.0000 O   0  0  0  0  0  0  0  0  0  0  0  0
    2.9601   -8.9719    0.0000 C   0  0  0  0  0  0  0  0  0  0  0  0
    4.3890  -11.4469    0.0000 O   0  0  0  0  0  0  0  0  0  0  0  0
    5.8179  -10.6219    0.0000 O   0  0  0  0  0  0  0  0  0  0  0  0
    2.9601  -10.6219    0.0000 O   0  0  0  0  0  0  0  0  0  0  0  0
    2.2456   -9.3844    0.0000 O   0  0  0  0  0  0  0  0  0  0  0  0
  1  2  2  0  0  0  0
  2  3  1  0  0  0  0
  3  4  2  0  0  0  0
  4  5  1  0  0  0  0
  5  6  2  0  0  0  0
  6  1  1  0  0  0  0
  4  7  1  0  0  0  0
  7  8  1  0  0  0  0
  8  9  1  0  0  0  0
  9 10  1  0  0  0  0
 10  5  1  0  0  0  0
  9 11  1  1  0  0  0
 11 12  1  0  0  0  0
 11 13  2  0  0  0  0
 13 14  1  0  0  0  0
 14 15  2  0  0  0  0
 15 16  1  0  0  0  0
 16 12  2  0  0  0  0
 15 17  1  0  0  0  0
  7 18  2  0  0  0  0
  1 19  1  0  0  0  0
  3 20  1  0  0  0  0
 21 22  1  0  0  0  0
 22 23  1  0  0  0  0
 23 24  1  0  0  0  0
 24 25  1  0  0  0  0
 25 26  1  0  0  0  0
 26 21  1  0  0  0  0
 21 27  1  1  0  0  0
 23 28  1  1  0  0  0
 24 29  1  6  0  0  0
 22 30  1  6  0  0  0
 27 31  1  0  0  0  0
  2 25  1  0  0  0  0
M  END
>  <cdx:fragmentId>
5

$$$$
