9016.cdx
  Mrv1902 05222410272D          

 10 10  0  0  0  0            999 V2000
    6.6033   -4.3389    0.0000 C   0  0  0  0  0  0  0  0  0  0  0  0
    7.3177   -3.9264    0.0000 C   0  0  0  0  0  0  0  0  0  0  0  0
    8.0322   -4.3389    0.0000 C   0  0  0  0  0  0  0  0  0  0  0  0
    8.0322   -5.1639    0.0000 C   0  0  0  0  0  0  0  0  0  0  0  0
    7.3177   -5.5764    0.0000 C   0  0  0  0  0  0  0  0  0  0  0  0
    6.6033   -5.1639    0.0000 C   0  0  0  0  0  0  0  0  0  0  0  0
    8.7467   -5.5764    0.0000 O   0  0  0  0  0  0  0  0  0  0  0  0
    9.4612   -5.1639    0.0000 C   0  0  0  0  0  0  0  0  0  0  0  0
    5.8888   -3.9264    0.0000 O   0  0  0  0  0  0  0  0  0  0  0  0
    5.1743   -4.3389    0.0000 C   0  0  0  0  0  0  0  0  0  0  0  0
  1  2  1  0  0  0  0
  2  3  2  0  0  0  0
  3  4  1  0  0  0  0
  4  5  2  0  0  0  0
  5  6  1  0  0  0  0
  1  6  2  0  0  0  0
  7  8  1  0  0  0  0
  4  7  1  0  0  0  0
  9 10  1  0  0  0  0
  1  9  1  0  0  0  0
M  END
>  <cdx:fragmentId>
5

$$$$
