90160.cdx
  Mrv1902 05222410262D          

 20 22  0  0  0  0            999 V2000
    8.1213   -7.7885    0.0000 C   0  0  0  0  0  0  0  0  0  0  0  0
    8.8358   -8.2010    0.0000 C   0  0  0  0  0  0  0  0  0  0  0  0
    8.8358   -9.0260    0.0000 C   0  0  0  0  0  0  0  0  0  0  0  0
    8.1213   -9.4385    0.0000 C   0  0  0  0  0  0  0  0  0  0  0  0
    7.4068   -9.0260    0.0000 C   0  0  0  0  0  0  0  0  0  0  0  0
    6.6924   -9.4385    0.0000 C   0  0  0  0  0  0  0  0  0  0  0  0
    6.6924  -10.2635    0.0000 O   0  0  0  0  0  0  0  0  0  0  0  0
    5.9779   -9.0260    0.0000 C   0  0  0  0  0  0  0  0  0  0  0  0
    5.2634   -9.4385    0.0000 C   0  0  0  0  0  0  0  0  0  0  0  0
    4.5490   -9.0260    0.0000 C   0  0  0  0  0  0  0  0  0  0  0  0
    4.5490   -8.2010    0.0000 C   0  0  0  0  0  0  0  0  0  0  0  0
    5.2634   -7.7885    0.0000 C   0  0  0  0  0  0  0  0  0  0  0  0
    5.9779   -8.2010    0.0000 C   0  0  0  0  0  0  0  0  0  0  0  0
    6.6924   -7.7885    0.0000 C   0  0  0  0  0  0  0  0  0  0  0  0
    6.6924   -6.9635    0.0000 O   0  0  0  0  0  0  0  0  0  0  0  0
    7.4068   -8.2010    0.0000 C   0  0  0  0  0  0  0  0  0  0  0  0
    9.5502   -9.4385    0.0000 C   0  0  0  0  0  0  0  0  0  0  0  0
    8.1213   -6.9635    0.0000 O   0  0  0  0  0  0  0  0  0  0  0  0
    8.8358   -6.5510    0.0000 C   0  0  0  0  0  0  0  0  0  0  0  0
    9.5502   -7.7885    0.0000 O   0  0  0  0  0  0  0  0  0  0  0  0
  1  2  1  0  0  0  0
  2  3  2  0  0  0  0
  3  4  1  0  0  0  0
  4  5  2  0  0  0  0
  5  6  1  0  0  0  0
  6  7  2  0  0  0  0
  6  8  1  0  0  0  0
  8  9  1  0  0  0  0
  9 10  2  0  0  0  0
 10 11  1  0  0  0  0
 11 12  2  0  0  0  0
 12 13  1  0  0  0  0
  8 13  2  0  0  0  0
 13 14  1  0  0  0  0
 14 15  2  0  0  0  0
 14 16  1  0  0  0  0
  5 16  1  0  0  0  0
  1 16  2  0  0  0  0
  3 17  1  0  0  0  0
 18 19  1  0  0  0  0
  1 18  1  0  0  0  0
  2 20  1  0  0  0  0
M  END
>  <cdx:groupId>
64

>  <cdx:fragmentId>
5

$$$$
