9017.cdx
  Mrv1902 05222410272D          

 14 13  0  0  0  0            999 V2000
    4.3086   -2.8883    0.0000 C   0  0  0  0  0  0  0  0  0  0  0  0
    3.5941   -2.4758    0.0000 C   0  0  0  0  0  0  0  0  0  0  0  0
    4.3086   -3.7133    0.0000 O   0  0  0  0  0  0  0  0  0  0  0  0
    5.0231   -2.4758    0.0000 O   0  0  0  0  0  0  0  0  0  0  0  0
    5.7376   -2.8883    0.0000 C   0  0  0  0  0  0  0  0  0  0  0  0
    6.4520   -2.4758    0.0000 C   0  0  0  0  0  0  0  0  0  0  0  0
    7.1665   -2.8883    0.0000 C   0  0  0  0  0  0  0  0  0  0  0  0
    7.8810   -2.4758    0.0000 C   0  0  0  0  0  0  0  0  0  0  0  0
    8.5954   -2.8883    0.0000 C   0  0  0  0  0  0  0  0  0  0  0  0
    9.3099   -2.4758    0.0000 C   0  0  0  0  0  0  0  0  0  0  0  0
   10.0244   -2.8883    0.0000 C   0  0  0  0  0  0  0  0  0  0  0  0
   10.0244   -3.7133    0.0000 C   0  0  0  0  0  0  0  0  0  0  0  0
   10.7389   -2.4758    0.0000 C   0  0  0  0  0  0  0  0  0  0  0  0
    7.1665   -3.7133    0.0000 C   0  0  0  0  0  0  0  0  0  0  0  0
  1  2  1  0  0  0  0
  1  3  2  0  0  0  0
  1  4  1  0  0  0  0
  5  6  1  0  0  0  0
  6  7  1  0  0  0  0
  7  8  1  0  0  0  0
  8  9  1  0  0  0  0
  9 10  1  0  0  0  0
 10 11  2  0  0  0  0
 11 12  1  0  0  0  0
 11 13  1  0  0  0  0
  7 14  1  0  0  0  0
  4  5  1  0  0  0  0
M  END
>  <cdx:fragmentId>
13

$$$$
