90206.cdx
  Mrv1902 05222410282D          

 39 43  0  0  0  0            999 V2000
    5.4706   -9.1701    0.0000 C   0  0  1  0  0  0  0  0  0  0  0  0
    5.4706   -9.9951    0.0000 C   0  0  1  0  0  0  0  0  0  0  0  0
    6.1850  -10.4076    0.0000 C   0  0  0  0  0  0  0  0  0  0  0  0
    6.8995   -9.9951    0.0000 C   0  0  0  0  0  0  0  0  0  0  0  0
    6.8995   -9.1701    0.0000 C   0  0  2  0  0  0  0  0  0  0  0  0
    6.1850   -8.7576    0.0000 C   0  0  2  0  0  0  0  0  0  0  0  0
    7.6140   -8.7576    0.0000 C   0  0  1  0  0  0  0  0  0  0  0  0
    7.6140   -7.9326    0.0000 C   0  0  2  0  0  0  0  0  0  0  0  0
    6.8995   -7.5201    0.0000 C   0  0  0  0  0  0  0  0  0  0  0  0
    6.1850   -7.9326    0.0000 C   0  0  0  0  0  0  0  0  0  0  0  0
    8.3284   -9.1701    0.0000 C   0  0  0  0  0  0  0  0  0  0  0  0
    9.0429   -8.7576    0.0000 C   0  0  0  0  0  0  0  0  0  0  0  0
    9.0429   -7.9326    0.0000 C   0  0  2  0  0  0  0  0  0  0  0  0
    8.3284   -7.5201    0.0000 C   0  0  2  0  0  0  0  0  0  0  0  0
    4.6859   -8.9152    0.0000 C   0  0  2  0  0  0  0  0  0  0  0  0
    4.2010   -9.5826    0.0000 C   0  0  0  0  0  0  0  0  0  0  0  0
    4.6859  -10.2501    0.0000 C   0  0  2  0  0  0  0  0  0  0  0  0
    9.6560   -7.3806    0.0000 C   0  0  0  0  0  0  0  0  0  0  0  0
    9.3204   -6.6269    0.0000 C   0  0  0  0  0  0  0  0  0  0  0  0
    8.5000   -6.7132    0.0000 C   0  0  1  0  0  0  0  0  0  0  0  0
    7.9479   -6.1001    0.0000 C   0  0  0  0  0  0  0  0  0  0  0  0
    8.2029   -5.3155    0.0000 C   0  0  0  0  0  0  0  0  0  0  0  0
    7.1410   -6.2716    0.0000 C   0  0  0  0  0  0  0  0  0  0  0  0
    3.9715  -10.6626    0.0000 C   0  0  0  0  0  0  0  0  0  0  0  0
    5.4706   -8.3451    0.0000 C   0  0  0  0  0  0  0  0  0  0  0  0
    6.8995   -8.3451    0.0000 C   0  0  0  0  0  0  0  0  0  0  0  0
    9.7574   -8.3451    0.0000 C   0  0  0  0  0  0  0  0  0  0  0  0
    7.8275   -9.5545    0.0000 C   0  0  0  0  0  0  0  0  0  0  0  0
    4.4310   -8.1306    0.0000 C   0  0  0  0  0  0  0  0  0  0  0  0
    4.8995  -11.0470    0.0000 C   0  0  0  0  0  0  0  0  0  0  0  0
   10.4719   -7.9326    0.0000 O   0  0  0  0  0  0  0  0  0  0  0  0
    9.7574   -9.1701    0.0000 O   0  0  0  0  0  0  0  0  0  0  0  0
    7.2441  -10.1379    0.0000 O   0  0  0  0  0  0  0  0  0  0  0  0
    8.6244   -9.7681    0.0000 O   0  0  0  0  0  0  0  0  0  0  0  0
    3.6341   -7.9171    0.0000 O   0  0  0  0  0  0  0  0  0  0  0  0
    5.4706  -10.8201    0.0000 H   0  0  0  0  0  0  0  0  0  0  0  0
    6.1850   -9.5826    0.0000 H   0  0  0  0  0  0  0  0  0  0  0  0
    7.6140   -7.1076    0.0000 H   0  0  0  0  0  0  0  0  0  0  0  0
    8.3284   -8.3451    0.0000 H   0  0  0  0  0  0  0  0  0  0  0  0
  1  2  1  0  0  0  0
  2  3  1  0  0  0  0
  3  4  1  0  0  0  0
  4  5  1  0  0  0  0
  5  6  1  0  0  0  0
  6  1  1  0  0  0  0
  5  7  1  0  0  0  0
  7  8  1  0  0  0  0
  8  9  1  0  0  0  0
  9 10  1  0  0  0  0
 10  6  1  0  0  0  0
  7 11  1  0  0  0  0
 11 12  1  0  0  0  0
 12 13  1  0  0  0  0
 13 14  1  0  0  0  0
 14  8  1  0  0  0  0
  1 15  1  0  0  0  0
 15 16  1  0  0  0  0
 16 17  1  0  0  0  0
 17  2  1  0  0  0  0
 13 18  1  0  0  0  0
 18 19  1  0  0  0  0
 19 20  1  0  0  0  0
 20 14  1  0  0  0  0
 20 21  1  6  0  0  0
 21 22  2  0  0  0  0
 21 23  1  0  0  0  0
 17 24  1  1  0  0  0
  1 25  1  1  0  0  0
  5 26  1  1  0  0  0
 13 27  1  1  0  0  0
  7 28  1  6  0  0  0
 15 29  1  6  0  0  0
 17 30  1  6  0  0  0
 27 31  1  0  0  0  0
 27 32  2  0  0  0  0
 28 33  2  0  0  0  0
 28 34  1  0  0  0  0
 29 35  2  0  0  0  0
  2 36  1  6  0  0  0
  6 37  1  6  0  0  0
  8 38  1  1  0  0  0
 14 39  1  6  0  0  0
M  END
>  <cdx:fragmentId>
5

$$$$
