90208.cdx
  Mrv1902 05222410192D          

 17 19  0  0  0  0            999 V2000
    6.7768   -6.5989    0.0000 C   0  0  0  0  0  0  0  0  0  0  0  0
    6.7768   -7.4239    0.0000 C   0  0  0  0  0  0  0  0  0  0  0  0
    7.4913   -7.8364    0.0000 C   0  0  0  0  0  0  0  0  0  0  0  0
    8.2057   -7.4239    0.0000 C   0  0  2  0  0  0  0  0  0  0  0  0
    8.2057   -6.5989    0.0000 C   0  0  2  0  0  0  0  0  0  0  0  0
    7.4913   -6.1864    0.0000 C   0  0  0  0  0  0  0  0  0  0  0  0
    8.9202   -7.8364    0.0000 C   0  0  1  0  0  0  0  0  0  0  0  0
    9.6347   -7.4239    0.0000 C   0  0  0  0  0  0  0  0  0  0  0  0
    9.6347   -6.5989    0.0000 C   0  0  0  0  0  0  0  0  0  0  0  0
    8.9202   -6.1864    0.0000 C   0  0  2  0  0  0  0  0  0  0  0  0
    8.2057   -5.7739    0.0000 H   0  0  0  0  0  0  0  0  0  0  0  0
    8.2057   -8.2489    0.0000 H   0  0  0  0  0  0  0  0  0  0  0  0
    8.9202   -5.3614    0.0000 C   0  0  0  0  0  0  0  0  0  0  0  0
    8.9202   -8.6614    0.0000 C   0  0  0  0  0  0  0  0  0  0  0  0
    6.0623   -7.8364    0.0000 C   0  0  0  0  0  0  0  0  0  0  0  0
    9.6347   -9.0739    0.0000 C   0  0  0  0  0  0  0  0  0  0  0  0
    8.2057   -9.0739    0.0000 C   0  0  0  0  0  0  0  0  0  0  0  0
  1  2  1  0  0  0  0
  2  3  1  0  0  0  0
  3  4  1  0  0  0  0
  4  5  1  0  0  0  0
  5  6  1  0  0  0  0
  6  1  2  0  0  0  0
  4  7  1  0  0  0  0
  7  8  1  0  0  0  0
  8  9  1  0  0  0  0
  9 10  1  0  0  0  0
 10  5  1  0  0  0  0
  5 11  1  1  0  0  0
  4 12  1  1  0  0  0
 10 13  1  1  0  0  0
  7 14  1  1  0  0  0
  2 15  2  0  0  0  0
  3 10  1  0  0  0  0
 14 16  1  0  0  0  0
 14 17  1  0  0  0  0
M  END
>  <cdx:fragmentId>
5

$$$$
