90205.cdx
  Mrv1902 05222410272D          

 29 29  0  0  0  0            999 V2000
    5.5256  -14.6014    0.0000 C   0  0  2  0  0  0  0  0  0  0  0  0
    5.5256  -15.4264    0.0000 C   0  0  2  0  0  0  0  0  0  0  0  0
    6.2400  -15.8389    0.0000 C   0  0  1  0  0  0  0  0  0  0  0  0
    6.9545  -15.4264    0.0000 C   0  0  2  0  0  0  0  0  0  0  0  0
    6.9545  -14.6014    0.0000 C   0  0  2  0  0  0  0  0  0  0  0  0
    6.2400  -14.1889    0.0000 O   0  0  0  0  0  0  0  0  0  0  0  0
    4.8111  -14.1889    0.0000 C   0  0  0  0  0  0  0  0  0  0  0  0
    6.2400  -16.6639    0.0000 O   0  0  0  0  0  0  0  0  0  0  0  0
    4.8111  -15.8389    0.0000 O   0  0  0  0  0  0  0  0  0  0  0  0
    7.6690  -15.8389    0.0000 O   0  0  0  0  0  0  0  0  0  0  0  0
    7.6690  -14.1889    0.0000 O   0  0  0  0  0  0  0  0  0  0  0  0
    7.6659   -2.7598    0.0000 C   0  0  0  0  0  0  0  0  0  0  0  0
    8.0779   -3.4745    0.0000 C   0  0  0  0  0  0  0  0  0  0  0  0
    7.6650   -4.1887    0.0000 C   0  0  0  0  0  0  0  0  0  0  0  0
    8.0771   -4.9035    0.0000 C   0  0  0  0  0  0  0  0  0  0  0  0
    7.6641   -5.6177    0.0000 C   0  0  0  0  0  0  0  0  0  0  0  0
    8.0762   -6.3324    0.0000 C   0  0  0  0  0  0  0  0  0  0  0  0
    7.6632   -7.0466    0.0000 C   0  0  0  0  0  0  0  0  0  0  0  0
    8.0753   -7.7613    0.0000 C   0  0  0  0  0  0  0  0  0  0  0  0
    7.6624   -8.4756    0.0000 C   0  0  0  0  0  0  0  0  0  0  0  0
    8.0744   -9.1903    0.0000 C   0  0  0  0  0  0  0  0  0  0  0  0
    7.6615   -9.9045    0.0000 C   0  0  0  0  0  0  0  0  0  0  0  0
    8.0736  -10.6192    0.0000 C   0  0  0  0  0  0  0  0  0  0  0  0
    7.6606  -11.3334    0.0000 C   0  0  0  0  0  0  0  0  0  0  0  0
    8.0727  -12.0482    0.0000 C   0  0  0  0  0  0  0  0  0  0  0  0
    7.6598  -12.7624    0.0000 C   0  0  0  0  0  0  0  0  0  0  0  0
    8.0718  -13.4771    0.0000 C   0  0  0  0  0  0  0  0  0  0  0  0
    8.8968  -13.4776    0.0000 O   0  0  0  0  0  0  0  0  0  0  0  0
    4.0966  -14.6014    0.0000 O   0  0  0  0  0  0  0  0  0  0  0  0
  1  2  1  0  0  0  0
  2  3  1  0  0  0  0
  3  4  1  0  0  0  0
  4  5  1  0  0  0  0
  5  6  1  0  0  0  0
  6  1  1  0  0  0  0
  1  7  1  1  0  0  0
  3  8  1  1  0  0  0
  2  9  1  6  0  0  0
  4 10  1  6  0  0  0
  5 11  1  6  0  0  0
 13 12  1  0  0  0  0
 14 13  1  0  0  0  0
 15 14  1  0  0  0  0
 16 15  1  0  0  0  0
 17 16  1  0  0  0  0
 18 17  1  0  0  0  0
 19 18  1  0  0  0  0
 20 19  1  0  0  0  0
 21 20  1  0  0  0  0
 22 21  1  0  0  0  0
 23 22  1  0  0  0  0
 24 23  1  0  0  0  0
 25 24  1  0  0  0  0
 26 25  1  0  0  0  0
 27 26  1  0  0  0  0
 27 28  2  0  0  0  0
  7 29  1  0  0  0  0
 27 11  1  0  0  0  0
M  END
>  <cdx:fragmentId>
31

$$$$
