46902093.cdx
  Mrv1902 05222410252D          

 25 27  0  0  0  0            999 V2000
    5.7922  -15.8453    0.0000 C   0  0  0  0  0  0  0  0  0  0  0  0
    5.7922  -15.0203    0.0000 C   0  0  0  0  0  0  0  0  0  0  0  0
    5.0777  -14.6078    0.0000 C   0  0  0  0  0  0  0  0  0  0  0  0
    4.3633  -15.0203    0.0000 C   0  0  0  0  0  0  0  0  0  0  0  0
    5.0777  -16.2578    0.0000 O   0  0  0  0  0  0  0  0  0  0  0  0
    3.6488  -14.6078    0.0000 O   0  0  0  0  0  0  0  0  0  0  0  0
    6.5067  -14.6078    0.0000 C   0  0  0  0  0  0  0  0  0  0  0  0
    7.2212  -15.0203    0.0000 C   0  0  0  0  0  0  0  0  0  0  0  0
    9.3646  -14.6078    0.0000 C   0  0  1  0  0  0  0  0  0  0  0  0
   10.1325  -14.9092    0.0000 C   0  0  0  0  0  0  0  0  0  0  0  0
   10.3757  -15.6976    0.0000 C   0  0  0  0  0  0  0  0  0  0  0  0
    9.9110  -16.3792    0.0000 C   0  0  0  0  0  0  0  0  0  0  0  0
    9.0883  -16.4409    0.0000 C   0  0  0  0  0  0  0  0  0  0  0  0
    8.5271  -15.8361    0.0000 C   0  0  0  0  0  0  0  0  0  0  0  0
    8.6501  -15.0203    0.0000 C   0  0  2  0  0  0  0  0  0  0  0  0
    7.9356  -14.6078    0.0000 C   0  0  2  0  0  0  0  0  0  0  0  0
    7.9356  -13.7828    0.0000 C   0  0  1  0  0  0  0  0  0  0  0  0
    8.6501  -13.3703    0.0000 C   0  0  0  0  0  0  0  0  0  0  0  0
    9.3646  -13.7828    0.0000 C   0  0  2  0  0  0  0  0  0  0  0  0
    8.9604  -14.1393    0.0000 O   0  0  0  0  0  0  0  0  0  0  0  0
    8.3417  -14.1393    0.0000 C   0  0  0  0  0  0  0  0  0  0  0  0
    7.2212  -13.3703    0.0000 C   0  0  0  0  0  0  0  0  0  0  0  0
   11.1915  -15.8205    0.0000 C   0  0  0  0  0  0  0  0  0  0  0  0
   10.0790  -13.3703    0.0000 O   0  0  0  0  0  0  0  0  0  0  0  0
    7.9356  -15.4328    0.0000 H   0  0  0  0  0  0  0  0  0  0  0  0
  1  2  1  0  0  0  0
  2  3  2  0  0  0  0
  3  4  1  0  0  0  0
  1  5  1  0  0  0  0
  4  6  1  0  0  0  0
  7  8  1  0  0  0  0
  9 10  1  0  0  0  0
 10 11  1  0  0  0  0
 11 12  2  0  0  0  0
 12 13  1  0  0  0  0
 13 14  1  0  0  0  0
 14 15  1  0  0  0  0
 15 16  1  0  0  0  0
 16 17  1  0  0  0  0
 17 18  1  0  0  0  0
 18 19  1  0  0  0  0
 20 21  1  0  0  0  0
  9 19  1  0  0  0  0
  9 20  1  6  0  0  0
 16 21  1  6  0  0  0
  9 15  1  0  0  0  0
 17 22  1  6  0  0  0
 11 23  1  0  0  0  0
 19 24  1  6  0  0  0
  8 16  1  0  0  0  0
  2  7  1  0  0  0  0
 15 25  1  1  0  0  0
M  END
>  <cdx:groupId>
178727

>  <cdx:fragmentId>
178669

$$$$
