90207.cdx
  Mrv1902 05222410282D          

 36 40  0  0  0  0            999 V2000
    4.5631   -8.6201    0.0000 C   0  0  0  0  0  0  0  0  0  0  0  0
    4.5631   -9.4451    0.0000 C   0  0  1  0  0  0  0  0  0  0  0  0
    5.2775   -9.8576    0.0000 C   0  0  0  0  0  0  0  0  0  0  0  0
    5.9920   -9.4451    0.0000 C   0  0  1  0  0  0  0  0  0  0  0  0
    5.9920   -8.6201    0.0000 C   0  0  2  0  0  0  0  0  0  0  0  0
    5.2775   -8.2076    0.0000 C   0  0  0  0  0  0  0  0  0  0  0  0
    6.7065   -9.8576    0.0000 C   0  0  0  0  0  0  0  0  0  0  0  0
    7.4209   -9.4451    0.0000 C   0  0  0  0  0  0  0  0  0  0  0  0
    7.4209   -8.6201    0.0000 C   0  0  2  0  0  0  0  0  0  0  0  0
    6.7065   -8.2076    0.0000 C   0  0  2  0  0  0  0  0  0  0  0  0
    8.1354   -8.2076    0.0000 C   0  0  1  0  0  0  0  0  0  0  0  0
    8.1354   -7.3826    0.0000 C   0  0  0  0  0  0  0  0  0  0  0  0
    7.4209   -6.9701    0.0000 C   0  0  0  0  0  0  0  0  0  0  0  0
    6.7065   -7.3826    0.0000 C   0  0  0  0  0  0  0  0  0  0  0  0
    8.8499   -8.6201    0.0000 C   0  0  0  0  0  0  0  0  0  0  0  0
    9.5644   -8.2076    0.0000 C   0  0  0  0  0  0  0  0  0  0  0  0
    9.5644   -7.3826    0.0000 C   0  0  2  0  0  0  0  0  0  0  0  0
    8.8499   -6.9701    0.0000 C   0  0  1  0  0  0  0  0  0  0  0  0
   10.2788   -6.9701    0.0000 C   0  0  0  0  0  0  0  0  0  0  0  0
   10.2788   -6.1451    0.0000 C   0  0  0  0  0  0  0  0  0  0  0  0
    9.5644   -5.7326    0.0000 C   0  0  0  0  0  0  0  0  0  0  0  0
    8.8499   -6.1451    0.0000 C   0  0  2  0  0  0  0  0  0  0  0  0
    3.8486   -9.8576    0.0000 O   0  0  0  0  0  0  0  0  0  0  0  0
    4.8650  -10.5721    0.0000 C   0  0  0  0  0  0  0  0  0  0  0  0
    5.6900  -10.5721    0.0000 C   0  0  0  0  0  0  0  0  0  0  0  0
    5.9920   -7.7951    0.0000 C   0  0  0  0  0  0  0  0  0  0  0  0
    7.4209   -7.7951    0.0000 C   0  0  0  0  0  0  0  0  0  0  0  0
    8.1354   -9.0326    0.0000 C   0  0  0  0  0  0  0  0  0  0  0  0
    8.1354   -5.7326    0.0000 C   0  0  0  0  0  0  0  0  0  0  0  0
    9.5644   -4.9076    0.0000 C   0  0  0  0  0  0  0  0  0  0  0  0
   10.2788   -7.7951    0.0000 C   0  0  0  0  0  0  0  0  0  0  0  0
   10.9933   -7.3826    0.0000 O   0  0  0  0  0  0  0  0  0  0  0  0
   10.2788   -8.6201    0.0000 O   0  0  0  0  0  0  0  0  0  0  0  0
    5.9920  -10.2701    0.0000 H   0  0  0  0  0  0  0  0  0  0  0  0
    6.7065   -9.0326    0.0000 H   0  0  0  0  0  0  0  0  0  0  0  0
    8.8499   -7.7951    0.0000 H   0  0  0  0  0  0  0  0  0  0  0  0
  1  2  1  0  0  0  0
  2  3  1  0  0  0  0
  3  4  1  0  0  0  0
  4  5  1  0  0  0  0
  5  6  1  0  0  0  0
  6  1  1  0  0  0  0
  4  7  1  0  0  0  0
  7  8  1  0  0  0  0
  8  9  1  0  0  0  0
  9 10  1  0  0  0  0
 10  5  1  0  0  0  0
  9 11  1  0  0  0  0
 11 12  1  0  0  0  0
 12 13  1  0  0  0  0
 13 14  1  0  0  0  0
 14 10  1  0  0  0  0
 11 15  1  0  0  0  0
 15 16  1  0  0  0  0
 16 17  1  0  0  0  0
 17 18  1  0  0  0  0
 18 12  1  0  0  0  0
 17 19  1  0  0  0  0
 19 20  1  0  0  0  0
 20 21  1  0  0  0  0
 21 22  1  0  0  0  0
 22 18  1  0  0  0  0
  2 23  1  1  0  0  0
  3 24  1  0  0  0  0
  3 25  1  0  0  0  0
  5 26  1  1  0  0  0
  9 27  1  1  0  0  0
 11 28  1  6  0  0  0
 22 29  1  1  0  0  0
 21 30  2  0  0  0  0
 17 31  1  1  0  0  0
 31 32  1  0  0  0  0
 31 33  2  0  0  0  0
  4 34  1  6  0  0  0
 10 35  1  6  0  0  0
 18 36  1  1  0  0  0
M  END
>  <cdx:fragmentId>
5

$$$$
