90200.cdx
  Mrv1902 05222410262D          

 15 15  0  0  0  0            999 V2000
    6.2406   -7.9051    0.0000 C   0  0  0  0  0  0  0  0  0  0  0  0
    6.2406   -8.7301    0.0000 C   0  0  0  0  0  0  0  0  0  0  0  0
    6.9550   -9.1426    0.0000 C   0  0  0  0  0  0  0  0  0  0  0  0
    7.6695   -8.7301    0.0000 C   0  0  0  0  0  0  0  0  0  0  0  0
    7.6695   -7.9051    0.0000 C   0  0  0  0  0  0  0  0  0  0  0  0
    6.9550   -7.4926    0.0000 C   0  0  0  0  0  0  0  0  0  0  0  0
    7.6695   -5.4301    0.0000 C   0  0  0  0  0  0  0  0  0  0  0  0
    7.6695   -6.2551    0.0000 C   0  0  0  0  0  0  0  0  0  0  0  0
    6.9550   -6.6676    0.0000 C   0  0  0  0  0  0  0  0  0  0  0  0
    7.6695   -3.7801    0.0000 C   0  0  0  0  0  0  0  0  0  0  0  0
    8.3840   -4.1926    0.0000 C   0  0  0  0  0  0  0  0  0  0  0  0
    8.3840   -5.0176    0.0000 C   0  0  0  0  0  0  0  0  0  0  0  0
    6.9550   -9.9676    0.0000 C   0  0  0  0  0  0  0  0  0  0  0  0
    6.2406   -6.2551    0.0000 C   0  0  0  0  0  0  0  0  0  0  0  0
    9.0984   -3.7801    0.0000 C   0  0  0  0  0  0  0  0  0  0  0  0
  1  2  1  0  0  0  0
  2  3  1  0  0  0  0
  3  4  2  0  0  0  0
  4  5  1  0  0  0  0
  5  6  1  0  0  0  0
  6  1  1  0  0  0  0
  7  8  1  0  0  0  0
  8  9  2  0  0  0  0
  9  6  1  0  0  0  0
 10 11  1  0  0  0  0
 11 12  2  0  0  0  0
 12  7  1  0  0  0  0
  3 13  1  0  0  0  0
  9 14  1  0  0  0  0
 11 15  1  0  0  0  0
M  END
>  <cdx:fragmentId>
5

$$$$
