902119.cdx
  Mrv1902 05222410252D          

 12 12  0  0  0  0            999 V2000
    6.8798   -3.8367    0.0000 C   0  0  0  0  0  0  0  0  0  0  0  0
    7.5943   -4.2492    0.0000 C   0  0  0  0  0  0  0  0  0  0  0  0
    8.3088   -3.8367    0.0000 C   0  0  0  0  0  0  0  0  0  0  0  0
    9.0232   -4.2492    0.0000 C   0  0  0  0  0  0  0  0  0  0  0  0
    9.7377   -3.8367    0.0000 C   0  0  0  0  0  0  0  0  0  0  0  0
    6.8798   -3.0117    0.0000 O   0  0  0  0  0  0  0  0  0  0  0  0
    9.0232   -5.0742    0.0000 C   0  0  0  0  0  0  0  0  0  0  0  0
    4.8596   -4.5268    0.0000 C   0  0  0  0  0  0  0  0  0  0  0  0
    5.4117   -3.9137    0.0000 C   0  0  0  0  0  0  0  0  0  0  0  0
    6.1654   -4.2492    0.0000 C   0  0  0  0  0  0  0  0  0  0  0  0
    6.0791   -5.0697    0.0000 C   0  0  0  0  0  0  0  0  0  0  0  0
    5.2721   -5.2412    0.0000 O   0  0  0  0  0  0  0  0  0  0  0  0
 12  8  1  0  0  0  0
  9  8  2  0  0  0  0
 10  9  1  0  0  0  0
 11 10  2  0  0  0  0
 12 11  1  0  0  0  0
  1  2  1  0  0  0  0
  2  3  2  0  0  0  0
  3  4  1  0  0  0  0
  4  5  1  0  0  0  0
  1  6  2  0  0  0  0
  4  7  1  0  0  0  0
  1 10  1  0  0  0  0
M  END
>  <cdx:fragmentId>
10459

$$$$
