902153.cdx
  Mrv1902 05222410282D          

 21 22  0  0  0  0            999 V2000
    2.4383   -8.0437    0.0000 O   0  0  0  0  0  0  0  0  0  0  0  0
    3.8673   -6.3937    0.0000 C   0  0  0  0  0  0  0  0  0  0  0  0
    3.1528   -6.8062    0.0000 C   0  0  0  0  0  0  0  0  0  0  0  0
    3.1528   -7.6313    0.0000 C   0  0  0  0  0  0  0  0  0  0  0  0
    3.8673   -8.0437    0.0000 C   0  0  0  0  0  0  0  0  0  0  0  0
    4.5818   -7.6313    0.0000 C   0  0  0  0  0  0  0  0  0  0  0  0
    4.5818   -6.8062    0.0000 C   0  0  0  0  0  0  0  0  0  0  0  0
    5.2962   -6.3937    0.0000 C   0  0  0  0  0  0  0  0  0  0  0  0
    6.7252   -5.5687    0.0000 O   0  0  0  0  0  0  0  0  0  0  0  0
    6.0107   -6.8062    0.0000 C   0  0  0  0  0  0  0  0  0  0  0  0
    6.7252   -6.3937    0.0000 C   0  0  0  0  0  0  0  0  0  0  0  0
    7.4396   -6.8062    0.0000 C   0  0  0  0  0  0  0  0  0  0  0  0
    8.1541   -6.3937    0.0000 C   0  0  0  0  0  0  0  0  0  0  0  0
    8.8686   -6.8062    0.0000 C   0  0  0  0  0  0  0  0  0  0  0  0
    9.5831   -6.3937    0.0000 C   0  0  0  0  0  0  0  0  0  0  0  0
   11.0120   -6.3937    0.0000 C   0  0  0  0  0  0  0  0  0  0  0  0
   10.2975   -6.8062    0.0000 C   0  0  0  0  0  0  0  0  0  0  0  0
   10.2975   -7.6313    0.0000 C   0  0  0  0  0  0  0  0  0  0  0  0
   11.0120   -8.0437    0.0000 C   0  0  0  0  0  0  0  0  0  0  0  0
   11.7265   -7.6313    0.0000 C   0  0  0  0  0  0  0  0  0  0  0  0
   11.7265   -6.8062    0.0000 C   0  0  0  0  0  0  0  0  0  0  0  0
  4  1  1  0  0  0  0
  2  7  1  0  0  0  0
  3  2  2  0  0  0  0
  4  3  1  0  0  0  0
  5  4  2  0  0  0  0
  6  5  1  0  0  0  0
  7  6  2  0  0  0  0
  8  7  1  0  0  0  0
 10  8  1  0  0  0  0
 11  9  2  0  0  0  0
 11 10  1  0  0  0  0
 12 11  1  0  0  0  0
 13 12  1  0  0  0  0
 14 13  1  0  0  0  0
 15 14  2  0  0  0  0
 17 15  1  0  0  0  0
 16 21  1  0  0  0  0
 17 16  2  0  0  0  0
 18 17  1  0  0  0  0
 19 18  2  0  0  0  0
 20 19  1  0  0  0  0
 21 20  2  0  0  0  0
M  END
>  <cdx:fragmentId>
5

$$$$
