902108.cdx
  Mrv1902 05222410232D          

 15 15  0  0  0  0            999 V2000
    7.5034   -5.4656    0.0000 C   0  0  0  0  0  0  0  0  0  0  0  0
    8.2178   -5.0531    0.0000 C   0  0  0  0  0  0  0  0  0  0  0  0
    8.9323   -5.4656    0.0000 C   0  0  0  0  0  0  0  0  0  0  0  0
    9.6468   -5.0531    0.0000 C   0  0  0  0  0  0  0  0  0  0  0  0
    6.7889   -5.8781    0.0000 C   0  0  0  0  0  0  0  0  0  0  0  0
    6.0744   -6.2906    0.0000 C   0  0  0  0  0  0  0  0  0  0  0  0
    5.3600   -6.7031    0.0000 C   0  0  0  0  0  0  0  0  0  0  0  0
    4.6455   -7.1156    0.0000 C   0  0  0  0  0  0  0  0  0  0  0  0
    3.9310   -6.7031    0.0000 C   0  0  0  0  0  0  0  0  0  0  0  0
    3.2165   -7.1156    0.0000 C   0  0  0  0  0  0  0  0  0  0  0  0
    2.4629   -6.7801    0.0000 O   0  0  0  0  0  0  0  0  0  0  0  0
    1.9108   -7.3932    0.0000 C   0  0  0  0  0  0  0  0  0  0  0  0
    2.3233   -8.1076    0.0000 C   0  0  0  0  0  0  0  0  0  0  0  0
    3.1303   -7.9361    0.0000 C   0  0  0  0  0  0  0  0  0  0  0  0
   10.3613   -5.4656    0.0000 O   0  0  0  0  0  0  0  0  0  0  0  0
  1  2  1  0  0  0  0
  2  3  2  0  0  0  0
  3  4  1  0  0  0  0
  1  5  3  0  0  0  0
  5  6  1  0  0  0  0
  6  7  3  0  0  0  0
  7  8  1  0  0  0  0
  8  9  2  0  0  0  0
  9 10  1  0  0  0  0
 10 11  1  0  0  0  0
 11 12  1  0  0  0  0
 12 13  2  0  0  0  0
 13 14  1  0  0  0  0
 14 10  2  0  0  0  0
  4 15  2  0  0  0  0
M  END
>  <cdx:fragmentId>
3

$$$$
