90213.cdx
  Mrv1902 05222410282D          

 22 23  0  0  0  0            999 V2000
    4.6275   -8.5214    0.0000 C   0  0  1  0  0  0  0  0  0  0  0  0
    5.3428   -8.9326    0.0000 C   0  0  1  0  0  0  0  0  0  0  0  0
    6.0565   -8.5188    0.0000 C   0  0  2  0  0  0  0  0  0  0  0  0
    6.0550   -7.6938    0.0000 C   0  0  1  0  0  0  0  0  0  0  0  0
    5.3398   -7.2826    0.0000 O   0  0  0  0  0  0  0  0  0  0  0  0
    4.6261   -7.6964    0.0000 C   0  0  2  0  0  0  0  0  0  0  0  0
   11.8293   -8.4773    0.0000 C   0  0  0  0  0  0  0  0  0  0  0  0
   11.0585   -8.9223    0.0000 O   0  0  0  0  0  0  0  0  0  0  0  0
    9.6296   -8.9249    0.0000 C   0  0  0  0  0  0  0  0  0  0  0  0
   10.3433   -8.5111    0.0000 C   0  0  0  0  0  0  0  0  0  0  0  0
   10.3418   -7.6861    0.0000 C   0  0  0  0  0  0  0  0  0  0  0  0
    9.6266   -7.2749    0.0000 C   0  0  0  0  0  0  0  0  0  0  0  0
    8.9144   -8.5137    0.0000 C   0  0  0  0  0  0  0  0  0  0  0  0
    8.9129   -7.6887    0.0000 C   0  0  0  0  0  0  0  0  0  0  0  0
    3.9109   -7.2851    0.0000 C   0  0  0  0  0  0  0  0  0  0  0  0
    3.2230   -7.6822    0.0000 O   0  0  0  0  0  0  0  0  0  0  0  0
    8.1977   -7.2775    0.0000 C   0  0  0  0  0  0  0  0  0  0  0  0
    7.4839   -7.6912    0.0000 C   0  0  0  0  0  0  0  0  0  0  0  0
    6.7687   -7.2800    0.0000 O   0  0  0  0  0  0  0  0  0  0  0  0
    5.3442   -9.7576    0.0000 O   0  0  0  0  0  0  0  0  0  0  0  0
    3.9138   -8.9351    0.0000 O   0  0  0  0  0  0  0  0  0  0  0  0
    6.7717   -8.9300    0.0000 O   0  0  0  0  0  0  0  0  0  0  0  0
  1  2  1  0  0  0  0
  2  3  1  0  0  0  0
  3  4  1  0  0  0  0
  4  5  1  0  0  0  0
  5  6  1  0  0  0  0
  6  1  1  0  0  0  0
  8  7  1  0  0  0  0
  4 19  1  1  0  0  0
 10  8  1  0  0  0  0
  9 13  2  0  0  0  0
 10  9  1  0  0  0  0
 11 10  2  0  0  0  0
 12 11  1  0  0  0  0
 14 12  2  0  0  0  0
 14 13  1  0  0  0  0
 17 14  1  0  0  0  0
 18 17  1  0  0  0  0
  6 15  1  1  0  0  0
 15 16  1  0  0  0  0
 19 18  1  0  0  0  0
  2 20  1  1  0  0  0
  1 21  1  6  0  0  0
  3 22  1  6  0  0  0
M  END
>  <cdx:fragmentId>
5

$$$$
