90228.cdx
  Mrv1902 05222410262D          

 30 31  0  0  0  0            999 V2000
    4.0268   -7.2176    0.0000 C   0  0  0  0  0  0  0  0  0  0  0  0
    4.0268   -8.0426    0.0000 C   0  0  0  0  0  0  0  0  0  0  0  0
    4.7413   -8.4551    0.0000 C   0  0  0  0  0  0  0  0  0  0  0  0
    5.4557   -8.0426    0.0000 C   0  0  0  0  0  0  0  0  0  0  0  0
    5.4557   -7.2176    0.0000 C   0  0  0  0  0  0  0  0  0  0  0  0
    4.7413   -6.8051    0.0000 C   0  0  0  0  0  0  0  0  0  0  0  0
    6.1702   -8.4551    0.0000 C   0  0  0  0  0  0  0  0  0  0  0  0
    6.8847   -8.0426    0.0000 C   0  0  0  0  0  0  0  0  0  0  0  0
    6.8847   -7.2176    0.0000 C   0  0  0  0  0  0  0  0  0  0  0  0
    7.5992   -8.4551    0.0000 C   0  0  0  0  0  0  0  0  0  0  0  0
    8.3136   -8.0426    0.0000 C   0  0  0  0  0  0  0  0  0  0  0  0
    8.3136   -7.2176    0.0000 C   0  0  0  0  0  0  0  0  0  0  0  0
    9.0281   -8.4551    0.0000 C   0  0  0  0  0  0  0  0  0  0  0  0
    9.7426   -8.0426    0.0000 C   0  0  0  0  0  0  0  0  0  0  0  0
    9.7426   -7.2176    0.0000 C   0  0  0  0  0  0  0  0  0  0  0  0
    9.0281   -6.8051    0.0000 C   0  0  0  0  0  0  0  0  0  0  0  0
    6.8847   -9.6926    0.0000 C   0  0  0  0  0  0  0  0  0  0  0  0
    7.5992   -9.2801    0.0000 C   0  0  0  0  0  0  0  0  0  0  0  0
    4.7413   -9.2801    0.0000 O   0  0  0  0  0  0  0  0  0  0  0  0
    4.0268   -9.6926    0.0000 C   0  0  0  0  0  0  0  0  0  0  0  0
    3.3123   -6.8051    0.0000 O   0  0  0  0  0  0  0  0  0  0  0  0
    3.3123   -5.9801    0.0000 C   0  0  0  0  0  0  0  0  0  0  0  0
    4.7413   -5.9801    0.0000 O   0  0  0  0  0  0  0  0  0  0  0  0
    5.4557   -5.5676    0.0000 C   0  0  0  0  0  0  0  0  0  0  0  0
    9.0281   -9.2801    0.0000 O   0  0  0  0  0  0  0  0  0  0  0  0
    9.7426   -9.6926    0.0000 C   0  0  0  0  0  0  0  0  0  0  0  0
    9.0281   -5.9801    0.0000 O   0  0  0  0  0  0  0  0  0  0  0  0
    9.7426   -5.5676    0.0000 C   0  0  0  0  0  0  0  0  0  0  0  0
   10.4570   -6.8051    0.0000 O   0  0  0  0  0  0  0  0  0  0  0  0
   11.1715   -7.2176    0.0000 C   0  0  0  0  0  0  0  0  0  0  0  0
  1  2  2  0  0  0  0
  2  3  1  0  0  0  0
  3  4  2  0  0  0  0
  4  5  1  0  0  0  0
  5  6  2  0  0  0  0
  6  1  1  0  0  0  0
  4  7  1  0  0  0  0
  7  8  2  0  0  0  0
  8  9  1  0  0  0  0
  8 10  1  0  0  0  0
 10 11  1  0  0  0  0
 11 12  1  0  0  0  0
 11 13  2  0  0  0  0
 13 14  1  0  0  0  0
 14 15  2  0  0  0  0
 15 16  1  0  0  0  0
 16 12  2  0  0  0  0
 17 18  1  0  0  0  0
 18 10  1  0  0  0  0
  3 19  1  0  0  0  0
 19 20  1  0  0  0  0
  1 21  1  0  0  0  0
 21 22  1  0  0  0  0
  6 23  1  0  0  0  0
 23 24  1  0  0  0  0
 13 25  1  0  0  0  0
 25 26  1  0  0  0  0
 16 27  1  0  0  0  0
 27 28  1  0  0  0  0
 15 29  1  0  0  0  0
 29 30  1  0  0  0  0
M  END
>  <cdx:fragmentId>
5

$$$$
