90227.cdx
  Mrv1902 05222410202D          

 23 24  0  0  0  0            999 V2000
    4.2881   -6.6814    0.0000 N   0  0  0  0  0  0  0  0  0  0  0  0
    4.2881   -7.5064    0.0000 C   0  0  0  0  0  0  0  0  0  0  0  0
    5.0025   -7.9189    0.0000 C   0  0  0  0  0  0  0  0  0  0  0  0
    5.7170   -7.5064    0.0000 N   0  0  0  0  0  0  0  0  0  0  0  0
    5.7170   -6.6814    0.0000 C   0  0  0  0  0  0  0  0  0  0  0  0
    5.0025   -6.2689    0.0000 C   0  0  0  0  0  0  0  0  0  0  0  0
    6.4315   -7.9189    0.0000 C   0  0  0  0  0  0  0  0  0  0  0  0
    7.1459   -7.5064    0.0000 C   0  0  0  0  0  0  0  0  0  0  0  0
    7.1459   -6.6814    0.0000 O   0  0  0  0  0  0  0  0  0  0  0  0
    6.4315   -6.2689    0.0000 O   0  0  0  0  0  0  0  0  0  0  0  0
    7.8604   -7.9189    0.0000 C   0  0  0  0  0  0  0  0  0  0  0  0
    8.5749   -7.5064    0.0000 C   0  0  0  0  0  0  0  0  0  0  0  0
    8.5749   -6.6814    0.0000 O   0  0  0  0  0  0  0  0  0  0  0  0
    7.8604   -8.7439    0.0000 O   0  0  0  0  0  0  0  0  0  0  0  0
    9.2894   -7.9189    0.0000 C   0  0  0  0  0  0  0  0  0  0  0  0
    3.5736   -7.9189    0.0000 C   0  0  0  0  0  0  0  0  0  0  0  0
    3.5736   -8.7439    0.0000 C   0  0  0  0  0  0  0  0  0  0  0  0
    4.2881   -9.1564    0.0000 C   0  0  0  0  0  0  0  0  0  0  0  0
    5.0025   -8.7439    0.0000 C   0  0  0  0  0  0  0  0  0  0  0  0
    2.8591   -9.1564    0.0000 C   0  0  0  0  0  0  0  0  0  0  0  0
    4.2881   -9.9814    0.0000 C   0  0  0  0  0  0  0  0  0  0  0  0
    5.0025   -5.4439    0.0000 O   0  0  0  0  0  0  0  0  0  0  0  0
    9.2894   -8.7439    0.0000 O   0  0  0  0  0  0  0  0  0  0  0  0
  1  2  1  0  0  0  0
  2  3  1  0  0  0  0
  3  4  1  0  0  0  0
  4  5  1  0  0  0  0
  5  6  1  0  0  0  0
  6  1  1  0  0  0  0
  4  7  1  0  0  0  0
  7  8  1  0  0  0  0
  8  9  1  0  0  0  0
 10  5  2  0  0  0  0
  8 11  1  0  0  0  0
 11 12  1  0  0  0  0
 12 13  1  0  0  0  0
 11 14  1  0  0  0  0
 15 12  1  0  0  0  0
  2 16  2  0  0  0  0
 16 17  1  0  0  0  0
 17 18  2  0  0  0  0
 18 19  1  0  0  0  0
 19  3  2  0  0  0  0
 17 20  1  0  0  0  0
 18 21  1  0  0  0  0
  6 22  2  0  0  0  0
 15 23  1  0  0  0  0
M  END
>  <cdx:fragmentId>
5

$$$$
