90226.cdx
  Mrv1902 05222410202D          

 21 24  0  0  0  0            999 V2000
    5.4981   -6.5989    0.0000 C   0  0  0  0  0  0  0  0  0  0  0  0
    5.4981   -7.4239    0.0000 C   0  0  0  0  0  0  0  0  0  0  0  0
    6.2125   -7.8364    0.0000 C   0  0  0  0  0  0  0  0  0  0  0  0
    6.9270   -7.4239    0.0000 C   0  0  0  0  0  0  0  0  0  0  0  0
    6.9270   -6.5989    0.0000 C   0  0  0  0  0  0  0  0  0  0  0  0
    6.2125   -6.1864    0.0000 C   0  0  0  0  0  0  0  0  0  0  0  0
    7.6415   -7.8364    0.0000 C   0  0  0  0  0  0  0  0  0  0  0  0
    8.3559   -7.4239    0.0000 N   0  0  0  0  0  0  0  0  0  0  0  0
    8.3559   -6.5989    0.0000 C   0  0  0  0  0  0  0  0  0  0  0  0
    7.6415   -6.1864    0.0000 C   0  0  0  0  0  0  0  0  0  0  0  0
    6.5498   -8.7158    0.0000 C   0  0  0  0  0  0  0  0  0  0  0  0
    7.3454   -8.7158    0.0000 C   0  0  0  0  0  0  0  0  0  0  0  0
    6.1520   -9.4048    0.0000 C   0  0  0  0  0  0  0  0  0  0  0  0
    6.5498  -10.0939    0.0000 C   0  0  0  0  0  0  0  0  0  0  0  0
    7.3454  -10.0939    0.0000 C   0  0  0  0  0  0  0  0  0  0  0  0
    7.7433   -9.4048    0.0000 C   0  0  0  0  0  0  0  0  0  0  0  0
    5.3270   -9.4048    0.0000 O   0  0  0  0  0  0  0  0  0  0  0  0
    4.7836   -6.1864    0.0000 O   0  0  0  0  0  0  0  0  0  0  0  0
    4.0691   -6.5989    0.0000 C   0  0  0  0  0  0  0  0  0  0  0  0
    4.7836   -7.8364    0.0000 O   0  0  0  0  0  0  0  0  0  0  0  0
    4.0691   -7.4239    0.0000 C   0  0  0  0  0  0  0  0  0  0  0  0
  1  2  2  0  0  0  0
  2  3  1  0  0  0  0
  3  4  2  0  0  0  0
  4  5  1  0  0  0  0
  5  6  2  0  0  0  0
  6  1  1  0  0  0  0
  4  7  1  0  0  0  0
  7  8  2  0  0  0  0
  8  9  1  0  0  0  0
  9 10  2  0  0  0  0
 10  5  1  0  0  0  0
  3 11  1  0  0  0  0
  7 12  1  0  0  0  0
 11 12  2  0  0  0  0
 11 13  1  0  0  0  0
 13 14  2  0  0  0  0
 14 15  1  0  0  0  0
 15 16  2  0  0  0  0
 16 12  1  0  0  0  0
 13 17  1  0  0  0  0
  1 18  1  0  0  0  0
 18 19  1  0  0  0  0
  2 20  1  0  0  0  0
 20 21  1  0  0  0  0
M  END
>  <cdx:fragmentId>
5

$$$$
