90232.cdx
  Mrv1902 05222410202D          

 14 15  0  0  0  0            999 V2000
    5.2368   -6.9701    0.0000 C   0  0  0  0  0  0  0  0  0  0  0  0
    5.2368   -7.7951    0.0000 C   0  0  0  0  0  0  0  0  0  0  0  0
    5.9513   -8.2076    0.0000 C   0  0  0  0  0  0  0  0  0  0  0  0
    6.6657   -7.7951    0.0000 C   0  0  0  0  0  0  0  0  0  0  0  0
    6.6657   -6.9701    0.0000 C   0  0  0  0  0  0  0  0  0  0  0  0
    5.9513   -6.5576    0.0000 C   0  0  0  0  0  0  0  0  0  0  0  0
    7.4504   -8.0501    0.0000 O   0  0  0  0  0  0  0  0  0  0  0  0
    7.9353   -7.3826    0.0000 C   0  0  0  0  0  0  0  0  0  0  0  0
    7.4504   -6.7152    0.0000 C   0  0  0  0  0  0  0  0  0  0  0  0
    4.5223   -8.2076    0.0000 O   0  0  0  0  0  0  0  0  0  0  0  0
    5.5388   -5.8432    0.0000 C   0  0  0  0  0  0  0  0  0  0  0  0
    6.3638   -5.8432    0.0000 C   0  0  0  0  0  0  0  0  0  0  0  0
    6.7520   -8.6156    0.0000 C   0  0  0  0  0  0  0  0  0  0  0  0
    8.7603   -7.3826    0.0000 O   0  0  0  0  0  0  0  0  0  0  0  0
  1  2  1  0  0  0  0
  2  3  1  0  0  0  0
  3  4  1  0  0  0  0
  4  5  1  0  0  0  0
  5  6  1  0  0  0  0
  6  1  1  0  0  0  0
  4  7  1  0  0  0  0
  7  8  1  0  0  0  0
  8  9  1  0  0  0  0
  9  5  2  0  0  0  0
  2 10  2  0  0  0  0
  6 11  1  0  0  0  0
  6 12  1  0  0  0  0
  4 13  1  0  0  0  0
  8 14  2  0  0  0  0
M  END
>  <cdx:fragmentId>
5

$$$$
