90236.cdx
  Mrv1902 05222410182D          

 23 24  0  0  0  0            999 V2000
    5.8418  -11.9064    0.0000 C   0  0  2  0  0  0  0  0  0  0  0  0
    5.8418  -12.7314    0.0000 C   0  0  2  0  0  0  0  0  0  0  0  0
    6.5563  -13.1439    0.0000 C   0  0  1  0  0  0  0  0  0  0  0  0
    7.2707  -12.7314    0.0000 C   0  0  2  0  0  0  0  0  0  0  0  0
    7.2707  -11.9064    0.0000 C   0  0  1  0  0  0  0  0  0  0  0  0
    6.5563  -11.4939    0.0000 O   0  0  0  0  0  0  0  0  0  0  0  0
    7.9852  -11.4939    0.0000 O   0  0  0  0  0  0  0  0  0  0  0  0
    7.9852  -10.6689    0.0000 C   0  0  0  0  0  0  0  0  0  0  0  0
    7.2707  -10.2564    0.0000 C   0  0  0  0  0  0  0  0  0  0  0  0
    6.5563  -10.6689    0.0000 O   0  0  0  0  0  0  0  0  0  0  0  0
    8.6997  -10.2564    0.0000 C   0  0  0  0  0  0  0  0  0  0  0  0
    8.6997   -9.4314    0.0000 C   0  0  0  0  0  0  0  0  0  0  0  0
    7.9852   -9.0189    0.0000 C   0  0  0  0  0  0  0  0  0  0  0  0
    7.2707   -9.4314    0.0000 C   0  0  0  0  0  0  0  0  0  0  0  0
    5.1273  -11.4939    0.0000 C   0  0  0  0  0  0  0  0  0  0  0  0
    4.4129  -11.9064    0.0000 O   0  0  0  0  0  0  0  0  0  0  0  0
    5.1273  -13.1439    0.0000 O   0  0  0  0  0  0  0  0  0  0  0  0
    6.5563   -9.0189    0.0000 O   0  0  0  0  0  0  0  0  0  0  0  0
    9.4142   -9.0189    0.0000 C   0  0  0  0  0  0  0  0  0  0  0  0
   10.1286   -9.4314    0.0000 O   0  0  0  0  0  0  0  0  0  0  0  0
    9.4142   -8.1939    0.0000 O   0  0  0  0  0  0  0  0  0  0  0  0
    6.5563  -13.9689    0.0000 O   0  0  0  0  0  0  0  0  0  0  0  0
    7.9852  -13.1439    0.0000 O   0  0  0  0  0  0  0  0  0  0  0  0
  1  2  1  0  0  0  0
  2  3  1  0  0  0  0
  3  4  1  0  0  0  0
  4  5  1  0  0  0  0
  5  6  1  0  0  0  0
  6  1  1  0  0  0  0
  5  7  1  1  0  0  0
  7  8  1  0  0  0  0
  8  9  1  0  0  0  0
  9 10  1  0  0  0  0
  8 11  2  0  0  0  0
 11 12  1  0  0  0  0
 12 13  2  0  0  0  0
 13 14  1  0  0  0  0
 14  9  2  0  0  0  0
  1 15  1  1  0  0  0
 15 16  1  0  0  0  0
  2 17  1  6  0  0  0
 14 18  1  0  0  0  0
 12 19  1  0  0  0  0
 19 20  1  0  0  0  0
 19 21  2  0  0  0  0
  3 22  1  1  0  0  0
  4 23  1  6  0  0  0
M  END
>  <cdx:fragmentId>
5

$$$$
