90231.cdx
  Mrv1902 05222410192D          

 31 34  0  0  0  0            999 V2000
    2.7756   -7.0114    0.0000 C   0  0  0  0  0  0  0  0  0  0  0  0
    2.7756   -7.8364    0.0000 C   0  0  0  0  0  0  0  0  0  0  0  0
    3.4900   -8.2489    0.0000 O   0  0  0  0  0  0  0  0  0  0  0  0
    4.2045   -7.8364    0.0000 C   0  0  0  0  0  0  0  0  0  0  0  0
    4.2045   -7.0114    0.0000 C   0  0  0  0  0  0  0  0  0  0  0  0
    3.4900   -6.5989    0.0000 C   0  0  0  0  0  0  0  0  0  0  0  0
    4.9190   -8.2489    0.0000 C   0  0  0  0  0  0  0  0  0  0  0  0
    5.6334   -7.8364    0.0000 C   0  0  0  0  0  0  0  0  0  0  0  0
    5.6334   -7.0114    0.0000 C   0  0  0  0  0  0  0  0  0  0  0  0
    4.9190   -6.5989    0.0000 C   0  0  0  0  0  0  0  0  0  0  0  0
    6.3479   -8.2489    0.0000 O   0  0  0  0  0  0  0  0  0  0  0  0
    7.0624   -7.8364    0.0000 C   0  0  0  0  0  0  0  0  0  0  0  0
    7.0624   -7.0114    0.0000 C   0  0  0  0  0  0  0  0  0  0  0  0
    6.3479   -6.5989    0.0000 C   0  0  0  0  0  0  0  0  0  0  0  0
    7.7769   -8.2489    0.0000 C   0  0  0  0  0  0  0  0  0  0  0  0
    8.4913   -7.8364    0.0000 C   0  0  0  0  0  0  0  0  0  0  0  0
    7.7769   -6.5989    0.0000 O   0  0  0  0  0  0  0  0  0  0  0  0
    7.7769   -9.0739    0.0000 C   0  0  0  0  0  0  0  0  0  0  0  0
    8.4913   -9.4864    0.0000 C   0  0  0  0  0  0  0  0  0  0  0  0
    9.2058   -9.0739    0.0000 C   0  0  0  0  0  0  0  0  0  0  0  0
    9.2058   -8.2489    0.0000 C   0  0  0  0  0  0  0  0  0  0  0  0
    4.2045   -9.4864    0.0000 C   0  0  0  0  0  0  0  0  0  0  0  0
    4.9190   -9.0739    0.0000 C   0  0  0  0  0  0  0  0  0  0  0  0
    4.2045  -10.3114    0.0000 C   0  0  0  0  0  0  0  0  0  0  0  0
    4.9190  -10.7239    0.0000 C   0  0  0  0  0  0  0  0  0  0  0  0
    1.9506   -7.8364    0.0000 C   0  0  0  0  0  0  0  0  0  0  0  0
    2.5620   -8.6333    0.0000 C   0  0  0  0  0  0  0  0  0  0  0  0
    4.9190   -5.7739    0.0000 O   0  0  0  0  0  0  0  0  0  0  0  0
    6.3479   -5.7739    0.0000 O   0  0  0  0  0  0  0  0  0  0  0  0
    9.9203   -9.4864    0.0000 O   0  0  0  0  0  0  0  0  0  0  0  0
    3.4900  -10.7239    0.0000 C   0  0  0  0  0  0  0  0  0  0  0  0
  1  2  1  0  0  0  0
  2  3  1  0  0  0  0
  3  4  1  0  0  0  0
  4  5  1  0  0  0  0
  5  6  1  0  0  0  0
  6  1  2  0  0  0  0
  4  7  2  0  0  0  0
  7  8  1  0  0  0  0
  8  9  2  0  0  0  0
  9 10  1  0  0  0  0
 10  5  2  0  0  0  0
  8 11  1  0  0  0  0
 11 12  1  0  0  0  0
 12 13  2  0  0  0  0
 13 14  1  0  0  0  0
 14  9  1  0  0  0  0
 12 15  1  0  0  0  0
 15 16  2  0  0  0  0
 17 13  1  0  0  0  0
 15 18  1  0  0  0  0
 18 19  2  0  0  0  0
 19 20  1  0  0  0  0
 20 21  2  0  0  0  0
 21 16  1  0  0  0  0
 22 23  1  0  0  0  0
 23  7  1  0  0  0  0
 22 24  2  0  0  0  0
 24 25  1  0  0  0  0
  2 26  1  0  0  0  0
  2 27  1  0  0  0  0
 10 28  1  0  0  0  0
 14 29  2  0  0  0  0
 20 30  1  0  0  0  0
 24 31  1  0  0  0  0
M  END
>  <cdx:fragmentId>
5

$$$$
