9023.cdx
  Mrv1902 05222410192D          

 44 47  0  0  0  0            999 V2000
    3.9530   -5.7523    0.0000 C   0  0  0  0  0  0  0  0  0  0  0  0
    3.2365   -5.3434    0.0000 C   0  0  0  0  0  0  0  0  0  0  0  0
    2.5240   -5.7594    0.0000 C   0  0  0  0  0  0  0  0  0  0  0  0
    2.5281   -6.5844    0.0000 C   0  0  0  0  0  0  0  0  0  0  0  0
    3.2446   -6.9933    0.0000 C   0  0  0  0  0  0  0  0  0  0  0  0
    3.9570   -6.5773    0.0000 C   0  0  0  0  0  0  0  0  0  0  0  0
    3.9644   -9.0551    0.0000 C   0  0  0  0  0  0  0  0  0  0  0  0
    3.9636   -8.2301    0.0000 C   0  0  0  0  0  0  0  0  0  0  0  0
    3.2487   -7.8183    0.0000 C   0  0  0  0  0  0  0  0  0  0  0  0
    4.6793   -9.4668    0.0000 C   0  0  2  0  0  0  0  0  0  0  0  0
    5.3934   -9.0536    0.0000 O   0  0  0  0  0  0  0  0  0  0  0  0
    5.3925   -8.2286    0.0000 O   0  0  0  0  0  0  0  0  0  0  0  0
    4.6776   -7.8168    0.0000 C   0  0  0  0  0  0  0  0  0  0  0  0
    6.1083   -9.4653    0.0000 C   0  0  1  0  0  0  0  0  0  0  0  0
    6.8223   -9.0521    0.0000 O   0  0  0  0  0  0  0  0  0  0  0  0
    6.8215   -8.2271    0.0000 C   0  0  1  0  0  0  0  0  0  0  0  0
    6.1065   -7.8153    0.0000 C   0  0  1  0  0  0  0  0  0  0  0  0
    4.6802  -10.2918    0.0000 C   0  0  1  0  0  0  0  0  0  0  0  0
    5.3951  -10.7036    0.0000 C   0  0  2  0  0  0  0  0  0  0  0  0
    6.1092  -10.2903    0.0000 C   0  0  1  0  0  0  0  0  0  0  0  0
    7.5355   -7.8138    0.0000 C   0  0  2  0  0  0  0  0  0  0  0  0
    7.5346   -6.9888    0.0000 C   0  0  1  0  0  0  0  0  0  0  0  0
    6.8197   -6.5771    0.0000 O   0  0  0  0  0  0  0  0  0  0  0  0
    6.1057   -6.9903    0.0000 C   0  0  2  0  0  0  0  0  0  0  0  0
    8.2504   -8.2256    0.0000 O   0  0  0  0  0  0  0  0  0  0  0  0
    8.9636   -6.9873    0.0000 C   0  0  0  0  0  0  0  0  0  0  0  0
    8.2487   -6.5756    0.0000 O   0  0  0  0  0  0  0  0  0  0  0  0
   10.3934   -7.8108    0.0000 C   0  0  0  0  0  0  0  0  0  0  0  0
   10.3925   -6.9858    0.0000 C   0  0  0  0  0  0  0  0  0  0  0  0
    9.6776   -6.5741    0.0000 C   0  0  0  0  0  0  0  0  0  0  0  0
   11.1083   -8.2226    0.0000 C   0  0  0  0  0  0  0  0  0  0  0  0
   11.8223   -7.8093    0.0000 C   0  0  0  0  0  0  0  0  0  0  0  0
   11.8214   -6.9843    0.0000 C   0  0  0  0  0  0  0  0  0  0  0  0
   11.1065   -6.5726    0.0000 C   0  0  0  0  0  0  0  0  0  0  0  0
    4.6654   -5.3363    0.0000 O   0  0  0  0  0  0  0  0  0  0  0  0
    3.2324   -4.5184    0.0000 O   0  0  0  0  0  0  0  0  0  0  0  0
    4.6767   -6.9918    0.0000 O   0  0  0  0  0  0  0  0  0  0  0  0
    5.3908   -6.5786    0.0000 C   0  0  0  0  0  0  0  0  0  0  0  0
    5.3899   -5.7536    0.0000 O   0  0  0  0  0  0  0  0  0  0  0  0
   12.5355   -6.5710    0.0000 O   0  0  0  0  0  0  0  0  0  0  0  0
   12.5372   -8.2210    0.0000 O   0  0  0  0  0  0  0  0  0  0  0  0
    3.9662  -10.7051    0.0000 O   0  0  0  0  0  0  0  0  0  0  0  0
    6.8241  -10.7021    0.0000 O   0  0  0  0  0  0  0  0  0  0  0  0
    5.3960  -11.5286    0.0000 O   0  0  0  0  0  0  0  0  0  0  0  0
  1  2  1  0  0  0  0
  2  3  2  0  0  0  0
  3  4  1  0  0  0  0
  4  5  2  0  0  0  0
  5  6  1  0  0  0  0
  6  1  2  0  0  0  0
  8  9  2  0  0  0  0
  9  5  1  0  0  0  0
 10  7  1  6  0  0  0
 10 11  1  0  0  0  0
 12 13  1  0  0  0  0
 13  8  1  0  0  0  0
 11 14  1  0  0  0  0
 14 15  1  1  0  0  0
 16 15  1  1  0  0  0
 16 17  1  0  0  0  0
 17 12  1  6  0  0  0
 10 18  1  0  0  0  0
 18 19  1  0  0  0  0
 19 20  1  0  0  0  0
 20 14  1  0  0  0  0
 16 21  1  0  0  0  0
 21 22  1  0  0  0  0
 22 23  1  0  0  0  0
 23 24  1  0  0  0  0
 24 17  1  0  0  0  0
 21 25  1  6  0  0  0
 26 27  1  0  0  0  0
 22 27  1  1  0  0  0
 28 29  2  0  0  0  0
 29 30  1  0  0  0  0
 30 26  1  0  0  0  0
 28 31  1  0  0  0  0
 31 32  2  0  0  0  0
 32 33  1  0  0  0  0
 33 34  2  0  0  0  0
 34 29  1  0  0  0  0
  1 35  1  0  0  0  0
  2 36  1  0  0  0  0
 13 37  2  0  0  0  0
 24 38  1  1  0  0  0
 38 39  1  0  0  0  0
 33 40  1  0  0  0  0
 32 41  1  0  0  0  0
 18 42  1  1  0  0  0
 20 43  1  6  0  0  0
 19 44  1  6  0  0  0
M  END
>  <cdx:fragmentId>
5

$$$$
