90237.cdx
  Mrv1902 05222410182D          

 34 36  0  0  0  0            999 V2000
    6.5774   -9.8165    0.0000 C   0  0  2  0  0  0  0  0  0  0  0  0
    5.8580  -10.2203    0.0000 C   0  0  2  0  0  0  0  0  0  0  0  0
    5.8480  -11.0453    0.0000 C   0  0  1  0  0  0  0  0  0  0  0  0
    6.5575  -11.4664    0.0000 C   0  0  2  0  0  0  0  0  0  0  0  0
    7.2769  -11.0626    0.0000 C   0  0  1  0  0  0  0  0  0  0  0  0
    7.2869  -10.2376    0.0000 O   0  0  0  0  0  0  0  0  0  0  0  0
    6.5874   -8.9916    0.0000 C   0  0  0  0  0  0  0  0  0  0  0  0
    5.8780   -8.5705    0.0000 O   0  0  0  0  0  0  0  0  0  0  0  0
    5.1486   -9.7992    0.0000 O   0  0  0  0  0  0  0  0  0  0  0  0
    7.3168   -7.7628    0.0000 C   0  0  0  0  0  0  0  0  0  0  0  0
    6.6074   -7.3417    0.0000 C   0  0  0  0  0  0  0  0  0  0  0  0
    5.8880   -7.7455    0.0000 C   0  0  0  0  0  0  0  0  0  0  0  0
    8.0362   -7.3590    0.0000 C   0  0  0  0  0  0  0  0  0  0  0  0
    8.0462   -6.5341    0.0000 C   0  0  0  0  0  0  0  0  0  0  0  0
    7.3368   -6.1129    0.0000 C   0  0  0  0  0  0  0  0  0  0  0  0
    6.6174   -6.5168    0.0000 C   0  0  0  0  0  0  0  0  0  0  0  0
    5.1786   -7.3244    0.0000 O   0  0  0  0  0  0  0  0  0  0  0  0
    7.3468   -5.2880    0.0000 O   0  0  0  0  0  0  0  0  0  0  0  0
    8.7656   -6.1302    0.0000 O   0  0  0  0  0  0  0  0  0  0  0  0
    8.7457   -7.7801    0.0000 O   0  0  0  0  0  0  0  0  0  0  0  0
    5.1286  -11.4491    0.0000 O   0  0  0  0  0  0  0  0  0  0  0  0
    6.5475  -12.2913    0.0000 O   0  0  0  0  0  0  0  0  0  0  0  0
    9.4234  -12.3147    0.0000 O   0  0  0  0  0  0  0  0  0  0  0  0
    9.4234  -11.4897    0.0000 C   0  0  0  0  0  0  0  0  0  0  0  0
    8.7089  -11.0772    0.0000 C   0  0  0  0  0  0  0  0  0  0  0  0
    7.9945  -11.4897    0.0000 O   0  0  0  0  0  0  0  0  0  0  0  0
   10.1379  -11.0772    0.0000 C   0  0  0  0  0  0  0  0  0  0  0  0
   10.1379  -10.2522    0.0000 C   0  0  0  0  0  0  0  0  0  0  0  0
    9.4234   -9.8397    0.0000 C   0  0  0  0  0  0  0  0  0  0  0  0
    8.7089  -10.2522    0.0000 C   0  0  0  0  0  0  0  0  0  0  0  0
    7.9945   -9.8397    0.0000 O   0  0  0  0  0  0  0  0  0  0  0  0
   10.8524   -9.8397    0.0000 C   0  0  0  0  0  0  0  0  0  0  0  0
   11.5668  -10.2522    0.0000 O   0  0  0  0  0  0  0  0  0  0  0  0
   10.8524   -9.0147    0.0000 O   0  0  0  0  0  0  0  0  0  0  0  0
  1  2  1  0  0  0  0
  2  3  1  0  0  0  0
  3  4  1  0  0  0  0
  4  5  1  0  0  0  0
  5  6  1  0  0  0  0
  6  1  1  0  0  0  0
  1  7  1  1  0  0  0
  7  8  1  0  0  0  0
  2  9  1  6  0  0  0
 10 11  2  0  0  0  0
 11 12  1  0  0  0  0
 12  8  1  0  0  0  0
 10 13  1  0  0  0  0
 13 14  2  0  0  0  0
 14 15  1  0  0  0  0
 15 16  2  0  0  0  0
 16 11  1  0  0  0  0
 12 17  2  0  0  0  0
 15 18  1  0  0  0  0
 14 19  1  0  0  0  0
 13 20  1  0  0  0  0
  3 21  1  1  0  0  0
  4 22  1  6  0  0  0
 23 24  1  0  0  0  0
 24 25  1  0  0  0  0
 25 26  1  0  0  0  0
 24 27  2  0  0  0  0
 27 28  1  0  0  0  0
 28 29  2  0  0  0  0
 29 30  1  0  0  0  0
 30 25  2  0  0  0  0
 30 31  1  0  0  0  0
 28 32  1  0  0  0  0
 32 33  1  0  0  0  0
 32 34  2  0  0  0  0
  5 26  1  1  0  0  0
M  END
>  <cdx:fragmentId>
5

$$$$
