90242.cdx
  Mrv1902 05222410212D          

 23 22  0  0  0  0            999 V2000
    4.7316   -7.3081    0.0000 C   0  0  0  0  0  0  0  0  0  0  0  0
    4.7316   -8.1331    0.0000 C   0  0  0  0  0  0  0  0  0  0  0  0
    5.4460   -8.5456    0.0000 C   0  0  0  0  0  0  0  0  0  0  0  0
    5.4460   -9.3706    0.0000 C   0  0  0  0  0  0  0  0  0  0  0  0
    4.0171   -8.5456    0.0000 C   0  0  0  0  0  0  0  0  0  0  0  0
    4.0171   -9.3706    0.0000 O   0  0  0  0  0  0  0  0  0  0  0  0
    3.3026   -8.1331    0.0000 O   0  0  0  0  0  0  0  0  0  0  0  0
    3.3026   -9.7831    0.0000 C   0  0  0  0  0  0  0  0  0  0  0  0
    3.3026  -10.6081    0.0000 C   0  0  0  0  0  0  0  0  0  0  0  0
    4.0171  -11.0206    0.0000 C   0  0  0  0  0  0  0  0  0  0  0  0
    4.7316  -10.6081    0.0000 O   0  0  0  0  0  0  0  0  0  0  0  0
    4.0171  -11.8456    0.0000 C   0  0  0  0  0  0  0  0  0  0  0  0
    4.7316  -12.2581    0.0000 C   0  0  0  0  0  0  0  0  0  0  0  0
    4.7316  -13.0831    0.0000 C   0  0  0  0  0  0  0  0  0  0  0  0
    5.4460  -13.4956    0.0000 C   0  0  0  0  0  0  0  0  0  0  0  0
    5.4352  -14.3238    0.0000 C   0  0  0  0  0  0  0  0  0  0  0  0
    5.4253  -15.1487    0.0000 C   0  0  0  0  0  0  0  0  0  0  0  0
    5.4154  -15.9736    0.0000 C   0  0  0  0  0  0  0  0  0  0  0  0
    5.4054  -16.7986    0.0000 C   0  0  0  0  0  0  0  0  0  0  0  0
    5.3955  -17.6235    0.0000 C   0  0  0  0  0  0  0  0  0  0  0  0
    6.1100  -18.0360    0.0000 C   0  0  0  0  0  0  0  0  0  0  0  0
    6.1100  -18.8610    0.0000 C   0  0  0  0  0  0  0  0  0  0  0  0
    6.8244  -19.2735    0.0000 O   0  0  0  0  0  0  0  0  0  0  0  0
  1  2  1  0  0  0  0
  2  3  1  0  0  0  0
  3  4  1  0  0  0  0
  2  5  1  0  0  0  0
  5  6  1  0  0  0  0
  5  7  2  0  0  0  0
  6  8  1  0  0  0  0
  8  9  1  0  0  0  0
  9 10  1  0  0  0  0
 10 11  1  0  0  0  0
 10 12  1  0  0  0  0
 12 13  2  0  0  0  0
 13 14  1  0  0  0  0
 14 15  2  0  0  0  0
 16 17  3  0  0  0  0
 17 18  1  0  0  0  0
 18 19  3  0  0  0  0
 19 20  1  0  0  0  0
 16 15  1  0  0  0  0
 20 21  2  0  0  0  0
 21 22  1  0  0  0  0
 22 23  1  0  0  0  0
M  END
>  <cdx:fragmentId>
69

$$$$
