90246.cdx
  Mrv1902 05222410222D          

  9  8  0  0  0  0            999 V2000
    3.9438   -7.3826    0.0000 C   0  0  0  0  0  0  0  0  0  0  0  0
    4.6582   -7.7951    0.0000 C   0  0  0  0  0  0  0  0  0  0  0  0
    5.3727   -7.3826    0.0000 C   0  0  0  0  0  0  0  0  0  0  0  0
    6.0872   -7.7951    0.0000 C   0  0  0  0  0  0  0  0  0  0  0  0
    6.8017   -7.3826    0.0000 C   0  0  0  0  0  0  0  0  0  0  0  0
    7.5161   -7.7951    0.0000 C   0  0  0  0  0  0  0  0  0  0  0  0
    8.2306   -7.3826    0.0000 C   0  0  0  0  0  0  0  0  0  0  0  0
    8.9451   -7.7951    0.0000 S   0  0  0  0  0  0  0  0  0  0  0  0
    9.6595   -7.3826    0.0000 C   0  0  0  0  0  0  0  0  0  0  0  0
  1  2  1  0  0  0  0
  2  3  1  0  0  0  0
  3  4  1  0  0  0  0
  4  5  1  0  0  0  0
  5  6  1  0  0  0  0
  6  7  1  0  0  0  0
  7  8  1  0  0  0  0
  8  9  1  0  0  0  0
M  END
>  <cdx:fragmentId>
3

$$$$
