90243.cdx
  Mrv1902 05222410212D          

 23 22  0  0  0  0            999 V2000
    5.2615   -5.4166    0.0000 C   0  0  0  0  0  0  0  0  0  0  0  0
    5.9759   -5.8291    0.0000 C   0  0  0  0  0  0  0  0  0  0  0  0
    6.6904   -5.4166    0.0000 C   0  0  0  0  0  0  0  0  0  0  0  0
    5.9759   -6.6541    0.0000 C   0  0  0  0  0  0  0  0  0  0  0  0
    5.2615   -7.0666    0.0000 C   0  0  0  0  0  0  0  0  0  0  0  0
    5.2615   -7.8916    0.0000 O   0  0  0  0  0  0  0  0  0  0  0  0
    4.5470   -6.6541    0.0000 O   0  0  0  0  0  0  0  0  0  0  0  0
    4.5470   -8.3041    0.0000 C   0  0  0  0  0  0  0  0  0  0  0  0
    4.5470   -9.1291    0.0000 C   0  0  0  0  0  0  0  0  0  0  0  0
    5.2615   -9.5416    0.0000 C   0  0  0  0  0  0  0  0  0  0  0  0
    5.9759   -9.1291    0.0000 O   0  0  0  0  0  0  0  0  0  0  0  0
    5.2615  -10.3666    0.0000 C   0  0  0  0  0  0  0  0  0  0  0  0
    5.9759  -10.7791    0.0000 C   0  0  0  0  0  0  0  0  0  0  0  0
    5.9759  -11.6041    0.0000 C   0  0  0  0  0  0  0  0  0  0  0  0
    6.6904  -12.0166    0.0000 C   0  0  0  0  0  0  0  0  0  0  0  0
    6.6904  -12.8416    0.0000 C   0  0  0  0  0  0  0  0  0  0  0  0
    6.6904  -13.6666    0.0000 C   0  0  0  0  0  0  0  0  0  0  0  0
    6.6904  -14.4916    0.0000 C   0  0  0  0  0  0  0  0  0  0  0  0
    6.6904  -15.3166    0.0000 C   0  0  0  0  0  0  0  0  0  0  0  0
    6.6904  -16.1416    0.0000 C   0  0  0  0  0  0  0  0  0  0  0  0
    7.4049  -16.5541    0.0000 C   0  0  0  0  0  0  0  0  0  0  0  0
    7.4049  -17.3791    0.0000 C   0  0  0  0  0  0  0  0  0  0  0  0
    8.1193  -17.7916    0.0000 O   0  0  0  0  0  0  0  0  0  0  0  0
  1  2  1  0  0  0  0
  2  3  1  0  0  0  0
  2  4  1  0  0  0  0
  4  5  1  0  0  0  0
  5  6  1  0  0  0  0
  5  7  2  0  0  0  0
  6  8  1  0  0  0  0
  8  9  1  0  0  0  0
  9 10  1  0  0  0  0
 10 11  1  0  0  0  0
 10 12  1  0  0  0  0
 12 13  2  0  0  0  0
 13 14  1  0  0  0  0
 14 15  2  0  0  0  0
 15 16  1  0  0  0  0
 16 17  3  0  0  0  0
 17 18  1  0  0  0  0
 18 19  3  0  0  0  0
 19 20  1  0  0  0  0
 20 21  2  0  0  0  0
 21 22  1  0  0  0  0
 22 23  1  0  0  0  0
M  END
>  <cdx:fragmentId>
69

$$$$
