90248.cdx
  Mrv1902 05222410232D          

 20 22  0  0  0  0            999 V2000
    7.8266  -10.0779    0.0000 C   0  0  0  0  0  0  0  0  0  0  0  0
    8.5411   -9.6655    0.0000 C   0  0  0  0  0  0  0  0  0  0  0  0
    8.5413   -8.8405    0.0000 C   0  0  0  0  0  0  0  0  0  0  0  0
    7.8269   -8.4279    0.0000 C   0  0  0  0  0  0  0  0  0  0  0  0
    7.1123   -8.8403    0.0000 C   0  0  0  0  0  0  0  0  0  0  0  0
    7.1122   -9.6653    0.0000 C   0  0  0  0  0  0  0  0  0  0  0  0
    7.8270   -7.6029    0.0000 O   0  0  0  0  0  0  0  0  0  0  0  0
    7.1126   -7.1903    0.0000 C   0  0  0  0  0  0  0  0  0  0  0  0
    6.3981   -7.6026    0.0000 C   0  0  0  0  0  0  0  0  0  0  0  0
    6.3979   -8.4276    0.0000 C   0  0  0  0  0  0  0  0  0  0  0  0
    7.1128   -6.3653    0.0000 O   0  0  0  0  0  0  0  0  0  0  0  0
    5.6838   -6.3650    0.0000 O   0  0  0  0  0  0  0  0  0  0  0  0
    5.6837   -7.1900    0.0000 C   0  0  0  0  0  0  0  0  0  0  0  0
    4.9691   -7.6024    0.0000 C   0  0  0  0  0  0  0  0  0  0  0  0
    4.9690   -8.4274    0.0000 C   0  0  0  0  0  0  0  0  0  0  0  0
    5.6834   -8.8400    0.0000 C   0  0  0  0  0  0  0  0  0  0  0  0
    6.3976  -10.0776    0.0000 C   0  0  0  0  0  0  0  0  0  0  0  0
    9.2555  -10.0782    0.0000 O   0  0  0  0  0  0  0  0  0  0  0  0
    5.6832   -9.6650    0.0000 O   0  0  0  0  0  0  0  0  0  0  0  0
    4.9687  -10.0774    0.0000 C   0  0  0  0  0  0  0  0  0  0  0  0
  1  2  1  0  0  0  0
  2  3  2  0  0  0  0
  3  4  1  0  0  0  0
  4  5  2  0  0  0  0
  5  6  1  0  0  0  0
  6  1  2  0  0  0  0
  4  7  1  0  0  0  0
  7  8  1  0  0  0  0
  8  9  1  0  0  0  0
  9 10  2  0  0  0  0
 10  5  1  0  0  0  0
  8 11  2  0  0  0  0
 12 13  1  0  0  0  0
 13  9  1  0  0  0  0
 13 14  2  0  0  0  0
 14 15  1  0  0  0  0
 15 16  2  0  0  0  0
 16 10  1  0  0  0  0
  6 17  1  0  0  0  0
  2 18  1  0  0  0  0
 16 19  1  0  0  0  0
 19 20  1  0  0  0  0
M  END
>  <cdx:fragmentId>
5

$$$$
