90247.cdx
  Mrv1902 05222410222D          

 47 51  0  0  0  0            999 V2000
    4.1231   -9.0189    0.0000 C   0  0  0  0  0  0  0  0  0  0  0  0
    4.1231   -9.8439    0.0000 C   0  0  0  0  0  0  0  0  0  0  0  0
    4.8375  -10.2564    0.0000 C   0  0  0  0  0  0  0  0  0  0  0  0
    5.5520   -9.8439    0.0000 C   0  0  0  0  0  0  0  0  0  0  0  0
    5.5520   -9.0189    0.0000 C   0  0  0  0  0  0  0  0  0  0  0  0
    4.8375   -8.6064    0.0000 C   0  0  0  0  0  0  0  0  0  0  0  0
    6.2665  -10.2564    0.0000 C   0  0  0  0  0  0  0  0  0  0  0  0
    6.9809   -9.8439    0.0000 C   0  0  0  0  0  0  0  0  0  0  0  0
    6.9809   -9.0189    0.0000 C   0  0  0  0  0  0  0  0  0  0  0  0
    6.2665   -8.6064    0.0000 C   0  0  0  0  0  0  0  0  0  0  0  0
    4.8375   -7.7814    0.0000 O   0  0  0  0  0  0  0  0  0  0  0  0
    4.1231   -7.3689    0.0000 C   0  0  1  0  0  0  0  0  0  0  0  0
    3.4086   -7.7814    0.0000 C   0  0  2  0  0  0  0  0  0  0  0  0
    3.4086   -8.6064    0.0000 O   0  0  0  0  0  0  0  0  0  0  0  0
    4.1231   -6.5439    0.0000 O   0  0  0  0  0  0  0  0  0  0  0  0
    3.4086   -6.1314    0.0000 C   0  0  2  0  0  0  0  0  0  0  0  0
    2.6941   -6.5439    0.0000 C   0  0  1  0  0  0  0  0  0  0  0  0
    2.6941   -7.3689    0.0000 C   0  0  1  0  0  0  0  0  0  0  0  0
    8.4099   -9.0189    0.0000 C   0  0  0  0  0  0  0  0  0  0  0  0
    7.6954   -8.6064    0.0000 C   0  0  0  0  0  0  0  0  0  0  0  0
    6.2665   -7.7814    0.0000 O   0  0  0  0  0  0  0  0  0  0  0  0
    7.6954   -7.7814    0.0000 O   0  0  0  0  0  0  0  0  0  0  0  0
    6.2665  -11.0814    0.0000 C   0  0  0  0  0  0  0  0  0  0  0  0
    6.9809  -11.4939    0.0000 O   0  0  0  0  0  0  0  0  0  0  0  0
    7.8059  -11.4939    0.0000 C   0  0  2  0  0  0  0  0  0  0  0  0
    8.2184  -12.2084    0.0000 O   0  0  0  0  0  0  0  0  0  0  0  0
    9.0434  -12.2084    0.0000 C   0  0  0  0  0  0  0  0  0  0  0  0
    9.4559  -11.4939    0.0000 C   0  0  2  0  0  0  0  0  0  0  0  0
    9.0434  -10.7794    0.0000 C   0  0  1  0  0  0  0  0  0  0  0  0
    8.2184  -10.7794    0.0000 C   0  0  1  0  0  0  0  0  0  0  0  0
   10.2809  -12.9228    0.0000 O   0  0  0  0  0  0  0  0  0  0  0  0
   10.6934  -12.2084    0.0000 C   0  0  1  0  0  0  0  0  0  0  0  0
   10.2809  -11.4939    0.0000 O   0  0  0  0  0  0  0  0  0  0  0  0
   10.6934  -13.6373    0.0000 C   0  0  1  0  0  0  0  0  0  0  0  0
   11.5184  -13.6373    0.0000 C   0  0  2  0  0  0  0  0  0  0  0  0
   11.9309  -12.9228    0.0000 C   0  0  1  0  0  0  0  0  0  0  0  0
   11.5184  -12.2084    0.0000 C   0  0  1  0  0  0  0  0  0  0  0  0
   10.2809  -14.3518    0.0000 C   0  0  0  0  0  0  0  0  0  0  0  0
   10.6934  -15.0663    0.0000 O   0  0  0  0  0  0  0  0  0  0  0  0
   11.9309  -14.3518    0.0000 O   0  0  0  0  0  0  0  0  0  0  0  0
    7.8059  -10.0650    0.0000 O   0  0  0  0  0  0  0  0  0  0  0  0
   11.9309  -11.4939    0.0000 O   0  0  0  0  0  0  0  0  0  0  0  0
   12.7559  -12.9228    0.0000 O   0  0  0  0  0  0  0  0  0  0  0  0
    9.4559  -10.0650    0.0000 O   0  0  0  0  0  0  0  0  0  0  0  0
    1.9796   -6.1314    0.0000 O   0  0  0  0  0  0  0  0  0  0  0  0
    3.4086   -5.3064    0.0000 C   0  0  0  0  0  0  0  0  0  0  0  0
    1.9796   -7.7814    0.0000 O   0  0  0  0  0  0  0  0  0  0  0  0
  1  2  1  0  0  0  0
  2  3  2  0  0  0  0
  3  4  1  0  0  0  0
  4  5  2  0  0  0  0
  5  6  1  0  0  0  0
  6  1  2  0  0  0  0
  4  7  1  0  0  0  0
  7  8  2  0  0  0  0
  8  9  1  0  0  0  0
  9 10  2  0  0  0  0
 10  5  1  0  0  0  0
  6 11  1  0  0  0  0
 12 11  1  1  0  0  0
 12 13  1  0  0  0  0
 13 14  1  6  0  0  0
 12 15  1  0  0  0  0
 15 16  1  0  0  0  0
 16 17  1  0  0  0  0
 17 18  1  0  0  0  0
 18 13  1  0  0  0  0
 19 20  1  0  0  0  0
 20  9  1  0  0  0  0
 10 21  1  0  0  0  0
 20 22  2  0  0  0  0
  7 23  1  0  0  0  0
 23 24  1  0  0  0  0
 25 24  1  1  0  0  0
 25 26  1  0  0  0  0
 26 27  1  0  0  0  0
 27 28  1  0  0  0  0
 28 29  1  0  0  0  0
 29 30  1  0  0  0  0
 30 25  1  0  0  0  0
 31 32  1  0  0  0  0
 32 33  1  1  0  0  0
 28 33  1  6  0  0  0
 31 34  1  0  0  0  0
 34 35  1  0  0  0  0
 35 36  1  0  0  0  0
 36 37  1  0  0  0  0
 37 32  1  0  0  0  0
 34 38  1  1  0  0  0
 38 39  1  0  0  0  0
 35 40  1  6  0  0  0
 30 41  1  6  0  0  0
 37 42  1  6  0  0  0
 36 43  1  1  0  0  0
 29 44  1  1  0  0  0
 17 45  1  1  0  0  0
 16 46  1  6  0  0  0
 18 47  1  6  0  0  0
M  END
>  <cdx:fragmentId>
5

$$$$
