90258.cdx
  Mrv1902 05222410262D          

 27 31  0  0  0  0            999 V2000
    5.3379   -9.7874    0.0000 C   0  0  2  0  0  0  0  0  0  0  0  0
    5.1183  -10.5827    0.0000 C   0  0  2  0  0  0  0  0  0  0  0  0
    5.6032  -11.2502    0.0000 C   0  0  1  0  0  0  0  0  0  0  0  0
    6.4273  -11.2873    0.0000 C   0  0  0  0  0  0  0  0  0  0  0  0
    6.9702  -10.6661    0.0000 C   0  0  0  0  0  0  0  0  0  0  0  0
    6.8230   -9.8543    0.0000 C   0  0  0  0  0  0  0  0  0  0  0  0
    6.0966   -9.4633    0.0000 C   0  0  1  0  0  0  0  0  0  0  0  0
    4.6495   -9.3329    0.0000 C   0  0  2  0  0  0  0  0  0  0  0  0
    4.0044   -9.8472    0.0000 C   0  0  1  0  0  0  0  0  0  0  0  0
    4.2942  -10.6196    0.0000 C   0  0  1  0  0  0  0  0  0  0  0  0
    7.7468  -10.9445    0.0000 C   0  0  1  0  0  0  0  0  0  0  0  0
    8.3762  -10.4111    0.0000 C   0  0  0  0  0  0  0  0  0  0  0  0
    8.2290   -9.5994    0.0000 C   0  0  0  0  0  0  0  0  0  0  0  0
    7.4524   -9.3210    0.0000 C   0  0  0  0  0  0  0  0  0  0  0  0
    5.9591  -10.3303    0.0000 H   0  0  0  0  0  0  0  0  0  0  0  0
    5.2328   -8.7495    0.0000 O   0  0  0  0  0  0  0  0  0  0  0  0
    4.2942  -11.4446    0.0000 C   0  0  0  0  0  0  0  0  0  0  0  0
    6.5091   -8.7488    0.0000 C   0  0  0  0  0  0  0  0  0  0  0  0
    3.2091   -9.6276    0.0000 O   0  0  0  0  0  0  0  0  0  0  0  0
    3.4824  -10.7669    0.0000 C   0  0  0  0  0  0  0  0  0  0  0  0
    4.9048  -11.3796    0.0000 O   0  0  0  0  0  0  0  0  0  0  0  0
    5.2121  -11.9766    0.0000 O   0  0  0  0  0  0  0  0  0  0  0  0
    7.3827  -11.3806    0.0000 C   0  0  0  0  0  0  0  0  0  0  0  0
    8.3762  -11.2361    0.0000 C   0  0  2  0  0  0  0  0  0  0  0  0
    7.9604  -11.7414    0.0000 O   0  0  0  0  0  0  0  0  0  0  0  0
    9.1731  -11.0226    0.0000 C   0  0  0  0  0  0  0  0  0  0  0  0
    8.9596  -11.8195    0.0000 O   0  0  0  0  0  0  0  0  0  0  0  0
  1  2  1  0  0  0  0
  2  3  1  0  0  0  0
  3  4  1  0  0  0  0
  4  5  1  0  0  0  0
  5  6  1  0  0  0  0
  6  7  1  0  0  0  0
  7  1  1  0  0  0  0
  1  8  1  0  0  0  0
  8  9  1  0  0  0  0
  9 10  1  0  0  0  0
 10  2  1  0  0  0  0
  5 11  1  0  0  0  0
 11 12  1  0  0  0  0
 12 13  1  0  0  0  0
 13 14  1  0  0  0  0
 14  6  1  0  0  0  0
  1 15  1  6  0  0  0
  8 16  1  6  0  0  0
  7 16  1  6  0  0  0
 10 17  1  6  0  0  0
  7 18  1  1  0  0  0
  9 19  1  1  0  0  0
 10 20  1  1  0  0  0
  2 21  1  1  0  0  0
  3 22  1  1  0  0  0
  5 23  1  0  0  0  0
 12 24  1  0  0  0  0
 11 25  1  1  0  0  0
 24 26  1  1  0  0  0
 24 27  1  6  0  0  0
 23 24  1  0  0  0  0
M  END
>  <cdx:fragmentId>
5

$$$$
