90255.cdx
  Mrv1902 05222410202D          

 10  9  0  0  0  0            999 V2000
    7.0925   -6.2826    0.0000 C   0  0  2  0  0  0  0  0  0  0  0  0
    7.8070   -5.8701    0.0000 C   0  0  1  0  0  0  0  0  0  0  0  0
    8.5215   -6.2826    0.0000 C   0  0  0  0  0  0  0  0  0  0  0  0
    9.2359   -5.8701    0.0000 O   0  0  0  0  0  0  0  0  0  0  0  0
    6.3781   -5.8701    0.0000 C   0  0  2  0  0  0  0  0  0  0  0  0
    6.3781   -5.0451    0.0000 C   0  0  0  0  0  0  0  0  0  0  0  0
    8.5215   -7.1076    0.0000 O   0  0  0  0  0  0  0  0  0  0  0  0
    5.6636   -6.2826    0.0000 O   0  0  0  0  0  0  0  0  0  0  0  0
    7.0925   -7.1076    0.0000 O   0  0  0  0  0  0  0  0  0  0  0  0
    7.8070   -5.0451    0.0000 O   0  0  0  0  0  0  0  0  0  0  0  0
  1  2  1  0  0  0  0
  2  3  1  0  0  0  0
  3  4  1  0  0  0  0
  1  5  1  0  0  0  0
  5  6  1  0  0  0  0
  3  7  2  0  0  0  0
  5  8  1  1  0  0  0
  1  9  1  1  0  0  0
  2 10  1  6  0  0  0
M  END
>  <cdx:fragmentId>
3

$$$$
