9025.cdx
  Mrv1902 05222410182D          

 13 12  0  0  0  0            999 V2000
    2.8834   -6.0844    0.0000 C   0  0  0  0  0  0  0  0  0  0  0  0
    3.5978   -6.4969    0.0000 C   0  0  0  0  0  0  0  0  0  0  0  0
    4.3123   -6.0844    0.0000 C   0  0  0  0  0  0  0  0  0  0  0  0
    5.0268   -6.4969    0.0000 S   0  0  0  0  0  0  0  0  0  0  0  0
    5.7413   -6.0844    0.0000 C   0  0  0  0  0  0  0  0  0  0  0  0
    6.4557   -6.4969    0.0000 C   0  0  0  0  0  0  0  0  0  0  0  0
    7.1702   -6.0844    0.0000 C   0  0  0  0  0  0  0  0  0  0  0  0
    7.1702   -5.2594    0.0000 S   0  0  0  0  0  0  0  0  0  0  0  0
    7.8847   -4.8469    0.0000 S   0  0  0  0  0  0  0  0  0  0  0  0
    7.8847   -4.0219    0.0000 C   0  0  0  0  0  0  0  0  0  0  0  0
    8.5991   -3.6094    0.0000 C   0  0  0  0  0  0  0  0  0  0  0  0
    8.5991   -2.7844    0.0000 C   0  0  0  0  0  0  0  0  0  0  0  0
    5.0268   -7.3219    0.0000 O   0  0  0  0  0  0  0  0  0  0  0  0
  1  2  2  0  0  0  0
  2  3  1  0  0  0  0
  3  4  1  0  0  0  0
  4  5  1  0  0  0  0
  5  6  1  0  0  0  0
  6  7  2  0  0  0  0
  7  8  1  0  0  0  0
  8  9  1  0  0  0  0
  9 10  1  0  0  0  0
 10 11  1  0  0  0  0
 11 12  2  0  0  0  0
  4 13  2  0  0  0  0
M  END
>  <cdx:fragmentId>
11

$$$$
