90254.cdx
  Mrv1902 05222410212D          

 30 31  0  0  0  0            999 V2000
    9.0011   -5.4208    0.0000 C   0  0  0  0  0  0  0  0  0  0  0  0
    8.2841   -5.0127    0.0000 C   0  0  0  0  0  0  0  0  0  0  0  0
    7.5722   -5.4295    0.0000 C   0  0  0  0  0  0  0  0  0  0  0  0
    7.5772   -6.2545    0.0000 C   0  0  0  0  0  0  0  0  0  0  0  0
    8.2942   -6.6626    0.0000 C   0  0  0  0  0  0  0  0  0  0  0  0
    9.0061   -6.2458    0.0000 C   0  0  0  0  0  0  0  0  0  0  0  0
    6.8653   -6.6713    0.0000 C   0  0  0  0  0  0  0  0  0  0  0  0
    6.8703   -7.4963    0.0000 C   0  0  2  0  0  0  0  0  0  0  0  0
    7.5873   -7.9045    0.0000 C   0  0  0  0  0  0  0  0  0  0  0  0
    6.1584   -7.9132    0.0000 O   0  0  0  0  0  0  0  0  0  0  0  0
    6.1634   -8.7382    0.0000 C   0  0  0  0  0  0  0  0  0  0  0  0
    6.8804   -9.1463    0.0000 C   0  0  0  0  0  0  0  0  0  0  0  0
    7.5923   -8.7294    0.0000 O   0  0  0  0  0  0  0  0  0  0  0  0
    5.4514   -9.1550    0.0000 C   0  0  0  0  0  0  0  0  0  0  0  0
    5.4565   -9.9800    0.0000 C   0  0  0  0  0  0  0  0  0  0  0  0
    6.1734  -10.3881    0.0000 C   0  0  0  0  0  0  0  0  0  0  0  0
    6.8854   -9.9713    0.0000 C   0  0  0  0  0  0  0  0  0  0  0  0
    9.7131   -5.0040    0.0000 O   0  0  0  0  0  0  0  0  0  0  0  0
    9.7131   -4.1790    0.0000 C   0  0  0  0  0  0  0  0  0  0  0  0
    8.2791   -4.1877    0.0000 O   0  0  0  0  0  0  0  0  0  0  0  0
    7.5646   -3.7752    0.0000 C   0  0  0  0  0  0  0  0  0  0  0  0
    4.7345   -8.7469    0.0000 O   0  0  0  0  0  0  0  0  0  0  0  0
    4.0225   -9.1637    0.0000 C   0  0  0  0  0  0  0  0  0  0  0  0
    6.1785  -11.2131    0.0000 C   0  0  0  0  0  0  0  0  0  0  0  0
    5.4665  -11.6300    0.0000 C   0  0  0  0  0  0  0  0  0  0  0  0
    5.4716  -12.4549    0.0000 C   0  0  0  0  0  0  0  0  0  0  0  0
    9.7231   -6.6539    0.0000 O   0  0  0  0  0  0  0  0  0  0  0  0
   10.4376   -6.2414    0.0000 C   0  0  0  0  0  0  0  0  0  0  0  0
    8.3093   -9.1376    0.0000 C   0  0  0  0  0  0  0  0  0  0  0  0
    6.1483   -6.2632    0.0000 O   0  0  0  0  0  0  0  0  0  0  0  0
  1  2  2  0  0  0  0
  2  3  1  0  0  0  0
  3  4  2  0  0  0  0
  4  5  1  0  0  0  0
  5  6  2  0  0  0  0
  6  1  1  0  0  0  0
  4  7  1  0  0  0  0
  7  8  1  0  0  0  0
  8  9  1  6  0  0  0
  8 10  1  0  0  0  0
 10 11  1  0  0  0  0
 11 12  1  0  0  0  0
 12 13  1  0  0  0  0
 11 14  2  0  0  0  0
 14 15  1  0  0  0  0
 15 16  2  0  0  0  0
 16 17  1  0  0  0  0
 17 12  2  0  0  0  0
  1 18  1  0  0  0  0
 18 19  1  0  0  0  0
  2 20  1  0  0  0  0
 20 21  1  0  0  0  0
 14 22  1  0  0  0  0
 22 23  1  0  0  0  0
 16 24  1  0  0  0  0
 24 25  2  0  0  0  0
 25 26  1  0  0  0  0
  6 27  1  0  0  0  0
 27 28  1  0  0  0  0
 13 29  1  0  0  0  0
  7 30  2  0  0  0  0
M  END
>  <cdx:fragmentId>
5

$$$$
