90250.cdx
  Mrv1902 05222410222D          

 36 39  0  0  0  0            999 V2000
    7.6843   -8.6201    0.0000 C   0  0  0  0  0  0  0  0  0  0  0  0
    7.6843   -9.4451    0.0000 C   0  0  0  0  0  0  0  0  0  0  0  0
    8.3988   -9.8576    0.0000 C   0  0  0  0  0  0  0  0  0  0  0  0
    9.1132   -9.4451    0.0000 C   0  0  0  0  0  0  0  0  0  0  0  0
    9.1132   -8.6201    0.0000 C   0  0  0  0  0  0  0  0  0  0  0  0
    8.3988   -8.2076    0.0000 C   0  0  0  0  0  0  0  0  0  0  0  0
    9.8277   -9.8576    0.0000 C   0  0  0  0  0  0  0  0  0  0  0  0
   10.5422   -9.4451    0.0000 C   0  0  0  0  0  0  0  0  0  0  0  0
   10.5422   -8.6201    0.0000 C   0  0  0  0  0  0  0  0  0  0  0  0
    9.8277   -8.2076    0.0000 O   0  0  0  0  0  0  0  0  0  0  0  0
   11.2567   -9.8576    0.0000 C   0  0  0  0  0  0  0  0  0  0  0  0
   11.9711   -9.4451    0.0000 C   0  0  0  0  0  0  0  0  0  0  0  0
   11.2567  -10.6826    0.0000 C   0  0  0  0  0  0  0  0  0  0  0  0
   11.9711  -11.0951    0.0000 C   0  0  0  0  0  0  0  0  0  0  0  0
   12.6856  -10.6826    0.0000 C   0  0  0  0  0  0  0  0  0  0  0  0
   12.6856   -9.8576    0.0000 C   0  0  0  0  0  0  0  0  0  0  0  0
    9.8277  -10.6826    0.0000 O   0  0  0  0  0  0  0  0  0  0  0  0
    6.9698   -8.2076    0.0000 O   0  0  0  0  0  0  0  0  0  0  0  0
    6.2554   -8.6201    0.0000 C   0  0  1  0  0  0  0  0  0  0  0  0
    6.2554   -9.4451    0.0000 C   0  0  1  0  0  0  0  0  0  0  0  0
    5.5409   -8.2076    0.0000 O   0  0  0  0  0  0  0  0  0  0  0  0
    4.8264   -8.6201    0.0000 C   0  0  1  0  0  0  0  0  0  0  0  0
    4.8264   -9.4451    0.0000 C   0  0  2  0  0  0  0  0  0  0  0  0
    5.5409   -9.8576    0.0000 C   0  0  2  0  0  0  0  0  0  0  0  0
    4.1119   -8.2076    0.0000 C   0  0  0  0  0  0  0  0  0  0  0  0
    4.1119   -9.8576    0.0000 O   0  0  0  0  0  0  0  0  0  0  0  0
   13.4001  -11.0951    0.0000 O   0  0  0  0  0  0  0  0  0  0  0  0
    3.3975   -8.6201    0.0000 O   0  0  0  0  0  0  0  0  0  0  0  0
    2.6830   -8.2076    0.0000 C   0  0  0  0  0  0  0  0  0  0  0  0
    1.9685   -8.6201    0.0000 C   0  0  0  0  0  0  0  0  0  0  0  0
    2.6830   -7.3826    0.0000 O   0  0  0  0  0  0  0  0  0  0  0  0
    1.2541   -8.2076    0.0000 C   0  0  0  0  0  0  0  0  0  0  0  0
    0.5396   -8.6201    0.0000 C   0  0  0  0  0  0  0  0  0  0  0  0
    5.5409  -10.6826    0.0000 O   0  0  0  0  0  0  0  0  0  0  0  0
    6.9698   -9.8576    0.0000 O   0  0  0  0  0  0  0  0  0  0  0  0
   14.1145  -10.6826    0.0000 C   0  0  0  0  0  0  0  0  0  0  0  0
  1  2  2  0  0  0  0
  2  3  1  0  0  0  0
  3  4  2  0  0  0  0
  4  5  1  0  0  0  0
  5  6  2  0  0  0  0
  6  1  1  0  0  0  0
  4  7  1  0  0  0  0
  7  8  1  0  0  0  0
  8  9  2  0  0  0  0
  9 10  1  0  0  0  0
 10  5  1  0  0  0  0
  8 11  1  0  0  0  0
 11 12  1  0  0  0  0
 11 13  2  0  0  0  0
 13 14  1  0  0  0  0
 14 15  2  0  0  0  0
 15 16  1  0  0  0  0
 16 12  2  0  0  0  0
  7 17  2  0  0  0  0
  1 18  1  0  0  0  0
 19 18  1  1  0  0  0
 19 20  1  0  0  0  0
 19 21  1  0  0  0  0
 21 22  1  0  0  0  0
 22 23  1  0  0  0  0
 23 24  1  0  0  0  0
 24 20  1  0  0  0  0
 22 25  1  1  0  0  0
 23 26  1  6  0  0  0
 15 27  1  0  0  0  0
 25 28  1  0  0  0  0
 28 29  1  0  0  0  0
 29 30  1  0  0  0  0
 29 31  2  0  0  0  0
 30 32  2  0  0  0  0
 32 33  1  0  0  0  0
 24 34  1  1  0  0  0
 20 35  1  6  0  0  0
 27 36  1  0  0  0  0
M  END
>  <cdx:fragmentId>
5

$$$$
