90252.cdx
  Mrv1902 05222410222D          

  8  8  0  0  0  0            999 V2000
    6.2268   -9.7751    0.0000 C   0  0  0  0  0  0  0  0  0  0  0  0
    6.2268  -10.6001    0.0000 C   0  0  0  0  0  0  0  0  0  0  0  0
    6.9413  -11.0126    0.0000 C   0  0  0  0  0  0  0  0  0  0  0  0
    7.6557  -10.6001    0.0000 S   0  0  0  0  0  0  0  0  0  0  0  0
    7.6557   -9.7751    0.0000 C   0  0  0  0  0  0  0  0  0  0  0  0
    6.9413   -9.3626    0.0000 S   0  0  0  0  0  0  0  0  0  0  0  0
    8.3702   -9.3626    0.0000 C   0  0  0  0  0  0  0  0  0  0  0  0
    9.0847   -9.7751    0.0000 C   0  0  0  0  0  0  0  0  0  0  0  0
  1  2  1  0  0  0  0
  2  3  2  0  0  0  0
  3  4  1  0  0  0  0
  4  5  1  0  0  0  0
  5  6  1  0  0  0  0
  6  1  1  0  0  0  0
  5  7  1  0  0  0  0
  7  8  2  0  0  0  0
M  END
>  <cdx:fragmentId>
5

$$$$
