90262.cdx
  Mrv1902 05222410242D          

 17 19  0  0  0  0            999 V2000
    6.7860   -6.1314    0.0000 C   0  0  0  0  0  0  0  0  0  0  0  0
    6.7860   -6.9564    0.0000 C   0  0  0  0  0  0  0  0  0  0  0  0
    7.4310   -7.4708    0.0000 C   0  0  0  0  0  0  0  0  0  0  0  0
    8.2353   -7.2872    0.0000 C   0  0  0  0  0  0  0  0  0  0  0  0
    8.5932   -6.5439    0.0000 C   0  0  0  0  0  0  0  0  0  0  0  0
    8.2353   -5.8006    0.0000 C   0  0  0  0  0  0  0  0  0  0  0  0
    7.4310   -5.6170    0.0000 C   0  0  0  0  0  0  0  0  0  0  0  0
    6.0974   -7.4109    0.0000 C   0  0  0  0  0  0  0  0  0  0  0  0
    6.3169   -8.2062    0.0000 C   0  0  0  0  0  0  0  0  0  0  0  0
    7.1411   -8.2432    0.0000 C   0  0  0  0  0  0  0  0  0  0  0  0
    5.9891   -6.3449    0.0000 C   0  0  0  0  0  0  0  0  0  0  0  0
    6.3735   -5.4169    0.0000 C   0  0  0  0  0  0  0  0  0  0  0  0
    7.2474   -4.8127    0.0000 O   0  0  0  0  0  0  0  0  0  0  0  0
    8.7497   -5.1556    0.0000 C   0  0  0  0  0  0  0  0  0  0  0  0
    8.7497   -7.9322    0.0000 O   0  0  0  0  0  0  0  0  0  0  0  0
    7.5956   -8.9317    0.0000 C   0  0  0  0  0  0  0  0  0  0  0  0
    7.4722   -6.4945    0.0000 C   0  0  0  0  0  0  0  0  0  0  0  0
  1  2  1  0  0  0  0
  2  3  1  0  0  0  0
  3  4  1  0  0  0  0
  4  5  1  0  0  0  0
  5  6  1  0  0  0  0
  6  7  1  0  0  0  0
  7  1  1  0  0  0  0
  2  8  1  0  0  0  0
  8  9  1  0  0  0  0
  9 10  1  0  0  0  0
 10  3  1  0  0  0  0
  1 11  1  0  0  0  0
  1 12  1  0  0  0  0
  7 13  2  0  0  0  0
  6 14  1  0  0  0  0
  4 15  1  0  0  0  0
 10 16  1  0  0  0  0
  3 17  1  0  0  0  0
 17  6  1  0  0  0  0
M  END
>  <cdx:fragmentId>
5

$$$$
