90265.cdx
  Mrv1902 05222410252D          

 11 12  0  0  0  0            999 V2000
    6.6699   -9.7703    0.0000 C   0  0  0  0  0  0  0  0  0  0  0  0
    7.4667   -9.5562    0.0000 C   0  0  0  0  0  0  0  0  0  0  0  0
    8.2634   -9.7703    0.0000 C   0  0  0  0  0  0  0  0  0  0  0  0
    8.6771   -9.0566    0.0000 C   0  0  0  0  0  0  0  0  0  0  0  0
    6.5198   -9.1391    0.0000 C   0  0  0  0  0  0  0  0  0  0  0  0
    7.8803   -8.8425    0.0000 C   0  0  0  0  0  0  0  0  0  0  0  0
    7.4681   -8.1288    0.0000 C   0  0  0  0  0  0  0  0  0  0  0  0
    6.2476  -10.4791    0.0000 O   0  0  0  0  0  0  0  0  0  0  0  0
    9.4396   -8.7418    0.0000 C   0  0  0  0  0  0  0  0  0  0  0  0
    8.0499  -10.5672    0.0000 C   0  0  0  0  0  0  0  0  0  0  0  0
    8.9779  -10.1828    0.0000 C   0  0  0  0  0  0  0  0  0  0  0  0
  1  2  1  0  0  0  0
  2  3  1  0  0  0  0
  3  4  1  0  0  0  0
  1  5  1  0  0  0  0
  5  6  1  0  0  0  0
  4  6  1  0  0  0  0
  6  7  1  0  0  0  0
  2  7  1  0  0  0  0
  1  8  2  0  0  0  0
  4  9  2  0  0  0  0
  3 10  1  0  0  0  0
  3 11  1  0  0  0  0
M  END
>  <cdx:groupId>
799

>  <cdx:fragmentId>
800

$$$$
