90260.cdx
  Mrv1902 05222410232D          

 26 27  0  0  0  0            999 V2000
    4.9068   -8.4964    0.0000 C   0  0  0  0  0  0  0  0  0  0  0  0
    4.9068   -9.3214    0.0000 C   0  0  0  0  0  0  0  0  0  0  0  0
    5.6213   -9.7339    0.0000 C   0  0  0  0  0  0  0  0  0  0  0  0
    6.3357   -9.3214    0.0000 C   0  0  0  0  0  0  0  0  0  0  0  0
    6.3357   -8.4964    0.0000 C   0  0  0  0  0  0  0  0  0  0  0  0
    5.6213   -8.0839    0.0000 C   0  0  0  0  0  0  0  0  0  0  0  0
    7.0502   -9.7339    0.0000 C   0  0  0  0  0  0  0  0  0  0  0  0
    7.7647   -9.3214    0.0000 C   0  0  0  0  0  0  0  0  0  0  0  0
    7.7647   -8.4964    0.0000 C   0  0  0  0  0  0  0  0  0  0  0  0
    7.0502   -8.0839    0.0000 C   0  0  0  0  0  0  0  0  0  0  0  0
    8.4792   -8.0839    0.0000 C   0  0  2  0  0  0  0  0  0  0  0  0
    8.4792   -7.2589    0.0000 O   0  0  0  0  0  0  0  0  0  0  0  0
    7.0502   -7.2589    0.0000 O   0  0  0  0  0  0  0  0  0  0  0  0
    5.6213   -7.2589    0.0000 O   0  0  0  0  0  0  0  0  0  0  0  0
    5.6213  -10.5589    0.0000 O   0  0  0  0  0  0  0  0  0  0  0  0
    7.0502  -10.5589    0.0000 O   0  0  0  0  0  0  0  0  0  0  0  0
    9.1936   -8.4964    0.0000 C   0  0  0  0  0  0  0  0  0  0  0  0
    9.9081   -8.0839    0.0000 C   0  0  0  0  0  0  0  0  0  0  0  0
   10.6226   -8.4964    0.0000 C   0  0  0  0  0  0  0  0  0  0  0  0
   11.3370   -8.0839    0.0000 C   0  0  0  0  0  0  0  0  0  0  0  0
   10.6226   -9.3214    0.0000 C   0  0  0  0  0  0  0  0  0  0  0  0
    9.1936   -6.8464    0.0000 C   0  0  0  0  0  0  0  0  0  0  0  0
    9.1936   -6.0214    0.0000 C   0  0  0  0  0  0  0  0  0  0  0  0
    9.9081   -7.2589    0.0000 O   0  0  0  0  0  0  0  0  0  0  0  0
    8.4792   -5.6089    0.0000 C   0  0  0  0  0  0  0  0  0  0  0  0
    8.4792   -4.7839    0.0000 C   0  0  0  0  0  0  0  0  0  0  0  0
  1  2  1  0  0  0  0
  2  3  2  0  0  0  0
  3  4  1  0  0  0  0
  4  5  2  0  0  0  0
  5  6  1  0  0  0  0
  6  1  2  0  0  0  0
  4  7  1  0  0  0  0
  7  8  1  0  0  0  0
  8  9  2  0  0  0  0
  9 10  1  0  0  0  0
 10  5  1  0  0  0  0
  9 11  1  0  0  0  0
 11 12  1  6  0  0  0
 13 10  2  0  0  0  0
  6 14  1  0  0  0  0
  3 15  1  0  0  0  0
  7 16  2  0  0  0  0
 11 17  1  0  0  0  0
 17 18  1  0  0  0  0
 18 19  2  0  0  0  0
 19 20  1  0  0  0  0
 19 21  1  0  0  0  0
 12 22  1  0  0  0  0
 22 23  1  0  0  0  0
 22 24  2  0  0  0  0
 23 25  1  0  0  0  0
 25 26  1  0  0  0  0
M  END
>  <cdx:fragmentId>
5

$$$$
