90267.cdx
  Mrv1902 05222410252D          

 13 12  0  0  0  0            999 V2000
    3.2563   -8.7989    0.0000 C   0  0  0  0  0  0  0  0  0  0  0  0
    3.9707   -8.3864    0.0000 O   0  0  0  0  0  0  0  0  0  0  0  0
    4.6852   -8.7989    0.0000 C   0  0  0  0  0  0  0  0  0  0  0  0
    5.3997   -8.3864    0.0000 C   0  0  0  0  0  0  0  0  0  0  0  0
    6.1142   -8.7989    0.0000 C   0  0  0  0  0  0  0  0  0  0  0  0
    6.8286   -8.3864    0.0000 C   0  0  0  0  0  0  0  0  0  0  0  0
    7.5431   -8.7989    0.0000 C   0  0  0  0  0  0  0  0  0  0  0  0
    8.2576   -8.3864    0.0000 C   0  0  0  0  0  0  0  0  0  0  0  0
    8.9720   -8.7989    0.0000 C   0  0  0  0  0  0  0  0  0  0  0  0
    9.6865   -8.3864    0.0000 C   0  0  0  0  0  0  0  0  0  0  0  0
   10.4010   -8.7989    0.0000 C   0  0  0  0  0  0  0  0  0  0  0  0
   11.1155   -8.3864    0.0000 C   0  0  0  0  0  0  0  0  0  0  0  0
    4.6852   -9.6239    0.0000 O   0  0  0  0  0  0  0  0  0  0  0  0
  1  2  1  0  0  0  0
  2  3  1  0  0  0  0
  3  4  1  0  0  0  0
  4  5  1  0  0  0  0
  5  6  1  0  0  0  0
  6  7  1  0  0  0  0
  7  8  1  0  0  0  0
  8  9  1  0  0  0  0
  9 10  1  0  0  0  0
 10 11  1  0  0  0  0
 11 12  1  0  0  0  0
  3 13  2  0  0  0  0
M  END
>  <cdx:fragmentId>
3

$$$$
