90275.cdx
  Mrv1902 05222410232D          

 67 72  0  0  0  0            999 V2000
    7.2306   -8.8401    0.0000 C   0  0  0  0  0  0  0  0  0  0  0  0
    7.2306   -9.6651    0.0000 C   0  0  0  0  0  0  0  0  0  0  0  0
    7.9450  -10.0776    0.0000 C   0  0  0  0  0  0  0  0  0  0  0  0
    8.6595   -9.6651    0.0000 C   0  0  0  0  0  0  0  0  0  0  0  0
    8.6595   -8.8401    0.0000 C   0  0  0  0  0  0  0  0  0  0  0  0
    7.9450   -8.4276    0.0000 C   0  0  2  0  0  0  0  0  0  0  0  0
    9.3740  -10.0776    0.0000 C   0  0  0  0  0  0  0  0  0  0  0  0
   10.0884   -9.6651    0.0000 C   0  0  0  0  0  0  0  0  0  0  0  0
    9.3740   -8.4276    0.0000 O   0  0  0  0  0  0  0  0  0  0  0  0
   10.8029  -10.0776    0.0000 C   0  0  0  0  0  0  0  0  0  0  0  0
   11.5174   -9.6651    0.0000 C   0  0  0  0  0  0  0  0  0  0  0  0
   11.5174   -8.8401    0.0000 C   0  0  0  0  0  0  0  0  0  0  0  0
   12.2319  -10.0776    0.0000 C   0  0  0  0  0  0  0  0  0  0  0  0
   12.9463   -9.6651    0.0000 C   0  0  0  0  0  0  0  0  0  0  0  0
   12.9463   -8.8401    0.0000 C   0  0  0  0  0  0  0  0  0  0  0  0
   12.2319   -8.4276    0.0000 C   0  0  0  0  0  0  0  0  0  0  0  0
    7.9450  -10.9026    0.0000 O   0  0  0  0  0  0  0  0  0  0  0  0
    9.3740  -10.9026    0.0000 O   0  0  0  0  0  0  0  0  0  0  0  0
   13.6608   -8.4276    0.0000 O   0  0  0  0  0  0  0  0  0  0  0  0
    8.3575   -7.7132    0.0000 C   0  0  2  0  0  0  0  0  0  0  0  0
    9.1825   -7.7132    0.0000 O   0  0  0  0  0  0  0  0  0  0  0  0
    9.5950   -6.9987    0.0000 C   0  0  1  0  0  0  0  0  0  0  0  0
    9.1825   -6.2842    0.0000 C   0  0  2  0  0  0  0  0  0  0  0  0
    8.3575   -6.2842    0.0000 C   0  0  1  0  0  0  0  0  0  0  0  0
    7.9450   -6.9987    0.0000 C   0  0  1  0  0  0  0  0  0  0  0  0
   10.4200   -6.9987    0.0000 C   0  0  0  0  0  0  0  0  0  0  0  0
   10.8325   -6.2842    0.0000 O   0  0  0  0  0  0  0  0  0  0  0  0
    6.4337   -9.8787    0.0000 C   0  0  0  0  0  0  0  0  0  0  0  0
    6.0212  -10.5931    0.0000 C   0  0  0  0  0  0  0  0  0  0  0  0
    5.1962  -10.5931    0.0000 C   0  0  0  0  0  0  0  0  0  0  0  0
    4.7837  -11.3076    0.0000 C   0  0  0  0  0  0  0  0  0  0  0  0
    5.1962  -12.0221    0.0000 C   0  0  0  0  0  0  0  0  0  0  0  0
    6.0212  -12.0221    0.0000 C   0  0  2  0  0  0  0  0  0  0  0  0
    6.4337  -11.3076    0.0000 C   0  0  0  0  0  0  0  0  0  0  0  0
    4.7837   -9.8787    0.0000 O   0  0  0  0  0  0  0  0  0  0  0  0
    3.5462  -10.5931    0.0000 C   0  0  0  0  0  0  0  0  0  0  0  0
    3.9587  -11.3076    0.0000 C   0  0  0  0  0  0  0  0  0  0  0  0
    2.7212   -9.1642    0.0000 C   0  0  0  0  0  0  0  0  0  0  0  0
    2.3087   -9.8787    0.0000 C   0  0  0  0  0  0  0  0  0  0  0  0
    2.7212  -10.5931    0.0000 C   0  0  0  0  0  0  0  0  0  0  0  0
    2.3087   -8.4497    0.0000 C   0  0  0  0  0  0  0  0  0  0  0  0
    1.4837   -8.4497    0.0000 C   0  0  0  0  0  0  0  0  0  0  0  0
    1.0712   -9.1642    0.0000 C   0  0  0  0  0  0  0  0  0  0  0  0
    1.4837   -9.8787    0.0000 C   0  0  0  0  0  0  0  0  0  0  0  0
    1.0712   -7.7353    0.0000 O   0  0  0  0  0  0  0  0  0  0  0  0
    3.5462  -12.0221    0.0000 O   0  0  0  0  0  0  0  0  0  0  0  0
    4.7837  -12.7366    0.0000 O   0  0  0  0  0  0  0  0  0  0  0  0
    7.2587  -11.3076    0.0000 O   0  0  0  0  0  0  0  0  0  0  0  0
    6.2347  -12.8190    0.0000 C   0  0  2  0  0  0  0  0  0  0  0  0
    5.6513  -13.4023    0.0000 O   0  0  0  0  0  0  0  0  0  0  0  0
    5.8649  -14.1992    0.0000 C   0  0  1  0  0  0  0  0  0  0  0  0
    6.6617  -14.4128    0.0000 C   0  0  2  0  0  0  0  0  0  0  0  0
    7.2451  -13.8294    0.0000 C   0  0  1  0  0  0  0  0  0  0  0  0
    7.0316  -13.0325    0.0000 C   0  0  1  0  0  0  0  0  0  0  0  0
    5.2815  -14.7826    0.0000 C   0  0  0  0  0  0  0  0  0  0  0  0
    5.2815  -15.6076    0.0000 O   0  0  0  0  0  0  0  0  0  0  0  0
    7.9450   -5.5698    0.0000 O   0  0  0  0  0  0  0  0  0  0  0  0
    6.8181  -12.2356    0.0000 O   0  0  0  0  0  0  0  0  0  0  0  0
    8.0420  -14.0429    0.0000 O   0  0  0  0  0  0  0  0  0  0  0  0
    9.5950   -5.5698    0.0000 O   0  0  0  0  0  0  0  0  0  0  0  0
    7.1200   -6.9987    0.0000 O   0  0  0  0  0  0  0  0  0  0  0  0
    8.9409   -8.2965    0.0000 H   0  0  0  0  0  0  0  0  0  0  0  0
    7.3617   -7.8443    0.0000 O   0  0  0  0  0  0  0  0  0  0  0  0
    7.6149  -12.4491    0.0000 O   0  0  0  0  0  0  0  0  0  0  0  0
    5.4378  -12.6055    0.0000 H   0  0  0  0  0  0  0  0  0  0  0  0
    6.8753  -15.2096    0.0000 O   0  0  0  0  0  0  0  0  0  0  0  0
    6.5161   -8.4276    0.0000 O   0  0  0  0  0  0  0  0  0  0  0  0
  1  2  2  0  0  0  0
  2  3  1  0  0  0  0
  3  4  1  0  0  0  0
  4  5  2  0  0  0  0
  5  6  1  0  0  0  0
  6  1  1  0  0  0  0
  4  7  1  0  0  0  0
  7  8  1  0  0  0  0
  9  5  1  0  0  0  0
  8 10  2  0  0  0  0
 10 11  1  0  0  0  0
 11 12  1  0  0  0  0
 11 13  2  0  0  0  0
 13 14  1  0  0  0  0
 14 15  2  0  0  0  0
 15 16  1  0  0  0  0
 16 12  2  0  0  0  0
  3 17  2  0  0  0  0
  7 18  2  0  0  0  0
 15 19  1  0  0  0  0
  6 20  1  0  0  0  0
 20 21  1  0  0  0  0
 21 22  1  0  0  0  0
 22 23  1  0  0  0  0
 23 24  1  0  0  0  0
 24 25  1  0  0  0  0
 25 20  1  0  0  0  0
 22 26  1  1  0  0  0
 26 27  1  0  0  0  0
  2 28  1  0  0  0  0
 28 29  2  0  0  0  0
 29 30  1  0  0  0  0
 30 31  1  0  0  0  0
 31 32  2  0  0  0  0
 32 33  1  0  0  0  0
 33 34  1  0  0  0  0
 34 29  1  0  0  0  0
 30 35  2  0  0  0  0
 36 37  1  0  0  0  0
 37 31  1  0  0  0  0
 38 39  1  0  0  0  0
 39 40  1  0  0  0  0
 40 36  2  0  0  0  0
 38 41  2  0  0  0  0
 41 42  1  0  0  0  0
 42 43  2  0  0  0  0
 43 44  1  0  0  0  0
 44 39  2  0  0  0  0
 42 45  1  0  0  0  0
 37 46  2  0  0  0  0
 32 47  1  0  0  0  0
 34 48  2  0  0  0  0
 33 49  1  0  0  0  0
 49 50  1  0  0  0  0
 50 51  1  0  0  0  0
 51 52  1  0  0  0  0
 52 53  1  0  0  0  0
 53 54  1  0  0  0  0
 54 49  1  0  0  0  0
 51 55  1  1  0  0  0
 55 56  1  0  0  0  0
 24 57  1  1  0  0  0
 33 58  1  1  0  0  0
 53 59  1  1  0  0  0
 23 60  1  6  0  0  0
 25 61  1  6  0  0  0
 20 62  1  6  0  0  0
  6 63  1  6  0  0  0
 54 64  1  6  0  0  0
 49 65  1  6  0  0  0
 52 66  1  6  0  0  0
  1 67  1  0  0  0  0
M  END
>  <cdx:fragmentId>
5

$$$$
