90273.cdx
  Mrv1902 05222410252D          

 47 53  0  0  0  0            999 V2000
   10.8091   -9.5425    0.0000 C   0  0  1  0  0  0  0  0  0  0  0  0
   10.8091   -8.7175    0.0000 C   0  0  0  0  0  0  0  0  0  0  0  0
   11.5235   -8.3050    0.0000 C   0  0  0  0  0  0  0  0  0  0  0  0
   11.5235   -9.9550    0.0000 C   0  0  0  0  0  0  0  0  0  0  0  0
   12.2380   -9.5425    0.0000 C   0  0  2  0  0  0  0  0  0  0  0  0
   12.9525   -9.9550    0.0000 C   0  0  0  0  0  0  0  0  0  0  0  0
   13.6669   -9.5425    0.0000 C   0  0  0  0  0  0  0  0  0  0  0  0
   13.6669   -8.7175    0.0000 C   0  0  1  0  0  0  0  0  0  0  0  0
   14.3814   -8.3050    0.0000 C   0  0  2  0  0  0  0  0  0  0  0  0
   15.1660   -8.5599    0.0000 C   0  0  0  0  0  0  0  0  0  0  0  0
   15.6510   -7.8925    0.0000 C   0  0  2  0  0  0  0  0  0  0  0  0
   16.1359   -8.5599    0.0000 H   0  0  0  0  0  0  0  0  0  0  0  0
   16.4356   -7.6375    0.0000 O   0  0  0  0  0  0  0  0  0  0  0  0
   15.1660   -7.2250    0.0000 C   0  0  2  0  0  0  0  0  0  0  0  0
   14.8044   -6.4835    0.0000 H   0  0  0  0  0  0  0  0  0  0  0  0
   15.6510   -6.5576    0.0000 C   0  0  1  0  0  0  0  0  0  0  0  0
   16.4356   -6.8125    0.0000 C   0  0  2  0  0  0  0  0  0  0  0  0
   16.3493   -5.9921    0.0000 O   0  0  0  0  0  0  0  0  0  0  0  0
   17.1893   -7.1481    0.0000 C   0  0  0  0  0  0  0  0  0  0  0  0
   17.8567   -6.6632    0.0000 C   0  0  0  0  0  0  0  0  0  0  0  0
   17.7705   -5.8427    0.0000 C   0  0  2  0  0  0  0  0  0  0  0  0
   17.0168   -5.5071    0.0000 C   0  0  0  0  0  0  0  0  0  0  0  0
   18.4379   -5.3578    0.0000 C   0  0  0  0  0  0  0  0  0  0  0  0
   15.3960   -5.7730    0.0000 C   0  0  0  0  0  0  0  0  0  0  0  0
   14.3814   -7.4800    0.0000 C   0  0  2  0  0  0  0  0  0  0  0  0
   14.3814   -6.6550    0.0000 C   0  0  0  0  0  0  0  0  0  0  0  0
   13.6669   -7.0675    0.0000 C   0  0  0  0  0  0  0  0  0  0  0  0
   12.9525   -7.4800    0.0000 C   0  0  0  0  0  0  0  0  0  0  0  0
   12.9525   -8.3050    0.0000 C   0  0  2  0  0  0  0  0  0  0  0  0
   12.2380   -8.7175    0.0000 C   0  0  1  0  0  0  0  0  0  0  0  0
   12.2380   -7.8925    0.0000 C   0  0  0  0  0  0  0  0  0  0  0  0
   12.9525   -9.1300    0.0000 H   0  0  0  0  0  0  0  0  0  0  0  0
   13.6669   -7.8925    0.0000 H   0  0  0  0  0  0  0  0  0  0  0  0
   14.3814   -9.1300    0.0000 H   0  0  0  0  0  0  0  0  0  0  0  0
   10.0946   -9.9550    0.0000 O   0  0  0  0  0  0  0  0  0  0  0  0
   12.2380  -10.3675    0.0000 H   0  0  0  0  0  0  0  0  0  0  0  0
    8.6911   -8.3016    0.0000 C   0  0  2  0  0  0  0  0  0  0  0  0
    7.9767   -8.7143    0.0000 C   0  0  1  0  0  0  0  0  0  0  0  0
    7.9770   -9.5393    0.0000 C   0  0  1  0  0  0  0  0  0  0  0  0
    8.6916   -9.9516    0.0000 C   0  0  2  0  0  0  0  0  0  0  0  0
    9.4059   -9.5389    0.0000 C   0  0  1  0  0  0  0  0  0  0  0  0
    9.4057   -8.7139    0.0000 O   0  0  0  0  0  0  0  0  0  0  0  0
    8.6908   -7.4766    0.0000 C   0  0  0  0  0  0  0  0  0  0  0  0
    7.2626   -9.9520    0.0000 O   0  0  0  0  0  0  0  0  0  0  0  0
    7.2621   -8.3020    0.0000 O   0  0  0  0  0  0  0  0  0  0  0  0
    8.6918  -10.7766    0.0000 O   0  0  0  0  0  0  0  0  0  0  0  0
    7.9763   -7.0643    0.0000 O   0  0  0  0  0  0  0  0  0  0  0  0
  1  2  1  0  0  0  0
  2  3  1  0  0  0  0
  1  4  1  0  0  0  0
  4  5  1  0  0  0  0
  5  6  1  0  0  0  0
  6  7  1  0  0  0  0
  7  8  1  0  0  0  0
  8  9  1  0  0  0  0
  9 10  1  0  0  0  0
 10 11  1  0  0  0  0
 11 12  1  6  0  0  0
 11 13  1  0  0  0  0
 11 14  1  0  0  0  0
 14 15  1  6  0  0  0
 14 16  1  0  0  0  0
 16 17  1  0  0  0  0
 17 13  1  6  0  0  0
 17 18  1  0  0  0  0
 17 19  1  0  0  0  0
 19 20  1  0  0  0  0
 20 21  1  0  0  0  0
 21 22  1  0  0  0  0
 18 22  1  0  0  0  0
 21 23  1  6  0  0  0
 16 24  1  6  0  0  0
 14 25  1  0  0  0  0
  9 25  1  0  0  0  0
 25 26  1  1  0  0  0
 25 27  1  0  0  0  0
 27 28  1  0  0  0  0
 28 29  1  0  0  0  0
  8 29  1  0  0  0  0
 29 30  1  0  0  0  0
  3 30  1  0  0  0  0
  5 30  1  0  0  0  0
 30 31  1  1  0  0  0
 29 32  1  6  0  0  0
  8 33  1  1  0  0  0
  9 34  1  6  0  0  0
  1 35  1  1  0  0  0
  5 36  1  6  0  0  0
 37 38  1  0  0  0  0
 38 39  1  0  0  0  0
 39 40  1  0  0  0  0
 40 41  1  0  0  0  0
 41 42  1  0  0  0  0
 42 37  1  0  0  0  0
 37 43  1  1  0  0  0
 39 44  1  1  0  0  0
 38 45  1  1  0  0  0
 40 46  1  6  0  0  0
 43 47  1  0  0  0  0
 41 35  1  1  0  0  0
M  END
>  <cdx:fragmentId>
5

$$$$
