902743.cdx
  Mrv1902 05222410272D          

 27 30  0  0  0  0            999 V2000
    6.8600   -8.0767    0.0000 C   0  0  0  0  0  0  0  0  0  0  0  0
    7.5745   -7.6642    0.0000 N   0  0  0  0  0  0  0  0  0  0  0  0
    7.5745   -6.8392    0.0000 C   0  0  1  0  0  0  0  0  0  0  0  0
    6.8600   -6.4267    0.0000 C   0  0  0  0  0  0  0  0  0  0  0  0
    6.1455   -6.8392    0.0000 C   0  0  0  0  0  0  0  0  0  0  0  0
    5.4311   -6.4267    0.0000 C   0  0  0  0  0  0  0  0  0  0  0  0
    4.7166   -6.8392    0.0000 C   0  0  0  0  0  0  0  0  0  0  0  0
    4.7166   -7.6642    0.0000 C   0  0  0  0  0  0  0  0  0  0  0  0
    5.4311   -8.0767    0.0000 C   0  0  0  0  0  0  0  0  0  0  0  0
    6.1455   -7.6642    0.0000 C   0  0  0  0  0  0  0  0  0  0  0  0
    8.2890   -8.0767    0.0000 C   0  0  0  0  0  0  0  0  0  0  0  0
    9.0034   -7.6642    0.0000 C   0  0  0  0  0  0  0  0  0  0  0  0
    9.0034   -6.8392    0.0000 C   0  0  0  0  0  0  0  0  0  0  0  0
    9.7179   -6.4267    0.0000 C   0  0  0  0  0  0  0  0  0  0  0  0
    9.7179   -5.6017    0.0000 C   0  0  0  0  0  0  0  0  0  0  0  0
    9.0034   -5.1892    0.0000 C   0  0  0  0  0  0  0  0  0  0  0  0
    8.2890   -5.6017    0.0000 C   0  0  0  0  0  0  0  0  0  0  0  0
    8.2890   -6.4267    0.0000 C   0  0  0  0  0  0  0  0  0  0  0  0
    4.0021   -8.0767    0.0000 O   0  0  0  0  0  0  0  0  0  0  0  0
    5.4311   -8.9017    0.0000 O   0  0  0  0  0  0  0  0  0  0  0  0
    4.7166   -9.3142    0.0000 C   0  0  0  0  0  0  0  0  0  0  0  0
   10.4324   -5.1892    0.0000 O   0  0  0  0  0  0  0  0  0  0  0  0
   11.1468   -5.6017    0.0000 C   0  0  0  0  0  0  0  0  0  0  0  0
    9.0034   -4.3642    0.0000 O   0  0  0  0  0  0  0  0  0  0  0  0
    9.7179   -3.9517    0.0000 C   0  0  0  0  0  0  0  0  0  0  0  0
    7.5745   -6.0142    0.0000 H   0  0  0  0  0  0  0  0  0  0  0  0
    6.8600   -5.6017    0.0000 C   0  0  0  0  0  0  0  0  0  0  0  0
  1  2  1  0  0  0  0
  2  3  1  0  0  0  0
  3  4  1  0  0  0  0
  4  5  1  0  0  0  0
  5  6  1  0  0  0  0
  6  7  2  0  0  0  0
  7  8  1  0  0  0  0
  8  9  2  0  0  0  0
  9 10  1  0  0  0  0
  1 10  1  0  0  0  0
  5 10  2  0  0  0  0
 11 12  1  0  0  0  0
 12 13  1  0  0  0  0
 13 14  1  0  0  0  0
 14 15  2  0  0  0  0
 15 16  1  0  0  0  0
 16 17  2  0  0  0  0
 17 18  1  0  0  0  0
 13 18  2  0  0  0  0
 11  2  1  0  0  0  0
 18  3  1  0  0  0  0
  8 19  1  0  0  0  0
 20 21  1  0  0  0  0
  9 20  1  0  0  0  0
 22 23  1  0  0  0  0
 15 22  1  0  0  0  0
 24 25  1  0  0  0  0
 16 24  1  0  0  0  0
  3 26  1  6  0  0  0
  4 27  1  0  0  0  0
M  END
>  <cdx:fragmentId>
5

$$$$
