90279.cdx
  Mrv1902 05222410232D          

 16 19  0  0  0  0            999 V2000
    6.7655   -7.1500    0.0000 C   0  0  0  0  0  0  0  0  0  0  0  0
    6.7655   -7.9750    0.0000 C   0  0  0  0  0  0  0  0  0  0  0  0
    7.4800   -8.3875    0.0000 C   0  0  0  0  0  0  0  0  0  0  0  0
    8.1945   -7.9750    0.0000 C   0  0  0  0  0  0  0  0  0  0  0  0
    8.1945   -7.1500    0.0000 C   0  0  2  0  0  0  0  0  0  0  0  0
    7.4800   -6.7375    0.0000 C   0  0  0  0  0  0  0  0  0  0  0  0
    8.9791   -8.2299    0.0000 C   0  0  1  0  0  0  0  0  0  0  0  0
    9.4640   -7.5625    0.0000 C   0  0  0  0  0  0  0  0  0  0  0  0
    8.9791   -6.8951    0.0000 C   0  0  0  0  0  0  0  0  0  0  0  0
    9.2340   -9.0146    0.0000 C   0  0  0  0  0  0  0  0  0  0  0  0
    8.1945   -6.3250    0.0000 H   0  0  0  0  0  0  0  0  0  0  0  0
    8.1945   -8.8000    0.0000 C   0  0  0  0  0  0  0  0  0  0  0  0
    6.0511   -6.7375    0.0000 C   0  0  0  0  0  0  0  0  0  0  0  0
    5.3366   -7.1500    0.0000 C   0  0  0  0  0  0  0  0  0  0  0  0
    6.0511   -5.9125    0.0000 C   0  0  0  0  0  0  0  0  0  0  0  0
    8.4700   -7.7000    0.0000 C   0  0  0  0  0  0  0  0  0  0  0  0
  1  2  2  0  0  0  0
  2  3  1  0  0  0  0
  3  4  1  0  0  0  0
  4  5  1  0  0  0  0
  5  6  1  0  0  0  0
  6  1  1  0  0  0  0
  4  7  1  0  0  0  0
  7  8  1  0  0  0  0
  8  9  1  0  0  0  0
  9  5  1  0  0  0  0
  7 10  1  6  0  0  0
  5 11  1  1  0  0  0
  4 12  1  0  0  0  0
  1 13  1  0  0  0  0
 13 14  1  0  0  0  0
 13 15  1  0  0  0  0
  8 16  1  0  0  0  0
 16  7  1  0  0  0  0
 16  6  1  0  0  0  0
M  END
>  <cdx:fragmentId>
77

$$$$
