90271.cdx
  Mrv1902 05222410252D          

 71 72  0  0  0  0            999 V2000
   17.3179  -10.4807    0.0000 C   0  0  0  0  0  0  0  0  0  0  0  0
   16.6034  -10.0682    0.0000 C   0  0  0  0  0  0  0  0  0  0  0  0
   15.8889  -10.4807    0.0000 C   0  0  0  0  0  0  0  0  0  0  0  0
   15.1744  -10.0682    0.0000 C   0  0  0  0  0  0  0  0  0  0  0  0
   14.4600  -10.4807    0.0000 C   0  0  0  0  0  0  0  0  0  0  0  0
   13.7455  -10.0682    0.0000 C   0  0  0  0  0  0  0  0  0  0  0  0
   13.0310  -10.4807    0.0000 C   0  0  0  0  0  0  0  0  0  0  0  0
   12.3166  -10.0682    0.0000 C   0  0  0  0  0  0  0  0  0  0  0  0
   11.6021  -10.4807    0.0000 C   0  0  0  0  0  0  0  0  0  0  0  0
   10.8876  -10.0682    0.0000 C   0  0  0  0  0  0  0  0  0  0  0  0
   10.1731  -10.4807    0.0000 C   0  0  0  0  0  0  0  0  0  0  0  0
    9.4587  -10.0682    0.0000 C   0  0  0  0  0  0  0  0  0  0  0  0
    8.7442  -10.4807    0.0000 C   0  0  0  0  0  0  0  0  0  0  0  0
    8.0297  -10.0682    0.0000 C   0  0  0  0  0  0  0  0  0  0  0  0
    7.3153  -10.4807    0.0000 C   0  0  0  0  0  0  0  0  0  0  0  0
    6.6008  -10.0682    0.0000 C   0  0  0  0  0  0  0  0  0  0  0  0
    5.8863  -10.4807    0.0000 C   0  0  0  0  0  0  0  0  0  0  0  0
    5.1718  -10.0682    0.0000 C   0  0  0  0  0  0  0  0  0  0  0  0
    4.4574  -10.4807    0.0000 C   0  0  0  0  0  0  0  0  0  0  0  0
   17.3179  -11.3057    0.0000 O   0  0  0  0  0  0  0  0  0  0  0  0
    5.8863  -11.3057    0.0000 C   0  0  0  0  0  0  0  0  0  0  0  0
    8.7442  -11.3057    0.0000 C   0  0  0  0  0  0  0  0  0  0  0  0
   12.3166   -9.2432    0.0000 C   0  0  0  0  0  0  0  0  0  0  0  0
   15.1744   -9.2432    0.0000 C   0  0  0  0  0  0  0  0  0  0  0  0
   18.0323  -10.0682    0.0000 C   0  0  1  0  0  0  0  0  0  0  0  0
   18.5172   -9.4007    0.0000 C   0  0  0  0  0  0  0  0  0  0  0  0
   19.3019   -9.6557    0.0000 C   0  0  0  0  0  0  0  0  0  0  0  0
   19.3019  -10.4807    0.0000 C   0  0  1  0  0  0  0  0  0  0  0  0
   18.5172  -10.7356    0.0000 C   0  0  0  0  0  0  0  0  0  0  0  0
   17.9042   -8.8487    0.0000 C   0  0  0  0  0  0  0  0  0  0  0  0
   18.6888   -8.5938    0.0000 C   0  0  0  0  0  0  0  0  0  0  0  0
   17.3179   -9.6557    0.0000 C   0  0  0  0  0  0  0  0  0  0  0  0
   19.9693  -10.9656    0.0000 O   0  0  0  0  0  0  0  0  0  0  0  0
    3.7429  -10.0682    0.0000 C   0  0  0  0  0  0  0  0  0  0  0  0
    3.0284  -10.4807    0.0000 C   0  0  0  0  0  0  0  0  0  0  0  0
    2.3140  -10.0682    0.0000 C   0  0  0  0  0  0  0  0  0  0  0  0
    2.3140   -9.2432    0.0000 C   0  0  2  0  0  0  0  0  0  0  0  0
    3.0284   -8.8307    0.0000 C   0  0  0  0  0  0  0  0  0  0  0  0
    3.7429   -9.2432    0.0000 C   0  0  0  0  0  0  0  0  0  0  0  0
    4.1554   -8.5287    0.0000 C   0  0  0  0  0  0  0  0  0  0  0  0
    4.5679   -9.2432    0.0000 C   0  0  0  0  0  0  0  0  0  0  0  0
    3.0284  -11.3057    0.0000 C   0  0  0  0  0  0  0  0  0  0  0  0
    1.5995   -8.8307    0.0000 O   0  0  0  0  0  0  0  0  0  0  0  0
   19.9623  -11.8060    0.0000 C   0  0  0  0  0  0  0  0  0  0  0  0
   12.1039  -12.2341    0.0000 C   0  0  0  0  0  0  0  0  0  0  0  0
   20.6776  -12.2171    0.0000 O   0  0  0  0  0  0  0  0  0  0  0  0
   12.8176  -11.8202    0.0000 C   0  0  0  0  0  0  0  0  0  0  0  0
   13.5329  -12.2312    0.0000 C   0  0  0  0  0  0  0  0  0  0  0  0
   14.2465  -11.8173    0.0000 C   0  0  0  0  0  0  0  0  0  0  0  0
   14.9618  -12.2284    0.0000 C   0  0  0  0  0  0  0  0  0  0  0  0
   15.6754  -11.8145    0.0000 C   0  0  0  0  0  0  0  0  0  0  0  0
   16.3907  -12.2256    0.0000 C   0  0  0  0  0  0  0  0  0  0  0  0
   17.1044  -11.8117    0.0000 C   0  0  0  0  0  0  0  0  0  0  0  0
   17.8197  -12.2227    0.0000 C   0  0  0  0  0  0  0  0  0  0  0  0
   18.5333  -11.8088    0.0000 C   0  0  0  0  0  0  0  0  0  0  0  0
   19.2486  -12.2199    0.0000 C   0  0  0  0  0  0  0  0  0  0  0  0
    1.6052   -8.0006    0.0000 C   0  0  0  0  0  0  0  0  0  0  0  0
    9.4640   -7.5811    0.0000 C   0  0  0  0  0  0  0  0  0  0  0  0
    0.8903   -7.5888    0.0000 O   0  0  0  0  0  0  0  0  0  0  0  0
    8.7499   -7.9942    0.0000 C   0  0  0  0  0  0  0  0  0  0  0  0
    8.0350   -7.5824    0.0000 C   0  0  0  0  0  0  0  0  0  0  0  0
    7.3209   -7.9955    0.0000 C   0  0  0  0  0  0  0  0  0  0  0  0
    6.6061   -7.5837    0.0000 C   0  0  0  0  0  0  0  0  0  0  0  0
    5.8920   -7.9968    0.0000 C   0  0  0  0  0  0  0  0  0  0  0  0
    5.1772   -7.5849    0.0000 C   0  0  0  0  0  0  0  0  0  0  0  0
    4.4631   -7.9981    0.0000 C   0  0  0  0  0  0  0  0  0  0  0  0
    3.7482   -7.5862    0.0000 C   0  0  0  0  0  0  0  0  0  0  0  0
    3.0341   -7.9994    0.0000 C   0  0  0  0  0  0  0  0  0  0  0  0
    2.3193   -7.5875    0.0000 C   0  0  0  0  0  0  0  0  0  0  0  0
   11.3886  -11.8230    0.0000 C   0  0  0  0  0  0  0  0  0  0  0  0
   10.6750  -12.2369    0.0000 C   0  0  0  0  0  0  0  0  0  0  0  0
  1  2  1  0  0  0  0
  2  3  2  0  0  0  0
  3  4  1  0  0  0  0
  4  5  2  0  0  0  0
  5  6  1  0  0  0  0
  6  7  2  0  0  0  0
  7  8  1  0  0  0  0
  8  9  2  0  0  0  0
  9 10  1  0  0  0  0
 10 11  2  0  0  0  0
 11 12  1  0  0  0  0
 12 13  2  0  0  0  0
 13 14  1  0  0  0  0
 14 15  2  0  0  0  0
 15 16  1  0  0  0  0
 16 17  2  0  0  0  0
 17 18  1  0  0  0  0
 18 19  2  0  0  0  0
  1 20  2  0  0  0  0
 17 21  1  0  0  0  0
 13 22  1  0  0  0  0
  8 23  1  0  0  0  0
  4 24  1  0  0  0  0
 25 26  1  0  0  0  0
 26 27  1  0  0  0  0
 27 28  1  0  0  0  0
 28 29  1  0  0  0  0
 25 29  1  0  0  0  0
 26 30  1  0  0  0  0
 26 31  1  0  0  0  0
 25 32  1  6  0  0  0
 28 33  1  6  0  0  0
 25  1  1  1  0  0  0
 34 35  2  0  0  0  0
 35 36  1  0  0  0  0
 36 37  1  0  0  0  0
 37 38  1  0  0  0  0
 38 39  1  0  0  0  0
 34 39  1  0  0  0  0
 39 40  1  0  0  0  0
 39 41  1  0  0  0  0
 35 42  1  0  0  0  0
 37 43  1  1  0  0  0
 19 34  1  0  0  0  0
 47 45  1  0  0  0  0
 48 47  1  0  0  0  0
 49 48  1  0  0  0  0
 50 49  1  0  0  0  0
 51 50  1  0  0  0  0
 52 51  1  0  0  0  0
 53 52  1  0  0  0  0
 54 53  1  0  0  0  0
 55 54  1  0  0  0  0
 56 55  1  0  0  0  0
 44 56  1  0  0  0  0
 44 46  2  0  0  0  0
 60 58  1  0  0  0  0
 61 60  1  0  0  0  0
 62 61  1  0  0  0  0
 63 62  1  0  0  0  0
 64 63  1  0  0  0  0
 65 64  1  0  0  0  0
 66 65  1  0  0  0  0
 67 66  1  0  0  0  0
 68 67  1  0  0  0  0
 69 68  1  0  0  0  0
 57 69  1  0  0  0  0
 57 59  2  0  0  0  0
 44 33  1  0  0  0  0
 57 43  1  0  0  0  0
 45 70  1  0  0  0  0
 70 71  1  0  0  0  0
M  END
>  <cdx:fragmentId>
5

$$$$
