90270.cdx
  Mrv1902 05222410252D          

 56 57  0  0  0  0            999 V2000
    3.3155   -8.4214    0.0000 C   0  0  0  0  0  0  0  0  0  0  0  0
    4.0293   -8.8351    0.0000 C   0  0  0  0  0  0  0  0  0  0  0  0
    4.0280   -9.6601    0.0000 C   0  0  0  0  0  0  0  0  0  0  0  0
    3.3128  -10.0714    0.0000 C   0  0  0  0  0  0  0  0  0  0  0  0
    2.5990   -9.6577    0.0000 C   0  0  0  0  0  0  0  0  0  0  0  0
    2.6004   -8.8327    0.0000 C   0  0  1  0  0  0  0  0  0  0  0  0
    3.3115  -10.8964    0.0000 C   0  0  0  0  0  0  0  0  0  0  0  0
    4.4430   -8.1213    0.0000 C   0  0  0  0  0  0  0  0  0  0  0  0
    4.8543   -8.8364    0.0000 C   0  0  0  0  0  0  0  0  0  0  0  0
    1.8866   -8.4190    0.0000 O   0  0  0  0  0  0  0  0  0  0  0  0
    1.8889   -7.5434    0.0000 C   0  0  0  0  0  0  0  0  0  0  0  0
    9.7472   -7.1130    0.0000 C   0  0  0  0  0  0  0  0  0  0  0  0
    1.1735   -7.1325    0.0000 O   0  0  0  0  0  0  0  0  0  0  0  0
   20.2529  -10.5842    0.0000 O   0  0  0  0  0  0  0  0  0  0  0  0
   17.6036   -9.2699    0.0000 C   0  0  0  0  0  0  0  0  0  0  0  0
   18.1912   -8.4639    0.0000 C   0  0  0  0  0  0  0  0  0  0  0  0
   18.9763   -8.2102    0.0000 C   0  0  0  0  0  0  0  0  0  0  0  0
   18.8012  -10.3518    0.0000 C   0  0  0  0  0  0  0  0  0  0  0  0
   19.5863  -10.0981    0.0000 C   0  0  2  0  0  0  0  0  0  0  0  0
   19.5876   -9.2731    0.0000 C   0  0  0  0  0  0  0  0  0  0  0  0
   18.8034   -9.0169    0.0000 C   0  0  0  0  0  0  0  0  0  0  0  0
   18.3174   -9.6835    0.0000 C   0  0  1  0  0  0  0  0  0  0  0  0
    6.1694  -10.9011    0.0000 C   0  0  0  0  0  0  0  0  0  0  0  0
    9.0272  -10.9058    0.0000 C   0  0  0  0  0  0  0  0  0  0  0  0
   12.6030   -8.8492    0.0000 C   0  0  0  0  0  0  0  0  0  0  0  0
   15.4609   -8.8539    0.0000 C   0  0  0  0  0  0  0  0  0  0  0  0
   17.6009  -10.9199    0.0000 O   0  0  0  0  0  0  0  0  0  0  0  0
   17.6022  -10.0949    0.0000 C   0  0  0  0  0  0  0  0  0  0  0  0
   16.8884   -9.6812    0.0000 C   0  0  0  0  0  0  0  0  0  0  0  0
   16.1733  -10.0925    0.0000 C   0  0  0  0  0  0  0  0  0  0  0  0
   15.4595   -9.6788    0.0000 C   0  0  0  0  0  0  0  0  0  0  0  0
   14.7444  -10.0902    0.0000 C   0  0  0  0  0  0  0  0  0  0  0  0
   14.0306   -9.6765    0.0000 C   0  0  0  0  0  0  0  0  0  0  0  0
   13.3154  -10.0878    0.0000 C   0  0  0  0  0  0  0  0  0  0  0  0
   12.6016   -9.6742    0.0000 C   0  0  0  0  0  0  0  0  0  0  0  0
   11.8865  -10.0855    0.0000 C   0  0  0  0  0  0  0  0  0  0  0  0
   11.1727   -9.6718    0.0000 C   0  0  0  0  0  0  0  0  0  0  0  0
   10.4575  -10.0831    0.0000 C   0  0  0  0  0  0  0  0  0  0  0  0
    9.7437   -9.6695    0.0000 C   0  0  0  0  0  0  0  0  0  0  0  0
    9.0286  -10.0808    0.0000 C   0  0  0  0  0  0  0  0  0  0  0  0
    8.3148   -9.6671    0.0000 C   0  0  0  0  0  0  0  0  0  0  0  0
    7.5997  -10.0784    0.0000 C   0  0  0  0  0  0  0  0  0  0  0  0
    6.8859   -9.6648    0.0000 C   0  0  0  0  0  0  0  0  0  0  0  0
    6.1707  -10.0761    0.0000 C   0  0  0  0  0  0  0  0  0  0  0  0
    5.4569   -9.6624    0.0000 C   0  0  0  0  0  0  0  0  0  0  0  0
    4.7418  -10.0737    0.0000 C   0  0  0  0  0  0  0  0  0  0  0  0
    9.0336   -7.5271    0.0000 C   0  0  0  0  0  0  0  0  0  0  0  0
    8.3182   -7.1163    0.0000 C   0  0  0  0  0  0  0  0  0  0  0  0
    7.6047   -7.5304    0.0000 C   0  0  0  0  0  0  0  0  0  0  0  0
    6.8893   -7.1195    0.0000 C   0  0  0  0  0  0  0  0  0  0  0  0
    6.1757   -7.5336    0.0000 C   0  0  0  0  0  0  0  0  0  0  0  0
    5.4603   -7.1228    0.0000 C   0  0  0  0  0  0  0  0  0  0  0  0
    4.7468   -7.5369    0.0000 C   0  0  0  0  0  0  0  0  0  0  0  0
    4.0314   -7.1260    0.0000 C   0  0  0  0  0  0  0  0  0  0  0  0
    3.3179   -7.5402    0.0000 C   0  0  0  0  0  0  0  0  0  0  0  0
    2.6025   -7.1293    0.0000 C   0  0  0  0  0  0  0  0  0  0  0  0
 22 28  1  1  0  0  0
 19 14  1  6  0  0  0
 22 15  1  6  0  0  0
 21 16  1  0  0  0  0
 21 17  1  0  0  0  0
 22 18  1  0  0  0  0
 19 18  1  0  0  0  0
 20 19  1  0  0  0  0
 21 20  1  0  0  0  0
 22 21  1  0  0  0  0
 44 23  1  0  0  0  0
 40 24  1  0  0  0  0
 35 25  1  0  0  0  0
 31 26  1  0  0  0  0
 28 27  2  0  0  0  0
 29 28  1  0  0  0  0
 30 29  2  0  0  0  0
 31 30  1  0  0  0  0
 32 31  2  0  0  0  0
 33 32  1  0  0  0  0
 34 33  2  0  0  0  0
 35 34  1  0  0  0  0
 36 35  2  0  0  0  0
 37 36  1  0  0  0  0
 38 37  2  0  0  0  0
 39 38  1  0  0  0  0
 40 39  2  0  0  0  0
 41 40  1  0  0  0  0
 42 41  2  0  0  0  0
 43 42  1  0  0  0  0
 44 43  2  0  0  0  0
 45 44  1  0  0  0  0
 46 45  2  0  0  0  0
 47 12  1  0  0  0  0
 48 47  1  0  0  0  0
 49 48  1  0  0  0  0
 50 49  1  0  0  0  0
 51 50  1  0  0  0  0
 52 51  1  0  0  0  0
 53 52  1  0  0  0  0
 54 53  1  0  0  0  0
 55 54  1  0  0  0  0
 56 55  1  0  0  0  0
  1  2  1  0  0  0  0
  2  3  1  0  0  0  0
  3  4  2  0  0  0  0
  4  5  1  0  0  0  0
  5  6  1  0  0  0  0
  1  6  1  0  0  0  0
  4  7  1  0  0  0  0
  2  8  1  0  0  0  0
  2  9  1  0  0  0  0
  3 46  1  0  0  0  0
  6 10  1  1  0  0  0
 11 56  1  0  0  0  0
 11 13  2  0  0  0  0
 11 10  1  0  0  0  0
M  END
>  <cdx:fragmentId>
51

$$$$
