90276.cdx
  Mrv1902 05222410242D          

 14 14  0  0  0  0            999 V2000
    3.8343   -8.8401    0.0000 C   0  0  0  0  0  0  0  0  0  0  0  0
    3.8343   -9.6651    0.0000 C   0  0  0  0  0  0  0  0  0  0  0  0
    4.5488  -10.0776    0.0000 C   0  0  0  0  0  0  0  0  0  0  0  0
    5.2632   -9.6651    0.0000 C   0  0  0  0  0  0  0  0  0  0  0  0
    5.2632   -8.8401    0.0000 C   0  0  0  0  0  0  0  0  0  0  0  0
    4.5488   -8.4276    0.0000 C   0  0  0  0  0  0  0  0  0  0  0  0
    5.9777  -10.0776    0.0000 O   0  0  0  0  0  0  0  0  0  0  0  0
    5.9777   -8.4276    0.0000 C   0  0  0  0  0  0  0  0  0  0  0  0
    6.6922   -8.8401    0.0000 C   0  0  0  0  0  0  0  0  0  0  0  0
    7.4067   -8.4276    0.0000 C   0  0  0  0  0  0  0  0  0  0  0  0
    8.1211   -8.8401    0.0000 O   0  0  0  0  0  0  0  0  0  0  0  0
    8.8356   -8.4276    0.0000 C   0  0  0  0  0  0  0  0  0  0  0  0
    9.5501   -8.8401    0.0000 C   0  0  0  0  0  0  0  0  0  0  0  0
    8.8356   -7.6026    0.0000 O   0  0  0  0  0  0  0  0  0  0  0  0
  1  2  2  0  0  0  0
  2  3  1  0  0  0  0
  3  4  2  0  0  0  0
  4  5  1  0  0  0  0
  5  6  2  0  0  0  0
  6  1  1  0  0  0  0
  4  7  1  0  0  0  0
  5  8  1  0  0  0  0
  8  9  2  0  0  0  0
  9 10  1  0  0  0  0
 10 11  1  0  0  0  0
 11 12  1  0  0  0  0
 12 13  1  0  0  0  0
 12 14  2  0  0  0  0
M  END
>  <cdx:fragmentId>
5

$$$$
