90272.cdx
  Mrv1902 05222410242D          

 58 59  0  0  0  0            999 V2000
   17.1828  -11.2148    0.0000 C   0  0  0  0  0  0  0  0  0  0  0  0
   16.4719  -10.7962    0.0000 C   0  0  0  0  0  0  0  0  0  0  0  0
   15.0501   -9.9590    0.0000 C   0  0  0  0  0  0  0  0  0  0  0  0
   15.0430  -10.7840    0.0000 C   0  0  0  0  0  0  0  0  0  0  0  0
   15.7539  -11.2026    0.0000 C   0  0  0  0  0  0  0  0  0  0  0  0
   13.6141  -10.7717    0.0000 C   0  0  0  0  0  0  0  0  0  0  0  0
   14.3250  -11.1903    0.0000 C   0  0  0  0  0  0  0  0  0  0  0  0
   12.1923   -9.9344    0.0000 C   0  0  0  0  0  0  0  0  0  0  0  0
   12.1852  -10.7594    0.0000 C   0  0  0  0  0  0  0  0  0  0  0  0
   12.8961  -11.1780    0.0000 C   0  0  0  0  0  0  0  0  0  0  0  0
   10.7563  -10.7471    0.0000 C   0  0  0  0  0  0  0  0  0  0  0  0
   11.4672  -11.1658    0.0000 C   0  0  0  0  0  0  0  0  0  0  0  0
    9.3275  -10.7349    0.0000 C   0  0  0  0  0  0  0  0  0  0  0  0
   10.0384  -11.1535    0.0000 C   0  0  0  0  0  0  0  0  0  0  0  0
    7.8986  -10.7226    0.0000 C   0  0  0  0  0  0  0  0  0  0  0  0
    8.6095  -11.1412    0.0000 C   0  0  0  0  0  0  0  0  0  0  0  0
    6.4697  -10.7103    0.0000 C   0  0  0  0  0  0  0  0  0  0  0  0
    7.1806  -11.1289    0.0000 C   0  0  0  0  0  0  0  0  0  0  0  0
    5.0408  -10.6981    0.0000 C   0  0  0  0  0  0  0  0  0  0  0  0
    5.7517  -11.1167    0.0000 C   0  0  0  0  0  0  0  0  0  0  0  0
    4.3228  -11.1044    0.0000 C   0  0  0  0  0  0  0  0  0  0  0  0
    1.4840   -8.6035    0.0000 C   0  0  0  0  0  0  0  0  0  0  0  0
    1.4792   -9.4299    0.0000 O   0  0  0  0  0  0  0  0  0  0  0  0
   10.7733   -8.2175    0.0000 C   0  0  0  0  0  0  0  0  0  0  0  0
   10.0576   -8.6279    0.0000 C   0  0  0  0  0  0  0  0  0  0  0  0
    9.3443   -8.2134    0.0000 C   0  0  0  0  0  0  0  0  0  0  0  0
    8.6287   -8.6239    0.0000 C   0  0  0  0  0  0  0  0  0  0  0  0
    7.9154   -8.2093    0.0000 C   0  0  0  0  0  0  0  0  0  0  0  0
    7.1998   -8.6198    0.0000 C   0  0  0  0  0  0  0  0  0  0  0  0
    5.7446  -11.9416    0.0000 C   0  0  0  0  0  0  0  0  0  0  0  0
    8.6024  -11.9662    0.0000 C   0  0  0  0  0  0  0  0  0  0  0  0
   17.1757  -12.0398    0.0000 O   0  0  0  0  0  0  0  0  0  0  0  0
   19.9461  -11.4201    0.0000 O   0  0  0  0  0  0  0  0  0  0  0  0
   18.3830   -9.2594    0.0000 C   0  0  0  0  0  0  0  0  0  0  0  0
   17.6247   -9.5846    0.0000 C   0  0  0  0  0  0  0  0  0  0  0  0
   18.4761  -11.3998    0.0000 C   0  0  0  0  0  0  0  0  0  0  0  0
   19.2162  -11.0355    0.0000 C   0  0  2  0  0  0  0  0  0  0  0  0
   19.0984  -10.2189    0.0000 C   0  0  0  0  0  0  0  0  0  0  0  0
   18.2854  -10.0786    0.0000 C   0  0  0  0  0  0  0  0  0  0  0  0
   17.9008  -10.8085    0.0000 C   0  0  2  0  0  0  0  0  0  0  0  0
    6.4865   -8.2053    0.0000 C   0  0  0  0  0  0  0  0  0  0  0  0
    5.7708   -8.6157    0.0000 C   0  0  0  0  0  0  0  0  0  0  0  0
    5.0575   -8.2012    0.0000 C   0  0  0  0  0  0  0  0  0  0  0  0
    0.7707   -8.1890    0.0000 O   0  0  0  0  0  0  0  0  0  0  0  0
    4.0376   -9.1499    0.0000 C   0  0  0  0  0  0  0  0  0  0  0  0
    4.4440   -9.8679    0.0000 C   0  0  0  0  0  0  0  0  0  0  0  0
    3.6190   -9.8608    0.0000 C   0  0  0  0  0  0  0  0  0  0  0  0
    2.9081   -9.4422    0.0000 C   0  0  0  0  0  0  0  0  0  0  0  0
    2.1901   -9.8485    0.0000 C   0  0  1  0  0  0  0  0  0  0  0  0
    2.1830  -10.6735    0.0000 C   0  0  0  0  0  0  0  0  0  0  0  0
    3.6119  -10.6858    0.0000 C   0  0  0  0  0  0  0  0  0  0  0  0
    2.8939  -11.0921    0.0000 C   0  0  0  0  0  0  0  0  0  0  0  0
    2.8868  -11.9171    0.0000 C   0  0  0  0  0  0  0  0  0  0  0  0
    4.3419   -8.6116    0.0000 C   0  0  0  0  0  0  0  0  0  0  0  0
    3.6286   -8.1971    0.0000 C   0  0  0  0  0  0  0  0  0  0  0  0
    2.9130   -8.6076    0.0000 C   0  0  0  0  0  0  0  0  0  0  0  0
    2.1997   -8.1930    0.0000 C   0  0  0  0  0  0  0  0  0  0  0  0
   17.1863  -10.3960    0.0000 C   0  0  0  0  0  0  0  0  0  0  0  0
 40  1  1  1  0  0  0
  2  1  1  0  0  0  0
  3  4  1  0  0  0  0
  4  5  1  0  0  0  0
  5  2  2  0  0  0  0
  6  7  1  0  0  0  0
  7  4  2  0  0  0  0
  8  9  1  0  0  0  0
  9 10  1  0  0  0  0
 10  6  2  0  0  0  0
 11 12  1  0  0  0  0
 12  9  2  0  0  0  0
 13 14  1  0  0  0  0
 14 11  2  0  0  0  0
 15 16  1  0  0  0  0
 16 13  2  0  0  0  0
 17 18  1  0  0  0  0
 18 15  2  0  0  0  0
 19 20  1  0  0  0  0
 20 17  2  0  0  0  0
 57 22  1  0  0  0  0
 51 21  1  0  0  0  0
 21 19  2  0  0  0  0
 49 23  1  1  0  0  0
 25 24  1  0  0  0  0
 26 25  1  0  0  0  0
 27 26  1  0  0  0  0
 28 27  1  0  0  0  0
 28 29  1  0  0  0  0
 20 30  1  0  0  0  0
 16 31  1  0  0  0  0
  1 32  2  0  0  0  0
 37 33  1  6  0  0  0
 39 34  1  0  0  0  0
 39 35  1  0  0  0  0
 36 40  1  0  0  0  0
 37 36  1  0  0  0  0
 38 37  1  0  0  0  0
 39 38  1  0  0  0  0
 40 39  1  0  0  0  0
 29 41  1  0  0  0  0
 41 42  1  0  0  0  0
 42 43  1  0  0  0  0
 22 44  2  0  0  0  0
 47 45  1  0  0  0  0
 47 46  1  0  0  0  0
 47 51  1  0  0  0  0
 48 47  1  0  0  0  0
 49 48  1  0  0  0  0
 50 49  1  0  0  0  0
 52 50  1  0  0  0  0
 52 51  2  0  0  0  0
 53 52  1  0  0  0  0
 43 54  1  0  0  0  0
 54 55  1  0  0  0  0
 55 56  1  0  0  0  0
 56 57  1  0  0  0  0
 40 58  1  6  0  0  0
 22 23  1  0  0  0  0
M  END
>  <cdx:fragmentId>
5

$$$$
