90277.cdx
  Mrv1902 05222410242D          

 14 14  0  0  0  0            999 V2000
    6.4743   -7.8776    0.0000 C   0  0  0  0  0  0  0  0  0  0  0  0
    6.4743   -8.7026    0.0000 C   0  0  0  0  0  0  0  0  0  0  0  0
    7.1888   -9.1151    0.0000 C   0  0  0  0  0  0  0  0  0  0  0  0
    7.9032   -8.7026    0.0000 C   0  0  0  0  0  0  0  0  0  0  0  0
    7.9032   -7.8776    0.0000 C   0  0  0  0  0  0  0  0  0  0  0  0
    7.1888   -7.4651    0.0000 C   0  0  0  0  0  0  0  0  0  0  0  0
    7.1888   -6.6401    0.0000 C   0  0  0  0  0  0  0  0  0  0  0  0
    6.4743   -6.2276    0.0000 C   0  0  0  0  0  0  0  0  0  0  0  0
    7.9032   -6.2276    0.0000 C   0  0  0  0  0  0  0  0  0  0  0  0
    7.1888   -9.9401    0.0000 C   0  0  0  0  0  0  0  0  0  0  0  0
    6.4743  -10.3526    0.0000 O   0  0  0  0  0  0  0  0  0  0  0  0
    6.4743  -11.1776    0.0000 C   0  0  0  0  0  0  0  0  0  0  0  0
    5.7598  -11.5901    0.0000 C   0  0  0  0  0  0  0  0  0  0  0  0
    7.1888  -11.5901    0.0000 O   0  0  0  0  0  0  0  0  0  0  0  0
  1  2  2  0  0  0  0
  2  3  1  0  0  0  0
  3  4  2  0  0  0  0
  4  5  1  0  0  0  0
  5  6  2  0  0  0  0
  6  1  1  0  0  0  0
  6  7  1  0  0  0  0
  7  8  1  0  0  0  0
  7  9  1  0  0  0  0
  3 10  1  0  0  0  0
 10 11  1  0  0  0  0
 11 12  1  0  0  0  0
 12 13  1  0  0  0  0
 12 14  2  0  0  0  0
M  END
>  <cdx:fragmentId>
5

$$$$
