90282.cdx
  Mrv1902 05222410202D          

 11 11  0  0  0  0            999 V2000
    6.4606   -9.8714    0.0000 C   0  0  0  0  0  0  0  0  0  0  0  0
    6.4606  -10.6964    0.0000 C   0  0  0  0  0  0  0  0  0  0  0  0
    7.1750  -11.1089    0.0000 C   0  0  0  0  0  0  0  0  0  0  0  0
    7.8895  -10.6964    0.0000 C   0  0  0  0  0  0  0  0  0  0  0  0
    7.8895   -9.8714    0.0000 C   0  0  0  0  0  0  0  0  0  0  0  0
    7.1750   -9.4589    0.0000 C   0  0  0  0  0  0  0  0  0  0  0  0
    7.1750  -11.9339    0.0000 C   0  0  0  0  0  0  0  0  0  0  0  0
    6.7625   -8.7444    0.0000 O   0  0  0  0  0  0  0  0  0  0  0  0
    7.5875   -8.7444    0.0000 C   0  0  0  0  0  0  0  0  0  0  0  0
    7.1750   -8.0300    0.0000 C   0  0  0  0  0  0  0  0  0  0  0  0
    8.4125   -8.7444    0.0000 C   0  0  0  0  0  0  0  0  0  0  0  0
  1  2  1  0  0  0  0
  2  3  1  0  0  0  0
  3  4  2  0  0  0  0
  4  5  1  0  0  0  0
  5  6  1  0  0  0  0
  6  1  1  0  0  0  0
  3  7  1  0  0  0  0
  6  8  1  0  0  0  0
  6  9  1  0  0  0  0
  9 10  1  0  0  0  0
  9 11  1  0  0  0  0
M  END
>  <cdx:fragmentId>
5

$$$$
