90285.cdx
  Mrv1902 05222410222D          

 11 11  0  0  0  0            999 V2000
    6.3038   -8.8266    0.0000 C   0  0  2  0  0  0  0  0  0  0  0  0
    6.5623   -9.6100    0.0000 C   0  0  2  0  0  0  0  0  0  0  0  0
    7.3873   -9.6063    0.0000 C   0  0  0  0  0  0  0  0  0  0  0  0
    7.6387   -8.8205    0.0000 C   0  0  0  0  0  0  0  0  0  0  0  0
    6.9691   -8.3386    0.0000 C   0  0  2  0  0  0  0  0  0  0  0  0
    6.0804  -10.2796    0.0000 C   0  0  0  0  0  0  0  0  0  0  0  0
    6.4193  -11.0318    0.0000 C   0  0  0  0  0  0  0  0  0  0  0  0
    5.2595  -10.1971    0.0000 C   0  0  0  0  0  0  0  0  0  0  0  0
    5.5181   -8.5752    0.0000 C   0  0  0  0  0  0  0  0  0  0  0  0
    6.5566   -7.6242    0.0000 C   0  0  0  0  0  0  0  0  0  0  0  0
    7.3816   -7.6242    0.0000 O   0  0  0  0  0  0  0  0  0  0  0  0
  1  2  1  0  0  0  0
  2  3  1  0  0  0  0
  3  4  1  0  0  0  0
  4  5  1  0  0  0  0
  5  1  1  0  0  0  0
  2  6  1  6  0  0  0
  6  7  1  0  0  0  0
  6  8  2  0  0  0  0
  1  9  1  1  0  0  0
  5 10  1  0  0  0  0
  5 11  1  6  0  0  0
M  END
>  <cdx:fragmentId>
5

$$$$
