90289.cdx
  Mrv1902 05222410242D          

 13 13  0  0  0  0            999 V2000
    5.4431   -8.6339    0.0000 C   0  0  2  0  0  0  0  0  0  0  0  0
    5.4431   -9.4589    0.0000 C   0  0  2  0  0  0  0  0  0  0  0  0
    6.1575   -9.8714    0.0000 C   0  0  0  0  0  0  0  0  0  0  0  0
    6.8720   -9.4589    0.0000 C   0  0  1  0  0  0  0  0  0  0  0  0
    6.8720   -8.6339    0.0000 C   0  0  1  0  0  0  0  0  0  0  0  0
    6.1575   -8.2214    0.0000 C   0  0  0  0  0  0  0  0  0  0  0  0
    6.1575  -10.6964    0.0000 O   0  0  0  0  0  0  0  0  0  0  0  0
    6.1575   -7.3964    0.0000 O   0  0  0  0  0  0  0  0  0  0  0  0
    6.8720   -6.9839    0.0000 C   0  0  0  0  0  0  0  0  0  0  0  0
    4.7286   -8.2214    0.0000 O   0  0  0  0  0  0  0  0  0  0  0  0
    7.5865   -8.2214    0.0000 O   0  0  0  0  0  0  0  0  0  0  0  0
    7.5865   -9.8714    0.0000 O   0  0  0  0  0  0  0  0  0  0  0  0
    4.7286   -9.8714    0.0000 O   0  0  0  0  0  0  0  0  0  0  0  0
  1  2  1  0  0  0  0
  2  3  1  0  0  0  0
  3  4  1  0  0  0  0
  4  5  1  0  0  0  0
  5  6  1  0  0  0  0
  6  1  1  0  0  0  0
  3  7  1  0  0  0  0
  6  8  1  0  0  0  0
  8  9  1  0  0  0  0
  1 10  1  1  0  0  0
  5 11  1  1  0  0  0
  4 12  1  1  0  0  0
  2 13  1  6  0  0  0
M  END
>  <cdx:fragmentId>
5

$$$$
