90280.cdx
  Mrv1902 05222410212D          

 13 13  0  0  0  0            999 V2000
    5.5943   -8.4689    0.0000 C   0  0  0  0  0  0  0  0  0  0  0  0
    5.5943   -9.2939    0.0000 C   0  0  0  0  0  0  0  0  0  0  0  0
    6.3088   -9.7064    0.0000 C   0  0  0  0  0  0  0  0  0  0  0  0
    7.0232   -9.2939    0.0000 C   0  0  0  0  0  0  0  0  0  0  0  0
    7.0232   -8.4689    0.0000 C   0  0  0  0  0  0  0  0  0  0  0  0
    6.3088   -8.0564    0.0000 C   0  0  0  0  0  0  0  0  0  0  0  0
    4.8798   -8.0564    0.0000 C   0  0  0  0  0  0  0  0  0  0  0  0
    4.1654   -8.4689    0.0000 C   0  0  0  0  0  0  0  0  0  0  0  0
    6.3088   -7.2314    0.0000 C   0  0  0  0  0  0  0  0  0  0  0  0
    7.0232   -6.8189    0.0000 C   0  0  0  0  0  0  0  0  0  0  0  0
    7.7377   -9.7064    0.0000 C   0  0  0  0  0  0  0  0  0  0  0  0
    8.4522   -9.2939    0.0000 C   0  0  0  0  0  0  0  0  0  0  0  0
    7.7377  -10.5314    0.0000 C   0  0  0  0  0  0  0  0  0  0  0  0
  1  2  1  0  0  0  0
  2  3  1  0  0  0  0
  3  4  1  0  0  0  0
  4  5  1  0  0  0  0
  5  6  1  0  0  0  0
  6  1  1  0  0  0  0
  1  7  1  0  0  0  0
  7  8  2  0  0  0  0
  6  9  1  0  0  0  0
  9 10  2  0  0  0  0
  4 11  2  0  0  0  0
 11 12  1  0  0  0  0
 11 13  1  0  0  0  0
M  END
>  <cdx:fragmentId>
5

$$$$
