90286.cdx
  Mrv1902 05222410232D          

 56 64  0  0  0  0            999 V2000
    6.5267   -6.2551    0.0000 C   0  0  0  0  0  0  0  0  0  0  0  0
    6.5267   -5.4301    0.0000 C   0  0  0  0  0  0  0  0  0  0  0  0
    7.2411   -6.6676    0.0000 C   0  0  0  0  0  0  0  0  0  0  0  0
    7.9556   -6.2551    0.0000 C   0  0  0  0  0  0  0  0  0  0  0  0
    7.9556   -5.4301    0.0000 C   0  0  0  0  0  0  0  0  0  0  0  0
    7.2411   -5.0176    0.0000 C   0  0  0  0  0  0  0  0  0  0  0  0
    7.2411   -7.4926    0.0000 C   0  0  1  0  0  0  0  0  0  0  0  0
    7.9556   -7.9051    0.0000 C   0  0  2  0  0  0  0  0  0  0  0  0
    8.6701   -7.4926    0.0000 C   0  0  0  0  0  0  0  0  0  0  0  0
    8.6701   -6.6676    0.0000 C   0  0  0  0  0  0  0  0  0  0  0  0
    6.5267   -7.9051    0.0000 C   0  0  2  0  0  0  0  0  0  0  0  0
    6.5267   -8.7301    0.0000 C   0  0  0  0  0  0  0  0  0  0  0  0
    7.2411   -9.1426    0.0000 C   0  0  0  0  0  0  0  0  0  0  0  0
    7.9556   -8.7301    0.0000 C   0  0  2  0  0  0  0  0  0  0  0  0
    5.8122   -9.1426    0.0000 C   0  0  0  0  0  0  0  0  0  0  0  0
    5.8122   -9.9676    0.0000 C   0  0  0  0  0  0  0  0  0  0  0  0
    6.5267  -10.3801    0.0000 C   0  0  0  0  0  0  0  0  0  0  0  0
    7.2411   -9.9676    0.0000 C   0  0  0  0  0  0  0  0  0  0  0  0
    8.6701   -9.9676    0.0000 C   0  0  0  0  0  0  0  0  0  0  0  0
    8.6701   -9.1426    0.0000 C   0  0  0  0  0  0  0  0  0  0  0  0
    9.3845  -10.3801    0.0000 C   0  0  0  0  0  0  0  0  0  0  0  0
   10.0990   -9.9676    0.0000 C   0  0  0  0  0  0  0  0  0  0  0  0
   10.0990   -9.1426    0.0000 C   0  0  0  0  0  0  0  0  0  0  0  0
    9.3845   -8.7301    0.0000 C   0  0  0  0  0  0  0  0  0  0  0  0
    9.3845   -7.9051    0.0000 C   0  0  0  0  0  0  0  0  0  0  0  0
   10.0990   -7.4926    0.0000 C   0  0  0  0  0  0  0  0  0  0  0  0
   10.0990   -6.6676    0.0000 C   0  0  0  0  0  0  0  0  0  0  0  0
    9.3845   -6.2551    0.0000 C   0  0  0  0  0  0  0  0  0  0  0  0
    8.6701   -5.0176    0.0000 O   0  0  0  0  0  0  0  0  0  0  0  0
    5.0977  -10.3801    0.0000 O   0  0  0  0  0  0  0  0  0  0  0  0
    6.5267  -11.2051    0.0000 O   0  0  0  0  0  0  0  0  0  0  0  0
   10.8135  -10.3801    0.0000 O   0  0  0  0  0  0  0  0  0  0  0  0
   10.8135   -8.7301    0.0000 O   0  0  0  0  0  0  0  0  0  0  0  0
    9.3845   -5.4301    0.0000 O   0  0  0  0  0  0  0  0  0  0  0  0
   10.8135   -7.9051    0.0000 O   0  0  0  0  0  0  0  0  0  0  0  0
    7.9556   -7.0801    0.0000 H   0  0  0  0  0  0  0  0  0  0  0  0
    5.7420   -5.1752    0.0000 O   0  0  0  0  0  0  0  0  0  0  0  0
    5.2571   -5.8426    0.0000 C   0  0  2  0  0  0  0  0  0  0  0  0
    5.7420   -6.5101    0.0000 C   0  0  2  0  0  0  0  0  0  0  0  0
    4.4321   -5.8426    0.0000 C   0  0  0  0  0  0  0  0  0  0  0  0
    5.1587   -7.0935    0.0000 C   0  0  0  0  0  0  0  0  0  0  0  0
    4.0196   -5.1282    0.0000 C   0  0  0  0  0  0  0  0  0  0  0  0
    3.1946   -5.1282    0.0000 C   0  0  0  0  0  0  0  0  0  0  0  0
    2.7821   -5.8426    0.0000 C   0  0  0  0  0  0  0  0  0  0  0  0
    3.1946   -6.5571    0.0000 C   0  0  0  0  0  0  0  0  0  0  0  0
    4.0196   -6.5571    0.0000 C   0  0  0  0  0  0  0  0  0  0  0  0
    1.9571   -5.8426    0.0000 O   0  0  0  0  0  0  0  0  0  0  0  0
    2.7821   -4.4137    0.0000 O   0  0  0  0  0  0  0  0  0  0  0  0
    4.3618   -6.8799    0.0000 C   0  0  0  0  0  0  0  0  0  0  0  0
    3.7784   -7.4633    0.0000 C   0  0  0  0  0  0  0  0  0  0  0  0
    3.9919   -8.2602    0.0000 C   0  0  0  0  0  0  0  0  0  0  0  0
    4.7888   -8.4737    0.0000 C   0  0  0  0  0  0  0  0  0  0  0  0
    5.3722   -7.8903    0.0000 C   0  0  0  0  0  0  0  0  0  0  0  0
    2.9815   -7.2498    0.0000 O   0  0  0  0  0  0  0  0  0  0  0  0
    5.0024   -9.2706    0.0000 O   0  0  0  0  0  0  0  0  0  0  0  0
    6.3131   -7.1083    0.0000 H   0  0  0  0  0  0  0  0  0  0  0  0
  1  2  2  0  0  0  0
  1  3  1  0  0  0  0
  3  4  2  0  0  0  0
  4  5  1  0  0  0  0
  5  6  2  0  0  0  0
  6  2  1  0  0  0  0
  3  7  1  0  0  0  0
  7  8  1  0  0  0  0
  8  9  1  6  0  0  0
  9 10  1  0  0  0  0
  7 11  1  0  0  0  0
 11 12  1  0  0  0  0
 12 13  2  0  0  0  0
 13 14  1  0  0  0  0
 14  8  1  0  0  0  0
 12 15  1  0  0  0  0
 15 16  2  0  0  0  0
 16 17  1  0  0  0  0
 17 18  2  0  0  0  0
 18 13  1  0  0  0  0
 19 20  2  0  0  0  0
 14 20  1  1  0  0  0
 19 21  1  0  0  0  0
 21 22  2  0  0  0  0
 22 23  1  0  0  0  0
 23 24  2  0  0  0  0
 24 20  1  0  0  0  0
  9 25  2  0  0  0  0
 25 26  1  0  0  0  0
 26 27  2  0  0  0  0
 27 28  1  0  0  0  0
 28 10  2  0  0  0  0
  5 29  1  0  0  0  0
 16 30  1  0  0  0  0
 17 31  1  0  0  0  0
 22 32  1  0  0  0  0
 23 33  1  0  0  0  0
 28 34  1  0  0  0  0
 26 35  1  0  0  0  0
  7 36  1  6  0  0  0
  2 37  1  0  0  0  0
 37 38  1  0  0  0  0
 38 39  1  0  0  0  0
 39  1  1  0  0  0  0
 38 40  1  6  0  0  0
 39 41  1  1  0  0  0
 40 42  2  0  0  0  0
 42 43  1  0  0  0  0
 43 44  2  0  0  0  0
 44 45  1  0  0  0  0
 45 46  2  0  0  0  0
 46 40  1  0  0  0  0
 44 47  1  0  0  0  0
 43 48  1  0  0  0  0
 41 49  2  0  0  0  0
 49 50  1  0  0  0  0
 50 51  2  0  0  0  0
 51 52  1  0  0  0  0
 52 53  2  0  0  0  0
 53 41  1  0  0  0  0
 50 54  1  0  0  0  0
 52 55  1  0  0  0  0
 53 11  1  0  0  0  0
 11 56  1  1  0  0  0
M  END
>  <cdx:fragmentId>
5

$$$$
