90292.cdx
  Mrv1902 05222410232D          

 22 23  0  0  0  0            999 V2000
    5.3331   -7.7814    0.0000 C   0  0  0  0  0  0  0  0  0  0  0  0
    5.3331   -8.6064    0.0000 C   0  0  0  0  0  0  0  0  0  0  0  0
    6.0475   -9.0189    0.0000 C   0  0  0  0  0  0  0  0  0  0  0  0
    6.7620   -8.6064    0.0000 C   0  0  0  0  0  0  0  0  0  0  0  0
    6.7620   -7.7814    0.0000 C   0  0  0  0  0  0  0  0  0  0  0  0
    6.0475   -7.3689    0.0000 C   0  0  0  0  0  0  0  0  0  0  0  0
    7.4765   -9.0189    0.0000 N   0  0  0  0  0  0  0  0  0  0  0  0
    8.1909   -8.6064    0.0000 C   0  0  0  0  0  0  0  0  0  0  0  0
    8.1909   -7.7814    0.0000 C   0  0  0  0  0  0  0  0  0  0  0  0
    7.4765   -7.3689    0.0000 C   0  0  0  0  0  0  0  0  0  0  0  0
    8.9054   -9.0189    0.0000 O   0  0  0  0  0  0  0  0  0  0  0  0
    9.6199   -7.7814    0.0000 C   0  0  0  0  0  0  0  0  0  0  0  0
    8.9054   -7.3689    0.0000 C   0  0  0  0  0  0  0  0  0  0  0  0
   10.3344   -7.3689    0.0000 C   0  0  0  0  0  0  0  0  0  0  0  0
   10.3344   -6.5439    0.0000 C   0  0  0  0  0  0  0  0  0  0  0  0
    5.3331  -10.2564    0.0000 C   0  0  0  0  0  0  0  0  0  0  0  0
    6.0475   -9.8439    0.0000 O   0  0  0  0  0  0  0  0  0  0  0  0
    6.0475   -6.5439    0.0000 O   0  0  0  0  0  0  0  0  0  0  0  0
    5.3331   -6.1314    0.0000 C   0  0  0  0  0  0  0  0  0  0  0  0
    7.4765   -6.5439    0.0000 O   0  0  0  0  0  0  0  0  0  0  0  0
    8.1909   -6.1314    0.0000 C   0  0  0  0  0  0  0  0  0  0  0  0
   11.0488   -7.7814    0.0000 C   0  0  0  0  0  0  0  0  0  0  0  0
  1  2  2  0  0  0  0
  2  3  1  0  0  0  0
  3  4  2  0  0  0  0
  4  5  1  0  0  0  0
  5  6  2  0  0  0  0
  6  1  1  0  0  0  0
  4  7  1  0  0  0  0
  7  8  1  0  0  0  0
  8  9  1  0  0  0  0
  9 10  2  0  0  0  0
 10  5  1  0  0  0  0
  8 11  2  0  0  0  0
 12 13  1  0  0  0  0
 13  9  1  0  0  0  0
 12 14  2  0  0  0  0
 14 15  1  0  0  0  0
 16 17  1  0  0  0  0
 17  3  1  0  0  0  0
  6 18  1  0  0  0  0
 18 19  1  0  0  0  0
 10 20  1  0  0  0  0
 20 21  1  0  0  0  0
 14 22  1  0  0  0  0
M  END
>  <cdx:fragmentId>
5

$$$$
