90291.cdx
  Mrv1902 05222410222D          

 60 67  0  0  0  0            999 V2000
    7.9257  -11.9198    0.0000 H   0  0  0  0  0  0  0  0  0  0  0  0
    9.9411  -10.8528    0.0000 H   0  0  0  0  0  0  0  0  0  0  0  0
   11.7612   -8.4726    0.0000 H   0  0  0  0  0  0  0  0  0  0  0  0
   11.9118   -7.0516    0.0000 H   0  0  0  0  0  0  0  0  0  0  0  0
    9.3262   -8.0753    0.0000 H   0  0  0  0  0  0  0  0  0  0  0  0
    9.0499   -8.3839    0.0000 H   0  0  0  0  0  0  0  0  0  0  0  0
   10.0868   -4.7027    0.0000 C   0  0  0  0  0  0  0  0  0  0  0  0
   12.1803   -7.3837    0.0000 C   0  0  0  0  0  0  0  0  0  0  0  0
    7.9272   -9.4448    0.0000 C   0  0  0  0  0  0  0  0  0  0  0  0
    7.2108  -12.3317    0.0000 O   0  0  0  0  0  0  0  0  0  0  0  0
    5.7827  -11.5054    0.0000 O   0  0  0  0  0  0  0  0  0  0  0  0
   10.0695  -11.5092    0.0000 O   0  0  0  0  0  0  0  0  0  0  0  0
   10.1855  -10.5159    0.0000 O   0  0  0  0  0  0  0  0  0  0  0  0
   11.1250  -10.5606    0.0000 O   0  0  0  0  0  0  0  0  0  0  0  0
   12.0961   -9.2266    0.0000 O   0  0  0  0  0  0  0  0  0  0  0  0
   12.0933   -8.2041    0.0000 O   0  0  0  0  0  0  0  0  0  0  0  0
    8.8143   -9.0511    0.0000 C   0  0  0  0  0  0  0  0  0  0  0  0
    8.6420   -9.8579    0.0000 C   0  0  2  0  0  0  0  0  0  0  0  0
    7.4180  -10.2403    0.0000 O   0  0  0  0  0  0  0  0  0  0  0  0
    7.2116  -11.5067    0.0000 C   0  0  1  0  0  0  0  0  0  0  0  0
    6.4975  -11.0935    0.0000 C   0  0  2  0  0  0  0  0  0  0  0  0
    6.4982  -10.2685    0.0000 C   0  0  0  0  0  0  0  0  0  0  0  0
    7.2131   -9.8567    0.0000 C   0  0  0  0  0  0  0  0  0  0  0  0
    7.9272  -10.2698    0.0000 C   0  0  2  0  0  0  0  0  0  0  0  0
    7.9264  -11.0948    0.0000 C   0  0  2  0  0  0  0  0  0  0  0  0
    8.6405  -11.5079    0.0000 C   0  0  0  0  0  0  0  0  0  0  0  0
    9.3554  -11.0961    0.0000 C   0  0  2  0  0  0  0  0  0  0  0  0
    9.3561  -10.2711    0.0000 C   0  0  1  0  0  0  0  0  0  0  0  0
    9.9697   -9.7196    0.0000 C   0  0  1  0  0  0  0  0  0  0  0  0
   10.7901   -9.8066    0.0000 C   0  0  2  0  0  0  0  0  0  0  0  0
   11.2756   -9.1396    0.0000 C   0  0  1  0  0  0  0  0  0  0  0  0
   10.9408   -8.3856    0.0000 C   0  0  2  0  0  0  0  0  0  0  0  0
   11.4263   -7.7186    0.0000 C   0  0  2  0  0  0  0  0  0  0  0  0
   11.0914   -6.9646    0.0000 C   0  0  2  0  0  0  0  0  0  0  0  0
   11.5770   -6.2976    0.0000 C   0  0  0  0  0  0  0  0  0  0  0  0
   11.2421   -5.5437    0.0000 C   0  0  0  0  0  0  0  0  0  0  0  0
   10.4217   -5.4567    0.0000 C   0  0  1  0  0  0  0  0  0  0  0  0
    9.9361   -6.1237    0.0000 C   0  0  0  0  0  0  0  0  0  0  0  0
   10.2710   -6.8777    0.0000 N   0  0  0  0  0  0  0  0  0  0  0  0
    9.7855   -7.5447    0.0000 C   0  0  0  0  0  0  0  0  0  0  0  0
   10.1204   -8.2986    0.0000 C   0  0  1  0  0  0  0  0  0  0  0  0
    9.6348   -8.9656    0.0000 C   0  0  2  0  0  0  0  0  0  0  0  0
    5.0686  -11.0922    0.0000 C   0  0  0  0  0  0  0  0  0  0  0  0
    4.3537  -11.5041    0.0000 C   0  0  0  0  0  0  0  0  0  0  0  0
    5.0693  -10.2672    0.0000 O   0  0  0  0  0  0  0  0  0  0  0  0
    3.6396  -11.0909    0.0000 C   0  0  0  0  0  0  0  0  0  0  0  0
    2.9248  -11.5028    0.0000 C   0  0  0  0  0  0  0  0  0  0  0  0
    2.9240  -12.3278    0.0000 C   0  0  0  0  0  0  0  0  0  0  0  0
    3.6381  -12.7409    0.0000 C   0  0  0  0  0  0  0  0  0  0  0  0
    4.3530  -12.3291    0.0000 C   0  0  0  0  0  0  0  0  0  0  0  0
    2.2092  -12.7396    0.0000 O   0  0  0  0  0  0  0  0  0  0  0  0
    1.4951  -12.3265    0.0000 C   0  0  0  0  0  0  0  0  0  0  0  0
    2.2107  -11.0896    0.0000 O   0  0  0  0  0  0  0  0  0  0  0  0
    1.4958  -11.5015    0.0000 C   0  0  0  0  0  0  0  0  0  0  0  0
   11.9454  -10.6476    0.0000 C   0  0  0  0  0  0  0  0  0  0  0  0
   12.4309   -9.9806    0.0000 O   0  0  0  0  0  0  0  0  0  0  0  0
   12.2803  -11.4015    0.0000 C   0  0  1  0  0  0  0  0  0  0  0  0
   13.1007  -11.4885    0.0000 C   0  0  0  0  0  0  0  0  0  0  0  0
   13.4356  -12.2425    0.0000 C   0  0  0  0  0  0  0  0  0  0  0  0
   11.7947  -12.0685    0.0000 C   0  0  0  0  0  0  0  0  0  0  0  0
 25  1  1  1  0  0  0
 28  2  1  1  0  0  0
 32  3  1  6  0  0  0
 34  4  1  6  0  0  0
 41  5  1  1  0  0  0
 42  6  1  6  0  0  0
 37  7  1  1  0  0  0
 33  8  1  6  0  0  0
 24  9  1  1  0  0  0
 20 10  1  6  0  0  0
 21 11  1  1  0  0  0
 27 12  1  6  0  0  0
 29 13  1  6  0  0  0
 30 14  1  6  0  0  0
 31 15  1  1  0  0  0
 33 16  1  1  0  0  0
 39 34  1  0  0  0  0
 41 32  1  0  0  0  0
 25 20  1  0  0  0  0
 28 18  1  0  0  0  0
 24 18  1  0  0  0  0
 42 29  1  0  0  0  0
 42 17  1  0  0  0  0
 18 17  1  1  0  0  0
 18 19  1  0  0  0  0
 20 19  1  0  0  0  0
 21 20  1  0  0  0  0
 22 21  1  0  0  0  0
 23 22  1  0  0  0  0
 24 23  1  0  0  0  0
 25 24  1  0  0  0  0
 26 25  1  0  0  0  0
 27 26  1  0  0  0  0
 28 27  1  0  0  0  0
 29 28  1  0  0  0  0
 30 29  1  0  0  0  0
 31 30  1  0  0  0  0
 32 31  1  0  0  0  0
 33 32  1  0  0  0  0
 34 33  1  0  0  0  0
 35 34  1  0  0  0  0
 36 35  1  0  0  0  0
 37 36  1  0  0  0  0
 38 37  1  0  0  0  0
 39 38  1  0  0  0  0
 40 39  1  0  0  0  0
 41 40  1  0  0  0  0
 42 41  1  0  0  0  0
 11 43  1  0  0  0  0
 43 44  1  0  0  0  0
 43 45  2  0  0  0  0
 44 46  2  0  0  0  0
 46 47  1  0  0  0  0
 47 48  2  0  0  0  0
 48 49  1  0  0  0  0
 49 50  2  0  0  0  0
 50 44  1  0  0  0  0
 48 51  1  0  0  0  0
 51 52  1  0  0  0  0
 47 53  1  0  0  0  0
 53 54  1  0  0  0  0
 14 55  1  0  0  0  0
 55 56  2  0  0  0  0
 55 57  1  0  0  0  0
 57 58  1  0  0  0  0
 58 59  1  0  0  0  0
 57 60  1  1  0  0  0
M  END
>  <cdx:fragmentId>
268

$$$$
