90290.cdx
  Mrv1902 05222410222D          

 42 46  0  0  0  0            999 V2000
    5.4018   -5.2239    0.0000 C   0  0  0  0  0  0  0  0  0  0  0  0
    5.4018   -6.0489    0.0000 C   0  0  0  0  0  0  0  0  0  0  0  0
    6.1163   -6.4614    0.0000 C   0  0  0  0  0  0  0  0  0  0  0  0
    6.8307   -6.0489    0.0000 C   0  0  0  0  0  0  0  0  0  0  0  0
    6.8307   -5.2239    0.0000 C   0  0  0  0  0  0  0  0  0  0  0  0
    6.1163   -4.8114    0.0000 C   0  0  0  0  0  0  0  0  0  0  0  0
    7.5452   -6.4614    0.0000 C   0  0  0  0  0  0  0  0  0  0  0  0
    8.2597   -6.0489    0.0000 C   0  0  0  0  0  0  0  0  0  0  0  0
    8.2597   -5.2239    0.0000 C   0  0  0  0  0  0  0  0  0  0  0  0
    7.5452   -4.8114    0.0000 O   0  0  0  0  0  0  0  0  0  0  0  0
    6.1163   -7.2864    0.0000 H   0  0  0  0  0  0  0  0  0  0  0  0
    7.5452   -7.2864    0.0000 O   0  0  0  0  0  0  0  0  0  0  0  0
    8.9742   -7.2864    0.0000 C   0  0  0  0  0  0  0  0  0  0  0  0
    8.9742   -6.4614    0.0000 C   0  0  0  0  0  0  0  0  0  0  0  0
    9.6886   -7.6989    0.0000 C   0  0  0  0  0  0  0  0  0  0  0  0
   10.4031   -7.2864    0.0000 C   0  0  0  0  0  0  0  0  0  0  0  0
   10.4031   -6.4614    0.0000 C   0  0  0  0  0  0  0  0  0  0  0  0
    9.6886   -6.0489    0.0000 C   0  0  0  0  0  0  0  0  0  0  0  0
    4.6873   -4.8114    0.0000 O   0  0  0  0  0  0  0  0  0  0  0  0
    6.1163   -3.9864    0.0000 H   0  0  0  0  0  0  0  0  0  0  0  0
   11.1176   -7.6989    0.0000 O   0  0  0  0  0  0  0  0  0  0  0  0
   10.4278   -9.7682    0.0000 C   0  0  2  0  0  0  0  0  0  0  0  0
   11.1442  -10.1773    0.0000 C   0  0  2  0  0  0  0  0  0  0  0  0
   11.8568   -9.7615    0.0000 C   0  0  1  0  0  0  0  0  0  0  0  0
   11.8529   -8.9365    0.0000 C   0  0  2  0  0  0  0  0  0  0  0  0
   11.1365   -8.5274    0.0000 C   0  0  1  0  0  0  0  0  0  0  0  0
   10.4240   -8.9432    0.0000 O   0  0  0  0  0  0  0  0  0  0  0  0
    9.7153  -10.1840    0.0000 C   0  0  0  0  0  0  0  0  0  0  0  0
   12.5732  -10.1706    0.0000 O   0  0  0  0  0  0  0  0  0  0  0  0
   11.1481  -11.0023    0.0000 O   0  0  0  0  0  0  0  0  0  0  0  0
   12.5654   -8.5206    0.0000 O   0  0  0  0  0  0  0  0  0  0  0  0
    9.7192  -11.0090    0.0000 O   0  0  0  0  0  0  0  0  0  0  0  0
    3.9729   -5.2239    0.0000 C   0  0  2  0  0  0  0  0  0  0  0  0
    3.2584   -4.8114    0.0000 O   0  0  0  0  0  0  0  0  0  0  0  0
    2.5439   -5.2239    0.0000 C   0  0  2  0  0  0  0  0  0  0  0  0
    2.5439   -6.0489    0.0000 C   0  0  1  0  0  0  0  0  0  0  0  0
    3.2584   -6.4614    0.0000 C   0  0  2  0  0  0  0  0  0  0  0  0
    3.9729   -6.0489    0.0000 C   0  0  1  0  0  0  0  0  0  0  0  0
    1.8294   -6.4614    0.0000 O   0  0  0  0  0  0  0  0  0  0  0  0
    1.8294   -4.8114    0.0000 C   0  0  0  0  0  0  0  0  0  0  0  0
    3.2584   -7.2864    0.0000 O   0  0  0  0  0  0  0  0  0  0  0  0
    4.6873   -6.4614    0.0000 O   0  0  0  0  0  0  0  0  0  0  0  0
  1  2  2  0  0  0  0
  2  3  1  0  0  0  0
  3  4  2  0  0  0  0
  4  5  1  0  0  0  0
  5  6  2  0  0  0  0
  6  1  1  0  0  0  0
  4  7  1  0  0  0  0
  7  8  1  0  0  0  0
  8  9  2  0  0  0  0
  9 10  1  0  0  0  0
 10  5  1  0  0  0  0
  3 11  1  0  0  0  0
 12  7  2  0  0  0  0
 13 14  2  0  0  0  0
 14  8  1  0  0  0  0
 13 15  1  0  0  0  0
 15 16  2  0  0  0  0
 16 17  1  0  0  0  0
 17 18  2  0  0  0  0
 18 14  1  0  0  0  0
  1 19  1  0  0  0  0
  6 20  1  0  0  0  0
 16 21  1  0  0  0  0
 22 23  1  0  0  0  0
 23 24  1  0  0  0  0
 24 25  1  0  0  0  0
 25 26  1  0  0  0  0
 26 27  1  0  0  0  0
 27 22  1  0  0  0  0
 22 28  1  1  0  0  0
 24 29  1  1  0  0  0
 23 30  1  6  0  0  0
 25 31  1  6  0  0  0
 28 32  1  0  0  0  0
 26 21  1  1  0  0  0
 33 19  1  1  0  0  0
 33 34  1  0  0  0  0
 34 35  1  0  0  0  0
 35 36  1  0  0  0  0
 36 37  1  0  0  0  0
 37 38  1  0  0  0  0
 38 33  1  0  0  0  0
 36 39  1  1  0  0  0
 35 40  1  6  0  0  0
 37 41  1  6  0  0  0
 38 42  1  6  0  0  0
M  END
>  <cdx:fragmentId>
5

$$$$
