90293.cdx
  Mrv1902 05222410222D          

 35 39  0  0  0  0            999 V2000
   10.7078   -8.1593    0.0000 C   0  0  0  0  0  0  0  0  0  0  0  0
    9.9926   -7.7480    0.0000 C   0  0  0  0  0  0  0  0  0  0  0  0
    9.2788   -8.1618    0.0000 C   0  0  0  0  0  0  0  0  0  0  0  0
    9.2803   -8.9868    0.0000 C   0  0  0  0  0  0  0  0  0  0  0  0
    9.9955   -9.3980    0.0000 C   0  0  0  0  0  0  0  0  0  0  0  0
   10.7092   -8.9843    0.0000 C   0  0  0  0  0  0  0  0  0  0  0  0
    8.5666   -9.4006    0.0000 C   0  0  1  0  0  0  0  0  0  0  0  0
    8.5680  -10.2256    0.0000 N   0  0  0  0  0  0  0  0  0  0  0  0
    9.2832  -10.6368    0.0000 C   0  0  0  0  0  0  0  0  0  0  0  0
    9.9970  -10.2230    0.0000 C   0  0  0  0  0  0  0  0  0  0  0  0
    7.8514   -8.9893    0.0000 C   0  0  0  0  0  0  0  0  0  0  0  0
    7.1376   -9.4031    0.0000 C   0  0  0  0  0  0  0  0  0  0  0  0
    7.1391  -10.2281    0.0000 C   0  0  0  0  0  0  0  0  0  0  0  0
    7.8543  -10.6393    0.0000 C   0  0  0  0  0  0  0  0  0  0  0  0
    6.4224   -8.9919    0.0000 C   0  0  0  0  0  0  0  0  0  0  0  0
    5.7087   -9.4057    0.0000 C   0  0  0  0  0  0  0  0  0  0  0  0
    5.7101  -10.2307    0.0000 C   0  0  0  0  0  0  0  0  0  0  0  0
    6.4253  -10.6419    0.0000 C   0  0  0  0  0  0  0  0  0  0  0  0
    4.9935   -8.9944    0.0000 O   0  0  0  0  0  0  0  0  0  0  0  0
    4.9964  -10.6444    0.0000 O   0  0  0  0  0  0  0  0  0  0  0  0
   11.4215   -7.7455    0.0000 O   0  0  0  0  0  0  0  0  0  0  0  0
   10.7048   -6.5093    0.0000 C   0  0  0  0  0  0  0  0  0  0  0  0
    9.9911   -6.9230    0.0000 O   0  0  0  0  0  0  0  0  0  0  0  0
    8.5651   -8.5756    0.0000 H   0  0  0  0  0  0  0  0  0  0  0  0
    4.9920   -8.1694    0.0000 C   0  0  2  0  0  0  0  0  0  0  0  0
    5.7057   -7.7557    0.0000 O   0  0  0  0  0  0  0  0  0  0  0  0
    5.7043   -6.9307    0.0000 C   0  0  1  0  0  0  0  0  0  0  0  0
    4.9891   -6.5194    0.0000 C   0  0  2  0  0  0  0  0  0  0  0  0
    4.2753   -6.9332    0.0000 C   0  0  1  0  0  0  0  0  0  0  0  0
    4.2768   -7.7582    0.0000 C   0  0  1  0  0  0  0  0  0  0  0  0
    6.4180   -6.5169    0.0000 C   0  0  0  0  0  0  0  0  0  0  0  0
    3.5601   -6.5220    0.0000 O   0  0  0  0  0  0  0  0  0  0  0  0
    4.9876   -5.6944    0.0000 O   0  0  0  0  0  0  0  0  0  0  0  0
    3.5631   -8.1720    0.0000 O   0  0  0  0  0  0  0  0  0  0  0  0
    6.4165   -5.6919    0.0000 O   0  0  0  0  0  0  0  0  0  0  0  0
  1  2  2  0  0  0  0
  2  3  1  0  0  0  0
  3  4  2  0  0  0  0
  4  5  1  0  0  0  0
  5  6  2  0  0  0  0
  6  1  1  0  0  0  0
  4  7  1  0  0  0  0
  7  8  1  0  0  0  0
  8  9  1  0  0  0  0
  9 10  1  0  0  0  0
 10  5  1  0  0  0  0
  7 11  1  0  0  0  0
 11 12  1  0  0  0  0
 12 13  2  0  0  0  0
 13 14  1  0  0  0  0
 14  8  1  0  0  0  0
 12 15  1  0  0  0  0
 15 16  2  0  0  0  0
 16 17  1  0  0  0  0
 17 18  2  0  0  0  0
 18 13  1  0  0  0  0
 16 19  1  0  0  0  0
 20 17  1  0  0  0  0
  1 21  1  0  0  0  0
 22 23  1  0  0  0  0
 23  2  1  0  0  0  0
  7 24  1  6  0  0  0
 25 19  1  1  0  0  0
 25 26  1  0  0  0  0
 26 27  1  0  0  0  0
 27 28  1  0  0  0  0
 28 29  1  0  0  0  0
 29 30  1  0  0  0  0
 30 25  1  0  0  0  0
 27 31  1  1  0  0  0
 29 32  1  1  0  0  0
 28 33  1  6  0  0  0
 30 34  1  6  0  0  0
 31 35  1  0  0  0  0
M  END
>  <cdx:fragmentId>
5

$$$$
