90299.cdx
  Mrv1902 05222410242D          

 42 42  0  0  0  0            999 V2000
    1.9017  -10.2713    0.0000 C   0  0  0  0  0  0  0  0  0  0  0  0
    1.9107   -9.4463    0.0000 C   0  0  0  0  0  0  0  0  0  0  0  0
    2.6297   -9.0417    0.0000 C   0  0  0  0  0  0  0  0  0  0  0  0
    3.3396   -9.4619    0.0000 C   0  0  0  0  0  0  0  0  0  0  0  0
    3.3305  -10.2869    0.0000 C   0  0  0  0  0  0  0  0  0  0  0  0
    2.6116  -10.6916    0.0000 C   0  0  0  0  0  0  0  0  0  0  0  0
    1.2008   -9.0260    0.0000 O   0  0  0  0  0  0  0  0  0  0  0  0
    4.0410  -10.7072    0.0000 C   0  0  0  0  0  0  0  0  0  0  0  0
    4.7599  -10.3025    0.0000 C   0  0  0  0  0  0  0  0  0  0  0  0
    5.4699  -10.7228    0.0000 C   0  0  0  0  0  0  0  0  0  0  0  0
    6.1888  -10.3182    0.0000 O   0  0  0  0  0  0  0  0  0  0  0  0
    5.4608  -11.5478    0.0000 O   0  0  0  0  0  0  0  0  0  0  0  0
    6.8987  -10.7384    0.0000 C   0  0  0  0  0  0  0  0  0  0  0  0
    7.6176  -10.3338    0.0000 C   0  0  0  0  0  0  0  0  0  0  0  0
    8.3321  -10.7463    0.0000 C   0  0  0  0  0  0  0  0  0  0  0  0
    9.0466  -10.3338    0.0000 C   0  0  0  0  0  0  0  0  0  0  0  0
    9.7611  -10.7463    0.0000 C   0  0  0  0  0  0  0  0  0  0  0  0
   10.4755  -10.3338    0.0000 C   0  0  0  0  0  0  0  0  0  0  0  0
   11.1900  -10.7463    0.0000 C   0  0  0  0  0  0  0  0  0  0  0  0
   11.9045  -10.3338    0.0000 C   0  0  0  0  0  0  0  0  0  0  0  0
   12.6189  -10.7463    0.0000 C   0  0  0  0  0  0  0  0  0  0  0  0
   13.3334  -10.3338    0.0000 C   0  0  0  0  0  0  0  0  0  0  0  0
   14.0479  -10.7463    0.0000 C   0  0  0  0  0  0  0  0  0  0  0  0
   14.7624  -10.3338    0.0000 C   0  0  0  0  0  0  0  0  0  0  0  0
   15.4768  -10.7463    0.0000 C   0  0  0  0  0  0  0  0  0  0  0  0
   16.1913  -10.3338    0.0000 C   0  0  0  0  0  0  0  0  0  0  0  0
   16.9058  -10.7463    0.0000 C   0  0  0  0  0  0  0  0  0  0  0  0
   17.6202  -10.3338    0.0000 C   0  0  0  0  0  0  0  0  0  0  0  0
   18.3347  -10.7463    0.0000 C   0  0  0  0  0  0  0  0  0  0  0  0
   19.0492  -10.3338    0.0000 C   0  0  0  0  0  0  0  0  0  0  0  0
   19.7637  -10.7463    0.0000 C   0  0  0  0  0  0  0  0  0  0  0  0
   20.4781  -10.3338    0.0000 C   0  0  0  0  0  0  0  0  0  0  0  0
   21.1926  -10.7463    0.0000 C   0  0  0  0  0  0  0  0  0  0  0  0
   21.9071  -10.3338    0.0000 C   0  0  0  0  0  0  0  0  0  0  0  0
   22.6215  -10.7463    0.0000 C   0  0  0  0  0  0  0  0  0  0  0  0
   23.3360  -10.3338    0.0000 C   0  0  0  0  0  0  0  0  0  0  0  0
   24.0505  -10.7463    0.0000 C   0  0  0  0  0  0  0  0  0  0  0  0
   24.7649  -10.3338    0.0000 C   0  0  0  0  0  0  0  0  0  0  0  0
   25.4794  -10.7463    0.0000 C   0  0  0  0  0  0  0  0  0  0  0  0
   26.1939  -10.3338    0.0000 C   0  0  0  0  0  0  0  0  0  0  0  0
   26.9084  -10.7463    0.0000 C   0  0  0  0  0  0  0  0  0  0  0  0
   27.6228  -10.3338    0.0000 C   0  0  0  0  0  0  0  0  0  0  0  0
  1  2  2  0  0  0  0
  2  3  1  0  0  0  0
  3  4  2  0  0  0  0
  4  5  1  0  0  0  0
  5  6  2  0  0  0  0
  6  1  1  0  0  0  0
  2  7  1  0  0  0  0
  8  9  2  0  0  0  0
  8  5  1  0  0  0  0
  9 10  1  0  0  0  0
 10 11  1  0  0  0  0
 10 12  2  0  0  0  0
 11 13  1  0  0  0  0
 13 14  1  0  0  0  0
 14 15  1  0  0  0  0
 15 16  1  0  0  0  0
 16 17  1  0  0  0  0
 17 18  1  0  0  0  0
 18 19  1  0  0  0  0
 19 20  1  0  0  0  0
 20 21  1  0  0  0  0
 21 22  1  0  0  0  0
 22 23  1  0  0  0  0
 23 24  1  0  0  0  0
 24 25  1  0  0  0  0
 25 26  1  0  0  0  0
 26 27  1  0  0  0  0
 27 28  1  0  0  0  0
 28 29  1  0  0  0  0
 29 30  1  0  0  0  0
 30 31  1  0  0  0  0
 31 32  1  0  0  0  0
 32 33  1  0  0  0  0
 33 34  1  0  0  0  0
 34 35  1  0  0  0  0
 35 36  1  0  0  0  0
 36 37  1  0  0  0  0
 37 38  1  0  0  0  0
 38 39  1  0  0  0  0
 39 40  1  0  0  0  0
 40 41  1  0  0  0  0
 41 42  1  0  0  0  0
M  END
>  <cdx:fragmentId>
23

$$$$
