90298.cdx
  Mrv1902 05222410252D          

 16 16  0  0  0  0            999 V2000
    4.7968  -11.5764    0.0000 C   0  0  0  0  0  0  0  0  0  0  0  0
    4.7968  -12.4014    0.0000 C   0  0  0  0  0  0  0  0  0  0  0  0
    5.5113  -12.8139    0.0000 C   0  0  0  0  0  0  0  0  0  0  0  0
    6.2257  -12.4014    0.0000 C   0  0  0  0  0  0  0  0  0  0  0  0
    6.2257  -11.5764    0.0000 C   0  0  0  0  0  0  0  0  0  0  0  0
    5.5113  -11.1639    0.0000 C   0  0  0  0  0  0  0  0  0  0  0  0
    5.4989  -10.3477    0.0000 C   0  0  0  0  0  0  0  0  0  0  0  0
    6.2129   -9.9344    0.0000 C   0  0  0  0  0  0  0  0  0  0  0  0
    6.2119   -9.1094    0.0000 C   0  0  0  0  0  0  0  0  0  0  0  0
    6.9259   -8.6960    0.0000 C   0  0  0  0  0  0  0  0  0  0  0  0
    6.9249   -7.8710    0.0000 C   0  0  0  0  0  0  0  0  0  0  0  0
    7.6389   -7.4576    0.0000 C   0  0  0  0  0  0  0  0  0  0  0  0
    7.6379   -6.6326    0.0000 C   0  0  0  0  0  0  0  0  0  0  0  0
    8.3518   -6.2193    0.0000 C   0  0  0  0  0  0  0  0  0  0  0  0
    8.3508   -5.3943    0.0000 C   0  0  0  0  0  0  0  0  0  0  0  0
    9.0648   -4.9809    0.0000 C   0  0  0  0  0  0  0  0  0  0  0  0
  1  2  2  0  0  0  0
  2  3  1  0  0  0  0
  3  4  2  0  0  0  0
  4  5  1  0  0  0  0
  5  6  2  0  0  0  0
  6  1  1  0  0  0  0
  7  8  1  0  0  0  0
  8  9  1  0  0  0  0
  9 10  1  0  0  0  0
 10 11  1  0  0  0  0
 11 12  1  0  0  0  0
 12 13  1  0  0  0  0
 13 14  1  0  0  0  0
 14 15  1  0  0  0  0
 15 16  1  0  0  0  0
  7  6  1  0  0  0  0
M  END
>  <cdx:fragmentId>
21

$$$$
