90296.cdx
  Mrv1902 05222410202D          

 15 16  0  0  0  0            999 V2000
    4.9481   -7.1351    0.0000 C   0  0  0  0  0  0  0  0  0  0  0  0
    4.9481   -7.9601    0.0000 C   0  0  0  0  0  0  0  0  0  0  0  0
    5.6625   -8.3726    0.0000 C   0  0  0  0  0  0  0  0  0  0  0  0
    6.3770   -7.9601    0.0000 C   0  0  0  0  0  0  0  0  0  0  0  0
    6.3770   -7.1351    0.0000 C   0  0  0  0  0  0  0  0  0  0  0  0
    5.6625   -6.7226    0.0000 C   0  0  0  0  0  0  0  0  0  0  0  0
    7.0915   -8.3726    0.0000 C   0  0  0  0  0  0  0  0  0  0  0  0
    7.8059   -7.9601    0.0000 C   0  0  0  0  0  0  0  0  0  0  0  0
    7.8059   -7.1351    0.0000 C   0  0  0  0  0  0  0  0  0  0  0  0
    7.0915   -6.7226    0.0000 C   0  0  0  0  0  0  0  0  0  0  0  0
    5.6625   -5.8976    0.0000 C   0  0  0  0  0  0  0  0  0  0  0  0
    5.6625   -9.1976    0.0000 C   0  0  0  0  0  0  0  0  0  0  0  0
    6.3770   -9.6101    0.0000 C   0  0  0  0  0  0  0  0  0  0  0  0
    4.9481   -9.6101    0.0000 C   0  0  0  0  0  0  0  0  0  0  0  0
    8.5204   -8.3726    0.0000 C   0  0  0  0  0  0  0  0  0  0  0  0
  1  2  1  0  0  0  0
  2  3  1  0  0  0  0
  3  4  1  0  0  0  0
  4  5  1  0  0  0  0
  5  6  1  0  0  0  0
  6  1  1  0  0  0  0
  4  7  1  0  0  0  0
  7  8  1  0  0  0  0
  8  9  1  0  0  0  0
  9 10  1  0  0  0  0
 10  5  1  0  0  0  0
  6 11  2  0  0  0  0
  3 12  1  0  0  0  0
 12 13  1  0  0  0  0
 12 14  1  0  0  0  0
  8 15  2  0  0  0  0
M  END
>  <cdx:fragmentId>
5

$$$$
