90307.cdx
  Mrv1902 05222410252D          

 22 24  0  0  0  0            999 V2000
    9.7563   -6.2276    0.0000 O   0  0  0  0  0  0  0  0  0  0  0  0
    9.7563   -4.5776    0.0000 O   0  0  0  0  0  0  0  0  0  0  0  0
    8.3274   -3.7526    0.0000 O   0  0  0  0  0  0  0  0  0  0  0  0
    4.7550   -8.2901    0.0000 O   0  0  0  0  0  0  0  0  0  0  0  0
    3.3261   -5.8151    0.0000 O   0  0  0  0  0  0  0  0  0  0  0  0
    9.0419   -5.8151    0.0000 C   0  0  0  0  0  0  0  0  0  0  0  0
    9.0419   -4.9901    0.0000 C   0  0  0  0  0  0  0  0  0  0  0  0
    8.3274   -4.5776    0.0000 C   0  0  0  0  0  0  0  0  0  0  0  0
    7.6129   -4.9901    0.0000 C   0  0  0  0  0  0  0  0  0  0  0  0
    7.6129   -7.4651    0.0000 O   0  0  0  0  0  0  0  0  0  0  0  0
    8.3274   -6.2276    0.0000 C   0  0  0  0  0  0  0  0  0  0  0  0
    7.6129   -5.8151    0.0000 C   0  0  0  0  0  0  0  0  0  0  0  0
    6.1840   -7.4651    0.0000 C   0  0  0  0  0  0  0  0  0  0  0  0
    6.8984   -7.0526    0.0000 C   0  0  0  0  0  0  0  0  0  0  0  0
    6.8984   -6.2276    0.0000 C   0  0  0  0  0  0  0  0  0  0  0  0
    6.1840   -5.8151    0.0000 O   0  3  0  0  0  0  0  0  0  0  0  0
    4.7550   -7.4651    0.0000 C   0  0  0  0  0  0  0  0  0  0  0  0
    5.4695   -7.0526    0.0000 C   0  0  0  0  0  0  0  0  0  0  0  0
    5.4695   -6.2276    0.0000 C   0  0  0  0  0  0  0  0  0  0  0  0
    4.7550   -5.8151    0.0000 C   0  0  0  0  0  0  0  0  0  0  0  0
    4.0406   -6.2276    0.0000 C   0  0  0  0  0  0  0  0  0  0  0  0
    4.0406   -7.0526    0.0000 C   0  0  0  0  0  0  0  0  0  0  0  0
  6  1  1  0  0  0  0
  7  2  1  0  0  0  0
  8  3  1  0  0  0  0
 17  4  1  0  0  0  0
 21  5  1  0  0  0  0
  6 11  2  0  0  0  0
  7  6  1  0  0  0  0
  8  7  2  0  0  0  0
  9  8  1  0  0  0  0
 12  9  2  0  0  0  0
 10 14  1  0  0  0  0
 12 11  1  0  0  0  0
 15 12  1  0  0  0  0
 13 18  1  0  0  0  0
 14 13  2  0  0  0  0
 15 14  1  0  0  0  0
 16 15  2  0  0  0  0
 19 16  1  0  0  0  0
 17 22  1  0  0  0  0
 18 17  2  0  0  0  0
 19 18  1  0  0  0  0
 20 19  2  0  0  0  0
 21 20  1  0  0  0  0
 22 21  2  0  0  0  0
M  CHG  1  16   1
M  END
>  <cdx:fragmentId>
5

$$$$
