90309.cdx
  Mrv1902 05222410202D          

 25 29  0  0  0  0            999 V2000
    3.2696   -7.8501    0.0000 C   0  0  0  0  0  0  0  0  0  0  0  0
    3.9841   -8.2626    0.0000 O   0  0  0  0  0  0  0  0  0  0  0  0
    5.4131   -9.0876    0.0000 O   0  0  0  0  0  0  0  0  0  0  0  0
    8.2709   -8.2626    0.0000 C   0  0  0  0  0  0  0  0  0  0  0  0
   10.4845   -6.8676    0.0000 O   0  0  0  0  0  0  0  0  0  0  0  0
   10.9694   -6.2001    0.0000 C   0  0  0  0  0  0  0  0  0  0  0  0
   10.4845   -5.5327    0.0000 O   0  0  0  0  0  0  0  0  0  0  0  0
    5.4131   -6.6126    0.0000 C   0  0  0  0  0  0  0  0  0  0  0  0
    4.6986   -7.0251    0.0000 C   0  0  0  0  0  0  0  0  0  0  0  0
    4.6986   -7.8501    0.0000 C   0  0  0  0  0  0  0  0  0  0  0  0
    5.4131   -8.2626    0.0000 C   0  0  0  0  0  0  0  0  0  0  0  0
    6.1275   -7.0251    0.0000 C   0  0  0  0  0  0  0  0  0  0  0  0
    6.1275   -7.8501    0.0000 C   0  0  0  0  0  0  0  0  0  0  0  0
    6.8420   -8.2626    0.0000 C   0  0  0  0  0  0  0  0  0  0  0  0
    7.5565   -7.8501    0.0000 N   0  3  0  0  0  0  0  0  0  0  0  0
    7.5565   -5.3751    0.0000 C   0  0  0  0  0  0  0  0  0  0  0  0
    6.8420   -5.7876    0.0000 C   0  0  0  0  0  0  0  0  0  0  0  0
    6.8420   -6.6126    0.0000 C   0  0  0  0  0  0  0  0  0  0  0  0
    7.5565   -7.0251    0.0000 C   0  0  0  0  0  0  0  0  0  0  0  0
    8.9854   -5.3751    0.0000 C   0  0  0  0  0  0  0  0  0  0  0  0
    8.2709   -5.7876    0.0000 C   0  0  0  0  0  0  0  0  0  0  0  0
    8.2709   -6.6126    0.0000 C   0  0  0  0  0  0  0  0  0  0  0  0
    8.9854   -7.0251    0.0000 C   0  0  0  0  0  0  0  0  0  0  0  0
    9.6999   -6.6126    0.0000 C   0  0  0  0  0  0  0  0  0  0  0  0
    9.6999   -5.7876    0.0000 C   0  0  0  0  0  0  0  0  0  0  0  0
  2  1  1  0  0  0  0
 10  2  1  0  0  0  0
 11  3  1  0  0  0  0
 15  4  1  0  0  0  0
  5 24  1  0  0  0  0
  6  5  1  0  0  0  0
  7  6  1  0  0  0  0
 25  7  1  0  0  0  0
  8 12  1  0  0  0  0
  9  8  2  0  0  0  0
 10  9  1  0  0  0  0
 11 10  2  0  0  0  0
 13 11  1  0  0  0  0
 12 18  2  0  0  0  0
 13 12  1  0  0  0  0
 14 13  2  0  0  0  0
 15 14  1  0  0  0  0
 19 15  2  0  0  0  0
 16 21  1  0  0  0  0
 17 16  2  0  0  0  0
 18 17  1  0  0  0  0
 19 18  1  0  0  0  0
 22 19  1  0  0  0  0
 20 25  1  0  0  0  0
 21 20  2  0  0  0  0
 22 21  1  0  0  0  0
 23 22  2  0  0  0  0
 24 23  1  0  0  0  0
 25 24  2  0  0  0  0
M  CHG  1  15   1
M  END
>  <cdx:fragmentId>
5

$$$$
