90300.cdx
  Mrv1902 05222410232D          

 53 58  0  0  0  0            999 V2000
    1.5656   -8.3864    0.0000 C   0  0  2  0  0  0  0  0  0  0  0  0
    1.5656   -9.2114    0.0000 C   0  0  0  0  0  0  0  0  0  0  0  0
    2.2800   -9.6239    0.0000 O   0  0  0  0  0  0  0  0  0  0  0  0
    2.9945   -9.2114    0.0000 C   0  0  2  0  0  0  0  0  0  0  0  0
    2.9945   -8.3864    0.0000 C   0  0  1  0  0  0  0  0  0  0  0  0
    2.2800   -7.9739    0.0000 C   0  0  1  0  0  0  0  0  0  0  0  0
    3.7090   -9.6239    0.0000 O   0  0  0  0  0  0  0  0  0  0  0  0
    4.4234   -9.2114    0.0000 C   0  0  2  0  0  0  0  0  0  0  0  0
    4.4234   -8.3864    0.0000 C   0  0  0  0  0  0  0  0  0  0  0  0
    3.7090   -7.9739    0.0000 O   0  0  0  0  0  0  0  0  0  0  0  0
    5.1379   -9.6239    0.0000 C   0  0  0  0  0  0  0  0  0  0  0  0
    5.8524   -9.2114    0.0000 C   0  0  0  0  0  0  0  0  0  0  0  0
    5.8524   -8.3864    0.0000 C   0  0  2  0  0  0  0  0  0  0  0  0
    5.1379   -7.9739    0.0000 C   0  0  0  0  0  0  0  0  0  0  0  0
    6.5669   -9.6239    0.0000 C   0  0  0  0  0  0  0  0  0  0  0  0
    7.2813   -9.2114    0.0000 C   0  0  0  0  0  0  0  0  0  0  0  0
    7.2813   -8.3864    0.0000 C   0  0  1  0  0  0  0  0  0  0  0  0
    6.5669   -7.9739    0.0000 C   0  0  1  0  0  0  0  0  0  0  0  0
    7.9958   -7.9739    0.0000 C   0  0  1  0  0  0  0  0  0  0  0  0
    7.9958   -7.1489    0.0000 C   0  0  2  0  0  0  0  0  0  0  0  0
    7.2813   -6.7364    0.0000 C   0  0  0  0  0  0  0  0  0  0  0  0
    6.5669   -7.1489    0.0000 C   0  0  0  0  0  0  0  0  0  0  0  0
    9.4247   -7.9739    0.0000 C   0  0  0  0  0  0  0  0  0  0  0  0
    9.4247   -7.1489    0.0000 C   0  0  2  0  0  0  0  0  0  0  0  0
    8.7103   -6.7364    0.0000 C   0  0  1  0  0  0  0  0  0  0  0  0
    7.2813   -5.9114    0.0000 C   0  0  0  0  0  0  0  0  0  0  0  0
    6.5669   -5.4989    0.0000 C   0  0  0  0  0  0  0  0  0  0  0  0
    5.8524   -5.9114    0.0000 C   0  0  0  0  0  0  0  0  0  0  0  0
    5.8524   -6.7364    0.0000 O   0  0  0  0  0  0  0  0  0  0  0  0
    8.7103   -5.9114    0.0000 C   0  0  0  0  0  0  0  0  0  0  0  0
    7.9958   -5.4989    0.0000 C   0  0  0  0  0  0  0  0  0  0  0  0
   10.8537   -7.9739    0.0000 O   0  0  0  0  0  0  0  0  0  0  0  0
   10.8537   -7.1489    0.0000 C   0  0  1  0  0  0  0  0  0  0  0  0
   10.1392   -6.7364    0.0000 O   0  0  0  0  0  0  0  0  0  0  0  0
   11.5681   -8.3864    0.0000 C   0  0  2  0  0  0  0  0  0  0  0  0
   12.2826   -7.9739    0.0000 C   0  0  1  0  0  0  0  0  0  0  0  0
   12.2826   -7.1489    0.0000 C   0  0  2  0  0  0  0  0  0  0  0  0
   11.5681   -6.7364    0.0000 C   0  0  1  0  0  0  0  0  0  0  0  0
    4.5545  -10.2073    0.0000 C   0  0  0  0  0  0  0  0  0  0  0  0
    5.7213  -10.2073    0.0000 C   0  0  0  0  0  0  0  0  0  0  0  0
    5.1379   -5.4989    0.0000 C   0  0  0  0  0  0  0  0  0  0  0  0
    6.5669   -4.6739    0.0000 O   0  0  0  0  0  0  0  0  0  0  0  0
    9.4247   -5.4989    0.0000 C   0  0  0  0  0  0  0  0  0  0  0  0
    0.8511   -7.9739    0.0000 O   0  0  0  0  0  0  0  0  0  0  0  0
    5.8524   -7.5614    0.0000 C   0  0  0  0  0  0  0  0  0  0  0  0
    7.9958   -6.3239    0.0000 C   0  0  0  0  0  0  0  0  0  0  0  0
   12.9971   -8.3864    0.0000 O   0  0  0  0  0  0  0  0  0  0  0  0
    2.2800   -7.1489    0.0000 O   0  0  0  0  0  0  0  0  0  0  0  0
    8.2093   -8.7708    0.0000 C   0  0  0  0  0  0  0  0  0  0  0  0
   11.5681   -5.9114    0.0000 O   0  0  0  0  0  0  0  0  0  0  0  0
   12.9971   -6.7364    0.0000 O   0  0  0  0  0  0  0  0  0  0  0  0
   11.5681   -9.2114    0.0000 C   0  0  0  0  0  0  0  0  0  0  0  0
    5.2690   -6.4948    0.0000 C   0  0  0  0  0  0  0  0  0  0  0  0
  1  2  1  0  0  0  0
  2  3  1  0  0  0  0
  3  4  1  0  0  0  0
  4  5  1  0  0  0  0
  5  6  1  0  0  0  0
  6  1  1  0  0  0  0
  4  7  1  6  0  0  0
  8  7  1  6  0  0  0
  8  9  1  0  0  0  0
  5 10  1  1  0  0  0
  8 11  1  0  0  0  0
 11 12  1  0  0  0  0
 12 13  1  0  0  0  0
 13 14  1  6  0  0  0
 14  9  1  0  0  0  0
 12 15  2  0  0  0  0
 15 16  1  0  0  0  0
 17 16  1  1  0  0  0
 17 18  1  0  0  0  0
 18 13  1  0  0  0  0
 17 19  1  0  0  0  0
 19 20  1  0  0  0  0
 20 21  1  0  0  0  0
 21 22  1  0  0  0  0
 22 18  1  0  0  0  0
 23 24  1  0  0  0  0
 24 25  1  0  0  0  0
 25 20  1  0  0  0  0
 26 27  1  0  0  0  0
 27 28  1  0  0  0  0
 29 22  2  0  0  0  0
 30 31  2  0  0  0  0
 31 26  1  0  0  0  0
 32 33  1  0  0  0  0
 33 34  1  1  0  0  0
 24 34  1  6  0  0  0
 32 35  1  0  0  0  0
 35 36  1  0  0  0  0
 36 37  1  0  0  0  0
 37 38  1  0  0  0  0
 38 33  1  0  0  0  0
 11 39  1  0  0  0  0
 11 40  1  0  0  0  0
 28 41  1  0  0  0  0
 27 42  2  0  0  0  0
 30 43  1  0  0  0  0
 19 23  1  0  0  0  0
  1 44  1  1  0  0  0
 18 45  1  1  0  0  0
 20 46  1  1  0  0  0
 36 47  1  1  0  0  0
  6 48  1  6  0  0  0
 19 49  1  6  0  0  0
 38 50  1  6  0  0  0
 37 51  1  6  0  0  0
 35 52  1  6  0  0  0
 28 53  1  0  0  0  0
 25 30  1  6  0  0  0
M  END
>  <cdx:fragmentId>
5

$$$$
