90306.cdx
  Mrv1902 05222410252D          

 20 19  0  0  0  0            999 V2000
   11.7386   -5.2707    0.0000 C   0  0  0  0  0  0  0  0  0  0  0  0
   11.7458   -6.0957    0.0000 C   0  0  0  0  0  0  0  0  0  0  0  0
   11.0350   -6.5144    0.0000 C   0  0  0  0  0  0  0  0  0  0  0  0
   11.0422   -7.3394    0.0000 C   0  0  0  0  0  0  0  0  0  0  0  0
   10.3314   -7.7581    0.0000 C   0  0  0  0  0  0  0  0  0  0  0  0
   10.3386   -8.5831    0.0000 C   0  0  0  0  0  0  0  0  0  0  0  0
    9.6277   -9.0018    0.0000 C   0  0  0  0  0  0  0  0  0  0  0  0
    1.7756   -8.6459    0.0000 C   0  0  0  0  0  0  0  0  0  0  0  0
    2.4935   -9.0526    0.0000 C   0  0  0  0  0  0  0  0  0  0  0  0
    3.2045   -8.6342    0.0000 C   0  0  0  0  0  0  0  0  0  0  0  0
    3.9224   -9.0409    0.0000 N   0  0  0  0  0  0  0  0  0  0  0  0
    4.6334   -8.6226    0.0000 C   0  0  0  0  0  0  0  0  0  0  0  0
    5.3513   -9.0292    0.0000 C   0  0  0  0  0  0  0  0  0  0  0  0
    6.0623   -8.6109    0.0000 C   0  0  0  0  0  0  0  0  0  0  0  0
    6.7801   -9.0175    0.0000 C   0  0  0  0  0  0  0  0  0  0  0  0
    7.4912   -8.5992    0.0000 C   0  0  0  0  0  0  0  0  0  0  0  0
    8.2090   -9.0058    0.0000 C   0  0  0  0  0  0  0  0  0  0  0  0
    8.9201   -8.5875    0.0000 C   0  0  0  0  0  0  0  0  0  0  0  0
    4.6267   -7.7976    0.0000 O   0  0  0  0  0  0  0  0  0  0  0  0
    2.5002   -9.8775    0.0000 C   0  0  0  0  0  0  0  0  0  0  0  0
  1  2  1  0  0  0  0
  2  3  2  0  0  0  0
  3  4  1  0  0  0  0
  4  5  2  0  0  0  0
  5  6  1  0  0  0  0
  6  7  2  0  0  0  0
  8  9  1  0  0  0  0
  9 10  1  0  0  0  0
 10 11  1  0  0  0  0
 11 12  1  0  0  0  0
 12 13  1  0  0  0  0
 13 14  2  0  0  0  0
 14 15  1  0  0  0  0
 15 16  2  0  0  0  0
 16 17  1  0  0  0  0
 17 18  1  0  0  0  0
  7 18  1  0  0  0  0
 12 19  2  0  0  0  0
  9 20  2  0  0  0  0
M  END
>  <cdx:fragmentId>
22

$$$$
