90314.cdx
  Mrv1902 05222410232D          

 12 12  0  0  0  0            999 V2000
    7.4317   -5.4393    0.0000 O   0  0  0  0  0  0  0  0  0  0  0  0
    7.4613   -6.2638    0.0000 C   0  0  0  0  0  0  0  0  0  0  0  0
    6.7620   -6.7016    0.0000 C   0  0  0  0  0  0  0  0  0  0  0  0
    5.9643   -9.4940    0.0000 C   0  0  0  0  0  0  0  0  0  0  0  0
    4.7559   -8.3817    0.0000 O   0  0  0  0  0  0  0  0  0  0  0  0
    5.3488   -7.8080    0.0000 C   0  0  0  0  0  0  0  0  0  0  0  0
    6.1420   -8.0347    0.0000 C   0  0  0  0  0  0  0  0  0  0  0  0
    6.4249   -8.8096    0.0000 C   0  0  0  0  0  0  0  0  0  0  0  0
    7.2494   -8.7800    0.0000 C   0  0  0  0  0  0  0  0  0  0  0  0
    7.4760   -7.9868    0.0000 C   0  0  2  0  0  0  0  0  0  0  0  0
    6.7916   -7.5261    0.0000 C   0  0  2  0  0  0  0  0  0  0  0  0
    8.2510   -7.7039    0.0000 O   0  0  0  0  0  0  0  0  0  0  0  0
  2  1  1  0  0  0  0
  3  2  1  0  0  0  0
 11  3  1  1  0  0  0
  8  4  1  0  0  0  0
  6  5  1  0  0  0  0
  7  6  1  0  0  0  0
  7 11  1  0  0  0  0
  8  7  2  0  0  0  0
  9  8  1  0  0  0  0
 10  9  1  0  0  0  0
 11 10  1  0  0  0  0
 10 12  1  6  0  0  0
M  END
>  <cdx:fragmentId>
5

$$$$
