90316.cdx
  Mrv1902 05222410242D          

 35 37  0  0  0  0            999 V2000
    1.6897  -11.1398    0.0000 O   0  0  0  0  0  0  0  0  0  0  0  0
    1.6897  -12.7898    0.0000 O   0  0  0  0  0  0  0  0  0  0  0  0
    3.1186  -11.1398    0.0000 C   0  0  0  0  0  0  0  0  0  0  0  0
    2.4042  -11.5523    0.0000 C   0  0  0  0  0  0  0  0  0  0  0  0
    2.4042  -12.3773    0.0000 C   0  0  0  0  0  0  0  0  0  0  0  0
    3.1186  -12.7898    0.0000 C   0  0  0  0  0  0  0  0  0  0  0  0
    3.8331  -12.3773    0.0000 C   0  0  0  0  0  0  0  0  0  0  0  0
    3.8331  -11.5523    0.0000 C   0  0  0  0  0  0  0  0  0  0  0  0
    4.5476  -11.1398    0.0000 C   0  0  0  0  0  0  0  0  0  0  0  0
    5.9765  -10.3148    0.0000 O   0  0  0  0  0  0  0  0  0  0  0  0
    4.5476  -10.3148    0.0000 C   0  0  0  0  0  0  0  0  0  0  0  0
    5.2621   -9.9023    0.0000 C   0  0  0  0  0  0  0  0  0  0  0  0
    6.6910   -9.9023    0.0000 O   0  0  0  0  0  0  0  0  0  0  0  0
    4.5476   -7.8398    0.0000 O   0  0  0  0  0  0  0  0  0  0  0  0
    9.5489   -6.6023    0.0000 O   0  0  0  0  0  0  0  0  0  0  0  0
   12.4068   -7.4273    0.0000 O   0  0  0  0  0  0  0  0  0  0  0  0
   12.4068   -9.0773    0.0000 O   0  0  0  0  0  0  0  0  0  0  0  0
    5.2621   -7.4273    0.0000 C   0  0  0  0  0  0  0  0  0  0  0  0
    5.2621   -9.0773    0.0000 O   0  0  0  0  0  0  0  0  0  0  0  0
    6.6910   -7.4273    0.0000 O   0  0  0  0  0  0  0  0  0  0  0  0
    5.9765   -7.8398    0.0000 C   0  0  1  0  0  0  0  0  0  0  0  0
    5.9765   -8.6648    0.0000 C   0  0  2  0  0  0  0  0  0  0  0  0
    6.6910   -9.0773    0.0000 C   0  0  1  0  0  0  0  0  0  0  0  0
    8.1199   -7.4273    0.0000 O   0  0  0  0  0  0  0  0  0  0  0  0
    7.4055   -7.8398    0.0000 C   0  0  1  0  0  0  0  0  0  0  0  0
    7.4055   -8.6648    0.0000 C   0  0  2  0  0  0  0  0  0  0  0  0
    8.1199   -9.0773    0.0000 O   0  0  0  0  0  0  0  0  0  0  0  0
    9.5489   -7.4273    0.0000 C   0  0  0  0  0  0  0  0  0  0  0  0
    8.8344   -7.8398    0.0000 C   0  0  0  0  0  0  0  0  0  0  0  0
   10.9778   -7.4273    0.0000 C   0  0  0  0  0  0  0  0  0  0  0  0
   10.2633   -7.8398    0.0000 C   0  0  0  0  0  0  0  0  0  0  0  0
   10.2633   -8.6648    0.0000 C   0  0  0  0  0  0  0  0  0  0  0  0
   10.9778   -9.0773    0.0000 C   0  0  0  0  0  0  0  0  0  0  0  0
   11.6923   -8.6648    0.0000 C   0  0  0  0  0  0  0  0  0  0  0  0
   11.6923   -7.8398    0.0000 C   0  0  0  0  0  0  0  0  0  0  0  0
  4  1  1  0  0  0  0
  5  2  1  0  0  0  0
  3  8  1  0  0  0  0
  4  3  2  0  0  0  0
  5  4  1  0  0  0  0
  6  5  2  0  0  0  0
  7  6  1  0  0  0  0
  8  7  2  0  0  0  0
  9  8  1  0  0  0  0
 11  9  2  0  0  0  0
 12 10  2  0  0  0  0
 12 11  1  0  0  0  0
 19 12  1  0  0  0  0
 23 13  1  1  0  0  0
 18 14  1  0  0  0  0
 28 15  1  0  0  0  0
 35 16  1  0  0  0  0
 34 17  1  0  0  0  0
 21 18  1  1  0  0  0
 22 19  1  6  0  0  0
 20 25  1  0  0  0  0
 21 20  1  0  0  0  0
 22 21  1  0  0  0  0
 23 22  1  0  0  0  0
 26 23  1  0  0  0  0
 24 29  1  0  0  0  0
 25 24  1  1  0  0  0
 26 25  1  0  0  0  0
 26 27  1  6  0  0  0
 28 31  1  0  0  0  0
 29 28  1  0  0  0  0
 30 35  1  0  0  0  0
 31 30  2  0  0  0  0
 32 31  1  0  0  0  0
 33 32  2  0  0  0  0
 34 33  1  0  0  0  0
 35 34  2  0  0  0  0
M  END
>  <cdx:fragmentId>
5

$$$$
