90318.cdx
  Mrv1902 05222410222D          

 22 24  0  0  0  0            999 V2000
    3.1881   -9.1976    0.0000 C   0  0  0  0  0  0  0  0  0  0  0  0
    3.1881  -10.0226    0.0000 C   0  0  0  0  0  0  0  0  0  0  0  0
    3.9025  -10.4351    0.0000 C   0  0  0  0  0  0  0  0  0  0  0  0
    4.6170  -10.0226    0.0000 C   0  0  0  0  0  0  0  0  0  0  0  0
    4.6170   -9.1976    0.0000 C   0  0  0  0  0  0  0  0  0  0  0  0
    3.9025   -8.7851    0.0000 C   0  0  0  0  0  0  0  0  0  0  0  0
    5.3315  -10.4351    0.0000 C   0  0  0  0  0  0  0  0  0  0  0  0
    6.0459  -10.0226    0.0000 O   0  0  0  0  0  0  0  0  0  0  0  0
    6.0459   -9.1976    0.0000 C   0  0  2  0  0  0  0  0  0  0  0  0
    5.3315   -8.7851    0.0000 C   0  0  0  0  0  0  0  0  0  0  0  0
    3.9025  -11.2601    0.0000 O   0  0  0  0  0  0  0  0  0  0  0  0
    5.3315  -11.2601    0.0000 O   0  0  0  0  0  0  0  0  0  0  0  0
    7.4749   -9.1976    0.0000 C   0  0  0  0  0  0  0  0  0  0  0  0
    6.7604   -8.7851    0.0000 C   0  0  0  0  0  0  0  0  0  0  0  0
    8.1894   -8.7851    0.0000 C   0  0  0  0  0  0  0  0  0  0  0  0
    8.1894   -7.9601    0.0000 C   0  0  0  0  0  0  0  0  0  0  0  0
    8.9038   -9.1976    0.0000 C   0  0  0  0  0  0  0  0  0  0  0  0
    9.6183   -8.7851    0.0000 C   0  0  0  0  0  0  0  0  0  0  0  0
    9.6183   -7.9601    0.0000 C   0  0  0  0  0  0  0  0  0  0  0  0
    8.9038   -7.5476    0.0000 C   0  0  0  0  0  0  0  0  0  0  0  0
   10.3328   -7.5476    0.0000 O   0  0  0  0  0  0  0  0  0  0  0  0
    2.4736   -8.7851    0.0000 O   0  0  0  0  0  0  0  0  0  0  0  0
  1  2  1  0  0  0  0
  2  3  2  0  0  0  0
  3  4  1  0  0  0  0
  4  5  2  0  0  0  0
  5  6  1  0  0  0  0
  6  1  2  0  0  0  0
  4  7  1  0  0  0  0
  7  8  1  0  0  0  0
  8  9  1  0  0  0  0
  9 10  1  0  0  0  0
 10  5  1  0  0  0  0
  3 11  1  0  0  0  0
 12  7  2  0  0  0  0
 13 14  1  0  0  0  0
  9 14  1  6  0  0  0
 13 15  1  0  0  0  0
 15 16  2  0  0  0  0
 15 17  1  0  0  0  0
 17 18  2  0  0  0  0
 18 19  1  0  0  0  0
 19 20  2  0  0  0  0
 20 16  1  0  0  0  0
 19 21  1  0  0  0  0
  1 22  1  0  0  0  0
M  END
>  <cdx:fragmentId>
5

$$$$
