90313.cdx
  Mrv1902 05222410252D          

 27 30  0  0  0  0            999 V2000
    6.4538   -7.1997    0.0000 C   0  0  2  0  0  0  0  0  0  0  0  0
    5.9541   -6.5433    0.0000 N   0  0  0  0  0  0  0  0  0  0  0  0
    6.4240   -5.8652    0.0000 C   0  0  1  0  0  0  0  0  0  0  0  0
    7.2141   -6.1025    0.0000 C   0  0  1  0  0  0  0  0  0  0  0  0
    7.9928   -5.8302    0.0000 C   0  0  0  0  0  0  0  0  0  0  0  0
    8.4925   -6.4866    0.0000 C   0  0  0  0  0  0  0  0  0  0  0  0
    8.0226   -7.1647    0.0000 C   0  0  1  0  0  0  0  0  0  0  0  0
    8.0300   -8.0025    0.0000 C   0  0  1  0  0  0  0  0  0  0  0  0
    8.0300   -8.8550    0.0000 C   0  0  0  0  0  0  0  0  0  0  0  0
    6.5175   -8.8825    0.0000 O   0  0  0  0  0  0  0  0  0  0  0  0
    6.4900   -8.0300    0.0000 C   0  0  2  0  0  0  0  0  0  0  0  0
    7.2325   -6.9273    0.0000 C   0  0  1  0  0  0  0  0  0  0  0  0
    7.2697   -8.5027    0.0000 C   0  0  1  0  0  0  0  0  0  0  0  0
    8.6134   -9.4384    0.0000 O   0  0  0  0  0  0  0  0  0  0  0  0
    8.0231   -9.8061    0.0000 C   0  0  0  0  0  0  0  0  0  0  0  0
    7.2995   -9.4099    0.0000 C   0  0  0  0  0  0  0  0  0  0  0  0
    6.5945   -9.8384    0.0000 C   0  0  0  0  0  0  0  0  0  0  0  0
    7.2325   -7.7523    0.0000 C   0  0  0  0  0  0  0  0  0  0  0  0
    5.1293   -6.5617    0.0000 C   0  0  0  0  0  0  0  0  0  0  0  0
    5.7393   -7.6122    0.0000 H   0  0  0  0  0  0  0  0  0  0  0  0
    7.1957   -5.2777    0.0000 H   0  0  0  0  0  0  0  0  0  0  0  0
    8.7371   -7.5772    0.0000 H   0  0  0  0  0  0  0  0  0  0  0  0
    6.1516   -5.0864    0.0000 C   0  0  0  0  0  0  0  0  0  0  0  0
    6.6898   -4.4612    0.0000 C   0  0  0  0  0  0  0  0  0  0  0  0
    6.4174   -3.6824    0.0000 O   0  0  0  0  0  0  0  0  0  0  0  0
    7.5004   -4.6146    0.0000 C   0  0  0  0  0  0  0  0  0  0  0  0
    7.3181  -10.2347    0.0000 O   0  0  0  0  0  0  0  0  0  0  0  0
  1  2  1  0  0  0  0
  2  3  1  0  0  0  0
  3  4  1  0  0  0  0
  4  5  1  0  0  0  0
  5  6  1  0  0  0  0
  6  7  1  0  0  0  0
  7  8  1  0  0  0  0
  8  9  1  1  0  0  0
  9 10  1  0  0  0  0
 11 10  1  1  0  0  0
  1 11  1  0  0  0  0
  1 12  1  0  0  0  0
 12  7  1  0  0  0  0
 11 13  1  0  0  0  0
 13  8  1  0  0  0  0
  4 12  1  0  0  0  0
  9 14  2  0  0  0  0
 15 16  1  0  0  0  0
 16 17  1  0  0  0  0
 13 16  1  6  0  0  0
 12 18  1  6  0  0  0
  2 19  1  0  0  0  0
  1 20  1  6  0  0  0
  4 21  1  6  0  0  0
  7 22  1  6  0  0  0
  3 23  1  6  0  0  0
 23 24  1  0  0  0  0
 24 25  2  0  0  0  0
 24 26  1  0  0  0  0
 16 27  1  0  0  0  0
M  END
>  <cdx:fragmentId>
97812

$$$$
