90319.cdx
  Mrv1902 05222410232D          

 26 28  0  0  0  0            999 V2000
    5.3606   -7.5339    0.0000 C   0  0  0  0  0  0  0  0  0  0  0  0
    5.3606   -8.3589    0.0000 C   0  0  0  0  0  0  0  0  0  0  0  0
    6.0750   -8.7714    0.0000 C   0  0  0  0  0  0  0  0  0  0  0  0
    6.7895   -8.3589    0.0000 C   0  0  0  0  0  0  0  0  0  0  0  0
    6.7895   -7.5339    0.0000 C   0  0  0  0  0  0  0  0  0  0  0  0
    6.0750   -7.1214    0.0000 C   0  0  0  0  0  0  0  0  0  0  0  0
    7.5040   -8.7714    0.0000 C   0  0  0  0  0  0  0  0  0  0  0  0
    8.2184   -8.3589    0.0000 C   0  0  0  0  0  0  0  0  0  0  0  0
    8.2184   -7.5339    0.0000 C   0  0  0  0  0  0  0  0  0  0  0  0
    7.5040   -7.1214    0.0000 O   0  0  0  0  0  0  0  0  0  0  0  0
    6.0750   -9.5964    0.0000 O   0  0  0  0  0  0  0  0  0  0  0  0
    7.5040   -9.5964    0.0000 O   0  0  0  0  0  0  0  0  0  0  0  0
    8.9329   -8.7714    0.0000 O   0  0  0  0  0  0  0  0  0  0  0  0
    9.6474   -7.5339    0.0000 C   0  0  0  0  0  0  0  0  0  0  0  0
    8.9329   -7.1214    0.0000 C   0  0  0  0  0  0  0  0  0  0  0  0
   10.3619   -7.1214    0.0000 C   0  0  0  0  0  0  0  0  0  0  0  0
   10.3619   -6.2964    0.0000 C   0  0  0  0  0  0  0  0  0  0  0  0
    9.6474   -5.8839    0.0000 C   0  0  0  0  0  0  0  0  0  0  0  0
    8.9329   -6.2964    0.0000 C   0  0  0  0  0  0  0  0  0  0  0  0
    6.0750   -6.2964    0.0000 C   0  0  0  0  0  0  0  0  0  0  0  0
    5.3606   -5.8839    0.0000 C   0  0  0  0  0  0  0  0  0  0  0  0
    4.6461   -7.1214    0.0000 O   0  0  0  0  0  0  0  0  0  0  0  0
    5.3606   -5.0589    0.0000 C   0  0  0  0  0  0  0  0  0  0  0  0
    4.6461   -4.6464    0.0000 C   0  0  0  0  0  0  0  0  0  0  0  0
    6.0750   -4.6464    0.0000 C   0  0  0  0  0  0  0  0  0  0  0  0
   11.0763   -5.8839    0.0000 O   0  0  0  0  0  0  0  0  0  0  0  0
  1  2  1  0  0  0  0
  2  3  2  0  0  0  0
  3  4  1  0  0  0  0
  4  5  2  0  0  0  0
  5  6  1  0  0  0  0
  6  1  2  0  0  0  0
  4  7  1  0  0  0  0
  7  8  1  0  0  0  0
  8  9  2  0  0  0  0
  9 10  1  0  0  0  0
 10  5  1  0  0  0  0
  3 11  1  0  0  0  0
 12  7  2  0  0  0  0
  8 13  1  0  0  0  0
 14 15  1  0  0  0  0
 15  9  1  0  0  0  0
 14 16  2  0  0  0  0
 16 17  1  0  0  0  0
 17 18  2  0  0  0  0
 18 19  1  0  0  0  0
 19 15  2  0  0  0  0
  6 20  1  0  0  0  0
 20 21  1  0  0  0  0
 22  1  1  0  0  0  0
 21 23  2  0  0  0  0
 23 24  1  0  0  0  0
 23 25  1  0  0  0  0
 17 26  1  0  0  0  0
M  END
>  <cdx:fragmentId>
5

$$$$
