90310.cdx
  Mrv1902 05222410252D          

 24 27  0  0  0  0            999 V2000
    7.8739   -8.2923    0.0000 C   0  0  0  0  0  0  0  0  0  0  0  0
    8.5942   -7.8902    0.0000 C   0  0  0  0  0  0  0  0  0  0  0  0
    8.6061   -7.0653    0.0000 C   0  0  0  0  0  0  0  0  0  0  0  0
    7.8977   -6.6425    0.0000 C   0  0  0  0  0  0  0  0  0  0  0  0
    7.1773   -7.0446    0.0000 C   0  0  0  0  0  0  0  0  0  0  0  0
    7.1654   -7.8696    0.0000 N   0  0  0  0  0  0  0  0  0  0  0  0
    6.4689   -6.6219    0.0000 C   0  0  0  0  0  0  0  0  0  0  0  0
    5.7486   -7.0240    0.0000 C   0  0  0  0  0  0  0  0  0  0  0  0
    5.7366   -7.8489    0.0000 C   0  0  0  0  0  0  0  0  0  0  0  0
    6.4451   -8.2717    0.0000 C   0  0  0  0  0  0  0  0  0  0  0  0
    5.0401   -6.6012    0.0000 C   0  0  0  0  0  0  0  0  0  0  0  0
    4.3198   -7.0033    0.0000 C   0  0  0  0  0  0  0  0  0  0  0  0
    4.3078   -7.8283    0.0000 C   0  0  0  0  0  0  0  0  0  0  0  0
    5.0163   -8.2510    0.0000 C   0  0  0  0  0  0  0  0  0  0  0  0
    9.3265   -6.6632    0.0000 C   0  0  0  0  0  0  0  0  0  0  0  0
    9.3384   -5.8383    0.0000 C   0  0  0  0  0  0  0  0  0  0  0  0
    8.6300   -5.4155    0.0000 C   0  0  0  0  0  0  0  0  0  0  0  0
    7.9096   -5.8176    0.0000 C   0  0  0  0  0  0  0  0  0  0  0  0
   10.0588   -5.4361    0.0000 O   0  0  0  0  0  0  0  0  0  0  0  0
    9.3623   -4.1884    0.0000 C   0  0  0  0  0  0  0  0  0  0  0  0
    8.6419   -4.5906    0.0000 O   0  0  0  0  0  0  0  0  0  0  0  0
    5.0043   -9.0759    0.0000 O   0  0  0  0  0  0  0  0  0  0  0  0
    3.5875   -8.2304    0.0000 O   0  0  0  0  0  0  0  0  0  0  0  0
   10.7672   -5.8589    0.0000 C   0  0  0  0  0  0  0  0  0  0  0  0
  1  2  1  0  0  0  0
  2  3  1  0  0  0  0
  3  4  1  0  0  0  0
  4  5  1  0  0  0  0
  5  6  1  0  0  0  0
  6  1  1  0  0  0  0
  5  7  1  0  0  0  0
  7  8  1  0  0  0  0
  8  9  2  0  0  0  0
  9 10  1  0  0  0  0
 10  6  1  0  0  0  0
  8 11  1  0  0  0  0
 11 12  2  0  0  0  0
 12 13  1  0  0  0  0
 13 14  2  0  0  0  0
 14  9  1  0  0  0  0
  3 15  2  0  0  0  0
 15 16  1  0  0  0  0
 16 17  2  0  0  0  0
 17 18  1  0  0  0  0
 18  4  2  0  0  0  0
 16 19  1  0  0  0  0
 20 21  1  0  0  0  0
 21 17  1  0  0  0  0
 14 22  1  0  0  0  0
 13 23  1  0  0  0  0
 19 24  1  0  0  0  0
M  END
>  <cdx:fragmentId>
5

$$$$
