90315.cdx
  Mrv1902 05222410232D          

 21 23  0  0  0  0            999 V2000
   11.0855   -6.7224    0.0000 O   0  0  0  0  0  0  0  0  0  0  0  0
   11.0999   -8.3723    0.0000 O   0  0  0  0  0  0  0  0  0  0  0  0
    3.9554   -8.4345    0.0000 O   0  0  0  0  0  0  0  0  0  0  0  0
    6.7917   -5.9347    0.0000 O   0  0  0  0  0  0  0  0  0  0  0  0
    9.6710   -8.3848    0.0000 C   0  0  0  0  0  0  0  0  0  0  0  0
   10.3818   -7.9661    0.0000 C   0  0  0  0  0  0  0  0  0  0  0  0
   10.3746   -7.1411    0.0000 C   0  0  0  0  0  0  0  0  0  0  0  0
    9.6566   -6.7348    0.0000 C   0  0  0  0  0  0  0  0  0  0  0  0
    8.9529   -7.9785    0.0000 C   0  0  0  0  0  0  0  0  0  0  0  0
    8.9458   -7.1535    0.0000 C   0  0  0  0  0  0  0  0  0  0  0  0
    8.2277   -6.7473    0.0000 C   0  0  0  0  0  0  0  0  0  0  0  0
    6.8132   -8.4096    0.0000 O   0  0  0  0  0  0  0  0  0  0  0  0
    7.5241   -7.9909    0.0000 C   0  0  0  0  0  0  0  0  0  0  0  0
    7.5169   -7.1660    0.0000 C   0  0  0  0  0  0  0  0  0  0  0  0
    6.7988   -6.7597    0.0000 C   0  0  0  0  0  0  0  0  0  0  0  0
    5.3843   -8.4221    0.0000 C   0  0  0  0  0  0  0  0  0  0  0  0
    6.0952   -8.0034    0.0000 C   0  0  0  0  0  0  0  0  0  0  0  0
    6.0880   -7.1784    0.0000 C   0  0  0  0  0  0  0  0  0  0  0  0
    5.3699   -6.7721    0.0000 C   0  0  0  0  0  0  0  0  0  0  0  0
    4.6591   -7.1908    0.0000 C   0  0  0  0  0  0  0  0  0  0  0  0
    4.6663   -8.0158    0.0000 C   0  0  0  0  0  0  0  0  0  0  0  0
  7  1  1  0  0  0  0
  6  2  1  0  0  0  0
 21  3  1  0  0  0  0
 15  4  2  0  0  0  0
  5  9  2  0  0  0  0
  6  5  1  0  0  0  0
  7  6  2  0  0  0  0
  8  7  1  0  0  0  0
 10  8  2  0  0  0  0
 10  9  1  0  0  0  0
 11 10  1  0  0  0  0
 14 11  1  0  0  0  0
 12 17  1  0  0  0  0
 13 12  1  0  0  0  0
 14 13  1  0  0  0  0
 15 14  1  0  0  0  0
 18 15  1  0  0  0  0
 16 21  1  0  0  0  0
 17 16  2  0  0  0  0
 18 17  1  0  0  0  0
 19 18  2  0  0  0  0
 20 19  1  0  0  0  0
 21 20  2  0  0  0  0
M  END
>  <cdx:fragmentId>
5

$$$$
