90322.cdx
  Mrv1902 05222410212D          

 40 43  0  0  0  0            999 V2000
    6.6001   -5.6733    0.0000 O   0  0  0  0  0  0  0  0  0  0  0  0
    7.3084   -6.0963    0.0000 C   0  0  0  0  0  0  0  0  0  0  0  0
    7.2963   -6.9212    0.0000 C   0  0  0  0  0  0  0  0  0  0  0  0
    8.0047   -7.3441    0.0000 C   0  0  0  0  0  0  0  0  0  0  0  0
    8.7251   -6.9422    0.0000 C   0  0  0  0  0  0  0  0  0  0  0  0
    8.7372   -6.1173    0.0000 C   0  0  0  0  0  0  0  0  0  0  0  0
    8.0289   -5.6943    0.0000 C   0  0  0  0  0  0  0  0  0  0  0  0
    9.4577   -5.7153    0.0000 C   0  0  0  0  0  0  0  0  0  0  0  0
   10.1660   -6.1383    0.0000 C   0  0  0  0  0  0  0  0  0  0  0  0
   10.8865   -5.7363    0.0000 C   0  0  0  0  0  0  0  0  0  0  0  0
   10.8986   -4.9114    0.0000 C   0  0  0  0  0  0  0  0  0  0  0  0
   11.6190   -4.5094    0.0000 C   0  0  0  0  0  0  0  0  0  0  0  0
   12.3274   -4.9324    0.0000 C   0  0  0  0  0  0  0  0  0  0  0  0
   12.3153   -5.7573    0.0000 C   0  0  0  0  0  0  0  0  0  0  0  0
   11.5948   -6.1593    0.0000 C   0  0  0  0  0  0  0  0  0  0  0  0
   13.0478   -4.5304    0.0000 O   0  0  0  0  0  0  0  0  0  0  0  0
   13.7562   -4.9534    0.0000 C   0  0  0  0  0  0  0  0  0  0  0  0
    7.9925   -8.1690    0.0000 O   0  0  0  0  0  0  0  0  0  0  0  0
    7.2721   -8.5710    0.0000 C   0  0  2  0  0  0  0  0  0  0  0  0
    6.5700   -8.1377    0.0000 O   0  0  0  0  0  0  0  0  0  0  0  0
    5.8438   -8.5290    0.0000 C   0  0  1  0  0  0  0  0  0  0  0  0
    5.8438   -9.3537    0.0000 C   0  0  2  0  0  0  0  0  0  0  0  0
    6.5700   -9.7870    0.0000 C   0  0  1  0  0  0  0  0  0  0  0  0
    7.2721   -9.3956    0.0000 C   0  0  1  0  0  0  0  0  0  0  0  0
    5.1354   -8.1061    0.0000 C   0  0  0  0  0  0  0  0  0  0  0  0
    6.5579  -10.6119    0.0000 O   0  0  0  0  0  0  0  0  0  0  0  0
    7.9834   -9.8135    0.0000 O   0  0  0  0  0  0  0  0  0  0  0  0
    5.1263   -9.7610    0.0000 O   0  0  0  0  0  0  0  0  0  0  0  0
    4.4150   -8.5080    0.0000 O   0  0  0  0  0  0  0  0  0  0  0  0
    3.7066   -8.0851    0.0000 C   0  0  0  0  0  0  0  0  0  0  0  0
    2.9862   -8.4870    0.0000 C   0  0  0  0  0  0  0  0  0  0  0  0
    3.7188   -7.2602    0.0000 O   0  0  0  0  0  0  0  0  0  0  0  0
    2.2841   -8.0537    0.0000 C   0  0  0  0  0  0  0  0  0  0  0  0
    1.5578   -8.4450    0.0000 C   0  0  0  0  0  0  0  0  0  0  0  0
    1.5578   -9.2697    0.0000 C   0  0  0  0  0  0  0  0  0  0  0  0
    2.2841   -9.7030    0.0000 C   0  0  0  0  0  0  0  0  0  0  0  0
    2.9862   -9.3117    0.0000 C   0  0  0  0  0  0  0  0  0  0  0  0
    0.8495   -8.0221    0.0000 O   0  0  0  0  0  0  0  0  0  0  0  0
    0.8404   -9.6771    0.0000 O   0  0  0  0  0  0  0  0  0  0  0  0
    2.2720  -10.5279    0.0000 O   0  0  0  0  0  0  0  0  0  0  0  0
  2  3  1  0  0  0  0
  3  4  2  0  0  0  0
  4  5  1  0  0  0  0
  5  6  2  0  0  0  0
  6  7  1  0  0  0  0
  2  7  2  0  0  0  0
  1  2  1  0  0  0  0
  8  9  2  0  0  0  0
 10 11  1  0  0  0  0
 11 12  2  0  0  0  0
 12 13  1  0  0  0  0
 13 14  2  0  0  0  0
 14 15  1  0  0  0  0
 10 15  2  0  0  0  0
 16 17  1  0  0  0  0
 13 16  1  0  0  0  0
  9 10  1  0  0  0  0
  6  8  1  0  0  0  0
  4 18  1  0  0  0  0
 19 18  1  1  0  0  0
 19 20  1  0  0  0  0
 20 21  1  0  0  0  0
 21 22  1  0  0  0  0
 22 23  1  0  0  0  0
 23 24  1  0  0  0  0
 24 19  1  0  0  0  0
 21 25  1  1  0  0  0
 23 26  1  1  0  0  0
 24 27  1  6  0  0  0
 22 28  1  6  0  0  0
 25 29  1  0  0  0  0
 29 30  1  0  0  0  0
 30 31  1  0  0  0  0
 30 32  2  0  0  0  0
 31 33  2  0  0  0  0
 33 34  1  0  0  0  0
 34 35  2  0  0  0  0
 35 36  1  0  0  0  0
 36 37  2  0  0  0  0
 37 31  1  0  0  0  0
 34 38  1  0  0  0  0
 35 39  1  0  0  0  0
 36 40  1  0  0  0  0
M  END
>  <cdx:fragmentId>
237

$$$$
