90328.cdx
  Mrv1902 05222410232D          

 34 37  0  0  0  0            999 V2000
    3.4493  -10.7101    0.0000 C   0  0  0  0  0  0  0  0  0  0  0  0
    3.4493  -11.5351    0.0000 C   0  0  0  0  0  0  0  0  0  0  0  0
    4.1638  -11.9476    0.0000 C   0  0  0  0  0  0  0  0  0  0  0  0
    4.8782  -11.5351    0.0000 C   0  0  0  0  0  0  0  0  0  0  0  0
    4.8782  -10.7101    0.0000 C   0  0  2  0  0  0  0  0  0  0  0  0
    4.1638  -10.2976    0.0000 C   0  0  0  0  0  0  0  0  0  0  0  0
    5.5927  -11.9476    0.0000 C   0  0  0  0  0  0  0  0  0  0  0  0
    6.3072  -11.5351    0.0000 C   0  0  0  0  0  0  0  0  0  0  0  0
    6.3072  -10.7101    0.0000 C   0  0  0  0  0  0  0  0  0  0  0  0
    5.5927  -10.2976    0.0000 C   0  0  0  0  0  0  0  0  0  0  0  0
    7.0217  -10.2976    0.0000 C   0  0  1  0  0  0  0  0  0  0  0  0
    7.0217   -9.4726    0.0000 C   0  0  2  0  0  0  0  0  0  0  0  0
    6.3072   -9.0601    0.0000 C   0  0  0  0  0  0  0  0  0  0  0  0
    5.5927   -9.4726    0.0000 C   0  0  0  0  0  0  0  0  0  0  0  0
    7.8063  -10.5526    0.0000 C   0  0  0  0  0  0  0  0  0  0  0  0
    8.2912   -9.8851    0.0000 C   0  0  0  0  0  0  0  0  0  0  0  0
    7.8063   -9.2177    0.0000 C   0  0  2  0  0  0  0  0  0  0  0  0
    2.7348  -11.9476    0.0000 O   0  0  0  0  0  0  0  0  0  0  0  0
    4.8782   -9.0601    0.0000 O   0  0  0  0  0  0  0  0  0  0  0  0
    7.0217  -11.9476    0.0000 O   0  0  0  0  0  0  0  0  0  0  0  0
    8.0612  -11.3372    0.0000 O   0  0  0  0  0  0  0  0  0  0  0  0
    8.0612   -8.4331    0.0000 C   0  0  2  0  0  0  0  0  0  0  0  0
    7.5092   -7.8200    0.0000 C   0  0  0  0  0  0  0  0  0  0  0  0
    9.9301   -7.3054    0.0000 C   0  0  0  0  0  0  0  0  0  0  0  0
    9.1231   -7.4769    0.0000 C   0  0  0  0  0  0  0  0  0  0  0  0
    8.8682   -8.2616    0.0000 C   0  0  0  0  0  0  0  0  0  0  0  0
    3.7513  -12.6621    0.0000 C   0  0  0  0  0  0  0  0  0  0  0  0
    4.8782   -9.8851    0.0000 C   0  0  0  0  0  0  0  0  0  0  0  0
    7.0217   -8.6476    0.0000 C   0  0  0  0  0  0  0  0  0  0  0  0
    4.5763  -12.6621    0.0000 C   0  0  0  0  0  0  0  0  0  0  0  0
    7.0217  -11.1226    0.0000 C   0  0  0  0  0  0  0  0  0  0  0  0
    8.5909   -8.9628    0.0000 H   0  0  0  0  0  0  0  0  0  0  0  0
   10.1850   -6.5208    0.0000 O   0  0  0  0  0  0  0  0  0  0  0  0
   10.4821   -7.9185    0.0000 O   0  0  0  0  0  0  0  0  0  0  0  0
  1  2  1  0  0  0  0
  2  3  1  0  0  0  0
  3  4  1  0  0  0  0
  4  5  1  0  0  0  0
  5  6  1  0  0  0  0
  6  1  1  0  0  0  0
  4  7  1  0  0  0  0
  7  8  1  0  0  0  0
  8  9  1  0  0  0  0
  9 10  2  0  0  0  0
 10  5  1  0  0  0  0
  9 11  1  0  0  0  0
 11 12  1  0  0  0  0
 12 13  1  0  0  0  0
 13 14  1  0  0  0  0
 14 10  1  0  0  0  0
 11 15  1  0  0  0  0
 15 16  1  0  0  0  0
 16 17  1  0  0  0  0
 17 12  1  0  0  0  0
  2 18  1  0  0  0  0
 14 19  2  0  0  0  0
  8 20  1  0  0  0  0
 15 21  1  0  0  0  0
 17 22  1  0  0  0  0
 22 23  1  6  0  0  0
 25 24  1  0  0  0  0
 22 26  1  0  0  0  0
 26 25  1  0  0  0  0
  3 27  1  0  0  0  0
  5 28  1  1  0  0  0
 12 29  1  1  0  0  0
  3 30  1  0  0  0  0
 11 31  1  6  0  0  0
 17 32  1  6  0  0  0
 24 33  2  0  0  0  0
 24 34  1  0  0  0  0
M  END
>  <cdx:fragmentId>
5

$$$$
