90320.cdx
  Mrv1902 05222410212D          

 40 47  0  0  0  0            999 V2000
    3.8618   -7.6026    0.0000 C   0  0  0  0  0  0  0  0  0  0  0  0
    3.8618   -8.4276    0.0000 C   0  0  0  0  0  0  0  0  0  0  0  0
    4.5763   -8.8401    0.0000 C   0  0  0  0  0  0  0  0  0  0  0  0
    5.2907   -8.4276    0.0000 C   0  0  0  0  0  0  0  0  0  0  0  0
    5.2907   -7.6026    0.0000 C   0  0  0  0  0  0  0  0  0  0  0  0
    4.5763   -7.1901    0.0000 C   0  0  0  0  0  0  0  0  0  0  0  0
    6.0052   -8.8401    0.0000 C   0  0  0  0  0  0  0  0  0  0  0  0
    6.7197   -8.4276    0.0000 C   0  0  0  0  0  0  0  0  0  0  0  0
    6.7197   -7.6026    0.0000 C   0  0  0  0  0  0  0  0  0  0  0  0
    6.0052   -7.1901    0.0000 C   0  0  0  0  0  0  0  0  0  0  0  0
    7.4342   -8.8401    0.0000 C   0  0  0  0  0  0  0  0  0  0  0  0
    8.1486   -8.4276    0.0000 C   0  0  0  0  0  0  0  0  0  0  0  0
    8.1486   -7.6026    0.0000 C   0  0  0  0  0  0  0  0  0  0  0  0
    7.4342   -7.1901    0.0000 C   0  0  0  0  0  0  0  0  0  0  0  0
    6.0052   -6.3651    0.0000 O   0  0  0  0  0  0  0  0  0  0  0  0
    4.5763   -6.3651    0.0000 O   0  0  0  0  0  0  0  0  0  0  0  0
    7.4342   -6.3651    0.0000 O   0  0  0  0  0  0  0  0  0  0  0  0
    3.1473   -8.8401    0.0000 O   0  0  0  0  0  0  0  0  0  0  0  0
    3.1473   -9.6651    0.0000 O   0  0  0  0  0  0  0  0  0  0  0  0
    3.8618  -10.0776    0.0000 C   0  0  0  0  0  0  0  0  0  0  0  0
    4.5763   -9.6651    0.0000 C   0  0  0  0  0  0  0  0  0  0  0  0
    5.2907  -10.0776    0.0000 C   0  0  0  0  0  0  0  0  0  0  0  0
    6.0052   -9.6651    0.0000 C   0  0  0  0  0  0  0  0  0  0  0  0
    6.7197  -10.0776    0.0000 C   0  0  0  0  0  0  0  0  0  0  0  0
    7.4342   -9.6651    0.0000 C   0  0  0  0  0  0  0  0  0  0  0  0
    8.1486  -10.0776    0.0000 C   0  0  0  0  0  0  0  0  0  0  0  0
    8.8631   -9.6651    0.0000 C   0  0  0  0  0  0  0  0  0  0  0  0
    8.8631   -8.8401    0.0000 C   0  0  0  0  0  0  0  0  0  0  0  0
    3.8618  -10.9026    0.0000 C   0  0  0  0  0  0  0  0  0  0  0  0
    4.5763  -11.3151    0.0000 C   0  0  0  0  0  0  0  0  0  0  0  0
    5.2907  -10.9026    0.0000 C   0  0  0  0  0  0  0  0  0  0  0  0
    6.0052  -11.3151    0.0000 C   0  0  0  0  0  0  0  0  0  0  0  0
    6.7197  -10.9026    0.0000 C   0  0  0  0  0  0  0  0  0  0  0  0
    7.4342  -11.3151    0.0000 C   0  0  0  0  0  0  0  0  0  0  0  0
    8.1486  -10.9026    0.0000 C   0  0  0  0  0  0  0  0  0  0  0  0
    4.5763  -12.1401    0.0000 O   0  0  0  0  0  0  0  0  0  0  0  0
    6.0052  -12.1401    0.0000 O   0  0  0  0  0  0  0  0  0  0  0  0
    7.4342  -12.1401    0.0000 O   0  0  0  0  0  0  0  0  0  0  0  0
    9.5776   -8.4276    0.0000 O   0  0  0  0  0  0  0  0  0  0  0  0
    9.5776  -10.0776    0.0000 O   0  0  0  0  0  0  0  0  0  0  0  0
  1  2  1  0  0  0  0
  2  3  2  0  0  0  0
  3  4  1  0  0  0  0
  4  5  2  0  0  0  0
  5  6  1  0  0  0  0
  6  1  2  0  0  0  0
  4  7  1  0  0  0  0
  7  8  1  0  0  0  0
  8  9  2  0  0  0  0
  9 10  1  0  0  0  0
 10  5  1  0  0  0  0
  8 11  1  0  0  0  0
 11 12  2  0  0  0  0
 12 13  1  0  0  0  0
 13 14  2  0  0  0  0
 14  9  1  0  0  0  0
 10 15  2  0  0  0  0
 16  6  1  0  0  0  0
 14 17  1  0  0  0  0
  2 18  1  0  0  0  0
 19 20  1  0  0  0  0
 20 21  2  0  0  0  0
 21  3  1  0  0  0  0
 21 22  1  0  0  0  0
 22 23  1  0  0  0  0
 23  7  2  0  0  0  0
 23 24  1  0  0  0  0
 24 25  1  0  0  0  0
 25 11  1  0  0  0  0
 25 26  2  0  0  0  0
 26 27  1  0  0  0  0
 28 12  1  0  0  0  0
 20 29  1  0  0  0  0
 29 30  2  0  0  0  0
 30 31  1  0  0  0  0
 31 22  2  0  0  0  0
 31 32  1  0  0  0  0
 32 33  1  0  0  0  0
 33 24  2  0  0  0  0
 33 34  1  0  0  0  0
 34 35  2  0  0  0  0
 35 26  1  0  0  0  0
 30 36  1  0  0  0  0
 37 32  2  0  0  0  0
 38 34  1  0  0  0  0
 28 39  1  0  0  0  0
 27 40  1  0  0  0  0
M  END
>  <cdx:fragmentId>
5

$$$$
