90324.cdx
  Mrv1902 05222410222D          

 20 21  0  0  0  0            999 V2000
    5.2805   -8.3600    0.0000 C   0  0  0  0  0  0  0  0  0  0  0  0
    5.2805   -9.1850    0.0000 C   0  0  0  0  0  0  0  0  0  0  0  0
    5.9950   -9.5975    0.0000 C   0  0  0  0  0  0  0  0  0  0  0  0
    6.7095   -9.1850    0.0000 C   0  0  0  0  0  0  0  0  0  0  0  0
    6.7095   -8.3600    0.0000 C   0  0  0  0  0  0  0  0  0  0  0  0
    5.9950   -7.9475    0.0000 C   0  0  0  0  0  0  0  0  0  0  0  0
    7.4941   -9.4399    0.0000 O   0  0  0  0  0  0  0  0  0  0  0  0
    7.9790   -8.7725    0.0000 C   0  0  0  0  0  0  0  0  0  0  0  0
    7.4941   -8.1051    0.0000 C   0  0  0  0  0  0  0  0  0  0  0  0
    8.8040   -8.7725    0.0000 O   0  0  0  0  0  0  0  0  0  0  0  0
    7.7490   -7.3204    0.0000 C   0  0  0  0  0  0  0  0  0  0  0  0
    4.5661   -7.9475    0.0000 C   0  0  0  0  0  0  0  0  0  0  0  0
    3.8516   -8.3600    0.0000 C   0  0  0  0  0  0  0  0  0  0  0  0
    4.5661   -7.1225    0.0000 C   0  0  0  0  0  0  0  0  0  0  0  0
    3.8516   -6.7100    0.0000 O   0  0  0  0  0  0  0  0  0  0  0  0
    5.2805   -6.7100    0.0000 O   0  0  0  0  0  0  0  0  0  0  0  0
    3.1371   -7.1225    0.0000 C   0  0  0  0  0  0  0  0  0  0  0  0
    4.8680   -9.8995    0.0000 C   0  0  0  0  0  0  0  0  0  0  0  0
    4.4555   -9.1850    0.0000 C   0  0  0  0  0  0  0  0  0  0  0  0
    4.0430   -9.8995    0.0000 C   0  0  0  0  0  0  0  0  0  0  0  0
  1  2  1  0  0  0  0
  2  3  1  0  0  0  0
  3  4  1  0  0  0  0
  4  5  1  0  0  0  0
  5  6  1  0  0  0  0
  6  1  1  0  0  0  0
  4  7  1  0  0  0  0
  7  8  1  0  0  0  0
  8  9  1  0  0  0  0
  9  5  2  0  0  0  0
  8 10  2  0  0  0  0
  9 11  1  0  0  0  0
  1 12  1  0  0  0  0
 12 13  2  0  0  0  0
 12 14  1  0  0  0  0
 14 15  1  0  0  0  0
 14 16  2  0  0  0  0
 15 17  1  0  0  0  0
  2 18  1  0  0  0  0
  2 19  1  0  0  0  0
 19 20  2  0  0  0  0
M  END
>  <cdx:fragmentId>
893

$$$$
