90321.cdx
  Mrv1902 05222410202D          

 21 24  0  0  0  0            999 V2000
    5.4431   -6.3376    0.0000 C   0  0  0  0  0  0  0  0  0  0  0  0
    5.4431   -7.1626    0.0000 C   0  0  0  0  0  0  0  0  0  0  0  0
    6.1575   -7.5751    0.0000 C   0  0  0  0  0  0  0  0  0  0  0  0
    6.8720   -7.1626    0.0000 C   0  0  0  0  0  0  0  0  0  0  0  0
    6.8720   -6.3376    0.0000 C   0  0  0  0  0  0  0  0  0  0  0  0
    6.1575   -5.9251    0.0000 C   0  0  0  0  0  0  0  0  0  0  0  0
    7.6566   -7.4176    0.0000 C   0  0  0  0  0  0  0  0  0  0  0  0
    8.1415   -6.7501    0.0000 C   0  0  0  0  0  0  0  0  0  0  0  0
    7.6566   -6.0827    0.0000 C   0  0  0  0  0  0  0  0  0  0  0  0
    6.3871   -7.8301    0.0000 C   0  0  0  0  0  0  0  0  0  0  0  0
    6.8720   -8.4975    0.0000 C   0  0  0  0  0  0  0  0  0  0  0  0
    7.6566   -8.2426    0.0000 C   0  0  0  0  0  0  0  0  0  0  0  0
    6.7005   -9.3045    0.0000 C   0  0  0  0  0  0  0  0  0  0  0  0
    7.3136   -9.8565    0.0000 N   0  0  0  0  0  0  0  0  0  0  0  0
    8.0982   -9.6016    0.0000 C   0  0  0  0  0  0  0  0  0  0  0  0
    8.2697   -8.7946    0.0000 C   0  0  0  0  0  0  0  0  0  0  0  0
    4.7286   -5.9251    0.0000 C   0  0  0  0  0  0  0  0  0  0  0  0
    5.4431   -7.9876    0.0000 H   0  0  0  0  0  0  0  0  0  0  0  0
    6.1575   -8.4001    0.0000 O   0  0  0  0  0  0  0  0  0  0  0  0
    8.8560   -6.3376    0.0000 O   0  0  0  0  0  0  0  0  0  0  0  0
    8.8560   -7.1626    0.0000 H   0  0  0  0  0  0  0  0  0  0  0  0
  1  2  2  0  0  0  0
  2  3  1  0  0  0  0
  3  4  1  0  0  0  0
  4  5  1  0  0  0  0
  5  6  1  0  0  0  0
  6  1  1  0  0  0  0
  4  7  1  0  0  0  0
  7  8  1  0  0  0  0
  8  9  1  0  0  0  0
  9  5  1  0  0  0  0
  4 10  1  0  0  0  0
 10 11  1  0  0  0  0
 11 12  1  0  0  0  0
 12  7  1  0  0  0  0
 11 13  1  0  0  0  0
 13 14  1  0  0  0  0
 14 15  1  0  0  0  0
 15 16  1  0  0  0  0
 16 12  1  0  0  0  0
  1 17  1  0  0  0  0
  3 18  1  0  0  0  0
  3 19  1  0  0  0  0
  8 20  1  0  0  0  0
  8 21  1  0  0  0  0
M  END
>  <cdx:fragmentId>
5

$$$$
