90329.cdx
  Mrv1902 05222410232D          

 13 15  0  0  0  0            999 V2000
    6.6760   -7.7814    0.0000 C   0  0  0  0  0  0  0  0  0  0  0  0
    6.6760   -8.6064    0.0000 C   0  0  0  0  0  0  0  0  0  0  0  0
    7.3210   -9.1208    0.0000 C   0  0  0  0  0  0  0  0  0  0  0  0
    8.1253   -8.9372    0.0000 C   0  0  0  0  0  0  0  0  0  0  0  0
    8.4832   -8.1939    0.0000 C   0  0  0  0  0  0  0  0  0  0  0  0
    8.1253   -7.4506    0.0000 C   0  0  0  0  0  0  0  0  0  0  0  0
    7.3210   -7.2670    0.0000 C   0  0  0  0  0  0  0  0  0  0  0  0
    6.6760   -9.4314    0.0000 C   0  0  0  0  0  0  0  0  0  0  0  0
    7.7128   -9.6517    0.0000 C   0  0  0  0  0  0  0  0  0  0  0  0
    8.0484  -10.4053    0.0000 C   0  0  0  0  0  0  0  0  0  0  0  0
    7.6797   -7.7264    0.0000 C   0  0  0  0  0  0  0  0  0  0  0  0
    8.0922   -7.0119    0.0000 O   0  0  0  0  0  0  0  0  0  0  0  0
    7.6797   -8.5514    0.0000 C   0  0  0  0  0  0  0  0  0  0  0  0
  1  2  1  0  0  0  0
  2  3  1  0  0  0  0
  3  4  1  0  0  0  0
  4  5  1  0  0  0  0
  5  6  1  0  0  0  0
  6  7  1  0  0  0  0
  7  1  1  0  0  0  0
  2  8  1  0  0  0  0
  4  9  1  0  0  0  0
  8  9  2  0  0  0  0
  9 10  1  0  0  0  0
  1 11  1  0  0  0  0
 11  5  1  0  0  0  0
 11 12  1  0  0  0  0
 11 13  1  0  0  0  0
M  END
>  <cdx:fragmentId>
5

$$$$
