90327.cdx
  Mrv1902 05222410222D          

 17 18  0  0  0  0            999 V2000
    5.9106   -5.4851    0.0000 C   0  0  0  0  0  0  0  0  0  0  0  0
    5.9106   -6.3101    0.0000 C   0  0  0  0  0  0  0  0  0  0  0  0
    6.6250   -6.7226    0.0000 C   0  0  0  0  0  0  0  0  0  0  0  0
    7.3395   -6.3101    0.0000 C   0  0  0  0  0  0  0  0  0  0  0  0
    7.3395   -5.4851    0.0000 C   0  0  0  0  0  0  0  0  0  0  0  0
    6.6250   -5.0726    0.0000 C   0  0  0  0  0  0  0  0  0  0  0  0
    6.6250   -7.5476    0.0000 C   0  0  0  0  0  0  0  0  0  0  0  0
    7.3395   -7.9601    0.0000 C   0  0  0  0  0  0  0  0  0  0  0  0
    7.3395   -8.7851    0.0000 C   0  0  0  0  0  0  0  0  0  0  0  0
    8.0540   -9.1976    0.0000 C   0  0  0  0  0  0  0  0  0  0  0  0
    8.7684   -8.7851    0.0000 C   0  0  0  0  0  0  0  0  0  0  0  0
    8.7684   -7.9601    0.0000 C   0  0  0  0  0  0  0  0  0  0  0  0
    8.0540   -7.5476    0.0000 C   0  0  0  0  0  0  0  0  0  0  0  0
    5.8000   -7.5476    0.0000 C   0  0  0  0  0  0  0  0  0  0  0  0
    6.2125   -8.2621    0.0000 C   0  0  0  0  0  0  0  0  0  0  0  0
    4.9750   -7.5476    0.0000 N   0  0  0  0  0  0  0  0  0  0  0  0
    5.8000   -8.9766    0.0000 N   0  0  0  0  0  0  0  0  0  0  0  0
  1  2  1  0  0  0  0
  2  3  1  0  0  0  0
  3  4  1  0  0  0  0
  4  5  1  0  0  0  0
  5  6  1  0  0  0  0
  6  1  1  0  0  0  0
  3  7  1  0  0  0  0
  7  8  1  0  0  0  0
  8  9  1  0  0  0  0
  9 10  1  0  0  0  0
 10 11  1  0  0  0  0
 11 12  1  0  0  0  0
 12 13  1  0  0  0  0
 13  8  1  0  0  0  0
  7 14  1  0  0  0  0
  7 15  1  0  0  0  0
 14 16  3  0  0  0  0
 15 17  3  0  0  0  0
M  END
>  <cdx:fragmentId>
5

$$$$
