90326.cdx
  Mrv1902 05222410222D          

 64 69  0  0  0  0            999 V2000
    5.8556   -6.3514    0.0000 C   0  0  0  0  0  0  0  0  0  0  0  0
    5.8556   -7.1764    0.0000 C   0  0  0  0  0  0  0  0  0  0  0  0
    6.5700   -7.5889    0.0000 C   0  0  0  0  0  0  0  0  0  0  0  0
    7.2845   -7.1764    0.0000 C   0  0  0  0  0  0  0  0  0  0  0  0
    7.2845   -6.3514    0.0000 C   0  0  0  0  0  0  0  0  0  0  0  0
    6.5700   -5.9389    0.0000 C   0  0  0  0  0  0  0  0  0  0  0  0
    7.9990   -7.5889    0.0000 C   0  0  0  0  0  0  0  0  0  0  0  0
    8.7134   -7.1764    0.0000 C   0  0  0  0  0  0  0  0  0  0  0  0
    8.7134   -6.3514    0.0000 C   0  0  0  0  0  0  0  0  0  0  0  0
    7.9990   -5.9389    0.0000 O   0  0  0  0  0  0  0  0  0  0  0  0
    6.5700   -8.4139    0.0000 O   0  0  0  0  0  0  0  0  0  0  0  0
    7.9990   -8.4139    0.0000 O   0  0  0  0  0  0  0  0  0  0  0  0
    9.4279   -7.5889    0.0000 O   0  0  0  0  0  0  0  0  0  0  0  0
   10.1424   -6.3514    0.0000 C   0  0  0  0  0  0  0  0  0  0  0  0
    9.4279   -5.9389    0.0000 C   0  0  0  0  0  0  0  0  0  0  0  0
   10.8569   -5.9389    0.0000 C   0  0  0  0  0  0  0  0  0  0  0  0
   10.8569   -5.1139    0.0000 C   0  0  0  0  0  0  0  0  0  0  0  0
   10.1424   -4.7014    0.0000 C   0  0  0  0  0  0  0  0  0  0  0  0
    9.4279   -5.1139    0.0000 C   0  0  0  0  0  0  0  0  0  0  0  0
    6.5700   -5.1139    0.0000 C   0  0  0  0  0  0  0  0  0  0  0  0
    5.8556   -4.7014    0.0000 C   0  0  0  0  0  0  0  0  0  0  0  0
    5.1411   -5.9389    0.0000 O   0  0  0  0  0  0  0  0  0  0  0  0
    5.8556   -3.8764    0.0000 C   0  0  0  0  0  0  0  0  0  0  0  0
    5.1411   -3.4639    0.0000 C   0  0  0  0  0  0  0  0  0  0  0  0
    6.5700   -3.4639    0.0000 C   0  0  0  0  0  0  0  0  0  0  0  0
   11.5713   -4.7014    0.0000 O   0  0  0  0  0  0  0  0  0  0  0  0
    9.4279   -8.4139    0.0000 C   0  0  2  0  0  0  0  0  0  0  0  0
    8.7134   -8.8264    0.0000 O   0  0  0  0  0  0  0  0  0  0  0  0
    8.7134   -9.6514    0.0000 C   0  0  2  0  0  0  0  0  0  0  0  0
    9.4279  -10.0639    0.0000 C   0  0  1  0  0  0  0  0  0  0  0  0
   10.1424   -9.6514    0.0000 C   0  0  2  0  0  0  0  0  0  0  0  0
   10.1424   -8.8264    0.0000 C   0  0  1  0  0  0  0  0  0  0  0  0
    9.4279  -10.8889    0.0000 O   0  0  0  0  0  0  0  0  0  0  0  0
    7.9990  -10.0639    0.0000 C   0  0  0  0  0  0  0  0  0  0  0  0
   10.8569  -10.0639    0.0000 O   0  0  0  0  0  0  0  0  0  0  0  0
   10.8569   -8.4139    0.0000 O   0  0  0  0  0  0  0  0  0  0  0  0
    4.4266   -6.3514    0.0000 C   0  0  2  0  0  0  0  0  0  0  0  0
    3.7121   -5.9389    0.0000 O   0  0  0  0  0  0  0  0  0  0  0  0
    2.9977   -6.3514    0.0000 C   0  0  1  0  0  0  0  0  0  0  0  0
    2.9977   -7.1764    0.0000 C   0  0  2  0  0  0  0  0  0  0  0  0
    3.7121   -7.5889    0.0000 C   0  0  1  0  0  0  0  0  0  0  0  0
    4.4266   -7.1764    0.0000 C   0  0  1  0  0  0  0  0  0  0  0  0
    2.2832   -5.9389    0.0000 C   0  0  0  0  0  0  0  0  0  0  0  0
    3.7121   -8.4139    0.0000 O   0  0  0  0  0  0  0  0  0  0  0  0
    5.1411   -7.5889    0.0000 O   0  0  0  0  0  0  0  0  0  0  0  0
    2.2832   -7.5889    0.0000 O   0  0  0  0  0  0  0  0  0  0  0  0
    1.5687   -6.3514    0.0000 O   0  0  0  0  0  0  0  0  0  0  0  0
   10.8542  -10.8889    0.0000 C   0  0  2  0  0  0  0  0  0  0  0  0
   10.1384  -11.2991    0.0000 O   0  0  0  0  0  0  0  0  0  0  0  0
   10.1358  -12.1241    0.0000 C   0  0  1  0  0  0  0  0  0  0  0  0
   10.8490  -12.5389    0.0000 C   0  0  2  0  0  0  0  0  0  0  0  0
   11.5647  -12.1287    0.0000 C   0  0  1  0  0  0  0  0  0  0  0  0
   11.5674  -11.3037    0.0000 C   0  0  1  0  0  0  0  0  0  0  0  0
    9.4200  -12.5343    0.0000 C   0  0  0  0  0  0  0  0  0  0  0  0
   12.2779  -12.5434    0.0000 O   0  0  0  0  0  0  0  0  0  0  0  0
   10.8463  -13.3639    0.0000 O   0  0  0  0  0  0  0  0  0  0  0  0
    9.4174  -13.3593    0.0000 O   0  0  0  0  0  0  0  0  0  0  0  0
   12.2832  -10.8935    0.0000 O   0  0  0  0  0  0  0  0  0  0  0  0
    8.7134  -12.1264    0.0000 C   0  0  0  0  0  0  0  0  0  0  0  0
    7.9990  -10.8889    0.0000 O   0  0  0  0  0  0  0  0  0  0  0  0
    8.7134  -11.3014    0.0000 C   0  0  0  0  0  0  0  0  0  0  0  0
    8.6990  -14.5945    0.0000 C   0  0  0  0  0  0  0  0  0  0  0  0
    7.9885  -13.3548    0.0000 O   0  0  0  0  0  0  0  0  0  0  0  0
    8.7016  -13.7695    0.0000 C   0  0  0  0  0  0  0  0  0  0  0  0
  1  2  1  0  0  0  0
  2  3  2  0  0  0  0
  3  4  1  0  0  0  0
  4  5  2  0  0  0  0
  5  6  1  0  0  0  0
  6  1  2  0  0  0  0
  4  7  1  0  0  0  0
  7  8  1  0  0  0  0
  8  9  2  0  0  0  0
  9 10  1  0  0  0  0
 10  5  1  0  0  0  0
  3 11  1  0  0  0  0
 12  7  2  0  0  0  0
  8 13  1  0  0  0  0
 14 15  1  0  0  0  0
 15  9  1  0  0  0  0
 14 16  2  0  0  0  0
 16 17  1  0  0  0  0
 17 18  2  0  0  0  0
 18 19  1  0  0  0  0
 19 15  2  0  0  0  0
  6 20  1  0  0  0  0
 20 21  1  0  0  0  0
 22  1  1  0  0  0  0
 21 23  2  0  0  0  0
 23 24  1  0  0  0  0
 23 25  1  0  0  0  0
 17 26  1  0  0  0  0
 27 13  1  1  0  0  0
 27 28  1  0  0  0  0
 28 29  1  0  0  0  0
 29 30  1  0  0  0  0
 30 31  1  0  0  0  0
 31 32  1  0  0  0  0
 32 27  1  0  0  0  0
 30 33  1  1  0  0  0
 29 34  1  6  0  0  0
 31 35  1  6  0  0  0
 32 36  1  6  0  0  0
 37 22  1  1  0  0  0
 37 38  1  0  0  0  0
 38 39  1  0  0  0  0
 39 40  1  0  0  0  0
 40 41  1  0  0  0  0
 41 42  1  0  0  0  0
 42 37  1  0  0  0  0
 39 43  1  1  0  0  0
 41 44  1  1  0  0  0
 42 45  1  6  0  0  0
 40 46  1  6  0  0  0
 43 47  1  0  0  0  0
 48 35  1  1  0  0  0
 48 49  1  0  0  0  0
 49 50  1  0  0  0  0
 50 51  1  0  0  0  0
 51 52  1  0  0  0  0
 52 53  1  0  0  0  0
 53 48  1  0  0  0  0
 50 54  1  1  0  0  0
 52 55  1  1  0  0  0
 51 56  1  6  0  0  0
 54 57  1  0  0  0  0
 53 58  1  6  0  0  0
 61 59  1  0  0  0  0
 33 61  1  0  0  0  0
 61 60  2  0  0  0  0
 64 62  1  0  0  0  0
 57 64  1  0  0  0  0
 64 63  2  0  0  0  0
M  END
>  <cdx:fragmentId>
5

$$$$
