90330.cdx
  Mrv1902 05222410222D          

 22 25  0  0  0  0            999 V2000
    3.9443  -10.0226    0.0000 C   0  0  0  0  0  0  0  0  0  0  0  0
    3.9443  -10.8476    0.0000 C   0  0  0  0  0  0  0  0  0  0  0  0
    4.6588  -11.2601    0.0000 C   0  0  0  0  0  0  0  0  0  0  0  0
    5.3732  -10.8476    0.0000 C   0  0  0  0  0  0  0  0  0  0  0  0
    5.3732  -10.0226    0.0000 C   0  0  0  0  0  0  0  0  0  0  0  0
    4.6588   -9.6101    0.0000 C   0  0  0  0  0  0  0  0  0  0  0  0
    6.1579  -11.1026    0.0000 S   0  0  0  0  0  0  0  0  0  0  0  0
    6.6428  -10.4351    0.0000 C   0  0  0  0  0  0  0  0  0  0  0  0
    6.1579   -9.7677    0.0000 C   0  0  0  0  0  0  0  0  0  0  0  0
    7.4678  -10.4351    0.0000 N   0  0  0  0  0  0  0  0  0  0  0  0
    6.4128   -8.9831    0.0000 C   0  0  0  0  0  0  0  0  0  0  0  0
    7.1974   -8.7282    0.0000 N   0  0  0  0  0  0  0  0  0  0  0  0
    7.1974   -7.9032    0.0000 C   0  0  0  0  0  0  0  0  0  0  0  0
    6.4128   -7.6482    0.0000 C   0  0  0  0  0  0  0  0  0  0  0  0
    5.9279   -8.3157    0.0000 S   0  0  0  0  0  0  0  0  0  0  0  0
    7.8649   -7.4182    0.0000 C   0  0  0  0  0  0  0  0  0  0  0  0
    8.6185   -7.7538    0.0000 C   0  0  0  0  0  0  0  0  0  0  0  0
    9.2860   -7.2689    0.0000 C   0  0  0  0  0  0  0  0  0  0  0  0
    9.1997   -6.4484    0.0000 C   0  0  0  0  0  0  0  0  0  0  0  0
    8.4461   -6.1128    0.0000 C   0  0  0  0  0  0  0  0  0  0  0  0
    7.7786   -6.5977    0.0000 C   0  0  0  0  0  0  0  0  0  0  0  0
    9.8672   -5.9635    0.0000 C   0  0  0  0  0  0  0  0  0  0  0  0
  1  2  1  0  0  0  0
  2  3  1  0  0  0  0
  3  4  1  0  0  0  0
  4  5  2  0  0  0  0
  5  6  1  0  0  0  0
  6  1  1  0  0  0  0
  4  7  1  0  0  0  0
  7  8  1  0  0  0  0
  8  9  2  0  0  0  0
  9  5  1  0  0  0  0
  8 10  1  0  0  0  0
  9 11  1  0  0  0  0
 11 12  2  0  0  0  0
 12 13  1  0  0  0  0
 13 14  2  0  0  0  0
 14 15  1  0  0  0  0
 15 11  1  0  0  0  0
 13 16  1  0  0  0  0
 16 17  2  0  0  0  0
 17 18  1  0  0  0  0
 18 19  2  0  0  0  0
 19 20  1  0  0  0  0
 20 21  2  0  0  0  0
 21 16  1  0  0  0  0
 19 22  1  0  0  0  0
M  END
>  <cdx:fragmentId>
5

$$$$
