90335.cdx
  Mrv1902 05222410202D          

 44 43  0  0  0  0            999 V2000
    5.0879   -8.2725    0.0000 C   0  0  0  0  0  0  0  0  0  0  0  0
    4.6306   -8.0085    0.0000 C   0  0  0  0  0  0  0  0  0  0  0  0
    4.1734   -8.2725    0.0000 C   0  0  0  0  0  0  0  0  0  0  0  0
    3.7161   -8.0085    0.0000 C   0  0  0  0  0  0  0  0  0  0  0  0
    3.2589   -8.2725    0.0000 C   0  0  0  0  0  0  0  0  0  0  0  0
    2.8016   -8.0085    0.0000 C   0  0  0  0  0  0  0  0  0  0  0  0
    2.3443   -8.2725    0.0000 C   0  0  0  0  0  0  0  0  0  0  0  0
    1.8871   -8.0085    0.0000 C   0  0  0  0  0  0  0  0  0  0  0  0
    1.4298   -8.2725    0.0000 C   0  0  0  0  0  0  0  0  0  0  0  0
    0.9725   -8.0085    0.0000 C   0  0  0  0  0  0  0  0  0  0  0  0
    0.5153   -8.2725    0.0000 C   0  0  0  0  0  0  0  0  0  0  0  0
    0.0580   -8.0085    0.0000 C   0  0  0  0  0  0  0  0  0  0  0  0
    5.9861   -7.7517    0.0000 C   0  0  0  0  0  0  0  0  0  0  0  0
    6.4434   -8.0157    0.0000 C   0  0  0  0  0  0  0  0  0  0  0  0
    6.9007   -7.7517    0.0000 C   0  0  0  0  0  0  0  0  0  0  0  0
    7.3579   -8.0157    0.0000 C   0  0  0  0  0  0  0  0  0  0  0  0
    7.8152   -7.7517    0.0000 C   0  0  0  0  0  0  0  0  0  0  0  0
    8.2724   -8.0157    0.0000 C   0  0  0  0  0  0  0  0  0  0  0  0
    8.7297   -7.7517    0.0000 C   0  0  0  0  0  0  0  0  0  0  0  0
    9.1870   -8.0157    0.0000 C   0  0  0  0  0  0  0  0  0  0  0  0
    9.6442   -7.7517    0.0000 C   0  0  0  0  0  0  0  0  0  0  0  0
   10.1015   -8.0157    0.0000 C   0  0  0  0  0  0  0  0  0  0  0  0
   10.5588   -7.7517    0.0000 C   0  0  0  0  0  0  0  0  0  0  0  0
   11.0160   -8.0157    0.0000 C   0  0  0  0  0  0  0  0  0  0  0  0
   11.4733   -7.7517    0.0000 C   0  0  0  0  0  0  0  0  0  0  0  0
   11.9305   -8.0157    0.0000 C   0  0  0  0  0  0  0  0  0  0  0  0
   12.3878   -7.7517    0.0000 C   0  0  0  0  0  0  0  0  0  0  0  0
   12.8451   -8.0157    0.0000 C   0  0  0  0  0  0  0  0  0  0  0  0
   13.3023   -7.7517    0.0000 C   0  0  0  0  0  0  0  0  0  0  0  0
   13.7596   -8.0157    0.0000 C   0  0  0  0  0  0  0  0  0  0  0  0
   14.2168   -7.7517    0.0000 C   0  0  0  0  0  0  0  0  0  0  0  0
    5.8083   -9.3980    0.0000 O   0  0  0  0  0  0  0  0  0  0  0  0
    5.5487   -8.9383    0.0000 C   0  0  0  0  0  0  0  0  0  0  0  0
    5.8171   -8.4835    0.0000 C   0  0  0  0  0  0  0  0  0  0  0  0
    5.5575   -8.0238    0.0000 C   0  0  0  0  0  0  0  0  0  0  0  0
    5.4059   -3.8958    0.0000 C   0  0  0  0  0  0  0  0  0  0  0  0
    5.6564   -4.3607    0.0000 C   0  0  0  0  0  0  0  0  0  0  0  0
    5.3790   -4.8100    0.0000 C   0  0  0  0  0  0  0  0  0  0  0  0
    5.6294   -5.2748    0.0000 C   0  0  0  0  0  0  0  0  0  0  0  0
    5.3521   -5.7241    0.0000 C   0  0  0  0  0  0  0  0  0  0  0  0
    5.6025   -6.1889    0.0000 C   0  0  0  0  0  0  0  0  0  0  0  0
    5.3252   -6.6382    0.0000 C   0  0  0  0  0  0  0  0  0  0  0  0
    5.5756   -7.1030    0.0000 C   0  0  0  0  0  0  0  0  0  0  0  0
    5.2982   -7.5523    0.0000 C   0  0  0  0  0  0  0  0  0  0  0  0
  2  1  1  0  0  0  0
  3  2  1  0  0  0  0
  4  3  1  0  0  0  0
  5  4  1  0  0  0  0
  6  5  1  0  0  0  0
  7  6  1  0  0  0  0
  8  7  1  0  0  0  0
  9  8  1  0  0  0  0
 10  9  1  0  0  0  0
 11 10  1  0  0  0  0
 12 11  1  0  0  0  0
 13 14  1  0  0  0  0
 14 15  1  0  0  0  0
 15 16  1  0  0  0  0
 16 17  1  0  0  0  0
 17 18  1  0  0  0  0
 18 19  1  0  0  0  0
 19 20  1  0  0  0  0
 20 21  1  0  0  0  0
 21 22  1  0  0  0  0
 22 23  1  0  0  0  0
 23 24  1  0  0  0  0
 24 25  1  0  0  0  0
 25 26  1  0  0  0  0
 26 27  1  0  0  0  0
 27 28  1  0  0  0  0
 28 29  1  0  0  0  0
 29 30  1  0  0  0  0
 30 31  1  0  0  0  0
 32 33  1  0  0  0  0
 33 34  1  0  0  0  0
 34 35  1  0  0  0  0
 36 37  1  0  0  0  0
 37 38  1  0  0  0  0
 38 39  1  0  0  0  0
 39 40  1  0  0  0  0
 40 41  1  0  0  0  0
 41 42  1  0  0  0  0
 42 43  1  0  0  0  0
 43 44  1  0  0  0  0
 44 35  1  0  0  0  0
  1 35  1  0  0  0  0
 35 13  1  0  0  0  0
M  END
>  <cdx:fragmentId>
108

$$$$
