90331.cdx
  Mrv1902 05222410232D          

 18 18  0  0  0  0            999 V2000
    4.6538   -6.3621    0.0000 C   0  0  0  0  0  0  0  0  0  0  0  0
    4.6611   -7.1871    0.0000 O   0  0  0  0  0  0  0  0  0  0  0  0
    5.3792   -7.5932    0.0000 C   0  0  0  0  0  0  0  0  0  0  0  0
    6.0900   -7.1744    0.0000 C   0  0  0  0  0  0  0  0  0  0  0  0
    5.3866   -8.4182    0.0000 C   0  0  0  0  0  0  0  0  0  0  0  0
    6.1047   -8.8243    0.0000 C   0  0  0  0  0  0  0  0  0  0  0  0
    6.8155   -8.4054    0.0000 C   0  0  0  0  0  0  0  0  0  0  0  0
    6.8081   -7.5805    0.0000 C   0  0  0  0  0  0  0  0  0  0  0  0
    4.6758   -8.8370    0.0000 O   0  0  0  0  0  0  0  0  0  0  0  0
    4.6832   -9.6620    0.0000 C   0  0  0  0  0  0  0  0  0  0  0  0
    5.4013  -10.0681    0.0000 O   0  0  0  0  0  0  0  0  0  0  0  0
    8.2370   -7.5677    0.0000 C   0  0  0  0  0  0  0  0  0  0  0  0
    7.5189   -7.1616    0.0000 C   0  0  0  0  0  0  0  0  0  0  0  0
    8.9478   -7.1489    0.0000 C   0  0  0  0  0  0  0  0  0  0  0  0
    8.9404   -6.3239    0.0000 O   0  0  0  0  0  0  0  0  0  0  0  0
    9.6659   -7.5550    0.0000 O   0  0  0  0  0  0  0  0  0  0  0  0
   10.3767   -7.1361    0.0000 C   0  0  0  0  0  0  0  0  0  0  0  0
    3.9724  -10.0809    0.0000 C   0  0  0  0  0  0  0  0  0  0  0  0
  1  2  1  0  0  0  0
  2  3  1  0  0  0  0
  3  4  1  0  0  0  0
  3  5  2  0  0  0  0
  5  6  1  0  0  0  0
  6  7  2  0  0  0  0
  7  8  1  0  0  0  0
  8  4  2  0  0  0  0
  5  9  1  0  0  0  0
  9 10  1  0  0  0  0
 10 11  2  0  0  0  0
 12 13  2  0  0  0  0
 13  8  1  0  0  0  0
 12 14  1  0  0  0  0
 14 15  2  0  0  0  0
 14 16  1  0  0  0  0
 16 17  1  0  0  0  0
 10 18  1  0  0  0  0
M  END
>  <cdx:fragmentId>
5

$$$$
