90334.cdx
  Mrv1902 05222410212D          

 18 19  0  0  0  0            999 V2000
    4.1781   -8.5376    0.0000 C   0  0  0  0  0  0  0  0  0  0  0  0
    4.1781   -9.3626    0.0000 C   0  0  0  0  0  0  0  0  0  0  0  0
    4.8925   -9.7751    0.0000 C   0  0  0  0  0  0  0  0  0  0  0  0
    5.6070   -9.3626    0.0000 C   0  0  0  0  0  0  0  0  0  0  0  0
    5.6070   -8.5376    0.0000 C   0  0  0  0  0  0  0  0  0  0  0  0
    4.8925   -8.1251    0.0000 C   0  0  0  0  0  0  0  0  0  0  0  0
    6.3215   -9.7751    0.0000 N   0  0  0  0  0  0  0  0  0  0  0  0
    7.0359   -9.3626    0.0000 C   0  0  0  0  0  0  0  0  0  0  0  0
    7.0359   -8.5376    0.0000 C   0  0  0  0  0  0  0  0  0  0  0  0
    6.3215   -8.1251    0.0000 C   0  0  0  0  0  0  0  0  0  0  0  0
    7.7504   -9.7751    0.0000 O   0  0  0  0  0  0  0  0  0  0  0  0
    8.4649   -8.5376    0.0000 C   0  0  0  0  0  0  0  0  0  0  0  0
    7.7504   -8.1251    0.0000 C   0  0  0  0  0  0  0  0  0  0  0  0
    7.0359   -6.8876    0.0000 C   0  0  0  0  0  0  0  0  0  0  0  0
    6.3215   -7.3001    0.0000 O   0  0  0  0  0  0  0  0  0  0  0  0
    9.1794   -8.1251    0.0000 C   0  0  0  0  0  0  0  0  0  0  0  0
    9.1794   -7.3001    0.0000 C   0  0  0  0  0  0  0  0  0  0  0  0
    9.8938   -8.5376    0.0000 C   0  0  0  0  0  0  0  0  0  0  0  0
  1  2  2  0  0  0  0
  2  3  1  0  0  0  0
  3  4  2  0  0  0  0
  4  5  1  0  0  0  0
  5  6  2  0  0  0  0
  6  1  1  0  0  0  0
  4  7  1  0  0  0  0
  7  8  1  0  0  0  0
  8  9  1  0  0  0  0
  9 10  2  0  0  0  0
 10  5  1  0  0  0  0
  8 11  2  0  0  0  0
 12 13  1  0  0  0  0
 13  9  1  0  0  0  0
 14 15  1  0  0  0  0
 15 10  1  0  0  0  0
 12 16  2  0  0  0  0
 16 17  1  0  0  0  0
 16 18  1  0  0  0  0
M  END
>  <cdx:fragmentId>
5

$$$$
