90338.cdx
  Mrv1902 05222410252D          

  9  8  0  0  0  0            999 V2000
    9.9076   -9.4039    0.0000 C   0  0  0  0  0  0  0  0  0  0  0  0
    9.1931   -8.9914    0.0000 C   0  0  0  0  0  0  0  0  0  0  0  0
    8.4786   -9.4039    0.0000 C   0  0  0  0  0  0  0  0  0  0  0  0
    7.7642   -8.9914    0.0000 O   0  0  0  0  0  0  0  0  0  0  0  0
    7.0497   -9.4039    0.0000 S   0  0  0  0  0  0  0  0  0  0  0  0
    6.3352   -8.9914    0.0000 C   0  0  0  0  0  0  0  0  0  0  0  0
    5.6207   -9.4039    0.0000 C   0  0  0  0  0  0  0  0  0  0  0  0
    4.9063   -8.9914    0.0000 C   0  0  0  0  0  0  0  0  0  0  0  0
    7.0497  -10.2289    0.0000 S   0  0  0  0  0  0  0  0  0  0  0  0
  2  1  2  0  0  0  0
  3  2  1  0  0  0  0
  4  3  1  0  0  0  0
  5  4  1  0  0  0  0
  6  5  1  0  0  0  0
  7  6  1  0  0  0  0
  8  7  2  0  0  0  0
  5  9  2  0  0  0  0
M  END
>  <cdx:fragmentId>
3

$$$$
