90336.cdx
  Mrv1902 05222410212D          

 17 19  0  0  0  0            999 V2000
    6.0710   -8.7851    0.0000 C   0  0  1  0  0  0  0  0  0  0  0  0
    6.0710   -9.6101    0.0000 C   0  0  2  0  0  0  0  0  0  0  0  0
    6.7160  -10.1245    0.0000 C   0  0  0  0  0  0  0  0  0  0  0  0
    7.5203   -9.9409    0.0000 C   0  0  0  0  0  0  0  0  0  0  0  0
    7.8782   -9.1976    0.0000 C   0  0  0  0  0  0  0  0  0  0  0  0
    7.5203   -8.4544    0.0000 C   0  0  0  0  0  0  0  0  0  0  0  0
    6.7160   -8.2708    0.0000 C   0  0  0  0  0  0  0  0  0  0  0  0
    5.2863   -8.5302    0.0000 C   0  0  0  0  0  0  0  0  0  0  0  0
    4.8014   -9.1976    0.0000 C   0  0  0  0  0  0  0  0  0  0  0  0
    5.2863   -9.8651    0.0000 C   0  0  1  0  0  0  0  0  0  0  0  0
    6.5324   -7.4665    0.0000 C   0  0  0  0  0  0  0  0  0  0  0  0
    7.2771  -10.7293    0.0000 C   0  0  0  0  0  0  0  0  0  0  0  0
    6.6937  -11.3127    0.0000 C   0  0  0  0  0  0  0  0  0  0  0  0
    8.0740  -10.9428    0.0000 C   0  0  0  0  0  0  0  0  0  0  0  0
    5.0314  -10.6497    0.0000 C   0  0  0  0  0  0  0  0  0  0  0  0
    5.8574   -7.9883    0.0000 H   0  0  0  0  0  0  0  0  0  0  0  0
    5.8574  -10.4070    0.0000 H   0  0  0  0  0  0  0  0  0  0  0  0
  1  2  1  0  0  0  0
  2  3  1  0  0  0  0
  3  4  1  0  0  0  0
  4  5  1  0  0  0  0
  5  6  1  0  0  0  0
  6  7  1  0  0  0  0
  7  1  1  0  0  0  0
  1  8  1  0  0  0  0
  8  9  1  0  0  0  0
  9 10  1  0  0  0  0
 10  2  1  0  0  0  0
  7 11  2  0  0  0  0
  3 12  1  0  0  0  0
 12  4  1  0  0  0  0
 12 13  1  0  0  0  0
 12 14  1  0  0  0  0
 10 15  1  6  0  0  0
  1 16  1  1  0  0  0
  2 17  1  1  0  0  0
M  END
>  <cdx:fragmentId>
5

$$$$
