90332.cdx
  Mrv1902 05222410222D          

 21 22  0  0  0  0            999 V2000
    4.6593   -6.8464    0.0000 C   0  0  0  0  0  0  0  0  0  0  0  0
    4.6593   -7.6714    0.0000 C   0  0  0  0  0  0  0  0  0  0  0  0
    5.3738   -8.0839    0.0000 C   0  0  0  0  0  0  0  0  0  0  0  0
    6.0882   -7.6714    0.0000 C   0  0  0  0  0  0  0  0  0  0  0  0
    6.0882   -6.8464    0.0000 C   0  0  0  0  0  0  0  0  0  0  0  0
    5.3738   -6.4339    0.0000 C   0  0  0  0  0  0  0  0  0  0  0  0
    6.8027   -8.0839    0.0000 C   0  0  0  0  0  0  0  0  0  0  0  0
    7.5172   -7.6714    0.0000 C   0  0  0  0  0  0  0  0  0  0  0  0
    7.5172   -6.8464    0.0000 C   0  0  0  0  0  0  0  0  0  0  0  0
    6.8027   -6.4339    0.0000 O   0  0  0  0  0  0  0  0  0  0  0  0
    5.3738   -8.9089    0.0000 C   0  0  0  0  0  0  0  0  0  0  0  0
    6.8027   -8.9089    0.0000 O   0  0  0  0  0  0  0  0  0  0  0  0
    3.9448   -6.4339    0.0000 O   0  0  0  0  0  0  0  0  0  0  0  0
    8.2317   -6.4339    0.0000 C   0  0  0  0  0  0  0  0  0  0  0  0
    8.2317   -8.0839    0.0000 C   0  0  0  0  0  0  0  0  0  0  0  0
    8.9461   -7.6714    0.0000 O   0  0  0  0  0  0  0  0  0  0  0  0
    9.6606   -8.0839    0.0000 C   0  0  0  0  0  0  0  0  0  0  0  0
    3.2304   -6.8464    0.0000 S   0  0  0  0  0  0  0  0  0  0  0  0
    3.6429   -7.5609    0.0000 O   0  0  0  0  0  0  0  0  0  0  0  0
    2.8179   -6.1319    0.0000 O   0  0  0  0  0  0  0  0  0  0  0  0
    2.5159   -7.2589    0.0000 O   0  0  0  0  0  0  0  0  0  0  0  0
  1  2  2  0  0  0  0
  2  3  1  0  0  0  0
  3  4  2  0  0  0  0
  4  5  1  0  0  0  0
  5  6  2  0  0  0  0
  6  1  1  0  0  0  0
  4  7  1  0  0  0  0
  7  8  1  0  0  0  0
  8  9  2  0  0  0  0
  9 10  1  0  0  0  0
 10  5  1  0  0  0  0
  3 11  1  0  0  0  0
 12  7  2  0  0  0  0
  1 13  1  0  0  0  0
  9 14  1  0  0  0  0
  8 15  1  0  0  0  0
 15 16  1  0  0  0  0
 16 17  1  0  0  0  0
 13 18  1  0  0  0  0
 18 19  2  0  0  0  0
 18 20  2  0  0  0  0
 18 21  1  0  0  0  0
M  STY  1   1 SUP
M  SAL   1  4  18  19  20  21
M  SBL   1  1  19
M  SMT   1 SO3H
M  SAP   1  1  18  13  1
M  END
>  <cdx:fragmentId>
5

$$$$
