90343.cdx
  Mrv1902 05222410182D          

  9 10  0  0  0  0            999 V2000
    6.8822   -7.3551    0.0000 C   0  0  0  0  0  0  0  0  0  0  0  0
    6.8822   -8.1801    0.0000 C   0  0  0  0  0  0  0  0  0  0  0  0
    7.5272   -8.6945    0.0000 C   0  0  0  0  0  0  0  0  0  0  0  0
    8.3315   -8.5109    0.0000 C   0  0  0  0  0  0  0  0  0  0  0  0
    8.6895   -7.7676    0.0000 C   0  0  0  0  0  0  0  0  0  0  0  0
    8.3315   -7.0244    0.0000 C   0  0  0  0  0  0  0  0  0  0  0  0
    7.5272   -6.8408    0.0000 C   0  0  0  0  0  0  0  0  0  0  0  0
    6.3678   -8.8252    0.0000 C   0  0  0  0  0  0  0  0  0  0  0  0
    7.0128   -9.3395    0.0000 C   0  0  0  0  0  0  0  0  0  0  0  0
  1  2  1  0  0  0  0
  2  3  1  0  0  0  0
  3  4  1  0  0  0  0
  4  5  1  0  0  0  0
  5  6  1  0  0  0  0
  6  7  1  0  0  0  0
  7  1  1  0  0  0  0
  2  8  1  0  0  0  0
  8  9  1  0  0  0  0
  9  3  1  0  0  0  0
M  END
>  <cdx:fragmentId>
5

$$$$
