90344.cdx
  Mrv1902 05222410192D          

 15 15  0  0  0  0            999 V2000
    5.6934   -7.6150    0.0000 C   0  0  0  0  0  0  0  0  0  0  0  0
    5.2775   -8.3275    0.0000 C   0  0  0  0  0  0  0  0  0  0  0  0
    5.6866   -9.0439    0.0000 C   0  0  0  0  0  0  0  0  0  0  0  0
    6.5184   -7.6189    0.0000 C   0  0  0  0  0  0  0  0  0  0  0  0
    5.2707   -9.7564    0.0000 C   0  0  0  0  0  0  0  0  0  0  0  0
    5.6866  -10.4728    0.0000 C   0  0  0  0  0  0  0  0  0  0  0  0
    6.5116  -10.4728    0.0000 C   0  0  0  0  0  0  0  0  0  0  0  0
    6.9241   -9.7583    0.0000 C   0  0  0  0  0  0  0  0  0  0  0  0
    7.1018   -7.0355    0.0000 C   0  0  0  0  0  0  0  0  0  0  0  0
    7.6386   -9.3458    0.0000 C   0  0  0  0  0  0  0  0  0  0  0  0
    7.7898   -8.4933    0.0000 C   0  0  0  0  0  0  0  0  0  0  0  0
    7.8163   -7.4480    0.0000 C   0  0  0  0  0  0  0  0  0  0  0  0
    7.4038   -8.1625    0.0000 C   0  0  0  0  0  0  0  0  0  0  0  0
    7.4251   -7.7240    0.0000 C   0  0  0  0  0  0  0  0  0  0  0  0
    7.8163   -6.6230    0.0000 C   0  0  0  0  0  0  0  0  0  0  0  0
  1  2  1  0  0  0  0
  2  3  1  0  0  0  0
  4  1  1  0  0  0  0
  3  5  1  0  0  0  0
  5  6  1  0  0  0  0
  6  7  1  0  0  0  0
  7  8  1  0  0  0  0
  4  9  1  0  0  0  0
  8 10  1  0  0  0  0
 10 11  1  0  0  0  0
  9 12  1  0  0  0  0
 12 13  1  0  0  0  0
 11 14  1  0  0  0  0
 12 15  1  0  0  0  0
 15  9  1  0  0  0  0
M  END
>  <cdx:fragmentId>
5

$$$$
