90341.cdx
  Mrv1902 05222410192D          

 12 13  0  0  0  0            999 V2000
    5.3366   -8.8774    0.0000 C   0  0  0  0  0  0  0  0  0  0  0  0
    6.1335   -8.6639    0.0000 C   0  0  0  0  0  0  0  0  0  0  0  0
    7.1091   -8.8636    0.0000 C   0  0  0  0  0  0  0  0  0  0  0  0
    5.1991   -8.1904    0.0000 C   0  0  0  0  0  0  0  0  0  0  0  0
    7.5216   -8.1492    0.0000 C   0  0  0  0  0  0  0  0  0  0  0  0
    6.5460   -7.9494    0.0000 C   0  0  0  0  0  0  0  0  0  0  0  0
    5.9410   -7.3714    0.0000 C   0  0  0  0  0  0  0  0  0  0  0  0
    6.5460   -7.1244    0.0000 C   0  0  0  0  0  0  0  0  0  0  0  0
    4.5173   -7.7259    0.0000 C   0  0  0  0  0  0  0  0  0  0  0  0
    4.9013   -9.5782    0.0000 C   0  0  0  0  0  0  0  0  0  0  0  0
    6.1581   -9.4885    0.0000 C   0  0  0  0  0  0  0  0  0  0  0  0
    7.4475   -9.6161    0.0000 C   0  0  0  0  0  0  0  0  0  0  0  0
  1  2  1  0  0  0  0
  2  3  1  0  0  0  0
  1  4  2  0  0  0  0
  3  5  2  0  0  0  0
  4  6  1  0  0  0  0
  6  5  1  0  0  0  0
  2  7  1  0  0  0  0
  6  8  1  0  0  0  0
  8  7  1  0  0  0  0
  4  9  1  0  0  0  0
  1 10  1  0  0  0  0
  2 11  1  0  0  0  0
  3 12  1  0  0  0  0
M  END
>  <cdx:fragmentId>
802

$$$$
