90349.cdx
  Mrv1902 05222410272D          

 17 18  0  0  0  0            999 V2000
    5.1268   -6.4751    0.0000 C   0  0  0  0  0  0  0  0  0  0  0  0
    5.1268   -7.3001    0.0000 C   0  0  0  0  0  0  0  0  0  0  0  0
    5.8413   -7.7126    0.0000 C   0  0  0  0  0  0  0  0  0  0  0  0
    6.5557   -7.3001    0.0000 C   0  0  0  0  0  0  0  0  0  0  0  0
    6.5557   -6.4751    0.0000 C   0  0  0  0  0  0  0  0  0  0  0  0
    5.8413   -6.0626    0.0000 C   0  0  0  0  0  0  0  0  0  0  0  0
    7.2702   -7.7126    0.0000 C   0  0  0  0  0  0  0  0  0  0  0  0
    7.9847   -7.3001    0.0000 C   0  0  0  0  0  0  0  0  0  0  0  0
    7.9847   -6.4751    0.0000 C   0  0  0  0  0  0  0  0  0  0  0  0
    7.2702   -6.0626    0.0000 C   0  0  0  0  0  0  0  0  0  0  0  0
    9.4136   -6.4751    0.0000 C   0  0  0  0  0  0  0  0  0  0  0  0
    8.6992   -6.0626    0.0000 C   0  0  0  0  0  0  0  0  0  0  0  0
   10.1281   -6.0626    0.0000 O   0  0  0  0  0  0  0  0  0  0  0  0
    8.6992   -5.2376    0.0000 C   0  0  0  0  0  0  0  0  0  0  0  0
    5.8413   -5.2376    0.0000 C   0  0  0  0  0  0  0  0  0  0  0  0
    4.4123   -7.7126    0.0000 O   0  0  0  0  0  0  0  0  0  0  0  0
    6.5557   -8.1251    0.0000 C   0  0  0  0  0  0  0  0  0  0  0  0
  1  2  1  0  0  0  0
  2  3  1  0  0  0  0
  3  4  1  0  0  0  0
  4  5  1  0  0  0  0
  5  6  1  0  0  0  0
  6  1  2  0  0  0  0
  4  7  1  0  0  0  0
  7  8  1  0  0  0  0
  8  9  1  0  0  0  0
  9 10  1  0  0  0  0
 10  5  1  0  0  0  0
 11 12  1  0  0  0  0
 12  9  1  0  0  0  0
 11 13  1  0  0  0  0
 14 12  2  0  0  0  0
  6 15  1  0  0  0  0
  2 16  1  0  0  0  0
  4 17  1  0  0  0  0
M  END
>  <cdx:fragmentId>
5

$$$$
