90340.cdx
  Mrv1902 05222410192D          

 88 97  0  0  0  0            999 V2000
   17.2620   -5.5275    0.0000 C   0  0  0  0  0  0  0  0  0  0  0  0
   17.9765   -5.1150    0.0000 C   0  0  0  0  0  0  0  0  0  0  0  0
   18.6910   -5.5275    0.0000 C   0  0  0  0  0  0  0  0  0  0  0  0
   18.6910   -6.3525    0.0000 C   0  0  0  0  0  0  0  0  0  0  0  0
   17.9765   -6.7650    0.0000 C   0  0  2  0  0  0  0  0  0  0  0  0
   17.9765   -7.5900    0.0000 C   0  0  0  0  0  0  0  0  0  0  0  0
   17.2620   -8.0025    0.0000 C   0  0  0  0  0  0  0  0  0  0  0  0
   16.5475   -7.5900    0.0000 C   0  0  1  0  0  0  0  0  0  0  0  0
   15.8331   -8.0025    0.0000 C   0  0  2  0  0  0  0  0  0  0  0  0
   15.8331   -8.8275    0.0000 C   0  0  0  0  0  0  0  0  0  0  0  0
   15.1186   -9.2400    0.0000 C   0  0  0  0  0  0  0  0  0  0  0  0
   14.4041   -8.8275    0.0000 C   0  0  1  0  0  0  0  0  0  0  0  0
   13.6897   -9.2400    0.0000 C   0  0  0  0  0  0  0  0  0  0  0  0
   12.9752   -8.8275    0.0000 C   0  0  2  0  0  0  0  0  0  0  0  0
   12.9752   -8.0025    0.0000 C   0  0  0  0  0  0  0  0  0  0  0  0
   13.6897   -7.5900    0.0000 C   0  0  0  0  0  0  0  0  0  0  0  0
   14.4041   -8.0025    0.0000 C   0  0  2  0  0  0  0  0  0  0  0  0
   15.1186   -7.5900    0.0000 C   0  0  1  0  0  0  0  0  0  0  0  0
   15.1186   -6.7650    0.0000 C   0  0  0  0  0  0  0  0  0  0  0  0
   15.8331   -6.3525    0.0000 C   0  0  0  0  0  0  0  0  0  0  0  0
   16.5475   -6.7650    0.0000 C   0  0  0  0  0  0  0  0  0  0  0  0
   17.2620   -6.3525    0.0000 C   0  0  2  0  0  0  0  0  0  0  0  0
   18.6910   -7.1775    0.0000 C   0  0  0  0  0  0  0  0  0  0  0  0
   18.6910   -8.0025    0.0000 O   0  0  0  0  0  0  0  0  0  0  0  0
   14.1022   -9.9544    0.0000 C   0  0  0  0  0  0  0  0  0  0  0  0
   13.2772   -9.9544    0.0000 C   0  0  0  0  0  0  0  0  0  0  0  0
   17.5640   -4.4005    0.0000 C   0  0  0  0  0  0  0  0  0  0  0  0
   18.3890   -4.4005    0.0000 C   0  0  0  0  0  0  0  0  0  0  0  0
   12.2607   -9.2400    0.0000 O   0  0  0  0  0  0  0  0  0  0  0  0
   11.5462   -8.0025    0.0000 O   0  0  0  0  0  0  0  0  0  0  0  0
   11.5462   -8.8275    0.0000 C   0  0  2  0  0  0  0  0  0  0  0  0
   10.8318   -9.2400    0.0000 C   0  0  1  0  0  0  0  0  0  0  0  0
   10.1173   -8.8275    0.0000 C   0  0  2  0  0  0  0  0  0  0  0  0
   10.1173   -8.0025    0.0000 C   0  0  2  0  0  0  0  0  0  0  0  0
   10.8318   -7.5900    0.0000 C   0  0  0  0  0  0  0  0  0  0  0  0
    9.4028   -7.5900    0.0000 O   0  0  0  0  0  0  0  0  0  0  0  0
    9.4028   -9.2400    0.0000 O   0  0  0  0  0  0  0  0  0  0  0  0
   10.8318  -10.0650    0.0000 O   0  0  0  0  0  0  0  0  0  0  0  0
   14.4041   -9.6525    0.0000 H   0  0  0  0  0  0  0  0  0  0  0  0
   17.2620   -7.1775    0.0000 H   0  0  0  0  0  0  0  0  0  0  0  0
   21.5559   -9.6472    0.0000 O   0  0  0  0  0  0  0  0  0  0  0  0
   20.8251  -10.8751    0.0000 O   0  0  0  0  0  0  0  0  0  0  0  0
   21.5450  -10.4721    0.0000 C   0  0  2  0  0  0  0  0  0  0  0  0
   22.2540  -10.8940    0.0000 C   0  0  1  0  0  0  0  0  0  0  0  0
   22.2430  -11.7190    0.0000 C   0  0  2  0  0  0  0  0  0  0  0  0
   21.5232  -12.1220    0.0000 C   0  0  1  0  0  0  0  0  0  0  0  0
   20.8142  -11.7001    0.0000 C   0  0  1  0  0  0  0  0  0  0  0  0
   20.0944  -12.1031    0.0000 C   0  0  0  0  0  0  0  0  0  0  0  0
   19.3799  -11.6906    0.0000 O   0  0  0  0  0  0  0  0  0  0  0  0
   22.9520  -12.1409    0.0000 O   0  0  0  0  0  0  0  0  0  0  0  0
   22.9738  -10.4910    0.0000 O   0  0  0  0  0  0  0  0  0  0  0  0
   21.5140  -14.5969    0.0000 O   0  0  0  0  0  0  0  0  0  0  0  0
   20.0859  -15.4234    0.0000 O   0  0  0  0  0  0  0  0  0  0  0  0
   18.6561  -14.5999    0.0000 O   0  0  0  0  0  0  0  0  0  0  0  0
   18.6544  -12.9499    0.0000 C   0  0  0  0  0  0  0  0  0  0  0  0
   19.3693  -13.3616    0.0000 C   0  0  1  0  0  0  0  0  0  0  0  0
   19.3701  -14.1866    0.0000 C   0  0  1  0  0  0  0  0  0  0  0  0
   20.0850  -14.5984    0.0000 C   0  0  2  0  0  0  0  0  0  0  0  0
   20.7991  -14.1852    0.0000 C   0  0  2  0  0  0  0  0  0  0  0  0
   20.7982  -13.3602    0.0000 C   0  0  1  0  0  0  0  0  0  0  0  0
   20.0833  -12.9484    0.0000 O   0  0  0  0  0  0  0  0  0  0  0  0
   21.5123  -12.9469    0.0000 O   0  0  0  0  0  0  0  0  0  0  0  0
   20.8405   -9.2365    0.0000 C   0  0  0  0  0  0  0  0  0  0  0  0
   20.8323   -5.9365    0.0000 O   0  0  0  0  0  0  0  0  0  0  0  0
   22.2633   -6.7579    0.0000 O   0  0  0  0  0  0  0  0  0  0  0  0
   22.2674   -8.4079    0.0000 O   0  0  0  0  0  0  0  0  0  0  0  0
   20.8384   -8.4115    0.0000 C   0  0  2  0  0  0  0  0  0  0  0  0
   21.5519   -7.9972    0.0000 C   0  0  2  0  0  0  0  0  0  0  0  0
   21.5498   -7.1722    0.0000 C   0  0  1  0  0  0  0  0  0  0  0  0
   20.8344   -6.7615    0.0000 C   0  0  2  0  0  0  0  0  0  0  0  0
   20.1209   -7.1757    0.0000 C   0  0  1  0  0  0  0  0  0  0  0  0
   20.1229   -8.0007    0.0000 O   0  0  0  0  0  0  0  0  0  0  0  0
   19.4054   -6.7650    0.0000 O   0  0  0  0  0  0  0  0  0  0  0  0
   14.4041   -7.1775    0.0000 C   0  0  0  0  0  0  0  0  0  0  0  0
   15.8331   -7.1775    0.0000 C   0  0  0  0  0  0  0  0  0  0  0  0
   16.5475   -8.4150    0.0000 C   0  0  0  0  0  0  0  0  0  0  0  0
   15.1186   -8.4150    0.0000 H   0  0  0  0  0  0  0  0  0  0  0  0
    8.6884   -8.8275    0.0000 C   0  0  2  0  0  0  0  0  0  0  0  0
    8.6884   -8.0025    0.0000 O   0  0  0  0  0  0  0  0  0  0  0  0
    7.9739   -7.5900    0.0000 C   0  0  1  0  0  0  0  0  0  0  0  0
    7.2594   -8.0025    0.0000 C   0  0  2  0  0  0  0  0  0  0  0  0
    7.2594   -8.8275    0.0000 C   0  0  1  0  0  0  0  0  0  0  0  0
    7.9739   -9.2400    0.0000 C   0  0  1  0  0  0  0  0  0  0  0  0
    7.9739   -6.7650    0.0000 C   0  0  0  0  0  0  0  0  0  0  0  0
    6.5449   -9.2400    0.0000 O   0  0  0  0  0  0  0  0  0  0  0  0
    6.5449   -7.5900    0.0000 O   0  0  0  0  0  0  0  0  0  0  0  0
    7.9739  -10.0650    0.0000 O   0  0  0  0  0  0  0  0  0  0  0  0
    7.2594   -6.3525    0.0000 O   0  0  0  0  0  0  0  0  0  0  0  0
 71 73  1  1  0  0  0
 67 63  1  1  0  0  0
 63 41  1  0  0  0  0
 60 62  1  1  0  0  0
 59 52  1  6  0  0  0
 58 53  1  6  0  0  0
 57 54  1  1  0  0  0
 56 55  1  6  0  0  0
 61 56  1  0  0  0  0
 57 56  1  0  0  0  0
 58 57  1  0  0  0  0
 59 58  1  0  0  0  0
 60 59  1  0  0  0  0
 61 60  1  0  0  0  0
 42 43  1  0  0  0  0
 70 64  1  6  0  0  0
 69 65  1  1  0  0  0
 68 66  1  6  0  0  0
 72 67  1  0  0  0  0
 68 67  1  0  0  0  0
 69 68  1  0  0  0  0
 70 69  1  0  0  0  0
  1  2  1  0  0  0  0
  2  3  1  0  0  0  0
  3  4  1  0  0  0  0
  4  5  1  0  0  0  0
  5  6  1  0  0  0  0
  6  7  1  0  0  0  0
  7  8  1  0  0  0  0
  8  9  1  0  0  0  0
  9 10  1  0  0  0  0
 10 11  1  0  0  0  0
 11 12  1  0  0  0  0
 12 13  1  0  0  0  0
 13 14  1  0  0  0  0
 14 15  1  0  0  0  0
 15 16  1  0  0  0  0
 16 17  1  0  0  0  0
 12 17  1  0  0  0  0
 17 18  1  0  0  0  0
  9 18  1  0  0  0  0
 18 19  1  0  0  0  0
 19 20  1  0  0  0  0
 20 21  2  0  0  0  0
  8 21  1  0  0  0  0
 21 22  1  0  0  0  0
  5 22  1  0  0  0  0
  1 22  1  0  0  0  0
 23 24  2  0  0  0  0
 23 73  1  0  0  0  0
  5 23  1  1  0  0  0
 13 25  1  0  0  0  0
 13 26  1  0  0  0  0
  2 27  1  0  0  0  0
  2 28  1  0  0  0  0
 30 31  1  0  0  0  0
 31 32  1  0  0  0  0
 32 33  1  0  0  0  0
 33 34  1  0  0  0  0
 34 35  1  0  0  0  0
 30 35  1  0  0  0  0
 34 36  1  1  0  0  0
 33 37  1  1  0  0  0
 32 38  1  6  0  0  0
 31 29  1  1  0  0  0
 14 29  1  1  0  0  0
 12 39  1  6  0  0  0
 22 40  1  1  0  0  0
 71 70  1  0  0  0  0
 72 71  1  0  0  0  0
 43 44  1  0  0  0  0
 44 45  1  0  0  0  0
 45 46  1  0  0  0  0
 46 47  1  0  0  0  0
 42 47  1  0  0  0  0
 46 62  1  6  0  0  0
 48 49  1  0  0  0  0
 47 48  1  1  0  0  0
 45 50  1  1  0  0  0
 44 51  1  6  0  0  0
 43 41  1  1  0  0  0
 17 74  1  1  0  0  0
  9 75  1  1  0  0  0
  8 76  1  6  0  0  0
 18 77  1  6  0  0  0
 78 37  1  1  0  0  0
 78 79  1  0  0  0  0
 79 80  1  0  0  0  0
 80 81  1  0  0  0  0
 81 82  1  0  0  0  0
 82 83  1  0  0  0  0
 83 78  1  0  0  0  0
 80 84  1  1  0  0  0
 82 85  1  1  0  0  0
 81 86  1  6  0  0  0
 83 87  1  6  0  0  0
 84 88  1  0  0  0  0
M  END
>  <cdx:fragmentId>
181457

$$$$
