90342.cdx
  Mrv1902 05222410182D          

 14 15  0  0  0  0            999 V2000
    8.0747   -9.5439    0.0000 C   0  0  0  0  0  0  0  0  0  0  0  0
    8.6255   -9.1206    0.0000 C   0  0  0  0  0  0  0  0  0  0  0  0
    8.3705   -8.5268    0.0000 C   0  0  0  0  0  0  0  0  0  0  0  0
    7.3650   -8.4391    0.0000 C   0  0  0  0  0  0  0  0  0  0  0  0
    6.0072   -8.4339    0.0000 C   0  0  0  0  0  0  0  0  0  0  0  0
    5.6749   -8.9860    0.0000 C   0  0  0  0  0  0  0  0  0  0  0  0
    6.2268   -9.4738    0.0000 C   0  0  0  0  0  0  0  0  0  0  0  0
    7.0952   -9.0973    0.0000 C   0  0  0  0  0  0  0  0  0  0  0  0
    6.8477   -7.5357    0.0000 C   0  0  0  0  0  0  0  0  0  0  0  0
    6.0975  -10.2886    0.0000 O   0  0  0  0  0  0  0  0  0  0  0  0
    7.0875   -9.9222    0.0000 C   0  0  0  0  0  0  0  0  0  0  0  0
    6.5737   -6.7575    0.0000 C   0  0  0  0  0  0  0  0  0  0  0  0
    7.1106   -6.1311    0.0000 C   0  0  0  0  0  0  0  0  0  0  0  0
    5.7628   -6.6058    0.0000 C   0  0  0  0  0  0  0  0  0  0  0  0
  8  1  1  0  0  0  0
  1  2  1  0  0  0  0
  2  3  1  0  0  0  0
  3  4  1  0  0  0  0
  4  9  1  0  0  0  0
  4  5  1  0  0  0  0
  5  6  1  0  0  0  0
  7  6  1  0  0  0  0
  8  7  1  0  0  0  0
  8  9  1  0  0  0  0
  7 10  2  0  0  0  0
  8 11  1  0  0  0  0
  9 12  2  0  0  0  0
 12 13  1  0  0  0  0
 12 14  1  0  0  0  0
M  END
>  <cdx:groupId>
819

>  <cdx:fragmentId>
820

$$$$
