90347.cdx
  Mrv1902 05222410202D          

 10 11  0  0  0  0            999 V2000
    7.3314   -4.7470    0.0000 C   0  0  0  0  0  0  0  0  0  0  0  0
    6.5468   -5.0019    0.0000 C   0  0  0  0  0  0  0  0  0  0  0  0
    6.0619   -4.3345    0.0000 C   0  0  0  0  0  0  0  0  0  0  0  0
    6.5468   -3.6671    0.0000 C   0  0  0  0  0  0  0  0  0  0  0  0
    7.3314   -3.9220    0.0000 C   0  0  0  0  0  0  0  0  0  0  0  0
    8.0459   -4.3345    0.0000 C   0  0  0  0  0  0  0  0  0  0  0  0
    7.1820   -6.1681    0.0000 C   0  0  0  0  0  0  0  0  0  0  0  0
    7.6670   -5.5007    0.0000 C   0  0  0  0  0  0  0  0  0  0  0  0
    8.4874   -5.5869    0.0000 C   0  0  0  0  0  0  0  0  0  0  0  0
    6.2918   -2.8824    0.0000 C   0  0  0  0  0  0  0  0  0  0  0  0
  1  2  1  0  0  0  0
  2  3  1  0  0  0  0
  3  4  1  0  0  0  0
  4  5  1  0  0  0  0
  5  6  1  0  0  0  0
  1  6  1  0  0  0  0
  1  5  1  0  0  0  0
  7  8  1  0  0  0  0
  8  9  1  0  0  0  0
  1  8  1  0  0  0  0
  4 10  1  0  0  0  0
M  END
>  <cdx:fragmentId>
52

$$$$
