90348.cdx
  Mrv1902 05222410272D          

  8  9  0  0  0  0            999 V2000
    7.5510   -8.6899    0.0000 C   0  0  0  0  0  0  0  0  0  0  0  0
    7.2914   -9.4730    0.0000 C   0  0  0  0  0  0  0  0  0  0  0  0
    6.4664   -9.4681    0.0000 C   0  0  0  0  0  0  0  0  0  0  0  0
    6.2161   -8.6820    0.0000 C   0  0  0  0  0  0  0  0  0  0  0  0
    6.8864   -8.2011    0.0000 C   0  0  0  0  0  0  0  0  0  0  0  0
    7.3753   -7.5365    0.0000 C   0  0  0  0  0  0  0  0  0  0  0  0
    8.0399   -8.0254    0.0000 C   0  0  0  0  0  0  0  0  0  0  0  0
    7.7723  -10.1434    0.0000 C   0  0  0  0  0  0  0  0  0  0  0  0
  1  2  1  0  0  0  0
  2  3  2  0  0  0  0
  3  4  1  0  0  0  0
  4  5  1  0  0  0  0
  5  6  1  0  0  0  0
  6  7  1  0  0  0  0
  1  7  1  0  0  0  0
  1  5  1  0  0  0  0
  2  8  1  0  0  0  0
M  END
>  <cdx:fragmentId>
5

$$$$
