90345.cdx
  Mrv1902 05222410192D          

 10 11  0  0  0  0            999 V2000
    6.2657   -8.3917    0.0000 C   0  0  0  0  0  0  0  0  0  0  0  0
    6.5113   -9.1793    0.0000 C   0  0  0  0  0  0  0  0  0  0  0  0
    7.3362   -9.1891    0.0000 C   0  0  0  0  0  0  0  0  0  0  0  0
    7.6004   -8.4076    0.0000 C   0  0  0  0  0  0  0  0  0  0  0  0
    6.9388   -7.9147    0.0000 C   0  0  0  0  0  0  0  0  0  0  0  0
    7.6964   -7.5882    0.0000 C   0  0  0  0  0  0  0  0  0  0  0  0
    5.4781   -8.6373    0.0000 C   0  0  0  0  0  0  0  0  0  0  0  0
    5.6592   -7.8324    0.0000 C   0  0  0  0  0  0  0  0  0  0  0  0
    7.4508   -6.8006    0.0000 C   0  0  0  0  0  0  0  0  0  0  0  0
    8.5207   -7.5548    0.0000 C   0  0  0  0  0  0  0  0  0  0  0  0
  1  2  1  0  0  0  0
  2  3  2  0  0  0  0
  3  4  1  0  0  0  0
  4  5  1  0  0  0  0
  5  1  1  0  0  0  0
  4  6  1  0  0  0  0
  6  5  1  0  0  0  0
  1  7  1  0  0  0  0
  1  8  1  0  0  0  0
  6  9  1  0  0  0  0
  6 10  1  0  0  0  0
M  END
>  <cdx:fragmentId>
5

$$$$
