90358.cdx
  Mrv1902 05222410272D          

 21 21  0  0  0  0            999 V2000
    2.0262   -7.7661    0.0000 O   0  0  0  0  0  0  0  0  0  0  0  0
    2.7209   -7.3650    0.0000 C   0  0  0  0  0  0  0  0  0  0  0  0
    4.1593   -9.8345    0.0000 O   0  0  0  0  0  0  0  0  0  0  0  0
    2.7272   -9.0150    0.0000 O   0  0  0  0  0  0  0  0  0  0  0  0
    5.5851   -9.0040    0.0000 O   0  0  0  0  0  0  0  0  0  0  0  0
    4.8659   -7.7693    0.0000 C   0  0  2  0  0  0  0  0  0  0  0  0
    4.1498   -7.3595    0.0000 O   0  0  0  0  0  0  0  0  0  0  0  0
    3.4369   -7.7747    0.0000 C   0  0  1  0  0  0  0  0  0  0  0  0
    3.4401   -8.5997    0.0000 C   0  0  2  0  0  0  0  0  0  0  0  0
    4.1561   -9.0095    0.0000 C   0  0  1  0  0  0  0  0  0  0  0  0
    4.8690   -8.5943    0.0000 C   0  0  1  0  0  0  0  0  0  0  0  0
    5.5787   -7.3540    0.0000 O   0  0  0  0  0  0  0  0  0  0  0  0
    6.2948   -7.7638    0.0000 C   0  0  0  0  0  0  0  0  0  0  0  0
    7.0077   -7.3486    0.0000 C   0  0  0  0  0  0  0  0  0  0  0  0
    7.7237   -7.7583    0.0000 C   0  0  0  0  0  0  0  0  0  0  0  0
    7.0045   -6.5236    0.0000 C   0  0  0  0  0  0  0  0  0  0  0  0
    7.7269   -8.5833    0.0000 C   0  0  0  0  0  0  0  0  0  0  0  0
    8.4429   -8.9931    0.0000 C   0  0  0  0  0  0  0  0  0  0  0  0
    8.4461   -9.8181    0.0000 C   0  0  0  0  0  0  0  0  0  0  0  0
    7.7332  -10.2333    0.0000 O   0  0  0  0  0  0  0  0  0  0  0  0
    9.1621  -10.2278    0.0000 C   0  0  0  0  0  0  0  0  0  0  0  0
  2  1  1  0  0  0  0
  8  2  1  1  0  0  0
 10  3  1  1  0  0  0
  9  4  1  6  0  0  0
 11  5  1  6  0  0  0
  6 11  1  0  0  0  0
  7  6  1  0  0  0  0
  8  7  1  0  0  0  0
  9  8  1  0  0  0  0
 10  9  1  0  0  0  0
 11 10  1  0  0  0  0
  6 12  1  1  0  0  0
 12 13  1  0  0  0  0
 13 14  1  0  0  0  0
 14 15  2  0  0  0  0
 14 16  1  0  0  0  0
 15 17  1  0  0  0  0
 17 18  1  0  0  0  0
 18 19  1  0  0  0  0
 19 20  2  0  0  0  0
 19 21  1  0  0  0  0
M  END
>  <cdx:fragmentId>
5

$$$$
