90353.cdx
  Mrv1902 05222410202D          

 11 12  0  0  0  0            999 V2000
    6.4285   -8.4139    0.0000 C   0  0  0  0  0  0  0  0  0  0  0  0
    6.4285   -9.2389    0.0000 C   0  0  0  0  0  0  0  0  0  0  0  0
    7.0735   -9.7533    0.0000 C   0  0  0  0  0  0  0  0  0  0  0  0
    7.8778   -9.5697    0.0000 C   0  0  0  0  0  0  0  0  0  0  0  0
    8.2357   -8.8264    0.0000 C   0  0  0  0  0  0  0  0  0  0  0  0
    7.8778   -8.0831    0.0000 C   0  0  0  0  0  0  0  0  0  0  0  0
    7.0735   -7.8995    0.0000 C   0  0  0  0  0  0  0  0  0  0  0  0
    6.3055  -10.0547    0.0000 C   0  0  0  0  0  0  0  0  0  0  0  0
    5.7911  -10.6997    0.0000 C   0  0  0  0  0  0  0  0  0  0  0  0
    6.0925  -11.4677    0.0000 C   0  0  0  0  0  0  0  0  0  0  0  0
    4.9753  -10.5767    0.0000 C   0  0  0  0  0  0  0  0  0  0  0  0
  1  2  1  0  0  0  0
  2  3  1  0  0  0  0
  3  4  1  0  0  0  0
  4  5  1  0  0  0  0
  5  6  1  0  0  0  0
  6  7  1  0  0  0  0
  7  1  1  0  0  0  0
  2  8  1  0  0  0  0
  8  3  1  0  0  0  0
  8  9  2  0  0  0  0
  9 10  1  0  0  0  0
  9 11  1  0  0  0  0
M  END
>  <cdx:fragmentId>
5

$$$$
