90350.cdx
  Mrv1902 05222410192D          

 13 14  0  0  0  0            999 V2000
    6.9968   -6.6264    0.0000 C   0  0  2  0  0  0  0  0  0  0  0  0
    6.9968   -7.4514    0.0000 C   0  0  2  0  0  0  0  0  0  0  0  0
    7.7113   -7.8639    0.0000 C   0  0  0  0  0  0  0  0  0  0  0  0
    8.4257   -7.4514    0.0000 C   0  0  1  0  0  0  0  0  0  0  0  0
    8.4257   -6.6264    0.0000 C   0  0  1  0  0  0  0  0  0  0  0  0
    7.7113   -6.2139    0.0000 C   0  0  0  0  0  0  0  0  0  0  0  0
    9.1402   -7.0389    0.0000 C   0  0  0  0  0  0  0  0  0  0  0  0
    6.2823   -6.2139    0.0000 O   0  0  0  0  0  0  0  0  0  0  0  0
    9.8547   -6.6264    0.0000 C   0  0  0  0  0  0  0  0  0  0  0  0
    9.8547   -7.4514    0.0000 C   0  0  0  0  0  0  0  0  0  0  0  0
    6.2823   -7.8639    0.0000 C   0  0  0  0  0  0  0  0  0  0  0  0
    8.8382   -5.9119    0.0000 H   0  0  0  0  0  0  0  0  0  0  0  0
    8.8382   -8.1659    0.0000 H   0  0  0  0  0  0  0  0  0  0  0  0
  1  2  1  0  0  0  0
  2  3  1  0  0  0  0
  3  4  1  0  0  0  0
  4  5  1  0  0  0  0
  5  6  1  0  0  0  0
  6  1  1  0  0  0  0
  4  7  1  0  0  0  0
  7  5  1  0  0  0  0
  1  8  1  1  0  0  0
  7  9  1  0  0  0  0
  7 10  1  0  0  0  0
  2 11  1  6  0  0  0
  5 12  1  6  0  0  0
  4 13  1  6  0  0  0
M  END
>  <cdx:fragmentId>
5

$$$$
