90357.cdx
  Mrv1902 05222410182D          

 23 24  0  0  0  0            999 V2000
    4.4668  -10.7789    0.0000 C   0  0  2  0  0  0  0  0  0  0  0  0
    4.4668  -11.6039    0.0000 C   0  0  2  0  0  0  0  0  0  0  0  0
    5.1813  -12.0164    0.0000 C   0  0  1  0  0  0  0  0  0  0  0  0
    5.8957  -11.6039    0.0000 C   0  0  2  0  0  0  0  0  0  0  0  0
    5.8957  -10.7789    0.0000 C   0  0  1  0  0  0  0  0  0  0  0  0
    5.1813  -10.3664    0.0000 O   0  0  0  0  0  0  0  0  0  0  0  0
    3.7523  -10.3664    0.0000 C   0  0  0  0  0  0  0  0  0  0  0  0
    5.1813  -12.8414    0.0000 O   0  0  0  0  0  0  0  0  0  0  0  0
    6.6102  -10.3664    0.0000 O   0  0  0  0  0  0  0  0  0  0  0  0
    3.7523  -12.0164    0.0000 O   0  0  0  0  0  0  0  0  0  0  0  0
    6.6102  -12.0164    0.0000 O   0  0  0  0  0  0  0  0  0  0  0  0
    3.0379  -10.7789    0.0000 O   0  0  0  0  0  0  0  0  0  0  0  0
    7.3247  -10.7789    0.0000 C   0  0  0  0  0  0  0  0  0  0  0  0
    8.0392  -10.3664    0.0000 C   0  0  0  0  0  0  0  0  0  0  0  0
    8.7536  -10.7789    0.0000 C   0  0  0  0  0  0  0  0  0  0  0  0
    9.4681  -10.3664    0.0000 C   0  0  0  0  0  0  0  0  0  0  0  0
    9.4681   -9.5414    0.0000 C   0  0  0  0  0  0  0  0  0  0  0  0
    8.7536   -9.1289    0.0000 C   0  0  0  0  0  0  0  0  0  0  0  0
    8.0392   -9.5414    0.0000 C   0  0  0  0  0  0  0  0  0  0  0  0
    7.3247   -9.1289    0.0000 C   0  0  0  0  0  0  0  0  0  0  0  0
    8.7536   -8.3039    0.0000 O   0  0  0  0  0  0  0  0  0  0  0  0
   10.1826   -9.1289    0.0000 C   0  0  0  0  0  0  0  0  0  0  0  0
    6.6102   -8.7164    0.0000 N   0  0  0  0  0  0  0  0  0  0  0  0
  1  2  1  0  0  0  0
  2  3  1  0  0  0  0
  3  4  1  0  0  0  0
  4  5  1  0  0  0  0
  5  6  1  0  0  0  0
  6  1  1  0  0  0  0
  1  7  1  1  0  0  0
  3  8  1  1  0  0  0
  5  9  1  1  0  0  0
  2 10  1  6  0  0  0
  4 11  1  6  0  0  0
  7 12  1  0  0  0  0
  9 13  1  0  0  0  0
 13 14  1  0  0  0  0
 14 15  2  0  0  0  0
 15 16  1  0  0  0  0
 16 17  2  0  0  0  0
 17 18  1  0  0  0  0
 18 19  2  0  0  0  0
 19 14  1  0  0  0  0
 19 20  1  0  0  0  0
 18 21  1  0  0  0  0
 17 22  1  0  0  0  0
 20 23  3  0  0  0  0
M  END
>  <cdx:fragmentId>
5

$$$$
