90356.cdx
  Mrv1902 05222410182D          

 32 35  0  0  0  0            999 V2000
    3.5043  -11.9339    0.0000 C   0  0  0  0  0  0  0  0  0  0  0  0
    3.5043  -12.7589    0.0000 C   0  0  0  0  0  0  0  0  0  0  0  0
    4.2188  -13.1714    0.0000 C   0  0  0  0  0  0  0  0  0  0  0  0
    4.9332  -12.7589    0.0000 C   0  0  0  0  0  0  0  0  0  0  0  0
    4.9332  -11.9339    0.0000 C   0  0  2  0  0  0  0  0  0  0  0  0
    4.2188  -11.5214    0.0000 C   0  0  0  0  0  0  0  0  0  0  0  0
    5.6477  -13.1714    0.0000 C   0  0  0  0  0  0  0  0  0  0  0  0
    6.3622  -12.7589    0.0000 C   0  0  0  0  0  0  0  0  0  0  0  0
    6.3622  -11.9339    0.0000 C   0  0  2  0  0  0  0  0  0  0  0  0
    5.6477  -11.5214    0.0000 C   0  0  2  0  0  0  0  0  0  0  0  0
    7.0767  -11.5214    0.0000 C   0  0  1  0  0  0  0  0  0  0  0  0
    7.0767  -10.6964    0.0000 C   0  0  2  0  0  0  0  0  0  0  0  0
    6.3622  -10.2839    0.0000 C   0  0  0  0  0  0  0  0  0  0  0  0
    5.6477  -10.6964    0.0000 C   0  0  0  0  0  0  0  0  0  0  0  0
    7.8613  -11.7763    0.0000 C   0  0  0  0  0  0  0  0  0  0  0  0
    8.3462  -11.1089    0.0000 C   0  0  0  0  0  0  0  0  0  0  0  0
    7.8613  -10.4415    0.0000 C   0  0  2  0  0  0  0  0  0  0  0  0
    4.2188  -13.9964    0.0000 O   0  0  0  0  0  0  0  0  0  0  0  0
    4.9332  -11.1089    0.0000 C   0  0  0  0  0  0  0  0  0  0  0  0
    7.0767   -9.8714    0.0000 C   0  0  0  0  0  0  0  0  0  0  0  0
    8.1162   -9.6568    0.0000 C   0  0  2  0  0  0  0  0  0  0  0  0
    7.5642   -9.0437    0.0000 C   0  0  0  0  0  0  0  0  0  0  0  0
    8.9232   -9.4853    0.0000 C   0  0  0  0  0  0  0  0  0  0  0  0
    9.3357   -8.7708    0.0000 C   0  0  0  0  0  0  0  0  0  0  0  0
   10.1607   -8.7708    0.0000 C   0  0  0  0  0  0  0  0  0  0  0  0
   10.5732   -8.0564    0.0000 C   0  0  0  0  0  0  0  0  0  0  0  0
   11.3982   -8.0564    0.0000 C   0  0  0  0  0  0  0  0  0  0  0  0
   10.1607   -7.3419    0.0000 C   0  0  0  0  0  0  0  0  0  0  0  0
    5.6477  -12.3464    0.0000 H   0  0  0  0  0  0  0  0  0  0  0  0
    6.3622  -11.1089    0.0000 H   0  0  0  0  0  0  0  0  0  0  0  0
    7.0767  -12.3464    0.0000 H   0  0  0  0  0  0  0  0  0  0  0  0
    8.6459  -10.1865    0.0000 H   0  0  0  0  0  0  0  0  0  0  0  0
  1  2  2  0  0  0  0
  2  3  1  0  0  0  0
  3  4  1  0  0  0  0
  4  5  1  0  0  0  0
  5  6  1  0  0  0  0
  6  1  1  0  0  0  0
  4  7  2  0  0  0  0
  7  8  1  0  0  0  0
  8  9  1  0  0  0  0
  9 10  1  0  0  0  0
 10  5  1  0  0  0  0
  9 11  1  0  0  0  0
 11 12  1  0  0  0  0
 12 13  1  0  0  0  0
 13 14  1  0  0  0  0
 14 10  1  0  0  0  0
 11 15  1  0  0  0  0
 15 16  1  0  0  0  0
 16 17  1  0  0  0  0
 17 12  1  0  0  0  0
  3 18  2  0  0  0  0
  5 19  1  1  0  0  0
 12 20  1  1  0  0  0
 17 21  1  0  0  0  0
 21 22  1  6  0  0  0
 21 23  1  0  0  0  0
 23 24  1  0  0  0  0
 24 25  1  0  0  0  0
 25 26  1  0  0  0  0
 26 27  1  0  0  0  0
 26 28  1  0  0  0  0
 10 29  1  6  0  0  0
  9 30  1  1  0  0  0
 11 31  1  6  0  0  0
 17 32  1  6  0  0  0
M  END
>  <cdx:fragmentId>
5

$$$$
