90359.cdx
  Mrv1902 05222410272D          

 21 21  0  0  0  0            999 V2000
    4.4668   -8.9639    0.0000 C   0  0  2  0  0  0  0  0  0  0  0  0
    4.4668   -9.7889    0.0000 C   0  0  2  0  0  0  0  0  0  0  0  0
    5.1813  -10.2014    0.0000 C   0  0  1  0  0  0  0  0  0  0  0  0
    5.8957   -9.7889    0.0000 C   0  0  2  0  0  0  0  0  0  0  0  0
    5.8957   -8.9639    0.0000 C   0  0  1  0  0  0  0  0  0  0  0  0
    5.1813   -8.5514    0.0000 O   0  0  0  0  0  0  0  0  0  0  0  0
    3.7523   -8.5514    0.0000 C   0  0  0  0  0  0  0  0  0  0  0  0
   10.8970   -8.5514    0.0000 C   0  0  0  0  0  0  0  0  0  0  0  0
    5.1813  -11.0264    0.0000 O   0  0  0  0  0  0  0  0  0  0  0  0
    3.7523  -10.2014    0.0000 O   0  0  0  0  0  0  0  0  0  0  0  0
    6.6102  -10.2014    0.0000 O   0  0  0  0  0  0  0  0  0  0  0  0
    2.9968   -8.9876    0.0000 O   0  0  0  0  0  0  0  0  0  0  0  0
   10.8970   -7.7264    0.0000 O   0  0  0  0  0  0  0  0  0  0  0  0
   11.6115   -8.9639    0.0000 C   0  0  0  0  0  0  0  0  0  0  0  0
   10.1826   -8.9639    0.0000 C   0  0  0  0  0  0  0  0  0  0  0  0
    9.4681   -8.5514    0.0000 C   0  0  0  0  0  0  0  0  0  0  0  0
    8.0392   -7.7264    0.0000 C   0  0  0  0  0  0  0  0  0  0  0  0
    8.7536   -8.9639    0.0000 C   0  0  0  0  0  0  0  0  0  0  0  0
    8.0392   -8.5514    0.0000 C   0  0  0  0  0  0  0  0  0  0  0  0
    7.3247   -8.9639    0.0000 C   0  0  0  0  0  0  0  0  0  0  0  0
    6.6102   -8.5514    0.0000 O   0  0  0  0  0  0  0  0  0  0  0  0
  1  2  1  0  0  0  0
  2  3  1  0  0  0  0
  3  4  1  0  0  0  0
  4  5  1  0  0  0  0
  5  6  1  0  0  0  0
  6  1  1  0  0  0  0
  1  7  1  1  0  0  0
  5 21  1  1  0  0  0
  3  9  1  1  0  0  0
  2 10  1  6  0  0  0
  4 11  1  6  0  0  0
  7 12  1  0  0  0  0
  8 13  1  0  0  0  0
 15  8  1  0  0  0  0
  8 14  1  0  0  0  0
 16 15  1  0  0  0  0
 18 16  1  0  0  0  0
 19 17  1  0  0  0  0
 19 18  2  0  0  0  0
 20 19  1  0  0  0  0
 21 20  1  0  0  0  0
M  END
>  <cdx:fragmentId>
5

$$$$
