90351.cdx
  Mrv1902 05222410192D          

 15 16  0  0  0  0            999 V2000
    8.0130   -5.3077    0.0000 C   0  0  0  0  0  0  0  0  0  0  0  0
    5.3080   -3.8557    0.0000 C   0  0  0  0  0  0  0  0  0  0  0  0
    8.5650   -1.7905    0.0000 C   0  0  0  0  0  0  0  0  0  0  0  0
    8.0130   -2.4036    0.0000 C   0  0  0  0  0  0  0  0  0  0  0  0
    7.1981   -2.2746    0.0000 C   0  0  0  0  0  0  0  0  0  0  0  0
    7.3705   -4.5701    0.0000 C   0  0  0  0  0  0  0  0  0  0  0  0
    6.5455   -4.5701    0.0000 C   0  0  0  0  0  0  0  0  0  0  0  0
    6.1330   -3.8557    0.0000 C   0  0  0  0  0  0  0  0  0  0  0  0
    6.5455   -3.1412    0.0000 C   0  0  0  0  0  0  0  0  0  0  0  0
    7.3705   -3.1412    0.0000 C   0  0  0  0  0  0  0  0  0  0  0  0
    7.7830   -3.8557    0.0000 C   0  0  1  0  0  0  0  0  0  0  0  0
    8.2679   -3.1882    0.0000 C   0  0  1  0  0  0  0  0  0  0  0  0
    9.0525   -3.4432    0.0000 C   0  0  0  0  0  0  0  0  0  0  0  0
    9.0525   -4.2682    0.0000 C   0  0  0  0  0  0  0  0  0  0  0  0
    8.2679   -4.5231    0.0000 C   0  0  1  0  0  0  0  0  0  0  0  0
 15  1  1  1  0  0  0
  8  2  1  0  0  0  0
 12  4  1  6  0  0  0
  4  3  1  0  0  0  0
  5  4  2  0  0  0  0
 11  6  1  1  0  0  0
 15 11  1  0  0  0  0
  7  6  1  0  0  0  0
  8  7  1  0  0  0  0
  9  8  2  0  0  0  0
 10  9  1  0  0  0  0
 11 10  1  0  0  0  0
 12 11  1  0  0  0  0
 13 12  1  0  0  0  0
 14 13  1  0  0  0  0
 15 14  1  0  0  0  0
M  END
>  <cdx:fragmentId>
56

$$$$
