90352.cdx
  Mrv1902 05222410202D          

 15 16  0  0  0  0            999 V2000
    4.6731   -7.0939    0.0000 C   0  0  0  0  0  0  0  0  0  0  0  0
    4.6731   -7.9189    0.0000 C   0  0  0  0  0  0  0  0  0  0  0  0
    5.3875   -8.3314    0.0000 C   0  0  0  0  0  0  0  0  0  0  0  0
    6.1020   -7.9189    0.0000 C   0  0  0  0  0  0  0  0  0  0  0  0
    6.1020   -7.0939    0.0000 C   0  0  0  0  0  0  0  0  0  0  0  0
    5.3875   -6.6814    0.0000 C   0  0  0  0  0  0  0  0  0  0  0  0
    6.8165   -8.3314    0.0000 C   0  0  0  0  0  0  0  0  0  0  0  0
    7.5309   -7.9189    0.0000 C   0  0  0  0  0  0  0  0  0  0  0  0
    7.5309   -7.0939    0.0000 C   0  0  0  0  0  0  0  0  0  0  0  0
    6.8165   -6.6814    0.0000 C   0  0  0  0  0  0  0  0  0  0  0  0
    5.3875   -9.1564    0.0000 C   0  0  0  0  0  0  0  0  0  0  0  0
    6.1020   -9.5689    0.0000 C   0  0  0  0  0  0  0  0  0  0  0  0
    4.6731   -9.5689    0.0000 C   0  0  0  0  0  0  0  0  0  0  0  0
    5.3875   -5.8564    0.0000 C   0  0  0  0  0  0  0  0  0  0  0  0
    8.2454   -8.3314    0.0000 C   0  0  0  0  0  0  0  0  0  0  0  0
  1  2  1  0  0  0  0
  2  3  1  0  0  0  0
  3  4  2  0  0  0  0
  4  5  1  0  0  0  0
  5  6  1  0  0  0  0
  6  1  1  0  0  0  0
  4  7  1  0  0  0  0
  7  8  1  0  0  0  0
  8  9  1  0  0  0  0
  9 10  1  0  0  0  0
 10  5  1  0  0  0  0
  3 11  1  0  0  0  0
 11 12  1  0  0  0  0
 11 13  1  0  0  0  0
  6 14  1  0  0  0  0
  8 15  2  0  0  0  0
M  END
>  <cdx:fragmentId>
5

$$$$
