90369.cdx
  Mrv1902 05222410192D          

 14 14  0  0  0  0            999 V2000
    6.5935   -8.7851    0.0000 C   0  0  1  0  0  0  0  0  0  0  0  0
    6.5935   -9.6101    0.0000 C   0  0  1  0  0  0  0  0  0  0  0  0
    7.3781   -9.8651    0.0000 C   0  0  2  0  0  0  0  0  0  0  0  0
    7.8631   -9.1976    0.0000 O   0  0  0  0  0  0  0  0  0  0  0  0
    7.3781   -8.5302    0.0000 C   0  0  2  0  0  0  0  0  0  0  0  0
    7.1646   -7.7333    0.0000 C   0  0  0  0  0  0  0  0  0  0  0  0
    8.0926   -8.1177    0.0000 O   0  0  0  0  0  0  0  0  0  0  0  0
    7.7480   -7.1500    0.0000 O   0  0  0  0  0  0  0  0  0  0  0  0
    8.8071   -8.5302    0.0000 C   0  0  0  0  0  0  0  0  0  0  0  0
    9.5216   -8.1177    0.0000 C   0  0  0  0  0  0  0  0  0  0  0  0
    7.6331  -10.6497    0.0000 C   0  0  0  0  0  0  0  0  0  0  0  0
    8.4581  -10.6497    0.0000 O   0  0  0  0  0  0  0  0  0  0  0  0
    5.9261   -8.3002    0.0000 O   0  0  0  0  0  0  0  0  0  0  0  0
    5.9261  -10.0951    0.0000 O   0  0  0  0  0  0  0  0  0  0  0  0
  1  2  1  0  0  0  0
  2  3  1  0  0  0  0
  3  4  1  0  0  0  0
  4  5  1  0  0  0  0
  5  1  1  0  0  0  0
  5  6  1  0  0  0  0
  5  7  1  6  0  0  0
  6  8  1  0  0  0  0
  7  9  1  0  0  0  0
  9 10  1  0  0  0  0
  3 11  1  6  0  0  0
 11 12  1  0  0  0  0
  1 13  1  6  0  0  0
  2 14  1  1  0  0  0
M  END
>  <cdx:fragmentId>
5

$$$$
