90367.cdx
  Mrv1902 05222410282D          

  7  7  0  0  0  0            999 V2000
    6.1810   -9.1564    0.0000 C   0  0  0  0  0  0  0  0  0  0  0  0
    6.1810   -9.9814    0.0000 C   0  0  0  0  0  0  0  0  0  0  0  0
    6.9656  -10.2363    0.0000 C   0  0  0  0  0  0  0  0  0  0  0  0
    7.4506   -9.5689    0.0000 C   0  0  0  0  0  0  0  0  0  0  0  0
    6.9656   -8.9015    0.0000 C   0  0  0  0  0  0  0  0  0  0  0  0
    7.2206   -8.1168    0.0000 C   0  0  0  0  0  0  0  0  0  0  0  0
    6.6685   -7.5037    0.0000 C   0  0  0  0  0  0  0  0  0  0  0  0
  1  2  1  0  0  0  0
  2  3  1  0  0  0  0
  3  4  1  0  0  0  0
  4  5  1  0  0  0  0
  5  1  1  0  0  0  0
  5  6  1  0  0  0  0
  6  7  1  0  0  0  0
M  END
>  <cdx:fragmentId>
5

$$$$
