90368.cdx
  Mrv1902 05222410192D          

 14 14  0  0  0  0            999 V2000
    6.6081   -9.1073    0.0000 C   0  0  1  0  0  0  0  0  0  0  0  0
    6.8710   -9.8893    0.0000 C   0  0  1  0  0  0  0  0  0  0  0  0
    7.6960   -9.8809    0.0000 C   0  0  2  0  0  0  0  0  0  0  0  0
    7.9430   -9.0938    0.0000 O   0  0  0  0  0  0  0  0  0  0  0  0
    7.2706   -8.6156    0.0000 C   0  0  1  0  0  0  0  0  0  0  0  0
    6.8143   -7.9283    0.0000 C   0  0  0  0  0  0  0  0  0  0  0  0
    7.8164   -7.9970    0.0000 O   0  0  0  0  0  0  0  0  0  0  0  0
    7.1814   -7.1895    0.0000 O   0  0  0  0  0  0  0  0  0  0  0  0
    8.6251   -8.1603    0.0000 C   0  0  0  0  0  0  0  0  0  0  0  0
    9.1709   -7.5417    0.0000 C   0  0  0  0  0  0  0  0  0  0  0  0
    8.1876  -10.5434    0.0000 C   0  0  0  0  0  0  0  0  0  0  0  0
    9.0126  -10.5434    0.0000 O   0  0  0  0  0  0  0  0  0  0  0  0
    5.8210   -8.8603    0.0000 O   0  0  0  0  0  0  0  0  0  0  0  0
    6.3929  -10.5616    0.0000 O   0  0  0  0  0  0  0  0  0  0  0  0
  1  2  1  0  0  0  0
  2  3  1  0  0  0  0
  3  4  1  0  0  0  0
  4  5  1  0  0  0  0
  5  1  1  0  0  0  0
  5  6  1  0  0  0  0
  5  7  1  1  0  0  0
  6  8  1  0  0  0  0
  7  9  1  0  0  0  0
  9 10  1  0  0  0  0
  3 11  1  6  0  0  0
 11 12  1  0  0  0  0
  1 13  1  6  0  0  0
  2 14  1  1  0  0  0
M  END
>  <cdx:fragmentId>
5

$$$$
