90362.cdx
  Mrv1902 05222410262D          

 14 15  0  0  0  0            999 V2000
    6.2818   -6.7639    0.0000 C   0  0  0  0  0  0  0  0  0  0  0  0
    6.2818   -7.5889    0.0000 C   0  0  0  0  0  0  0  0  0  0  0  0
    6.9963   -8.0014    0.0000 C   0  0  0  0  0  0  0  0  0  0  0  0
    7.7107   -7.5889    0.0000 C   0  0  0  0  0  0  0  0  0  0  0  0
    7.7107   -6.7639    0.0000 C   0  0  0  0  0  0  0  0  0  0  0  0
    6.9963   -6.3514    0.0000 C   0  0  0  0  0  0  0  0  0  0  0  0
    8.4252   -8.0014    0.0000 C   0  0  0  0  0  0  0  0  0  0  0  0
    9.1397   -7.5889    0.0000 O   0  0  0  0  0  0  0  0  0  0  0  0
    9.1397   -6.7639    0.0000 C   0  0  0  0  0  0  0  0  0  0  0  0
    8.4252   -6.3514    0.0000 C   0  0  0  0  0  0  0  0  0  0  0  0
    7.7107   -5.1139    0.0000 O   0  0  0  0  0  0  0  0  0  0  0  0
    6.9963   -5.5264    0.0000 C   0  0  0  0  0  0  0  0  0  0  0  0
    6.2818   -5.1139    0.0000 O   0  0  0  0  0  0  0  0  0  0  0  0
    8.4252   -8.8264    0.0000 O   0  0  0  0  0  0  0  0  0  0  0  0
  1  2  1  0  0  0  0
  2  3  2  0  0  0  0
  3  4  1  0  0  0  0
  4  5  2  0  0  0  0
  5  6  1  0  0  0  0
  6  1  2  0  0  0  0
  4  7  1  0  0  0  0
  7  8  1  0  0  0  0
  8  9  1  0  0  0  0
  9 10  1  0  0  0  0
 10  5  1  0  0  0  0
 11 12  2  0  0  0  0
 12  6  1  0  0  0  0
 12 13  1  0  0  0  0
  7 14  2  0  0  0  0
M  END
>  <cdx:fragmentId>
5

$$$$
