90361.cdx
  Mrv1902 05222410272D          

 31 32  0  0  0  0            999 V2000
    1.2641  -12.1951    0.0000 O   0  0  0  0  0  0  0  0  0  0  0  0
    1.2641  -10.5451    0.0000 O   0  0  0  0  0  0  0  0  0  0  0  0
    4.8365  -11.7826    0.0000 C   0  0  0  0  0  0  0  0  0  0  0  0
    2.6931  -13.0201    0.0000 O   0  0  0  0  0  0  0  0  0  0  0  0
    4.1220  -12.1951    0.0000 O   0  0  0  0  0  0  0  0  0  0  0  0
    1.9786  -11.7826    0.0000 C   0  0  2  0  0  0  0  0  0  0  0  0
    2.6931  -12.1951    0.0000 C   0  0  2  0  0  0  0  0  0  0  0  0
    5.5509  -12.1951    0.0000 C   0  0  1  0  0  0  0  0  0  0  0  0
    6.2654  -11.7826    0.0000 O   0  0  0  0  0  0  0  0  0  0  0  0
    5.5509  -13.0201    0.0000 C   0  0  2  0  0  0  0  0  0  0  0  0
    6.2654  -13.4326    0.0000 C   0  0  1  0  0  0  0  0  0  0  0  0
    6.9799  -13.0201    0.0000 C   0  0  2  0  0  0  0  0  0  0  0  0
    6.9799  -12.1951    0.0000 C   0  0  2  0  0  0  0  0  0  0  0  0
   13.4101  -11.7827    0.0000 C   0  0  0  0  0  0  0  0  0  0  0  0
   12.6956  -13.0202    0.0000 C   0  0  0  0  0  0  0  0  0  0  0  0
   12.6956  -12.1952    0.0000 C   0  0  0  0  0  0  0  0  0  0  0  0
   11.9812  -11.7827    0.0000 C   0  0  0  0  0  0  0  0  0  0  0  0
   11.2667  -12.1952    0.0000 C   0  0  0  0  0  0  0  0  0  0  0  0
   10.5522  -11.7827    0.0000 C   0  0  0  0  0  0  0  0  0  0  0  0
    9.8378  -13.0202    0.0000 C   0  0  0  0  0  0  0  0  0  0  0  0
    9.8378  -12.1952    0.0000 C   0  0  2  0  0  0  0  0  0  0  0  0
    9.1233  -11.7827    0.0000 C   0  0  0  0  0  0  0  0  0  0  0  0
    8.4088  -12.1951    0.0000 C   0  0  0  0  0  0  0  0  0  0  0  0
    7.6944  -11.7826    0.0000 O   0  0  0  0  0  0  0  0  0  0  0  0
    6.2654  -14.2576    0.0000 O   0  0  0  0  0  0  0  0  0  0  0  0
    3.4075  -11.7826    0.0000 C   0  0  1  0  0  0  0  0  0  0  0  0
    3.4075  -10.9576    0.0000 O   0  0  0  0  0  0  0  0  0  0  0  0
    2.6931  -10.5451    0.0000 C   0  0  0  0  0  0  0  0  0  0  0  0
    1.9786  -10.9576    0.0000 C   0  0  2  0  0  0  0  0  0  0  0  0
    4.8365  -13.4326    0.0000 O   0  0  0  0  0  0  0  0  0  0  0  0
    7.6944  -13.4326    0.0000 O   0  0  0  0  0  0  0  0  0  0  0  0
  6  1  1  1  0  0  0
 29  2  1  1  0  0  0
  3  5  1  0  0  0  0
  7  4  1  6  0  0  0
 26  5  1  1  0  0  0
  6 29  1  0  0  0  0
  7  6  1  0  0  0  0
 26  7  1  0  0  0  0
 27 26  1  0  0  0  0
 28 27  1  0  0  0  0
 29 28  1  0  0  0  0
  8  3  1  1  0  0  0
  8  9  1  0  0  0  0
  8 10  1  0  0  0  0
 10 11  1  0  0  0  0
 11 12  1  0  0  0  0
 12 13  1  0  0  0  0
 13  9  1  0  0  0  0
 16 14  1  0  0  0  0
 13 24  1  1  0  0  0
 16 15  1  0  0  0  0
 17 16  2  0  0  0  0
 18 17  1  0  0  0  0
 19 18  1  0  0  0  0
 21 19  1  0  0  0  0
 21 20  1  6  0  0  0
 22 21  1  0  0  0  0
 23 22  1  0  0  0  0
 24 23  1  0  0  0  0
 11 25  1  1  0  0  0
 10 30  1  6  0  0  0
 12 31  1  6  0  0  0
M  END
>  <cdx:fragmentId>
5

$$$$
