90360.cdx
  Mrv1902 05222410262D          

 27 28  0  0  0  0            999 V2000
    2.9818   -9.1289    0.0000 C   0  0  2  0  0  0  0  0  0  0  0  0
    2.9818   -9.9539    0.0000 C   0  0  2  0  0  0  0  0  0  0  0  0
    3.6963  -10.3664    0.0000 C   0  0  1  0  0  0  0  0  0  0  0  0
    4.4107   -9.9539    0.0000 C   0  0  2  0  0  0  0  0  0  0  0  0
    4.4107   -9.1289    0.0000 C   0  0  1  0  0  0  0  0  0  0  0  0
    3.6963   -8.7164    0.0000 O   0  0  0  0  0  0  0  0  0  0  0  0
    2.2673   -8.7164    0.0000 C   0  0  0  0  0  0  0  0  0  0  0  0
    9.4120   -8.7164    0.0000 C   0  0  0  0  0  0  0  0  0  0  0  0
    3.6963  -11.1914    0.0000 O   0  0  0  0  0  0  0  0  0  0  0  0
    2.2673  -10.3664    0.0000 O   0  0  0  0  0  0  0  0  0  0  0  0
    5.1252  -10.3664    0.0000 O   0  0  0  0  0  0  0  0  0  0  0  0
    1.5118   -9.1526    0.0000 O   0  0  0  0  0  0  0  0  0  0  0  0
    9.4120   -7.8914    0.0000 O   0  0  0  0  0  0  0  0  0  0  0  0
   10.1265   -9.1289    0.0000 C   0  0  0  0  0  0  0  0  0  0  0  0
    8.6976   -9.1289    0.0000 O   0  0  0  0  0  0  0  0  0  0  0  0
    7.9831   -8.7164    0.0000 C   0  0  0  0  0  0  0  0  0  0  0  0
    7.2686   -9.1289    0.0000 C   0  0  0  0  0  0  0  0  0  0  0  0
    6.5542   -8.7164    0.0000 C   0  0  0  0  0  0  0  0  0  0  0  0
    5.8397   -9.1289    0.0000 C   0  0  0  0  0  0  0  0  0  0  0  0
    5.1252   -8.7164    0.0000 O   0  0  0  0  0  0  0  0  0  0  0  0
    7.2686   -9.9539    0.0000 C   0  0  0  0  0  0  0  0  0  0  0  0
   10.1265   -9.9539    0.0000 C   0  0  0  0  0  0  0  0  0  0  0  0
   10.8410  -10.3664    0.0000 C   0  0  0  0  0  0  0  0  0  0  0  0
   11.5555   -9.9539    0.0000 C   0  0  0  0  0  0  0  0  0  0  0  0
   11.5555   -9.1289    0.0000 C   0  0  0  0  0  0  0  0  0  0  0  0
   10.8410   -8.7164    0.0000 C   0  0  0  0  0  0  0  0  0  0  0  0
   12.2699  -10.3664    0.0000 O   0  0  0  0  0  0  0  0  0  0  0  0
  1  2  1  0  0  0  0
  2  3  1  0  0  0  0
  3  4  1  0  0  0  0
  4  5  1  0  0  0  0
  5  6  1  0  0  0  0
  6  1  1  0  0  0  0
  1  7  1  1  0  0  0
  5 20  1  1  0  0  0
  3  9  1  1  0  0  0
  2 10  1  6  0  0  0
  4 11  1  6  0  0  0
  7 12  1  0  0  0  0
  8 13  2  0  0  0  0
 15  8  1  0  0  0  0
  8 14  1  0  0  0  0
 16 15  1  0  0  0  0
 17 16  1  0  0  0  0
 18 17  2  0  0  0  0
 19 18  1  0  0  0  0
 20 19  1  0  0  0  0
 17 21  1  0  0  0  0
 14 22  2  0  0  0  0
 22 23  1  0  0  0  0
 23 24  2  0  0  0  0
 24 25  1  0  0  0  0
 25 26  2  0  0  0  0
 26 14  1  0  0  0  0
 24 27  1  0  0  0  0
M  END
>  <cdx:fragmentId>
5

$$$$
