90370.cdx
  Mrv1902 05222410272D          

 30 33  0  0  0  0            999 V2000
    2.9956   -7.1351    0.0000 C   0  0  0  0  0  0  0  0  0  0  0  0
    2.9956   -7.9601    0.0000 O   0  0  0  0  0  0  0  0  0  0  0  0
    3.7100   -8.3726    0.0000 C   0  0  0  0  0  0  0  0  0  0  0  0
    4.4245   -7.9601    0.0000 C   0  0  0  0  0  0  0  0  0  0  0  0
    4.4245   -7.1351    0.0000 C   0  0  0  0  0  0  0  0  0  0  0  0
    3.7100   -6.7226    0.0000 C   0  0  0  0  0  0  0  0  0  0  0  0
    3.7100   -9.1976    0.0000 C   0  0  0  0  0  0  0  0  0  0  0  0
    4.4245   -9.6101    0.0000 C   0  0  0  0  0  0  0  0  0  0  0  0
    5.1390   -9.1976    0.0000 C   0  0  0  0  0  0  0  0  0  0  0  0
    5.1390   -8.3726    0.0000 C   0  0  0  0  0  0  0  0  0  0  0  0
    5.8534   -9.6101    0.0000 C   0  0  0  0  0  0  0  0  0  0  0  0
    6.5679   -9.1976    0.0000 C   0  0  0  0  0  0  0  0  0  0  0  0
    6.5679   -8.3726    0.0000 C   0  0  0  0  0  0  0  0  0  0  0  0
    5.8534   -7.9601    0.0000 O   0  0  0  0  0  0  0  0  0  0  0  0
    7.2824   -7.9601    0.0000 C   0  0  0  0  0  0  0  0  0  0  0  0
    7.2824   -7.1351    0.0000 C   0  0  0  0  0  0  0  0  0  0  0  0
    7.9969   -8.3726    0.0000 C   0  0  0  0  0  0  0  0  0  0  0  0
    8.7113   -7.9601    0.0000 C   0  0  0  0  0  0  0  0  0  0  0  0
    8.7113   -7.1351    0.0000 C   0  0  0  0  0  0  0  0  0  0  0  0
    7.9969   -6.7226    0.0000 C   0  0  0  0  0  0  0  0  0  0  0  0
    9.4258   -6.7226    0.0000 O   0  0  0  0  0  0  0  0  0  0  0  0
    8.7113   -5.4851    0.0000 C   0  0  0  0  0  0  0  0  0  0  0  0
    7.9969   -5.8976    0.0000 C   0  0  0  0  0  0  0  0  0  0  0  0
    8.7113   -4.6601    0.0000 C   0  0  0  0  0  0  0  0  0  0  0  0
    7.9969   -4.2476    0.0000 C   0  0  0  0  0  0  0  0  0  0  0  0
    2.1706   -7.1351    0.0000 C   0  0  0  0  0  0  0  0  0  0  0  0
    2.5831   -6.4207    0.0000 C   0  0  0  0  0  0  0  0  0  0  0  0
    4.4245  -10.4351    0.0000 O   0  0  0  0  0  0  0  0  0  0  0  0
    5.8534  -10.4351    0.0000 O   0  0  0  0  0  0  0  0  0  0  0  0
    9.4258   -4.2476    0.0000 C   0  0  0  0  0  0  0  0  0  0  0  0
  1  2  1  0  0  0  0
  2  3  1  0  0  0  0
  3  4  2  0  0  0  0
  4  5  1  0  0  0  0
  5  6  2  0  0  0  0
  6  1  1  0  0  0  0
  3  7  1  0  0  0  0
  7  8  2  0  0  0  0
  8  9  1  0  0  0  0
  9 10  2  0  0  0  0
 10  4  1  0  0  0  0
  9 11  1  0  0  0  0
 11 12  1  0  0  0  0
 12 13  1  0  0  0  0
 13 14  1  0  0  0  0
 14 10  1  0  0  0  0
 13 15  1  0  0  0  0
 15 16  1  0  0  0  0
 15 17  2  0  0  0  0
 17 18  1  0  0  0  0
 18 19  2  0  0  0  0
 19 20  1  0  0  0  0
 20 16  2  0  0  0  0
 19 21  1  0  0  0  0
 22 23  1  0  0  0  0
 23 20  1  0  0  0  0
 22 24  2  0  0  0  0
 24 25  1  0  0  0  0
  1 26  1  0  0  0  0
  1 27  1  0  0  0  0
  8 28  1  0  0  0  0
 11 29  2  0  0  0  0
 24 30  1  0  0  0  0
M  END
>  <cdx:fragmentId>
5

$$$$
