90375.cdx
  Mrv1902 05222410272D          

 43 48  0  0  0  0            999 V2000
    2.7756   -5.4989    0.0000 C   0  0  0  0  0  0  0  0  0  0  0  0
    2.7756   -6.3239    0.0000 C   0  0  0  0  0  0  0  0  0  0  0  0
    3.4900   -6.7364    0.0000 C   0  0  0  0  0  0  0  0  0  0  0  0
    4.2045   -6.3239    0.0000 C   0  0  0  0  0  0  0  0  0  0  0  0
    4.2045   -5.4989    0.0000 C   0  0  0  0  0  0  0  0  0  0  0  0
    3.4900   -5.0864    0.0000 C   0  0  0  0  0  0  0  0  0  0  0  0
    4.9190   -6.7364    0.0000 C   0  0  2  0  0  0  0  0  0  0  0  0
    5.6334   -6.3239    0.0000 C   0  0  1  0  0  0  0  0  0  0  0  0
    5.6334   -5.4989    0.0000 C   0  0  2  0  0  0  0  0  0  0  0  0
    4.9190   -5.0864    0.0000 O   0  0  0  0  0  0  0  0  0  0  0  0
    6.3479   -6.7364    0.0000 O   0  0  0  0  0  0  0  0  0  0  0  0
    7.0624   -5.4989    0.0000 C   0  0  0  0  0  0  0  0  0  0  0  0
    6.3479   -5.0864    0.0000 C   0  0  0  0  0  0  0  0  0  0  0  0
    7.7769   -5.0864    0.0000 C   0  0  0  0  0  0  0  0  0  0  0  0
    7.7769   -4.2614    0.0000 C   0  0  0  0  0  0  0  0  0  0  0  0
    7.0624   -3.8489    0.0000 C   0  0  0  0  0  0  0  0  0  0  0  0
    6.3479   -4.2614    0.0000 C   0  0  0  0  0  0  0  0  0  0  0  0
    4.9190   -7.9189    0.0000 C   0  0  0  0  0  0  0  0  0  0  0  0
    4.2045   -8.3314    0.0000 C   0  0  0  0  0  0  0  0  0  0  0  0
    4.2045   -9.1564    0.0000 C   0  0  0  0  0  0  0  0  0  0  0  0
    4.9190   -9.5689    0.0000 C   0  0  0  0  0  0  0  0  0  0  0  0
    5.6334   -9.1564    0.0000 C   0  0  0  0  0  0  0  0  0  0  0  0
    5.6334   -8.3314    0.0000 C   0  0  0  0  0  0  0  0  0  0  0  0
    3.4900   -9.5689    0.0000 C   0  0  0  0  0  0  0  0  0  0  0  0
    3.4900  -10.3939    0.0000 C   0  0  1  0  0  0  0  0  0  0  0  0
    4.2045  -10.8064    0.0000 C   0  0  0  0  0  0  0  0  0  0  0  0
    4.9190  -10.3939    0.0000 O   0  0  0  0  0  0  0  0  0  0  0  0
    2.7756  -10.8064    0.0000 O   0  0  0  0  0  0  0  0  0  0  0  0
    3.4900  -12.0439    0.0000 C   0  0  0  0  0  0  0  0  0  0  0  0
    4.2045  -11.6314    0.0000 C   0  0  0  0  0  0  0  0  0  0  0  0
    3.4900  -12.8689    0.0000 C   0  0  0  0  0  0  0  0  0  0  0  0
    4.2045  -13.2814    0.0000 C   0  0  0  0  0  0  0  0  0  0  0  0
    4.9190  -12.8689    0.0000 C   0  0  0  0  0  0  0  0  0  0  0  0
    4.9190  -12.0439    0.0000 C   0  0  0  0  0  0  0  0  0  0  0  0
    3.4900   -7.5614    0.0000 O   0  0  0  0  0  0  0  0  0  0  0  0
    2.0611   -5.0864    0.0000 O   0  0  0  0  0  0  0  0  0  0  0  0
    8.4913   -3.8489    0.0000 O   0  0  0  0  0  0  0  0  0  0  0  0
    3.4900   -7.9189    0.0000 O   0  0  0  0  0  0  0  0  0  0  0  0
    6.3479   -7.9189    0.0000 O   0  0  0  0  0  0  0  0  0  0  0  0
    2.7756  -13.2814    0.0000 O   0  0  0  0  0  0  0  0  0  0  0  0
    4.2045  -14.1064    0.0000 O   0  0  0  0  0  0  0  0  0  0  0  0
    8.4913   -5.4989    0.0000 O   0  0  0  0  0  0  0  0  0  0  0  0
    7.0624   -3.0239    0.0000 O   0  0  0  0  0  0  0  0  0  0  0  0
  1  2  2  0  0  0  0
  2  3  1  0  0  0  0
  3  4  2  0  0  0  0
  4  5  1  0  0  0  0
  5  6  2  0  0  0  0
  6  1  1  0  0  0  0
  4  7  1  0  0  0  0
  7  8  1  0  0  0  0
  8  9  1  0  0  0  0
  9 10  1  0  0  0  0
 10  5  1  0  0  0  0
  8 11  1  1  0  0  0
 12 13  2  0  0  0  0
  9 13  1  6  0  0  0
 12 14  1  0  0  0  0
 14 15  2  0  0  0  0
 15 16  1  0  0  0  0
 16 17  2  0  0  0  0
 17 13  1  0  0  0  0
  7 18  1  6  0  0  0
 18 19  1  0  0  0  0
 19 20  2  0  0  0  0
 20 21  1  0  0  0  0
 21 22  2  0  0  0  0
 22 23  1  0  0  0  0
 23 18  2  0  0  0  0
 20 24  1  0  0  0  0
 24 25  1  0  0  0  0
 25 26  1  0  0  0  0
 26 27  1  0  0  0  0
 27 21  1  0  0  0  0
 25 28  1  1  0  0  0
 29 30  2  0  0  0  0
 30 26  1  6  0  0  0
 29 31  1  0  0  0  0
 31 32  2  0  0  0  0
 32 33  1  0  0  0  0
 33 34  2  0  0  0  0
 34 30  1  0  0  0  0
  3 35  1  0  0  0  0
  1 36  1  0  0  0  0
 15 37  1  0  0  0  0
 19 38  1  0  0  0  0
 23 39  1  0  0  0  0
 31 40  1  0  0  0  0
 32 41  1  0  0  0  0
 14 42  1  0  0  0  0
 16 43  1  0  0  0  0
M  END
>  <cdx:fragmentId>
5

$$$$
