90372.cdx
  Mrv1902 05222410282D          

 19 18  0  0  0  0            999 V2000
   12.4339   -5.2239    0.0000 C   0  0  0  0  0  0  0  0  0  0  0  0
   11.7194   -5.6364    0.0000 C   0  0  0  0  0  0  0  0  0  0  0  0
   11.0049   -5.2239    0.0000 O   0  0  0  0  0  0  0  0  0  0  0  0
   10.2905   -5.6364    0.0000 C   0  0  0  0  0  0  0  0  0  0  0  0
    9.5760   -5.2239    0.0000 C   0  0  0  0  0  0  0  0  0  0  0  0
    8.8615   -5.6364    0.0000 C   0  0  0  0  0  0  0  0  0  0  0  0
    8.1470   -5.2239    0.0000 C   0  0  0  0  0  0  0  0  0  0  0  0
    7.4326   -5.6364    0.0000 C   0  0  0  0  0  0  0  0  0  0  0  0
    6.7181   -5.2239    0.0000 C   0  0  0  0  0  0  0  0  0  0  0  0
    6.0036   -5.6364    0.0000 C   0  0  0  0  0  0  0  0  0  0  0  0
    5.2892   -5.2239    0.0000 C   0  0  0  0  0  0  0  0  0  0  0  0
    4.5747   -5.6364    0.0000 C   0  0  0  0  0  0  0  0  0  0  0  0
    3.8602   -5.2239    0.0000 C   0  0  0  0  0  0  0  0  0  0  0  0
    3.1457   -5.6364    0.0000 C   0  0  0  0  0  0  0  0  0  0  0  0
    2.4313   -5.2239    0.0000 C   0  0  0  0  0  0  0  0  0  0  0  0
   11.7194   -6.4614    0.0000 O   0  0  0  0  0  0  0  0  0  0  0  0
    8.8615   -6.4614    0.0000 C   0  0  0  0  0  0  0  0  0  0  0  0
    6.0036   -6.4614    0.0000 C   0  0  0  0  0  0  0  0  0  0  0  0
    3.1457   -6.4614    0.0000 C   0  0  0  0  0  0  0  0  0  0  0  0
  1  2  1  0  0  0  0
  2  3  1  0  0  0  0
  3  4  1  0  0  0  0
  4  5  1  0  0  0  0
  5  6  2  0  0  0  0
  6  7  1  0  0  0  0
  7  8  1  0  0  0  0
  8  9  1  0  0  0  0
  9 10  2  0  0  0  0
 10 11  1  0  0  0  0
 11 12  1  0  0  0  0
 12 13  1  0  0  0  0
 13 14  2  0  0  0  0
 14 15  1  0  0  0  0
  2 16  2  0  0  0  0
  6 17  1  0  0  0  0
 10 18  1  0  0  0  0
 14 19  1  0  0  0  0
M  END
>  <cdx:fragmentId>
3

$$$$
