90379.cdx
  Mrv1902 05222410192D          

 40 43  0  0  0  0            999 V2000
    2.9956   -9.9814    0.0000 C   0  0  0  0  0  0  0  0  0  0  0  0
    2.9956  -10.8064    0.0000 C   0  0  1  0  0  0  0  0  0  0  0  0
    3.7100  -11.2189    0.0000 C   0  0  0  0  0  0  0  0  0  0  0  0
    4.4245  -10.8064    0.0000 C   0  0  1  0  0  0  0  0  0  0  0  0
    4.4245   -9.9814    0.0000 C   0  0  2  0  0  0  0  0  0  0  0  0
    3.7100   -9.5689    0.0000 C   0  0  0  0  0  0  0  0  0  0  0  0
    5.1390  -11.2189    0.0000 C   0  0  0  0  0  0  0  0  0  0  0  0
    5.8534  -10.8064    0.0000 C   0  0  0  0  0  0  0  0  0  0  0  0
    5.8534   -9.9814    0.0000 C   0  0  0  0  0  0  0  0  0  0  0  0
    5.1390   -9.5689    0.0000 C   0  0  0  0  0  0  0  0  0  0  0  0
    6.5679   -9.5689    0.0000 C   0  0  1  0  0  0  0  0  0  0  0  0
    6.5679   -8.7439    0.0000 C   0  0  2  0  0  0  0  0  0  0  0  0
    5.8534   -8.3314    0.0000 C   0  0  1  0  0  0  0  0  0  0  0  0
    5.1390   -8.7439    0.0000 C   0  0  0  0  0  0  0  0  0  0  0  0
    4.4245   -8.3314    0.0000 O   0  0  0  0  0  0  0  0  0  0  0  0
    7.3525   -9.8238    0.0000 C   0  0  0  0  0  0  0  0  0  0  0  0
    7.8375   -9.1564    0.0000 C   0  0  0  0  0  0  0  0  0  0  0  0
    7.3525   -8.4890    0.0000 C   0  0  2  0  0  0  0  0  0  0  0  0
    7.6075   -7.7043    0.0000 C   0  0  2  0  0  0  0  0  0  0  0  0
    7.0554   -7.0912    0.0000 C   0  0  0  0  0  0  0  0  0  0  0  0
    8.4144   -7.5328    0.0000 C   0  0  0  0  0  0  0  0  0  0  0  0
    8.6280   -6.7359    0.0000 C   0  0  1  0  0  0  0  0  0  0  0  0
    9.4249   -6.5224    0.0000 C   0  0  0  0  0  0  0  0  0  0  0  0
    8.0446   -6.1526    0.0000 O   0  0  0  0  0  0  0  0  0  0  0  0
    9.6384   -5.7255    0.0000 C   0  0  0  0  0  0  0  0  0  0  0  0
   10.4353   -5.5120    0.0000 C   0  0  0  0  0  0  0  0  0  0  0  0
    9.0550   -5.1421    0.0000 C   0  0  0  0  0  0  0  0  0  0  0  0
   11.0186   -6.0953    0.0000 O   0  0  0  0  0  0  0  0  0  0  0  0
   10.6488   -4.7151    0.0000 O   0  0  0  0  0  0  0  0  0  0  0  0
    2.2811  -11.2189    0.0000 O   0  0  0  0  0  0  0  0  0  0  0  0
    4.4245   -9.1564    0.0000 C   0  0  0  0  0  0  0  0  0  0  0  0
    3.2975  -11.9334    0.0000 C   0  0  0  0  0  0  0  0  0  0  0  0
    4.1225  -11.9334    0.0000 C   0  0  0  0  0  0  0  0  0  0  0  0
    6.5679  -11.2189    0.0000 O   0  0  0  0  0  0  0  0  0  0  0  0
    7.6075  -10.6085    0.0000 O   0  0  0  0  0  0  0  0  0  0  0  0
    6.5679  -10.3939    0.0000 C   0  0  0  0  0  0  0  0  0  0  0  0
    6.5679   -7.9189    0.0000 C   0  0  0  0  0  0  0  0  0  0  0  0
    4.4245  -11.6314    0.0000 H   0  0  0  0  0  0  0  0  0  0  0  0
    8.1494   -8.2754    0.0000 H   0  0  0  0  0  0  0  0  0  0  0  0
    5.8534   -7.5064    0.0000 O   0  0  0  0  0  0  0  0  0  0  0  0
  1  2  1  0  0  0  0
  2  3  1  0  0  0  0
  3  4  1  0  0  0  0
  4  5  1  0  0  0  0
  5  6  1  0  0  0  0
  6  1  1  0  0  0  0
  4  7  1  0  0  0  0
  7  8  1  0  0  0  0
  8  9  1  0  0  0  0
  9 10  2  0  0  0  0
 10  5  1  0  0  0  0
  9 11  1  0  0  0  0
 11 12  1  0  0  0  0
 12 13  1  0  0  0  0
 13 14  1  0  0  0  0
 14 10  1  0  0  0  0
 15 14  2  0  0  0  0
 11 16  1  0  0  0  0
 16 17  1  0  0  0  0
 17 18  1  0  0  0  0
 18 12  1  0  0  0  0
 18 19  1  0  0  0  0
 19 20  1  6  0  0  0
 19 21  1  0  0  0  0
 21 22  1  0  0  0  0
 22 23  1  0  0  0  0
 22 24  1  6  0  0  0
 23 25  2  0  0  0  0
 25 26  1  0  0  0  0
 25 27  1  0  0  0  0
 26 28  2  0  0  0  0
 26 29  1  0  0  0  0
  2 30  1  1  0  0  0
  5 31  1  1  0  0  0
  3 32  1  0  0  0  0
  3 33  1  0  0  0  0
  8 34  2  0  0  0  0
 16 35  2  0  0  0  0
 11 36  1  6  0  0  0
 12 37  1  1  0  0  0
  4 38  1  6  0  0  0
 18 39  1  6  0  0  0
 13 40  1  1  0  0  0
M  END
>  <cdx:fragmentId>
5

$$$$
