90371.cdx
  Mrv1902 05222410272D          

 25 28  0  0  0  0            999 V2000
    5.5748   -8.3817    0.0000 C   0  0  1  0  0  0  0  0  0  0  0  0
    5.3988   -9.1877    0.0000 C   0  0  1  0  0  0  0  0  0  0  0  0
    5.9192   -9.8278    0.0000 C   0  0  2  0  0  0  0  0  0  0  0  0
    6.7441   -9.8201    0.0000 C   0  0  0  0  0  0  0  0  0  0  0  0
    7.2524   -9.1703    0.0000 C   0  0  2  0  0  0  0  0  0  0  0  0
    7.0614   -8.3678    0.0000 C   0  0  0  0  0  0  0  0  0  0  0  0
    6.3147   -8.0168    0.0000 C   0  0  1  0  0  0  0  0  0  0  0  0
    4.8627   -7.9652    0.0000 C   0  0  0  0  0  0  0  0  0  0  0  0
    4.2465   -8.5137    0.0000 C   0  0  0  0  0  0  0  0  0  0  0  0
    4.5778   -9.2693    0.0000 C   0  0  2  0  0  0  0  0  0  0  0  0
    5.6716  -10.6148    0.0000 O   0  0  0  0  0  0  0  0  0  0  0  0
    6.3435  -11.0935    0.0000 C   0  0  0  0  0  0  0  0  0  0  0  0
    7.0064  -10.6148    0.0000 C   0  0  0  0  0  0  0  0  0  0  0  0
    6.3462  -11.9185    0.0000 O   0  0  0  0  0  0  0  0  0  0  0  0
    7.7912  -10.8691    0.0000 C   0  0  0  0  0  0  0  0  0  0  0  0
    8.0584   -9.3464    0.0000 O   0  0  0  0  0  0  0  0  0  0  0  0
    8.6139   -8.7364    0.0000 C   0  0  0  0  0  0  0  0  0  0  0  0
    9.4199   -8.9124    0.0000 C   0  0  0  0  0  0  0  0  0  0  0  0
    8.3634   -7.9504    0.0000 O   0  0  0  0  0  0  0  0  0  0  0  0
    4.9836   -7.3509    0.0000 O   0  0  0  0  0  0  0  0  0  0  0  0
    3.6433   -8.5130    0.0000 O   0  0  0  0  0  0  0  0  0  0  0  0
    4.3414  -10.0597    0.0000 C   0  0  0  0  0  0  0  0  0  0  0  0
    5.1852   -9.9845    0.0000 H   0  0  0  0  0  0  0  0  0  0  0  0
    6.7272   -7.3023    0.0000 O   0  0  0  0  0  0  0  0  0  0  0  0
    5.9022   -7.3023    0.0000 C   0  0  0  0  0  0  0  0  0  0  0  0
  1  2  1  0  0  0  0
  2  3  1  0  0  0  0
  3  4  1  0  0  0  0
  4  5  1  0  0  0  0
  5  6  1  0  0  0  0
  6  7  1  0  0  0  0
  7  1  1  0  0  0  0
  1  8  1  0  0  0  0
  8  9  2  0  0  0  0
  9 10  1  0  0  0  0
 10  2  1  0  0  0  0
  3 11  1  6  0  0  0
 11 12  1  0  0  0  0
 12 13  1  0  0  0  0
 13  4  1  0  0  0  0
 12 14  2  0  0  0  0
 13 15  2  0  0  0  0
  5 16  1  6  0  0  0
 16 17  1  0  0  0  0
 17 18  1  0  0  0  0
 17 19  2  0  0  0  0
  1 20  1  1  0  0  0
 10 21  1  1  0  0  0
 21 20  1  0  0  0  0
 10 22  1  6  0  0  0
  2 23  1  6  0  0  0
  7 24  1  6  0  0  0
  7 25  1  1  0  0  0
M  END
>  <cdx:fragmentId>
5

$$$$
