90385.cdx
  Mrv1902 05222410202D          

 38 40  0  0  0  0            999 V2000
    2.5074   -8.7888    0.0000 C   0  0  0  0  0  0  0  0  0  0  0  0
    2.5101   -9.6135    0.0000 C   0  0  0  0  0  0  0  0  0  0  0  0
    3.2257  -10.0235    0.0000 C   0  0  0  0  0  0  0  0  0  0  0  0
    3.9386   -9.6088    0.0000 C   0  0  0  0  0  0  0  0  0  0  0  0
    3.9358   -8.7840    0.0000 C   0  0  0  0  0  0  0  0  0  0  0  0
    3.2202   -8.3740    0.0000 C   0  0  0  0  0  0  0  0  0  0  0  0
    4.6542  -10.0188    0.0000 C   0  0  0  0  0  0  0  0  0  0  0  0
    5.3670   -9.6040    0.0000 C   0  0  0  0  0  0  0  0  0  0  0  0
    6.0827  -10.0140    0.0000 C   0  0  0  0  0  0  0  0  0  0  0  0
    6.7955   -9.5993    0.0000 O   0  0  0  0  0  0  0  0  0  0  0  0
    7.5111  -10.0093    0.0000 C   0  0  0  0  0  0  0  0  0  0  0  0
    8.2240   -9.5946    0.0000 C   0  0  0  0  0  0  0  0  0  0  0  0
    8.9396  -10.0046    0.0000 C   0  0  0  0  0  0  0  0  0  0  0  0
    9.6525   -9.5898    0.0000 C   0  0  0  0  0  0  0  0  0  0  0  0
   10.3681   -9.9998    0.0000 C   0  0  0  0  0  0  0  0  0  0  0  0
   11.0810   -9.5851    0.0000 C   0  0  0  0  0  0  0  0  0  0  0  0
   11.7966   -9.9951    0.0000 C   0  0  0  0  0  0  0  0  0  0  0  0
   12.5095   -9.5804    0.0000 C   0  0  0  0  0  0  0  0  0  0  0  0
   13.2251   -9.9904    0.0000 C   0  0  0  0  0  0  0  0  0  0  0  0
   13.9380   -9.5757    0.0000 C   0  0  0  0  0  0  0  0  0  0  0  0
   14.6925   -9.9086    0.0000 C   0  0  0  0  0  0  0  0  0  0  0  0
   15.2423   -9.2939    0.0000 C   0  0  2  0  0  0  0  0  0  0  0  0
   14.8276   -8.5810    0.0000 O   0  0  0  0  0  0  0  0  0  0  0  0
   14.0214   -8.7552    0.0000 C   0  0  0  0  0  0  0  0  0  0  0  0
   16.0671   -9.2912    0.0000 C   0  0  0  0  0  0  0  0  0  0  0  0
   16.4818  -10.0040    0.0000 C   0  0  0  0  0  0  0  0  0  0  0  0
   17.3065  -10.0013    0.0000 C   0  0  0  0  0  0  0  0  0  0  0  0
   17.7165   -9.2857    0.0000 C   0  0  0  0  0  0  0  0  0  0  0  0
   17.3018   -8.5728    0.0000 C   0  0  0  0  0  0  0  0  0  0  0  0
   16.4771   -8.5756    0.0000 C   0  0  0  0  0  0  0  0  0  0  0  0
    1.7917   -8.3787    0.0000 O   0  0  0  0  0  0  0  0  0  0  0  0
    6.0854  -10.8388    0.0000 O   0  0  0  0  0  0  0  0  0  0  0  0
    8.2213   -8.7698    0.0000 C   0  0  0  0  0  0  0  0  0  0  0  0
   11.0783   -8.7604    0.0000 C   0  0  0  0  0  0  0  0  0  0  0  0
   10.4170   -8.2675    0.0000 O   0  0  0  0  0  0  0  0  0  0  0  0
   13.4067   -8.2053    0.0000 O   0  0  0  0  0  0  0  0  0  0  0  0
   16.0623   -7.8627    0.0000 O   0  0  0  0  0  0  0  0  0  0  0  0
   17.7213  -10.7142    0.0000 O   0  0  0  0  0  0  0  0  0  0  0  0
  1  2  1  0  0  0  0
  2  3  2  0  0  0  0
  3  4  1  0  0  0  0
  4  5  2  0  0  0  0
  5  6  1  0  0  0  0
  6  1  2  0  0  0  0
  4  7  1  0  0  0  0
  7  8  2  0  0  0  0
  8  9  1  0  0  0  0
  9 10  1  0  0  0  0
 10 11  1  0  0  0  0
 11 12  1  0  0  0  0
 12 13  2  0  0  0  0
 13 14  1  0  0  0  0
 14 15  1  0  0  0  0
 15 16  1  0  0  0  0
 16 17  2  0  0  0  0
 17 18  1  0  0  0  0
 18 19  1  0  0  0  0
 19 20  1  0  0  0  0
 20 21  2  0  0  0  0
 21 22  1  0  0  0  0
 22 23  1  0  0  0  0
 23 24  1  0  0  0  0
 24 20  1  0  0  0  0
 22 25  1  6  0  0  0
 25 26  2  0  0  0  0
 26 27  1  0  0  0  0
 27 28  2  0  0  0  0
 28 29  1  0  0  0  0
 29 30  2  0  0  0  0
 30 25  1  0  0  0  0
  1 31  1  0  0  0  0
  9 32  2  0  0  0  0
 12 33  1  0  0  0  0
 16 34  1  0  0  0  0
 34 35  1  0  0  0  0
 24 36  2  0  0  0  0
 30 37  1  0  0  0  0
 27 38  1  0  0  0  0
M  END
>  <cdx:fragmentId>
5

$$$$
