90382.cdx
  Mrv1902 05222410182D          

 32 35  0  0  0  0            999 V2000
    3.3668   -9.8164    0.0000 C   0  0  0  0  0  0  0  0  0  0  0  0
    3.3668  -10.6414    0.0000 C   0  0  1  0  0  0  0  0  0  0  0  0
    4.0813  -11.0539    0.0000 C   0  0  0  0  0  0  0  0  0  0  0  0
    4.7957  -10.6414    0.0000 C   0  0  1  0  0  0  0  0  0  0  0  0
    4.7957   -9.8164    0.0000 C   0  0  2  0  0  0  0  0  0  0  0  0
    4.0813   -9.4039    0.0000 C   0  0  0  0  0  0  0  0  0  0  0  0
    5.5102  -11.0539    0.0000 C   0  0  0  0  0  0  0  0  0  0  0  0
    6.2247  -10.6414    0.0000 C   0  0  1  0  0  0  0  0  0  0  0  0
    6.2247   -9.8164    0.0000 C   0  0  0  0  0  0  0  0  0  0  0  0
    5.5102   -9.4039    0.0000 C   0  0  0  0  0  0  0  0  0  0  0  0
    6.9392   -9.4039    0.0000 C   0  0  1  0  0  0  0  0  0  0  0  0
    6.9392   -8.5789    0.0000 C   0  0  2  0  0  0  0  0  0  0  0  0
    6.2247   -8.1664    0.0000 C   0  0  0  0  0  0  0  0  0  0  0  0
    5.5102   -8.5789    0.0000 C   0  0  0  0  0  0  0  0  0  0  0  0
    7.7238   -9.6588    0.0000 C   0  0  2  0  0  0  0  0  0  0  0  0
    8.2087   -8.9914    0.0000 C   0  0  0  0  0  0  0  0  0  0  0  0
    7.7238   -8.3240    0.0000 C   0  0  2  0  0  0  0  0  0  0  0  0
    4.7957   -8.1664    0.0000 O   0  0  0  0  0  0  0  0  0  0  0  0
    7.9787   -7.5393    0.0000 C   0  0  2  0  0  0  0  0  0  0  0  0
    7.4267   -6.9262    0.0000 C   0  0  0  0  0  0  0  0  0  0  0  0
    8.7857   -7.3678    0.0000 C   0  0  0  0  0  0  0  0  0  0  0  0
    8.9992   -6.5709    0.0000 O   0  0  0  0  0  0  0  0  0  0  0  0
    2.6523  -11.0539    0.0000 O   0  0  0  0  0  0  0  0  0  0  0  0
    3.6688  -11.7684    0.0000 C   0  0  0  0  0  0  0  0  0  0  0  0
    6.9392  -11.0539    0.0000 O   0  0  0  0  0  0  0  0  0  0  0  0
    4.7957   -8.9914    0.0000 C   0  0  0  0  0  0  0  0  0  0  0  0
    6.9392   -7.7539    0.0000 C   0  0  0  0  0  0  0  0  0  0  0  0
    4.4938  -11.7684    0.0000 C   0  0  0  0  0  0  0  0  0  0  0  0
    6.9392  -10.2289    0.0000 C   0  0  0  0  0  0  0  0  0  0  0  0
    7.9787  -10.4435    0.0000 O   0  0  0  0  0  0  0  0  0  0  0  0
    4.7957  -11.4664    0.0000 H   0  0  0  0  0  0  0  0  0  0  0  0
    8.5084   -8.0690    0.0000 H   0  0  0  0  0  0  0  0  0  0  0  0
  1  2  1  0  0  0  0
  2  3  1  0  0  0  0
  3  4  1  0  0  0  0
  4  5  1  0  0  0  0
  5  6  1  0  0  0  0
  6  1  1  0  0  0  0
  4  7  1  0  0  0  0
  7  8  1  0  0  0  0
  8  9  1  0  0  0  0
  9 10  2  0  0  0  0
 10  5  1  0  0  0  0
  9 11  1  0  0  0  0
 11 12  1  0  0  0  0
 12 13  1  0  0  0  0
 13 14  1  0  0  0  0
 14 10  1  0  0  0  0
 11 15  1  0  0  0  0
 15 16  1  0  0  0  0
 16 17  1  0  0  0  0
 17 12  1  0  0  0  0
 14 18  2  0  0  0  0
 17 19  1  0  0  0  0
 19 20  1  6  0  0  0
 19 21  1  0  0  0  0
 21 22  1  0  0  0  0
  2 23  1  1  0  0  0
  3 24  1  0  0  0  0
  8 25  1  1  0  0  0
  5 26  1  1  0  0  0
 12 27  1  1  0  0  0
  3 28  1  0  0  0  0
 11 29  1  6  0  0  0
 15 30  1  6  0  0  0
  4 31  1  6  0  0  0
 17 32  1  6  0  0  0
M  END
>  <cdx:fragmentId>
5

$$$$
