90383.cdx
  Mrv1902 05222410192D          

 19 21  0  0  0  0            999 V2000
    5.3224   -9.6878    0.0000 C   0  0  0  0  0  0  0  0  0  0  0  0
    6.3804   -9.2125    0.0000 C   0  0  1  0  0  0  0  0  0  0  0  0
    7.5346   -9.5778    0.0000 C   0  0  1  0  0  0  0  0  0  0  0  0
    7.9483   -8.8641    0.0000 C   0  0  1  0  0  0  0  0  0  0  0  0
    5.3098   -8.5479    0.0000 C   0  0  0  0  0  0  0  0  0  0  0  0
    6.4091   -8.4163    0.0000 C   0  0  1  0  0  0  0  0  0  0  0  0
    7.1794   -7.6613    0.0000 C   0  0  0  0  0  0  0  0  0  0  0  0
    4.8502   -9.1313    0.0000 C   0  0  0  0  0  0  0  0  0  0  0  0
    8.0856  -10.1918    0.0000 C   0  0  0  0  0  0  0  0  0  0  0  0
    8.8398   -9.8576    0.0000 C   0  0  2  0  0  0  0  0  0  0  0  0
    8.7549   -9.0370    0.0000 C   0  0  0  0  0  0  0  0  0  0  0  0
    4.9061   -7.8284    0.0000 O   0  0  0  0  0  0  0  0  0  0  0  0
    5.1404  -10.4925    0.0000 C   0  0  0  0  0  0  0  0  0  0  0  0
    4.3435  -10.7060    0.0000 O   0  0  0  0  0  0  0  0  0  0  0  0
    6.1955   -7.6194    0.0000 H   0  0  0  0  0  0  0  0  0  0  0  0
    8.3608   -8.1497    0.0000 C   0  0  0  0  0  0  0  0  0  0  0  0
    7.1221  -10.2923    0.0000 C   0  0  0  0  0  0  0  0  0  0  0  0
    9.5535  -10.2713    0.0000 O   0  0  0  0  0  0  0  0  0  0  0  0
    6.3804  -10.0375    0.0000 H   0  0  0  0  0  0  0  0  0  0  0  0
  1  2  1  0  0  0  0
  2  3  1  0  0  0  0
  3  4  1  0  0  0  0
  5  6  1  0  0  0  0
  4  6  1  0  0  0  0
  6  7  1  0  0  0  0
  2  7  1  0  0  0  0
  5  8  1  0  0  0  0
  1  8  2  0  0  0  0
  3  9  1  0  0  0  0
  9 10  1  0  0  0  0
 10 11  1  0  0  0  0
 11  4  1  0  0  0  0
  5 12  2  0  0  0  0
  1 13  1  0  0  0  0
 13 14  1  0  0  0  0
  6 15  1  6  0  0  0
  4 16  1  6  0  0  0
  3 17  1  6  0  0  0
 10 18  1  6  0  0  0
  2 19  1  1  0  0  0
M  END
>  <cdx:groupId>
799

>  <cdx:fragmentId>
800

$$$$
