90384.cdx
  Mrv1902 05222410202D          

 38 40  0  0  0  0            999 V2000
    1.7433   -9.5160    0.0000 C   0  0  0  0  0  0  0  0  0  0  0  0
    1.7471  -10.3407    0.0000 C   0  0  0  0  0  0  0  0  0  0  0  0
    2.4633  -10.7497    0.0000 C   0  0  0  0  0  0  0  0  0  0  0  0
    3.1756  -10.3340    0.0000 C   0  0  0  0  0  0  0  0  0  0  0  0
    3.1718   -9.5093    0.0000 C   0  0  0  0  0  0  0  0  0  0  0  0
    2.4556   -9.1003    0.0000 C   0  0  0  0  0  0  0  0  0  0  0  0
    3.8918  -10.7431    0.0000 C   0  0  0  0  0  0  0  0  0  0  0  0
    4.6041  -10.3274    0.0000 C   0  0  0  0  0  0  0  0  0  0  0  0
    5.3202  -10.7364    0.0000 C   0  0  0  0  0  0  0  0  0  0  0  0
    6.0326  -10.3207    0.0000 O   0  0  0  0  0  0  0  0  0  0  0  0
    6.7487  -10.7297    0.0000 C   0  0  0  0  0  0  0  0  0  0  0  0
    7.4610  -10.3141    0.0000 C   0  0  0  0  0  0  0  0  0  0  0  0
    8.1772  -10.7231    0.0000 C   0  0  0  0  0  0  0  0  0  0  0  0
    8.8895  -10.3074    0.0000 C   0  0  0  0  0  0  0  0  0  0  0  0
    9.6057  -10.7164    0.0000 C   0  0  0  0  0  0  0  0  0  0  0  0
   10.3180  -10.3007    0.0000 C   0  0  0  0  0  0  0  0  0  0  0  0
   11.0341  -10.7098    0.0000 C   0  0  0  0  0  0  0  0  0  0  0  0
   11.7465  -10.2941    0.0000 C   0  0  0  0  0  0  0  0  0  0  0  0
   12.4626  -10.7031    0.0000 C   0  0  0  0  0  0  0  0  0  0  0  0
   13.1749  -10.2874    0.0000 C   0  0  0  0  0  0  0  0  0  0  0  0
   13.9299  -10.6194    0.0000 C   0  0  0  0  0  0  0  0  0  0  0  0
   14.4789  -10.0039    0.0000 C   0  0  1  0  0  0  0  0  0  0  0  0
   14.0632   -9.2916    0.0000 O   0  0  0  0  0  0  0  0  0  0  0  0
   13.2573   -9.4668    0.0000 C   0  0  0  0  0  0  0  0  0  0  0  0
   15.3037  -10.0000    0.0000 C   0  0  0  0  0  0  0  0  0  0  0  0
   15.7193  -10.7124    0.0000 C   0  0  0  0  0  0  0  0  0  0  0  0
   16.5441  -10.7085    0.0000 C   0  0  0  0  0  0  0  0  0  0  0  0
   16.9531   -9.9923    0.0000 C   0  0  0  0  0  0  0  0  0  0  0  0
   16.5374   -9.2800    0.0000 C   0  0  0  0  0  0  0  0  0  0  0  0
   15.7127   -9.2839    0.0000 C   0  0  0  0  0  0  0  0  0  0  0  0
    1.0271   -9.1069    0.0000 O   0  0  0  0  0  0  0  0  0  0  0  0
    5.3241  -11.5611    0.0000 O   0  0  0  0  0  0  0  0  0  0  0  0
    7.4572   -9.4893    0.0000 C   0  0  0  0  0  0  0  0  0  0  0  0
   10.3141   -9.4760    0.0000 C   0  0  0  0  0  0  0  0  0  0  0  0
    9.6522   -8.9840    0.0000 O   0  0  0  0  0  0  0  0  0  0  0  0
   12.6419   -8.9178    0.0000 O   0  0  0  0  0  0  0  0  0  0  0  0
   15.2970   -8.5716    0.0000 O   0  0  0  0  0  0  0  0  0  0  0  0
   16.9598  -11.4208    0.0000 O   0  0  0  0  0  0  0  0  0  0  0  0
  1  2  1  0  0  0  0
  2  3  2  0  0  0  0
  3  4  1  0  0  0  0
  4  5  2  0  0  0  0
  5  6  1  0  0  0  0
  6  1  2  0  0  0  0
  4  7  1  0  0  0  0
  7  8  2  0  0  0  0
  8  9  1  0  0  0  0
  9 10  1  0  0  0  0
 10 11  1  0  0  0  0
 11 12  1  0  0  0  0
 12 13  2  0  0  0  0
 13 14  1  0  0  0  0
 14 15  1  0  0  0  0
 15 16  1  0  0  0  0
 16 17  2  0  0  0  0
 17 18  1  0  0  0  0
 18 19  1  0  0  0  0
 19 20  1  0  0  0  0
 20 21  2  0  0  0  0
 21 22  1  0  0  0  0
 22 23  1  0  0  0  0
 23 24  1  0  0  0  0
 24 20  1  0  0  0  0
 22 25  1  1  0  0  0
 25 26  2  0  0  0  0
 26 27  1  0  0  0  0
 27 28  2  0  0  0  0
 28 29  1  0  0  0  0
 29 30  2  0  0  0  0
 30 25  1  0  0  0  0
  1 31  1  0  0  0  0
  9 32  2  0  0  0  0
 12 33  1  0  0  0  0
 16 34  1  0  0  0  0
 34 35  1  0  0  0  0
 24 36  2  0  0  0  0
 30 37  1  0  0  0  0
 27 38  1  0  0  0  0
M  END
>  <cdx:fragmentId>
5

$$$$
