903893.cdx
  Mrv1902 05222410272D          

 35 37  0  0  0  0            999 V2000
    8.6212   -6.8147    0.0000 C   0  0  0  0  0  0  0  0  0  0  0  0
    8.6212   -7.6397    0.0000 C   0  0  0  0  0  0  0  0  0  0  0  0
    9.3356   -8.0522    0.0000 C   0  0  0  0  0  0  0  0  0  0  0  0
    9.3356   -8.8772    0.0000 C   0  0  0  0  0  0  0  0  0  0  0  0
    8.6212   -9.2897    0.0000 C   0  0  0  0  0  0  0  0  0  0  0  0
    7.9067   -8.8772    0.0000 C   0  0  0  0  0  0  0  0  0  0  0  0
    7.9067   -8.0522    0.0000 C   0  0  0  0  0  0  0  0  0  0  0  0
    7.9067   -6.4022    0.0000 O   0  0  0  0  0  0  0  0  0  0  0  0
    9.3356   -6.4022    0.0000 O   0  0  0  0  0  0  0  0  0  0  0  0
    8.6212  -10.1147    0.0000 O   0  0  0  0  0  0  0  0  0  0  0  0
   10.0501   -7.6397    0.0000 C   0  0  0  0  0  0  0  0  0  0  0  0
   10.7646   -8.0522    0.0000 C   0  0  0  0  0  0  0  0  0  0  0  0
   11.4790   -7.6397    0.0000 C   0  0  0  0  0  0  0  0  0  0  0  0
   12.1935   -8.0522    0.0000 C   0  0  0  0  0  0  0  0  0  0  0  0
   12.1935   -8.8772    0.0000 C   0  0  0  0  0  0  0  0  0  0  0  0
   11.4790   -9.2897    0.0000 C   0  0  0  0  0  0  0  0  0  0  0  0
   10.7646   -8.8772    0.0000 C   0  0  0  0  0  0  0  0  0  0  0  0
    7.1922   -7.6397    0.0000 O   0  0  0  0  0  0  0  0  0  0  0  0
    6.4777   -8.0522    0.0000 C   0  0  0  0  0  0  0  0  0  0  0  0
    6.4777   -8.8772    0.0000 C   0  0  2  0  0  0  0  0  0  0  0  0
    7.1922   -9.2897    0.0000 O   0  0  0  0  0  0  0  0  0  0  0  0
    5.7633   -9.2897    0.0000 C   0  0  1  0  0  0  0  0  0  0  0  0
    5.7633  -10.1147    0.0000 O   0  0  0  0  0  0  0  0  0  0  0  0
    5.0488   -8.8772    0.0000 C   0  0  2  0  0  0  0  0  0  0  0  0
    4.3343   -9.2897    0.0000 O   0  0  0  0  0  0  0  0  0  0  0  0
    5.0488   -8.0522    0.0000 C   0  0  2  0  0  0  0  0  0  0  0  0
    5.7633   -7.6397    0.0000 O   0  0  0  0  0  0  0  0  0  0  0  0
    4.3343   -7.6397    0.0000 C   0  0  0  0  0  0  0  0  0  0  0  0
    3.6199   -8.0522    0.0000 O   0  0  0  0  0  0  0  0  0  0  0  0
    2.9054   -7.6397    0.0000 C   0  0  0  0  0  0  0  0  0  0  0  0
    2.9054   -6.8147    0.0000 O   0  0  0  0  0  0  0  0  0  0  0  0
    2.1909   -8.0522    0.0000 C   0  0  0  0  0  0  0  0  0  0  0  0
    7.1922  -10.1147    0.0000 C   0  0  0  0  0  0  0  0  0  0  0  0
    6.4777  -10.5272    0.0000 O   0  0  0  0  0  0  0  0  0  0  0  0
    7.9067  -10.5272    0.0000 C   0  0  0  0  0  0  0  0  0  0  0  0
  1  2  1  0  0  0  0
  2  3  1  0  0  0  0
  3  4  2  0  0  0  0
  4  5  1  0  0  0  0
  5  6  2  0  0  0  0
  6  7  1  0  0  0  0
  2  7  2  0  0  0  0
  1  8  2  0  0  0  0
  1  9  1  0  0  0  0
  5 10  1  0  0  0  0
 11 12  1  0  0  0  0
 12 13  1  0  0  0  0
 13 14  2  0  0  0  0
 14 15  1  0  0  0  0
 15 16  2  0  0  0  0
 16 17  1  0  0  0  0
 12 17  2  0  0  0  0
  3 11  1  0  0  0  0
 18 19  1  0  0  0  0
 19 20  1  0  0  0  0
 20 21  1  6  0  0  0
 20 22  1  0  0  0  0
 22 23  1  1  0  0  0
 22 24  1  0  0  0  0
 24 25  1  6  0  0  0
 24 26  1  0  0  0  0
 26 27  1  0  0  0  0
 26 28  1  1  0  0  0
 28 29  1  0  0  0  0
 19 27  1  0  0  0  0
 30 31  2  0  0  0  0
 30 32  1  0  0  0  0
 29 30  1  0  0  0  0
 33 34  2  0  0  0  0
 33 35  1  0  0  0  0
 21 33  1  0  0  0  0
  7 18  1  0  0  0  0
M  END
>  <cdx:fragmentId>
39

$$$$
