90381.cdx
  Mrv1902 05222410182D          

 36 39  0  0  0  0            999 V2000
    3.7243  -10.3389    0.0000 C   0  0  0  0  0  0  0  0  0  0  0  0
    3.7243  -11.1639    0.0000 C   0  0  0  0  0  0  0  0  0  0  0  0
    4.4388  -11.5764    0.0000 C   0  0  0  0  0  0  0  0  0  0  0  0
    5.1532  -11.1639    0.0000 C   0  0  1  0  0  0  0  0  0  0  0  0
    5.1532  -10.3389    0.0000 C   0  0  2  0  0  0  0  0  0  0  0  0
    4.4388   -9.9264    0.0000 C   0  0  0  0  0  0  0  0  0  0  0  0
    5.8677  -11.5764    0.0000 C   0  0  0  0  0  0  0  0  0  0  0  0
    6.5822  -11.1639    0.0000 C   0  0  0  0  0  0  0  0  0  0  0  0
    6.5822  -10.3389    0.0000 C   0  0  0  0  0  0  0  0  0  0  0  0
    5.8677   -9.9264    0.0000 C   0  0  0  0  0  0  0  0  0  0  0  0
    7.2967   -9.9264    0.0000 C   0  0  1  0  0  0  0  0  0  0  0  0
    7.2967   -9.1014    0.0000 C   0  0  2  0  0  0  0  0  0  0  0  0
    6.5822   -8.6889    0.0000 C   0  0  0  0  0  0  0  0  0  0  0  0
    5.8677   -9.1014    0.0000 C   0  0  0  0  0  0  0  0  0  0  0  0
    8.0813  -10.1813    0.0000 C   0  0  0  0  0  0  0  0  0  0  0  0
    8.5662   -9.5139    0.0000 C   0  0  0  0  0  0  0  0  0  0  0  0
    8.0813   -8.8465    0.0000 C   0  0  2  0  0  0  0  0  0  0  0  0
    3.0098  -11.5764    0.0000 O   0  0  0  0  0  0  0  0  0  0  0  0
    7.2967  -11.5764    0.0000 O   0  0  0  0  0  0  0  0  0  0  0  0
    8.3362   -8.0618    0.0000 C   0  0  2  0  0  0  0  0  0  0  0  0
    7.7842   -7.4487    0.0000 C   0  0  0  0  0  0  0  0  0  0  0  0
   11.5220   -5.1934    0.0000 O   0  0  0  0  0  0  0  0  0  0  0  0
   10.1629   -4.7518    0.0000 O   0  0  0  0  0  0  0  0  0  0  0  0
    9.9080   -5.5364    0.0000 C   0  0  0  0  0  0  0  0  0  0  0  0
   11.2670   -5.9780    0.0000 C   0  0  0  0  0  0  0  0  0  0  0  0
   10.4600   -6.1495    0.0000 C   0  0  0  0  0  0  0  0  0  0  0  0
   10.2051   -6.9342    0.0000 C   0  0  0  0  0  0  0  0  0  0  0  0
    9.3981   -7.1057    0.0000 C   0  0  0  0  0  0  0  0  0  0  0  0
    9.1432   -7.8903    0.0000 C   0  0  0  0  0  0  0  0  0  0  0  0
    4.0263  -12.2909    0.0000 C   0  0  0  0  0  0  0  0  0  0  0  0
    5.1532   -9.5139    0.0000 C   0  0  0  0  0  0  0  0  0  0  0  0
    7.2967   -8.2764    0.0000 C   0  0  0  0  0  0  0  0  0  0  0  0
    4.8513  -12.2909    0.0000 C   0  0  0  0  0  0  0  0  0  0  0  0
    7.2967  -10.7514    0.0000 C   0  0  0  0  0  0  0  0  0  0  0  0
    5.1532  -11.9889    0.0000 H   0  0  0  0  0  0  0  0  0  0  0  0
    8.8659   -8.5915    0.0000 H   0  0  0  0  0  0  0  0  0  0  0  0
  1  2  1  0  0  0  0
  2  3  1  0  0  0  0
  3  4  1  0  0  0  0
  4  5  1  0  0  0  0
  5  6  1  0  0  0  0
  6  1  1  0  0  0  0
  4  7  1  0  0  0  0
  7  8  1  0  0  0  0
  8  9  1  0  0  0  0
  9 10  2  0  0  0  0
 10  5  1  0  0  0  0
  9 11  1  0  0  0  0
 11 12  1  0  0  0  0
 12 13  1  0  0  0  0
 13 14  1  0  0  0  0
 14 10  1  0  0  0  0
 11 15  1  0  0  0  0
 15 16  1  0  0  0  0
 16 17  1  0  0  0  0
 17 12  1  0  0  0  0
  2 18  2  0  0  0  0
  8 19  2  0  0  0  0
 17 20  1  0  0  0  0
 20 21  1  6  0  0  0
 25 22  1  0  0  0  0
 20 29  1  0  0  0  0
 24 23  1  0  0  0  0
 26 24  1  0  0  0  0
 26 25  1  0  0  0  0
 27 26  2  0  0  0  0
 28 27  1  0  0  0  0
 29 28  1  0  0  0  0
  3 30  1  0  0  0  0
  5 31  1  1  0  0  0
 12 32  1  1  0  0  0
  3 33  1  0  0  0  0
 11 34  1  6  0  0  0
  4 35  1  6  0  0  0
 17 36  1  6  0  0  0
M  END
>  <cdx:fragmentId>
5

$$$$
