90398.cdx
  Mrv1902 05222410282D          

 22 24  0  0  0  0            999 V2000
   10.2938   -5.8014    0.0000 O   0  0  0  0  0  0  0  0  0  0  0  0
    5.2987   -6.2835    0.0000 O   0  0  0  0  0  0  0  0  0  0  0  0
    3.8814   -7.1283    0.0000 O   0  0  0  0  0  0  0  0  0  0  0  0
    9.5966   -7.0487    0.0000 C   0  0  0  0  0  0  0  0  0  0  0  0
    9.5851   -6.2238    0.0000 C   0  0  0  0  0  0  0  0  0  0  0  0
    8.8650   -5.8213    0.0000 C   0  0  0  0  0  0  0  0  0  0  0  0
    8.1563   -6.2437    0.0000 C   0  0  0  0  0  0  0  0  0  0  0  0
    8.8880   -7.4712    0.0000 C   0  0  0  0  0  0  0  0  0  0  0  0
    8.1678   -7.0686    0.0000 C   0  0  0  0  0  0  0  0  0  0  0  0
    8.1908   -8.7185    0.0000 O   0  0  0  0  0  0  0  0  0  0  0  0
    5.3447   -9.5832    0.0000 O   0  0  0  0  0  0  0  0  0  0  0  0
    6.7735   -9.5633    0.0000 O   0  0  0  0  0  0  0  0  0  0  0  0
    6.7620   -8.7384    0.0000 C   0  0  0  0  0  0  0  0  0  0  0  0
    7.4707   -8.3160    0.0000 C   0  0  0  0  0  0  0  0  0  0  0  0
    7.4592   -7.4911    0.0000 C   0  0  0  0  0  0  0  0  0  0  0  0
    6.7390   -7.0885    0.0000 O   0  0  0  0  0  0  0  0  0  0  0  0
    5.3332   -8.7583    0.0000 C   0  0  0  0  0  0  0  0  0  0  0  0
    6.0419   -8.3359    0.0000 C   0  0  0  0  0  0  0  0  0  0  0  0
    6.0304   -7.5109    0.0000 C   0  0  0  0  0  0  0  0  0  0  0  0
    5.3102   -7.1084    0.0000 C   0  0  0  0  0  0  0  0  0  0  0  0
    4.6016   -7.5308    0.0000 C   0  0  0  0  0  0  0  0  0  0  0  0
    4.6131   -8.3558    0.0000 C   0  0  0  0  0  0  0  0  0  0  0  0
  5  1  1  0  0  0  0
 20  2  1  0  0  0  0
 21  3  1  0  0  0  0
  4  8  1  0  0  0  0
  5  4  2  0  0  0  0
  6  5  1  0  0  0  0
  7  6  2  0  0  0  0
  9  7  1  0  0  0  0
  9  8  2  0  0  0  0
 15  9  1  0  0  0  0
 14 10  1  0  0  0  0
 11 17  1  0  0  0  0
 13 12  2  0  0  0  0
 13 18  1  0  0  0  0
 14 13  1  0  0  0  0
 15 14  2  0  0  0  0
 16 15  1  0  0  0  0
 19 16  1  0  0  0  0
 17 22  2  0  0  0  0
 18 17  1  0  0  0  0
 19 18  2  0  0  0  0
 20 19  1  0  0  0  0
 21 20  2  0  0  0  0
 22 21  1  0  0  0  0
M  END
>  <cdx:fragmentId>
5

$$$$
