90397.cdx
  Mrv1902 05222410192D          

 13 13  0  0  0  0            999 V2000
    5.2918  -14.0926    0.0000 C   0  0  0  0  0  0  0  0  0  0  0  0
    5.2918  -14.9176    0.0000 C   0  0  0  0  0  0  0  0  0  0  0  0
    6.0063  -15.3301    0.0000 C   0  0  0  0  0  0  0  0  0  0  0  0
    6.7207  -14.9176    0.0000 C   0  0  0  0  0  0  0  0  0  0  0  0
    6.7207  -14.0926    0.0000 C   0  0  0  0  0  0  0  0  0  0  0  0
    6.0063  -13.6801    0.0000 C   0  0  0  0  0  0  0  0  0  0  0  0
    6.0050  -12.8275    0.0000 C   0  0  0  0  0  0  0  0  0  0  0  0
    6.7195  -12.4151    0.0000 C   0  0  0  0  0  0  0  0  0  0  0  0
    6.7197  -11.5901    0.0000 C   0  0  0  0  0  0  0  0  0  0  0  0
    7.4342  -11.1777    0.0000 C   0  0  0  0  0  0  0  0  0  0  0  0
    7.4343  -10.3527    0.0000 C   0  0  0  0  0  0  0  0  0  0  0  0
    8.1488   -9.9403    0.0000 C   0  0  0  0  0  0  0  0  0  0  0  0
    8.1489   -9.1153    0.0000 C   0  0  0  0  0  0  0  0  0  0  0  0
  1  2  2  0  0  0  0
  2  3  1  0  0  0  0
  3  4  2  0  0  0  0
  4  5  1  0  0  0  0
  5  6  2  0  0  0  0
  6  1  1  0  0  0  0
  7  8  1  0  0  0  0
  8  9  1  0  0  0  0
  9 10  1  0  0  0  0
 10 11  1  0  0  0  0
 11 12  1  0  0  0  0
 12 13  1  0  0  0  0
  7  6  1  0  0  0  0
M  END
>  <cdx:fragmentId>
21

$$$$
