90391.cdx
  Mrv1902 05222410202D          

 31 32  0  0  0  0            999 V2000
    5.7181   -8.4013    0.0000 C   0  0  2  0  0  0  0  0  0  0  0  0
    5.7181   -9.2263    0.0000 C   0  0  2  0  0  0  0  0  0  0  0  0
    6.4325   -9.6387    0.0000 C   0  0  1  0  0  0  0  0  0  0  0  0
    7.1470   -9.2263    0.0000 C   0  0  2  0  0  0  0  0  0  0  0  0
    7.1470   -8.4013    0.0000 C   0  0  1  0  0  0  0  0  0  0  0  0
    6.4325   -7.9888    0.0000 O   0  0  0  0  0  0  0  0  0  0  0  0
    5.0036   -7.9888    0.0000 C   0  0  0  0  0  0  0  0  0  0  0  0
    7.8615   -7.9888    0.0000 O   0  0  0  0  0  0  0  0  0  0  0  0
    6.4325  -10.4637    0.0000 O   0  0  0  0  0  0  0  0  0  0  0  0
    5.0036   -9.6387    0.0000 O   0  0  0  0  0  0  0  0  0  0  0  0
    7.8615   -9.6387    0.0000 O   0  0  0  0  0  0  0  0  0  0  0  0
    4.2891   -8.4013    0.0000 O   0  0  0  0  0  0  0  0  0  0  0  0
    8.5759   -8.4013    0.0000 C   0  0  0  0  0  0  0  0  0  0  0  0
    9.2904   -7.9888    0.0000 C   0  0  0  0  0  0  0  0  0  0  0  0
   10.0049   -8.4013    0.0000 C   0  0  0  0  0  0  0  0  0  0  0  0
   10.7194   -7.9888    0.0000 C   0  0  0  0  0  0  0  0  0  0  0  0
   10.0049   -9.2263    0.0000 C   0  0  0  0  0  0  0  0  0  0  0  0
   11.4338   -8.4013    0.0000 C   0  0  0  0  0  0  0  0  0  0  0  0
   12.1483   -7.9888    0.0000 C   0  0  0  0  0  0  0  0  0  0  0  0
   12.8628   -8.4013    0.0000 C   0  0  0  0  0  0  0  0  0  0  0  0
   13.5772   -7.9888    0.0000 C   0  0  0  0  0  0  0  0  0  0  0  0
   12.8628   -9.2263    0.0000 C   0  0  0  0  0  0  0  0  0  0  0  0
    3.5746   -7.9888    0.0000 C   0  0  1  0  0  0  0  0  0  0  0  0
    3.5746   -7.1638    0.0000 C   0  0  1  0  0  0  0  0  0  0  0  0
    2.8602   -6.7512    0.0000 C   0  0  2  0  0  0  0  0  0  0  0  0
    2.1457   -7.1638    0.0000 C   0  0  2  0  0  0  0  0  0  0  0  0
    2.1457   -7.9888    0.0000 C   0  0  0  0  0  0  0  0  0  0  0  0
    2.8602   -8.4012    0.0000 O   0  0  0  0  0  0  0  0  0  0  0  0
    2.8602   -5.9262    0.0000 C   0  0  0  0  0  0  0  0  0  0  0  0
    1.4312   -6.7512    0.0000 C   0  0  0  0  0  0  0  0  0  0  0  0
    4.2891   -6.7512    0.0000 C   0  0  0  0  0  0  0  0  0  0  0  0
  1  2  1  0  0  0  0
  2  3  1  0  0  0  0
  3  4  1  0  0  0  0
  4  5  1  0  0  0  0
  5  6  1  0  0  0  0
  6  1  1  0  0  0  0
  1  7  1  1  0  0  0
  5  8  1  1  0  0  0
  3  9  1  1  0  0  0
  2 10  1  6  0  0  0
  4 11  1  6  0  0  0
  7 12  1  0  0  0  0
  8 13  1  0  0  0  0
 13 14  1  0  0  0  0
 14 15  2  0  0  0  0
 15 16  1  0  0  0  0
 15 17  1  0  0  0  0
 16 18  1  0  0  0  0
 18 19  1  0  0  0  0
 19 20  2  0  0  0  0
 20 21  1  0  0  0  0
 20 22  1  0  0  0  0
 23 12  1  6  0  0  0
 23 24  1  0  0  0  0
 24 25  1  0  0  0  0
 25 26  1  0  0  0  0
 26 27  1  0  0  0  0
 27 28  1  0  0  0  0
 28 23  1  0  0  0  0
 25 29  1  6  0  0  0
 26 30  1  6  0  0  0
 24 31  1  1  0  0  0
M  END
>  <cdx:fragmentId>
171

$$$$
