90396.cdx
  Mrv1902 05222410182D          

 17 16  0  0  0  0            999 V2000
    7.9332   -8.1796    0.0000 C   0  0  0  0  0  0  0  0  0  0  0  0
    8.6477   -7.7671    0.0000 C   0  0  0  0  0  0  0  0  0  0  0  0
    9.3622   -8.1796    0.0000 C   0  0  0  0  0  0  0  0  0  0  0  0
   10.0766   -7.7671    0.0000 C   0  0  0  0  0  0  0  0  0  0  0  0
   10.7911   -8.1796    0.0000 C   0  0  0  0  0  0  0  0  0  0  0  0
   11.5056   -7.7671    0.0000 C   0  0  0  0  0  0  0  0  0  0  0  0
   12.2200   -8.1796    0.0000 C   0  0  0  0  0  0  0  0  0  0  0  0
    7.9332   -9.0046    0.0000 O   0  0  0  0  0  0  0  0  0  0  0  0
    7.2187   -7.7671    0.0000 O   0  0  0  0  0  0  0  0  0  0  0  0
    6.5043   -8.1796    0.0000 C   0  0  0  0  0  0  0  0  0  0  0  0
    5.7898   -7.7671    0.0000 C   0  0  0  0  0  0  0  0  0  0  0  0
    5.0753   -8.1796    0.0000 C   0  0  0  0  0  0  0  0  0  0  0  0
    4.3609   -7.7671    0.0000 C   0  0  0  0  0  0  0  0  0  0  0  0
    3.6464   -8.1796    0.0000 C   0  0  0  0  0  0  0  0  0  0  0  0
    2.9319   -7.7671    0.0000 C   0  0  0  0  0  0  0  0  0  0  0  0
    2.2175   -8.1796    0.0000 C   0  0  0  0  0  0  0  0  0  0  0  0
    6.5043   -9.0046    0.0000 O   0  0  0  0  0  0  0  0  0  0  0  0
  1  2  1  0  0  0  0
  2  3  1  0  0  0  0
  3  4  1  0  0  0  0
  4  5  1  0  0  0  0
  5  6  1  0  0  0  0
  6  7  1  0  0  0  0
  1  8  2  0  0  0  0
  1  9  1  0  0  0  0
 10 11  1  0  0  0  0
 11 12  1  0  0  0  0
 12 13  1  0  0  0  0
 13 14  1  0  0  0  0
 14 15  1  0  0  0  0
 15 16  1  0  0  0  0
 10 17  2  0  0  0  0
  9 10  1  0  0  0  0
M  END
>  <cdx:fragmentId>
62

$$$$
