90392.cdx
  Mrv1902 05222410192D          

 26 29  0  0  0  0            999 V2000
    4.5350  -10.9307    0.0000 C   0  0  0  0  0  0  0  0  0  0  0  0
    4.1225  -11.6451    0.0000 C   0  0  0  0  0  0  0  0  0  0  0  0
    4.5350  -12.3596    0.0000 C   0  0  0  0  0  0  0  0  0  0  0  0
    5.3600  -12.3596    0.0000 C   0  0  2  0  0  0  0  0  0  0  0  0
    5.7725  -11.6451    0.0000 C   0  0  2  0  0  0  0  0  0  0  0  0
    5.3600  -10.9307    0.0000 C   0  0  2  0  0  0  0  0  0  0  0  0
    6.5795  -11.4736    0.0000 C   0  0  1  0  0  0  0  0  0  0  0  0
    6.6657  -10.6531    0.0000 C   0  0  0  0  0  0  0  0  0  0  0  0
    5.9121  -10.3176    0.0000 C   0  0  1  0  0  0  0  0  0  0  0  0
    5.3600  -13.1846    0.0000 C   0  0  0  0  0  0  0  0  0  0  0  0
    6.0745  -13.5971    0.0000 O   0  0  0  0  0  0  0  0  0  0  0  0
    4.6456  -13.5971    0.0000 O   0  0  0  0  0  0  0  0  0  0  0  0
    7.1926  -12.0257    0.0000 C   0  0  0  0  0  0  0  0  0  0  0  0
    7.9772  -11.7707    0.0000 O   0  0  0  0  0  0  0  0  0  0  0  0
    7.0211  -12.8326    0.0000 O   0  0  0  0  0  0  0  0  0  0  0  0
    7.3980  -10.2731    0.0000 C   0  0  0  0  0  0  0  0  0  0  0  0
    7.5574   -9.4637    0.0000 C   0  0  0  0  0  0  0  0  0  0  0  0
    7.0240   -8.8343    0.0000 C   0  0  0  0  0  0  0  0  0  0  0  0
    6.1994   -8.8590    0.0000 C   0  0  0  0  0  0  0  0  0  0  0  0
    5.7045   -9.5191    0.0000 C   0  0  0  0  0  0  0  0  0  0  0  0
    8.3559   -9.2561    0.0000 C   0  0  0  0  0  0  0  0  0  0  0  0
    6.4935   -9.6638    0.0000 C   0  0  0  0  0  0  0  0  0  0  0  0
    6.1569  -12.5731    0.0000 C   0  0  0  0  0  0  0  0  0  0  0  0
    6.4870  -12.0576    0.0000 H   0  0  0  0  0  0  0  0  0  0  0  0
    5.3287   -9.7342    0.0000 H   0  0  0  0  0  0  0  0  0  0  0  0
    4.7767  -10.3473    0.0000 C   0  0  0  0  0  0  0  0  0  0  0  0
  1  2  1  0  0  0  0
  2  3  1  0  0  0  0
  3  4  1  0  0  0  0
  4  5  1  0  0  0  0
  5  6  1  0  0  0  0
  6  1  1  0  0  0  0
  5  7  1  0  0  0  0
  7  8  1  0  0  0  0
  8  9  1  0  0  0  0
  9  6  1  0  0  0  0
  4 10  1  0  0  0  0
 10 11  2  0  0  0  0
 10 12  1  0  0  0  0
  7 13  1  1  0  0  0
 13 14  1  0  0  0  0
 13 15  2  0  0  0  0
  8 16  1  0  0  0  0
 16 17  1  0  0  0  0
 17 18  1  0  0  0  0
 18 19  1  0  0  0  0
 19 20  1  0  0  0  0
 20  9  1  0  0  0  0
 17 21  2  0  0  0  0
  8 22  1  0  0  0  0
 22 18  1  0  0  0  0
  4 23  1  1  0  0  0
  5 24  1  1  0  0  0
  9 25  1  1  0  0  0
  6 26  1  6  0  0  0
M  END
>  <cdx:fragmentId>
5

$$$$
