90405.cdx
  Mrv1902 05222410262D          

 34 37  0  0  0  0            999 V2000
    6.5047   -4.2306    0.0000 O   0  0  0  0  0  0  0  0  0  0  0  0
    5.0757   -4.2233    0.0000 O   0  0  0  0  0  0  0  0  0  0  0  0
    5.0716   -5.0483    0.0000 C   0  0  2  0  0  0  0  0  0  0  0  0
    5.7839   -5.4644    0.0000 C   0  0  1  0  0  0  0  0  0  0  0  0
   11.4954   -6.3184    0.0000 O   0  0  0  0  0  0  0  0  0  0  0  0
    5.0464   -9.9982    0.0000 C   0  0  0  0  0  0  0  0  0  0  0  0
    6.5005   -5.0555    0.0000 C   0  0  0  0  0  0  0  0  0  0  0  0
   10.7747   -7.5523    0.0000 C   0  0  0  0  0  0  0  0  0  0  0  0
   10.7789   -6.7273    0.0000 C   0  0  0  0  0  0  0  0  0  0  0  0
   10.0665   -6.3112    0.0000 C   0  0  0  0  0  0  0  0  0  0  0  0
    9.3500   -6.7200    0.0000 C   0  0  0  0  0  0  0  0  0  0  0  0
   10.0581   -7.9611    0.0000 C   0  0  0  0  0  0  0  0  0  0  0  0
    9.3458   -7.5450    0.0000 C   0  0  0  0  0  0  0  0  0  0  0  0
    6.4754  -10.0055    0.0000 O   0  0  0  0  0  0  0  0  0  0  0  0
    7.9043  -10.0127    0.0000 O   0  0  0  0  0  0  0  0  0  0  0  0
    7.9085   -9.1877    0.0000 C   0  0  0  0  0  0  0  0  0  0  0  0
    8.6250   -8.7789    0.0000 C   0  0  0  0  0  0  0  0  0  0  0  0
    8.6292   -7.9539    0.0000 C   0  0  0  0  0  0  0  0  0  0  0  0
    7.9169   -7.5378    0.0000 O   0  0  0  0  0  0  0  0  0  0  0  0
    6.4796   -9.1805    0.0000 C   0  0  0  0  0  0  0  0  0  0  0  0
    7.1961   -8.7716    0.0000 C   0  0  0  0  0  0  0  0  0  0  0  0
    7.2003   -7.9466    0.0000 C   0  0  0  0  0  0  0  0  0  0  0  0
    6.4879   -7.5305    0.0000 C   0  0  0  0  0  0  0  0  0  0  0  0
    5.0506   -9.1732    0.0000 O   0  0  0  0  0  0  0  0  0  0  0  0
    5.7672   -8.7644    0.0000 C   0  0  0  0  0  0  0  0  0  0  0  0
    5.7714   -7.9394    0.0000 C   0  0  0  0  0  0  0  0  0  0  0  0
    4.3550   -5.4572    0.0000 C   0  0  1  0  0  0  0  0  0  0  0  0
    4.3508   -6.2822    0.0000 C   0  0  2  0  0  0  0  0  0  0  0  0
    5.0632   -6.6983    0.0000 C   0  0  1  0  0  0  0  0  0  0  0  0
    5.7797   -6.2894    0.0000 O   0  0  0  0  0  0  0  0  0  0  0  0
    5.0590   -7.5233    0.0000 O   0  0  0  0  0  0  0  0  0  0  0  0
    7.2129   -5.4717    0.0000 O   0  0  0  0  0  0  0  0  0  0  0  0
    3.6426   -5.0411    0.0000 O   0  0  0  0  0  0  0  0  0  0  0  0
    3.6343   -6.6910    0.0000 O   0  0  0  0  0  0  0  0  0  0  0  0
  9  5  1  0  0  0  0
 24  6  1  0  0  0  0
  3  2  1  6  0  0  0
  8 12  1  0  0  0  0
  9  8  2  0  0  0  0
 10  9  1  0  0  0  0
 11 10  2  0  0  0  0
 13 11  1  0  0  0  0
 13 12  2  0  0  0  0
 18 13  1  0  0  0  0
 14 20  1  0  0  0  0
 16 15  2  0  0  0  0
 16 21  1  0  0  0  0
 17 16  1  0  0  0  0
 18 17  2  0  0  0  0
 19 18  1  0  0  0  0
 22 19  1  0  0  0  0
 20 25  1  0  0  0  0
 21 20  2  0  0  0  0
 22 21  1  0  0  0  0
 23 22  2  0  0  0  0
 26 23  1  0  0  0  0
 25 24  1  0  0  0  0
 26 25  2  0  0  0  0
 31 26  1  0  0  0  0
  3  4  1  0  0  0  0
  4  7  1  1  0  0  0
  7  1  1  0  0  0  0
  3 27  1  0  0  0  0
 27 28  1  0  0  0  0
 28 29  1  0  0  0  0
 29 30  1  0  0  0  0
 30  4  1  0  0  0  0
 29 31  1  1  0  0  0
  7 32  2  0  0  0  0
 27 33  1  1  0  0  0
 28 34  1  6  0  0  0
M  END
>  <cdx:fragmentId>
5

$$$$
