90401.cdx
  Mrv1902 05222410282D          

 23 25  0  0  0  0            999 V2000
    1.9781   -9.5551    0.0000 C   0  0  0  0  0  0  0  0  0  0  0  0
    3.4070  -10.3801    0.0000 C   0  0  0  0  0  0  0  0  0  0  0  0
    3.4070   -9.5551    0.0000 C   0  0  0  0  0  0  0  0  0  0  0  0
    2.6925   -9.1426    0.0000 O   0  0  0  0  0  0  0  0  0  0  0  0
    4.1215  -10.7926    0.0000 C   0  0  0  0  0  0  0  0  0  0  0  0
    4.8359  -10.3801    0.0000 C   0  0  0  0  0  0  0  0  0  0  0  0
    4.8359   -9.5551    0.0000 C   0  0  0  0  0  0  0  0  0  0  0  0
    4.1215   -9.1426    0.0000 C   0  0  0  0  0  0  0  0  0  0  0  0
    5.5504  -10.7926    0.0000 C   0  0  0  0  0  0  0  0  0  0  0  0
    6.2649  -10.3801    0.0000 C   0  0  0  0  0  0  0  0  0  0  0  0
    6.2649   -9.5551    0.0000 C   0  0  2  0  0  0  0  0  0  0  0  0
    5.5504   -9.1426    0.0000 O   0  0  0  0  0  0  0  0  0  0  0  0
    4.1215  -11.6176    0.0000 O   0  0  0  0  0  0  0  0  0  0  0  0
    5.5504  -11.6176    0.0000 O   0  0  0  0  0  0  0  0  0  0  0  0
    6.9794   -9.1426    0.0000 C   0  0  0  0  0  0  0  0  0  0  0  0
    6.9794   -8.3176    0.0000 C   0  0  0  0  0  0  0  0  0  0  0  0
    7.6938   -9.5551    0.0000 C   0  0  0  0  0  0  0  0  0  0  0  0
    8.4083   -9.1426    0.0000 C   0  0  0  0  0  0  0  0  0  0  0  0
    8.4083   -8.3176    0.0000 C   0  0  0  0  0  0  0  0  0  0  0  0
    7.6938   -7.9051    0.0000 C   0  0  0  0  0  0  0  0  0  0  0  0
    9.1228   -7.9051    0.0000 O   0  0  0  0  0  0  0  0  0  0  0  0
    7.6938   -7.0801    0.0000 O   0  0  0  0  0  0  0  0  0  0  0  0
    9.8372   -8.3176    0.0000 C   0  0  0  0  0  0  0  0  0  0  0  0
  2  3  2  0  0  0  0
  3  4  1  0  0  0  0
  4  1  1  0  0  0  0
  2  5  1  0  0  0  0
  5  6  2  0  0  0  0
  6  7  1  0  0  0  0
  7  8  2  0  0  0  0
  8  3  1  0  0  0  0
  6  9  1  0  0  0  0
  9 10  1  0  0  0  0
 10 11  1  0  0  0  0
 11 12  1  0  0  0  0
 12  7  1  0  0  0  0
  5 13  1  0  0  0  0
 14  9  2  0  0  0  0
 11 15  1  6  0  0  0
 15 16  1  0  0  0  0
 15 17  2  0  0  0  0
 17 18  1  0  0  0  0
 18 19  2  0  0  0  0
 19 20  1  0  0  0  0
 20 16  2  0  0  0  0
 19 21  1  0  0  0  0
 22 20  1  0  0  0  0
 21 23  1  0  0  0  0
M  END
>  <cdx:fragmentId>
5

$$$$
