90408.cdx
  Mrv1902 05222410202D          

 24 24  0  0  0  0            999 V2000
    3.3867  -10.1846    0.0000 C   0  0  0  0  0  0  0  0  0  0  0  0
    3.0418   -8.7979    0.0000 C   0  0  0  0  0  0  0  0  0  0  0  0
    3.6145   -9.3917    0.0000 C   0  0  0  0  0  0  0  0  0  0  0  0
    4.4151   -9.1925    0.0000 C   0  0  0  0  0  0  0  0  0  0  0  0
    4.9879   -9.7863    0.0000 C   0  0  0  0  0  0  0  0  0  0  0  0
    4.0702   -7.8058    0.0000 C   0  0  0  0  0  0  0  0  0  0  0  0
    5.0987   -6.8138    0.0000 C   0  0  0  0  0  0  0  0  0  0  0  0
    4.8708   -7.6067    0.0000 C   0  0  0  0  0  0  0  0  0  0  0  0
    5.4436   -8.2005    0.0000 C   0  0  0  0  0  0  0  0  0  0  0  0
    5.2157   -8.9934    0.0000 C   0  0  0  0  0  0  0  0  0  0  0  0
    9.3055   -9.5306    0.0000 C   0  0  0  0  0  0  0  0  0  0  0  0
    8.0488   -8.4614    0.0000 O   0  0  0  0  0  0  0  0  0  0  0  0
    8.5283   -9.8074    0.0000 C   0  0  0  0  0  0  0  0  0  0  0  0
    7.9000   -9.2728    0.0000 C   0  0  0  0  0  0  0  0  0  0  0  0
    5.5994  -11.0451    0.0000 O   0  0  0  0  0  0  0  0  0  0  0  0
    7.3935  -10.9947    0.0000 O   0  0  0  0  0  0  0  0  0  0  0  0
    6.4189   -8.2590    0.0000 O   0  0  0  0  0  0  0  0  0  0  0  0
    5.7885   -9.5872    0.0000 C   0  0  0  0  0  0  0  0  0  0  0  0
    6.0653  -10.3643    0.0000 C   0  0  0  0  0  0  0  0  0  0  0  0
    6.8900  -10.3412    0.0000 C   0  0  0  0  0  0  0  0  0  0  0  0
    7.1228   -9.5497    0.0000 C   0  0  0  0  0  0  0  0  0  0  0  0
    6.4420   -9.0837    0.0000 C   0  0  0  0  0  0  0  0  0  0  0  0
    9.9338  -10.0652    0.0000 C   0  0  0  0  0  0  0  0  0  0  0  0
    8.3795  -10.6189    0.0000 C   0  0  0  0  0  0  0  0  0  0  0  0
  3  1  1  0  0  0  0
  3  2  1  0  0  0  0
  4  3  2  0  0  0  0
  5  4  1  0  0  0  0
 18  5  1  0  0  0  0
  8  6  1  0  0  0  0
  8  7  1  0  0  0  0
  9  8  2  0  0  0  0
 10  9  1  0  0  0  0
 18 10  1  0  0  0  0
 13 11  1  0  0  0  0
 14 12  2  0  0  0  0
 14 13  1  0  0  0  0
 21 14  1  0  0  0  0
 19 15  2  0  0  0  0
 20 16  1  0  0  0  0
 22 17  2  0  0  0  0
 18 22  1  0  0  0  0
 19 18  1  0  0  0  0
 20 19  1  0  0  0  0
 21 20  2  0  0  0  0
 22 21  1  0  0  0  0
 11 23  1  0  0  0  0
 13 24  1  0  0  0  0
M  END
>  <cdx:fragmentId>
81

$$$$
