90404.cdx
  Mrv1902 05222410262D          

 42 45  0  0  0  0            999 V2000
    4.4943  -10.9026    0.0000 C   0  0  0  0  0  0  0  0  0  0  0  0
    4.4943  -11.7276    0.0000 C   0  0  0  0  0  0  0  0  0  0  0  0
    5.2088  -12.1401    0.0000 C   0  0  0  0  0  0  0  0  0  0  0  0
    5.9232  -11.7276    0.0000 C   0  0  0  0  0  0  0  0  0  0  0  0
    5.9232  -10.9026    0.0000 C   0  0  0  0  0  0  0  0  0  0  0  0
    5.2088  -10.4901    0.0000 C   0  0  0  0  0  0  0  0  0  0  0  0
    6.6377  -12.1401    0.0000 C   0  0  0  0  0  0  0  0  0  0  0  0
    7.3522  -11.7276    0.0000 C   0  0  0  0  0  0  0  0  0  0  0  0
    7.3522  -10.9026    0.0000 C   0  0  0  0  0  0  0  0  0  0  0  0
    6.6377  -10.4901    0.0000 O   0  0  0  0  0  0  0  0  0  0  0  0
    8.0667  -12.1401    0.0000 C   0  0  2  0  0  0  0  0  0  0  0  0
    8.7811  -10.9026    0.0000 C   0  0  0  0  0  0  0  0  0  0  0  0
    8.0667  -10.4901    0.0000 C   0  0  0  0  0  0  0  0  0  0  0  0
    9.4956  -10.4901    0.0000 C   0  0  0  0  0  0  0  0  0  0  0  0
    9.4956   -9.6651    0.0000 C   0  0  0  0  0  0  0  0  0  0  0  0
    8.7811   -9.2526    0.0000 C   0  0  0  0  0  0  0  0  0  0  0  0
    8.0667   -9.6651    0.0000 C   0  0  0  0  0  0  0  0  0  0  0  0
    5.2088   -9.6651    0.0000 C   0  0  0  0  0  0  0  0  0  0  0  0
    4.4943   -9.2526    0.0000 C   0  0  0  0  0  0  0  0  0  0  0  0
    3.7798  -10.4901    0.0000 O   0  0  0  0  0  0  0  0  0  0  0  0
    5.2088   -8.0151    0.0000 C   0  0  0  0  0  0  0  0  0  0  0  0
    4.4943   -8.4276    0.0000 C   0  0  0  0  0  0  0  0  0  0  0  0
    3.0654  -11.7276    0.0000 C   0  0  0  0  0  0  0  0  0  0  0  0
    3.7798  -12.1401    0.0000 C   0  0  0  0  0  0  0  0  0  0  0  0
    2.3509  -12.1401    0.0000 C   0  0  0  0  0  0  0  0  0  0  0  0
    2.3509  -12.9651    0.0000 C   0  0  0  0  0  0  0  0  0  0  0  0
    8.0667  -12.9651    0.0000 C   0  0  2  0  0  0  0  0  0  0  0  0
    8.7811  -13.3776    0.0000 C   0  0  2  0  0  0  0  0  0  0  0  0
    9.4956  -12.9651    0.0000 C   0  0  2  0  0  0  0  0  0  0  0  0
    9.4956  -12.1401    0.0000 C   0  0  1  0  0  0  0  0  0  0  0  0
    8.7811  -11.7276    0.0000 O   0  0  0  0  0  0  0  0  0  0  0  0
    3.7798   -8.0151    0.0000 C   0  0  0  0  0  0  0  0  0  0  0  0
    1.6364  -11.7276    0.0000 C   0  0  0  0  0  0  0  0  0  0  0  0
    5.2088  -12.9651    0.0000 O   0  0  0  0  0  0  0  0  0  0  0  0
    6.6377  -12.9651    0.0000 O   0  0  0  0  0  0  0  0  0  0  0  0
    8.7811   -8.4276    0.0000 O   0  0  0  0  0  0  0  0  0  0  0  0
   10.2101  -10.9026    0.0000 O   0  0  0  0  0  0  0  0  0  0  0  0
   10.2101  -11.7276    0.0000 C   0  0  0  0  0  0  0  0  0  0  0  0
    7.3522  -13.3776    0.0000 O   0  0  0  0  0  0  0  0  0  0  0  0
    8.7811  -14.2026    0.0000 O   0  0  0  0  0  0  0  0  0  0  0  0
   10.2101  -13.3776    0.0000 O   0  0  0  0  0  0  0  0  0  0  0  0
   10.9245  -12.1401    0.0000 O   0  0  0  0  0  0  0  0  0  0  0  0
  1  2  1  0  0  0  0
  2  3  2  0  0  0  0
  3  4  1  0  0  0  0
  4  5  2  0  0  0  0
  5  6  1  0  0  0  0
  6  1  2  0  0  0  0
  4  7  1  0  0  0  0
  7  8  1  0  0  0  0
  8  9  2  0  0  0  0
  9 10  1  0  0  0  0
 10  5  1  0  0  0  0
 11  8  1  1  0  0  0
 12 13  1  0  0  0  0
 13  9  1  0  0  0  0
 12 14  2  0  0  0  0
 14 15  1  0  0  0  0
 15 16  2  0  0  0  0
 16 17  1  0  0  0  0
 17 13  2  0  0  0  0
  6 18  1  0  0  0  0
 18 19  1  0  0  0  0
 20  1  1  0  0  0  0
 21 22  1  0  0  0  0
 22 19  2  0  0  0  0
 23 24  2  0  0  0  0
 24  2  1  0  0  0  0
 23 25  1  0  0  0  0
 25 26  1  0  0  0  0
 11 27  1  0  0  0  0
 27 28  1  0  0  0  0
 28 29  1  0  0  0  0
 29 30  1  0  0  0  0
 30 31  1  0  0  0  0
 31 11  1  0  0  0  0
 22 32  1  0  0  0  0
 25 33  1  0  0  0  0
  3 34  1  0  0  0  0
  7 35  2  0  0  0  0
 16 36  1  0  0  0  0
 14 37  1  0  0  0  0
 30 38  1  1  0  0  0
 27 39  1  6  0  0  0
 28 40  1  6  0  0  0
 29 41  1  6  0  0  0
 38 42  1  0  0  0  0
M  END
>  <cdx:fragmentId>
5

$$$$
