90406.cdx
  Mrv1902 05222410262D          

 42 46  0  0  0  0            999 V2000
    5.4568   -7.6989    0.0000 C   0  0  0  0  0  0  0  0  0  0  0  0
    5.4568   -8.5239    0.0000 C   0  0  0  0  0  0  0  0  0  0  0  0
    6.1713   -8.9364    0.0000 C   0  0  0  0  0  0  0  0  0  0  0  0
    6.8857   -8.5239    0.0000 C   0  0  0  0  0  0  0  0  0  0  0  0
    6.8857   -7.6989    0.0000 C   0  0  0  0  0  0  0  0  0  0  0  0
    6.1713   -7.2864    0.0000 C   0  0  0  0  0  0  0  0  0  0  0  0
    7.6002   -8.9364    0.0000 C   0  0  0  0  0  0  0  0  0  0  0  0
    8.3147   -8.5239    0.0000 C   0  0  0  0  0  0  0  0  0  0  0  0
    8.3147   -7.6989    0.0000 C   0  0  0  0  0  0  0  0  0  0  0  0
    7.6002   -7.2864    0.0000 O   0  0  0  0  0  0  0  0  0  0  0  0
    9.0292   -7.2864    0.0000 C   0  0  0  0  0  0  0  0  0  0  0  0
    9.0292   -6.4614    0.0000 C   0  0  0  0  0  0  0  0  0  0  0  0
    9.7436   -7.6989    0.0000 C   0  0  0  0  0  0  0  0  0  0  0  0
   10.4581   -7.2864    0.0000 C   0  0  0  0  0  0  0  0  0  0  0  0
   10.4581   -6.4614    0.0000 C   0  0  0  0  0  0  0  0  0  0  0  0
    9.7436   -6.0489    0.0000 C   0  0  0  0  0  0  0  0  0  0  0  0
   11.1726   -6.0489    0.0000 O   0  0  0  0  0  0  0  0  0  0  0  0
    9.7436   -5.2239    0.0000 O   0  0  0  0  0  0  0  0  0  0  0  0
    4.7423   -8.9364    0.0000 C   0  0  1  0  0  0  0  0  0  0  0  0
    4.7423   -9.7614    0.0000 C   0  0  2  0  0  0  0  0  0  0  0  0
    5.4568  -10.1739    0.0000 O   0  0  0  0  0  0  0  0  0  0  0  0
    6.1713   -9.7614    0.0000 O   0  0  0  0  0  0  0  0  0  0  0  0
    4.0279   -8.5239    0.0000 O   0  0  0  0  0  0  0  0  0  0  0  0
    3.3134   -8.9364    0.0000 C   0  0  1  0  0  0  0  0  0  0  0  0
    3.3134   -9.7614    0.0000 C   0  0  2  0  0  0  0  0  0  0  0  0
    4.0279  -10.1739    0.0000 C   0  0  2  0  0  0  0  0  0  0  0  0
    4.0279  -10.9989    0.0000 O   0  0  0  0  0  0  0  0  0  0  0  0
    4.7423   -7.2864    0.0000 O   0  0  0  0  0  0  0  0  0  0  0  0
    7.6002   -9.7614    0.0000 O   0  0  0  0  0  0  0  0  0  0  0  0
    2.5989   -8.5239    0.0000 C   0  0  0  0  0  0  0  0  0  0  0  0
    1.8844   -8.9364    0.0000 O   0  0  0  0  0  0  0  0  0  0  0  0
    2.5989  -10.1739    0.0000 O   0  0  0  0  0  0  0  0  0  0  0  0
    5.4568  -10.9989    0.0000 C   0  0  2  0  0  0  0  0  0  0  0  0
    4.7423  -11.4114    0.0000 O   0  0  0  0  0  0  0  0  0  0  0  0
    4.7423  -12.2364    0.0000 C   0  0  0  0  0  0  0  0  0  0  0  0
    5.4568  -12.6489    0.0000 C   0  0  2  0  0  0  0  0  0  0  0  0
    6.1713  -12.2364    0.0000 C   0  0  1  0  0  0  0  0  0  0  0  0
    6.1713  -11.4114    0.0000 C   0  0  1  0  0  0  0  0  0  0  0  0
    6.8857  -10.9989    0.0000 O   0  0  0  0  0  0  0  0  0  0  0  0
    6.8857  -12.6489    0.0000 O   0  0  0  0  0  0  0  0  0  0  0  0
    5.4568  -13.4739    0.0000 O   0  0  0  0  0  0  0  0  0  0  0  0
    4.7423   -8.1114    0.0000 H   0  0  0  0  0  0  0  0  0  0  0  0
  1  2  1  0  0  0  0
  2  3  2  0  0  0  0
  3  4  1  0  0  0  0
  4  5  2  0  0  0  0
  5  6  1  0  0  0  0
  6  1  2  0  0  0  0
  4  7  1  0  0  0  0
  7  8  1  0  0  0  0
  8  9  2  0  0  0  0
  9 10  1  0  0  0  0
 10  5  1  0  0  0  0
  9 11  1  0  0  0  0
 11 12  1  0  0  0  0
 11 13  2  0  0  0  0
 13 14  1  0  0  0  0
 14 15  2  0  0  0  0
 15 16  1  0  0  0  0
 16 12  2  0  0  0  0
 15 17  1  0  0  0  0
 18 16  1  0  0  0  0
  2 19  1  0  0  0  0
 19 20  1  0  0  0  0
 20 21  1  6  0  0  0
 22  3  1  0  0  0  0
 19 23  1  0  0  0  0
 23 24  1  0  0  0  0
 24 25  1  0  0  0  0
 25 26  1  0  0  0  0
 26 20  1  0  0  0  0
 26 27  1  1  0  0  0
  1 28  1  0  0  0  0
  7 29  2  0  0  0  0
 24 30  1  1  0  0  0
 30 31  1  0  0  0  0
 25 32  1  6  0  0  0
 33 21  1  1  0  0  0
 33 34  1  0  0  0  0
 34 35  1  0  0  0  0
 35 36  1  0  0  0  0
 36 37  1  0  0  0  0
 37 38  1  0  0  0  0
 38 33  1  0  0  0  0
 38 39  1  6  0  0  0
 37 40  1  1  0  0  0
 36 41  1  6  0  0  0
 19 42  1  6  0  0  0
M  END
>  <cdx:fragmentId>
5

$$$$
