90416.cdx
  Mrv1902 05222410272D          

 33 36  0  0  0  0            999 V2000
    3.4768  -10.6276    0.0000 O   0  0  0  0  0  0  0  0  0  0  0  0
    4.1913  -11.8651    0.0000 O   0  0  0  0  0  0  0  0  0  0  0  0
    4.9057  -11.4526    0.0000 C   0  0  2  0  0  0  0  0  0  0  0  0
    4.9057  -10.6276    0.0000 C   0  0  0  0  0  0  0  0  0  0  0  0
    4.1913  -10.2151    0.0000 C   0  0  0  0  0  0  0  0  0  0  0  0
    5.6202  -11.8651    0.0000 C   0  0  1  0  0  0  0  0  0  0  0  0
    6.3347  -11.4526    0.0000 C   0  0  0  0  0  0  0  0  0  0  0  0
    6.3347  -10.6276    0.0000 C   0  0  1  0  0  0  0  0  0  0  0  0
    5.6202  -10.2151    0.0000 O   0  0  0  0  0  0  0  0  0  0  0  0
    7.0492  -10.2151    0.0000 O   0  0  0  0  0  0  0  0  0  0  0  0
    7.0492   -9.3901    0.0000 C   0  0  0  0  0  0  0  0  0  0  0  0
    6.3347   -8.9776    0.0000 C   0  0  0  0  0  0  0  0  0  0  0  0
    5.6202   -9.3901    0.0000 O   0  0  0  0  0  0  0  0  0  0  0  0
    7.7636   -8.9776    0.0000 C   0  0  0  0  0  0  0  0  0  0  0  0
    7.7636   -8.1526    0.0000 C   0  0  0  0  0  0  0  0  0  0  0  0
    7.0492   -7.7401    0.0000 C   0  0  0  0  0  0  0  0  0  0  0  0
    6.3347   -8.1526    0.0000 C   0  0  0  0  0  0  0  0  0  0  0  0
    8.4781   -9.3901    0.0000 O   0  0  0  0  0  0  0  0  0  0  0  0
    9.1926   -8.9776    0.0000 C   0  0  0  0  0  0  0  0  0  0  0  0
    9.1926   -8.1526    0.0000 C   0  0  0  0  0  0  0  0  0  0  0  0
    8.4781   -7.7401    0.0000 C   0  0  0  0  0  0  0  0  0  0  0  0
    8.4781   -6.9151    0.0000 O   0  0  0  0  0  0  0  0  0  0  0  0
    7.0492   -6.9151    0.0000 O   0  0  0  0  0  0  0  0  0  0  0  0
    9.9070   -9.3901    0.0000 C   0  0  0  0  0  0  0  0  0  0  0  0
   10.6215   -8.9776    0.0000 C   0  0  0  0  0  0  0  0  0  0  0  0
    9.9070  -10.2151    0.0000 C   0  0  0  0  0  0  0  0  0  0  0  0
   10.6215  -10.6276    0.0000 C   0  0  0  0  0  0  0  0  0  0  0  0
   11.3360  -10.2151    0.0000 C   0  0  0  0  0  0  0  0  0  0  0  0
   11.3360   -9.3901    0.0000 C   0  0  0  0  0  0  0  0  0  0  0  0
    4.1913   -9.3901    0.0000 O   0  0  0  0  0  0  0  0  0  0  0  0
    7.0492  -11.8651    0.0000 O   0  0  0  0  0  0  0  0  0  0  0  0
   12.0505  -10.6276    0.0000 O   0  0  0  0  0  0  0  0  0  0  0  0
    5.6202  -12.6901    0.0000 O   0  0  0  0  0  0  0  0  0  0  0  0
  3  2  1  6  0  0  0
  3  4  1  0  0  0  0
  4  5  1  0  0  0  0
  5  1  1  0  0  0  0
  3  6  1  0  0  0  0
  6  7  1  0  0  0  0
  7  8  1  0  0  0  0
  8  9  1  0  0  0  0
  9  4  1  0  0  0  0
  8 10  1  1  0  0  0
 10 11  1  0  0  0  0
 11 12  2  0  0  0  0
 12 13  1  0  0  0  0
 11 14  1  0  0  0  0
 14 15  2  0  0  0  0
 15 16  1  0  0  0  0
 16 17  2  0  0  0  0
 17 12  1  0  0  0  0
 14 18  1  0  0  0  0
 18 19  1  0  0  0  0
 19 20  2  0  0  0  0
 20 21  1  0  0  0  0
 21 15  1  0  0  0  0
 21 22  2  0  0  0  0
 23 16  1  0  0  0  0
 19 24  1  0  0  0  0
 24 25  2  0  0  0  0
 24 26  1  0  0  0  0
 26 27  2  0  0  0  0
 27 28  1  0  0  0  0
 28 29  2  0  0  0  0
 29 25  1  0  0  0  0
  5 30  2  0  0  0  0
  7 31  1  0  0  0  0
 28 32  1  0  0  0  0
  6 33  1  1  0  0  0
M  END
>  <cdx:fragmentId>
5

$$$$
