904114.cdx
  Mrv1902 05222410192D          

 16 15  0  0  0  0            999 V2000
    1.8023   -7.3648    0.0000 C   0  0  0  0  0  0  0  0  0  0  0  0
    2.5168   -7.7773    0.0000 C   0  0  0  0  0  0  0  0  0  0  0  0
    3.2313   -7.3648    0.0000 C   0  0  0  0  0  0  0  0  0  0  0  0
    3.9458   -7.7773    0.0000 C   0  0  0  0  0  0  0  0  0  0  0  0
    4.6602   -7.3648    0.0000 C   0  0  0  0  0  0  0  0  0  0  0  0
    5.3747   -7.7773    0.0000 C   0  0  0  0  0  0  0  0  0  0  0  0
    6.0892   -7.3648    0.0000 C   0  0  0  0  0  0  0  0  0  0  0  0
    6.8036   -7.7773    0.0000 C   0  0  0  0  0  0  0  0  0  0  0  0
    7.5181   -7.3648    0.0000 C   0  0  0  0  0  0  0  0  0  0  0  0
    8.2326   -7.7773    0.0000 C   0  0  0  0  0  0  0  0  0  0  0  0
    8.9471   -7.3648    0.0000 C   0  0  0  0  0  0  0  0  0  0  0  0
    9.6615   -7.7773    0.0000 C   0  0  0  0  0  0  0  0  0  0  0  0
   10.3760   -7.3648    0.0000 C   0  0  0  0  0  0  0  0  0  0  0  0
   11.0905   -6.9523    0.0000 C   0  0  0  0  0  0  0  0  0  0  0  0
   11.8049   -6.5398    0.0000 C   0  0  0  0  0  0  0  0  0  0  0  0
   12.5194   -6.9523    0.0000 O   0  0  0  0  0  0  0  0  0  0  0  0
  2  1  1  0  0  0  0
  3  2  1  0  0  0  0
  4  3  1  0  0  0  0
  5  4  1  0  0  0  0
  6  5  1  0  0  0  0
  7  6  1  0  0  0  0
  8  7  1  0  0  0  0
  9  8  1  0  0  0  0
 10  9  1  0  0  0  0
 11 10  1  0  0  0  0
 12 11  1  0  0  0  0
 13 12  1  0  0  0  0
 13 14  3  0  0  0  0
 14 15  1  0  0  0  0
 15 16  1  0  0  0  0
M  END
>  <cdx:fragmentId>
3

$$$$
