90415.cdx
  Mrv1902 05222410282D          

 46 50  0  0  0  0            999 V2000
    7.7945   -9.2982    0.0000 C   0  0  1  0  0  0  0  0  0  0  0  0
    8.5098   -9.7093    0.0000 C   0  0  1  0  0  0  0  0  0  0  0  0
    9.2235   -9.2954    0.0000 C   0  0  2  0  0  0  0  0  0  0  0  0
    9.2219   -8.4704    0.0000 C   0  0  2  0  0  0  0  0  0  0  0  0
    8.5066   -8.0593    0.0000 C   0  0  1  0  0  0  0  0  0  0  0  0
    7.7929   -8.4732    0.0000 O   0  0  0  0  0  0  0  0  0  0  0  0
    8.5050   -7.2343    0.0000 O   0  0  0  0  0  0  0  0  0  0  0  0
    7.7898   -6.8232    0.0000 C   0  0  0  0  0  0  0  0  0  0  0  0
    7.0761   -7.2370    0.0000 C   0  0  0  0  0  0  0  0  0  0  0  0
    7.0777   -8.0620    0.0000 O   0  0  0  0  0  0  0  0  0  0  0  0
    7.7882   -5.9982    0.0000 C   0  0  0  0  0  0  0  0  0  0  0  0
    7.0729   -5.5870    0.0000 O   0  0  0  0  0  0  0  0  0  0  0  0
    6.3593   -6.0009    0.0000 C   0  0  0  0  0  0  0  0  0  0  0  0
    6.3608   -6.8259    0.0000 C   0  0  0  0  0  0  0  0  0  0  0  0
    5.6440   -5.5898    0.0000 C   0  0  0  0  0  0  0  0  0  0  0  0
    4.9303   -6.0036    0.0000 C   0  0  0  0  0  0  0  0  0  0  0  0
    4.9319   -6.8286    0.0000 C   0  0  0  0  0  0  0  0  0  0  0  0
    5.6472   -7.2398    0.0000 C   0  0  0  0  0  0  0  0  0  0  0  0
    5.6487   -8.0648    0.0000 O   0  0  0  0  0  0  0  0  0  0  0  0
    5.6424   -4.7648    0.0000 C   0  0  0  0  0  0  0  0  0  0  0  0
    4.9272   -4.3536    0.0000 C   0  0  0  0  0  0  0  0  0  0  0  0
    4.2151   -5.5925    0.0000 O   0  0  0  0  0  0  0  0  0  0  0  0
    9.2171   -5.9954    0.0000 C   0  0  0  0  0  0  0  0  0  0  0  0
    8.5019   -5.5843    0.0000 C   0  0  0  0  0  0  0  0  0  0  0  0
    9.9308   -5.5815    0.0000 C   0  0  0  0  0  0  0  0  0  0  0  0
    9.9292   -4.7565    0.0000 C   0  0  0  0  0  0  0  0  0  0  0  0
    9.2140   -4.3454    0.0000 C   0  0  0  0  0  0  0  0  0  0  0  0
    8.5003   -4.7593    0.0000 C   0  0  0  0  0  0  0  0  0  0  0  0
    4.9256   -3.5286    0.0000 C   0  0  0  0  0  0  0  0  0  0  0  0
    4.2103   -3.1175    0.0000 C   0  0  0  0  0  0  0  0  0  0  0  0
    5.6392   -3.1148    0.0000 C   0  0  0  0  0  0  0  0  0  0  0  0
   10.6429   -4.3427    0.0000 O   0  0  0  0  0  0  0  0  0  0  0  0
    8.5114  -10.5343    0.0000 O   0  0  0  0  0  0  0  0  0  0  0  0
    7.0808   -9.7120    0.0000 C   0  0  0  0  0  0  0  0  0  0  0  0
    9.9387   -9.7065    0.0000 O   0  0  0  0  0  0  0  0  0  0  0  0
    9.9356   -8.0565    0.0000 O   0  0  0  0  0  0  0  0  0  0  0  0
    3.5014   -6.0064    0.0000 C   0  0  2  0  0  0  0  0  0  0  0  0
    2.7853   -5.5966    0.0000 O   0  0  0  0  0  0  0  0  0  0  0  0
    2.0724   -6.0064    0.0000 C   0  0  2  0  0  0  0  0  0  0  0  0
    2.0724   -6.8314    0.0000 C   0  0  1  0  0  0  0  0  0  0  0  0
    2.7853   -7.2411    0.0000 C   0  0  2  0  0  0  0  0  0  0  0  0
    3.5014   -6.8314    0.0000 C   0  0  1  0  0  0  0  0  0  0  0  0
    1.3584   -7.2446    0.0000 O   0  0  0  0  0  0  0  0  0  0  0  0
    2.7845   -8.0661    0.0000 O   0  0  0  0  0  0  0  0  0  0  0  0
    4.2151   -7.2452    0.0000 O   0  0  0  0  0  0  0  0  0  0  0  0
    1.3584   -5.5932    0.0000 C   0  0  0  0  0  0  0  0  0  0  0  0
  1  2  1  0  0  0  0
  2  3  1  0  0  0  0
  3  4  1  0  0  0  0
  4  5  1  0  0  0  0
  5  6  1  0  0  0  0
  6  1  1  0  0  0  0
  5  7  1  1  0  0  0
  7  8  1  0  0  0  0
  8  9  1  0  0  0  0
  9 10  2  0  0  0  0
  8 11  2  0  0  0  0
 11 12  1  0  0  0  0
 12 13  1  0  0  0  0
 13 14  1  0  0  0  0
 14  9  1  0  0  0  0
 13 15  2  0  0  0  0
 15 16  1  0  0  0  0
 16 17  2  0  0  0  0
 17 18  1  0  0  0  0
 18 14  2  0  0  0  0
 18 19  1  0  0  0  0
 15 20  1  0  0  0  0
 20 21  1  0  0  0  0
 22 16  1  0  0  0  0
 23 24  2  0  0  0  0
 24 11  1  0  0  0  0
 23 25  1  0  0  0  0
 25 26  2  0  0  0  0
 26 27  1  0  0  0  0
 27 28  2  0  0  0  0
 28 24  1  0  0  0  0
 21 29  2  0  0  0  0
 29 30  1  0  0  0  0
 29 31  1  0  0  0  0
 26 32  1  0  0  0  0
  2 33  1  1  0  0  0
  1 34  1  6  0  0  0
  3 35  1  6  0  0  0
  4 36  1  6  0  0  0
 37 22  1  1  0  0  0
 37 38  1  0  0  0  0
 38 39  1  0  0  0  0
 39 40  1  0  0  0  0
 40 41  1  0  0  0  0
 41 42  1  0  0  0  0
 42 37  1  0  0  0  0
 40 43  1  1  0  0  0
 41 44  1  6  0  0  0
 42 45  1  6  0  0  0
 39 46  1  6  0  0  0
M  END
>  <cdx:fragmentId>
5

$$$$
