90411.cdx
  Mrv1902 05222410262D          

 38 43  0  0  0  0            999 V2000
    3.9031  -10.4076    0.0000 C   0  0  0  0  0  0  0  0  0  0  0  0
    3.9031  -11.2326    0.0000 C   0  0  1  0  0  0  0  0  0  0  0  0
    4.6175  -11.6451    0.0000 C   0  0  0  0  0  0  0  0  0  0  0  0
    5.3320  -11.2326    0.0000 C   0  0  1  0  0  0  0  0  0  0  0  0
    5.3320  -10.4076    0.0000 C   0  0  2  0  0  0  0  0  0  0  0  0
    4.6175   -9.9951    0.0000 C   0  0  0  0  0  0  0  0  0  0  0  0
    6.0465  -11.6451    0.0000 C   0  0  0  0  0  0  0  0  0  0  0  0
    6.7609  -11.2326    0.0000 C   0  0  0  0  0  0  0  0  0  0  0  0
    6.7609  -10.4076    0.0000 C   0  0  2  0  0  0  0  0  0  0  0  0
    6.0465   -9.9951    0.0000 C   0  0  2  0  0  0  0  0  0  0  0  0
    7.3740   -9.8556    0.0000 C   0  0  1  0  0  0  0  0  0  0  0  0
    7.0385   -9.1019    0.0000 C   0  0  1  0  0  0  0  0  0  0  0  0
    6.2180   -9.1882    0.0000 C   0  0  0  0  0  0  0  0  0  0  0  0
    8.1945   -9.9419    0.0000 C   0  0  0  0  0  0  0  0  0  0  0  0
    8.6794   -9.2744    0.0000 C   0  0  0  0  0  0  0  0  0  0  0  0
    8.3439   -8.5207    0.0000 C   0  0  2  0  0  0  0  0  0  0  0  0
    7.5234   -8.4345    0.0000 C   0  0  1  0  0  0  0  0  0  0  0  0
    8.8288   -7.8533    0.0000 C   0  0  2  0  0  0  0  0  0  0  0  0
    8.4932   -7.0996    0.0000 C   0  0  1  0  0  0  0  0  0  0  0  0
    7.6728   -7.0134    0.0000 N   0  0  0  0  0  0  0  0  0  0  0  0
    7.1878   -7.6808    0.0000 C   0  0  0  0  0  0  0  0  0  0  0  0
    8.9782   -6.4322    0.0000 C   0  0  0  0  0  0  0  0  0  0  0  0
    8.6426   -5.6785    0.0000 C   0  0  0  0  0  0  0  0  0  0  0  0
    7.8221   -5.5923    0.0000 C   0  0  1  0  0  0  0  0  0  0  0  0
    7.3372   -6.2597    0.0000 C   0  0  0  0  0  0  0  0  0  0  0  0
    6.0465  -12.4701    0.0000 O   0  0  0  0  0  0  0  0  0  0  0  0
    3.1886  -11.6451    0.0000 O   0  0  0  0  0  0  0  0  0  0  0  0
    5.3320   -9.5826    0.0000 C   0  0  0  0  0  0  0  0  0  0  0  0
    7.3443  -10.9910    0.0000 H   0  0  0  0  0  0  0  0  0  0  0  0
    7.9359   -9.1490    0.0000 H   0  0  0  0  0  0  0  0  0  0  0  0
    8.0083   -7.7671    0.0000 H   0  0  0  0  0  0  0  0  0  0  0  0
    7.4866   -4.8386    0.0000 C   0  0  0  0  0  0  0  0  0  0  0  0
    5.3320  -12.0576    0.0000 H   0  0  0  0  0  0  0  0  0  0  0  0
    6.0465  -10.8201    0.0000 H   0  0  0  0  0  0  0  0  0  0  0  0
    7.6290  -10.6402    0.0000 H   0  0  0  0  0  0  0  0  0  0  0  0
    6.6260   -8.3875    0.0000 H   0  0  0  0  0  0  0  0  0  0  0  0
    8.1577   -6.3459    0.0000 H   0  0  0  0  0  0  0  0  0  0  0  0
    9.6257   -8.0668    0.0000 C   0  0  0  0  0  0  0  0  0  0  0  0
  1  2  1  0  0  0  0
  2  3  1  0  0  0  0
  3  4  1  0  0  0  0
  4  5  1  0  0  0  0
  5  6  1  0  0  0  0
  6  1  1  0  0  0  0
  4  7  1  0  0  0  0
  7  8  1  0  0  0  0
  8  9  1  0  0  0  0
  9 10  1  0  0  0  0
 10  5  1  0  0  0  0
  9 11  1  0  0  0  0
 11 12  1  0  0  0  0
 12 13  1  0  0  0  0
 13 10  1  0  0  0  0
 11 14  1  0  0  0  0
 14 15  1  0  0  0  0
 15 16  1  0  0  0  0
 16 17  1  0  0  0  0
 17 12  1  0  0  0  0
 16 18  1  0  0  0  0
 18 19  1  0  0  0  0
 19 20  1  0  0  0  0
 20 21  1  0  0  0  0
 21 17  1  0  0  0  0
 19 22  1  0  0  0  0
 22 23  1  0  0  0  0
 23 24  1  0  0  0  0
 24 25  1  0  0  0  0
 25 20  1  0  0  0  0
  7 26  2  0  0  0  0
  2 27  1  1  0  0  0
  5 28  1  1  0  0  0
  9 29  1  1  0  0  0
 17 30  1  1  0  0  0
 16 31  1  1  0  0  0
 24 32  1  1  0  0  0
  4 33  1  6  0  0  0
 10 34  1  6  0  0  0
 11 35  1  6  0  0  0
 12 36  1  6  0  0  0
 19 37  1  6  0  0  0
 18 38  1  6  0  0  0
M  END
>  <cdx:fragmentId>
5

$$$$
