90417.cdx
  Mrv1902 05222410272D          

 25 28  0  0  0  0            999 V2000
    9.4910   -5.3983    0.0000 H   0  0  0  0  0  0  0  0  0  0  0  0
    6.6541   -7.8949    0.0000 O   0  0  0  0  0  0  0  0  0  0  0  0
    5.2168   -7.0844    0.0000 O   0  0  0  0  0  0  0  0  0  0  0  0
    9.5285   -9.5159    0.0000 C   0  0  0  0  0  0  0  0  0  0  0  0
    8.8099   -9.1106    0.0000 O   0  0  0  0  0  0  0  0  0  0  0  0
    8.4085   -4.9781    0.0000 C   0  0  0  0  0  0  0  0  0  0  0  0
   10.2304   -8.2712    0.0000 O   0  0  0  0  0  0  0  0  0  0  0  0
    8.1950   -5.7750    0.0000 N   0  0  0  0  0  0  0  0  0  0  0  0
    7.6450   -6.0775    0.0000 C   0  0  0  0  0  0  0  0  0  0  0  0
    7.6450   -6.5450    0.0000 C   0  0  0  0  0  0  0  0  0  0  0  0
    8.0829   -7.8804    0.0000 C   0  0  0  0  0  0  0  0  0  0  0  0
    8.8016   -8.2857    0.0000 C   0  0  0  0  0  0  0  0  0  0  0  0
    9.5118   -7.8660    0.0000 C   0  0  0  0  0  0  0  0  0  0  0  0
    9.5035   -7.0410    0.0000 C   0  0  0  0  0  0  0  0  0  0  0  0
    8.7848   -6.6358    0.0000 C   0  0  0  0  0  0  0  0  0  0  0  0
    8.7765   -5.8108    0.0000 C   0  0  1  0  0  0  0  0  0  0  0  0
    8.0579   -5.4056    0.0000 C   0  0  0  0  0  0  0  0  0  0  0  0
    7.3476   -5.8253    0.0000 C   0  0  0  0  0  0  0  0  0  0  0  0
    6.6290   -5.4200    0.0000 C   0  0  0  0  0  0  0  0  0  0  0  0
    5.9188   -5.8398    0.0000 C   0  0  0  0  0  0  0  0  0  0  0  0
    5.9271   -6.6647    0.0000 C   0  0  0  0  0  0  0  0  0  0  0  0
    6.6457   -7.0700    0.0000 C   0  0  0  0  0  0  0  0  0  0  0  0
    7.3560   -6.6502    0.0000 C   0  0  0  0  0  0  0  0  0  0  0  0
    8.0746   -7.0555    0.0000 C   0  0  2  0  0  0  0  0  0  0  0  0
    5.9438   -8.3146    0.0000 C   0  0  0  0  0  0  0  0  0  0  0  0
 16  1  1  1  0  0  0
 22  2  1  0  0  0  0
 21  3  1  0  0  0  0
 12  5  1  0  0  0  0
  5  4  1  0  0  0  0
  8  6  1  0  0  0  0
 13  7  2  0  0  0  0
 23 18  2  0  0  0  0
 24 15  1  0  0  0  0
  8 16  1  0  0  0  0
 24 10  1  0  0  0  0
 24 11  1  1  0  0  0
  9  8  1  0  0  0  0
 10  9  1  0  0  0  0
 12 11  2  0  0  0  0
 13 12  1  0  0  0  0
 14 13  1  0  0  0  0
 15 14  2  0  0  0  0
 16 15  1  0  0  0  0
 17 16  1  0  0  0  0
 18 17  1  0  0  0  0
 19 18  1  0  0  0  0
 20 19  2  0  0  0  0
 21 20  1  0  0  0  0
 22 21  2  0  0  0  0
 23 22  1  0  0  0  0
 24 23  1  0  0  0  0
  2 25  1  0  0  0  0
M  END
>  <cdx:fragmentId>
5

$$$$
