90414.cdx
  Mrv1902 05222410282D          

 23 25  0  0  0  0            999 V2000
   10.5004   -9.8294    0.0000 O   0  0  0  0  0  0  0  0  0  0  0  0
    9.0663   -8.1839    0.0000 C   0  0  0  0  0  0  0  0  0  0  0  0
    9.7820   -8.5942    0.0000 C   0  0  0  0  0  0  0  0  0  0  0  0
    9.7846   -9.4192    0.0000 C   0  0  0  0  0  0  0  0  0  0  0  0
    9.0715   -9.8339    0.0000 C   0  0  0  0  0  0  0  0  0  0  0  0
    8.3557   -9.4237    0.0000 C   0  0  0  0  0  0  0  0  0  0  0  0
    8.3531   -8.5987    0.0000 C   0  0  0  0  0  0  0  0  0  0  0  0
    7.6373   -8.1884    0.0000 C   0  0  0  0  0  0  0  0  0  0  0  0
    4.0585   -6.1371    0.0000 C   0  0  0  0  0  0  0  0  0  0  0  0
    4.7717   -5.7224    0.0000 O   0  0  0  0  0  0  0  0  0  0  0  0
    8.7627   -7.6619    0.0000 C   0  0  0  0  0  0  0  0  0  0  0  0
    9.1729   -6.9461    0.0000 C   0  0  0  0  0  0  0  0  0  0  0  0
    4.7769   -7.3724    0.0000 O   0  0  0  0  0  0  0  0  0  0  0  0
    6.9190   -6.9532    0.0000 C   0  0  0  0  0  0  0  0  0  0  0  0
    6.2058   -7.3679    0.0000 C   0  0  0  0  0  0  0  0  0  0  0  0
    5.4901   -6.9576    0.0000 C   0  0  0  0  0  0  0  0  0  0  0  0
    5.4875   -6.1327    0.0000 C   0  0  0  0  0  0  0  0  0  0  0  0
    6.2006   -5.7179    0.0000 C   0  0  0  0  0  0  0  0  0  0  0  0
    6.9164   -6.1282    0.0000 C   0  0  0  0  0  0  0  0  0  0  0  0
    7.6296   -5.7134    0.0000 C   0  0  0  0  0  0  0  0  0  0  0  0
    8.3453   -6.1237    0.0000 C   0  0  0  0  0  0  0  0  0  0  0  0
    8.3479   -6.9487    0.0000 N   0  3  0  0  0  0  0  0  0  0  0  0
    7.6348   -7.3634    0.0000 C   0  0  2  0  0  0  0  0  0  0  0  0
 23  8  1  6  0  0  0
  8  7  1  0  0  0  0
  4  1  1  0  0  0  0
  7  2  2  0  0  0  0
  3  2  1  0  0  0  0
  4  3  2  0  0  0  0
  5  4  1  0  0  0  0
  6  5  2  0  0  0  0
  7  6  1  0  0  0  0
 17 10  1  0  0  0  0
 10  9  1  0  0  0  0
 22 11  1  0  0  0  0
 22 12  1  0  0  0  0
 16 13  1  0  0  0  0
 19 14  2  0  0  0  0
 23 14  1  0  0  0  0
 15 14  1  0  0  0  0
 16 15  2  0  0  0  0
 17 16  1  0  0  0  0
 18 17  2  0  0  0  0
 19 18  1  0  0  0  0
 20 19  1  0  0  0  0
 21 20  1  0  0  0  0
 22 21  1  0  0  0  0
 23 22  1  0  0  0  0
M  CHG  1  22   1
M  END
>  <cdx:fragmentId>
96

$$$$
