90429.cdx
  Mrv1902 05222410282D          

 53 58  0  0  0  0            999 V2000
    3.3256   -7.8639    0.0000 C   0  0  0  0  0  0  0  0  0  0  0  0
    3.3256   -8.6889    0.0000 C   0  0  0  0  0  0  0  0  0  0  0  0
    4.0400   -9.1014    0.0000 C   0  0  0  0  0  0  0  0  0  0  0  0
    4.7545   -8.6889    0.0000 C   0  0  0  0  0  0  0  0  0  0  0  0
    4.7545   -7.8639    0.0000 C   0  0  0  0  0  0  0  0  0  0  0  0
    4.0400   -7.4514    0.0000 C   0  0  0  0  0  0  0  0  0  0  0  0
    5.4690   -9.1014    0.0000 C   0  0  0  0  0  0  0  0  0  0  0  0
    6.1834   -8.6889    0.0000 C   0  0  0  0  0  0  0  0  0  0  0  0
    6.1834   -7.8639    0.0000 C   0  0  0  0  0  0  0  0  0  0  0  0
    5.4690   -7.4514    0.0000 O   0  0  0  0  0  0  0  0  0  0  0  0
    4.0400   -9.9264    0.0000 O   0  0  0  0  0  0  0  0  0  0  0  0
    5.4690   -9.9264    0.0000 O   0  0  0  0  0  0  0  0  0  0  0  0
    6.8979   -9.1014    0.0000 O   0  0  0  0  0  0  0  0  0  0  0  0
    7.6124   -7.8639    0.0000 C   0  0  0  0  0  0  0  0  0  0  0  0
    6.8979   -7.4514    0.0000 C   0  0  0  0  0  0  0  0  0  0  0  0
    8.3269   -7.4514    0.0000 C   0  0  0  0  0  0  0  0  0  0  0  0
    8.3269   -6.6264    0.0000 C   0  0  0  0  0  0  0  0  0  0  0  0
    7.6124   -6.2139    0.0000 C   0  0  0  0  0  0  0  0  0  0  0  0
    6.8979   -6.6264    0.0000 C   0  0  0  0  0  0  0  0  0  0  0  0
    6.1834  -10.3389    0.0000 O   0  0  0  0  0  0  0  0  0  0  0  0
    6.8979   -9.9264    0.0000 C   0  0  2  0  0  0  0  0  0  0  0  0
    6.1834  -11.1639    0.0000 C   0  0  1  0  0  0  0  0  0  0  0  0
    6.8979  -11.5764    0.0000 C   0  0  2  0  0  0  0  0  0  0  0  0
    7.6124  -11.1639    0.0000 C   0  0  1  0  0  0  0  0  0  0  0  0
    7.6124  -10.3389    0.0000 C   0  0  1  0  0  0  0  0  0  0  0  0
    5.4690  -11.5764    0.0000 C   0  0  0  0  0  0  0  0  0  0  0  0
    5.4690  -12.4014    0.0000 O   0  0  0  0  0  0  0  0  0  0  0  0
    6.8979  -12.4014    0.0000 O   0  0  0  0  0  0  0  0  0  0  0  0
    4.0400  -12.4014    0.0000 O   0  0  0  0  0  0  0  0  0  0  0  0
    4.7545  -12.8139    0.0000 C   0  0  2  0  0  0  0  0  0  0  0  0
    3.3256  -12.8139    0.0000 C   0  0  2  0  0  0  0  0  0  0  0  0
    3.3256  -13.6389    0.0000 C   0  0  1  0  0  0  0  0  0  0  0  0
    4.0400  -14.0514    0.0000 C   0  0  2  0  0  0  0  0  0  0  0  0
    4.7545  -13.6389    0.0000 C   0  0  1  0  0  0  0  0  0  0  0  0
    2.6111   -7.4514    0.0000 O   0  0  0  0  0  0  0  0  0  0  0  0
    9.0413   -6.2139    0.0000 O   0  0  0  0  0  0  0  0  0  0  0  0
    2.6111  -12.4014    0.0000 C   0  0  0  0  0  0  0  0  0  0  0  0
    4.0400  -14.8764    0.0000 O   0  0  0  0  0  0  0  0  0  0  0  0
    5.4690  -14.0514    0.0000 O   0  0  0  0  0  0  0  0  0  0  0  0
    8.3269   -9.9264    0.0000 O   0  0  0  0  0  0  0  0  0  0  0  0
    2.6111  -14.0514    0.0000 O   0  0  0  0  0  0  0  0  0  0  0  0
    8.3269  -11.5764    0.0000 O   0  0  0  0  0  0  0  0  0  0  0  0
    9.0413  -10.3389    0.0000 C   0  0  2  0  0  0  0  0  0  0  0  0
    9.0413  -11.1639    0.0000 O   0  0  0  0  0  0  0  0  0  0  0  0
    9.7558  -11.5764    0.0000 C   0  0  1  0  0  0  0  0  0  0  0  0
   10.4703  -11.1639    0.0000 C   0  0  2  0  0  0  0  0  0  0  0  0
   10.4703  -10.3389    0.0000 C   0  0  1  0  0  0  0  0  0  0  0  0
    9.7558   -9.9264    0.0000 C   0  0  1  0  0  0  0  0  0  0  0  0
   11.1847   -9.9264    0.0000 O   0  0  0  0  0  0  0  0  0  0  0  0
    9.7558  -12.4014    0.0000 C   0  0  0  0  0  0  0  0  0  0  0  0
    9.7558   -9.1014    0.0000 O   0  0  0  0  0  0  0  0  0  0  0  0
   11.1847  -11.5764    0.0000 O   0  0  0  0  0  0  0  0  0  0  0  0
   10.4703  -12.8139    0.0000 O   0  0  0  0  0  0  0  0  0  0  0  0
  1  2  2  0  0  0  0
  2  3  1  0  0  0  0
  3  4  2  0  0  0  0
  4  5  1  0  0  0  0
  5  6  2  0  0  0  0
  6  1  1  0  0  0  0
  4  7  1  0  0  0  0
  7  8  1  0  0  0  0
  8  9  2  0  0  0  0
  9 10  1  0  0  0  0
 10  5  1  0  0  0  0
  3 11  1  0  0  0  0
 12  7  2  0  0  0  0
  8 13  1  0  0  0  0
 14 15  2  0  0  0  0
 15  9  1  0  0  0  0
 14 16  1  0  0  0  0
 16 17  2  0  0  0  0
 17 18  1  0  0  0  0
 18 19  2  0  0  0  0
 19 15  1  0  0  0  0
 20 21  1  0  0  0  0
 21 13  1  1  0  0  0
 20 22  1  0  0  0  0
 22 23  1  0  0  0  0
 23 24  1  0  0  0  0
 24 25  1  0  0  0  0
 25 21  1  0  0  0  0
 22 26  1  1  0  0  0
 26 27  1  0  0  0  0
 23 28  1  6  0  0  0
 29 30  1  0  0  0  0
 30 27  1  1  0  0  0
 29 31  1  0  0  0  0
 31 32  1  0  0  0  0
 32 33  1  0  0  0  0
 33 34  1  0  0  0  0
 34 30  1  0  0  0  0
  1 35  1  0  0  0  0
 17 36  1  0  0  0  0
 31 37  1  6  0  0  0
 33 38  1  6  0  0  0
 34 39  1  6  0  0  0
 25 40  1  6  0  0  0
 32 41  1  1  0  0  0
 24 42  1  1  0  0  0
 43 40  1  1  0  0  0
 43 44  1  0  0  0  0
 44 45  1  0  0  0  0
 45 46  1  0  0  0  0
 46 47  1  0  0  0  0
 47 48  1  0  0  0  0
 48 43  1  0  0  0  0
 47 49  1  1  0  0  0
 45 50  1  1  0  0  0
 48 51  1  6  0  0  0
 46 52  1  6  0  0  0
 50 53  1  0  0  0  0
M  END
>  <cdx:fragmentId>
5

$$$$
