90427.cdx
  Mrv1902 05222410192D          

 43 47  0  0  0  0            999 V2000
    2.9543   -6.3376    0.0000 C   0  0  0  0  0  0  0  0  0  0  0  0
    2.9543   -7.1626    0.0000 C   0  0  0  0  0  0  0  0  0  0  0  0
    3.6688   -7.5751    0.0000 C   0  0  0  0  0  0  0  0  0  0  0  0
    4.3832   -7.1626    0.0000 C   0  0  0  0  0  0  0  0  0  0  0  0
    4.3832   -6.3376    0.0000 C   0  0  0  0  0  0  0  0  0  0  0  0
    3.6688   -5.9251    0.0000 C   0  0  0  0  0  0  0  0  0  0  0  0
    5.0977   -7.5751    0.0000 C   0  0  0  0  0  0  0  0  0  0  0  0
    5.8122   -7.1626    0.0000 C   0  0  0  0  0  0  0  0  0  0  0  0
    5.8122   -6.3376    0.0000 C   0  0  0  0  0  0  0  0  0  0  0  0
    5.0977   -5.9251    0.0000 O   0  0  0  0  0  0  0  0  0  0  0  0
    3.6688   -8.4001    0.0000 O   0  0  0  0  0  0  0  0  0  0  0  0
    5.0977   -8.4001    0.0000 O   0  0  0  0  0  0  0  0  0  0  0  0
    5.8122   -8.8126    0.0000 O   0  0  0  0  0  0  0  0  0  0  0  0
    6.5267   -8.4001    0.0000 C   0  0  1  0  0  0  0  0  0  0  0  0
    6.5267   -7.5751    0.0000 O   0  0  0  0  0  0  0  0  0  0  0  0
    7.2411   -6.3376    0.0000 C   0  0  0  0  0  0  0  0  0  0  0  0
    6.5267   -5.9251    0.0000 C   0  0  0  0  0  0  0  0  0  0  0  0
    7.9556   -5.9251    0.0000 C   0  0  0  0  0  0  0  0  0  0  0  0
    7.9556   -5.1001    0.0000 C   0  0  0  0  0  0  0  0  0  0  0  0
    7.2411   -4.6876    0.0000 C   0  0  0  0  0  0  0  0  0  0  0  0
    6.5267   -5.1001    0.0000 C   0  0  0  0  0  0  0  0  0  0  0  0
    5.8122   -9.6376    0.0000 C   0  0  1  0  0  0  0  0  0  0  0  0
    6.5267  -10.0501    0.0000 C   0  0  2  0  0  0  0  0  0  0  0  0
    7.2411   -9.6376    0.0000 C   0  0  1  0  0  0  0  0  0  0  0  0
    7.2411   -8.8126    0.0000 C   0  0  1  0  0  0  0  0  0  0  0  0
    7.9556  -10.0501    0.0000 O   0  0  0  0  0  0  0  0  0  0  0  0
    8.6701   -9.6376    0.0000 O   0  0  0  0  0  0  0  0  0  0  0  0
    8.6701   -8.8126    0.0000 C   0  0  0  0  0  0  0  0  0  0  0  0
    7.9556   -8.4001    0.0000 O   0  0  0  0  0  0  0  0  0  0  0  0
    9.3845   -8.4001    0.0000 C   0  0  0  0  0  0  0  0  0  0  0  0
    9.3845   -7.5751    0.0000 C   0  0  0  0  0  0  0  0  0  0  0  0
   10.0990   -8.8126    0.0000 C   0  0  0  0  0  0  0  0  0  0  0  0
   10.8135   -8.4001    0.0000 C   0  0  0  0  0  0  0  0  0  0  0  0
   10.8135   -7.5751    0.0000 C   0  0  0  0  0  0  0  0  0  0  0  0
   10.0990   -7.1626    0.0000 C   0  0  0  0  0  0  0  0  0  0  0  0
    2.2398   -5.9251    0.0000 O   0  0  0  0  0  0  0  0  0  0  0  0
    8.6701   -4.6876    0.0000 O   0  0  0  0  0  0  0  0  0  0  0  0
    5.0977  -10.0501    0.0000 C   0  0  0  0  0  0  0  0  0  0  0  0
    5.0977  -10.8751    0.0000 O   0  0  0  0  0  0  0  0  0  0  0  0
   10.0990   -6.3376    0.0000 O   0  0  0  0  0  0  0  0  0  0  0  0
   11.5280   -7.1626    0.0000 O   0  0  0  0  0  0  0  0  0  0  0  0
   11.5280   -8.8126    0.0000 O   0  0  0  0  0  0  0  0  0  0  0  0
    6.5267  -10.8751    0.0000 O   0  0  0  0  0  0  0  0  0  0  0  0
  1  2  1  0  0  0  0
  2  3  2  0  0  0  0
  3  4  1  0  0  0  0
  4  5  2  0  0  0  0
  5  6  1  0  0  0  0
  6  1  2  0  0  0  0
  4  7  1  0  0  0  0
  7  8  1  0  0  0  0
  8  9  2  0  0  0  0
  9 10  1  0  0  0  0
 10  5  1  0  0  0  0
  3 11  1  0  0  0  0
 12  7  2  0  0  0  0
 13 14  1  0  0  0  0
 14 15  1  1  0  0  0
 15  8  1  0  0  0  0
 16 17  2  0  0  0  0
 17  9  1  0  0  0  0
 16 18  1  0  0  0  0
 18 19  2  0  0  0  0
 19 20  1  0  0  0  0
 20 21  2  0  0  0  0
 21 17  1  0  0  0  0
 13 22  1  0  0  0  0
 22 23  1  0  0  0  0
 23 24  1  0  0  0  0
 24 25  1  0  0  0  0
 25 14  1  0  0  0  0
 24 26  1  1  0  0  0
 27 28  2  0  0  0  0
 28 29  1  0  0  0  0
 25 29  1  6  0  0  0
 28 30  1  0  0  0  0
 30 31  1  0  0  0  0
 30 32  2  0  0  0  0
 32 33  1  0  0  0  0
 33 34  2  0  0  0  0
 34 35  1  0  0  0  0
 35 31  2  0  0  0  0
  1 36  1  0  0  0  0
 19 37  1  0  0  0  0
 22 38  1  1  0  0  0
 38 39  1  0  0  0  0
 35 40  1  0  0  0  0
 34 41  1  0  0  0  0
 33 42  1  0  0  0  0
 23 43  1  6  0  0  0
M  END
>  <cdx:fragmentId>
5

$$$$
