90422.cdx
  Mrv1902 05222410192D          

 43 47  0  0  0  0            999 V2000
   10.2870  -10.7442    0.0000 O   0  0  0  0  0  0  0  0  0  0  0  0
    7.4291  -11.5692    0.0000 O   0  0  0  0  0  0  0  0  0  0  0  0
    6.0001   -9.0942    0.0000 O   0  0  0  0  0  0  0  0  0  0  0  0
   13.1448   -8.2692    0.0000 C   0  0  0  0  0  0  0  0  0  0  0  0
   12.4304   -7.8567    0.0000 O   0  0  0  0  0  0  0  0  0  0  0  0
   10.2870   -8.2692    0.0000 C   0  0  0  0  0  0  0  0  0  0  0  0
   11.0014   -7.8567    0.0000 C   0  0  0  0  0  0  0  0  0  0  0  0
   11.7159   -8.2692    0.0000 C   0  0  0  0  0  0  0  0  0  0  0  0
   11.7159   -9.0942    0.0000 C   0  0  0  0  0  0  0  0  0  0  0  0
   11.0014   -9.5067    0.0000 C   0  0  0  0  0  0  0  0  0  0  0  0
   10.2870   -9.0942    0.0000 C   0  0  0  0  0  0  0  0  0  0  0  0
    8.8580  -11.5692    0.0000 O   0  0  0  0  0  0  0  0  0  0  0  0
    8.8580   -9.0942    0.0000 O   0  0  0  0  0  0  0  0  0  0  0  0
    8.1435   -9.5067    0.0000 C   0  0  0  0  0  0  0  0  0  0  0  0
    7.4291   -9.0942    0.0000 C   0  0  0  0  0  0  0  0  0  0  0  0
    6.7146   -9.5067    0.0000 C   0  0  0  0  0  0  0  0  0  0  0  0
    6.7146  -10.3317    0.0000 C   0  0  0  0  0  0  0  0  0  0  0  0
    7.4291  -10.7442    0.0000 C   0  0  0  0  0  0  0  0  0  0  0  0
    8.1435  -10.3317    0.0000 C   0  0  0  0  0  0  0  0  0  0  0  0
    8.8580  -10.7442    0.0000 C   0  0  0  0  0  0  0  0  0  0  0  0
    9.5725  -10.3317    0.0000 C   0  0  0  0  0  0  0  0  0  0  0  0
    9.5725   -9.5067    0.0000 C   0  0  0  0  0  0  0  0  0  0  0  0
    5.9997   -8.2692    0.0000 C   0  0  2  0  0  0  0  0  0  0  0  0
    6.7139   -7.8564    0.0000 O   0  0  0  0  0  0  0  0  0  0  0  0
    6.7135   -7.0314    0.0000 C   0  0  1  0  0  0  0  0  0  0  0  0
    5.9988   -6.6193    0.0000 C   0  0  2  0  0  0  0  0  0  0  0  0
    5.2845   -7.0321    0.0000 C   0  0  1  0  0  0  0  0  0  0  0  0
    5.2850   -7.8571    0.0000 C   0  0  1  0  0  0  0  0  0  0  0  0
    7.4277   -6.6185    0.0000 C   0  0  0  0  0  0  0  0  0  0  0  0
    4.5698   -6.6200    0.0000 O   0  0  0  0  0  0  0  0  0  0  0  0
    5.9983   -5.7943    0.0000 O   0  0  0  0  0  0  0  0  0  0  0  0
    4.5707   -8.2700    0.0000 O   0  0  0  0  0  0  0  0  0  0  0  0
    7.4273   -5.7935    0.0000 O   0  0  0  0  0  0  0  0  0  0  0  0
    3.1448   -5.8080    0.0000 C   0  0  0  0  0  0  0  0  0  0  0  0
    1.7193   -8.2850    0.0000 O   0  0  0  0  0  0  0  0  0  0  0  0
    3.1494   -9.1080    0.0000 O   0  0  0  0  0  0  0  0  0  0  0  0
    1.7170   -6.6350    0.0000 O   0  0  0  0  0  0  0  0  0  0  0  0
    3.8610   -7.0445    0.0000 O   0  0  0  0  0  0  0  0  0  0  0  0
    3.1460   -6.6330    0.0000 C   0  0  2  0  0  0  0  0  0  0  0  0
    2.4321   -7.0465    0.0000 C   0  0  1  0  0  0  0  0  0  0  0  0
    2.4332   -7.8715    0.0000 C   0  0  2  0  0  0  0  0  0  0  0  0
    3.1483   -8.2830    0.0000 C   0  0  2  0  0  0  0  0  0  0  0  0
    3.8622   -7.8695    0.0000 C   0  0  2  0  0  0  0  0  0  0  0  0
 21  1  1  0  0  0  0
 18  2  1  0  0  0  0
 16  3  1  0  0  0  0
 22 11  1  0  0  0  0
  8  5  1  0  0  0  0
  5  4  1  0  0  0  0
 11  6  2  0  0  0  0
  7  6  1  0  0  0  0
  8  7  2  0  0  0  0
  9  8  1  0  0  0  0
 10  9  2  0  0  0  0
 11 10  1  0  0  0  0
 20 12  2  0  0  0  0
 22 13  1  0  0  0  0
 14 13  1  0  0  0  0
 19 14  2  0  0  0  0
 15 14  1  0  0  0  0
 16 15  2  0  0  0  0
 17 16  1  0  0  0  0
 18 17  2  0  0  0  0
 19 18  1  0  0  0  0
 20 19  1  0  0  0  0
 21 20  1  0  0  0  0
 22 21  2  0  0  0  0
 23  3  1  1  0  0  0
 23 24  1  0  0  0  0
 24 25  1  0  0  0  0
 25 26  1  0  0  0  0
 26 27  1  0  0  0  0
 27 28  1  0  0  0  0
 28 23  1  0  0  0  0
 25 29  1  1  0  0  0
 27 30  1  1  0  0  0
 26 31  1  6  0  0  0
 28 32  1  6  0  0  0
 29 33  1  0  0  0  0
 39 34  1  6  0  0  0
 41 35  1  6  0  0  0
 42 36  1  6  0  0  0
 40 37  1  1  0  0  0
 38 43  1  0  0  0  0
 39 38  1  0  0  0  0
 40 39  1  0  0  0  0
 41 40  1  0  0  0  0
 42 41  1  0  0  0  0
 43 42  1  0  0  0  0
 43 32  1  1  0  0  0
M  END
>  <cdx:fragmentId>
5

$$$$
