90424.cdx
  Mrv1902 05222410182D          

 39 42  0  0  0  0            999 V2000
    7.0471   -9.9534    0.0000 C   0  0  0  0  0  0  0  0  0  0  0  0
    7.7622   -9.5419    0.0000 C   0  0  1  0  0  0  0  0  0  0  0  0
    7.7634   -8.7169    0.0000 O   0  0  0  0  0  0  0  0  0  0  0  0
    7.0495   -8.3034    0.0000 O   0  0  0  0  0  0  0  0  0  0  0  0
    8.4785   -8.3055    0.0000 C   0  0  1  0  0  0  0  0  0  0  0  0
    8.4797   -7.4805    0.0000 O   0  0  0  0  0  0  0  0  0  0  0  0
    7.7658   -7.0669    0.0000 C   0  0  0  0  0  0  0  0  0  0  0  0
    7.0507   -7.4784    0.0000 C   0  0  0  0  0  0  0  0  0  0  0  0
    8.4760   -9.9555    0.0000 C   0  0  2  0  0  0  0  0  0  0  0  0
    9.1911   -9.5440    0.0000 C   0  0  1  0  0  0  0  0  0  0  0  0
    9.1923   -8.7190    0.0000 C   0  0  1  0  0  0  0  0  0  0  0  0
    7.7670   -6.2419    0.0000 C   0  0  0  0  0  0  0  0  0  0  0  0
    7.0532   -5.8284    0.0000 O   0  0  0  0  0  0  0  0  0  0  0  0
    6.3381   -6.2398    0.0000 C   0  0  0  0  0  0  0  0  0  0  0  0
    6.3369   -7.0648    0.0000 C   0  0  0  0  0  0  0  0  0  0  0  0
    5.6242   -5.8263    0.0000 C   0  0  0  0  0  0  0  0  0  0  0  0
    4.9091   -6.2377    0.0000 C   0  0  0  0  0  0  0  0  0  0  0  0
    4.9079   -7.0627    0.0000 C   0  0  0  0  0  0  0  0  0  0  0  0
    5.6218   -7.4763    0.0000 C   0  0  0  0  0  0  0  0  0  0  0  0
    9.1960   -6.2440    0.0000 C   0  0  0  0  0  0  0  0  0  0  0  0
    8.4821   -5.8305    0.0000 C   0  0  0  0  0  0  0  0  0  0  0  0
    9.9110   -5.8326    0.0000 C   0  0  0  0  0  0  0  0  0  0  0  0
    9.9122   -5.0076    0.0000 C   0  0  0  0  0  0  0  0  0  0  0  0
    9.1984   -4.5940    0.0000 C   0  0  0  0  0  0  0  0  0  0  0  0
    8.4833   -5.0055    0.0000 C   0  0  0  0  0  0  0  0  0  0  0  0
    7.0459  -10.7784    0.0000 O   0  0  0  0  0  0  0  0  0  0  0  0
    8.4748  -10.7805    0.0000 O   0  0  0  0  0  0  0  0  0  0  0  0
    9.9050   -9.9576    0.0000 O   0  0  0  0  0  0  0  0  0  0  0  0
    9.9074   -8.3076    0.0000 O   0  0  0  0  0  0  0  0  0  0  0  0
    5.6206   -8.3013    0.0000 O   0  0  0  0  0  0  0  0  0  0  0  0
    4.1953   -5.8242    0.0000 O   0  0  0  0  0  0  0  0  0  0  0  0
   10.6273   -4.5961    0.0000 O   0  0  0  0  0  0  0  0  0  0  0  0
   11.3412   -5.0097    0.0000 C   0  0  0  0  0  0  0  0  0  0  0  0
    6.3308  -11.1898    0.0000 C   0  0  0  0  0  0  0  0  0  0  0  0
    6.3296  -12.0148    0.0000 C   0  0  0  0  0  0  0  0  0  0  0  0
    5.6170  -10.7763    0.0000 O   0  0  0  0  0  0  0  0  0  0  0  0
    5.6145  -12.4263    0.0000 C   0  0  0  0  0  0  0  0  0  0  0  0
    5.6133  -13.2513    0.0000 O   0  0  0  0  0  0  0  0  0  0  0  0
    4.9007  -12.0127    0.0000 O   0  0  0  0  0  0  0  0  0  0  0  0
  2  1  1  1  0  0  0
  2  3  1  0  0  0  0
  3  5  1  0  0  0  0
  5  6  1  1  0  0  0
  6  7  1  0  0  0  0
  7  8  1  0  0  0  0
  8  4  2  0  0  0  0
  2  9  1  0  0  0  0
  9 10  1  0  0  0  0
 10 11  1  0  0  0  0
 11  5  1  0  0  0  0
  7 12  2  0  0  0  0
 12 13  1  0  0  0  0
 13 14  1  0  0  0  0
 14 15  1  0  0  0  0
 15  8  1  0  0  0  0
 14 16  2  0  0  0  0
 16 17  1  0  0  0  0
 17 18  2  0  0  0  0
 18 19  1  0  0  0  0
 19 15  2  0  0  0  0
 20 21  2  0  0  0  0
 21 12  1  0  0  0  0
 20 22  1  0  0  0  0
 22 23  2  0  0  0  0
 23 24  1  0  0  0  0
 24 25  2  0  0  0  0
 25 21  1  0  0  0  0
  1 26  1  0  0  0  0
  9 27  1  6  0  0  0
 10 28  1  1  0  0  0
 11 29  1  6  0  0  0
 19 30  1  0  0  0  0
 17 31  1  0  0  0  0
 23 32  1  0  0  0  0
 32 33  1  0  0  0  0
 26 34  1  0  0  0  0
 34 35  1  0  0  0  0
 34 36  2  0  0  0  0
 35 37  1  0  0  0  0
 37 38  1  0  0  0  0
 37 39  2  0  0  0  0
M  END
>  <cdx:fragmentId>
5

$$$$
