904276.cdx
  Mrv1902 05222410182D          

 31 33  0  0  0  0            999 V2000
    4.2108   -6.7031    0.0000 C   0  0  0  0  0  0  0  0  0  0  0  0
    4.2108   -7.5281    0.0000 C   0  0  0  0  0  0  0  0  0  0  0  0
    4.9252   -7.9406    0.0000 C   0  0  0  0  0  0  0  0  0  0  0  0
    5.6397   -7.5281    0.0000 C   0  0  0  0  0  0  0  0  0  0  0  0
    5.6397   -6.7031    0.0000 C   0  0  0  0  0  0  0  0  0  0  0  0
    4.9252   -6.2906    0.0000 C   0  0  0  0  0  0  0  0  0  0  0  0
    6.3542   -7.9406    0.0000 C   0  0  0  0  0  0  0  0  0  0  0  0
    7.0687   -7.5281    0.0000 C   0  0  0  0  0  0  0  0  0  0  0  0
    7.0687   -6.7031    0.0000 C   0  0  0  0  0  0  0  0  0  0  0  0
    6.3542   -6.2906    0.0000 O   0  0  0  0  0  0  0  0  0  0  0  0
    7.7831   -7.9406    0.0000 C   0  0  0  0  0  0  0  0  0  0  0  0
    8.4976   -7.5281    0.0000 C   0  0  0  0  0  0  0  0  0  0  0  0
    9.2121   -7.9406    0.0000 C   0  0  0  0  0  0  0  0  0  0  0  0
    7.7831   -8.7656    0.0000 C   0  0  0  0  0  0  0  0  0  0  0  0
    8.4976   -9.1781    0.0000 C   0  0  0  0  0  0  0  0  0  0  0  0
    9.2121   -8.7656    0.0000 C   0  0  0  0  0  0  0  0  0  0  0  0
    4.9252   -8.7656    0.0000 O   0  0  0  0  0  0  0  0  0  0  0  0
    6.3542   -8.7656    0.0000 O   0  0  0  0  0  0  0  0  0  0  0  0
    4.9252   -5.4656    0.0000 C   0  0  0  0  0  0  0  0  0  0  0  0
    4.2108   -5.0531    0.0000 C   0  0  0  0  0  0  0  0  0  0  0  0
    3.4963   -6.2906    0.0000 O   0  0  0  0  0  0  0  0  0  0  0  0
    4.9252   -3.8156    0.0000 C   0  0  0  0  0  0  0  0  0  0  0  0
    4.2108   -4.2281    0.0000 C   0  0  0  0  0  0  0  0  0  0  0  0
    3.4963   -3.8156    0.0000 C   0  0  0  0  0  0  0  0  0  0  0  0
    9.9265   -9.1781    0.0000 O   0  0  0  0  0  0  0  0  0  0  0  0
    7.0687   -9.1781    0.0000 O   0  0  0  0  0  0  0  0  0  0  0  0
    8.4976  -10.0031    0.0000 C   0  0  0  0  0  0  0  0  0  0  0  0
    9.2121  -10.4156    0.0000 C   0  0  0  0  0  0  0  0  0  0  0  0
    9.2121  -11.2406    0.0000 C   0  0  0  0  0  0  0  0  0  0  0  0
    8.4976  -11.6531    0.0000 C   0  0  0  0  0  0  0  0  0  0  0  0
    9.9265  -11.6531    0.0000 C   0  0  0  0  0  0  0  0  0  0  0  0
  1  2  2  0  0  0  0
  2  3  1  0  0  0  0
  3  4  2  0  0  0  0
  4  5  1  0  0  0  0
  5  6  2  0  0  0  0
  6  1  1  0  0  0  0
  4  7  1  0  0  0  0
  7  8  1  0  0  0  0
  8  9  1  0  0  0  0
  9 10  1  0  0  0  0
 10  5  1  0  0  0  0
  8 11  1  0  0  0  0
 11 12  1  0  0  0  0
 12 13  2  0  0  0  0
 11 14  2  0  0  0  0
 14 15  1  0  0  0  0
 15 16  2  0  0  0  0
 16 13  1  0  0  0  0
  3 17  1  0  0  0  0
 18  7  2  0  0  0  0
  6 19  1  0  0  0  0
 19 20  1  0  0  0  0
 21  1  1  0  0  0  0
 22 23  1  0  0  0  0
 23 20  2  0  0  0  0
 23 24  1  0  0  0  0
 16 25  1  0  0  0  0
 14 26  1  0  0  0  0
 15 27  1  0  0  0  0
 27 28  1  0  0  0  0
 28 29  2  0  0  0  0
 29 30  1  0  0  0  0
 29 31  1  0  0  0  0
M  END
>  <cdx:fragmentId>
5

$$$$
