90425.cdx
  Mrv1902 05222410182D          

 54 59  0  0  0  0            999 V2000
    2.8288  -12.1294    0.0000 O   0  0  0  0  0  0  0  0  0  0  0  0
    4.2578  -11.3044    0.0000 O   0  0  0  0  0  0  0  0  0  0  0  0
    4.2578   -9.6544    0.0000 O   0  0  0  0  0  0  0  0  0  0  0  0
    2.8288  -11.3044    0.0000 C   0  0  2  0  0  0  0  0  0  0  0  0
    3.5433  -10.8919    0.0000 C   0  0  2  0  0  0  0  0  0  0  0  0
    3.5433  -10.0669    0.0000 C   0  0  1  0  0  0  0  0  0  0  0  0
    2.8288   -9.6544    0.0000 O   0  0  0  0  0  0  0  0  0  0  0  0
    4.9722  -10.8919    0.0000 C   0  0  0  0  0  0  0  0  0  0  0  0
    4.9722  -10.0669    0.0000 C   0  0  0  0  0  0  0  0  0  0  0  0
    1.3999  -11.3044    0.0000 O   0  0  0  0  0  0  0  0  0  0  0  0
    5.6867  -11.3044    0.0000 C   0  0  0  0  0  0  0  0  0  0  0  0
    6.4012  -10.8919    0.0000 C   0  0  0  0  0  0  0  0  0  0  0  0
    6.4012  -10.0669    0.0000 C   0  0  0  0  0  0  0  0  0  0  0  0
    5.6867   -9.6544    0.0000 C   0  0  0  0  0  0  0  0  0  0  0  0
    7.1156  -11.3044    0.0000 C   0  0  0  0  0  0  0  0  0  0  0  0
    7.8301  -10.8919    0.0000 C   0  0  0  0  0  0  0  0  0  0  0  0
    7.8301  -10.0669    0.0000 C   0  0  0  0  0  0  0  0  0  0  0  0
    7.1156   -9.6544    0.0000 O   0  0  0  0  0  0  0  0  0  0  0  0
    5.6867  -12.1294    0.0000 O   0  0  0  0  0  0  0  0  0  0  0  0
    7.1156  -12.1294    0.0000 O   0  0  0  0  0  0  0  0  0  0  0  0
    7.8301  -12.5419    0.0000 O   0  0  0  0  0  0  0  0  0  0  0  0
    8.5446  -12.1294    0.0000 C   0  0  1  0  0  0  0  0  0  0  0  0
    8.5446  -11.3044    0.0000 O   0  0  0  0  0  0  0  0  0  0  0  0
    7.8301  -13.3669    0.0000 C   0  0  1  0  0  0  0  0  0  0  0  0
    8.5446  -13.7794    0.0000 C   0  0  2  0  0  0  0  0  0  0  0  0
    9.2591  -13.3669    0.0000 C   0  0  1  0  0  0  0  0  0  0  0  0
    9.2591  -12.5419    0.0000 C   0  0  1  0  0  0  0  0  0  0  0  0
    7.1156  -13.7794    0.0000 C   0  0  0  0  0  0  0  0  0  0  0  0
    7.1156  -14.6044    0.0000 O   0  0  0  0  0  0  0  0  0  0  0  0
    8.5446  -14.6044    0.0000 O   0  0  0  0  0  0  0  0  0  0  0  0
    9.2591  -10.0669    0.0000 C   0  0  0  0  0  0  0  0  0  0  0  0
    8.5446   -9.6544    0.0000 C   0  0  0  0  0  0  0  0  0  0  0  0
    9.9735   -9.6544    0.0000 C   0  0  0  0  0  0  0  0  0  0  0  0
    9.9735   -8.8294    0.0000 C   0  0  0  0  0  0  0  0  0  0  0  0
    9.2591   -8.4169    0.0000 C   0  0  0  0  0  0  0  0  0  0  0  0
    8.5446   -8.8294    0.0000 C   0  0  0  0  0  0  0  0  0  0  0  0
   11.4025   -9.6544    0.0000 O   0  0  0  0  0  0  0  0  0  0  0  0
   11.4025   -8.8294    0.0000 C   0  0  1  0  0  0  0  0  0  0  0  0
   10.6880   -8.4169    0.0000 O   0  0  0  0  0  0  0  0  0  0  0  0
   12.1169  -10.0669    0.0000 C   0  0  1  0  0  0  0  0  0  0  0  0
   12.8314   -9.6544    0.0000 C   0  0  2  0  0  0  0  0  0  0  0  0
   12.8314   -8.8294    0.0000 C   0  0  1  0  0  0  0  0  0  0  0  0
   12.1169   -8.4169    0.0000 C   0  0  0  0  0  0  0  0  0  0  0  0
   12.1169  -10.8919    0.0000 C   0  0  0  0  0  0  0  0  0  0  0  0
   12.8314  -11.3044    0.0000 O   0  0  0  0  0  0  0  0  0  0  0  0
   13.5459  -10.0669    0.0000 O   0  0  0  0  0  0  0  0  0  0  0  0
   13.5459   -8.4169    0.0000 O   0  0  0  0  0  0  0  0  0  0  0  0
   12.1169   -7.5919    0.0000 O   0  0  0  0  0  0  0  0  0  0  0  0
    2.1143  -10.8919    0.0000 C   0  0  2  0  0  0  0  0  0  0  0  0
    2.1143  -10.0669    0.0000 C   0  0  1  0  0  0  0  0  0  0  0  0
    1.3999   -9.6544    0.0000 C   0  0  0  0  0  0  0  0  0  0  0  0
    0.6854  -10.0669    0.0000 O   0  0  0  0  0  0  0  0  0  0  0  0
    9.9735  -13.7794    0.0000 O   0  0  0  0  0  0  0  0  0  0  0  0
    9.9735  -12.1294    0.0000 O   0  0  0  0  0  0  0  0  0  0  0  0
  4  1  1  1  0  0  0
  5  2  1  6  0  0  0
  6  3  1  1  0  0  0
  4 49  1  0  0  0  0
  5  4  1  0  0  0  0
  6  5  1  0  0  0  0
  7  6  1  0  0  0  0
 50  7  1  0  0  0  0
 49 10  1  6  0  0  0
 50 49  1  0  0  0  0
 50 51  1  1  0  0  0
 52 51  1  0  0  0  0
  8  9  2  0  0  0  0
  9  3  1  0  0  0  0
  8 11  1  0  0  0  0
 11 12  2  0  0  0  0
 12 13  1  0  0  0  0
 13 14  2  0  0  0  0
 14  9  1  0  0  0  0
 12 15  1  0  0  0  0
 15 16  1  0  0  0  0
 16 17  2  0  0  0  0
 17 18  1  0  0  0  0
 18 13  1  0  0  0  0
 11 19  1  0  0  0  0
 20 15  2  0  0  0  0
 21 22  1  0  0  0  0
 22 23  1  1  0  0  0
 23 16  1  0  0  0  0
 21 24  1  0  0  0  0
 24 25  1  0  0  0  0
 25 26  1  0  0  0  0
 26 27  1  0  0  0  0
 27 22  1  0  0  0  0
 24 28  1  1  0  0  0
 28 29  1  0  0  0  0
 25 30  1  6  0  0  0
 31 32  2  0  0  0  0
 32 17  1  0  0  0  0
 31 33  1  0  0  0  0
 33 34  2  0  0  0  0
 34 35  1  0  0  0  0
 35 36  2  0  0  0  0
 36 32  1  0  0  0  0
 37 38  1  0  0  0  0
 38 39  1  1  0  0  0
 39 34  1  0  0  0  0
 37 40  1  0  0  0  0
 40 41  1  0  0  0  0
 41 42  1  0  0  0  0
 42 43  1  0  0  0  0
 43 38  1  0  0  0  0
 40 44  1  1  0  0  0
 44 45  1  0  0  0  0
 41 46  1  6  0  0  0
 42 47  1  1  0  0  0
 43 48  1  0  0  0  0
 26 53  1  1  0  0  0
 27 54  1  6  0  0  0
M  END
>  <cdx:fragmentId>
5

$$$$
