90433.cdx
  Mrv1902 05222410192D          

 53 58  0  0  0  0            999 V2000
    7.7737   -7.2960    0.0000 C   0  0  0  0  0  0  0  0  0  0  0  0
    7.7737   -8.1210    0.0000 C   0  0  0  0  0  0  0  0  0  0  0  0
    7.0592   -8.5335    0.0000 C   0  0  0  0  0  0  0  0  0  0  0  0
    7.0592   -9.3585    0.0000 O   0  0  0  0  0  0  0  0  0  0  0  0
    6.3447   -8.1210    0.0000 C   0  0  0  0  0  0  0  0  0  0  0  0
    5.6303   -8.5335    0.0000 C   0  0  0  0  0  0  0  0  0  0  0  0
    5.6303   -9.3585    0.0000 O   0  0  0  0  0  0  0  0  0  0  0  0
    4.9158   -8.1210    0.0000 C   0  0  0  0  0  0  0  0  0  0  0  0
    4.9158   -7.2960    0.0000 C   0  0  0  0  0  0  0  0  0  0  0  0
    4.2013   -6.8835    0.0000 O   0  0  0  0  0  0  0  0  0  0  0  0
    5.6303   -6.8835    0.0000 C   0  0  0  0  0  0  0  0  0  0  0  0
    6.3447   -7.2960    0.0000 C   0  0  0  0  0  0  0  0  0  0  0  0
    7.0592   -6.8835    0.0000 O   0  0  0  0  0  0  0  0  0  0  0  0
    8.4881   -6.8835    0.0000 C   0  0  0  0  0  0  0  0  0  0  0  0
    8.4881   -6.0585    0.0000 C   0  0  0  0  0  0  0  0  0  0  0  0
    9.2026   -5.6460    0.0000 C   0  0  0  0  0  0  0  0  0  0  0  0
    9.9171   -6.0585    0.0000 C   0  0  0  0  0  0  0  0  0  0  0  0
   10.6316   -5.6460    0.0000 O   0  0  0  0  0  0  0  0  0  0  0  0
    9.9171   -6.8835    0.0000 C   0  0  0  0  0  0  0  0  0  0  0  0
    9.2026   -7.2960    0.0000 C   0  0  0  0  0  0  0  0  0  0  0  0
    8.4881   -8.5335    0.0000 O   0  0  0  0  0  0  0  0  0  0  0  0
    8.4881   -9.3585    0.0000 C   0  0  1  0  0  0  0  0  0  0  0  0
    9.2026   -9.7710    0.0000 C   0  0  2  0  0  0  0  0  0  0  0  0
    9.9171   -9.3585    0.0000 O   0  0  0  0  0  0  0  0  0  0  0  0
    9.2026  -10.5960    0.0000 C   0  0  1  0  0  0  0  0  0  0  0  0
    9.9171  -11.0085    0.0000 O   0  0  0  0  0  0  0  0  0  0  0  0
    8.4881  -11.0085    0.0000 C   0  0  2  0  0  0  0  0  0  0  0  0
    8.4881  -11.8335    0.0000 O   0  0  0  0  0  0  0  0  0  0  0  0
    7.7737  -10.5960    0.0000 C   0  0  2  0  0  0  0  0  0  0  0  0
    7.7737   -9.7710    0.0000 O   0  0  0  0  0  0  0  0  0  0  0  0
    7.0592  -11.0085    0.0000 C   0  0  0  0  0  0  0  0  0  0  0  0
   10.6316   -9.7710    0.0000 C   0  0  1  0  0  0  0  0  0  0  0  0
   11.3460   -9.3585    0.0000 C   0  0  2  0  0  0  0  0  0  0  0  0
   11.3460   -8.5335    0.0000 O   0  0  0  0  0  0  0  0  0  0  0  0
   12.0605   -9.7710    0.0000 C   0  0  2  0  0  0  0  0  0  0  0  0
   12.7750   -9.3585    0.0000 O   0  0  0  0  0  0  0  0  0  0  0  0
   12.0605  -10.5960    0.0000 C   0  0  1  0  0  0  0  0  0  0  0  0
   12.7750  -11.0085    0.0000 O   0  0  0  0  0  0  0  0  0  0  0  0
   11.3460  -11.0085    0.0000 C   0  0  1  0  0  0  0  0  0  0  0  0
   10.6316  -10.5960    0.0000 O   0  0  0  0  0  0  0  0  0  0  0  0
   11.3460  -11.8335    0.0000 C   0  0  0  0  0  0  0  0  0  0  0  0
    7.0592  -11.8335    0.0000 O   0  0  0  0  0  0  0  0  0  0  0  0
    3.4869   -7.2960    0.0000 C   0  0  2  0  0  0  0  0  0  0  0  0
    2.7724   -6.8835    0.0000 O   0  0  0  0  0  0  0  0  0  0  0  0
    2.0579   -7.2960    0.0000 C   0  0  1  0  0  0  0  0  0  0  0  0
    2.0579   -8.1210    0.0000 C   0  0  2  0  0  0  0  0  0  0  0  0
    2.7724   -8.5335    0.0000 C   0  0  1  0  0  0  0  0  0  0  0  0
    3.4869   -8.1210    0.0000 C   0  0  1  0  0  0  0  0  0  0  0  0
    1.3434   -6.8835    0.0000 C   0  0  0  0  0  0  0  0  0  0  0  0
    2.7724   -9.3585    0.0000 O   0  0  0  0  0  0  0  0  0  0  0  0
    4.2013   -8.5335    0.0000 O   0  0  0  0  0  0  0  0  0  0  0  0
    1.3434   -8.5335    0.0000 O   0  0  0  0  0  0  0  0  0  0  0  0
    0.6290   -7.2960    0.0000 O   0  0  0  0  0  0  0  0  0  0  0  0
  1  2  2  0  0  0  0
  2  3  1  0  0  0  0
  3  4  2  0  0  0  0
  3  5  1  0  0  0  0
  5  6  1  0  0  0  0
  6  7  1  0  0  0  0
  6  8  2  0  0  0  0
  8  9  1  0  0  0  0
  9 10  1  0  0  0  0
  9 11  2  0  0  0  0
 11 12  1  0  0  0  0
  5 12  2  0  0  0  0
 12 13  1  0  0  0  0
  1 13  1  0  0  0  0
  1 14  1  0  0  0  0
 14 15  1  0  0  0  0
 15 16  2  0  0  0  0
 16 17  1  0  0  0  0
 17 18  1  0  0  0  0
 17 19  2  0  0  0  0
 19 20  1  0  0  0  0
 14 20  2  0  0  0  0
 22 21  1  1  0  0  0
 22 23  1  0  0  0  0
 23 24  1  6  0  0  0
 23 25  1  0  0  0  0
 25 26  1  1  0  0  0
 25 27  1  0  0  0  0
 27 28  1  6  0  0  0
 27 29  1  0  0  0  0
 29 30  1  0  0  0  0
 29 31  1  1  0  0  0
 22 30  1  0  0  0  0
 32 33  1  0  0  0  0
 33 34  1  6  0  0  0
 33 35  1  0  0  0  0
 35 36  1  6  0  0  0
 35 37  1  0  0  0  0
 37 38  1  1  0  0  0
 37 39  1  0  0  0  0
 39 40  1  0  0  0  0
 39 41  1  6  0  0  0
 32 40  1  0  0  0  0
 32 24  1  1  0  0  0
  2 21  1  0  0  0  0
 31 42  1  0  0  0  0
 43 10  1  1  0  0  0
 43 44  1  0  0  0  0
 44 45  1  0  0  0  0
 45 46  1  0  0  0  0
 46 47  1  0  0  0  0
 47 48  1  0  0  0  0
 48 43  1  0  0  0  0
 45 49  1  1  0  0  0
 47 50  1  1  0  0  0
 48 51  1  6  0  0  0
 46 52  1  6  0  0  0
 49 53  1  0  0  0  0
M  END
>  <cdx:fragmentId>
43

$$$$
