90435.cdx
  Mrv1902 05222410202D          

 62 67  0  0  0  0            999 V2000
   10.4533   -9.1783    0.0000 O   0  0  0  0  0  0  0  0  0  0  0  0
    9.7269  -10.4089    0.0000 O   0  0  0  0  0  0  0  0  0  0  0  0
   10.4454  -10.0033    0.0000 C   0  0  2  0  0  0  0  0  0  0  0  0
   11.1558  -10.4227    0.0000 C   0  0  1  0  0  0  0  0  0  0  0  0
   11.1478  -11.2477    0.0000 C   0  0  2  0  0  0  0  0  0  0  0  0
   10.4294  -11.6532    0.0000 C   0  0  1  0  0  0  0  0  0  0  0  0
    9.7190  -11.2338    0.0000 C   0  0  1  0  0  0  0  0  0  0  0  0
    9.0005  -11.6394    0.0000 C   0  0  0  0  0  0  0  0  0  0  0  0
    8.9926  -12.4644    0.0000 O   0  0  0  0  0  0  0  0  0  0  0  0
   10.4215  -12.4782    0.0000 O   0  0  0  0  0  0  0  0  0  0  0  0
   11.8583  -11.6670    0.0000 O   0  0  0  0  0  0  0  0  0  0  0  0
   11.8742  -10.0171    0.0000 O   0  0  0  0  0  0  0  0  0  0  0  0
    8.2981  -10.3951    0.0000 C   0  0  0  0  0  0  0  0  0  0  0  0
    7.5876   -9.9757    0.0000 C   0  0  0  0  0  0  0  0  0  0  0  0
    8.2901  -11.2200    0.0000 O   0  0  0  0  0  0  0  0  0  0  0  0
   10.4693   -7.5284    0.0000 O   0  0  0  0  0  0  0  0  0  0  0  0
    6.1827   -7.4870    0.0000 O   0  0  0  0  0  0  0  0  0  0  0  0
   11.9300   -4.2424    0.0000 C   0  0  0  0  0  0  0  0  0  0  0  0
   11.2196   -3.8230    0.0000 O   0  0  0  0  0  0  0  0  0  0  0  0
    9.0723   -4.2148    0.0000 C   0  0  0  0  0  0  0  0  0  0  0  0
    9.7907   -3.8092    0.0000 C   0  0  0  0  0  0  0  0  0  0  0  0
   10.5012   -4.2286    0.0000 C   0  0  0  0  0  0  0  0  0  0  0  0
   10.4932   -5.0535    0.0000 C   0  0  0  0  0  0  0  0  0  0  0  0
    9.7748   -5.4591    0.0000 C   0  0  0  0  0  0  0  0  0  0  0  0
    9.0643   -5.0397    0.0000 C   0  0  0  0  0  0  0  0  0  0  0  0
    4.8016   -2.5234    0.0000 C   0  0  0  0  0  0  0  0  0  0  0  0
    6.2305   -2.5372    0.0000 C   0  0  0  0  0  0  0  0  0  0  0  0
    5.5121   -2.9428    0.0000 C   0  0  0  0  0  0  0  0  0  0  0  0
    5.5041   -3.7678    0.0000 C   0  0  0  0  0  0  0  0  0  0  0  0
    6.2145   -4.1872    0.0000 C   0  0  0  0  0  0  0  0  0  0  0  0
    7.6115   -7.5008    0.0000 O   0  0  0  0  0  0  0  0  0  0  0  0
    4.7618   -6.6482    0.0000 O   0  0  0  0  0  0  0  0  0  0  0  0
    3.3249   -7.4594    0.0000 O   0  0  0  0  0  0  0  0  0  0  0  0
    1.9040   -6.6206    0.0000 O   0  0  0  0  0  0  0  0  0  0  0  0
    1.2015   -5.3763    0.0000 O   0  0  0  0  0  0  0  0  0  0  0  0
    1.9199   -4.9707    0.0000 C   0  0  0  0  0  0  0  0  0  0  0  0
    2.6304   -5.3901    0.0000 C   0  0  2  0  0  0  0  0  0  0  0  0
    2.6224   -6.2150    0.0000 C   0  0  2  0  0  0  0  0  0  0  0  0
    3.3329   -6.6344    0.0000 C   0  0  1  0  0  0  0  0  0  0  0  0
    4.0513   -6.2289    0.0000 C   0  0  2  0  0  0  0  0  0  0  0  0
    4.0593   -5.4039    0.0000 C   0  0  1  0  0  0  0  0  0  0  0  0
    3.3488   -4.9845    0.0000 O   0  0  0  0  0  0  0  0  0  0  0  0
    4.7777   -4.9983    0.0000 O   0  0  0  0  0  0  0  0  0  0  0  0
    7.6354   -5.0259    0.0000 O   0  0  0  0  0  0  0  0  0  0  0  0
    6.9170   -5.4315    0.0000 C   0  0  0  0  0  0  0  0  0  0  0  0
    6.2066   -5.0121    0.0000 C   0  0  0  0  0  0  0  0  0  0  0  0
    5.4881   -5.4177    0.0000 C   0  0  0  0  0  0  0  0  0  0  0  0
    5.4802   -6.2427    0.0000 C   0  0  0  0  0  0  0  0  0  0  0  0
    6.1906   -6.6620    0.0000 C   0  0  0  0  0  0  0  0  0  0  0  0
    6.9091   -6.2565    0.0000 C   0  0  0  0  0  0  0  0  0  0  0  0
    7.6195   -6.6758    0.0000 C   0  0  0  0  0  0  0  0  0  0  0  0
    8.3379   -6.2703    0.0000 C   0  0  0  0  0  0  0  0  0  0  0  0
    8.3459   -5.4453    0.0000 C   0  0  0  0  0  0  0  0  0  0  0  0
    9.0484   -6.6897    0.0000 O   0  0  0  0  0  0  0  0  0  0  0  0
    7.5956   -9.1507    0.0000 C   0  0  0  0  0  0  0  0  0  0  0  0
    9.0404   -7.5146    0.0000 C   0  0  1  0  0  0  0  0  0  0  0  0
    9.7509   -7.9340    0.0000 C   0  0  1  0  0  0  0  0  0  0  0  0
    9.7429   -8.7590    0.0000 C   0  0  1  0  0  0  0  0  0  0  0  0
    9.0245   -9.1645    0.0000 C   0  0  2  0  0  0  0  0  0  0  0  0
    8.3140   -8.7452    0.0000 C   0  0  1  0  0  0  0  0  0  0  0  0
    8.3220   -7.9202    0.0000 O   0  0  0  0  0  0  0  0  0  0  0  0
    9.0165   -9.9895    0.0000 O   0  0  0  0  0  0  0  0  0  0  0  0
 59 62  1  1  0  0  0
 57 16  1  6  0  0  0
 56 54  1  1  0  0  0
 54 52  1  0  0  0  0
 49 17  1  0  0  0  0
 53 25  1  0  0  0  0
 22 19  1  0  0  0  0
 19 18  1  0  0  0  0
 25 20  2  0  0  0  0
 21 20  1  0  0  0  0
 22 21  2  0  0  0  0
 23 22  1  0  0  0  0
 24 23  2  0  0  0  0
 25 24  1  0  0  0  0
 46 30  1  0  0  0  0
 28 26  1  0  0  0  0
 28 27  1  0  0  0  0
 29 28  2  0  0  0  0
 30 29  1  0  0  0  0
 51 31  2  0  0  0  0
 47 43  1  0  0  0  0
 41 43  1  1  0  0  0
 40 32  1  6  0  0  0
 39 33  1  1  0  0  0
 38 34  1  6  0  0  0
 37 36  1  1  0  0  0
 36 35  1  0  0  0  0
 42 37  1  0  0  0  0
 38 37  1  0  0  0  0
 39 38  1  0  0  0  0
 40 39  1  0  0  0  0
 41 40  1  0  0  0  0
 42 41  1  0  0  0  0
 53 44  1  0  0  0  0
 45 44  1  0  0  0  0
 50 45  2  0  0  0  0
 46 45  1  0  0  0  0
 47 46  2  0  0  0  0
 48 47  1  0  0  0  0
 49 48  2  0  0  0  0
 50 49  1  0  0  0  0
 51 50  1  0  0  0  0
 52 51  1  0  0  0  0
 53 52  2  0  0  0  0
 60 55  1  6  0  0  0
 58  1  1  6  0  0  0
 61 56  1  0  0  0  0
 57 56  1  0  0  0  0
 58 57  1  0  0  0  0
 59 58  1  0  0  0  0
 60 59  1  0  0  0  0
 61 60  1  0  0  0  0
  2  3  1  0  0  0  0
  3  4  1  0  0  0  0
  4  5  1  0  0  0  0
  5  6  1  0  0  0  0
  6  7  1  0  0  0  0
  2  7  1  0  0  0  0
  8  9  1  0  0  0  0
  7  8  1  1  0  0  0
  6 10  1  6  0  0  0
  5 11  1  1  0  0  0
  4 12  1  6  0  0  0
  3  1  1  1  0  0  0
 13 14  1  0  0  0  0
 13 15  2  0  0  0  0
 13 62  1  0  0  0  0
M  END
>  <cdx:fragmentId>
1265

$$$$
