90431.cdx
  Mrv1902 05222410182D          

 42 46  0  0  0  0            999 V2000
    7.2713   -7.3826    0.0000 C   0  0  0  0  0  0  0  0  0  0  0  0
    7.9857   -6.9701    0.0000 C   0  0  0  0  0  0  0  0  0  0  0  0
    7.9857   -6.1451    0.0000 O   0  0  0  0  0  0  0  0  0  0  0  0
    7.2713   -8.2076    0.0000 C   0  0  0  0  0  0  0  0  0  0  0  0
    7.9857   -8.6201    0.0000 C   0  0  0  0  0  0  0  0  0  0  0  0
    8.7002   -8.2076    0.0000 C   0  0  0  0  0  0  0  0  0  0  0  0
    8.7002   -7.3826    0.0000 C   0  0  0  0  0  0  0  0  0  0  0  0
    6.5568   -8.6201    0.0000 O   0  0  0  0  0  0  0  0  0  0  0  0
    7.9857   -9.4451    0.0000 C   0  0  0  0  0  0  0  0  0  0  0  0
    8.7002   -9.8576    0.0000 C   0  0  0  0  0  0  0  0  0  0  0  0
    9.4147   -9.4451    0.0000 C   0  0  0  0  0  0  0  0  0  0  0  0
    9.4147   -8.6201    0.0000 O   0  0  0  0  0  0  0  0  0  0  0  0
   10.1292   -9.8576    0.0000 C   0  0  0  0  0  0  0  0  0  0  0  0
    7.2713   -9.8576    0.0000 O   0  0  0  0  0  0  0  0  0  0  0  0
    7.2713  -10.6826    0.0000 O   0  0  0  0  0  0  0  0  0  0  0  0
    7.9857  -11.0951    0.0000 C   0  0  1  0  0  0  0  0  0  0  0  0
    8.7002  -10.6826    0.0000 O   0  0  0  0  0  0  0  0  0  0  0  0
    6.5568  -11.0951    0.0000 C   0  0  1  0  0  0  0  0  0  0  0  0
    6.5568  -11.9201    0.0000 C   0  0  2  0  0  0  0  0  0  0  0  0
    7.2713  -12.3326    0.0000 C   0  0  1  0  0  0  0  0  0  0  0  0
    7.9857  -11.9201    0.0000 C   0  0  1  0  0  0  0  0  0  0  0  0
    5.8423  -10.6826    0.0000 C   0  0  0  0  0  0  0  0  0  0  0  0
    5.1279  -11.0951    0.0000 O   0  0  0  0  0  0  0  0  0  0  0  0
    5.8423  -12.3326    0.0000 O   0  0  0  0  0  0  0  0  0  0  0  0
    4.4134   -9.8576    0.0000 O   0  0  0  0  0  0  0  0  0  0  0  0
    4.4134  -10.6826    0.0000 C   0  0  0  0  0  0  0  0  0  0  0  0
    3.6989   -9.4451    0.0000 C   0  0  0  0  0  0  0  0  0  0  0  0
    2.9844   -9.8576    0.0000 C   0  0  0  0  0  0  0  0  0  0  0  0
    2.9844  -10.6826    0.0000 C   0  0  0  0  0  0  0  0  0  0  0  0
    3.6989  -11.0951    0.0000 C   0  0  0  0  0  0  0  0  0  0  0  0
    3.6989   -8.6201    0.0000 C   0  0  0  0  0  0  0  0  0  0  0  0
    2.9844   -8.2076    0.0000 C   0  0  0  0  0  0  0  0  0  0  0  0
    2.2700   -8.6201    0.0000 C   0  0  0  0  0  0  0  0  0  0  0  0
    2.2700   -9.4451    0.0000 C   0  0  0  0  0  0  0  0  0  0  0  0
   10.1292  -10.6826    0.0000 C   0  0  0  0  0  0  0  0  0  0  0  0
   10.8436  -11.0951    0.0000 C   0  0  0  0  0  0  0  0  0  0  0  0
   11.5581  -10.6826    0.0000 C   0  0  0  0  0  0  0  0  0  0  0  0
   11.5581   -9.8576    0.0000 C   0  0  0  0  0  0  0  0  0  0  0  0
   10.8436   -9.4451    0.0000 C   0  0  0  0  0  0  0  0  0  0  0  0
   12.2726  -11.0951    0.0000 O   0  0  0  0  0  0  0  0  0  0  0  0
    7.2713  -13.1576    0.0000 O   0  0  0  0  0  0  0  0  0  0  0  0
    8.7002  -12.3326    0.0000 O   0  0  0  0  0  0  0  0  0  0  0  0
  1  2  2  0  0  0  0
  2  3  1  0  0  0  0
  1  4  1  0  0  0  0
  4  5  2  0  0  0  0
  5  6  1  0  0  0  0
  6  7  2  0  0  0  0
  7  2  1  0  0  0  0
  8  4  1  0  0  0  0
  5  9  1  0  0  0  0
  9 10  1  0  0  0  0
 10 11  2  0  0  0  0
 11 12  1  0  0  0  0
 12  6  1  0  0  0  0
 11 13  1  0  0  0  0
  9 14  2  0  0  0  0
 15 16  1  0  0  0  0
 16 17  1  1  0  0  0
 17 10  1  0  0  0  0
 15 18  1  0  0  0  0
 18 19  1  0  0  0  0
 19 20  1  0  0  0  0
 20 21  1  0  0  0  0
 21 16  1  0  0  0  0
 18 22  1  1  0  0  0
 22 23  1  0  0  0  0
 19 24  1  6  0  0  0
 25 26  2  0  0  0  0
 26 23  1  0  0  0  0
 27 28  2  0  0  0  0
 28 29  1  0  0  0  0
 29 30  2  0  0  0  0
 30 26  1  0  0  0  0
 27 31  1  0  0  0  0
 31 32  2  0  0  0  0
 32 33  1  0  0  0  0
 33 34  2  0  0  0  0
 34 28  1  0  0  0  0
 13 35  2  0  0  0  0
 35 36  1  0  0  0  0
 36 37  2  0  0  0  0
 37 38  1  0  0  0  0
 38 39  2  0  0  0  0
 39 13  1  0  0  0  0
 37 40  1  0  0  0  0
 20 41  1  1  0  0  0
 21 42  1  6  0  0  0
M  END
>  <cdx:fragmentId>
5

$$$$
