90442.cdx
  Mrv1902 05222410222D          

 35 38  0  0  0  0            999 V2000
    3.0231   -8.5462    0.0000 O   0  0  0  0  0  0  0  0  0  0  0  0
    3.7418   -9.7813    0.0000 O   0  0  0  0  0  0  0  0  0  0  0  0
    4.4548   -9.3664    0.0000 C   0  0  2  0  0  0  0  0  0  0  0  0
    4.4521   -8.5414    0.0000 C   0  0  1  0  0  0  0  0  0  0  0  0
    3.7362   -8.1313    0.0000 C   0  0  0  0  0  0  0  0  0  0  0  0
    5.1707   -9.7765    0.0000 C   0  0  1  0  0  0  0  0  0  0  0  0
   11.5908   -6.0482    0.0000 O   0  0  0  0  0  0  0  0  0  0  0  0
   13.0216   -6.8700    0.0000 O   0  0  0  0  0  0  0  0  0  0  0  0
    8.0285  -10.5936    0.0000 O   0  0  0  0  0  0  0  0  0  0  0  0
    9.4575  -10.5904    0.0000 O   0  0  0  0  0  0  0  0  0  0  0  0
   12.3098   -8.1091    0.0000 C   0  0  0  0  0  0  0  0  0  0  0  0
   12.3080   -7.2841    0.0000 C   0  0  0  0  0  0  0  0  0  0  0  0
   11.5926   -6.8732    0.0000 C   0  0  0  0  0  0  0  0  0  0  0  0
   10.8791   -7.2872    0.0000 C   0  0  0  0  0  0  0  0  0  0  0  0
   11.5963   -8.5231    0.0000 C   0  0  0  0  0  0  0  0  0  0  0  0
   10.8809   -8.1122    0.0000 C   0  0  0  0  0  0  0  0  0  0  0  0
    9.4556   -9.7654    0.0000 C   0  0  0  0  0  0  0  0  0  0  0  0
   10.1692   -9.3513    0.0000 C   0  0  0  0  0  0  0  0  0  0  0  0
   10.1673   -8.5263    0.0000 C   0  0  0  0  0  0  0  0  0  0  0  0
    9.4520   -8.1154    0.0000 O   0  0  0  0  0  0  0  0  0  0  0  0
    8.0267   -9.7686    0.0000 C   0  0  0  0  0  0  0  0  0  0  0  0
    8.7402   -9.3545    0.0000 C   0  0  0  0  0  0  0  0  0  0  0  0
    8.7384   -8.5295    0.0000 C   0  0  0  0  0  0  0  0  0  0  0  0
    8.0230   -8.1186    0.0000 C   0  0  0  0  0  0  0  0  0  0  0  0
    5.8838   -9.3616    0.0000 C   0  0  2  0  0  0  0  0  0  0  0  0
    7.3113   -9.3577    0.0000 C   0  0  0  0  0  0  0  0  0  0  0  0
    7.3095   -8.5327    0.0000 C   0  0  0  0  0  0  0  0  0  0  0  0
    5.8810   -8.5366    0.0000 C   0  0  1  0  0  0  0  0  0  0  0  0
    5.1652   -8.1265    0.0000 O   0  0  0  0  0  0  0  0  0  0  0  0
    6.5941   -8.1217    0.0000 O   0  0  0  0  0  0  0  0  0  0  0  0
    5.1735  -10.6015    0.0000 O   0  0  0  0  0  0  0  0  0  0  0  0
    6.5996   -9.7717    0.0000 O   0  0  0  0  0  0  0  0  0  0  0  0
    2.3073   -8.1361    0.0000 C   0  0  0  0  0  0  0  0  0  0  0  0
    1.5942   -8.5510    0.0000 C   0  0  0  0  0  0  0  0  0  0  0  0
    2.3045   -7.3111    0.0000 O   0  0  0  0  0  0  0  0  0  0  0  0
  3  2  1  6  0  0  0
  3  4  1  0  0  0  0
  4  5  1  1  0  0  0
  5  1  1  0  0  0  0
 13  7  1  0  0  0  0
 12  8  1  0  0  0  0
  9 21  1  0  0  0  0
 17 10  2  0  0  0  0
 11 15  2  0  0  0  0
 12 11  1  0  0  0  0
 13 12  2  0  0  0  0
 14 13  1  0  0  0  0
 16 14  2  0  0  0  0
 16 15  1  0  0  0  0
 19 16  1  0  0  0  0
 17 22  1  0  0  0  0
 18 17  1  0  0  0  0
 19 18  2  0  0  0  0
 20 19  1  0  0  0  0
 23 20  1  0  0  0  0
 21 26  1  0  0  0  0
 22 21  2  0  0  0  0
 23 22  1  0  0  0  0
 24 23  2  0  0  0  0
 27 24  1  0  0  0  0
 27 26  2  0  0  0  0
 30 27  1  0  0  0  0
  3  6  1  0  0  0  0
  6 25  1  0  0  0  0
 25 28  1  0  0  0  0
 28 29  1  0  0  0  0
 29  4  1  0  0  0  0
 28 30  1  1  0  0  0
  6 31  1  1  0  0  0
 25 32  1  6  0  0  0
  1 33  1  0  0  0  0
 33 34  1  0  0  0  0
 33 35  2  0  0  0  0
M  END
>  <cdx:fragmentId>
5

$$$$
