90444.cdx
  Mrv1902 05222410212D          

 46 50  0  0  0  0            999 V2000
    6.7356   -8.6614    0.0000 C   0  0  2  0  0  0  0  0  0  0  0  0
    6.7356   -9.4864    0.0000 C   0  0  2  0  0  0  0  0  0  0  0  0
    7.4500   -9.8989    0.0000 C   0  0  1  0  0  0  0  0  0  0  0  0
    8.1645   -9.4864    0.0000 C   0  0  2  0  0  0  0  0  0  0  0  0
    8.1645   -8.6614    0.0000 O   0  0  0  0  0  0  0  0  0  0  0  0
    7.4500   -8.2489    0.0000 C   0  0  1  0  0  0  0  0  0  0  0  0
    7.4500   -7.4239    0.0000 C   0  0  0  0  0  0  0  0  0  0  0  0
    6.7356   -7.0114    0.0000 C   0  0  0  0  0  0  0  0  0  0  0  0
    6.0211   -7.4239    0.0000 O   0  0  0  0  0  0  0  0  0  0  0  0
    6.0211   -8.2489    0.0000 O   0  0  0  0  0  0  0  0  0  0  0  0
    8.1645   -7.0114    0.0000 C   0  0  0  0  0  0  0  0  0  0  0  0
    8.1645   -6.1864    0.0000 C   0  0  0  0  0  0  0  0  0  0  0  0
    7.4500   -5.7739    0.0000 C   0  0  0  0  0  0  0  0  0  0  0  0
    6.7356   -6.1864    0.0000 C   0  0  0  0  0  0  0  0  0  0  0  0
    8.8790   -7.4239    0.0000 O   0  0  0  0  0  0  0  0  0  0  0  0
    9.5934   -7.0114    0.0000 C   0  0  0  0  0  0  0  0  0  0  0  0
    9.5934   -6.1864    0.0000 C   0  0  0  0  0  0  0  0  0  0  0  0
    8.8790   -5.7739    0.0000 C   0  0  0  0  0  0  0  0  0  0  0  0
    8.8790   -4.9489    0.0000 O   0  0  0  0  0  0  0  0  0  0  0  0
    7.4500   -4.9489    0.0000 O   0  0  0  0  0  0  0  0  0  0  0  0
   10.3079   -7.4239    0.0000 C   0  0  0  0  0  0  0  0  0  0  0  0
   11.0224   -7.0114    0.0000 C   0  0  0  0  0  0  0  0  0  0  0  0
   10.3079   -8.2489    0.0000 C   0  0  0  0  0  0  0  0  0  0  0  0
   11.0224   -8.6614    0.0000 C   0  0  0  0  0  0  0  0  0  0  0  0
   11.7369   -8.2489    0.0000 C   0  0  0  0  0  0  0  0  0  0  0  0
   11.7369   -7.4239    0.0000 C   0  0  0  0  0  0  0  0  0  0  0  0
    7.4500  -10.7239    0.0000 O   0  0  0  0  0  0  0  0  0  0  0  0
    8.8790  -10.7239    0.0000 O   0  0  0  0  0  0  0  0  0  0  0  0
    8.8790   -9.8989    0.0000 C   0  0  0  0  0  0  0  0  0  0  0  0
   11.0224   -9.4864    0.0000 O   0  0  0  0  0  0  0  0  0  0  0  0
   12.4513   -8.6614    0.0000 O   0  0  0  0  0  0  0  0  0  0  0  0
    8.1645   -7.8364    0.0000 H   0  0  0  0  0  0  0  0  0  0  0  0
    6.0211   -9.8989    0.0000 O   0  0  0  0  0  0  0  0  0  0  0  0
    5.3066   -8.6614    0.0000 C   0  0  0  0  0  0  0  0  0  0  0  0
    4.5921   -8.2489    0.0000 C   0  0  0  0  0  0  0  0  0  0  0  0
    3.8777   -8.6614    0.0000 C   0  0  0  0  0  0  0  0  0  0  0  0
    3.1632   -8.2489    0.0000 C   0  0  0  0  0  0  0  0  0  0  0  0
    5.3066   -9.4864    0.0000 O   0  0  0  0  0  0  0  0  0  0  0  0
    3.1632   -7.4239    0.0000 C   0  0  0  0  0  0  0  0  0  0  0  0
    2.4487   -7.0114    0.0000 C   0  0  0  0  0  0  0  0  0  0  0  0
    1.7343   -7.4239    0.0000 C   0  0  0  0  0  0  0  0  0  0  0  0
    1.7343   -8.2489    0.0000 C   0  0  0  0  0  0  0  0  0  0  0  0
    2.4487   -8.6614    0.0000 C   0  0  0  0  0  0  0  0  0  0  0  0
    1.0198   -7.0114    0.0000 O   0  0  0  0  0  0  0  0  0  0  0  0
    2.4487   -6.1864    0.0000 O   0  0  0  0  0  0  0  0  0  0  0  0
    1.7343   -5.7739    0.0000 C   0  0  0  0  0  0  0  0  0  0  0  0
  1  2  1  0  0  0  0
  2  3  1  0  0  0  0
  3  4  1  0  0  0  0
  4  5  1  0  0  0  0
  5  6  1  0  0  0  0
  6  1  1  0  0  0  0
  6  7  1  0  0  0  0
  7  8  2  0  0  0  0
  8  9  1  0  0  0  0
  1 10  1  1  0  0  0
  7 11  1  0  0  0  0
 11 12  2  0  0  0  0
 12 13  1  0  0  0  0
 13 14  2  0  0  0  0
 14  8  1  0  0  0  0
 11 15  1  0  0  0  0
 15 16  1  0  0  0  0
 16 17  2  0  0  0  0
 17 18  1  0  0  0  0
 18 12  1  0  0  0  0
 18 19  2  0  0  0  0
 20 13  1  0  0  0  0
 16 21  1  0  0  0  0
 21 22  1  0  0  0  0
 21 23  2  0  0  0  0
 23 24  1  0  0  0  0
 24 25  2  0  0  0  0
 25 26  1  0  0  0  0
 26 22  2  0  0  0  0
  3 27  1  1  0  0  0
 28 29  1  0  0  0  0
  4 29  1  6  0  0  0
 24 30  1  0  0  0  0
 25 31  1  0  0  0  0
  6 32  1  1  0  0  0
  2 33  1  6  0  0  0
 10 34  1  0  0  0  0
 34 35  1  0  0  0  0
 35 36  2  0  0  0  0
 36 37  1  0  0  0  0
 34 38  2  0  0  0  0
 37 39  2  0  0  0  0
 39 40  1  0  0  0  0
 40 41  2  0  0  0  0
 41 42  1  0  0  0  0
 42 43  2  0  0  0  0
 43 37  1  0  0  0  0
 41 44  1  0  0  0  0
 40 45  1  0  0  0  0
 45 46  1  0  0  0  0
M  END
>  <cdx:fragmentId>
5

$$$$
