90440.cdx
  Mrv1902 05222410222D          

 18 19  0  0  0  0            999 V2000
    5.9656   -7.2726    0.0000 C   0  0  0  0  0  0  0  0  0  0  0  0
    5.9656   -8.0976    0.0000 C   0  0  0  0  0  0  0  0  0  0  0  0
    6.6800   -8.5101    0.0000 C   0  0  0  0  0  0  0  0  0  0  0  0
    7.3945   -8.0976    0.0000 C   0  0  0  0  0  0  0  0  0  0  0  0
    7.3945   -7.2726    0.0000 C   0  0  0  0  0  0  0  0  0  0  0  0
    6.6800   -6.8601    0.0000 C   0  0  0  0  0  0  0  0  0  0  0  0
    5.2511   -8.5101    0.0000 O   0  0  0  0  0  0  0  0  0  0  0  0
    5.2511   -6.8601    0.0000 O   0  0  0  0  0  0  0  0  0  0  0  0
    4.5366   -7.2726    0.0000 C   0  0  0  0  0  0  0  0  0  0  0  0
    6.6800   -9.3351    0.0000 O   0  0  0  0  0  0  0  0  0  0  0  0
    7.3945   -9.7476    0.0000 C   0  0  0  0  0  0  0  0  0  0  0  0
    8.1090   -6.8601    0.0000 C   0  0  2  0  0  0  0  0  0  0  0  0
    8.8626   -7.1957    0.0000 C   0  0  2  0  0  0  0  0  0  0  0  0
    9.4147   -6.5826    0.0000 C   0  0  0  0  0  0  0  0  0  0  0  0
    9.0022   -5.8681    0.0000 O   0  0  0  0  0  0  0  0  0  0  0  0
    8.1952   -6.0397    0.0000 C   0  0  0  0  0  0  0  0  0  0  0  0
   10.2352   -6.6688    0.0000 O   0  0  0  0  0  0  0  0  0  0  0  0
    9.0342   -8.0027    0.0000 O   0  0  0  0  0  0  0  0  0  0  0  0
  1  2  2  0  0  0  0
  2  3  1  0  0  0  0
  3  4  2  0  0  0  0
  4  5  1  0  0  0  0
  5  6  2  0  0  0  0
  6  1  1  0  0  0  0
  2  7  1  0  0  0  0
  1  8  1  0  0  0  0
  8  9  1  0  0  0  0
  3 10  1  0  0  0  0
 10 11  1  0  0  0  0
 12  5  1  1  0  0  0
 12 13  1  0  0  0  0
 13 14  1  0  0  0  0
 14 15  1  0  0  0  0
 15 16  1  0  0  0  0
 16 12  1  0  0  0  0
 14 17  2  0  0  0  0
 13 18  1  6  0  0  0
M  END
>  <cdx:fragmentId>
5

$$$$
