90441.cdx
  Mrv1902 05222410222D          

 23 24  0  0  0  0            999 V2000
    5.1406   -9.5414    0.0000 C   0  0  0  0  0  0  0  0  0  0  0  0
    5.1406  -10.3664    0.0000 C   0  0  0  0  0  0  0  0  0  0  0  0
    5.8550  -10.7789    0.0000 C   0  0  0  0  0  0  0  0  0  0  0  0
    6.5695  -10.3664    0.0000 C   0  0  0  0  0  0  0  0  0  0  0  0
    6.5695   -9.5414    0.0000 C   0  0  0  0  0  0  0  0  0  0  0  0
    5.8550   -9.1289    0.0000 C   0  0  0  0  0  0  0  0  0  0  0  0
    4.4261   -9.1289    0.0000 O   0  0  0  0  0  0  0  0  0  0  0  0
    7.2840  -10.7789    0.0000 O   0  0  0  0  0  0  0  0  0  0  0  0
    7.2840   -9.1289    0.0000 C   0  0  2  0  0  0  0  0  0  0  0  0
    8.0376   -9.4645    0.0000 O   0  0  0  0  0  0  0  0  0  0  0  0
    8.5897   -8.8514    0.0000 C   0  0  0  0  0  0  0  0  0  0  0  0
    8.1772   -8.1369    0.0000 C   0  0  0  0  0  0  0  0  0  0  0  0
    7.3702   -8.3084    0.0000 C   0  0  0  0  0  0  0  0  0  0  0  0
    9.4102   -8.9376    0.0000 O   0  0  0  0  0  0  0  0  0  0  0  0
    8.5127   -7.3832    0.0000 C   0  0  0  0  0  0  0  0  0  0  0  0
    9.3096   -7.1697    0.0000 C   0  0  0  0  0  0  0  0  0  0  0  0
    9.5231   -6.3728    0.0000 C   0  0  0  0  0  0  0  0  0  0  0  0
   10.3200   -6.1593    0.0000 C   0  0  0  0  0  0  0  0  0  0  0  0
   10.5336   -5.3624    0.0000 C   0  0  0  0  0  0  0  0  0  0  0  0
    9.9502   -4.7790    0.0000 O   0  0  0  0  0  0  0  0  0  0  0  0
   10.9034   -6.7426    0.0000 C   0  0  0  0  0  0  0  0  0  0  0  0
    6.7006   -8.5455    0.0000 O   0  0  0  0  0  0  0  0  0  0  0  0
    6.9141   -7.7486    0.0000 C   0  0  0  0  0  0  0  0  0  0  0  0
  1  2  2  0  0  0  0
  2  3  1  0  0  0  0
  3  4  2  0  0  0  0
  4  5  1  0  0  0  0
  5  6  2  0  0  0  0
  6  1  1  0  0  0  0
  1  7  1  0  0  0  0
  4  8  1  0  0  0  0
  5  9  1  0  0  0  0
  9 10  1  0  0  0  0
 10 11  1  0  0  0  0
 11 12  1  0  0  0  0
 12 13  2  0  0  0  0
 13  9  1  0  0  0  0
 11 14  2  0  0  0  0
 12 15  1  0  0  0  0
 15 16  1  0  0  0  0
 16 17  1  0  0  0  0
 17 18  2  0  0  0  0
 18 19  1  0  0  0  0
 19 20  2  0  0  0  0
 18 21  1  0  0  0  0
  9 22  1  6  0  0  0
 22 23  1  0  0  0  0
M  END
>  <cdx:fragmentId>
5

$$$$
