90443.cdx
  Mrv1902 05222410232D          

 39 42  0  0  0  0            999 V2000
    5.1226   -8.1019    0.0000 O   0  0  0  0  0  0  0  0  0  0  0  0
    3.6937   -8.0943    0.0000 O   0  0  0  0  0  0  0  0  0  0  0  0
    2.9727   -9.3281    0.0000 O   0  0  0  0  0  0  0  0  0  0  0  0
    3.6893   -8.9193    0.0000 C   0  0  0  0  0  0  0  0  0  0  0  0
    4.4016   -9.3356    0.0000 C   0  0  0  0  0  0  0  0  0  0  0  0
    5.1183   -8.9269    0.0000 C   0  0  0  0  0  0  0  0  0  0  0  0
    5.8393   -7.6931    0.0000 O   0  0  0  0  0  0  0  0  0  0  0  0
    7.9718   -9.7669    0.0000 H   0  0  0  0  0  0  0  0  0  0  0  0
   12.2629   -8.9645    0.0000 O   0  0  0  0  0  0  0  0  0  0  0  0
   10.8383   -8.1320    0.0000 O   0  0  0  0  0  0  0  0  0  0  0  0
    8.6971   -7.7082    0.0000 C   0  0  0  0  0  0  0  0  0  0  0  0
    8.7014   -6.8832    0.0000 O   0  0  0  0  0  0  0  0  0  0  0  0
    7.2725   -6.8757    0.0000 O   0  0  0  0  0  0  0  0  0  0  0  0
   11.5419  -10.1982    0.0000 C   0  0  0  0  0  0  0  0  0  0  0  0
   11.5462   -9.3732    0.0000 C   0  0  0  0  0  0  0  0  0  0  0  0
   10.8340   -8.9570    0.0000 C   0  0  0  0  0  0  0  0  0  0  0  0
   10.1173   -9.3657    0.0000 C   0  0  0  0  0  0  0  0  0  0  0  0
   10.8253  -10.6070    0.0000 C   0  0  0  0  0  0  0  0  0  0  0  0
   10.1130  -10.1907    0.0000 C   0  0  0  0  0  0  0  0  0  0  0  0
    7.2421  -12.6506    0.0000 O   0  0  0  0  0  0  0  0  0  0  0  0
    8.6710  -12.6581    0.0000 O   0  0  0  0  0  0  0  0  0  0  0  0
    8.6754  -11.8332    0.0000 C   0  0  0  0  0  0  0  0  0  0  0  0
    9.3920  -11.4244    0.0000 C   0  0  0  0  0  0  0  0  0  0  0  0
    9.3963  -10.5994    0.0000 C   0  0  0  0  0  0  0  0  0  0  0  0
    8.6841  -10.1832    0.0000 O   0  0  0  0  0  0  0  0  0  0  0  0
    6.5341  -11.4094    0.0000 C   0  0  0  0  0  0  0  0  0  0  0  0
    7.2464  -11.8256    0.0000 C   0  0  0  0  0  0  0  0  0  0  0  0
    7.9631  -11.4169    0.0000 C   0  0  0  0  0  0  0  0  0  0  0  0
    7.9674  -10.5919    0.0000 C   0  0  0  0  0  0  0  0  0  0  0  0
    5.8306   -9.3431    0.0000 O   0  0  0  0  0  0  0  0  0  0  0  0
    5.8262  -10.1681    0.0000 O   0  0  0  0  0  0  0  0  0  0  0  0
    6.5385  -10.5844    0.0000 C   0  0  0  0  0  0  0  0  0  0  0  0
    7.2551  -10.1756    0.0000 C   0  0  0  0  0  0  0  0  0  0  0  0
    7.2595   -9.3507    0.0000 C   0  0  2  0  0  0  0  0  0  0  0  0
    7.9761   -8.9419    0.0000 O   0  0  0  0  0  0  0  0  0  0  0  0
    7.9805   -8.1169    0.0000 C   0  0  1  0  0  0  0  0  0  0  0  0
    7.2682   -7.7007    0.0000 C   0  0  2  0  0  0  0  0  0  0  0  0
    6.5515   -8.1094    0.0000 C   0  0  1  0  0  0  0  0  0  0  0  0
    6.5472   -8.9344    0.0000 C   0  0  1  0  0  0  0  0  0  0  0  0
  6  1  2  0  0  0  0
  4  2  2  0  0  0  0
  4  3  1  0  0  0  0
  5  4  1  0  0  0  0
  6  5  1  0  0  0  0
 30  6  1  0  0  0  0
 38  7  1  1  0  0  0
 34  8  1  6  0  0  0
 15  9  1  0  0  0  0
 16 10  1  0  0  0  0
 36 11  1  1  0  0  0
 12 11  1  0  0  0  0
 37 13  1  6  0  0  0
 14 18  2  0  0  0  0
 15 14  1  0  0  0  0
 16 15  2  0  0  0  0
 17 16  1  0  0  0  0
 19 17  2  0  0  0  0
 19 18  1  0  0  0  0
 24 19  1  0  0  0  0
 20 27  1  0  0  0  0
 22 21  2  0  0  0  0
 22 28  1  0  0  0  0
 23 22  1  0  0  0  0
 24 23  2  0  0  0  0
 25 24  1  0  0  0  0
 29 25  1  0  0  0  0
 26 32  1  0  0  0  0
 27 26  2  0  0  0  0
 28 27  1  0  0  0  0
 29 28  2  0  0  0  0
 33 29  1  0  0  0  0
 39 30  1  6  0  0  0
 32 31  1  0  0  0  0
 33 32  2  0  0  0  0
 34 33  1  0  0  0  0
 34 39  1  0  0  0  0
 35 34  1  0  0  0  0
 36 35  1  0  0  0  0
 37 36  1  0  0  0  0
 38 37  1  0  0  0  0
 39 38  1  0  0  0  0
M  END
>  <cdx:fragmentId>
5

$$$$
