90449.cdx
  Mrv1902 05222410252D          

 43 47  0  0  0  0            999 V2000
    2.7481   -9.4451    0.0000 O   0  0  0  0  0  0  0  0  0  0  0  0
    3.4625  -10.6826    0.0000 O   0  0  0  0  0  0  0  0  0  0  0  0
    4.1770  -10.2701    0.0000 C   0  0  2  0  0  0  0  0  0  0  0  0
    4.1770   -9.4451    0.0000 C   0  0  1  0  0  0  0  0  0  0  0  0
    3.4625   -9.0326    0.0000 C   0  0  0  0  0  0  0  0  0  0  0  0
    4.8915  -10.6826    0.0000 C   0  0  1  0  0  0  0  0  0  0  0  0
    5.6059  -10.2701    0.0000 C   0  0  2  0  0  0  0  0  0  0  0  0
    5.6059   -9.4451    0.0000 C   0  0  1  0  0  0  0  0  0  0  0  0
    4.8915   -9.0326    0.0000 O   0  0  0  0  0  0  0  0  0  0  0  0
    6.3204   -9.0326    0.0000 O   0  0  0  0  0  0  0  0  0  0  0  0
    6.3204   -8.2076    0.0000 C   0  0  0  0  0  0  0  0  0  0  0  0
    5.6059   -7.7951    0.0000 C   0  0  0  0  0  0  0  0  0  0  0  0
    7.0349   -7.7951    0.0000 C   0  0  0  0  0  0  0  0  0  0  0  0
    7.0349   -6.9701    0.0000 C   0  0  0  0  0  0  0  0  0  0  0  0
    6.3204   -6.5576    0.0000 C   0  0  0  0  0  0  0  0  0  0  0  0
    5.6059   -6.9701    0.0000 C   0  0  0  0  0  0  0  0  0  0  0  0
    7.7494   -6.5576    0.0000 O   0  0  0  0  0  0  0  0  0  0  0  0
    7.7494   -5.7326    0.0000 C   0  0  0  0  0  0  0  0  0  0  0  0
    7.0349   -5.3201    0.0000 C   0  0  0  0  0  0  0  0  0  0  0  0
    6.3204   -5.7326    0.0000 C   0  0  0  0  0  0  0  0  0  0  0  0
    5.6059   -5.3201    0.0000 O   0  0  0  0  0  0  0  0  0  0  0  0
    4.8915   -6.5576    0.0000 O   0  0  0  0  0  0  0  0  0  0  0  0
    8.4638   -5.3201    0.0000 C   0  0  0  0  0  0  0  0  0  0  0  0
    8.4638   -4.4951    0.0000 C   0  0  0  0  0  0  0  0  0  0  0  0
    9.1783   -5.7326    0.0000 C   0  0  0  0  0  0  0  0  0  0  0  0
    9.8928   -5.3201    0.0000 C   0  0  0  0  0  0  0  0  0  0  0  0
    9.8928   -4.4951    0.0000 C   0  0  0  0  0  0  0  0  0  0  0  0
    9.1783   -4.0826    0.0000 C   0  0  0  0  0  0  0  0  0  0  0  0
   10.6072   -4.0826    0.0000 O   0  0  0  0  0  0  0  0  0  0  0  0
   10.6072   -5.7326    0.0000 O   0  0  0  0  0  0  0  0  0  0  0  0
    4.8915  -11.5076    0.0000 O   0  0  0  0  0  0  0  0  0  0  0  0
    6.3204  -10.6826    0.0000 O   0  0  0  0  0  0  0  0  0  0  0  0
    6.3204  -11.5076    0.0000 C   0  0  2  0  0  0  0  0  0  0  0  0
    5.6059  -11.9201    0.0000 O   0  0  0  0  0  0  0  0  0  0  0  0
    5.6059  -12.7451    0.0000 C   0  0  1  0  0  0  0  0  0  0  0  0
    6.3204  -13.1576    0.0000 C   0  0  2  0  0  0  0  0  0  0  0  0
    7.0349  -12.7451    0.0000 C   0  0  1  0  0  0  0  0  0  0  0  0
    7.0349  -11.9201    0.0000 C   0  0  1  0  0  0  0  0  0  0  0  0
    4.8915  -13.1576    0.0000 C   0  0  0  0  0  0  0  0  0  0  0  0
    7.7494  -13.1576    0.0000 O   0  0  0  0  0  0  0  0  0  0  0  0
    6.3204  -13.9826    0.0000 O   0  0  0  0  0  0  0  0  0  0  0  0
    7.7494  -11.5076    0.0000 O   0  0  0  0  0  0  0  0  0  0  0  0
    4.1770  -12.7451    0.0000 O   0  0  0  0  0  0  0  0  0  0  0  0
  3  2  1  6  0  0  0
  3  4  1  0  0  0  0
  4  5  1  1  0  0  0
  5  1  1  0  0  0  0
  3  6  1  0  0  0  0
  6  7  1  0  0  0  0
  7  8  1  0  0  0  0
  8  9  1  0  0  0  0
  9  4  1  0  0  0  0
  8 10  1  1  0  0  0
 10 11  1  0  0  0  0
 11 12  2  0  0  0  0
 11 13  1  0  0  0  0
 13 14  2  0  0  0  0
 14 15  1  0  0  0  0
 15 16  2  0  0  0  0
 16 12  1  0  0  0  0
 14 17  1  0  0  0  0
 17 18  1  0  0  0  0
 18 19  2  0  0  0  0
 19 20  1  0  0  0  0
 20 15  1  0  0  0  0
 20 21  2  0  0  0  0
 22 16  1  0  0  0  0
 18 23  1  0  0  0  0
 23 24  1  0  0  0  0
 23 25  2  0  0  0  0
 25 26  1  0  0  0  0
 26 27  2  0  0  0  0
 27 28  1  0  0  0  0
 28 24  2  0  0  0  0
 27 29  1  0  0  0  0
 26 30  1  0  0  0  0
  6 31  1  1  0  0  0
  7 32  1  6  0  0  0
 33 32  1  1  0  0  0
 33 34  1  0  0  0  0
 34 35  1  0  0  0  0
 35 36  1  0  0  0  0
 36 37  1  0  0  0  0
 37 38  1  0  0  0  0
 38 33  1  0  0  0  0
 35 39  1  1  0  0  0
 37 40  1  1  0  0  0
 36 41  1  6  0  0  0
 38 42  1  6  0  0  0
 39 43  1  0  0  0  0
M  END
>  <cdx:fragmentId>
5

$$$$
