90454.cdx
  Mrv1902 05222410222D          

 33 37  0  0  0  0            999 V2000
    3.9168  -10.7514    0.0000 O   0  0  0  0  0  0  0  0  0  0  0  0
    4.6313  -11.9889    0.0000 O   0  0  0  0  0  0  0  0  0  0  0  0
    5.3457  -11.5764    0.0000 C   0  0  2  0  0  0  0  0  0  0  0  0
    5.3457  -10.7514    0.0000 C   0  0  1  0  0  0  0  0  0  0  0  0
    4.6313  -10.3389    0.0000 C   0  0  0  0  0  0  0  0  0  0  0  0
    6.0602  -11.9889    0.0000 C   0  0  1  0  0  0  0  0  0  0  0  0
    6.7747  -11.5764    0.0000 C   0  0  2  0  0  0  0  0  0  0  0  0
    6.7747  -10.7514    0.0000 C   0  0  1  0  0  0  0  0  0  0  0  0
    6.0602  -10.3389    0.0000 O   0  0  0  0  0  0  0  0  0  0  0  0
    7.4892  -10.3389    0.0000 O   0  0  0  0  0  0  0  0  0  0  0  0
    7.4892   -9.5139    0.0000 C   0  0  0  0  0  0  0  0  0  0  0  0
    6.7747   -9.1014    0.0000 C   0  0  0  0  0  0  0  0  0  0  0  0
    8.2036   -9.1014    0.0000 C   0  0  0  0  0  0  0  0  0  0  0  0
    8.2036   -8.2764    0.0000 C   0  0  0  0  0  0  0  0  0  0  0  0
    7.4892   -7.8639    0.0000 C   0  0  0  0  0  0  0  0  0  0  0  0
    6.7747   -8.2764    0.0000 C   0  0  0  0  0  0  0  0  0  0  0  0
    8.9181   -7.8639    0.0000 O   0  0  0  0  0  0  0  0  0  0  0  0
    8.9181   -7.0389    0.0000 C   0  0  0  0  0  0  0  0  0  0  0  0
    8.2036   -6.6264    0.0000 C   0  0  0  0  0  0  0  0  0  0  0  0
    7.4892   -7.0389    0.0000 C   0  0  0  0  0  0  0  0  0  0  0  0
    8.0321   -5.8194    0.0000 C   0  0  0  0  0  0  0  0  0  0  0  0
    7.2116   -5.7332    0.0000 C   0  0  0  0  0  0  0  0  0  0  0  0
    6.8761   -6.4869    0.0000 O   0  0  0  0  0  0  0  0  0  0  0  0
    8.5170   -5.1520    0.0000 C   0  0  0  0  0  0  0  0  0  0  0  0
    8.1815   -4.3983    0.0000 C   0  0  0  0  0  0  0  0  0  0  0  0
    7.3610   -4.3121    0.0000 C   0  0  0  0  0  0  0  0  0  0  0  0
    6.8761   -4.9795    0.0000 C   0  0  0  0  0  0  0  0  0  0  0  0
    7.0254   -3.5584    0.0000 O   0  0  0  0  0  0  0  0  0  0  0  0
    5.7200   -4.1396    0.0000 C   0  0  0  0  0  0  0  0  0  0  0  0
    6.0556   -4.8933    0.0000 O   0  0  0  0  0  0  0  0  0  0  0  0
    6.0602  -12.8139    0.0000 O   0  0  0  0  0  0  0  0  0  0  0  0
    7.4892  -11.9889    0.0000 O   0  0  0  0  0  0  0  0  0  0  0  0
    7.5104   -2.8910    0.0000 C   0  0  0  0  0  0  0  0  0  0  0  0
  3  2  1  6  0  0  0
  3  4  1  0  0  0  0
  4  5  1  1  0  0  0
  5  1  1  0  0  0  0
  3  6  1  0  0  0  0
  6  7  1  0  0  0  0
  7  8  1  0  0  0  0
  8  9  1  0  0  0  0
  9  4  1  0  0  0  0
  8 10  1  1  0  0  0
 10 11  1  0  0  0  0
 11 12  1  0  0  0  0
 11 13  2  0  0  0  0
 13 14  1  0  0  0  0
 14 15  2  0  0  0  0
 15 16  1  0  0  0  0
 16 12  2  0  0  0  0
 14 17  1  0  0  0  0
 17 18  1  0  0  0  0
 18 19  1  0  0  0  0
 19 20  1  0  0  0  0
 20 15  1  0  0  0  0
 19 21  1  0  0  0  0
 21 22  2  0  0  0  0
 22 23  1  0  0  0  0
 23 20  1  0  0  0  0
 21 24  1  0  0  0  0
 24 25  2  0  0  0  0
 25 26  1  0  0  0  0
 26 27  2  0  0  0  0
 27 22  1  0  0  0  0
 26 28  1  0  0  0  0
 29 30  1  0  0  0  0
 30 27  1  0  0  0  0
  6 31  1  1  0  0  0
  7 32  1  6  0  0  0
 28 33  1  0  0  0  0
M  END
>  <cdx:fragmentId>
5

$$$$
