90450.cdx
  Mrv1902 05222410212D          

 32 35  0  0  0  0            999 V2000
    6.1856   -6.3388    0.0000 C   0  0  0  0  0  0  0  0  0  0  0  0
    6.1856   -7.1638    0.0000 C   0  0  0  0  0  0  0  0  0  0  0  0
    6.9000   -7.5762    0.0000 C   0  0  0  0  0  0  0  0  0  0  0  0
    7.6145   -7.1638    0.0000 C   0  0  0  0  0  0  0  0  0  0  0  0
    7.6145   -6.3388    0.0000 C   0  0  0  0  0  0  0  0  0  0  0  0
    6.9000   -5.9262    0.0000 C   0  0  0  0  0  0  0  0  0  0  0  0
    8.3290   -7.5762    0.0000 C   0  0  0  0  0  0  0  0  0  0  0  0
    9.0434   -7.1638    0.0000 C   0  0  0  0  0  0  0  0  0  0  0  0
    9.0434   -6.3388    0.0000 C   0  0  0  0  0  0  0  0  0  0  0  0
    8.3290   -5.9262    0.0000 O   0  0  0  0  0  0  0  0  0  0  0  0
    6.9000   -8.4013    0.0000 O   0  0  0  0  0  0  0  0  0  0  0  0
    8.3290   -8.4013    0.0000 O   0  0  0  0  0  0  0  0  0  0  0  0
   10.4724   -6.3388    0.0000 C   0  0  0  0  0  0  0  0  0  0  0  0
    9.7579   -5.9262    0.0000 C   0  0  0  0  0  0  0  0  0  0  0  0
   11.1869   -5.9262    0.0000 C   0  0  0  0  0  0  0  0  0  0  0  0
   11.1869   -5.1013    0.0000 C   0  0  0  0  0  0  0  0  0  0  0  0
   10.4724   -4.6888    0.0000 C   0  0  0  0  0  0  0  0  0  0  0  0
    9.7579   -5.1013    0.0000 C   0  0  0  0  0  0  0  0  0  0  0  0
    5.4711   -5.9262    0.0000 O   0  0  0  0  0  0  0  0  0  0  0  0
   11.9013   -4.6888    0.0000 O   0  0  0  0  0  0  0  0  0  0  0  0
    4.7566   -6.3388    0.0000 C   0  0  2  0  0  0  0  0  0  0  0  0
    4.0421   -5.9262    0.0000 O   0  0  0  0  0  0  0  0  0  0  0  0
    3.3277   -6.3388    0.0000 C   0  0  1  0  0  0  0  0  0  0  0  0
    3.3277   -7.1638    0.0000 C   0  0  1  0  0  0  0  0  0  0  0  0
    4.0421   -7.5762    0.0000 C   0  0  1  0  0  0  0  0  0  0  0  0
    4.7566   -7.1638    0.0000 C   0  0  1  0  0  0  0  0  0  0  0  0
    2.6132   -5.9262    0.0000 C   0  0  0  0  0  0  0  0  0  0  0  0
    4.0421   -8.4013    0.0000 O   0  0  0  0  0  0  0  0  0  0  0  0
    5.4711   -7.5762    0.0000 O   0  0  0  0  0  0  0  0  0  0  0  0
    2.6132   -7.5762    0.0000 O   0  0  0  0  0  0  0  0  0  0  0  0
    1.8987   -6.3388    0.0000 O   0  0  0  0  0  0  0  0  0  0  0  0
   10.4724   -3.8638    0.0000 O   0  0  0  0  0  0  0  0  0  0  0  0
  1  2  2  0  0  0  0
  2  3  1  0  0  0  0
  3  4  2  0  0  0  0
  4  5  1  0  0  0  0
  5  6  2  0  0  0  0
  6  1  1  0  0  0  0
  4  7  1  0  0  0  0
  7  8  1  0  0  0  0
  8  9  2  0  0  0  0
  9 10  1  0  0  0  0
 10  5  1  0  0  0  0
  3 11  1  0  0  0  0
 12  7  2  0  0  0  0
 13 14  2  0  0  0  0
 14  9  1  0  0  0  0
 13 15  1  0  0  0  0
 15 16  2  0  0  0  0
 16 17  1  0  0  0  0
 17 18  2  0  0  0  0
 18 14  1  0  0  0  0
 19  1  1  0  0  0  0
 16 20  1  0  0  0  0
 21 19  1  1  0  0  0
 21 22  1  0  0  0  0
 22 23  1  0  0  0  0
 23 24  1  0  0  0  0
 24 25  1  0  0  0  0
 25 26  1  0  0  0  0
 26 21  1  0  0  0  0
 23 27  1  1  0  0  0
 25 28  1  1  0  0  0
 26 29  1  6  0  0  0
 24 30  1  1  0  0  0
 27 31  1  0  0  0  0
 17 32  1  0  0  0  0
M  END
>  <cdx:fragmentId>
186

$$$$
