90458.cdx
  Mrv1902 05222410242D          

 44 48  0  0  0  0            999 V2000
    4.1918   -7.6714    0.0000 C   0  0  0  0  0  0  0  0  0  0  0  0
    4.1918   -8.4964    0.0000 C   0  0  0  0  0  0  0  0  0  0  0  0
    4.9063   -8.9089    0.0000 C   0  0  0  0  0  0  0  0  0  0  0  0
    5.6207   -8.4964    0.0000 C   0  0  0  0  0  0  0  0  0  0  0  0
    5.6207   -7.6714    0.0000 C   0  0  0  0  0  0  0  0  0  0  0  0
    4.9063   -7.2589    0.0000 C   0  0  0  0  0  0  0  0  0  0  0  0
    6.3352   -8.9089    0.0000 C   0  0  0  0  0  0  0  0  0  0  0  0
    7.0497   -8.4964    0.0000 C   0  0  0  0  0  0  0  0  0  0  0  0
    7.0497   -7.6714    0.0000 C   0  0  0  0  0  0  0  0  0  0  0  0
    6.3352   -7.2589    0.0000 O   0  0  0  0  0  0  0  0  0  0  0  0
    4.9063   -9.7339    0.0000 O   0  0  0  0  0  0  0  0  0  0  0  0
    6.3352   -9.7339    0.0000 O   0  0  0  0  0  0  0  0  0  0  0  0
    7.7642   -8.9089    0.0000 O   0  0  0  0  0  0  0  0  0  0  0  0
    8.4786   -7.6714    0.0000 C   0  0  0  0  0  0  0  0  0  0  0  0
    7.7642   -7.2589    0.0000 C   0  0  0  0  0  0  0  0  0  0  0  0
    9.1931   -7.2589    0.0000 C   0  0  0  0  0  0  0  0  0  0  0  0
    9.1931   -6.4339    0.0000 C   0  0  0  0  0  0  0  0  0  0  0  0
    8.4786   -6.0214    0.0000 C   0  0  0  0  0  0  0  0  0  0  0  0
    7.7642   -6.4339    0.0000 C   0  0  0  0  0  0  0  0  0  0  0  0
    7.0497  -10.1464    0.0000 O   0  0  0  0  0  0  0  0  0  0  0  0
    7.7642   -9.7339    0.0000 C   0  0  2  0  0  0  0  0  0  0  0  0
    7.0497  -10.9714    0.0000 C   0  0  1  0  0  0  0  0  0  0  0  0
    7.7642  -11.3839    0.0000 C   0  0  2  0  0  0  0  0  0  0  0  0
    8.4786  -10.9714    0.0000 C   0  0  1  0  0  0  0  0  0  0  0  0
    8.4786  -10.1464    0.0000 C   0  0  1  0  0  0  0  0  0  0  0  0
    6.3352  -11.3839    0.0000 C   0  0  0  0  0  0  0  0  0  0  0  0
    6.3352  -12.2089    0.0000 O   0  0  0  0  0  0  0  0  0  0  0  0
    7.7642  -12.2089    0.0000 O   0  0  0  0  0  0  0  0  0  0  0  0
    4.9063  -12.2089    0.0000 O   0  0  0  0  0  0  0  0  0  0  0  0
    5.6207  -12.6214    0.0000 C   0  0  2  0  0  0  0  0  0  0  0  0
    4.1918  -12.6214    0.0000 C   0  0  2  0  0  0  0  0  0  0  0  0
    4.1918  -13.4464    0.0000 C   0  0  1  0  0  0  0  0  0  0  0  0
    4.9063  -13.8589    0.0000 C   0  0  2  0  0  0  0  0  0  0  0  0
    5.6207  -13.4464    0.0000 C   0  0  1  0  0  0  0  0  0  0  0  0
    3.4773   -7.2589    0.0000 O   0  0  0  0  0  0  0  0  0  0  0  0
    8.4786   -5.1964    0.0000 O   0  0  0  0  0  0  0  0  0  0  0  0
    9.9076   -6.0214    0.0000 O   0  0  0  0  0  0  0  0  0  0  0  0
    9.9076   -7.6714    0.0000 O   0  0  0  0  0  0  0  0  0  0  0  0
    9.1931   -9.7339    0.0000 O   0  0  0  0  0  0  0  0  0  0  0  0
    9.1931  -11.3839    0.0000 O   0  0  0  0  0  0  0  0  0  0  0  0
    3.4773  -12.2089    0.0000 C   0  0  0  0  0  0  0  0  0  0  0  0
    6.3352  -13.8589    0.0000 O   0  0  0  0  0  0  0  0  0  0  0  0
    3.4773  -13.8589    0.0000 O   0  0  0  0  0  0  0  0  0  0  0  0
    4.9063  -14.6839    0.0000 O   0  0  0  0  0  0  0  0  0  0  0  0
  1  2  2  0  0  0  0
  2  3  1  0  0  0  0
  3  4  2  0  0  0  0
  4  5  1  0  0  0  0
  5  6  2  0  0  0  0
  6  1  1  0  0  0  0
  4  7  1  0  0  0  0
  7  8  1  0  0  0  0
  8  9  2  0  0  0  0
  9 10  1  0  0  0  0
 10  5  1  0  0  0  0
  3 11  1  0  0  0  0
 12  7  2  0  0  0  0
  8 13  1  0  0  0  0
 14 15  2  0  0  0  0
 15  9  1  0  0  0  0
 14 16  1  0  0  0  0
 16 17  2  0  0  0  0
 17 18  1  0  0  0  0
 18 19  2  0  0  0  0
 19 15  1  0  0  0  0
 20 21  1  0  0  0  0
 21 13  1  1  0  0  0
 20 22  1  0  0  0  0
 22 23  1  0  0  0  0
 23 24  1  0  0  0  0
 24 25  1  0  0  0  0
 25 21  1  0  0  0  0
 22 26  1  1  0  0  0
 26 27  1  0  0  0  0
 23 28  1  6  0  0  0
 29 30  1  0  0  0  0
 30 27  1  1  0  0  0
 29 31  1  0  0  0  0
 31 32  1  0  0  0  0
 32 33  1  0  0  0  0
 33 34  1  0  0  0  0
 34 30  1  0  0  0  0
  1 35  1  0  0  0  0
 18 36  1  0  0  0  0
 17 37  1  0  0  0  0
 16 38  1  0  0  0  0
 25 39  1  6  0  0  0
 24 40  1  1  0  0  0
 31 41  1  6  0  0  0
 34 42  1  6  0  0  0
 32 43  1  1  0  0  0
 33 44  1  6  0  0  0
M  END
>  <cdx:fragmentId>
5

$$$$
