90459.cdx
  Mrv1902 05222410242D          

 40 43  0  0  0  0            999 V2000
    7.6843   -7.9326    0.0000 C   0  0  0  0  0  0  0  0  0  0  0  0
    7.6843   -8.7576    0.0000 C   0  0  0  0  0  0  0  0  0  0  0  0
    8.3988   -9.1701    0.0000 C   0  0  0  0  0  0  0  0  0  0  0  0
    9.1132   -8.7576    0.0000 C   0  0  0  0  0  0  0  0  0  0  0  0
    9.1132   -7.9326    0.0000 C   0  0  0  0  0  0  0  0  0  0  0  0
    8.3988   -7.5201    0.0000 C   0  0  0  0  0  0  0  0  0  0  0  0
    9.8277   -9.1701    0.0000 C   0  0  0  0  0  0  0  0  0  0  0  0
   10.5422   -8.7576    0.0000 C   0  0  0  0  0  0  0  0  0  0  0  0
   10.5422   -7.9326    0.0000 C   0  0  0  0  0  0  0  0  0  0  0  0
    9.8277   -7.5201    0.0000 O   0  0  0  0  0  0  0  0  0  0  0  0
    8.3988   -9.9951    0.0000 O   0  0  0  0  0  0  0  0  0  0  0  0
    9.8277   -9.9951    0.0000 O   0  0  0  0  0  0  0  0  0  0  0  0
   11.2567   -9.1701    0.0000 O   0  0  0  0  0  0  0  0  0  0  0  0
   11.9711   -7.9326    0.0000 C   0  0  0  0  0  0  0  0  0  0  0  0
   11.2567   -7.5201    0.0000 C   0  0  0  0  0  0  0  0  0  0  0  0
   12.6856   -7.5201    0.0000 C   0  0  0  0  0  0  0  0  0  0  0  0
   12.6856   -6.6951    0.0000 C   0  0  0  0  0  0  0  0  0  0  0  0
   11.9711   -6.2826    0.0000 C   0  0  0  0  0  0  0  0  0  0  0  0
   11.2567   -6.6951    0.0000 C   0  0  0  0  0  0  0  0  0  0  0  0
    6.9698   -7.5201    0.0000 O   0  0  0  0  0  0  0  0  0  0  0  0
   11.9711   -5.4576    0.0000 O   0  0  0  0  0  0  0  0  0  0  0  0
   13.4001   -6.2826    0.0000 O   0  0  0  0  0  0  0  0  0  0  0  0
   13.4001   -7.9326    0.0000 O   0  0  0  0  0  0  0  0  0  0  0  0
    6.2554   -7.9326    0.0000 C   0  0  2  0  0  0  0  0  0  0  0  0
    5.5409   -7.5201    0.0000 O   0  0  0  0  0  0  0  0  0  0  0  0
    4.8264   -7.9326    0.0000 C   0  0  1  0  0  0  0  0  0  0  0  0
    4.8264   -8.7576    0.0000 C   0  0  2  0  0  0  0  0  0  0  0  0
    5.5409   -9.1701    0.0000 C   0  0  1  0  0  0  0  0  0  0  0  0
    6.2554   -8.7576    0.0000 C   0  0  1  0  0  0  0  0  0  0  0  0
    4.1119   -7.5201    0.0000 C   0  0  0  0  0  0  0  0  0  0  0  0
    5.5409   -9.9951    0.0000 O   0  0  0  0  0  0  0  0  0  0  0  0
    6.9698   -9.1701    0.0000 O   0  0  0  0  0  0  0  0  0  0  0  0
    4.1119   -9.1701    0.0000 O   0  0  0  0  0  0  0  0  0  0  0  0
    3.3975   -7.9326    0.0000 O   0  0  0  0  0  0  0  0  0  0  0  0
    2.6830   -7.5201    0.0000 C   0  0  0  0  0  0  0  0  0  0  0  0
    1.9685   -7.9326    0.0000 C   0  0  0  0  0  0  0  0  0  0  0  0
    1.2541   -7.5201    0.0000 C   0  0  0  0  0  0  0  0  0  0  0  0
    0.5396   -7.9326    0.0000 O   0  0  0  0  0  0  0  0  0  0  0  0
    1.2541   -6.6951    0.0000 O   0  0  0  0  0  0  0  0  0  0  0  0
    2.6830   -6.6951    0.0000 O   0  0  0  0  0  0  0  0  0  0  0  0
  1  2  2  0  0  0  0
  2  3  1  0  0  0  0
  3  4  2  0  0  0  0
  4  5  1  0  0  0  0
  5  6  2  0  0  0  0
  6  1  1  0  0  0  0
  4  7  1  0  0  0  0
  7  8  1  0  0  0  0
  8  9  2  0  0  0  0
  9 10  1  0  0  0  0
 10  5  1  0  0  0  0
  3 11  1  0  0  0  0
 12  7  2  0  0  0  0
  8 13  1  0  0  0  0
 14 15  2  0  0  0  0
 15  9  1  0  0  0  0
 14 16  1  0  0  0  0
 16 17  2  0  0  0  0
 17 18  1  0  0  0  0
 18 19  2  0  0  0  0
 19 15  1  0  0  0  0
  1 20  1  0  0  0  0
 18 21  1  0  0  0  0
 17 22  1  0  0  0  0
 16 23  1  0  0  0  0
 24 20  1  1  0  0  0
 24 25  1  0  0  0  0
 25 26  1  0  0  0  0
 26 27  1  0  0  0  0
 27 28  1  0  0  0  0
 28 29  1  0  0  0  0
 29 24  1  0  0  0  0
 26 30  1  1  0  0  0
 28 31  1  1  0  0  0
 29 32  1  6  0  0  0
 27 33  1  6  0  0  0
 30 34  1  0  0  0  0
 34 35  1  0  0  0  0
 35 36  1  0  0  0  0
 36 37  1  0  0  0  0
 37 38  1  0  0  0  0
 37 39  2  0  0  0  0
 35 40  2  0  0  0  0
M  END
>  <cdx:fragmentId>
5

$$$$
