90456.cdx
  Mrv1902 05222410222D          

 17 18  0  0  0  0            999 V2000
    4.7968   -7.8639    0.0000 C   0  0  0  0  0  0  0  0  0  0  0  0
    4.7968   -8.6889    0.0000 C   0  0  0  0  0  0  0  0  0  0  0  0
    5.5113   -9.1014    0.0000 C   0  0  0  0  0  0  0  0  0  0  0  0
    6.2257   -8.6889    0.0000 C   0  0  0  0  0  0  0  0  0  0  0  0
    6.2257   -7.8639    0.0000 C   0  0  0  0  0  0  0  0  0  0  0  0
    5.5113   -7.4514    0.0000 C   0  0  0  0  0  0  0  0  0  0  0  0
    6.9402   -9.1014    0.0000 C   0  0  0  0  0  0  0  0  0  0  0  0
    7.6547   -8.6889    0.0000 C   0  0  0  0  0  0  0  0  0  0  0  0
    7.6547   -7.8639    0.0000 C   0  0  0  0  0  0  0  0  0  0  0  0
    6.9402   -7.4514    0.0000 C   0  0  0  0  0  0  0  0  0  0  0  0
    5.5113   -9.9264    0.0000 O   0  0  0  0  0  0  0  0  0  0  0  0
    6.2257  -10.3389    0.0000 C   0  0  0  0  0  0  0  0  0  0  0  0
    6.9402   -9.9264    0.0000 C   0  0  0  0  0  0  0  0  0  0  0  0
    4.0823   -9.1014    0.0000 C   0  0  0  0  0  0  0  0  0  0  0  0
    4.7968  -10.3389    0.0000 O   0  0  0  0  0  0  0  0  0  0  0  0
    6.9402   -6.6264    0.0000 C   0  0  0  0  0  0  0  0  0  0  0  0
    7.6547  -10.3389    0.0000 C   0  0  0  0  0  0  0  0  0  0  0  0
  1  2  1  0  0  0  0
  2  3  1  0  0  0  0
  3  4  1  0  0  0  0
  4  5  1  0  0  0  0
  5  6  1  0  0  0  0
  6  1  1  0  0  0  0
  4  7  1  0  0  0  0
  7  8  1  0  0  0  0
  8  9  2  0  0  0  0
  9 10  1  0  0  0  0
 10  5  1  0  0  0  0
  3 11  1  0  0  0  0
 12 13  1  0  0  0  0
 13  7  1  0  0  0  0
  2 14  2  0  0  0  0
 15 11  1  0  0  0  0
 10 16  1  0  0  0  0
 13 17  1  0  0  0  0
M  END
>  <cdx:fragmentId>
5

$$$$
