90464.cdx
  Mrv1902 05222410242D          

 43 45  0  0  0  0            999 V2000
   14.1365  -10.0185    0.0000 C   0  0  0  0  0  0  0  0  0  0  0  0
   14.8510  -10.4310    0.0000 C   0  0  0  0  0  0  0  0  0  0  0  0
   15.5654  -10.0185    0.0000 C   0  0  0  0  0  0  0  0  0  0  0  0
   14.1365   -9.1935    0.0000 O   0  0  0  0  0  0  0  0  0  0  0  0
   13.4220  -10.4310    0.0000 N   0  0  0  0  0  0  0  0  0  0  0  0
   12.7075  -10.0185    0.0000 C   0  0  0  0  0  0  0  0  0  0  0  0
   11.9931  -10.4310    0.0000 C   0  0  0  0  0  0  0  0  0  0  0  0
   11.2786  -10.0185    0.0000 C   0  0  0  0  0  0  0  0  0  0  0  0
   10.5641  -10.4310    0.0000 C   0  0  0  0  0  0  0  0  0  0  0  0
    9.8497  -10.0185    0.0000 N   0  0  0  0  0  0  0  0  0  0  0  0
    9.1352  -10.4310    0.0000 C   0  0  0  0  0  0  0  0  0  0  0  0
    8.4207  -10.0185    0.0000 C   0  0  0  0  0  0  0  0  0  0  0  0
    7.7063  -10.4310    0.0000 C   0  0  0  0  0  0  0  0  0  0  0  0
    6.9918  -10.0185    0.0000 N   0  0  0  0  0  0  0  0  0  0  0  0
    6.2773  -10.4310    0.0000 C   0  0  0  0  0  0  0  0  0  0  0  0
    5.5628  -10.0185    0.0000 C   0  0  0  0  0  0  0  0  0  0  0  0
    4.8484  -10.4310    0.0000 C   0  0  0  0  0  0  0  0  0  0  0  0
    6.2773  -11.2560    0.0000 O   0  0  0  0  0  0  0  0  0  0  0  0
    4.1339  -10.0185    0.0000 C   0  0  0  0  0  0  0  0  0  0  0  0
    3.4194  -10.4310    0.0000 C   0  0  0  0  0  0  0  0  0  0  0  0
    2.7050  -10.0185    0.0000 C   0  0  0  0  0  0  0  0  0  0  0  0
    2.7050   -9.1935    0.0000 C   0  0  0  0  0  0  0  0  0  0  0  0
    3.4194   -8.7810    0.0000 C   0  0  0  0  0  0  0  0  0  0  0  0
    4.1339   -9.1935    0.0000 C   0  0  0  0  0  0  0  0  0  0  0  0
    1.9905   -8.7810    0.0000 O   0  0  0  0  0  0  0  0  0  0  0  0
    9.8497   -9.1935    0.0000 C   0  0  0  0  0  0  0  0  0  0  0  0
    9.1352   -8.7810    0.0000 C   0  0  0  0  0  0  0  0  0  0  0  0
    9.1352   -7.9560    0.0000 C   0  0  0  0  0  0  0  0  0  0  0  0
   10.5641   -8.7810    0.0000 O   0  0  0  0  0  0  0  0  0  0  0  0
    9.8497   -7.5435    0.0000 C   0  0  0  0  0  0  0  0  0  0  0  0
    9.8497   -6.7185    0.0000 C   0  0  0  0  0  0  0  0  0  0  0  0
   10.5641   -6.3060    0.0000 C   0  0  0  0  0  0  0  0  0  0  0  0
   11.2786   -6.7185    0.0000 C   0  0  0  0  0  0  0  0  0  0  0  0
   11.2786   -7.5435    0.0000 C   0  0  0  0  0  0  0  0  0  0  0  0
   10.5641   -7.9560    0.0000 C   0  0  0  0  0  0  0  0  0  0  0  0
   11.9931   -6.3060    0.0000 O   0  0  0  0  0  0  0  0  0  0  0  0
   16.2799  -10.4310    0.0000 C   0  0  0  0  0  0  0  0  0  0  0  0
   16.9944  -10.0185    0.0000 C   0  0  0  0  0  0  0  0  0  0  0  0
   17.7088  -10.4310    0.0000 C   0  0  0  0  0  0  0  0  0  0  0  0
   17.7088  -11.2560    0.0000 C   0  0  0  0  0  0  0  0  0  0  0  0
   16.9944  -11.6685    0.0000 C   0  0  0  0  0  0  0  0  0  0  0  0
   16.2799  -11.2560    0.0000 C   0  0  0  0  0  0  0  0  0  0  0  0
   18.4233  -11.6685    0.0000 O   0  0  0  0  0  0  0  0  0  0  0  0
  1  2  1  0  0  0  0
  2  3  2  0  0  0  0
  1  4  2  0  0  0  0
  1  5  1  0  0  0  0
  6  7  1  0  0  0  0
  7  8  1  0  0  0  0
  8  9  1  0  0  0  0
 11 12  1  0  0  0  0
 12 13  1  0  0  0  0
 15 16  1  0  0  0  0
 16 17  2  0  0  0  0
 15 18  2  0  0  0  0
 19 20  1  0  0  0  0
 20 21  2  0  0  0  0
 21 22  1  0  0  0  0
 22 23  2  0  0  0  0
 23 24  1  0  0  0  0
 19 24  2  0  0  0  0
 22 25  1  0  0  0  0
 17 19  1  0  0  0  0
 14 15  1  0  0  0  0
 13 14  1  0  0  0  0
 10 11  1  0  0  0  0
 26 27  1  0  0  0  0
 27 28  2  0  0  0  0
 26 29  2  0  0  0  0
 30 31  1  0  0  0  0
 31 32  2  0  0  0  0
 32 33  1  0  0  0  0
 33 34  2  0  0  0  0
 34 35  1  0  0  0  0
 30 35  2  0  0  0  0
 33 36  1  0  0  0  0
 28 30  1  0  0  0  0
 10 26  1  0  0  0  0
  9 10  1  0  0  0  0
  5  6  1  0  0  0  0
 37 38  1  0  0  0  0
 38 39  2  0  0  0  0
 39 40  1  0  0  0  0
 40 41  2  0  0  0  0
 41 42  1  0  0  0  0
 37 42  2  0  0  0  0
 40 43  1  0  0  0  0
  3 37  1  0  0  0  0
M  END
>  <cdx:fragmentId>
41

$$$$
