90468.cdx
  Mrv1902 05222410222D          

 49 53  0  0  0  0            999 V2000
    9.3427   -2.4493    0.0000 O   0  0  0  0  0  0  0  0  0  0  0  0
    7.6888   -5.7145    0.0000 C   0  0  0  0  0  0  0  0  0  0  0  0
    8.4060   -6.1163    0.0000 C   0  0  0  0  0  0  0  0  0  0  0  0
    8.4166   -6.9384    0.0000 C   0  0  0  0  0  0  0  0  0  0  0  0
    7.7100   -7.3586    0.0000 C   0  0  0  0  0  0  0  0  0  0  0  0
    6.9927   -6.9567    0.0000 C   0  0  0  0  0  0  0  0  0  0  0  0
    6.9821   -6.1347    0.0000 C   0  0  0  0  0  0  0  0  0  0  0  0
    9.1480   -4.5677    0.0000 C   0  0  0  0  0  0  0  0  0  0  0  0
    9.6124   -3.8893    0.0000 O   0  0  0  0  0  0  0  0  0  0  0  0
    9.1107   -3.2380    0.0000 C   0  0  0  0  0  0  0  0  0  0  0  0
    8.3362   -3.5139    0.0000 C   0  0  2  0  0  0  0  0  0  0  0  0
    8.3593   -4.3357    0.0000 C   0  0  1  0  0  0  0  0  0  0  0  0
    7.6782   -4.8924    0.0000 C   0  0  0  0  0  0  0  0  0  0  0  0
    7.7206   -8.1807    0.0000 O   0  0  0  0  0  0  0  0  0  0  0  0
    9.1338   -7.3402    0.0000 O   0  0  0  0  0  0  0  0  0  0  0  0
    9.8539   -6.9375    0.0000 C   0  0  0  0  0  0  0  0  0  0  0  0
    8.3362   -2.6905    0.0000 O   0  0  0  0  0  0  0  0  0  0  0  0
    7.5184   -3.1024    0.0000 C   0  0  0  0  0  0  0  0  0  0  0  0
    6.8090   -3.5179    0.0000 C   0  0  0  0  0  0  0  0  0  0  0  0
    6.8142   -4.3400    0.0000 C   0  0  0  0  0  0  0  0  0  0  0  0
    6.1047   -4.7555    0.0000 C   0  0  0  0  0  0  0  0  0  0  0  0
    5.3902   -4.3489    0.0000 C   0  0  0  0  0  0  0  0  0  0  0  0
    5.3851   -3.5268    0.0000 C   0  0  0  0  0  0  0  0  0  0  0  0
    6.0945   -3.1113    0.0000 C   0  0  0  0  0  0  0  0  0  0  0  0
    4.6808   -4.7644    0.0000 O   0  0  0  0  0  0  0  0  0  0  0  0
    4.6705   -3.1201    0.0000 O   0  0  0  0  0  0  0  0  0  0  0  0
    3.9611   -3.5356    0.0000 C   0  0  0  0  0  0  0  0  0  0  0  0
    6.1283   -5.5735    0.0000 O   0  0  0  0  0  0  0  0  0  0  0  0
    3.2651   -8.0221    0.0000 O   0  0  0  0  0  0  0  0  0  0  0  0
    4.6890   -8.0309    0.0000 O   0  0  0  0  0  0  0  0  0  0  0  0
    6.1181   -7.2177    0.0000 O   0  0  0  0  0  0  0  0  0  0  0  0
    3.2702   -7.2000    0.0000 C   0  0  0  0  0  0  0  0  0  0  0  0
    5.4138   -5.9801    0.0000 C   0  0  2  0  0  0  0  0  0  0  0  0
    5.4087   -6.8022    0.0000 C   0  0  2  0  0  0  0  0  0  0  0  0
    4.6941   -7.2088    0.0000 C   0  0  1  0  0  0  0  0  0  0  0  0
    3.9847   -6.7933    0.0000 C   0  0  2  0  0  0  0  0  0  0  0  0
    3.9898   -5.9712    0.0000 O   0  0  0  0  0  0  0  0  0  0  0  0
    4.7044   -5.5646    0.0000 C   0  0  1  0  0  0  0  0  0  0  0  0
    7.7828   -9.8450    0.0000 O   0  0  0  0  0  0  0  0  0  0  0  0
    4.2022   -8.6731    0.0000 O   0  0  0  0  0  0  0  0  0  0  0  0
    4.9353   -9.8939    0.0000 O   0  0  0  0  0  0  0  0  0  0  0  0
    6.3732  -10.6914    0.0000 O   0  0  0  0  0  0  0  0  0  0  0  0
    4.9070   -8.2499    0.0000 C   0  0  0  0  0  0  0  0  0  0  0  0
    7.0639   -9.4462    0.0000 C   0  0  2  0  0  0  0  0  0  0  0  0
    6.3591   -9.8694    0.0000 C   0  0  2  0  0  0  0  0  0  0  0  0
    5.6401   -9.4706    0.0000 C   0  0  1  0  0  0  0  0  0  0  0  0
    5.6260   -8.6486    0.0000 C   0  0  2  0  0  0  0  0  0  0  0  0
    6.3308   -8.2254    0.0000 O   0  0  0  0  0  0  0  0  0  0  0  0
    7.0498   -8.6242    0.0000 C   0  0  1  0  0  0  0  0  0  0  0  0
 11 18  1  1  0  0  0
 11 17  1  6  0  0  0
 12 13  1  6  0  0  0
 10  1  2  0  0  0  0
  8 12  1  0  0  0  0
  9  8  1  0  0  0  0
 10  9  1  0  0  0  0
 11 10  1  0  0  0  0
 12 11  1  0  0  0  0
  2 13  1  0  0  0  0
  2  3  2  0  0  0  0
  3  4  1  0  0  0  0
  4  5  2  0  0  0  0
  5  6  1  0  0  0  0
  6  7  2  0  0  0  0
  7  2  1  0  0  0  0
  5 14  1  0  0  0  0
  4 15  1  0  0  0  0
 15 16  1  0  0  0  0
 18 19  1  0  0  0  0
 19 20  2  0  0  0  0
 20 21  1  0  0  0  0
 21 22  2  0  0  0  0
 22 23  1  0  0  0  0
 23 24  2  0  0  0  0
 24 19  1  0  0  0  0
 22 25  1  0  0  0  0
 23 26  1  0  0  0  0
 26 27  1  0  0  0  0
 33 28  1  6  0  0  0
 32 29  1  0  0  0  0
 35 30  1  6  0  0  0
 34 31  1  1  0  0  0
 36 32  1  1  0  0  0
 33 38  1  0  0  0  0
 34 33  1  0  0  0  0
 35 34  1  0  0  0  0
 36 35  1  0  0  0  0
 37 36  1  0  0  0  0
 38 37  1  0  0  0  0
 38 25  1  1  0  0  0
 44 39  1  6  0  0  0
 43 40  1  0  0  0  0
 46 41  1  6  0  0  0
 45 42  1  1  0  0  0
 47 43  1  1  0  0  0
 44 49  1  0  0  0  0
 45 44  1  0  0  0  0
 46 45  1  0  0  0  0
 47 46  1  0  0  0  0
 48 47  1  0  0  0  0
 49 48  1  0  0  0  0
 49 14  1  1  0  0  0
M  END
>  <cdx:fragmentId>
11210

$$$$
