90465.cdx
  Mrv1902 05222410242D          

 43 45  0  0  0  0            999 V2000
   11.0018   -8.6572    0.0000 C   0  0  0  0  0  0  0  0  0  0  0  0
   11.7162   -9.0697    0.0000 C   0  0  0  0  0  0  0  0  0  0  0  0
   12.4307   -8.6572    0.0000 C   0  0  0  0  0  0  0  0  0  0  0  0
   11.0018   -7.8322    0.0000 O   0  0  0  0  0  0  0  0  0  0  0  0
   10.2873   -9.0697    0.0000 N   0  0  0  0  0  0  0  0  0  0  0  0
    9.5728   -8.6572    0.0000 C   0  0  0  0  0  0  0  0  0  0  0  0
    8.8583   -9.0697    0.0000 C   0  0  0  0  0  0  0  0  0  0  0  0
    8.1439   -8.6572    0.0000 C   0  0  0  0  0  0  0  0  0  0  0  0
    7.4294   -9.0697    0.0000 C   0  0  0  0  0  0  0  0  0  0  0  0
    6.7149   -8.6572    0.0000 N   0  0  0  0  0  0  0  0  0  0  0  0
    6.0005   -9.0697    0.0000 C   0  0  0  0  0  0  0  0  0  0  0  0
    5.2860   -8.6572    0.0000 C   0  0  0  0  0  0  0  0  0  0  0  0
    4.5715   -9.0697    0.0000 C   0  0  0  0  0  0  0  0  0  0  0  0
    3.8570   -8.6572    0.0000 N   0  0  0  0  0  0  0  0  0  0  0  0
    3.1426   -9.0697    0.0000 C   0  0  0  0  0  0  0  0  0  0  0  0
    2.4281   -8.6572    0.0000 C   0  0  0  0  0  0  0  0  0  0  0  0
    1.7134   -9.0694    0.0000 C   0  0  0  0  0  0  0  0  0  0  0  0
    3.1426   -9.8947    0.0000 O   0  0  0  0  0  0  0  0  0  0  0  0
    1.7114   -9.8944    0.0000 C   0  0  0  0  0  0  0  0  0  0  0  0
    2.4248  -10.3086    0.0000 C   0  0  0  0  0  0  0  0  0  0  0  0
    2.4228  -11.1336    0.0000 C   0  0  0  0  0  0  0  0  0  0  0  0
    1.7073  -11.5444    0.0000 C   0  0  0  0  0  0  0  0  0  0  0  0
    0.9938  -11.1301    0.0000 C   0  0  0  0  0  0  0  0  0  0  0  0
    0.9959  -10.3051    0.0000 C   0  0  0  0  0  0  0  0  0  0  0  0
    1.7052  -12.3694    0.0000 O   0  0  0  0  0  0  0  0  0  0  0  0
    6.7149   -7.8322    0.0000 C   0  0  0  0  0  0  0  0  0  0  0  0
    6.0005   -7.4197    0.0000 C   0  0  0  0  0  0  0  0  0  0  0  0
    6.0005   -6.5947    0.0000 C   0  0  0  0  0  0  0  0  0  0  0  0
    7.4294   -7.4197    0.0000 O   0  0  0  0  0  0  0  0  0  0  0  0
    6.7149   -6.1822    0.0000 C   0  0  0  0  0  0  0  0  0  0  0  0
    6.7149   -5.3572    0.0000 C   0  0  0  0  0  0  0  0  0  0  0  0
    7.4294   -4.9447    0.0000 C   0  0  0  0  0  0  0  0  0  0  0  0
    8.1439   -5.3572    0.0000 C   0  0  0  0  0  0  0  0  0  0  0  0
    8.1439   -6.1822    0.0000 C   0  0  0  0  0  0  0  0  0  0  0  0
    7.4294   -6.5947    0.0000 C   0  0  0  0  0  0  0  0  0  0  0  0
    8.8583   -4.9447    0.0000 O   0  0  0  0  0  0  0  0  0  0  0  0
   13.1452   -9.0697    0.0000 C   0  0  0  0  0  0  0  0  0  0  0  0
   13.8596   -8.6572    0.0000 C   0  0  0  0  0  0  0  0  0  0  0  0
   14.5741   -9.0697    0.0000 C   0  0  0  0  0  0  0  0  0  0  0  0
   14.5741   -9.8947    0.0000 C   0  0  0  0  0  0  0  0  0  0  0  0
   13.8596  -10.3072    0.0000 C   0  0  0  0  0  0  0  0  0  0  0  0
   13.1452   -9.8947    0.0000 C   0  0  0  0  0  0  0  0  0  0  0  0
   15.2886  -10.3072    0.0000 O   0  0  0  0  0  0  0  0  0  0  0  0
  1  2  1  0  0  0  0
  2  3  2  0  0  0  0
  1  4  2  0  0  0  0
  1  5  1  0  0  0  0
  6  7  1  0  0  0  0
  7  8  1  0  0  0  0
  8  9  1  0  0  0  0
 11 12  1  0  0  0  0
 12 13  1  0  0  0  0
 15 16  1  0  0  0  0
 16 17  2  0  0  0  0
 15 18  2  0  0  0  0
 19 20  1  0  0  0  0
 20 21  2  0  0  0  0
 21 22  1  0  0  0  0
 22 23  2  0  0  0  0
 23 24  1  0  0  0  0
 19 24  2  0  0  0  0
 22 25  1  0  0  0  0
 17 19  1  0  0  0  0
 14 15  1  0  0  0  0
 13 14  1  0  0  0  0
 10 11  1  0  0  0  0
 26 27  1  0  0  0  0
 27 28  2  0  0  0  0
 26 29  2  0  0  0  0
 30 31  1  0  0  0  0
 31 32  2  0  0  0  0
 32 33  1  0  0  0  0
 33 34  2  0  0  0  0
 34 35  1  0  0  0  0
 30 35  2  0  0  0  0
 33 36  1  0  0  0  0
 28 30  1  0  0  0  0
 10 26  1  0  0  0  0
  9 10  1  0  0  0  0
  5  6  1  0  0  0  0
 37 38  1  0  0  0  0
 38 39  2  0  0  0  0
 39 40  1  0  0  0  0
 40 41  2  0  0  0  0
 41 42  1  0  0  0  0
 37 42  2  0  0  0  0
 40 43  1  0  0  0  0
  3 37  1  0  0  0  0
M  END
>  <cdx:fragmentId>
41

$$$$
