90460.cdx
  Mrv1902 05222410252D          

 34 37  0  0  0  0            999 V2000
    3.7656   -7.7814    0.0000 C   0  0  0  0  0  0  0  0  0  0  0  0
    3.7656   -8.6064    0.0000 C   0  0  0  0  0  0  0  0  0  0  0  0
    4.4800   -9.0189    0.0000 C   0  0  0  0  0  0  0  0  0  0  0  0
    5.1945   -8.6064    0.0000 C   0  0  0  0  0  0  0  0  0  0  0  0
    5.1945   -7.7814    0.0000 C   0  0  0  0  0  0  0  0  0  0  0  0
    4.4800   -7.3689    0.0000 C   0  0  0  0  0  0  0  0  0  0  0  0
    5.9090   -9.0189    0.0000 C   0  0  0  0  0  0  0  0  0  0  0  0
    6.6234   -8.6064    0.0000 C   0  0  0  0  0  0  0  0  0  0  0  0
    6.6234   -7.7814    0.0000 C   0  0  0  0  0  0  0  0  0  0  0  0
    5.9090   -7.3689    0.0000 O   0  0  0  0  0  0  0  0  0  0  0  0
    4.4800   -9.8439    0.0000 O   0  0  0  0  0  0  0  0  0  0  0  0
    5.9090   -9.8439    0.0000 O   0  0  0  0  0  0  0  0  0  0  0  0
    7.3379   -9.0189    0.0000 O   0  0  0  0  0  0  0  0  0  0  0  0
    8.0524   -7.7814    0.0000 C   0  0  0  0  0  0  0  0  0  0  0  0
    7.3379   -7.3689    0.0000 C   0  0  0  0  0  0  0  0  0  0  0  0
    8.7669   -7.3689    0.0000 C   0  0  0  0  0  0  0  0  0  0  0  0
    8.7669   -6.5439    0.0000 C   0  0  0  0  0  0  0  0  0  0  0  0
    8.0524   -6.1314    0.0000 C   0  0  0  0  0  0  0  0  0  0  0  0
    7.3379   -6.5439    0.0000 C   0  0  0  0  0  0  0  0  0  0  0  0
    3.0511   -7.3689    0.0000 O   0  0  0  0  0  0  0  0  0  0  0  0
    8.0524   -5.3064    0.0000 O   0  0  0  0  0  0  0  0  0  0  0  0
    9.4813   -6.1314    0.0000 O   0  0  0  0  0  0  0  0  0  0  0  0
    9.4813   -7.7814    0.0000 O   0  0  0  0  0  0  0  0  0  0  0  0
    7.3379   -9.8439    0.0000 C   0  0  2  0  0  0  0  0  0  0  0  0
    6.6234  -10.2564    0.0000 O   0  0  0  0  0  0  0  0  0  0  0  0
    6.6234  -11.0814    0.0000 C   0  0  1  0  0  0  0  0  0  0  0  0
    7.3379  -11.4939    0.0000 C   0  0  1  0  0  0  0  0  0  0  0  0
    8.0524  -11.0814    0.0000 C   0  0  1  0  0  0  0  0  0  0  0  0
    8.0524  -10.2564    0.0000 C   0  0  1  0  0  0  0  0  0  0  0  0
    5.9090  -11.4939    0.0000 C   0  0  0  0  0  0  0  0  0  0  0  0
    7.3379  -12.3189    0.0000 O   0  0  0  0  0  0  0  0  0  0  0  0
    8.7669  -11.4939    0.0000 O   0  0  0  0  0  0  0  0  0  0  0  0
    8.7669   -9.8439    0.0000 O   0  0  0  0  0  0  0  0  0  0  0  0
    5.9090  -12.3189    0.0000 O   0  0  0  0  0  0  0  0  0  0  0  0
  1  2  2  0  0  0  0
  2  3  1  0  0  0  0
  3  4  2  0  0  0  0
  4  5  1  0  0  0  0
  5  6  2  0  0  0  0
  6  1  1  0  0  0  0
  4  7  1  0  0  0  0
  7  8  1  0  0  0  0
  8  9  2  0  0  0  0
  9 10  1  0  0  0  0
 10  5  1  0  0  0  0
  3 11  1  0  0  0  0
 12  7  2  0  0  0  0
  8 13  1  0  0  0  0
 14 15  2  0  0  0  0
 15  9  1  0  0  0  0
 14 16  1  0  0  0  0
 16 17  2  0  0  0  0
 17 18  1  0  0  0  0
 18 19  2  0  0  0  0
 19 15  1  0  0  0  0
  1 20  1  0  0  0  0
 18 21  1  0  0  0  0
 17 22  1  0  0  0  0
 16 23  1  0  0  0  0
 24 13  1  1  0  0  0
 24 25  1  0  0  0  0
 25 26  1  0  0  0  0
 26 27  1  0  0  0  0
 27 28  1  0  0  0  0
 28 29  1  0  0  0  0
 29 24  1  0  0  0  0
 26 30  1  1  0  0  0
 27 31  1  1  0  0  0
 28 32  1  1  0  0  0
 29 33  1  6  0  0  0
 30 34  1  0  0  0  0
M  END
>  <cdx:fragmentId>
5

$$$$
