904672.cdx
  Mrv1902 05222410192D          

 38 40  0  0  0  0            999 V2000
    4.1081   -4.9706    0.0000 C   0  0  2  0  0  0  0  0  0  0  0  0
    3.3937   -5.3831    0.0000 C   0  0  0  0  0  0  0  0  0  0  0  0
    3.3937   -6.2081    0.0000 C   0  0  2  0  0  0  0  0  0  0  0  0
    4.1081   -6.6206    0.0000 C   0  0  1  0  0  0  0  0  0  0  0  0
    4.8226   -6.2081    0.0000 C   0  0  1  0  0  0  0  0  0  0  0  0
    4.8226   -5.3831    0.0000 C   0  0  0  0  0  0  0  0  0  0  0  0
    4.1081   -7.4456    0.0000 O   0  0  0  0  0  0  0  0  0  0  0  0
    5.5371   -6.6206    0.0000 O   0  0  0  0  0  0  0  0  0  0  0  0
    3.6255   -4.1739    0.0000 O   0  0  0  0  0  0  0  0  0  0  0  0
    2.6707   -6.6276    0.0000 O   0  0  0  0  0  0  0  0  0  0  0  0
   11.2318   -6.6463    0.0000 C   0  0  0  0  0  0  0  0  0  0  0  0
   10.5198   -6.2294    0.0000 O   0  0  0  0  0  0  0  0  0  0  0  0
   10.5148   -7.8794    0.0000 O   0  0  0  0  0  0  0  0  0  0  0  0
    9.8016   -7.4648    0.0000 C   0  0  0  0  0  0  0  0  0  0  0  0
    9.8041   -6.6398    0.0000 C   0  0  0  0  0  0  0  0  0  0  0  0
    9.0909   -6.2251    0.0000 C   0  0  0  0  0  0  0  0  0  0  0  0
    8.3752   -6.6354    0.0000 C   0  0  0  0  0  0  0  0  0  0  0  0
    7.6620   -6.2208    0.0000 C   0  0  0  0  0  0  0  0  0  0  0  0
    6.9462   -6.6311    0.0000 C   0  0  0  0  0  0  0  0  0  0  0  0
    6.2330   -6.2164    0.0000 C   0  0  0  0  0  0  0  0  0  0  0  0
    6.2355   -5.3914    0.0000 O   0  0  0  0  0  0  0  0  0  0  0  0
    4.8409   -7.8730    0.0000 C   0  0  0  0  0  0  0  0  0  0  0  0
    4.8290   -8.6979    0.0000 C   0  0  0  0  0  0  0  0  0  0  0  0
    5.5374   -9.1207    0.0000 C   0  0  0  0  0  0  0  0  0  0  0  0
    5.5255   -9.9456    0.0000 C   0  0  0  0  0  0  0  0  0  0  0  0
    5.5612   -7.4709    0.0000 O   0  0  0  0  0  0  0  0  0  0  0  0
    4.8052  -10.3478    0.0000 C   0  0  0  0  0  0  0  0  0  0  0  0
    4.7933  -11.1727    0.0000 C   0  0  0  0  0  0  0  0  0  0  0  0
    5.5018  -11.5954    0.0000 C   0  0  0  0  0  0  0  0  0  0  0  0
    6.2221  -11.1933    0.0000 C   0  0  0  0  0  0  0  0  0  0  0  0
    6.2340  -10.3684    0.0000 C   0  0  0  0  0  0  0  0  0  0  0  0
    5.4899  -12.4204    0.0000 O   0  0  0  0  0  0  0  0  0  0  0  0
    4.0730  -11.5749    0.0000 O   0  0  0  0  0  0  0  0  0  0  0  0
    8.3727   -7.4604    0.0000 C   0  0  0  0  0  0  0  0  0  0  0  0
    9.0859   -7.8751    0.0000 C   0  0  0  0  0  0  0  0  0  0  0  0
    4.5206   -4.2562    0.0000 C   0  0  0  0  0  0  0  0  0  0  0  0
    4.1081   -3.5417    0.0000 O   0  0  0  0  0  0  0  0  0  0  0  0
    5.3456   -4.2562    0.0000 O   0  0  0  0  0  0  0  0  0  0  0  0
  1  2  1  0  0  0  0
  2  3  1  0  0  0  0
  3  4  1  0  0  0  0
  4  5  1  0  0  0  0
  5  6  1  0  0  0  0
  6  1  1  0  0  0  0
  4  7  1  1  0  0  0
  5  8  1  1  0  0  0
  1  9  1  1  0  0  0
  3 10  1  6  0  0  0
 12 11  1  0  0  0  0
 15 12  1  0  0  0  0
 14 13  1  0  0  0  0
 14 35  1  0  0  0  0
 15 14  2  0  0  0  0
 16 15  1  0  0  0  0
 17 16  2  0  0  0  0
 34 17  1  0  0  0  0
 35 34  2  0  0  0  0
 17 18  1  0  0  0  0
 18 19  2  0  0  0  0
 19 20  1  0  0  0  0
 20 21  2  0  0  0  0
 22 23  1  0  0  0  0
 23 24  2  0  0  0  0
 24 25  1  0  0  0  0
 22 26  2  0  0  0  0
 25 27  2  0  0  0  0
 27 28  1  0  0  0  0
 28 29  2  0  0  0  0
 29 30  1  0  0  0  0
 30 31  2  0  0  0  0
 31 25  1  0  0  0  0
 29 32  1  0  0  0  0
 28 33  1  0  0  0  0
 22  7  1  0  0  0  0
 20  8  1  0  0  0  0
  1 36  1  0  0  0  0
 36 37  2  0  0  0  0
 36 38  1  0  0  0  0
M  END
>  <cdx:fragmentId>
133

$$$$
