904671.cdx
  Mrv1902 05222410182D          

 38 40  0  0  0  0            999 V2000
    9.5179   -4.9706    0.0000 C   0  0  2  0  0  0  0  0  0  0  0  0
    9.0352   -4.1739    0.0000 O   0  0  0  0  0  0  0  0  0  0  0  0
    9.9304   -4.2562    0.0000 C   0  0  0  0  0  0  0  0  0  0  0  0
    9.5179   -3.5417    0.0000 O   0  0  0  0  0  0  0  0  0  0  0  0
    4.5401   -7.8751    0.0000 C   0  0  0  0  0  0  0  0  0  0  0  0
    5.2533   -7.4604    0.0000 C   0  0  0  0  0  0  0  0  0  0  0  0
    9.5530  -11.5749    0.0000 O   0  0  0  0  0  0  0  0  0  0  0  0
    8.1361  -12.4204    0.0000 O   0  0  0  0  0  0  0  0  0  0  0  0
    7.3920  -10.3684    0.0000 C   0  0  0  0  0  0  0  0  0  0  0  0
    7.4039  -11.1933    0.0000 C   0  0  0  0  0  0  0  0  0  0  0  0
    8.1242  -11.5954    0.0000 C   0  0  0  0  0  0  0  0  0  0  0  0
    8.8327  -11.1727    0.0000 C   0  0  0  0  0  0  0  0  0  0  0  0
    8.8208  -10.3478    0.0000 C   0  0  0  0  0  0  0  0  0  0  0  0
    8.0648   -7.4709    0.0000 O   0  0  0  0  0  0  0  0  0  0  0  0
    8.1005   -9.9456    0.0000 C   0  0  0  0  0  0  0  0  0  0  0  0
    8.0886   -9.1207    0.0000 C   0  0  0  0  0  0  0  0  0  0  0  0
    8.7970   -8.6979    0.0000 C   0  0  0  0  0  0  0  0  0  0  0  0
    8.7851   -7.8730    0.0000 C   0  0  0  0  0  0  0  0  0  0  0  0
    7.3905   -5.3914    0.0000 O   0  0  0  0  0  0  0  0  0  0  0  0
    7.3930   -6.2164    0.0000 C   0  0  0  0  0  0  0  0  0  0  0  0
    6.6798   -6.6311    0.0000 C   0  0  0  0  0  0  0  0  0  0  0  0
    5.9640   -6.2208    0.0000 C   0  0  0  0  0  0  0  0  0  0  0  0
    5.2508   -6.6354    0.0000 C   0  0  0  0  0  0  0  0  0  0  0  0
    4.5351   -6.2251    0.0000 C   0  0  0  0  0  0  0  0  0  0  0  0
    3.8219   -6.6398    0.0000 C   0  0  0  0  0  0  0  0  0  0  0  0
    3.8244   -7.4648    0.0000 C   0  0  0  0  0  0  0  0  0  0  0  0
    3.1112   -7.8794    0.0000 O   0  0  0  0  0  0  0  0  0  0  0  0
    3.1062   -6.2294    0.0000 O   0  0  0  0  0  0  0  0  0  0  0  0
    2.3942   -6.6463    0.0000 C   0  0  0  0  0  0  0  0  0  0  0  0
   10.9553   -6.6276    0.0000 O   0  0  0  0  0  0  0  0  0  0  0  0
   10.7554   -4.2562    0.0000 O   0  0  0  0  0  0  0  0  0  0  0  0
    8.0889   -6.6206    0.0000 O   0  0  0  0  0  0  0  0  0  0  0  0
    9.5179   -7.4456    0.0000 O   0  0  0  0  0  0  0  0  0  0  0  0
    8.8034   -5.3831    0.0000 C   0  0  0  0  0  0  0  0  0  0  0  0
    8.8034   -6.2081    0.0000 C   0  0  2  0  0  0  0  0  0  0  0  0
    9.5179   -6.6206    0.0000 C   0  0  1  0  0  0  0  0  0  0  0  0
   10.2323   -6.2081    0.0000 C   0  0  1  0  0  0  0  0  0  0  0  0
   10.2323   -5.3831    0.0000 C   0  0  0  0  0  0  0  0  0  0  0  0
  1  2  1  1  0  0  0
  1  3  1  0  0  0  0
 20 32  1  0  0  0  0
 18 33  1  0  0  0  0
 12  7  1  0  0  0  0
 11  8  1  0  0  0  0
  9 15  1  0  0  0  0
 10  9  2  0  0  0  0
 11 10  1  0  0  0  0
 12 11  2  0  0  0  0
 13 12  1  0  0  0  0
 15 13  2  0  0  0  0
 18 14  2  0  0  0  0
 16 15  1  0  0  0  0
 17 16  2  0  0  0  0
 18 17  1  0  0  0  0
 20 19  2  0  0  0  0
 21 20  1  0  0  0  0
 22 21  2  0  0  0  0
 23 22  1  0  0  0  0
  5  6  2  0  0  0  0
  6 23  1  0  0  0  0
 23 24  2  0  0  0  0
 24 25  1  0  0  0  0
 25 26  2  0  0  0  0
 26  5  1  0  0  0  0
 26 27  1  0  0  0  0
 25 28  1  0  0  0  0
 28 29  1  0  0  0  0
 37 30  1  1  0  0  0
  3  4  2  0  0  0  0
 35 32  1  6  0  0  0
 36 33  1  1  0  0  0
 34  1  1  0  0  0  0
 35 34  1  0  0  0  0
 36 35  1  0  0  0  0
 37 36  1  0  0  0  0
 38 37  1  0  0  0  0
  1 38  1  0  0  0  0
  3 31  1  0  0  0  0
M  END
>  <cdx:fragmentId>
133

$$$$
