4666.cdx
  Mrv1902 05222410192D          

 14 14  0  0  0  0            999 V2000
    6.0877   -8.2912    0.0000 C   0  0  0  0  0  0  0  0  0  0  0  0
    6.0877   -9.1162    0.0000 C   0  0  0  0  0  0  0  0  0  0  0  0
    6.8021   -9.5287    0.0000 C   0  0  0  0  0  0  0  0  0  0  0  0
    7.5166   -9.1162    0.0000 C   0  0  0  0  0  0  0  0  0  0  0  0
    7.5166   -8.2912    0.0000 C   0  0  0  0  0  0  0  0  0  0  0  0
    6.8021   -7.8788    0.0000 C   0  0  0  0  0  0  0  0  0  0  0  0
    6.8021   -7.0537    0.0000 C   0  0  0  0  0  0  0  0  0  0  0  0
    6.0877   -6.6413    0.0000 O   0  0  0  0  0  0  0  0  0  0  0  0
    7.5166   -6.6413    0.0000 O   0  0  0  0  0  0  0  0  0  0  0  0
    6.8021  -10.3537    0.0000 O   0  0  0  0  0  0  0  0  0  0  0  0
    8.2311   -9.5287    0.0000 O   0  0  0  0  0  0  0  0  0  0  0  0
    5.3732   -9.5287    0.0000 O   0  0  0  0  0  0  0  0  0  0  0  0
    4.6587   -9.1162    0.0000 C   0  0  0  0  0  0  0  0  0  0  0  0
    3.9442   -9.5287    0.0000 C   0  0  0  0  0  0  0  0  0  0  0  0
  1  2  2  0  0  0  0
  2  3  1  0  0  0  0
  3  4  2  0  0  0  0
  4  5  1  0  0  0  0
  5  6  2  0  0  0  0
  6  1  1  0  0  0  0
  6  7  1  0  0  0  0
  7  8  2  0  0  0  0
  7  9  1  0  0  0  0
  3 10  1  0  0  0  0
  4 11  1  0  0  0  0
  2 12  1  0  0  0  0
 12 13  1  0  0  0  0
 13 14  1  0  0  0  0
M  END
>  <cdx:fragmentId>
5

$$$$
