90469.cdx
  Mrv1902 05222410222D          

 38 41  0  0  0  0            999 V2000
    9.3984   -2.5101    0.0000 O   0  0  0  0  0  0  0  0  0  0  0  0
    7.6641   -5.7458    0.0000 C   0  0  0  0  0  0  0  0  0  0  0  0
    8.3740   -6.1605    0.0000 C   0  0  0  0  0  0  0  0  0  0  0  0
    8.3699   -6.9826    0.0000 C   0  0  0  0  0  0  0  0  0  0  0  0
    7.6558   -7.3901    0.0000 C   0  0  0  0  0  0  0  0  0  0  0  0
    6.9459   -6.9754    0.0000 C   0  0  0  0  0  0  0  0  0  0  0  0
    6.9501   -6.1533    0.0000 C   0  0  0  0  0  0  0  0  0  0  0  0
    9.1716   -4.6253    0.0000 C   0  0  0  0  0  0  0  0  0  0  0  0
    9.6462   -3.9540    0.0000 O   0  0  0  0  0  0  0  0  0  0  0  0
    9.1544   -3.2952    0.0000 C   0  0  0  0  0  0  0  0  0  0  0  0
    8.3759   -3.5593    0.0000 C   0  0  2  0  0  0  0  0  0  0  0  0
    8.3865   -4.3814    0.0000 C   0  0  1  0  0  0  0  0  0  0  0  0
    7.6683   -4.9237    0.0000 C   0  0  0  0  0  0  0  0  0  0  0  0
    7.6517   -8.2122    0.0000 O   0  0  0  0  0  0  0  0  0  0  0  0
    9.0798   -7.3973    0.0000 O   0  0  0  0  0  0  0  0  0  0  0  0
    9.8069   -7.0076    0.0000 C   0  0  0  0  0  0  0  0  0  0  0  0
    8.3759   -2.7945    0.0000 O   0  0  0  0  0  0  0  0  0  0  0  0
    7.6255   -3.1078    0.0000 C   0  0  0  0  0  0  0  0  0  0  0  0
    6.9078   -3.5089    0.0000 C   0  0  0  0  0  0  0  0  0  0  0  0
    6.8963   -4.3309    0.0000 C   0  0  0  0  0  0  0  0  0  0  0  0
    6.1786   -4.7320    0.0000 C   0  0  0  0  0  0  0  0  0  0  0  0
    5.4725   -4.3110    0.0000 C   0  0  0  0  0  0  0  0  0  0  0  0
    5.4840   -3.4889    0.0000 C   0  0  0  0  0  0  0  0  0  0  0  0
    6.2017   -3.0879    0.0000 C   0  0  0  0  0  0  0  0  0  0  0  0
    4.7548   -4.7120    0.0000 O   0  0  0  0  0  0  0  0  0  0  0  0
    4.7778   -3.0679    0.0000 O   0  0  0  0  0  0  0  0  0  0  0  0
    4.0601   -3.4690    0.0000 C   0  0  0  0  0  0  0  0  0  0  0  0
    7.6809   -9.8774    0.0000 O   0  0  0  0  0  0  0  0  0  0  0  0
    4.1242   -8.6348    0.0000 O   0  0  0  0  0  0  0  0  0  0  0  0
    4.8330   -9.8699    0.0000 O   0  0  0  0  0  0  0  0  0  0  0  0
    6.2548  -10.6958    0.0000 O   0  0  0  0  0  0  0  0  0  0  0  0
    4.8373   -8.2256    0.0000 C   0  0  0  0  0  0  0  0  0  0  0  0
    6.9700   -9.4645    0.0000 C   0  0  2  0  0  0  0  0  0  0  0  0
    6.2569   -9.8737    0.0000 C   0  0  2  0  0  0  0  0  0  0  0  0
    5.5460   -9.4607    0.0000 C   0  0  1  0  0  0  0  0  0  0  0  0
    5.5482   -8.6386    0.0000 C   0  0  2  0  0  0  0  0  0  0  0  0
    6.2613   -8.2294    0.0000 O   0  0  0  0  0  0  0  0  0  0  0  0
    6.9722   -8.6423    0.0000 C   0  0  1  0  0  0  0  0  0  0  0  0
 11 18  1  1  0  0  0
 11 17  1  6  0  0  0
 12 13  1  6  0  0  0
 10  1  2  0  0  0  0
  8 12  1  0  0  0  0
  9  8  1  0  0  0  0
 10  9  1  0  0  0  0
 11 10  1  0  0  0  0
 12 11  1  0  0  0  0
  2 13  1  0  0  0  0
  2  3  2  0  0  0  0
  3  4  1  0  0  0  0
  4  5  2  0  0  0  0
  5  6  1  0  0  0  0
  6  7  2  0  0  0  0
  7  2  1  0  0  0  0
  5 14  1  0  0  0  0
  4 15  1  0  0  0  0
 15 16  1  0  0  0  0
 18 19  1  0  0  0  0
 19 20  2  0  0  0  0
 20 21  1  0  0  0  0
 21 22  2  0  0  0  0
 22 23  1  0  0  0  0
 23 24  2  0  0  0  0
 24 19  1  0  0  0  0
 22 25  1  0  0  0  0
 23 26  1  0  0  0  0
 26 27  1  0  0  0  0
 33 28  1  6  0  0  0
 32 29  1  0  0  0  0
 35 30  1  6  0  0  0
 34 31  1  1  0  0  0
 36 32  1  1  0  0  0
 33 38  1  0  0  0  0
 34 33  1  0  0  0  0
 35 34  1  0  0  0  0
 36 35  1  0  0  0  0
 37 36  1  0  0  0  0
 38 37  1  0  0  0  0
 38 14  1  1  0  0  0
M  END
>  <cdx:fragmentId>
11210

$$$$
