90461.cdx
  Mrv1902 05222410252D          

 13 13  0  0  0  0            999 V2000
    5.7181   -8.8401    0.0000 C   0  0  0  0  0  0  0  0  0  0  0  0
    5.7181   -9.6651    0.0000 C   0  0  0  0  0  0  0  0  0  0  0  0
    6.4325  -10.0776    0.0000 C   0  0  0  0  0  0  0  0  0  0  0  0
    7.1470   -9.6651    0.0000 C   0  0  0  0  0  0  0  0  0  0  0  0
    7.1470   -8.8401    0.0000 C   0  0  0  0  0  0  0  0  0  0  0  0
    6.4325   -8.4276    0.0000 C   0  0  0  0  0  0  0  0  0  0  0  0
    6.4325  -10.9026    0.0000 O   0  0  0  0  0  0  0  0  0  0  0  0
    5.7181  -11.3151    0.0000 C   0  0  0  0  0  0  0  0  0  0  0  0
    6.4325   -7.6026    0.0000 N   0  0  0  0  0  0  0  0  0  0  0  0
    7.1470   -7.1901    0.0000 C   0  0  0  0  0  0  0  0  0  0  0  0
    7.1470   -6.3651    0.0000 C   0  0  0  0  0  0  0  0  0  0  0  0
    7.8615   -7.6026    0.0000 O   0  0  0  0  0  0  0  0  0  0  0  0
    7.8615   -5.9526    0.0000 C   0  0  0  0  0  0  0  0  0  0  0  0
  1  2  2  0  0  0  0
  2  3  1  0  0  0  0
  3  4  2  0  0  0  0
  4  5  1  0  0  0  0
  5  6  2  0  0  0  0
  6  1  1  0  0  0  0
  3  7  1  0  0  0  0
  7  8  1  0  0  0  0
  6  9  1  0  0  0  0
  9 10  1  0  0  0  0
 10 11  1  0  0  0  0
 10 12  2  0  0  0  0
 11 13  1  0  0  0  0
M  END
>  <cdx:fragmentId>
5

$$$$
