90466.cdx
  Mrv1902 05222410232D          

 43 45  0  0  0  0            999 V2000
   13.9165   -9.5785    0.0000 C   0  0  0  0  0  0  0  0  0  0  0  0
   14.6310   -9.9910    0.0000 C   0  0  0  0  0  0  0  0  0  0  0  0
   15.3454   -9.5785    0.0000 C   0  0  0  0  0  0  0  0  0  0  0  0
   13.9165   -8.7535    0.0000 O   0  0  0  0  0  0  0  0  0  0  0  0
   13.2020   -9.9910    0.0000 N   0  0  0  0  0  0  0  0  0  0  0  0
   12.4875   -9.5785    0.0000 C   0  0  0  0  0  0  0  0  0  0  0  0
   11.7731   -9.9910    0.0000 C   0  0  0  0  0  0  0  0  0  0  0  0
   11.0586   -9.5785    0.0000 C   0  0  0  0  0  0  0  0  0  0  0  0
   10.3441   -9.9910    0.0000 C   0  0  0  0  0  0  0  0  0  0  0  0
    9.6297   -9.5785    0.0000 N   0  0  0  0  0  0  0  0  0  0  0  0
    8.9152   -9.9910    0.0000 C   0  0  0  0  0  0  0  0  0  0  0  0
    8.2007   -9.5785    0.0000 C   0  0  0  0  0  0  0  0  0  0  0  0
    7.4863   -9.9910    0.0000 C   0  0  0  0  0  0  0  0  0  0  0  0
    6.7718   -9.5785    0.0000 N   0  0  0  0  0  0  0  0  0  0  0  0
    6.0573   -9.9910    0.0000 C   0  0  0  0  0  0  0  0  0  0  0  0
    5.3428   -9.5785    0.0000 C   0  0  0  0  0  0  0  0  0  0  0  0
    4.6284   -9.9910    0.0000 C   0  0  0  0  0  0  0  0  0  0  0  0
    6.0573  -10.8160    0.0000 O   0  0  0  0  0  0  0  0  0  0  0  0
    3.9139   -9.5785    0.0000 C   0  0  0  0  0  0  0  0  0  0  0  0
    3.1994   -9.9910    0.0000 C   0  0  0  0  0  0  0  0  0  0  0  0
    2.4850   -9.5785    0.0000 C   0  0  0  0  0  0  0  0  0  0  0  0
    2.4850   -8.7535    0.0000 C   0  0  0  0  0  0  0  0  0  0  0  0
    3.1994   -8.3410    0.0000 C   0  0  0  0  0  0  0  0  0  0  0  0
    3.9139   -8.7535    0.0000 C   0  0  0  0  0  0  0  0  0  0  0  0
    1.7705   -8.3410    0.0000 O   0  0  0  0  0  0  0  0  0  0  0  0
    9.6297   -8.7535    0.0000 C   0  0  0  0  0  0  0  0  0  0  0  0
    8.9152   -8.3410    0.0000 C   0  0  0  0  0  0  0  0  0  0  0  0
    8.9152   -7.5160    0.0000 C   0  0  0  0  0  0  0  0  0  0  0  0
   10.3441   -8.3410    0.0000 O   0  0  0  0  0  0  0  0  0  0  0  0
    8.2007   -7.1035    0.0000 C   0  0  0  0  0  0  0  0  0  0  0  0
    7.4863   -7.5160    0.0000 C   0  0  0  0  0  0  0  0  0  0  0  0
    6.7718   -7.1035    0.0000 C   0  0  0  0  0  0  0  0  0  0  0  0
    6.7718   -6.2785    0.0000 C   0  0  0  0  0  0  0  0  0  0  0  0
    7.4863   -5.8660    0.0000 C   0  0  0  0  0  0  0  0  0  0  0  0
    8.2007   -6.2785    0.0000 C   0  0  0  0  0  0  0  0  0  0  0  0
    6.0573   -5.8660    0.0000 O   0  0  0  0  0  0  0  0  0  0  0  0
   16.0599   -9.9910    0.0000 C   0  0  0  0  0  0  0  0  0  0  0  0
   16.7744   -9.5785    0.0000 C   0  0  0  0  0  0  0  0  0  0  0  0
   17.4888   -9.9910    0.0000 C   0  0  0  0  0  0  0  0  0  0  0  0
   17.4888  -10.8160    0.0000 C   0  0  0  0  0  0  0  0  0  0  0  0
   16.7744  -11.2285    0.0000 C   0  0  0  0  0  0  0  0  0  0  0  0
   16.0599  -10.8160    0.0000 C   0  0  0  0  0  0  0  0  0  0  0  0
   18.2033  -11.2285    0.0000 O   0  0  0  0  0  0  0  0  0  0  0  0
  1  2  1  0  0  0  0
  2  3  2  0  0  0  0
  1  4  2  0  0  0  0
  1  5  1  0  0  0  0
  6  7  1  0  0  0  0
  7  8  1  0  0  0  0
  8  9  1  0  0  0  0
 11 12  1  0  0  0  0
 12 13  1  0  0  0  0
 15 16  1  0  0  0  0
 16 17  2  0  0  0  0
 15 18  2  0  0  0  0
 19 20  1  0  0  0  0
 20 21  2  0  0  0  0
 21 22  1  0  0  0  0
 22 23  2  0  0  0  0
 23 24  1  0  0  0  0
 19 24  2  0  0  0  0
 22 25  1  0  0  0  0
 17 19  1  0  0  0  0
 14 15  1  0  0  0  0
 13 14  1  0  0  0  0
 10 11  1  0  0  0  0
 26 27  1  0  0  0  0
 27 28  2  0  0  0  0
 26 29  2  0  0  0  0
 30 31  1  0  0  0  0
 31 32  2  0  0  0  0
 32 33  1  0  0  0  0
 33 34  2  0  0  0  0
 34 35  1  0  0  0  0
 30 35  2  0  0  0  0
 33 36  1  0  0  0  0
 28 30  1  0  0  0  0
 10 26  1  0  0  0  0
  9 10  1  0  0  0  0
  5  6  1  0  0  0  0
 37 38  1  0  0  0  0
 38 39  2  0  0  0  0
 39 40  1  0  0  0  0
 40 41  2  0  0  0  0
 41 42  1  0  0  0  0
 37 42  2  0  0  0  0
 40 43  1  0  0  0  0
  3 37  1  0  0  0  0
M  END
>  <cdx:fragmentId>
41

$$$$
