90478.cdx
  Mrv1902 05222410212D          

 34 37  0  0  0  0            999 V2000
    3.9718  -12.2639    0.0000 O   0  0  0  0  0  0  0  0  0  0  0  0
    4.6863  -13.5014    0.0000 O   0  0  0  0  0  0  0  0  0  0  0  0
    5.4007  -13.0889    0.0000 C   0  0  2  0  0  0  0  0  0  0  0  0
    5.4007  -12.2639    0.0000 C   0  0  1  0  0  0  0  0  0  0  0  0
    4.6863  -11.8514    0.0000 C   0  0  0  0  0  0  0  0  0  0  0  0
    6.1152  -13.5014    0.0000 C   0  0  1  0  0  0  0  0  0  0  0  0
    6.8297  -13.0889    0.0000 C   0  0  2  0  0  0  0  0  0  0  0  0
    6.8297  -12.2639    0.0000 C   0  0  1  0  0  0  0  0  0  0  0  0
    6.1152  -11.8514    0.0000 O   0  0  0  0  0  0  0  0  0  0  0  0
    7.5442  -11.8514    0.0000 O   0  0  0  0  0  0  0  0  0  0  0  0
    7.5442  -11.0264    0.0000 C   0  0  0  0  0  0  0  0  0  0  0  0
    6.8297  -10.6139    0.0000 C   0  0  0  0  0  0  0  0  0  0  0  0
    6.1152  -11.0264    0.0000 O   0  0  0  0  0  0  0  0  0  0  0  0
    8.2586  -10.6139    0.0000 C   0  0  0  0  0  0  0  0  0  0  0  0
    8.2586   -9.7889    0.0000 C   0  0  0  0  0  0  0  0  0  0  0  0
    7.5442   -9.3764    0.0000 C   0  0  0  0  0  0  0  0  0  0  0  0
    6.8297   -9.7889    0.0000 C   0  0  0  0  0  0  0  0  0  0  0  0
    8.9731   -9.3764    0.0000 O   0  0  0  0  0  0  0  0  0  0  0  0
    8.9731   -8.5514    0.0000 C   0  0  0  0  0  0  0  0  0  0  0  0
    8.2586   -8.1389    0.0000 C   0  0  0  0  0  0  0  0  0  0  0  0
    7.5442   -8.5514    0.0000 C   0  0  0  0  0  0  0  0  0  0  0  0
    8.2586   -7.3139    0.0000 C   0  0  0  0  0  0  0  0  0  0  0  0
    7.5442   -6.9014    0.0000 C   0  0  0  0  0  0  0  0  0  0  0  0
    6.8297   -8.1389    0.0000 O   0  0  0  0  0  0  0  0  0  0  0  0
    8.9731   -6.9014    0.0000 C   0  0  0  0  0  0  0  0  0  0  0  0
    8.9731   -6.0764    0.0000 C   0  0  0  0  0  0  0  0  0  0  0  0
    8.2586   -5.6639    0.0000 C   0  0  0  0  0  0  0  0  0  0  0  0
    7.5442   -6.0764    0.0000 C   0  0  0  0  0  0  0  0  0  0  0  0
    8.2586   -4.8389    0.0000 O   0  0  0  0  0  0  0  0  0  0  0  0
    7.5442   -4.4264    0.0000 C   0  0  0  0  0  0  0  0  0  0  0  0
    5.4007  -10.6139    0.0000 C   0  0  0  0  0  0  0  0  0  0  0  0
    9.6876   -5.6639    0.0000 O   0  0  0  0  0  0  0  0  0  0  0  0
    6.1152  -14.3264    0.0000 O   0  0  0  0  0  0  0  0  0  0  0  0
    7.5442  -13.5014    0.0000 O   0  0  0  0  0  0  0  0  0  0  0  0
  3  2  1  6  0  0  0
  3  4  1  0  0  0  0
  4  5  1  1  0  0  0
  5  1  1  0  0  0  0
  3  6  1  0  0  0  0
  6  7  1  0  0  0  0
  7  8  1  0  0  0  0
  8  9  1  0  0  0  0
  9  4  1  0  0  0  0
  8 10  1  1  0  0  0
 10 11  1  0  0  0  0
 11 12  2  0  0  0  0
 12 13  1  0  0  0  0
 11 14  1  0  0  0  0
 14 15  2  0  0  0  0
 15 16  1  0  0  0  0
 16 17  2  0  0  0  0
 17 12  1  0  0  0  0
 15 18  1  0  0  0  0
 18 19  1  0  0  0  0
 19 20  2  0  0  0  0
 20 21  1  0  0  0  0
 21 16  1  0  0  0  0
 20 22  1  0  0  0  0
 22 23  1  0  0  0  0
 24 21  2  0  0  0  0
 22 25  2  0  0  0  0
 25 26  1  0  0  0  0
 26 27  2  0  0  0  0
 27 28  1  0  0  0  0
 28 23  2  0  0  0  0
 27 29  1  0  0  0  0
 29 30  1  0  0  0  0
 13 31  1  0  0  0  0
 26 32  1  0  0  0  0
  6 33  1  1  0  0  0
  7 34  1  6  0  0  0
M  END
>  <cdx:fragmentId>
5

$$$$
