90479.cdx
  Mrv1902 05222410212D          

 40 43  0  0  0  0            999 V2000
    5.9931  -12.5526    0.0000 O   0  0  0  0  0  0  0  0  0  0  0  0
    6.7075  -13.7901    0.0000 O   0  0  0  0  0  0  0  0  0  0  0  0
    7.4220  -13.3776    0.0000 C   0  0  2  0  0  0  0  0  0  0  0  0
    7.4220  -12.5526    0.0000 C   0  0  1  0  0  0  0  0  0  0  0  0
    6.7075  -12.1401    0.0000 C   0  0  0  0  0  0  0  0  0  0  0  0
    8.1365  -13.7901    0.0000 C   0  0  1  0  0  0  0  0  0  0  0  0
    8.8509  -13.3776    0.0000 C   0  0  2  0  0  0  0  0  0  0  0  0
    8.8509  -12.5526    0.0000 C   0  0  1  0  0  0  0  0  0  0  0  0
    8.1365  -12.1401    0.0000 O   0  0  0  0  0  0  0  0  0  0  0  0
    9.5654  -12.1401    0.0000 O   0  0  0  0  0  0  0  0  0  0  0  0
    9.5654  -11.3151    0.0000 C   0  0  0  0  0  0  0  0  0  0  0  0
    8.8509  -10.9026    0.0000 C   0  0  0  0  0  0  0  0  0  0  0  0
    8.1365  -11.3151    0.0000 O   0  0  0  0  0  0  0  0  0  0  0  0
   10.2799  -10.9026    0.0000 C   0  0  0  0  0  0  0  0  0  0  0  0
   10.2799  -10.0776    0.0000 C   0  0  0  0  0  0  0  0  0  0  0  0
    9.5654   -9.6651    0.0000 C   0  0  0  0  0  0  0  0  0  0  0  0
    8.8509  -10.0776    0.0000 C   0  0  0  0  0  0  0  0  0  0  0  0
   10.9944   -9.6651    0.0000 O   0  0  0  0  0  0  0  0  0  0  0  0
   10.9944   -8.8401    0.0000 C   0  0  0  0  0  0  0  0  0  0  0  0
   10.2799   -8.4276    0.0000 C   0  0  0  0  0  0  0  0  0  0  0  0
    9.5654   -8.8401    0.0000 C   0  0  0  0  0  0  0  0  0  0  0  0
   10.2799   -7.6026    0.0000 C   0  0  0  0  0  0  0  0  0  0  0  0
    9.5654   -7.1901    0.0000 C   0  0  0  0  0  0  0  0  0  0  0  0
    8.8509   -8.4276    0.0000 O   0  0  0  0  0  0  0  0  0  0  0  0
   10.9944   -7.1901    0.0000 C   0  0  0  0  0  0  0  0  0  0  0  0
   10.9944   -6.3651    0.0000 C   0  0  0  0  0  0  0  0  0  0  0  0
   10.2799   -5.9526    0.0000 C   0  0  0  0  0  0  0  0  0  0  0  0
    9.5654   -6.3651    0.0000 C   0  0  0  0  0  0  0  0  0  0  0  0
   10.2799   -5.1276    0.0000 O   0  0  0  0  0  0  0  0  0  0  0  0
    9.5654   -4.7151    0.0000 C   0  0  0  0  0  0  0  0  0  0  0  0
    7.4220  -10.9026    0.0000 C   0  0  0  0  0  0  0  0  0  0  0  0
   11.7088   -5.9526    0.0000 O   0  0  0  0  0  0  0  0  0  0  0  0
    8.1365  -14.6151    0.0000 O   0  0  0  0  0  0  0  0  0  0  0  0
    9.5654  -13.7901    0.0000 O   0  0  0  0  0  0  0  0  0  0  0  0
    5.2786  -12.1401    0.0000 C   0  0  0  0  0  0  0  0  0  0  0  0
    4.5641  -12.5526    0.0000 C   0  0  0  0  0  0  0  0  0  0  0  0
    5.2786  -11.3151    0.0000 O   0  0  0  0  0  0  0  0  0  0  0  0
    3.8496  -12.1401    0.0000 C   0  0  0  0  0  0  0  0  0  0  0  0
    3.1352  -12.5526    0.0000 O   0  0  0  0  0  0  0  0  0  0  0  0
    3.8496  -11.3151    0.0000 O   0  0  0  0  0  0  0  0  0  0  0  0
  3  2  1  6  0  0  0
  3  4  1  0  0  0  0
  4  5  1  1  0  0  0
  5  1  1  0  0  0  0
  3  6  1  0  0  0  0
  6  7  1  0  0  0  0
  7  8  1  0  0  0  0
  8  9  1  0  0  0  0
  9  4  1  0  0  0  0
  8 10  1  1  0  0  0
 10 11  1  0  0  0  0
 11 12  2  0  0  0  0
 12 13  1  0  0  0  0
 11 14  1  0  0  0  0
 14 15  2  0  0  0  0
 15 16  1  0  0  0  0
 16 17  2  0  0  0  0
 17 12  1  0  0  0  0
 15 18  1  0  0  0  0
 18 19  1  0  0  0  0
 19 20  2  0  0  0  0
 20 21  1  0  0  0  0
 21 16  1  0  0  0  0
 20 22  1  0  0  0  0
 22 23  1  0  0  0  0
 24 21  2  0  0  0  0
 22 25  2  0  0  0  0
 25 26  1  0  0  0  0
 26 27  2  0  0  0  0
 27 28  1  0  0  0  0
 28 23  2  0  0  0  0
 27 29  1  0  0  0  0
 29 30  1  0  0  0  0
 13 31  1  0  0  0  0
 26 32  1  0  0  0  0
  6 33  1  1  0  0  0
  7 34  1  6  0  0  0
  1 35  1  0  0  0  0
 35 36  1  0  0  0  0
 35 37  2  0  0  0  0
 36 38  1  0  0  0  0
 38 39  1  0  0  0  0
 38 40  2  0  0  0  0
M  END
>  <cdx:fragmentId>
5

$$$$
