90477.cdx
  Mrv1902 05222410252D          

 30 30  0  0  0  0            999 V2000
   10.7270   -6.9935    0.0000 C   0  0  0  0  0  0  0  0  0  0  0  0
   10.0125   -7.4060    0.0000 C   0  0  0  0  0  0  0  0  0  0  0  0
    9.2981   -6.9935    0.0000 C   0  0  0  0  0  0  0  0  0  0  0  0
    8.5836   -7.4060    0.0000 C   0  0  0  0  0  0  0  0  0  0  0  0
    7.8691   -6.9935    0.0000 C   0  0  0  0  0  0  0  0  0  0  0  0
    7.1547   -7.4060    0.0000 C   0  0  0  0  0  0  0  0  0  0  0  0
    6.4402   -6.9935    0.0000 C   0  0  0  0  0  0  0  0  0  0  0  0
    5.7257   -7.4060    0.0000 C   0  0  0  0  0  0  0  0  0  0  0  0
    5.0113   -6.9935    0.0000 C   0  0  0  0  0  0  0  0  0  0  0  0
    4.2965   -7.4055    0.0000 C   0  0  0  0  0  0  0  0  0  0  0  0
    4.2952   -8.2305    0.0000 C   0  0  0  0  0  0  0  0  0  0  0  0
    3.5800   -8.6418    0.0000 C   0  0  0  0  0  0  0  0  0  0  0  0
    3.5787   -9.4668    0.0000 C   0  0  0  0  0  0  0  0  0  0  0  0
    2.8636   -9.8782    0.0000 C   0  0  0  0  0  0  0  0  0  0  0  0
    2.8623  -10.7032    0.0000 C   0  0  0  0  0  0  0  0  0  0  0  0
    2.1472  -11.1146    0.0000 C   0  0  0  0  0  0  0  0  0  0  0  0
    2.1459  -11.9396    0.0000 C   0  0  0  0  0  0  0  0  0  0  0  0
    1.4307  -12.3509    0.0000 C   0  0  0  0  0  0  0  0  0  0  0  0
   10.7270   -6.1685    0.0000 O   0  0  0  0  0  0  0  0  0  0  0  0
   11.4415   -7.4060    0.0000 N   0  0  0  0  0  0  0  0  0  0  0  0
   12.1560   -6.9935    0.0000 C   0  0  0  0  0  0  0  0  0  0  0  0
   12.8704   -7.4060    0.0000 C   0  0  0  0  0  0  0  0  0  0  0  0
   13.5849   -6.9935    0.0000 C   0  0  0  0  0  0  0  0  0  0  0  0
   14.2994   -7.4060    0.0000 C   0  0  0  0  0  0  0  0  0  0  0  0
   14.2994   -8.2310    0.0000 C   0  0  0  0  0  0  0  0  0  0  0  0
   13.5849   -8.6435    0.0000 C   0  0  0  0  0  0  0  0  0  0  0  0
   12.8704   -8.2310    0.0000 C   0  0  0  0  0  0  0  0  0  0  0  0
   15.0138   -6.9935    0.0000 O   0  0  0  0  0  0  0  0  0  0  0  0
   15.7283   -7.4060    0.0000 C   0  0  0  0  0  0  0  0  0  0  0  0
   15.0138   -8.6435    0.0000 O   0  0  0  0  0  0  0  0  0  0  0  0
  1  2  1  0  0  0  0
  2  3  1  0  0  0  0
  3  4  1  0  0  0  0
  4  5  1  0  0  0  0
  5  6  1  0  0  0  0
  6  7  1  0  0  0  0
  7  8  1  0  0  0  0
  8  9  1  0  0  0  0
  9 10  2  0  0  0  0
 10 11  1  0  0  0  0
 11 12  1  0  0  0  0
 12 13  1  0  0  0  0
 13 14  1  0  0  0  0
 14 15  1  0  0  0  0
 15 16  1  0  0  0  0
 16 17  1  0  0  0  0
 17 18  1  0  0  0  0
  1 19  2  0  0  0  0
  1 20  1  0  0  0  0
 22 23  1  0  0  0  0
 23 24  2  0  0  0  0
 24 25  1  0  0  0  0
 25 26  2  0  0  0  0
 26 27  1  0  0  0  0
 22 27  2  0  0  0  0
 28 29  1  0  0  0  0
 24 28  1  0  0  0  0
 25 30  1  0  0  0  0
 21 22  1  0  0  0  0
 20 21  1  0  0  0  0
M  END
>  <cdx:fragmentId>
5

$$$$
