90475.cdx
  Mrv1902 05222410252D          

 30 30  0  0  0  0            999 V2000
   14.3002   -9.7817    0.0000 C   0  0  0  0  0  0  0  0  0  0  0  0
   15.0146  -10.1942    0.0000 C   0  0  0  0  0  0  0  0  0  0  0  0
   16.4436  -10.1942    0.0000 O   0  0  0  0  0  0  0  0  0  0  0  0
   15.7291   -9.7817    0.0000 C   0  0  0  0  0  0  0  0  0  0  0  0
   17.1581   -8.9567    0.0000 C   0  0  0  0  0  0  0  0  0  0  0  0
   16.4436   -8.5442    0.0000 O   0  0  0  0  0  0  0  0  0  0  0  0
   15.7291   -8.9567    0.0000 C   0  0  0  0  0  0  0  0  0  0  0  0
   15.0146   -8.5442    0.0000 C   0  0  0  0  0  0  0  0  0  0  0  0
   14.3002   -8.9567    0.0000 C   0  0  0  0  0  0  0  0  0  0  0  0
   13.5857   -8.5442    0.0000 C   0  0  0  0  0  0  0  0  0  0  0  0
   12.8712   -8.9567    0.0000 N   0  0  0  0  0  0  0  0  0  0  0  0
   12.1568   -7.7192    0.0000 O   0  0  0  0  0  0  0  0  0  0  0  0
    0.0107   -8.9567    0.0000 C   0  0  0  0  0  0  0  0  0  0  0  0
    0.7252   -8.5442    0.0000 C   0  0  0  0  0  0  0  0  0  0  0  0
    1.4397   -8.9567    0.0000 C   0  0  0  0  0  0  0  0  0  0  0  0
    2.1542   -8.5442    0.0000 C   0  0  0  0  0  0  0  0  0  0  0  0
    2.8686   -8.9567    0.0000 C   0  0  0  0  0  0  0  0  0  0  0  0
    3.5831   -8.5442    0.0000 C   0  0  0  0  0  0  0  0  0  0  0  0
    4.2976   -8.9567    0.0000 C   0  0  0  0  0  0  0  0  0  0  0  0
    5.0120   -8.5442    0.0000 C   0  0  0  0  0  0  0  0  0  0  0  0
    5.7265   -8.9567    0.0000 C   0  0  0  0  0  0  0  0  0  0  0  0
    6.4410   -8.5442    0.0000 C   0  0  0  0  0  0  0  0  0  0  0  0
    7.1555   -8.9567    0.0000 C   0  0  0  0  0  0  0  0  0  0  0  0
    7.8699   -8.5442    0.0000 C   0  0  0  0  0  0  0  0  0  0  0  0
    8.5844   -8.9567    0.0000 C   0  0  0  0  0  0  0  0  0  0  0  0
    9.2989   -8.5442    0.0000 C   0  0  0  0  0  0  0  0  0  0  0  0
   10.0133   -8.9567    0.0000 C   0  0  0  0  0  0  0  0  0  0  0  0
   10.7278   -8.5442    0.0000 C   0  0  0  0  0  0  0  0  0  0  0  0
   11.4423   -8.9567    0.0000 C   0  0  0  0  0  0  0  0  0  0  0  0
   12.1568   -8.5442    0.0000 C   0  0  0  0  0  0  0  0  0  0  0  0
 11 10  1  0  0  0  0
  9  1  2  0  0  0  0
  2  1  1  0  0  0  0
  4  2  2  0  0  0  0
  4  3  1  0  0  0  0
  7  4  1  0  0  0  0
  6  5  1  0  0  0  0
  7  6  1  0  0  0  0
  8  7  2  0  0  0  0
  9  8  1  0  0  0  0
 10  9  1  0  0  0  0
 30 11  1  0  0  0  0
 30 12  2  0  0  0  0
 14 13  1  0  0  0  0
 15 14  1  0  0  0  0
 16 15  2  0  0  0  0
 17 16  1  0  0  0  0
 18 17  1  0  0  0  0
 19 18  2  0  0  0  0
 20 19  1  0  0  0  0
 21 20  1  0  0  0  0
 22 21  2  0  0  0  0
 23 22  1  0  0  0  0
 24 23  1  0  0  0  0
 25 24  1  0  0  0  0
 26 25  1  0  0  0  0
 27 26  1  0  0  0  0
 28 27  1  0  0  0  0
 29 28  1  0  0  0  0
 30 29  1  0  0  0  0
M  END
>  <cdx:fragmentId>
5

$$$$
