90470.cdx
  Mrv1902 05222410242D          

 49 53  0  0  0  0            999 V2000
   10.9225   -3.6893    0.0000 O   0  0  0  0  0  0  0  0  0  0  0  0
    9.3855   -6.7982    0.0000 C   0  0  0  0  0  0  0  0  0  0  0  0
   10.0992   -7.2062    0.0000 C   0  0  0  0  0  0  0  0  0  0  0  0
   10.1028   -8.0283    0.0000 C   0  0  0  0  0  0  0  0  0  0  0  0
    9.3926   -8.4425    0.0000 C   0  0  0  0  0  0  0  0  0  0  0  0
    8.6788   -8.0345    0.0000 C   0  0  0  0  0  0  0  0  0  0  0  0
    8.6753   -7.2123    0.0000 C   0  0  0  0  0  0  0  0  0  0  0  0
   10.7396   -5.8088    0.0000 C   0  0  0  0  0  0  0  0  0  0  0  0
   11.2002   -5.1278    0.0000 O   0  0  0  0  0  0  0  0  0  0  0  0
   10.6949   -4.4793    0.0000 C   0  0  0  0  0  0  0  0  0  0  0  0
    9.9220   -4.7595    0.0000 C   0  0  2  0  0  0  0  0  0  0  0  0
    9.9496   -5.5812    0.0000 C   0  0  1  0  0  0  0  0  0  0  0  0
    9.3819   -5.9761    0.0000 C   0  0  0  0  0  0  0  0  0  0  0  0
    9.3961   -9.2646    0.0000 O   0  0  0  0  0  0  0  0  0  0  0  0
   10.8165   -8.4363    0.0000 O   0  0  0  0  0  0  0  0  0  0  0  0
   11.5400   -8.0398    0.0000 C   0  0  0  0  0  0  0  0  0  0  0  0
    9.9220   -3.9585    0.0000 O   0  0  0  0  0  0  0  0  0  0  0  0
    9.2128   -4.3529    0.0000 C   0  0  0  0  0  0  0  0  0  0  0  0
    8.4999   -4.7624    0.0000 C   0  0  0  0  0  0  0  0  0  0  0  0
    8.4980   -5.5845    0.0000 C   0  0  0  0  0  0  0  0  0  0  0  0
    7.7850   -5.9939    0.0000 C   0  0  0  0  0  0  0  0  0  0  0  0
    7.0740   -5.5812    0.0000 C   0  0  0  0  0  0  0  0  0  0  0  0
    7.0759   -4.7591    0.0000 C   0  0  0  0  0  0  0  0  0  0  0  0
    7.7888   -4.3497    0.0000 C   0  0  0  0  0  0  0  0  0  0  0  0
    6.3611   -5.9907    0.0000 O   0  0  0  0  0  0  0  0  0  0  0  0
    6.3649   -4.3464    0.0000 O   0  0  0  0  0  0  0  0  0  0  0  0
    5.6519   -4.7558    0.0000 C   0  0  0  0  0  0  0  0  0  0  0  0
    7.8017   -6.8121    0.0000 O   0  0  0  0  0  0  0  0  0  0  0  0
    4.9176   -9.2361    0.0000 O   0  0  0  0  0  0  0  0  0  0  0  0
    6.3414   -9.2572    0.0000 O   0  0  0  0  0  0  0  0  0  0  0  0
    7.7774   -8.4561    0.0000 O   0  0  0  0  0  0  0  0  0  0  0  0
    4.9297   -8.4141    0.0000 C   0  0  0  0  0  0  0  0  0  0  0  0
    7.0837   -7.2126    0.0000 C   0  0  2  0  0  0  0  0  0  0  0  0
    7.0715   -8.0346    0.0000 C   0  0  2  0  0  0  0  0  0  0  0  0
    6.3536   -8.4351    0.0000 C   0  0  1  0  0  0  0  0  0  0  0  0
    5.6477   -8.0136    0.0000 C   0  0  2  0  0  0  0  0  0  0  0  0
    5.6598   -7.1915    0.0000 O   0  0  0  0  0  0  0  0  0  0  0  0
    6.3778   -6.7910    0.0000 C   0  0  1  0  0  0  0  0  0  0  0  0
    4.9163  -10.9038    0.0000 O   0  0  0  0  0  0  0  0  0  0  0  0
    1.3606   -9.6586    0.0000 O   0  0  0  0  0  0  0  0  0  0  0  0
    2.0684  -10.8942    0.0000 O   0  0  0  0  0  0  0  0  0  0  0  0
    3.4896  -11.7211    0.0000 O   0  0  0  0  0  0  0  0  0  0  0  0
    2.0739   -9.2499    0.0000 C   0  0  0  0  0  0  0  0  0  0  0  0
    4.2057  -10.4903    0.0000 C   0  0  2  0  0  0  0  0  0  0  0  0
    3.4924  -10.8990    0.0000 C   0  0  2  0  0  0  0  0  0  0  0  0
    2.7818  -10.4855    0.0000 C   0  0  1  0  0  0  0  0  0  0  0  0
    2.7845   -9.6634    0.0000 C   0  0  2  0  0  0  0  0  0  0  0  0
    3.4979   -9.2547    0.0000 O   0  0  0  0  0  0  0  0  0  0  0  0
    4.2085   -9.6682    0.0000 C   0  0  1  0  0  0  0  0  0  0  0  0
 11 18  1  1  0  0  0
 11 17  1  6  0  0  0
 12 13  1  6  0  0  0
 10  1  2  0  0  0  0
  8 12  1  0  0  0  0
  9  8  1  0  0  0  0
 10  9  1  0  0  0  0
 11 10  1  0  0  0  0
 12 11  1  0  0  0  0
  2 13  1  0  0  0  0
  2  3  2  0  0  0  0
  3  4  1  0  0  0  0
  4  5  2  0  0  0  0
  5  6  1  0  0  0  0
  6  7  2  0  0  0  0
  7  2  1  0  0  0  0
  5 14  1  0  0  0  0
  4 15  1  0  0  0  0
 15 16  1  0  0  0  0
 18 19  1  0  0  0  0
 19 20  2  0  0  0  0
 20 21  1  0  0  0  0
 21 22  2  0  0  0  0
 22 23  1  0  0  0  0
 23 24  2  0  0  0  0
 24 19  1  0  0  0  0
 22 25  1  0  0  0  0
 23 26  1  0  0  0  0
 26 27  1  0  0  0  0
 33 28  1  6  0  0  0
 32 29  1  0  0  0  0
 35 30  1  6  0  0  0
 34 31  1  1  0  0  0
 36 32  1  1  0  0  0
 33 38  1  0  0  0  0
 34 33  1  0  0  0  0
 35 34  1  0  0  0  0
 36 35  1  0  0  0  0
 37 36  1  0  0  0  0
 38 37  1  0  0  0  0
 38 25  1  1  0  0  0
 44 39  1  6  0  0  0
 43 40  1  0  0  0  0
 46 41  1  6  0  0  0
 45 42  1  1  0  0  0
 47 43  1  1  0  0  0
 44 49  1  0  0  0  0
 45 44  1  0  0  0  0
 46 45  1  0  0  0  0
 47 46  1  0  0  0  0
 48 47  1  0  0  0  0
 49 48  1  0  0  0  0
 49 29  1  1  0  0  0
M  END
>  <cdx:fragmentId>
11210

$$$$
