90487.cdx
  Mrv1902 05222410212D          

 45 48  0  0  0  0            999 V2000
    1.4831   -7.7951    0.0000 C   0  0  0  0  0  0  0  0  0  0  0  0
    1.4831   -8.6201    0.0000 C   0  0  0  0  0  0  0  0  0  0  0  0
    2.1975   -9.0326    0.0000 C   0  0  0  0  0  0  0  0  0  0  0  0
    2.9120   -8.6201    0.0000 C   0  0  0  0  0  0  0  0  0  0  0  0
    2.9120   -7.7951    0.0000 C   0  0  0  0  0  0  0  0  0  0  0  0
    2.1975   -7.3826    0.0000 C   0  0  0  0  0  0  0  0  0  0  0  0
    4.3409   -7.7951    0.0000 C   0  0  0  0  0  0  0  0  0  0  0  0
    3.6265   -7.3826    0.0000 C   0  0  0  0  0  0  0  0  0  0  0  0
    5.7699   -7.7951    0.0000 O   0  0  0  0  0  0  0  0  0  0  0  0
    5.0554   -7.3826    0.0000 C   0  0  0  0  0  0  0  0  0  0  0  0
    6.4844   -9.0326    0.0000 O   0  0  0  0  0  0  0  0  0  0  0  0
    7.1988   -8.6201    0.0000 C   0  0  2  0  0  0  0  0  0  0  0  0
    7.1988   -7.7951    0.0000 C   0  0  1  0  0  0  0  0  0  0  0  0
    6.4844   -7.3826    0.0000 C   0  0  0  0  0  0  0  0  0  0  0  0
    7.9133   -9.0326    0.0000 C   0  0  1  0  0  0  0  0  0  0  0  0
    8.6278   -8.6201    0.0000 C   0  0  2  0  0  0  0  0  0  0  0  0
    8.6278   -7.7951    0.0000 C   0  0  1  0  0  0  0  0  0  0  0  0
    7.9133   -7.3826    0.0000 O   0  0  0  0  0  0  0  0  0  0  0  0
    9.3422   -9.0326    0.0000 O   0  0  0  0  0  0  0  0  0  0  0  0
   10.0567   -7.7951    0.0000 C   0  0  0  0  0  0  0  0  0  0  0  0
    9.3422   -7.3826    0.0000 O   0  0  0  0  0  0  0  0  0  0  0  0
   11.4856   -8.6201    0.0000 C   0  0  0  0  0  0  0  0  0  0  0  0
   11.4856   -7.7951    0.0000 C   0  0  0  0  0  0  0  0  0  0  0  0
   10.7712   -7.3826    0.0000 C   0  0  0  0  0  0  0  0  0  0  0  0
   12.2001   -9.0326    0.0000 C   0  0  0  0  0  0  0  0  0  0  0  0
   12.9146   -8.6201    0.0000 C   0  0  0  0  0  0  0  0  0  0  0  0
   12.9146   -7.7951    0.0000 C   0  0  0  0  0  0  0  0  0  0  0  0
   12.2001   -7.3826    0.0000 C   0  0  0  0  0  0  0  0  0  0  0  0
    0.7686   -7.3826    0.0000 O   0  0  0  0  0  0  0  0  0  0  0  0
    0.7686   -9.0326    0.0000 O   0  0  0  0  0  0  0  0  0  0  0  0
    5.0554   -6.5576    0.0000 O   0  0  0  0  0  0  0  0  0  0  0  0
   13.6291   -7.3826    0.0000 O   0  0  0  0  0  0  0  0  0  0  0  0
   13.6291   -9.0326    0.0000 O   0  0  0  0  0  0  0  0  0  0  0  0
    7.9133   -9.8576    0.0000 O   0  0  0  0  0  0  0  0  0  0  0  0
    7.1988  -10.2701    0.0000 C   0  0  2  0  0  0  0  0  0  0  0  0
    6.4844   -9.8576    0.0000 O   0  0  0  0  0  0  0  0  0  0  0  0
    5.7699  -10.2701    0.0000 C   0  0  1  0  0  0  0  0  0  0  0  0
    5.7699  -11.0951    0.0000 C   0  0  2  0  0  0  0  0  0  0  0  0
    6.4844  -11.5076    0.0000 C   0  0  1  0  0  0  0  0  0  0  0  0
    7.1988  -11.0951    0.0000 C   0  0  1  0  0  0  0  0  0  0  0  0
    5.0554   -9.8576    0.0000 C   0  0  0  0  0  0  0  0  0  0  0  0
    4.3409  -10.2701    0.0000 O   0  0  0  0  0  0  0  0  0  0  0  0
    6.4844  -12.3326    0.0000 O   0  0  0  0  0  0  0  0  0  0  0  0
    5.0554  -11.5076    0.0000 O   0  0  0  0  0  0  0  0  0  0  0  0
    7.9133  -11.5076    0.0000 O   0  0  0  0  0  0  0  0  0  0  0  0
  1  2  1  0  0  0  0
  2  3  2  0  0  0  0
  3  4  1  0  0  0  0
  4  5  2  0  0  0  0
  5  6  1  0  0  0  0
  6  1  2  0  0  0  0
  7  8  2  0  0  0  0
  8  5  1  0  0  0  0
  9 10  1  0  0  0  0
 10  7  1  0  0  0  0
 12 11  1  6  0  0  0
 12 13  1  0  0  0  0
 13 14  1  1  0  0  0
 14  9  1  0  0  0  0
 12 15  1  0  0  0  0
 15 16  1  0  0  0  0
 16 17  1  0  0  0  0
 17 18  1  0  0  0  0
 18 13  1  0  0  0  0
 16 19  1  6  0  0  0
 20 21  1  0  0  0  0
 17 21  1  1  0  0  0
 22 23  2  0  0  0  0
 23 24  1  0  0  0  0
 24 20  1  0  0  0  0
 22 25  1  0  0  0  0
 25 26  2  0  0  0  0
 26 27  1  0  0  0  0
 27 28  2  0  0  0  0
 28 23  1  0  0  0  0
  1 29  1  0  0  0  0
  2 30  1  0  0  0  0
 10 31  2  0  0  0  0
 27 32  1  0  0  0  0
 26 33  1  0  0  0  0
 15 34  1  1  0  0  0
 35 34  1  1  0  0  0
 35 36  1  0  0  0  0
 36 37  1  0  0  0  0
 37 38  1  0  0  0  0
 38 39  1  0  0  0  0
 39 40  1  0  0  0  0
 40 35  1  0  0  0  0
 37 41  1  1  0  0  0
 41 42  1  0  0  0  0
 39 43  1  1  0  0  0
 38 44  1  6  0  0  0
 40 45  1  6  0  0  0
M  END
>  <cdx:fragmentId>
5

$$$$
