90486.cdx
  Mrv1902 05222410212D          

 16 17  0  0  0  0            999 V2000
    6.9746   -8.0025    0.0000 C   0  0  0  0  0  0  0  0  0  0  0  0
    7.6891   -8.4150    0.0000 C   0  0  0  0  0  0  0  0  0  0  0  0
    4.8312   -8.4150    0.0000 C   0  0  0  0  0  0  0  0  0  0  0  0
    4.1167   -7.1775    0.0000 O   0  0  0  0  0  0  0  0  0  0  0  0
    4.8312   -7.5900    0.0000 C   0  0  0  0  0  0  0  0  0  0  0  0
    9.1180   -5.9400    0.0000 O   0  0  0  0  0  0  0  0  0  0  0  0
    6.2601   -5.9400    0.0000 C   0  0  0  0  0  0  0  0  0  0  0  0
    5.5456   -6.3525    0.0000 C   0  0  0  0  0  0  0  0  0  0  0  0
    5.5456   -7.1775    0.0000 C   0  0  2  0  0  0  0  0  0  0  0  0
    6.2601   -7.5900    0.0000 C   0  0  0  0  0  0  0  0  0  0  0  0
    7.6891   -5.9400    0.0000 C   0  0  0  0  0  0  0  0  0  0  0  0
    6.9746   -6.3525    0.0000 C   0  0  0  0  0  0  0  0  0  0  0  0
    6.9746   -7.1775    0.0000 C   0  0  1  0  0  0  0  0  0  0  0  0
    7.6891   -7.5900    0.0000 C   0  0  1  0  0  0  0  0  0  0  0  0
    8.4035   -7.1775    0.0000 C   0  0  0  0  0  0  0  0  0  0  0  0
    8.4035   -6.3525    0.0000 C   0  0  0  0  0  0  0  0  0  0  0  0
 13  1  1  1  0  0  0
 14  2  1  1  0  0  0
  5  3  1  0  0  0  0
  5  4  2  0  0  0  0
  9  5  1  6  0  0  0
 16  6  2  0  0  0  0
  7 12  1  0  0  0  0
  8  7  1  0  0  0  0
  9  8  1  0  0  0  0
 10  9  1  0  0  0  0
 13 10  1  0  0  0  0
 11 16  1  0  0  0  0
 12 11  2  0  0  0  0
 13 12  1  0  0  0  0
 14 13  1  0  0  0  0
 15 14  1  0  0  0  0
 16 15  1  0  0  0  0
M  END
>  <cdx:fragmentId>
5

$$$$
