90484.cdx
  Mrv1902 05222410202D          

 20 21  0  0  0  0            999 V2000
    4.5768   -9.4176    0.0000 O   0  0  0  0  0  0  0  0  0  0  0  0
    4.5768  -10.2426    0.0000 C   0  0  0  0  0  0  0  0  0  0  0  0
    5.2913  -10.6551    0.0000 C   0  0  1  0  0  0  0  0  0  0  0  0
    6.0057  -10.2426    0.0000 O   0  0  0  0  0  0  0  0  0  0  0  0
    6.7202  -10.6551    0.0000 C   0  0  1  0  0  0  0  0  0  0  0  0
    7.4347  -10.2426    0.0000 O   0  0  0  0  0  0  0  0  0  0  0  0
    7.4347   -9.4176    0.0000 C   0  0  0  0  0  0  0  0  0  0  0  0
    6.7202   -9.0051    0.0000 C   0  0  0  0  0  0  0  0  0  0  0  0
    5.2913  -11.4801    0.0000 C   0  0  2  0  0  0  0  0  0  0  0  0
    6.0057  -11.8926    0.0000 C   0  0  1  0  0  0  0  0  0  0  0  0
    6.7202  -11.4801    0.0000 C   0  0  1  0  0  0  0  0  0  0  0  0
    8.1492   -9.0051    0.0000 C   0  0  0  0  0  0  0  0  0  0  0  0
    8.1492   -8.1801    0.0000 C   0  0  0  0  0  0  0  0  0  0  0  0
    7.4347   -7.7676    0.0000 C   0  0  0  0  0  0  0  0  0  0  0  0
    6.7202   -8.1801    0.0000 C   0  0  0  0  0  0  0  0  0  0  0  0
    6.0057   -7.7676    0.0000 C   0  0  0  0  0  0  0  0  0  0  0  0
    8.8636   -7.7676    0.0000 O   0  0  0  0  0  0  0  0  0  0  0  0
    6.0057  -12.7176    0.0000 O   0  0  0  0  0  0  0  0  0  0  0  0
    4.5768  -11.8926    0.0000 O   0  0  0  0  0  0  0  0  0  0  0  0
    7.4347  -11.8926    0.0000 O   0  0  0  0  0  0  0  0  0  0  0  0
  1  2  1  0  0  0  0
  3  2  1  1  0  0  0
  3  4  1  0  0  0  0
  4  5  1  0  0  0  0
  5  6  1  1  0  0  0
  6  7  1  0  0  0  0
  7  8  2  0  0  0  0
  3  9  1  0  0  0  0
  9 10  1  0  0  0  0
 10 11  1  0  0  0  0
 11  5  1  0  0  0  0
  7 12  1  0  0  0  0
 12 13  2  0  0  0  0
 13 14  1  0  0  0  0
 14 15  2  0  0  0  0
 15  8  1  0  0  0  0
 15 16  1  0  0  0  0
 13 17  1  0  0  0  0
 10 18  1  1  0  0  0
  9 19  1  6  0  0  0
 11 20  1  6  0  0  0
M  END
>  <cdx:fragmentId>
5

$$$$
