90483.cdx
  Mrv1902 05222410222D          

 29 31  0  0  0  0            999 V2000
    6.5706   -8.8126    0.0000 C   0  0  2  0  0  0  0  0  0  0  0  0
    6.5706   -9.6376    0.0000 C   0  0  2  0  0  0  0  0  0  0  0  0
    7.2850  -10.0501    0.0000 C   0  0  1  0  0  0  0  0  0  0  0  0
    7.9995   -9.6376    0.0000 C   0  0  2  0  0  0  0  0  0  0  0  0
    7.9995   -8.8126    0.0000 C   0  0  1  0  0  0  0  0  0  0  0  0
    7.2850   -8.4001    0.0000 O   0  0  0  0  0  0  0  0  0  0  0  0
    5.8561   -8.4001    0.0000 C   0  0  0  0  0  0  0  0  0  0  0  0
    5.1416   -8.8126    0.0000 O   0  0  0  0  0  0  0  0  0  0  0  0
    5.8561  -10.0501    0.0000 O   0  0  0  0  0  0  0  0  0  0  0  0
    7.2863   -5.9244    0.0000 C   0  0  0  0  0  0  0  0  0  0  0  0
   10.1442   -5.9259    0.0000 O   0  0  0  0  0  0  0  0  0  0  0  0
    9.4291   -7.1630    0.0000 C   0  0  0  0  0  0  0  0  0  0  0  0
    9.4295   -6.3380    0.0000 C   0  0  0  0  0  0  0  0  0  0  0  0
    8.7152   -5.9252    0.0000 C   0  0  0  0  0  0  0  0  0  0  0  0
    8.0005   -6.3373    0.0000 C   0  0  0  0  0  0  0  0  0  0  0  0
    8.0001   -7.1623    0.0000 C   0  0  0  0  0  0  0  0  0  0  0  0
    8.7144   -7.5751    0.0000 C   0  0  0  0  0  0  0  0  0  0  0  0
    8.7140   -8.4001    0.0000 O   0  0  0  0  0  0  0  0  0  0  0  0
    4.4271   -8.4001    0.0000 C   0  0  2  0  0  0  0  0  0  0  0  0
    4.3409   -7.5797    0.0000 O   0  0  0  0  0  0  0  0  0  0  0  0
    3.5339   -7.4081    0.0000 C   0  0  0  0  0  0  0  0  0  0  0  0
    3.1214   -8.1226    0.0000 C   0  0  1  0  0  0  0  0  0  0  0  0
    3.6735   -8.7357    0.0000 C   0  0  1  0  0  0  0  0  0  0  0  0
    2.7089   -7.4081    0.0000 C   0  0  0  0  0  0  0  0  0  0  0  0
    1.8839   -7.4081    0.0000 O   0  0  0  0  0  0  0  0  0  0  0  0
    2.5381   -8.7060    0.0000 O   0  0  0  0  0  0  0  0  0  0  0  0
    3.5019   -9.5427    0.0000 O   0  0  0  0  0  0  0  0  0  0  0  0
    8.7140  -10.0501    0.0000 O   0  0  0  0  0  0  0  0  0  0  0  0
    7.2850  -10.8751    0.0000 O   0  0  0  0  0  0  0  0  0  0  0  0
  1  2  1  0  0  0  0
  2  3  1  0  0  0  0
  3  4  1  0  0  0  0
  4  5  1  0  0  0  0
  5  6  1  0  0  0  0
  6  1  1  0  0  0  0
  1  7  1  1  0  0  0
  7  8  1  0  0  0  0
  2  9  1  6  0  0  0
 15 10  1  0  0  0  0
  5 18  1  1  0  0  0
 13 11  1  0  0  0  0
 12 17  1  0  0  0  0
 13 12  2  0  0  0  0
 14 13  1  0  0  0  0
 15 14  2  0  0  0  0
 16 15  1  0  0  0  0
 17 16  2  0  0  0  0
 18 17  1  0  0  0  0
 19  8  1  1  0  0  0
 19 20  1  0  0  0  0
 20 21  1  0  0  0  0
 21 22  1  0  0  0  0
 22 23  1  0  0  0  0
 23 19  1  0  0  0  0
 22 24  1  1  0  0  0
 24 25  1  0  0  0  0
 22 26  1  6  0  0  0
 23 27  1  6  0  0  0
  4 28  1  6  0  0  0
  3 29  1  1  0  0  0
M  END
>  <cdx:fragmentId>
5

$$$$
