90488.cdx
  Mrv1902 05222410252D          

 45 49  0  0  0  0            999 V2000
    3.1620   -9.1179    0.0000 C   0  0  0  0  0  0  0  0  0  0  0  0
    3.8849   -9.5155    0.0000 C   0  0  0  0  0  0  0  0  0  0  0  0
    4.5906   -9.0883    0.0000 C   0  0  0  0  0  0  0  0  0  0  0  0
    4.5735   -8.2635    0.0000 C   0  0  0  0  0  0  0  0  0  0  0  0
    3.8507   -7.8659    0.0000 C   0  0  0  0  0  0  0  0  0  0  0  0
    3.1449   -8.2931    0.0000 C   0  0  0  0  0  0  0  0  0  0  0  0
    5.3135   -9.4859    0.0000 C   0  0  0  0  0  0  0  0  0  0  0  0
    6.0193   -9.0587    0.0000 C   0  0  0  0  0  0  0  0  0  0  0  0
    6.0022   -8.2339    0.0000 C   0  0  0  0  0  0  0  0  0  0  0  0
    5.2793   -7.8363    0.0000 O   0  0  0  0  0  0  0  0  0  0  0  0
    3.9020  -10.3403    0.0000 O   0  0  0  0  0  0  0  0  0  0  0  0
    5.3306  -10.3107    0.0000 O   0  0  0  0  0  0  0  0  0  0  0  0
    6.0535  -10.7083    0.0000 O   0  0  0  0  0  0  0  0  0  0  0  0
    6.7592  -10.2811    0.0000 C   0  0  1  0  0  0  0  0  0  0  0  0
    6.7421   -9.4563    0.0000 O   0  0  0  0  0  0  0  0  0  0  0  0
    7.4308   -8.2043    0.0000 C   0  0  0  0  0  0  0  0  0  0  0  0
    6.7079   -7.8066    0.0000 C   0  0  0  0  0  0  0  0  0  0  0  0
    8.1366   -7.7770    0.0000 C   0  0  0  0  0  0  0  0  0  0  0  0
    8.1195   -6.9522    0.0000 C   0  0  0  0  0  0  0  0  0  0  0  0
    7.3966   -6.5546    0.0000 C   0  0  0  0  0  0  0  0  0  0  0  0
    6.6908   -6.9818    0.0000 C   0  0  0  0  0  0  0  0  0  0  0  0
    7.3795   -5.7298    0.0000 O   0  0  0  0  0  0  0  0  0  0  0  0
    6.0706  -11.5332    0.0000 C   0  0  1  0  0  0  0  0  0  0  0  0
    6.7934  -11.9308    0.0000 C   0  0  2  0  0  0  0  0  0  0  0  0
    7.4992  -11.5035    0.0000 C   0  0  1  0  0  0  0  0  0  0  0  0
    7.4821  -10.6787    0.0000 C   0  0  1  0  0  0  0  0  0  0  0  0
    5.3648  -11.9604    0.0000 C   0  0  0  0  0  0  0  0  0  0  0  0
    5.3819  -12.7852    0.0000 O   0  0  0  0  0  0  0  0  0  0  0  0
    6.8105  -12.7556    0.0000 O   0  0  0  0  0  0  0  0  0  0  0  0
   11.7040   -8.1383    0.0000 O   0  0  0  0  0  0  0  0  0  0  0  0
   11.6829   -6.4884    0.0000 O   0  0  0  0  0  0  0  0  0  0  0  0
   11.0002   -9.3940    0.0000 O   0  0  0  0  0  0  0  0  0  0  0  0
   10.2857   -8.9815    0.0000 C   0  0  0  0  0  0  0  0  0  0  0  0
    9.5555   -7.7532    0.0000 O   0  0  0  0  0  0  0  0  0  0  0  0
   10.2752   -8.1566    0.0000 C   0  0  1  0  0  0  0  0  0  0  0  0
   10.9843   -7.7350    0.0000 C   0  0  2  0  0  0  0  0  0  0  0  0
   10.9738   -6.9100    0.0000 C   0  0  1  0  0  0  0  0  0  0  0  0
    2.4220   -7.8955    0.0000 O   0  0  0  0  0  0  0  0  0  0  0  0
    6.6566   -5.3322    0.0000 C   0  0  0  0  0  0  0  0  0  0  0  0
    9.5449   -6.9283    0.0000 C   0  0  2  0  0  0  0  0  0  0  0  0
   10.2541   -6.5067    0.0000 C   0  0  2  0  0  0  0  0  0  0  0  0
    8.2221  -11.9011    0.0000 O   0  0  0  0  0  0  0  0  0  0  0  0
    8.1879  -10.2515    0.0000 O   0  0  0  0  0  0  0  0  0  0  0  0
   10.2435   -5.6818    0.0000 O   0  0  0  0  0  0  0  0  0  0  0  0
    8.8252   -6.5250    0.0000 O   0  0  0  0  0  0  0  0  0  0  0  0
  1  2  1  0  0  0  0
  2  3  2  0  0  0  0
  3  4  1  0  0  0  0
  4  5  2  0  0  0  0
  5  6  1  0  0  0  0
  6  1  2  0  0  0  0
  3  7  1  0  0  0  0
  7  8  1  0  0  0  0
  8  9  2  0  0  0  0
  9 10  1  0  0  0  0
 10  4  1  0  0  0  0
  2 11  1  0  0  0  0
 12  7  2  0  0  0  0
 13 14  1  0  0  0  0
 14 15  1  1  0  0  0
 15  8  1  0  0  0  0
 16 17  1  0  0  0  0
 17  9  1  0  0  0  0
 16 18  2  0  0  0  0
 18 19  1  0  0  0  0
 19 20  2  0  0  0  0
 20 21  1  0  0  0  0
 21 17  2  0  0  0  0
 36 30  1  6  0  0  0
 19 45  1  0  0  0  0
 22 20  1  0  0  0  0
 13 23  1  0  0  0  0
 23 24  1  0  0  0  0
 24 25  1  0  0  0  0
 25 26  1  0  0  0  0
 26 14  1  0  0  0  0
 23 27  1  1  0  0  0
 27 28  1  0  0  0  0
 24 29  1  6  0  0  0
 37 31  1  1  0  0  0
 33 32  1  0  0  0  0
 35 33  1  1  0  0  0
 34 40  1  0  0  0  0
 35 34  1  0  0  0  0
 36 35  1  0  0  0  0
 37 36  1  0  0  0  0
 41 37  1  0  0  0  0
 40 45  1  1  0  0  0
 41 40  1  0  0  0  0
 41 44  1  6  0  0  0
  6 38  1  0  0  0  0
 22 39  1  0  0  0  0
 25 42  1  1  0  0  0
 26 43  1  6  0  0  0
M  END
>  <cdx:fragmentId>
5

$$$$
