102090489.cdx
  Mrv1902 05222410252D          

 32 36  0  0  0  0            999 V2000
    9.4624   -7.5736    0.0000 C   0  0  0  0  0  0  0  0  0  0  0  0
    8.7480   -7.1611    0.0000 C   0  0  0  0  0  0  0  0  0  0  0  0
   10.1769   -7.1611    0.0000 O   0  0  0  0  0  0  0  0  0  0  0  0
    9.4624   -8.3986    0.0000 O   0  0  0  0  0  0  0  0  0  0  0  0
   10.1769   -9.6361    0.0000 C   0  0  0  0  0  0  0  0  0  0  0  0
    9.4624  -10.0486    0.0000 C   0  0  2  0  0  0  0  0  0  0  0  0
    8.8174   -9.5342    0.0000 C   0  0  0  0  0  0  0  0  0  0  0  0
    8.0131   -9.7178    0.0000 C   0  0  0  0  0  0  0  0  0  0  0  0
    7.6552  -10.4611    0.0000 C   0  0  1  0  0  0  0  0  0  0  0  0
    8.0131  -11.2044    0.0000 C   0  0  0  0  0  0  0  0  0  0  0  0
    8.8174  -11.3880    0.0000 C   0  0  0  0  0  0  0  0  0  0  0  0
    9.4624  -10.8736    0.0000 C   0  0  0  0  0  0  0  0  0  0  0  0
   10.1769  -11.2861    0.0000 C   0  0  1  0  0  0  0  0  0  0  0  0
   10.8914  -10.8736    0.0000 C   0  0  1  0  0  0  0  0  0  0  0  0
   10.8914  -10.0486    0.0000 C   0  0  2  0  0  0  0  0  0  0  0  0
   11.6058   -9.6361    0.0000 C   0  0  0  0  0  0  0  0  0  0  0  0
   11.6058   -8.8111    0.0000 C   0  0  0  0  0  0  0  0  0  0  0  0
   10.8914   -8.3986    0.0000 C   0  0  0  0  0  0  0  0  0  0  0  0
   10.1769   -8.8111    0.0000 C   0  0  2  0  0  0  0  0  0  0  0  0
   10.5182  -10.1512    0.0000 C   0  0  0  0  0  0  0  0  0  0  0  0
   10.5182  -10.7699    0.0000 O   0  0  0  0  0  0  0  0  0  0  0  0
    8.4389  -11.1883    0.0000 C   0  0  2  0  0  0  0  0  0  0  0  0
    7.4987  -11.8494    0.0000 C   0  0  0  0  0  0  0  0  0  0  0  0
   12.4308   -9.6361    0.0000 C   0  0  0  0  0  0  0  0  0  0  0  0
   12.0183  -10.3506    0.0000 C   0  0  0  0  0  0  0  0  0  0  0  0
    8.2550  -11.9926    0.0000 O   0  0  0  0  0  0  0  0  0  0  0  0
   11.6058  -11.2861    0.0000 O   0  0  0  0  0  0  0  0  0  0  0  0
   10.1769  -12.1111    0.0000 O   0  0  0  0  0  0  0  0  0  0  0  0
    9.0010  -12.1923    0.0000 O   0  0  0  0  0  0  0  0  0  0  0  0
    9.4624   -9.2236    0.0000 H   0  0  0  0  0  0  0  0  0  0  0  0
    6.8302  -10.4611    0.0000 H   0  0  0  0  0  0  0  0  0  0  0  0
   11.6058  -10.4611    0.0000 H   0  0  0  0  0  0  0  0  0  0  0  0
  1  2  1  0  0  0  0
  1  3  2  0  0  0  0
  1  4  1  0  0  0  0
  5  6  1  0  0  0  0
  6  7  1  0  0  0  0
  7  8  1  0  0  0  0
  8  9  1  0  0  0  0
  9 10  1  6  0  0  0
 10 11  1  0  0  0  0
 11 12  1  0  0  0  0
 12 13  1  0  0  0  0
 13 14  1  0  0  0  0
 14 15  1  0  0  0  0
 15 16  1  0  0  0  0
 16 17  1  0  0  0  0
 17 18  1  0  0  0  0
 18 19  1  0  0  0  0
 20 21  1  0  0  0  0
  5 19  1  0  0  0  0
  5 20  1  0  0  0  0
 13 21  1  1  0  0  0
  5 15  1  0  0  0  0
 12 22  1  0  0  0  0
 22  9  1  0  0  0  0
  6 12  1  0  0  0  0
 10 23  2  0  0  0  0
 16 24  1  0  0  0  0
 16 25  1  0  0  0  0
 22 26  1  6  0  0  0
 14 27  1  1  0  0  0
 13 28  1  0  0  0  0
 11 29  1  0  0  0  0
 19  4  1  1  0  0  0
  6 30  1  6  0  0  0
  9 31  1  0  0  0  0
 15 32  1  6  0  0  0
M  END
>  <cdx:groupId>
11657

>  <cdx:fragmentId>
11568

$$$$
