90485.cdx
  Mrv1902 05222410212D          

 17 18  0  0  0  0            999 V2000
    5.4912   -7.0125    0.0000 C   0  0  0  0  0  0  0  0  0  0  0  0
    5.4912   -7.8375    0.0000 C   0  0  0  0  0  0  0  0  0  0  0  0
    6.2056   -8.2500    0.0000 C   0  0  0  0  0  0  0  0  0  0  0  0
    6.9201   -7.8375    0.0000 C   0  0  0  0  0  0  0  0  0  0  0  0
    6.9201   -7.0125    0.0000 C   0  0  0  0  0  0  0  0  0  0  0  0
    6.2056   -6.6000    0.0000 C   0  0  0  0  0  0  0  0  0  0  0  0
    7.6346   -8.2500    0.0000 C   0  0  0  0  0  0  0  0  0  0  0  0
    8.3491   -7.8375    0.0000 C   0  0  0  0  0  0  0  0  0  0  0  0
    8.3491   -7.0125    0.0000 C   0  0  0  0  0  0  0  0  0  0  0  0
    7.6346   -6.6000    0.0000 C   0  0  0  0  0  0  0  0  0  0  0  0
    7.6346   -5.7750    0.0000 O   0  0  0  0  0  0  0  0  0  0  0  0
    7.6346   -9.0750    0.0000 C   0  0  0  0  0  0  0  0  0  0  0  0
    6.9201   -9.4875    0.0000 C   0  0  0  0  0  0  0  0  0  0  0  0
    8.3491   -9.4875    0.0000 C   0  0  0  0  0  0  0  0  0  0  0  0
    6.2056   -9.0750    0.0000 O   0  0  0  0  0  0  0  0  0  0  0  0
    4.6662   -7.8375    0.0000 C   0  0  0  0  0  0  0  0  0  0  0  0
    5.2777   -8.6344    0.0000 O   0  0  0  0  0  0  0  0  0  0  0  0
  1  2  1  0  0  0  0
  2  3  1  0  0  0  0
  3  4  1  0  0  0  0
  4  5  2  0  0  0  0
  5  6  1  0  0  0  0
  6  1  1  0  0  0  0
  4  7  1  0  0  0  0
  7  8  1  0  0  0  0
  8  9  1  0  0  0  0
  9 10  1  0  0  0  0
 10  5  1  0  0  0  0
 10 11  2  0  0  0  0
  7 12  1  0  0  0  0
 12 13  1  0  0  0  0
 12 14  1  0  0  0  0
  3 15  2  0  0  0  0
  2 16  1  0  0  0  0
  2 17  1  0  0  0  0
M  END
>  <cdx:fragmentId>
5

$$$$
