90498.cdx
  Mrv1902 05222410232D          

 33 36  0  0  0  0            999 V2000
    4.2177  -12.8001    0.0000 O   0  0  0  0  0  0  0  0  0  0  0  0
   11.3624   -7.8501    0.0000 O   0  0  0  0  0  0  0  0  0  0  0  0
    9.9335   -7.0251    0.0000 O   0  0  0  0  0  0  0  0  0  0  0  0
    9.9335   -9.5001    0.0000 C   0  0  0  0  0  0  0  0  0  0  0  0
   10.6480   -9.0876    0.0000 C   0  0  0  0  0  0  0  0  0  0  0  0
   10.6480   -8.2626    0.0000 C   0  0  0  0  0  0  0  0  0  0  0  0
    9.9335   -7.8501    0.0000 C   0  0  0  0  0  0  0  0  0  0  0  0
    9.2190   -9.0876    0.0000 C   0  0  0  0  0  0  0  0  0  0  0  0
    9.2190   -8.2626    0.0000 C   0  0  0  0  0  0  0  0  0  0  0  0
    8.5045  -10.3251    0.0000 C   0  0  0  0  0  0  0  0  0  0  0  0
    8.5045   -9.5001    0.0000 C   0  0  0  0  0  0  0  0  0  0  0  0
    7.7901   -9.0876    0.0000 O   0  0  0  0  0  0  0  0  0  0  0  0
    7.0756   -9.5001    0.0000 C   0  0  0  0  0  0  0  0  0  0  0  0
    6.3611   -9.0876    0.0000 C   0  0  0  0  0  0  0  0  0  0  0  0
    5.6467   -9.5001    0.0000 C   0  0  0  0  0  0  0  0  0  0  0  0
    4.9322   -9.0876    0.0000 O   0  0  0  0  0  0  0  0  0  0  0  0
    7.7901  -11.5626    0.0000 O   0  0  0  0  0  0  0  0  0  0  0  0
    7.7901  -10.7376    0.0000 C   0  0  0  0  0  0  0  0  0  0  0  0
    7.0756  -10.3251    0.0000 C   0  0  0  0  0  0  0  0  0  0  0  0
    5.6467  -11.9751    0.0000 O   0  0  0  0  0  0  0  0  0  0  0  0
    6.3611  -11.5626    0.0000 O   0  0  0  0  0  0  0  0  0  0  0  0
    6.3611  -10.7376    0.0000 C   0  0  0  0  0  0  0  0  0  0  0  0
    5.6467  -10.3251    0.0000 C   0  0  0  0  0  0  0  0  0  0  0  0
    4.2177  -11.9751    0.0000 C   0  0  2  0  0  0  0  0  0  0  0  0
    4.9322  -11.5626    0.0000 C   0  0  2  0  0  0  0  0  0  0  0  0
    4.9322  -10.7376    0.0000 C   0  0  1  0  0  0  0  0  0  0  0  0
    4.2177  -10.3251    0.0000 O   0  0  0  0  0  0  0  0  0  0  0  0
    2.7888  -11.9751    0.0000 O   0  0  0  0  0  0  0  0  0  0  0  0
    3.5032  -11.5626    0.0000 C   0  0  2  0  0  0  0  0  0  0  0  0
    3.5032  -10.7376    0.0000 C   0  0  1  0  0  0  0  0  0  0  0  0
    2.7888  -10.3251    0.0000 C   0  0  0  0  0  0  0  0  0  0  0  0
    2.0743  -10.7376    0.0000 O   0  0  0  0  0  0  0  0  0  0  0  0
    4.9322   -9.9126    0.0000 H   0  0  0  0  0  0  0  0  0  0  0  0
 24  1  1  1  0  0  0
  6  2  1  0  0  0  0
  7  3  1  0  0  0  0
  4  8  1  0  0  0  0
  5  4  2  0  0  0  0
  6  5  1  0  0  0  0
  7  6  2  0  0  0  0
  9  7  1  0  0  0  0
  8 11  1  0  0  0  0
  9  8  2  0  0  0  0
 10 18  1  0  0  0  0
 11 10  2  0  0  0  0
 12 11  1  0  0  0  0
 13 12  1  0  0  0  0
 13 19  2  0  0  0  0
 14 13  1  0  0  0  0
 15 14  2  0  0  0  0
 15 23  1  0  0  0  0
 16 15  1  0  0  0  0
 18 17  2  0  0  0  0
 19 18  1  0  0  0  0
 22 19  1  0  0  0  0
 25 20  1  6  0  0  0
 22 21  1  0  0  0  0
 23 22  2  0  0  0  0
 26 23  1  0  0  0  0
 24 29  1  0  0  0  0
 25 24  1  0  0  0  0
 26 25  1  0  0  0  0
 27 26  1  0  0  0  0
 30 27  1  0  0  0  0
 29 28  1  6  0  0  0
 30 29  1  0  0  0  0
 30 31  1  1  0  0  0
 32 31  1  0  0  0  0
 26 33  1  6  0  0  0
M  END
>  <cdx:fragmentId>
5

$$$$
