90494.cdx
  Mrv1902 05222410232D          

 37 40  0  0  0  0            999 V2000
    2.4397   -9.4228    0.0000 O   0  0  0  0  0  0  0  0  0  0  0  0
    3.1529  -10.6611    0.0000 O   0  0  0  0  0  0  0  0  0  0  0  0
    3.8678  -10.2494    0.0000 C   0  0  2  0  0  0  0  0  0  0  0  0
    3.8687   -9.4244    0.0000 C   0  0  1  0  0  0  0  0  0  0  0  0
    3.1547   -9.0111    0.0000 C   0  0  0  0  0  0  0  0  0  0  0  0
    4.5818  -10.6627    0.0000 C   0  0  1  0  0  0  0  0  0  0  0  0
    8.8694  -11.4904    0.0000 O   0  0  0  0  0  0  0  0  0  0  0  0
    7.4405  -11.4898    0.0000 O   0  0  0  0  0  0  0  0  0  0  0  0
   10.2994   -9.0160    0.0000 C   0  0  0  0  0  0  0  0  0  0  0  0
   10.2997   -8.1910    0.0000 C   0  0  0  0  0  0  0  0  0  0  0  0
   11.0137   -9.4288    0.0000 C   0  0  0  0  0  0  0  0  0  0  0  0
   11.7283   -9.0166    0.0000 C   0  0  0  0  0  0  0  0  0  0  0  0
   11.7286   -8.1916    0.0000 C   0  0  0  0  0  0  0  0  0  0  0  0
   11.0143   -7.7788    0.0000 C   0  0  0  0  0  0  0  0  0  0  0  0
   12.4426   -9.4293    0.0000 O   0  0  0  0  0  0  0  0  0  0  0  0
   13.1573   -9.0171    0.0000 C   0  0  0  0  0  0  0  0  0  0  0  0
   12.4433   -7.7793    0.0000 O   0  0  0  0  0  0  0  0  0  0  0  0
   10.2987  -10.6660    0.0000 O   0  0  0  0  0  0  0  0  0  0  0  0
    8.8698  -10.6654    0.0000 C   0  0  0  0  0  0  0  0  0  0  0  0
    9.5844  -10.2532    0.0000 C   0  0  0  0  0  0  0  0  0  0  0  0
    9.5847   -9.4282    0.0000 C   0  0  0  0  0  0  0  0  0  0  0  0
    8.8704   -9.0154    0.0000 O   0  0  0  0  0  0  0  0  0  0  0  0
    7.4408  -10.6648    0.0000 C   0  0  0  0  0  0  0  0  0  0  0  0
    8.1555  -10.2526    0.0000 C   0  0  0  0  0  0  0  0  0  0  0  0
    8.1558   -9.4276    0.0000 C   0  0  0  0  0  0  0  0  0  0  0  0
    7.4415   -9.0148    0.0000 C   0  0  0  0  0  0  0  0  0  0  0  0
    5.2967  -10.2509    0.0000 C   0  0  2  0  0  0  0  0  0  0  0  0
    6.7265  -10.2520    0.0000 C   0  0  0  0  0  0  0  0  0  0  0  0
    6.7268   -9.4270    0.0000 C   0  0  0  0  0  0  0  0  0  0  0  0
    5.2976   -9.4259    0.0000 C   0  0  1  0  0  0  0  0  0  0  0  0
    4.5836   -9.0127    0.0000 O   0  0  0  0  0  0  0  0  0  0  0  0
    6.0125   -9.0142    0.0000 O   0  0  0  0  0  0  0  0  0  0  0  0
    4.5809  -11.4877    0.0000 O   0  0  0  0  0  0  0  0  0  0  0  0
    6.0108  -10.6642    0.0000 O   0  0  0  0  0  0  0  0  0  0  0  0
    1.7257   -9.0096    0.0000 C   0  0  0  0  0  0  0  0  0  0  0  0
    1.0108   -9.4213    0.0000 C   0  0  0  0  0  0  0  0  0  0  0  0
    1.7266   -8.1846    0.0000 O   0  0  0  0  0  0  0  0  0  0  0  0
  3  2  1  6  0  0  0
  3  4  1  0  0  0  0
  4  5  1  1  0  0  0
  5  1  1  0  0  0  0
 19  7  2  0  0  0  0
 23  8  1  0  0  0  0
  9 10  1  0  0  0  0
  9 11  2  0  0  0  0
 11 12  1  0  0  0  0
 12 13  2  0  0  0  0
 13 14  1  0  0  0  0
 14 10  2  0  0  0  0
 18 20  1  0  0  0  0
 12 15  1  0  0  0  0
 21  9  1  0  0  0  0
 15 16  1  0  0  0  0
 17 13  1  0  0  0  0
 19 24  1  0  0  0  0
 20 19  1  0  0  0  0
 21 20  2  0  0  0  0
 22 21  1  0  0  0  0
 25 22  1  0  0  0  0
 23 28  1  0  0  0  0
 24 23  2  0  0  0  0
 25 24  1  0  0  0  0
 26 25  2  0  0  0  0
 29 26  1  0  0  0  0
 29 28  2  0  0  0  0
 32 29  1  0  0  0  0
  3  6  1  0  0  0  0
  6 27  1  0  0  0  0
 27 30  1  0  0  0  0
 30 31  1  0  0  0  0
 31  4  1  0  0  0  0
 30 32  1  1  0  0  0
  6 33  1  1  0  0  0
 27 34  1  6  0  0  0
  1 35  1  0  0  0  0
 35 36  1  0  0  0  0
 35 37  2  0  0  0  0
M  END
>  <cdx:fragmentId>
5

$$$$
