90493.cdx
  Mrv1902 05222410212D          

 55 60  0  0  0  0            999 V2000
    2.9818   -8.2764    0.0000 C   0  0  2  0  0  0  0  0  0  0  0  0
    2.9818   -9.1014    0.0000 C   0  0  2  0  0  0  0  0  0  0  0  0
    3.6963   -9.5139    0.0000 C   0  0  1  0  0  0  0  0  0  0  0  0
    4.4107   -9.1014    0.0000 C   0  0  2  0  0  0  0  0  0  0  0  0
    4.4107   -8.2764    0.0000 C   0  0  1  0  0  0  0  0  0  0  0  0
    3.6963   -7.8639    0.0000 O   0  0  0  0  0  0  0  0  0  0  0  0
    5.1252   -9.5139    0.0000 O   0  0  0  0  0  0  0  0  0  0  0  0
    5.8397   -9.1014    0.0000 C   0  0  0  0  0  0  0  0  0  0  0  0
    5.8397   -8.2764    0.0000 C   0  0  0  0  0  0  0  0  0  0  0  0
    5.1252   -7.8639    0.0000 O   0  0  0  0  0  0  0  0  0  0  0  0
    6.5542   -9.5139    0.0000 C   0  0  0  0  0  0  0  0  0  0  0  0
    7.2686   -9.1014    0.0000 C   0  0  0  0  0  0  0  0  0  0  0  0
    7.2686   -8.2764    0.0000 C   0  0  0  0  0  0  0  0  0  0  0  0
    6.5542   -7.8639    0.0000 C   0  0  0  0  0  0  0  0  0  0  0  0
    7.9831   -9.5139    0.0000 C   0  0  0  0  0  0  0  0  0  0  0  0
    8.6976   -9.1014    0.0000 C   0  0  0  0  0  0  0  0  0  0  0  0
    8.6976   -8.2764    0.0000 C   0  0  0  0  0  0  0  0  0  0  0  0
    7.9831   -7.8639    0.0000 O   0  0  0  0  0  0  0  0  0  0  0  0
    9.4120   -9.5139    0.0000 O   0  0  0  0  0  0  0  0  0  0  0  0
   10.1265   -8.2764    0.0000 C   0  0  0  0  0  0  0  0  0  0  0  0
    9.4120   -7.8639    0.0000 C   0  0  0  0  0  0  0  0  0  0  0  0
   10.8410   -7.8639    0.0000 C   0  0  0  0  0  0  0  0  0  0  0  0
   10.8410   -7.0389    0.0000 C   0  0  0  0  0  0  0  0  0  0  0  0
   10.1265   -6.6264    0.0000 C   0  0  0  0  0  0  0  0  0  0  0  0
    9.4120   -7.0389    0.0000 C   0  0  0  0  0  0  0  0  0  0  0  0
   11.5555   -6.6264    0.0000 O   0  0  0  0  0  0  0  0  0  0  0  0
   10.1265   -5.8014    0.0000 O   0  0  0  0  0  0  0  0  0  0  0  0
    7.9831  -10.3389    0.0000 O   0  0  0  0  0  0  0  0  0  0  0  0
    8.6976  -10.7514    0.0000 O   0  0  0  0  0  0  0  0  0  0  0  0
    9.4120  -10.3389    0.0000 C   0  0  2  0  0  0  0  0  0  0  0  0
    8.6976  -11.5764    0.0000 C   0  0  1  0  0  0  0  0  0  0  0  0
    9.4120  -11.9889    0.0000 C   0  0  2  0  0  0  0  0  0  0  0  0
   10.1265  -11.5764    0.0000 C   0  0  1  0  0  0  0  0  0  0  0  0
   10.1265  -10.7514    0.0000 C   0  0  1  0  0  0  0  0  0  0  0  0
    7.9831  -11.9889    0.0000 C   0  0  0  0  0  0  0  0  0  0  0  0
    2.2673   -9.5139    0.0000 O   0  0  0  0  0  0  0  0  0  0  0  0
   10.8410  -11.9889    0.0000 O   0  0  0  0  0  0  0  0  0  0  0  0
    2.2673   -7.8639    0.0000 C   0  0  0  0  0  0  0  0  0  0  0  0
    3.6963  -10.3389    0.0000 O   0  0  0  0  0  0  0  0  0  0  0  0
    9.4120  -12.8139    0.0000 O   0  0  0  0  0  0  0  0  0  0  0  0
   10.8410  -10.3389    0.0000 O   0  0  0  0  0  0  0  0  0  0  0  0
    6.5542  -10.3389    0.0000 O   0  0  0  0  0  0  0  0  0  0  0  0
    7.9831  -12.8139    0.0000 O   0  0  0  0  0  0  0  0  0  0  0  0
    7.2686  -13.2264    0.0000 C   0  0  2  0  0  0  0  0  0  0  0  0
    6.5542  -12.8139    0.0000 O   0  0  0  0  0  0  0  0  0  0  0  0
    5.8397  -13.2264    0.0000 C   0  0  2  0  0  0  0  0  0  0  0  0
    5.8397  -14.0514    0.0000 C   0  0  1  0  0  0  0  0  0  0  0  0
    6.5542  -14.4639    0.0000 C   0  0  2  0  0  0  0  0  0  0  0  0
    7.2686  -14.0514    0.0000 C   0  0  1  0  0  0  0  0  0  0  0  0
    5.1252  -14.4639    0.0000 O   0  0  0  0  0  0  0  0  0  0  0  0
    5.1252  -12.8139    0.0000 C   0  0  0  0  0  0  0  0  0  0  0  0
    6.5542  -15.2889    0.0000 O   0  0  0  0  0  0  0  0  0  0  0  0
    7.9831  -14.4639    0.0000 O   0  0  0  0  0  0  0  0  0  0  0  0
    1.5529   -8.2764    0.0000 O   0  0  0  0  0  0  0  0  0  0  0  0
   10.8410   -5.3889    0.0000 C   0  0  0  0  0  0  0  0  0  0  0  0
  1  2  1  0  0  0  0
  2  3  1  0  0  0  0
  3  4  1  0  0  0  0
  4  5  1  0  0  0  0
  5  6  1  0  0  0  0
  6  1  1  0  0  0  0
  4  7  1  6  0  0  0
  8  9  1  0  0  0  0
  9 10  1  0  0  0  0
  5 10  1  1  0  0  0
  8 11  2  0  0  0  0
 11 12  1  0  0  0  0
 12 13  2  0  0  0  0
 13 14  1  0  0  0  0
 14  9  2  0  0  0  0
 12 15  1  0  0  0  0
 15 16  1  0  0  0  0
 16 17  2  0  0  0  0
 17 18  1  0  0  0  0
 18 13  1  0  0  0  0
 16 19  1  0  0  0  0
 20 21  1  0  0  0  0
 21 17  1  0  0  0  0
 20 22  2  0  0  0  0
 22 23  1  0  0  0  0
 23 24  2  0  0  0  0
 24 25  1  0  0  0  0
 25 21  2  0  0  0  0
 23 26  1  0  0  0  0
 27 24  1  0  0  0  0
 15 28  2  0  0  0  0
 29 30  1  0  0  0  0
 30 19  1  1  0  0  0
 29 31  1  0  0  0  0
 31 32  1  0  0  0  0
 32 33  1  0  0  0  0
 33 34  1  0  0  0  0
 34 30  1  0  0  0  0
 31 35  1  1  0  0  0
  2 36  1  6  0  0  0
 33 37  1  1  0  0  0
  1 38  1  1  0  0  0
  3 39  1  1  0  0  0
 32 40  1  6  0  0  0
 34 41  1  6  0  0  0
 11 42  1  0  0  0  0
 35 43  1  0  0  0  0
 44 43  1  1  0  0  0
 44 45  1  0  0  0  0
 45 46  1  0  0  0  0
 46 47  1  0  0  0  0
 47 48  1  0  0  0  0
 48 49  1  0  0  0  0
 49 44  1  0  0  0  0
 47 50  1  1  0  0  0
 46 51  1  6  0  0  0
 48 52  1  6  0  0  0
 49 53  1  6  0  0  0
 38 54  1  0  0  0  0
 27 55  1  0  0  0  0
M  END
>  <cdx:fragmentId>
5

$$$$
