90497.cdx
  Mrv1902 05222410222D          

 45 49  0  0  0  0            999 V2000
   11.2084   -8.8085    0.0000 C   0  0  0  0  0  0  0  0  0  0  0  0
   11.2084   -7.9835    0.0000 C   0  0  0  0  0  0  0  0  0  0  0  0
   11.9228   -7.5710    0.0000 C   0  0  0  0  0  0  0  0  0  0  0  0
   12.6373   -7.9835    0.0000 C   0  0  0  0  0  0  0  0  0  0  0  0
   12.6373   -8.8085    0.0000 C   0  0  0  0  0  0  0  0  0  0  0  0
   11.9228   -9.2210    0.0000 C   0  0  0  0  0  0  0  0  0  0  0  0
   11.9228   -6.7460    0.0000 O   0  0  0  0  0  0  0  0  0  0  0  0
   12.6373   -6.3335    0.0000 C   0  0  0  0  0  0  0  0  0  0  0  0
   13.3518   -7.5710    0.0000 O   0  0  0  0  0  0  0  0  0  0  0  0
   11.2084  -10.4585    0.0000 O   0  0  0  0  0  0  0  0  0  0  0  0
    8.3505  -11.2835    0.0000 O   0  0  0  0  0  0  0  0  0  0  0  0
    6.9215   -8.8085    0.0000 O   0  0  0  0  0  0  0  0  0  0  0  0
    9.7794  -11.2835    0.0000 O   0  0  0  0  0  0  0  0  0  0  0  0
    9.7794   -8.8085    0.0000 O   0  0  0  0  0  0  0  0  0  0  0  0
    9.0649   -9.2210    0.0000 C   0  0  0  0  0  0  0  0  0  0  0  0
    8.3505   -8.8085    0.0000 C   0  0  0  0  0  0  0  0  0  0  0  0
    7.6360   -9.2210    0.0000 C   0  0  0  0  0  0  0  0  0  0  0  0
    7.6360  -10.0460    0.0000 C   0  0  0  0  0  0  0  0  0  0  0  0
    8.3505  -10.4585    0.0000 C   0  0  0  0  0  0  0  0  0  0  0  0
    9.0649  -10.0460    0.0000 C   0  0  0  0  0  0  0  0  0  0  0  0
    9.7794  -10.4585    0.0000 C   0  0  0  0  0  0  0  0  0  0  0  0
   10.4939  -10.0460    0.0000 C   0  0  0  0  0  0  0  0  0  0  0  0
   10.4939   -9.2210    0.0000 C   0  0  0  0  0  0  0  0  0  0  0  0
    5.4835   -8.8085    0.0000 O   0  0  0  0  0  0  0  0  0  0  0  0
    6.1980   -9.2210    0.0000 C   0  0  2  0  0  0  0  0  0  0  0  0
    6.1980  -10.0460    0.0000 C   0  0  1  0  0  0  0  0  0  0  0  0
    5.4835  -10.4585    0.0000 C   0  0  2  0  0  0  0  0  0  0  0  0
    4.7690  -10.0460    0.0000 C   0  0  1  0  0  0  0  0  0  0  0  0
    4.7690   -9.2210    0.0000 C   0  0  1  0  0  0  0  0  0  0  0  0
    4.0546   -8.8085    0.0000 C   0  0  0  0  0  0  0  0  0  0  0  0
    3.3401   -9.2210    0.0000 O   0  0  0  0  0  0  0  0  0  0  0  0
    4.0546  -10.4585    0.0000 O   0  0  0  0  0  0  0  0  0  0  0  0
    5.4835  -11.2835    0.0000 O   0  0  0  0  0  0  0  0  0  0  0  0
    6.9125  -10.4585    0.0000 O   0  0  0  0  0  0  0  0  0  0  0  0
    2.6256   -8.8085    0.0000 C   0  0  2  0  0  0  0  0  0  0  0  0
    2.6256   -7.9835    0.0000 O   0  0  0  0  0  0  0  0  0  0  0  0
    1.9112   -7.5710    0.0000 C   0  0  1  0  0  0  0  0  0  0  0  0
    1.1967   -7.9835    0.0000 C   0  0  2  0  0  0  0  0  0  0  0  0
    1.1967   -8.8085    0.0000 C   0  0  1  0  0  0  0  0  0  0  0  0
    1.9112   -9.2210    0.0000 C   0  0  1  0  0  0  0  0  0  0  0  0
    1.9112   -6.7460    0.0000 C   0  0  0  0  0  0  0  0  0  0  0  0
    0.4822   -9.2210    0.0000 O   0  0  0  0  0  0  0  0  0  0  0  0
    1.9112  -10.0460    0.0000 O   0  0  0  0  0  0  0  0  0  0  0  0
    0.4822   -7.5710    0.0000 O   0  0  0  0  0  0  0  0  0  0  0  0
    1.1967   -6.3335    0.0000 O   0  0  0  0  0  0  0  0  0  0  0  0
 22 10  1  0  0  0  0
 19 11  1  0  0  0  0
 17 12  1  0  0  0  0
 23  1  1  0  0  0  0
 21 13  2  0  0  0  0
 23 14  1  0  0  0  0
 15 14  1  0  0  0  0
 20 15  2  0  0  0  0
 16 15  1  0  0  0  0
 17 16  2  0  0  0  0
 18 17  1  0  0  0  0
 19 18  2  0  0  0  0
 20 19  1  0  0  0  0
 21 20  1  0  0  0  0
 22 21  1  0  0  0  0
 23 22  2  0  0  0  0
  1  2  1  0  0  0  0
  2  3  2  0  0  0  0
  3  4  1  0  0  0  0
  4  5  2  0  0  0  0
  5  6  1  0  0  0  0
  1  6  2  0  0  0  0
  7  8  1  0  0  0  0
  3  7  1  0  0  0  0
  4  9  1  0  0  0  0
 24 25  1  0  0  0  0
 25 26  1  0  0  0  0
 26 27  1  0  0  0  0
 27 28  1  0  0  0  0
 28 29  1  0  0  0  0
 24 29  1  0  0  0  0
 30 31  1  0  0  0  0
 29 30  1  1  0  0  0
 28 32  1  6  0  0  0
 27 33  1  1  0  0  0
 26 34  1  6  0  0  0
 25 12  1  1  0  0  0
 35 31  1  1  0  0  0
 35 36  1  0  0  0  0
 36 37  1  0  0  0  0
 37 38  1  0  0  0  0
 38 39  1  0  0  0  0
 39 40  1  0  0  0  0
 40 35  1  0  0  0  0
 37 41  1  1  0  0  0
 39 42  1  1  0  0  0
 40 43  1  6  0  0  0
 38 44  1  6  0  0  0
 41 45  1  0  0  0  0
M  END
>  <cdx:fragmentId>
215

$$$$
