90491.cdx
  Mrv1902 05222410212D          

 55 60  0  0  0  0            999 V2000
    5.0845   -7.4789    0.0000 C   0  0  0  0  0  0  0  0  0  0  0  0
    5.7990   -7.0664    0.0000 C   0  0  2  0  0  0  0  0  0  0  0  0
    5.0845   -8.3039    0.0000 O   0  0  0  0  0  0  0  0  0  0  0  0
    5.7990   -8.7164    0.0000 C   0  0  0  0  0  0  0  0  0  0  0  0
    6.5134   -8.3039    0.0000 C   0  0  0  0  0  0  0  0  0  0  0  0
    6.5134   -7.4789    0.0000 O   0  0  0  0  0  0  0  0  0  0  0  0
    5.7990   -9.5414    0.0000 C   0  0  0  0  0  0  0  0  0  0  0  0
    6.5134   -9.9539    0.0000 C   0  0  0  0  0  0  0  0  0  0  0  0
    7.2279   -9.5414    0.0000 C   0  0  0  0  0  0  0  0  0  0  0  0
    7.2279   -8.7164    0.0000 C   0  0  0  0  0  0  0  0  0  0  0  0
    6.5134  -10.7789    0.0000 C   0  0  0  0  0  0  0  0  0  0  0  0
    7.2279  -11.1914    0.0000 C   0  0  0  0  0  0  0  0  0  0  0  0
    7.9424  -10.7789    0.0000 C   0  0  0  0  0  0  0  0  0  0  0  0
    7.9424   -9.9539    0.0000 O   0  0  0  0  0  0  0  0  0  0  0  0
    8.6569  -11.1914    0.0000 C   0  0  0  0  0  0  0  0  0  0  0  0
    9.3713  -10.7789    0.0000 C   0  0  0  0  0  0  0  0  0  0  0  0
    5.7990  -11.1914    0.0000 O   0  0  0  0  0  0  0  0  0  0  0  0
    5.7990  -12.0164    0.0000 O   0  0  0  0  0  0  0  0  0  0  0  0
    6.5134  -12.4289    0.0000 C   0  0  1  0  0  0  0  0  0  0  0  0
    7.2279  -12.0164    0.0000 O   0  0  0  0  0  0  0  0  0  0  0  0
    5.0845  -12.4289    0.0000 C   0  0  0  0  0  0  0  0  0  0  0  0
    5.0845  -13.2539    0.0000 C   0  0  2  0  0  0  0  0  0  0  0  0
    5.7990  -13.6664    0.0000 C   0  0  0  0  0  0  0  0  0  0  0  0
    6.5134  -13.2539    0.0000 C   0  0  0  0  0  0  0  0  0  0  0  0
    5.7990  -14.4914    0.0000 O   0  0  0  0  0  0  0  0  0  0  0  0
    6.5134  -14.9039    0.0000 O   0  0  0  0  0  0  0  0  0  0  0  0
    7.2279  -14.4914    0.0000 C   0  0  1  0  0  0  0  0  0  0  0  0
    7.2279  -13.6664    0.0000 O   0  0  0  0  0  0  0  0  0  0  0  0
    6.5134  -15.7289    0.0000 C   0  0  0  0  0  0  0  0  0  0  0  0
    7.2279  -16.1414    0.0000 C   0  0  2  0  0  0  0  0  0  0  0  0
    7.9424  -15.7289    0.0000 C   0  0  0  0  0  0  0  0  0  0  0  0
    7.9424  -14.9039    0.0000 C   0  0  1  0  0  0  0  0  0  0  0  0
    5.7990   -6.2414    0.0000 O   0  0  0  0  0  0  0  0  0  0  0  0
    5.0845   -5.8289    0.0000 C   0  0  0  0  0  0  0  0  0  0  0  0
    4.3700   -6.2414    0.0000 C   0  0  1  0  0  0  0  0  0  0  0  0
    4.3700   -7.0664    0.0000 C   0  0  2  0  0  0  0  0  0  0  0  0
    8.6569  -12.0164    0.0000 C   0  0  0  0  0  0  0  0  0  0  0  0
    9.3713  -12.4289    0.0000 C   0  0  0  0  0  0  0  0  0  0  0  0
   10.0858  -12.0164    0.0000 C   0  0  0  0  0  0  0  0  0  0  0  0
   10.0858  -11.1914    0.0000 C   0  0  0  0  0  0  0  0  0  0  0  0
    5.0845   -5.0039    0.0000 C   0  0  0  0  0  0  0  0  0  0  0  0
    5.0845   -9.9539    0.0000 O   0  0  0  0  0  0  0  0  0  0  0  0
   10.8003  -12.4289    0.0000 O   0  0  0  0  0  0  0  0  0  0  0  0
   10.8003  -10.7789    0.0000 O   0  0  0  0  0  0  0  0  0  0  0  0
   10.8003   -9.9539    0.0000 C   0  0  0  0  0  0  0  0  0  0  0  0
    4.3700  -12.0164    0.0000 C   0  0  0  0  0  0  0  0  0  0  0  0
    3.6556  -12.4289    0.0000 O   0  0  0  0  0  0  0  0  0  0  0  0
    5.7990  -16.1414    0.0000 C   0  0  0  0  0  0  0  0  0  0  0  0
    5.0845  -15.7289    0.0000 O   0  0  0  0  0  0  0  0  0  0  0  0
    8.6569  -16.1414    0.0000 O   0  0  0  0  0  0  0  0  0  0  0  0
    3.6556   -5.8289    0.0000 O   0  0  0  0  0  0  0  0  0  0  0  0
    3.6556   -7.4789    0.0000 O   0  0  0  0  0  0  0  0  0  0  0  0
    4.3700  -13.6664    0.0000 O   0  0  0  0  0  0  0  0  0  0  0  0
    8.7282  -14.4776    0.0000 O   0  0  0  0  0  0  0  0  0  0  0  0
    7.2279  -16.9664    0.0000 O   0  0  0  0  0  0  0  0  0  0  0  0
  1  2  1  0  0  0  0
  1  3  1  0  0  0  0
  4  5  2  0  0  0  0
  5  6  1  0  0  0  0
  2  6  1  1  0  0  0
  4  7  1  0  0  0  0
  7  8  2  0  0  0  0
  8  9  1  0  0  0  0
  9 10  2  0  0  0  0
 10  5  1  0  0  0  0
  8 11  1  0  0  0  0
 11 12  1  0  0  0  0
 12 13  2  0  0  0  0
 13 14  1  0  0  0  0
 14  9  1  0  0  0  0
 13 15  1  0  0  0  0
 15 16  2  0  0  0  0
 11 17  2  0  0  0  0
 18 19  1  0  0  0  0
 19 20  1  1  0  0  0
 20 12  1  0  0  0  0
 18 21  1  0  0  0  0
 21 22  1  0  0  0  0
 22 23  1  0  0  0  0
 23 24  1  0  0  0  0
 24 19  1  0  0  0  0
 23 25  1  0  0  0  0
 26 27  1  0  0  0  0
 27 28  1  1  0  0  0
 28 24  1  0  0  0  0
 26 29  1  0  0  0  0
 29 30  1  0  0  0  0
 30 31  1  0  0  0  0
 31 32  1  0  0  0  0
 32 27  1  0  0  0  0
  2 33  1  0  0  0  0
 33 34  1  0  0  0  0
 34 35  1  0  0  0  0
 35 36  1  0  0  0  0
 36  1  1  0  0  0  0
 37 15  1  0  0  0  0
 37 38  2  0  0  0  0
 38 39  1  0  0  0  0
 39 40  2  0  0  0  0
 40 16  1  0  0  0  0
 34 41  1  0  0  0  0
  7 42  1  0  0  0  0
 39 43  1  0  0  0  0
 40 44  1  0  0  0  0
 44 45  1  0  0  0  0
 21 46  1  0  0  0  0
 46 47  1  0  0  0  0
 29 48  1  0  0  0  0
 48 49  1  0  0  0  0
 31 50  1  0  0  0  0
 35 51  1  1  0  0  0
 36 52  1  1  0  0  0
 22 53  1  6  0  0  0
 30 55  1  6  0  0  0
 32 54  1  6  0  0  0
M  END
>  <cdx:fragmentId>
5

$$$$
