90499.cdx
  Mrv1902 05222410232D          

 35 38  0  0  0  0            999 V2000
    5.3468   -9.3764    0.0000 C   0  0  0  0  0  0  0  0  0  0  0  0
    5.3468  -10.2014    0.0000 C   0  0  0  0  0  0  0  0  0  0  0  0
    6.0613  -10.6139    0.0000 C   0  0  0  0  0  0  0  0  0  0  0  0
    6.7757  -10.2014    0.0000 C   0  0  0  0  0  0  0  0  0  0  0  0
    6.7757   -9.3764    0.0000 C   0  0  0  0  0  0  0  0  0  0  0  0
    6.0613   -8.9639    0.0000 C   0  0  0  0  0  0  0  0  0  0  0  0
    7.4902  -10.6139    0.0000 C   0  0  0  0  0  0  0  0  0  0  0  0
    8.2047  -10.2014    0.0000 C   0  0  0  0  0  0  0  0  0  0  0  0
    8.2047   -9.3764    0.0000 C   0  0  0  0  0  0  0  0  0  0  0  0
    7.4902   -8.9639    0.0000 O   0  0  0  0  0  0  0  0  0  0  0  0
    9.6336   -9.3764    0.0000 C   0  0  0  0  0  0  0  0  0  0  0  0
    8.9192   -8.9639    0.0000 C   0  0  0  0  0  0  0  0  0  0  0  0
   10.3481   -8.9639    0.0000 C   0  0  0  0  0  0  0  0  0  0  0  0
   10.3481   -8.1389    0.0000 C   0  0  0  0  0  0  0  0  0  0  0  0
    9.6336   -7.7264    0.0000 C   0  0  0  0  0  0  0  0  0  0  0  0
    8.9192   -8.1389    0.0000 C   0  0  0  0  0  0  0  0  0  0  0  0
   11.0626   -7.7264    0.0000 O   0  0  0  0  0  0  0  0  0  0  0  0
   10.3481   -6.4889    0.0000 C   0  0  0  0  0  0  0  0  0  0  0  0
    9.6336   -6.9014    0.0000 O   0  0  0  0  0  0  0  0  0  0  0  0
    6.0613  -11.4389    0.0000 O   0  0  0  0  0  0  0  0  0  0  0  0
    7.4902  -11.4389    0.0000 O   0  0  0  0  0  0  0  0  0  0  0  0
    4.6323   -8.9639    0.0000 O   0  0  0  0  0  0  0  0  0  0  0  0
    4.6323  -10.6139    0.0000 O   0  0  0  0  0  0  0  0  0  0  0  0
    4.6323  -11.4389    0.0000 C   0  0  0  0  0  0  0  0  0  0  0  0
    3.8073   -8.9639    0.0000 C   0  0  2  0  0  0  0  0  0  0  0  0
    3.3948   -8.2494    0.0000 O   0  0  0  0  0  0  0  0  0  0  0  0
    2.5698   -8.2494    0.0000 C   0  0  1  0  0  0  0  0  0  0  0  0
    2.1573   -8.9639    0.0000 C   0  0  2  0  0  0  0  0  0  0  0  0
    2.5698   -9.6784    0.0000 C   0  0  1  0  0  0  0  0  0  0  0  0
    3.3948   -9.6784    0.0000 C   0  0  1  0  0  0  0  0  0  0  0  0
    2.1573   -7.5350    0.0000 C   0  0  0  0  0  0  0  0  0  0  0  0
    2.1573  -10.3928    0.0000 O   0  0  0  0  0  0  0  0  0  0  0  0
    3.8073  -10.3928    0.0000 O   0  0  0  0  0  0  0  0  0  0  0  0
    1.3323   -8.9639    0.0000 O   0  0  0  0  0  0  0  0  0  0  0  0
    1.3323   -7.5350    0.0000 O   0  0  0  0  0  0  0  0  0  0  0  0
  1  2  2  0  0  0  0
  2  3  1  0  0  0  0
  3  4  2  0  0  0  0
  4  5  1  0  0  0  0
  5  6  2  0  0  0  0
  6  1  1  0  0  0  0
  4  7  1  0  0  0  0
  7  8  1  0  0  0  0
  8  9  2  0  0  0  0
  9 10  1  0  0  0  0
 10  5  1  0  0  0  0
 11 12  2  0  0  0  0
 12  9  1  0  0  0  0
 11 13  1  0  0  0  0
 13 14  2  0  0  0  0
 14 15  1  0  0  0  0
 15 16  2  0  0  0  0
 16 12  1  0  0  0  0
 14 17  1  0  0  0  0
 18 19  1  0  0  0  0
 19 15  1  0  0  0  0
  3 20  1  0  0  0  0
 21  7  2  0  0  0  0
  1 22  1  0  0  0  0
 23  2  1  0  0  0  0
 23 24  1  0  0  0  0
 25 22  1  1  0  0  0
 25 26  1  0  0  0  0
 26 27  1  0  0  0  0
 27 28  1  0  0  0  0
 28 29  1  0  0  0  0
 29 30  1  0  0  0  0
 30 25  1  0  0  0  0
 27 31  1  1  0  0  0
 29 32  1  1  0  0  0
 30 33  1  6  0  0  0
 28 34  1  6  0  0  0
 31 35  1  0  0  0  0
M  END
>  <cdx:fragmentId>
5

$$$$
