90496.cdx
  Mrv1902 05222410222D          

 44 48  0  0  0  0            999 V2000
    7.9318   -9.9401    0.0000 C   0  0  0  0  0  0  0  0  0  0  0  0
    7.9318  -10.7651    0.0000 C   0  0  0  0  0  0  0  0  0  0  0  0
    8.6463  -11.1776    0.0000 C   0  0  0  0  0  0  0  0  0  0  0  0
    9.3607  -10.7651    0.0000 C   0  0  0  0  0  0  0  0  0  0  0  0
    9.3607   -9.9401    0.0000 C   0  0  0  0  0  0  0  0  0  0  0  0
    8.6463   -9.5276    0.0000 C   0  0  0  0  0  0  0  0  0  0  0  0
   10.0752  -11.1776    0.0000 C   0  0  0  0  0  0  0  0  0  0  0  0
   10.7897  -10.7651    0.0000 C   0  0  0  0  0  0  0  0  0  0  0  0
   10.7897   -9.9401    0.0000 C   0  0  0  0  0  0  0  0  0  0  0  0
   10.0752   -9.5276    0.0000 O   0  0  0  0  0  0  0  0  0  0  0  0
    8.6463  -12.0026    0.0000 O   0  0  0  0  0  0  0  0  0  0  0  0
   10.0752  -12.0026    0.0000 O   0  0  0  0  0  0  0  0  0  0  0  0
   11.5042  -11.1776    0.0000 O   0  0  0  0  0  0  0  0  0  0  0  0
   12.2186   -9.9401    0.0000 C   0  0  0  0  0  0  0  0  0  0  0  0
   11.5042   -9.5276    0.0000 C   0  0  0  0  0  0  0  0  0  0  0  0
   12.9331   -9.5276    0.0000 C   0  0  0  0  0  0  0  0  0  0  0  0
   12.9331   -8.7026    0.0000 C   0  0  0  0  0  0  0  0  0  0  0  0
   12.2186   -8.2901    0.0000 C   0  0  0  0  0  0  0  0  0  0  0  0
   11.5042   -8.7026    0.0000 C   0  0  0  0  0  0  0  0  0  0  0  0
   13.6476   -8.2901    0.0000 O   0  0  0  0  0  0  0  0  0  0  0  0
   12.9331   -7.0526    0.0000 C   0  0  0  0  0  0  0  0  0  0  0  0
   12.2186   -7.4651    0.0000 O   0  0  0  0  0  0  0  0  0  0  0  0
    7.2173   -9.5276    0.0000 O   0  0  0  0  0  0  0  0  0  0  0  0
    2.2180   -8.2781    0.0000 C   0  0  1  0  0  0  0  0  0  0  0  0
    1.5021   -8.6881    0.0000 C   0  0  1  0  0  0  0  0  0  0  0  0
    1.4991   -9.5131    0.0000 C   0  0  2  0  0  0  0  0  0  0  0  0
    2.2121   -9.9281    0.0000 C   0  0  2  0  0  0  0  0  0  0  0  0
    2.9281   -9.5182    0.0000 C   0  0  1  0  0  0  0  0  0  0  0  0
    2.9310   -8.6932    0.0000 O   0  0  0  0  0  0  0  0  0  0  0  0
    2.2092  -10.7531    0.0000 O   0  0  0  0  0  0  0  0  0  0  0  0
    3.6411   -9.9332    0.0000 O   0  0  0  0  0  0  0  0  0  0  0  0
    4.3511  -11.1732    0.0000 O   0  0  0  0  0  0  0  0  0  0  0  0
    5.0671  -10.7633    0.0000 C   0  0  2  0  0  0  0  0  0  0  0  0
    5.0700   -9.9383    0.0000 C   0  0  1  0  0  0  0  0  0  0  0  0
    4.3570   -9.5232    0.0000 C   0  0  0  0  0  0  0  0  0  0  0  0
    5.7801  -11.1783    0.0000 C   0  0  1  0  0  0  0  0  0  0  0  0
    6.4960  -10.7683    0.0000 C   0  0  2  0  0  0  0  0  0  0  0  0
    6.4989   -9.9433    0.0000 C   0  0  1  0  0  0  0  0  0  0  0  0
    5.7859   -9.5283    0.0000 O   0  0  0  0  0  0  0  0  0  0  0  0
    2.2209   -7.4531    0.0000 C   0  0  0  0  0  0  0  0  0  0  0  0
    7.2090  -11.1834    0.0000 O   0  0  0  0  0  0  0  0  0  0  0  0
    0.7891   -8.2730    0.0000 O   0  0  0  0  0  0  0  0  0  0  0  0
    0.7832   -9.9230    0.0000 O   0  0  0  0  0  0  0  0  0  0  0  0
    5.7771  -12.0033    0.0000 O   0  0  0  0  0  0  0  0  0  0  0  0
  1  2  2  0  0  0  0
  2  3  1  0  0  0  0
  3  4  2  0  0  0  0
  4  5  1  0  0  0  0
  5  6  2  0  0  0  0
  6  1  1  0  0  0  0
  4  7  1  0  0  0  0
  7  8  1  0  0  0  0
  8  9  2  0  0  0  0
  9 10  1  0  0  0  0
 10  5  1  0  0  0  0
  3 11  1  0  0  0  0
 12  7  2  0  0  0  0
 13  8  1  0  0  0  0
 14 15  1  0  0  0  0
 15  9  1  0  0  0  0
 14 16  2  0  0  0  0
 16 17  1  0  0  0  0
 17 18  2  0  0  0  0
 18 19  1  0  0  0  0
 19 15  2  0  0  0  0
 17 20  1  0  0  0  0
 21 22  1  0  0  0  0
 22 18  1  0  0  0  0
  1 23  1  0  0  0  0
 24 25  1  0  0  0  0
 25 26  1  0  0  0  0
 26 27  1  0  0  0  0
 27 28  1  0  0  0  0
 28 29  1  0  0  0  0
 29 24  1  0  0  0  0
 27 30  1  6  0  0  0
 28 31  1  1  0  0  0
 33 32  1  6  0  0  0
 33 34  1  0  0  0  0
 34 35  1  1  0  0  0
 35 31  1  0  0  0  0
 33 36  1  0  0  0  0
 36 37  1  0  0  0  0
 37 38  1  0  0  0  0
 38 39  1  0  0  0  0
 39 34  1  0  0  0  0
 24 40  1  6  0  0  0
 37 41  1  6  0  0  0
 25 42  1  1  0  0  0
 26 43  1  6  0  0  0
 36 44  1  1  0  0  0
 38 23  1  1  0  0  0
M  END
>  <cdx:fragmentId>
5

$$$$
