90495.cdx
  Mrv1902 05222410222D          

 40 43  0  0  0  0            999 V2000
    3.5344   -8.8478    0.0000 O   0  0  0  0  0  0  0  0  0  0  0  0
    4.2501  -10.0845    0.0000 O   0  0  0  0  0  0  0  0  0  0  0  0
    4.9642   -9.6713    0.0000 C   0  0  2  0  0  0  0  0  0  0  0  0
    4.9634   -8.8463    0.0000 C   0  0  1  0  0  0  0  0  0  0  0  0
    4.2485   -8.4345    0.0000 C   0  0  0  0  0  0  0  0  0  0  0  0
    5.6791  -10.0831    0.0000 C   0  0  1  0  0  0  0  0  0  0  0  0
    6.3931   -9.6699    0.0000 C   0  0  2  0  0  0  0  0  0  0  0  0
    6.3923   -8.8449    0.0000 C   0  0  1  0  0  0  0  0  0  0  0  0
    5.6774   -8.4331    0.0000 O   0  0  0  0  0  0  0  0  0  0  0  0
    9.9647  -10.9061    0.0000 O   0  0  0  0  0  0  0  0  0  0  0  0
    8.5358  -10.9064    0.0000 O   0  0  0  0  0  0  0  0  0  0  0  0
   11.3932   -8.4308    0.0000 C   0  0  0  0  0  0  0  0  0  0  0  0
   11.3930   -7.6058    0.0000 C   0  0  0  0  0  0  0  0  0  0  0  0
   12.1077   -8.8432    0.0000 C   0  0  0  0  0  0  0  0  0  0  0  0
   12.8221   -8.4306    0.0000 C   0  0  0  0  0  0  0  0  0  0  0  0
   12.8220   -7.6056    0.0000 C   0  0  0  0  0  0  0  0  0  0  0  0
   12.1074   -7.1932    0.0000 C   0  0  0  0  0  0  0  0  0  0  0  0
   13.5367   -8.8429    0.0000 O   0  0  0  0  0  0  0  0  0  0  0  0
   14.2511   -8.4303    0.0000 C   0  0  0  0  0  0  0  0  0  0  0  0
   13.5364   -7.1929    0.0000 O   0  0  0  0  0  0  0  0  0  0  0  0
   11.3935  -10.0808    0.0000 O   0  0  0  0  0  0  0  0  0  0  0  0
    9.9646  -10.0811    0.0000 C   0  0  0  0  0  0  0  0  0  0  0  0
   10.6790   -9.6685    0.0000 C   0  0  0  0  0  0  0  0  0  0  0  0
   10.6788   -8.8435    0.0000 C   0  0  0  0  0  0  0  0  0  0  0  0
    9.9643   -8.4311    0.0000 O   0  0  0  0  0  0  0  0  0  0  0  0
    8.5356  -10.0814    0.0000 C   0  0  0  0  0  0  0  0  0  0  0  0
    9.2500   -9.6688    0.0000 C   0  0  0  0  0  0  0  0  0  0  0  0
    9.2499   -8.8438    0.0000 C   0  0  0  0  0  0  0  0  0  0  0  0
    8.5353   -8.4314    0.0000 C   0  0  0  0  0  0  0  0  0  0  0  0
    7.8211   -9.6691    0.0000 C   0  0  0  0  0  0  0  0  0  0  0  0
    7.8209   -8.8441    0.0000 C   0  0  0  0  0  0  0  0  0  0  0  0
    7.1064   -8.4317    0.0000 O   0  0  0  0  0  0  0  0  0  0  0  0
    5.6799  -10.9081    0.0000 O   0  0  0  0  0  0  0  0  0  0  0  0
    7.1080  -10.0817    0.0000 O   0  0  0  0  0  0  0  0  0  0  0  0
    2.8195   -8.4360    0.0000 C   0  0  0  0  0  0  0  0  0  0  0  0
    2.1055   -8.8492    0.0000 C   0  0  0  0  0  0  0  0  0  0  0  0
    2.8187   -7.6110    0.0000 O   0  0  0  0  0  0  0  0  0  0  0  0
    1.3906   -8.4374    0.0000 C   0  0  0  0  0  0  0  0  0  0  0  0
    0.6765   -8.8506    0.0000 O   0  0  0  0  0  0  0  0  0  0  0  0
    1.3898   -7.6124    0.0000 O   0  0  0  0  0  0  0  0  0  0  0  0
  3  2  1  6  0  0  0
  3  4  1  0  0  0  0
  4  5  1  1  0  0  0
  5  1  1  0  0  0  0
  3  6  1  0  0  0  0
  6  7  1  0  0  0  0
  7  8  1  0  0  0  0
 22 10  2  0  0  0  0
 26 11  1  0  0  0  0
 12 13  1  0  0  0  0
 12 14  2  0  0  0  0
 14 15  1  0  0  0  0
 15 16  2  0  0  0  0
 16 17  1  0  0  0  0
 17 13  2  0  0  0  0
 21 23  1  0  0  0  0
 15 18  1  0  0  0  0
 24 12  1  0  0  0  0
 18 19  1  0  0  0  0
 20 16  1  0  0  0  0
 22 27  1  0  0  0  0
 23 22  1  0  0  0  0
 24 23  2  0  0  0  0
 25 24  1  0  0  0  0
 28 25  1  0  0  0  0
 26 30  1  0  0  0  0
 27 26  2  0  0  0  0
 28 27  1  0  0  0  0
 29 28  2  0  0  0  0
 31 29  1  0  0  0  0
 31 30  2  0  0  0  0
 32 31  1  0  0  0  0
  8  9  1  0  0  0  0
  9  4  1  0  0  0  0
  8 32  1  1  0  0  0
  6 33  1  1  0  0  0
  7 34  1  6  0  0  0
  1 35  1  0  0  0  0
 35 36  1  0  0  0  0
 35 37  2  0  0  0  0
 36 38  1  0  0  0  0
 38 39  1  0  0  0  0
 38 40  2  0  0  0  0
M  END
>  <cdx:fragmentId>
5

$$$$
