90503.cdx
  Mrv1902 05222410252D          

 42 46  0  0  0  0            999 V2000
    7.2570   -5.6584    0.0000 O   0  0  0  0  0  0  0  0  0  0  0  0
    7.9697   -6.0739    0.0000 C   0  0  2  0  0  0  0  0  0  0  0  0
    7.9663   -6.8989    0.0000 O   0  0  0  0  0  0  0  0  0  0  0  0
    8.6790   -7.3144    0.0000 C   0  0  1  0  0  0  0  0  0  0  0  0
    9.3952   -6.9049    0.0000 C   0  0  2  0  0  0  0  0  0  0  0  0
    9.3987   -6.0799    0.0000 C   0  0  1  0  0  0  0  0  0  0  0  0
    8.6859   -5.6644    0.0000 C   0  0  1  0  0  0  0  0  0  0  0  0
    8.6755   -8.1394    0.0000 C   0  0  0  0  0  0  0  0  0  0  0  0
    9.3883   -8.5549    0.0000 O   0  0  0  0  0  0  0  0  0  0  0  0
   10.1079   -7.3204    0.0000 O   0  0  0  0  0  0  0  0  0  0  0  0
    8.6686   -9.7894    0.0000 O   0  0  0  0  0  0  0  0  0  0  0  0
    9.3848   -9.3799    0.0000 C   0  0  2  0  0  0  0  0  0  0  0  0
    8.6651  -10.6144    0.0000 C   0  0  2  0  0  0  0  0  0  0  0  0
    9.3778  -11.0299    0.0000 C   0  0  1  0  0  0  0  0  0  0  0  0
   10.0940  -10.6204    0.0000 C   0  0  2  0  0  0  0  0  0  0  0  0
   10.0975   -9.7954    0.0000 C   0  0  1  0  0  0  0  0  0  0  0  0
   10.1149   -5.6704    0.0000 O   0  0  0  0  0  0  0  0  0  0  0  0
    9.3744  -11.8549    0.0000 O   0  0  0  0  0  0  0  0  0  0  0  0
    7.9489  -11.0239    0.0000 C   0  0  0  0  0  0  0  0  0  0  0  0
   10.8068  -11.0359    0.0000 O   0  0  0  0  0  0  0  0  0  0  0  0
   10.8137   -9.3859    0.0000 O   0  0  0  0  0  0  0  0  0  0  0  0
    8.6894   -4.8394    0.0000 O   0  0  0  0  0  0  0  0  0  0  0  0
    3.6879   -9.3740    0.0000 O   0  0  0  0  0  0  0  0  0  0  0  0
    2.2590   -9.3753    0.0000 O   0  0  0  0  0  0  0  0  0  0  0  0
    5.8273   -4.8347    0.0000 O   0  0  0  0  0  0  0  0  0  0  0  0
    5.8295   -7.3097    0.0000 C   0  0  0  0  0  0  0  0  0  0  0  0
    6.5436   -6.8965    0.0000 C   0  0  0  0  0  0  0  0  0  0  0  0
    6.5429   -6.0715    0.0000 C   0  0  0  0  0  0  0  0  0  0  0  0
    5.8281   -5.6597    0.0000 C   0  0  0  0  0  0  0  0  0  0  0  0
    5.1147   -6.8978    0.0000 C   0  0  0  0  0  0  0  0  0  0  0  0
    5.1140   -6.0728    0.0000 C   0  0  0  0  0  0  0  0  0  0  0  0
    3.6872   -8.5490    0.0000 C   0  0  0  0  0  0  0  0  0  0  0  0
    4.4013   -8.1359    0.0000 C   0  0  0  0  0  0  0  0  0  0  0  0
    4.4006   -7.3109    0.0000 C   0  0  0  0  0  0  0  0  0  0  0  0
    3.6858   -6.8990    0.0000 O   0  0  0  0  0  0  0  0  0  0  0  0
    2.2583   -8.5503    0.0000 C   0  0  0  0  0  0  0  0  0  0  0  0
    2.9724   -8.1372    0.0000 C   0  0  0  0  0  0  0  0  0  0  0  0
    2.9716   -7.3122    0.0000 C   0  0  0  0  0  0  0  0  0  0  0  0
    2.2568   -6.9003    0.0000 C   0  0  0  0  0  0  0  0  0  0  0  0
    1.5434   -8.1384    0.0000 C   0  0  0  0  0  0  0  0  0  0  0  0
    1.5427   -7.3134    0.0000 C   0  0  0  0  0  0  0  0  0  0  0  0
    0.8279   -6.9016    0.0000 O   0  0  0  0  0  0  0  0  0  0  0  0
  2  1  1  1  0  0  0
  2  3  1  0  0  0  0
  3  4  1  0  0  0  0
  4  5  1  0  0  0  0
  5  6  1  0  0  0  0
  6  7  1  0  0  0  0
  7  2  1  0  0  0  0
  4  8  1  1  0  0  0
  8  9  1  0  0  0  0
  5 10  1  6  0  0  0
 11 12  1  0  0  0  0
 12  9  1  1  0  0  0
 11 13  1  0  0  0  0
 13 14  1  0  0  0  0
 14 15  1  0  0  0  0
 15 16  1  0  0  0  0
 16 12  1  0  0  0  0
  6 17  1  1  0  0  0
 14 18  1  1  0  0  0
 13 19  1  6  0  0  0
 15 20  1  6  0  0  0
 16 21  1  6  0  0  0
 32 23  2  0  0  0  0
 36 24  1  0  0  0  0
  1 28  1  0  0  0  0
 29 25  1  0  0  0  0
  7 22  1  6  0  0  0
 26 30  1  0  0  0  0
 27 26  2  0  0  0  0
 28 27  1  0  0  0  0
 29 28  2  0  0  0  0
 31 29  1  0  0  0  0
 30 34  1  0  0  0  0
 31 30  2  0  0  0  0
 32 37  1  0  0  0  0
 33 32  1  0  0  0  0
 34 33  2  0  0  0  0
 35 34  1  0  0  0  0
 38 35  1  0  0  0  0
 36 40  1  0  0  0  0
 37 36  2  0  0  0  0
 38 37  1  0  0  0  0
 39 38  2  0  0  0  0
 41 39  1  0  0  0  0
 41 40  2  0  0  0  0
 42 41  1  0  0  0  0
M  END
>  <cdx:fragmentId>
5

$$$$
