90507.cdx
  Mrv1902 05222410232D          

 41 47  0  0  0  0            999 V2000
    6.8801   -8.7238    0.0000 H   0  0  0  0  0  0  0  0  0  0  0  0
    5.2211   -5.6561    0.0000 O   0  0  0  0  0  0  0  0  0  0  0  0
    5.8635   -6.1737    0.0000 C   0  0  1  0  0  0  0  0  0  0  0  0
    7.1986   -3.4307    0.0000 O   0  0  0  0  0  0  0  0  0  0  0  0
    7.9154   -5.4971    0.0000 C   0  0  0  0  0  0  0  0  0  0  0  0
    7.9154   -4.6721    0.0000 C   0  0  0  0  0  0  0  0  0  0  0  0
    7.1986   -4.2557    0.0000 C   0  0  0  0  0  0  0  0  0  0  0  0
    6.4819   -4.6721    0.0000 C   0  0  0  0  0  0  0  0  0  0  0  0
    6.4819   -5.4971    0.0000 C   0  0  0  0  0  0  0  0  0  0  0  0
    7.1986   -5.9057    0.0000 C   0  0  0  0  0  0  0  0  0  0  0  0
    7.1893   -6.7306    0.0000 C   0  0  2  0  0  0  0  0  0  0  0  0
    7.0936   -7.9269    0.0000 C   0  0  2  0  0  0  0  0  0  0  0  0
   10.6733   -9.8450    0.0000 O   0  0  0  0  0  0  0  0  0  0  0  0
    3.5286   -9.8450    0.0000 O   0  0  0  0  0  0  0  0  0  0  0  0
    9.2444  -12.3200    0.0000 O   0  0  0  0  0  0  0  0  0  0  0  0
    4.9576   -7.3700    0.0000 O   0  0  0  0  0  0  0  0  0  0  0  0
    9.2444   -7.3700    0.0000 O   0  0  0  0  0  0  0  0  0  0  0  0
    9.9589   -9.4325    0.0000 C   0  0  0  0  0  0  0  0  0  0  0  0
    9.9589   -8.6075    0.0000 C   0  0  0  0  0  0  0  0  0  0  0  0
    9.2444   -8.1950    0.0000 C   0  0  0  0  0  0  0  0  0  0  0  0
    8.5299   -8.6075    0.0000 C   0  0  0  0  0  0  0  0  0  0  0  0
    9.2444   -9.8450    0.0000 C   0  0  0  0  0  0  0  0  0  0  0  0
    8.5299   -9.4325    0.0000 C   0  0  0  0  0  0  0  0  0  0  0  0
    7.8155   -9.8450    0.0000 O   0  0  0  0  0  0  0  0  0  0  0  0
    7.8155  -12.3200    0.0000 C   0  0  0  0  0  0  0  0  0  0  0  0
    8.5299  -11.9075    0.0000 C   0  0  0  0  0  0  0  0  0  0  0  0
    8.5299  -11.0825    0.0000 C   0  0  0  0  0  0  0  0  0  0  0  0
    7.8155  -10.6700    0.0000 C   0  0  0  0  0  0  0  0  0  0  0  0
    5.6720  -11.9075    0.0000 O   0  0  0  0  0  0  0  0  0  0  0  0
    7.1010  -11.9075    0.0000 C   0  0  0  0  0  0  0  0  0  0  0  0
    7.1010  -11.0825    0.0000 C   0  0  0  0  0  0  0  0  0  0  0  0
    4.9576  -10.6700    0.0000 C   0  0  0  0  0  0  0  0  0  0  0  0
    5.6720  -11.0825    0.0000 C   0  0  2  0  0  0  0  0  0  0  0  0
    6.3865  -10.6700    0.0000 C   0  0  2  0  0  0  0  0  0  0  0  0
    6.3865   -9.8450    0.0000 O   0  0  0  0  0  0  0  0  0  0  0  0
    4.9576   -8.1950    0.0000 C   0  0  0  0  0  0  0  0  0  0  0  0
    4.2431   -8.6075    0.0000 C   0  0  0  0  0  0  0  0  0  0  0  0
    4.2431   -9.4325    0.0000 C   0  0  0  0  0  0  0  0  0  0  0  0
    4.9576   -9.8450    0.0000 C   0  0  0  0  0  0  0  0  0  0  0  0
    5.6720   -9.4325    0.0000 C   0  0  0  0  0  0  0  0  0  0  0  0
    5.6720   -8.6075    0.0000 C   0  0  0  0  0  0  0  0  0  0  0  0
 12  1  1  1  0  0  0
  3  2  1  1  0  0  0
 11  3  1  0  0  0  0
  7  4  1  0  0  0  0
  5 10  1  0  0  0  0
  6  5  2  0  0  0  0
  7  6  1  0  0  0  0
  8  7  2  0  0  0  0
  9  8  1  0  0  0  0
 10  9  2  0  0  0  0
 11 10  1  6  0  0  0
 11 16  1  0  0  0  0
 17 11  1  0  0  0  0
 41 12  1  0  0  0  0
 21 12  1  0  0  0  0
 18 13  1  0  0  0  0
 38 14  1  0  0  0  0
 26 15  1  0  0  0  0
 36 16  1  0  0  0  0
 20 17  1  0  0  0  0
 18 22  2  0  0  0  0
 19 18  1  0  0  0  0
 20 19  2  0  0  0  0
 21 20  1  0  0  0  0
 23 21  2  0  0  0  0
 23 22  1  0  0  0  0
 24 23  1  0  0  0  0
 25 30  1  0  0  0  0
 26 25  2  0  0  0  0
 27 26  1  0  0  0  0
 28 27  2  0  0  0  0
 31 28  1  0  0  0  0
 33 29  1  6  0  0  0
 31 30  2  0  0  0  0
 34 31  1  6  0  0  0
 32 39  1  0  0  0  0
 33 32  1  0  0  0  0
 34 33  1  0  0  0  0
 35 34  1  0  0  0  0
 40 35  1  0  0  0  0
 36 41  2  0  0  0  0
 37 36  1  0  0  0  0
 38 37  2  0  0  0  0
 39 38  1  0  0  0  0
 40 39  2  0  0  0  0
 41 40  1  0  0  0  0
  3 12  1  0  0  0  0
M  END
>  <cdx:fragmentId>
5

$$$$
