90508.cdx
  Mrv1902 05222410222D          

 20 21  0  0  0  0            999 V2000
    4.3431  -11.0676    0.0000 O   0  0  0  0  0  0  0  0  0  0  0  0
    5.0575  -12.3051    0.0000 O   0  0  0  0  0  0  0  0  0  0  0  0
    5.7720  -11.8926    0.0000 C   0  0  2  0  0  0  0  0  0  0  0  0
    5.7720  -11.0676    0.0000 C   0  0  1  0  0  0  0  0  0  0  0  0
    5.0575  -10.6551    0.0000 C   0  0  0  0  0  0  0  0  0  0  0  0
    6.4865  -12.3051    0.0000 C   0  0  1  0  0  0  0  0  0  0  0  0
    7.2009  -11.8926    0.0000 C   0  0  2  0  0  0  0  0  0  0  0  0
    7.2009  -11.0676    0.0000 C   0  0  1  0  0  0  0  0  0  0  0  0
    6.4865  -10.6551    0.0000 O   0  0  0  0  0  0  0  0  0  0  0  0
    7.9154  -10.6551    0.0000 O   0  0  0  0  0  0  0  0  0  0  0  0
    7.9154   -9.8301    0.0000 C   0  0  0  0  0  0  0  0  0  0  0  0
    7.2009   -9.4176    0.0000 C   0  0  0  0  0  0  0  0  0  0  0  0
    6.4865   -9.8301    0.0000 C   0  0  0  0  0  0  0  0  0  0  0  0
    8.6299   -9.4176    0.0000 C   0  0  0  0  0  0  0  0  0  0  0  0
    8.6299   -8.5926    0.0000 C   0  0  0  0  0  0  0  0  0  0  0  0
    7.9154   -8.1801    0.0000 C   0  0  0  0  0  0  0  0  0  0  0  0
    7.2009   -8.5926    0.0000 O   0  0  0  0  0  0  0  0  0  0  0  0
    9.3444   -9.8301    0.0000 O   0  0  0  0  0  0  0  0  0  0  0  0
    6.4865  -13.1301    0.0000 O   0  0  0  0  0  0  0  0  0  0  0  0
    7.9154  -12.3051    0.0000 O   0  0  0  0  0  0  0  0  0  0  0  0
  3  2  1  6  0  0  0
  3  4  1  0  0  0  0
  4  5  1  1  0  0  0
  5  1  1  0  0  0  0
  3  6  1  0  0  0  0
  6  7  1  0  0  0  0
  7  8  1  0  0  0  0
  8  9  1  0  0  0  0
  9  4  1  0  0  0  0
  8 10  1  1  0  0  0
 10 11  1  0  0  0  0
 11 12  2  0  0  0  0
 12 13  1  0  0  0  0
 11 14  1  0  0  0  0
 14 15  1  0  0  0  0
 15 16  2  0  0  0  0
 16 17  1  0  0  0  0
 17 12  1  0  0  0  0
 14 18  2  0  0  0  0
  6 19  1  1  0  0  0
  7 20  1  6  0  0  0
M  END
>  <cdx:fragmentId>
5

$$$$
