90501.cdx
  Mrv1902 05222410252D          

 34 37  0  0  0  0            999 V2000
    3.0093  -12.4151    0.0000 O   0  0  0  0  0  0  0  0  0  0  0  0
    3.7238  -13.6526    0.0000 O   0  0  0  0  0  0  0  0  0  0  0  0
    4.4382  -13.2401    0.0000 C   0  0  2  0  0  0  0  0  0  0  0  0
    4.4382  -12.4151    0.0000 C   0  0  1  0  0  0  0  0  0  0  0  0
    3.7238  -12.0026    0.0000 C   0  0  0  0  0  0  0  0  0  0  0  0
    5.1527  -13.6526    0.0000 C   0  0  1  0  0  0  0  0  0  0  0  0
    5.8672  -13.2401    0.0000 C   0  0  2  0  0  0  0  0  0  0  0  0
    5.8672  -12.4151    0.0000 C   0  0  1  0  0  0  0  0  0  0  0  0
    5.1527  -12.0026    0.0000 O   0  0  0  0  0  0  0  0  0  0  0  0
    6.5817  -12.0026    0.0000 O   0  0  0  0  0  0  0  0  0  0  0  0
    6.5817  -11.1776    0.0000 C   0  0  0  0  0  0  0  0  0  0  0  0
    5.8672  -10.7651    0.0000 C   0  0  0  0  0  0  0  0  0  0  0  0
    7.2961  -10.7651    0.0000 C   0  0  0  0  0  0  0  0  0  0  0  0
    7.2961   -9.9401    0.0000 C   0  0  0  0  0  0  0  0  0  0  0  0
    6.5817   -9.5276    0.0000 C   0  0  0  0  0  0  0  0  0  0  0  0
    5.8672   -9.9401    0.0000 C   0  0  0  0  0  0  0  0  0  0  0  0
    8.0106   -9.5276    0.0000 O   0  0  0  0  0  0  0  0  0  0  0  0
    8.0106   -8.7026    0.0000 C   0  0  0  0  0  0  0  0  0  0  0  0
    7.2961   -8.2901    0.0000 C   0  0  0  0  0  0  0  0  0  0  0  0
    6.5817   -8.7026    0.0000 C   0  0  0  0  0  0  0  0  0  0  0  0
    9.4395   -8.7026    0.0000 C   0  0  0  0  0  0  0  0  0  0  0  0
    8.7251   -8.2901    0.0000 C   0  0  0  0  0  0  0  0  0  0  0  0
   10.1540   -8.2901    0.0000 C   0  0  0  0  0  0  0  0  0  0  0  0
   10.1540   -7.4651    0.0000 C   0  0  0  0  0  0  0  0  0  0  0  0
    9.4395   -7.0526    0.0000 C   0  0  0  0  0  0  0  0  0  0  0  0
    8.7251   -7.4651    0.0000 C   0  0  0  0  0  0  0  0  0  0  0  0
   10.8685   -8.7026    0.0000 O   0  0  0  0  0  0  0  0  0  0  0  0
   11.5830   -8.2901    0.0000 C   0  0  0  0  0  0  0  0  0  0  0  0
   10.8685   -7.0526    0.0000 O   0  0  0  0  0  0  0  0  0  0  0  0
    5.1527   -9.5276    0.0000 O   0  0  0  0  0  0  0  0  0  0  0  0
    5.8672   -8.2901    0.0000 O   0  0  0  0  0  0  0  0  0  0  0  0
   10.8685   -6.2276    0.0000 C   0  0  0  0  0  0  0  0  0  0  0  0
    5.1527  -14.4776    0.0000 O   0  0  0  0  0  0  0  0  0  0  0  0
    6.5817  -13.6526    0.0000 O   0  0  0  0  0  0  0  0  0  0  0  0
  3  2  1  6  0  0  0
  3  4  1  0  0  0  0
  4  5  1  1  0  0  0
  5  1  1  0  0  0  0
  3  6  1  0  0  0  0
  6  7  1  0  0  0  0
  7  8  1  0  0  0  0
  8  9  1  0  0  0  0
  9  4  1  0  0  0  0
  8 10  1  1  0  0  0
 10 11  1  0  0  0  0
 11 12  2  0  0  0  0
 11 13  1  0  0  0  0
 13 14  2  0  0  0  0
 14 15  1  0  0  0  0
 15 16  2  0  0  0  0
 16 12  1  0  0  0  0
 14 17  1  0  0  0  0
 17 18  1  0  0  0  0
 18 19  2  0  0  0  0
 19 20  1  0  0  0  0
 20 15  1  0  0  0  0
 21 22  2  0  0  0  0
 22 18  1  0  0  0  0
 21 23  1  0  0  0  0
 23 24  2  0  0  0  0
 24 25  1  0  0  0  0
 25 26  2  0  0  0  0
 26 22  1  0  0  0  0
 23 27  1  0  0  0  0
 27 28  1  0  0  0  0
 29 24  1  0  0  0  0
 16 30  1  0  0  0  0
 20 31  2  0  0  0  0
 29 32  1  0  0  0  0
  6 33  1  1  0  0  0
  7 34  1  6  0  0  0
M  END
>  <cdx:fragmentId>
5

$$$$
