90509.cdx
  Mrv1902 05222410222D          

 46 50  0  0  0  0            999 V2000
    5.2643   -7.9051    0.0000 C   0  0  0  0  0  0  0  0  0  0  0  0
    5.2643   -8.7301    0.0000 C   0  0  0  0  0  0  0  0  0  0  0  0
    5.9788   -9.1426    0.0000 C   0  0  0  0  0  0  0  0  0  0  0  0
    6.6932   -8.7301    0.0000 C   0  0  0  0  0  0  0  0  0  0  0  0
    6.6932   -7.9051    0.0000 C   0  0  0  0  0  0  0  0  0  0  0  0
    5.9788   -7.4926    0.0000 C   0  0  0  0  0  0  0  0  0  0  0  0
    7.4077   -9.1426    0.0000 C   0  0  0  0  0  0  0  0  0  0  0  0
    8.1222   -8.7301    0.0000 C   0  0  0  0  0  0  0  0  0  0  0  0
    8.1222   -7.9051    0.0000 C   0  0  0  0  0  0  0  0  0  0  0  0
    7.4077   -7.4926    0.0000 O   0  3  0  0  0  0  0  0  0  0  0  0
    9.5511   -7.9051    0.0000 C   0  0  0  0  0  0  0  0  0  0  0  0
    8.8367   -7.4926    0.0000 C   0  0  0  0  0  0  0  0  0  0  0  0
   10.2656   -7.4926    0.0000 C   0  0  0  0  0  0  0  0  0  0  0  0
   10.2656   -6.6676    0.0000 C   0  0  0  0  0  0  0  0  0  0  0  0
    9.5511   -6.2551    0.0000 C   0  0  0  0  0  0  0  0  0  0  0  0
    8.8367   -6.6676    0.0000 C   0  0  0  0  0  0  0  0  0  0  0  0
   10.9801   -6.2551    0.0000 O   0  0  0  0  0  0  0  0  0  0  0  0
    9.5511   -5.4301    0.0000 O   0  0  0  0  0  0  0  0  0  0  0  0
    4.5498   -9.9676    0.0000 O   0  0  0  0  0  0  0  0  0  0  0  0
    5.2643  -10.3801    0.0000 C   0  0  1  0  0  0  0  0  0  0  0  0
    5.9788   -9.9676    0.0000 O   0  0  0  0  0  0  0  0  0  0  0  0
    3.8354  -10.3801    0.0000 C   0  0  1  0  0  0  0  0  0  0  0  0
    3.8354  -11.2051    0.0000 C   0  0  2  0  0  0  0  0  0  0  0  0
    4.5498  -11.6176    0.0000 C   0  0  1  0  0  0  0  0  0  0  0  0
    5.2643  -11.2051    0.0000 C   0  0  1  0  0  0  0  0  0  0  0  0
    3.1209   -9.9676    0.0000 C   0  0  0  0  0  0  0  0  0  0  0  0
    2.4064  -10.3801    0.0000 O   0  0  0  0  0  0  0  0  0  0  0  0
    3.1209  -11.6176    0.0000 O   0  0  0  0  0  0  0  0  0  0  0  0
   10.2639  -11.6186    0.0000 O   0  0  0  0  0  0  0  0  0  0  0  0
    8.8344  -12.4426    0.0000 O   0  0  0  0  0  0  0  0  0  0  0  0
    7.4060  -12.4417    0.0000 O   0  0  0  0  0  0  0  0  0  0  0  0
    7.4060  -11.6167    0.0000 C   0  0  0  0  0  0  0  0  0  0  0  0
    8.1213  -10.3797    0.0000 O   0  0  0  0  0  0  0  0  0  0  0  0
    8.1208  -11.2047    0.0000 C   0  0  1  0  0  0  0  0  0  0  0  0
    8.8350  -11.6176    0.0000 C   0  0  2  0  0  0  0  0  0  0  0  0
    9.5497  -11.2056    0.0000 C   0  0  1  0  0  0  0  0  0  0  0  0
    8.8367   -5.0176    0.0000 C   0  0  0  0  0  0  0  0  0  0  0  0
   10.9801   -7.9051    0.0000 O   0  0  0  0  0  0  0  0  0  0  0  0
   11.6945   -7.4926    0.0000 C   0  0  0  0  0  0  0  0  0  0  0  0
    4.5498   -7.4926    0.0000 O   0  0  0  0  0  0  0  0  0  0  0  0
    4.5498  -12.4426    0.0000 O   0  0  0  0  0  0  0  0  0  0  0  0
    8.8361   -9.9676    0.0000 C   0  0  2  0  0  0  0  0  0  0  0  0
    9.5503  -10.3806    0.0000 C   0  0  2  0  0  0  0  0  0  0  0  0
    5.9788  -11.6176    0.0000 O   0  0  0  0  0  0  0  0  0  0  0  0
   10.2650   -9.9686    0.0000 O   0  0  0  0  0  0  0  0  0  0  0  0
    8.8367   -9.1426    0.0000 O   0  0  0  0  0  0  0  0  0  0  0  0
  1  2  1  0  0  0  0
  2  3  2  0  0  0  0
  3  4  1  0  0  0  0
  4  5  1  0  0  0  0
  5  6  1  0  0  0  0
  6  1  2  0  0  0  0
  4  7  2  0  0  0  0
  7  8  1  0  0  0  0
  8  9  2  0  0  0  0
  9 10  1  0  0  0  0
 10  5  2  0  0  0  0
 36 29  1  1  0  0  0
  8 46  1  0  0  0  0
 11 12  2  0  0  0  0
 12  9  1  0  0  0  0
 11 13  1  0  0  0  0
 13 14  2  0  0  0  0
 14 15  1  0  0  0  0
 15 16  2  0  0  0  0
 16 12  1  0  0  0  0
 14 17  1  0  0  0  0
 18 15  1  0  0  0  0
 19 20  1  0  0  0  0
 20 21  1  1  0  0  0
 21  3  1  0  0  0  0
 19 22  1  0  0  0  0
 22 23  1  0  0  0  0
 23 24  1  0  0  0  0
 24 25  1  0  0  0  0
 25 20  1  0  0  0  0
 22 26  1  1  0  0  0
 26 27  1  0  0  0  0
 23 28  1  6  0  0  0
 35 30  1  6  0  0  0
 32 31  1  0  0  0  0
 34 32  1  1  0  0  0
 33 42  1  0  0  0  0
 34 33  1  0  0  0  0
 35 34  1  0  0  0  0
 36 35  1  0  0  0  0
 43 36  1  0  0  0  0
 42 46  1  1  0  0  0
 43 42  1  0  0  0  0
 43 45  1  6  0  0  0
 18 37  1  0  0  0  0
 13 38  1  0  0  0  0
 38 39  1  0  0  0  0
  1 40  1  0  0  0  0
 24 41  1  1  0  0  0
 25 44  1  6  0  0  0
M  CHG  1  10   1
M  END
>  <cdx:fragmentId>
5

$$$$
