90512.cdx
  Mrv1902 05222410232D          

 27 26  0  0  0  0            999 V2000
   13.2772   -9.3361    0.0000 C   0  0  0  0  0  0  0  0  0  0  0  0
   12.7712   -9.6145    0.0000 O   0  0  0  0  0  0  0  0  0  0  0  0
   12.2772   -9.3155    0.0000 C   0  0  0  0  0  0  0  0  0  0  0  0
   11.7712   -9.5939    0.0000 C   0  0  0  0  0  0  0  0  0  0  0  0
   11.2771   -9.2949    0.0000 C   0  0  0  0  0  0  0  0  0  0  0  0
   10.7711   -9.5733    0.0000 C   0  0  0  0  0  0  0  0  0  0  0  0
   10.2771   -9.2743    0.0000 C   0  0  0  0  0  0  0  0  0  0  0  0
    9.7711   -9.5527    0.0000 C   0  0  0  0  0  0  0  0  0  0  0  0
    9.2770   -9.2537    0.0000 C   0  0  0  0  0  0  0  0  0  0  0  0
    8.7710   -9.5321    0.0000 C   0  0  0  0  0  0  0  0  0  0  0  0
    8.2770   -9.2331    0.0000 C   0  0  0  0  0  0  0  0  0  0  0  0
    7.7710   -9.5115    0.0000 C   0  0  0  0  0  0  0  0  0  0  0  0
    7.2769   -9.2125    0.0000 C   0  0  0  0  0  0  0  0  0  0  0  0
    6.7709   -9.4909    0.0000 C   0  0  0  0  0  0  0  0  0  0  0  0
    6.2769   -9.1919    0.0000 C   0  0  0  0  0  0  0  0  0  0  0  0
    5.7709   -9.4703    0.0000 C   0  0  0  0  0  0  0  0  0  0  0  0
    5.2768   -9.1713    0.0000 C   0  0  0  0  0  0  0  0  0  0  0  0
    4.7709   -9.4497    0.0000 C   0  0  0  0  0  0  0  0  0  0  0  0
    4.2768   -9.1508    0.0000 C   0  0  0  0  0  0  0  0  0  0  0  0
    3.7708   -9.4292    0.0000 C   0  0  0  0  0  0  0  0  0  0  0  0
    3.2767   -9.1302    0.0000 C   0  0  0  0  0  0  0  0  0  0  0  0
    2.7708   -9.4086    0.0000 C   0  0  0  0  0  0  0  0  0  0  0  0
    2.2767   -9.1096    0.0000 C   0  0  0  0  0  0  0  0  0  0  0  0
    1.7707   -9.3880    0.0000 C   0  0  0  0  0  0  0  0  0  0  0  0
    1.2766   -9.0890    0.0000 C   0  0  0  0  0  0  0  0  0  0  0  0
   12.2890   -8.7381    0.0000 O   0  0  0  0  0  0  0  0  0  0  0  0
   11.7593  -10.1713    0.0000 O   0  0  0  0  0  0  0  0  0  0  0  0
  2  1  1  0  0  0  0
  3  2  1  0  0  0  0
  4  3  1  0  0  0  0
  5  4  1  0  0  0  0
  6  5  1  0  0  0  0
  7  6  1  0  0  0  0
  8  7  1  0  0  0  0
  9  8  1  0  0  0  0
 10  9  1  0  0  0  0
 11 10  1  0  0  0  0
 12 11  1  0  0  0  0
 13 12  1  0  0  0  0
 14 13  1  0  0  0  0
 15 14  1  0  0  0  0
 16 15  1  0  0  0  0
 17 16  1  0  0  0  0
 18 17  1  0  0  0  0
 19 18  1  0  0  0  0
 20 19  1  0  0  0  0
 21 20  1  0  0  0  0
 22 21  1  0  0  0  0
 23 22  1  0  0  0  0
 24 23  1  0  0  0  0
 25 24  1  0  0  0  0
  3 26  2  0  0  0  0
  4 27  1  0  0  0  0
M  END
>  <cdx:fragmentId>
3

$$$$
