90513.cdx
  Mrv1902 05222410232D          

 38 42  0  0  0  0            999 V2000
    4.5218   -8.6889    0.0000 C   0  0  1  0  0  0  0  0  0  0  0  0
    4.5218   -9.5139    0.0000 C   0  0  2  0  0  0  0  0  0  0  0  0
    5.2363   -9.9264    0.0000 C   0  0  0  0  0  0  0  0  0  0  0  0
    5.9507   -9.5139    0.0000 C   0  0  1  0  0  0  0  0  0  0  0  0
    5.9507   -8.6889    0.0000 C   0  0  2  0  0  0  0  0  0  0  0  0
    5.2363   -8.2764    0.0000 C   0  0  0  0  0  0  0  0  0  0  0  0
    6.6652   -9.9264    0.0000 C   0  0  0  0  0  0  0  0  0  0  0  0
    7.3797   -9.5139    0.0000 C   0  0  0  0  0  0  0  0  0  0  0  0
    7.3797   -8.6889    0.0000 C   0  0  2  0  0  0  0  0  0  0  0  0
    6.6652   -8.2764    0.0000 C   0  0  2  0  0  0  0  0  0  0  0  0
    8.0942   -8.2764    0.0000 C   0  0  1  0  0  0  0  0  0  0  0  0
    8.0942   -7.4514    0.0000 C   0  0  0  0  0  0  0  0  0  0  0  0
    7.3797   -7.0389    0.0000 C   0  0  0  0  0  0  0  0  0  0  0  0
    6.6652   -7.4514    0.0000 C   0  0  0  0  0  0  0  0  0  0  0  0
    8.8086   -8.6889    0.0000 C   0  0  0  0  0  0  0  0  0  0  0  0
    9.5231   -8.2764    0.0000 C   0  0  0  0  0  0  0  0  0  0  0  0
    9.5231   -7.4514    0.0000 C   0  0  2  0  0  0  0  0  0  0  0  0
    8.8086   -7.0389    0.0000 C   0  0  1  0  0  0  0  0  0  0  0  0
   10.2376   -7.0389    0.0000 C   0  0  0  0  0  0  0  0  0  0  0  0
   10.2376   -6.2139    0.0000 C   0  0  0  0  0  0  0  0  0  0  0  0
    9.5231   -5.8014    0.0000 C   0  0  2  0  0  0  0  0  0  0  0  0
    8.8086   -6.2139    0.0000 C   0  0  2  0  0  0  0  0  0  0  0  0
    3.8073   -8.2764    0.0000 O   0  0  0  0  0  0  0  0  0  0  0  0
    3.8073   -9.9264    0.0000 O   0  0  0  0  0  0  0  0  0  0  0  0
    5.9507  -10.3389    0.0000 H   0  0  0  0  0  0  0  0  0  0  0  0
    6.6652   -9.1014    0.0000 H   0  0  0  0  0  0  0  0  0  0  0  0
    8.0942   -9.1014    0.0000 C   0  0  0  0  0  0  0  0  0  0  0  0
    9.5231   -4.9764    0.0000 C   0  0  0  0  0  0  0  0  0  0  0  0
   10.2376   -7.8639    0.0000 C   0  0  0  0  0  0  0  0  0  0  0  0
   10.9520   -7.4514    0.0000 O   0  0  0  0  0  0  0  0  0  0  0  0
   10.2376   -8.6889    0.0000 O   0  0  0  0  0  0  0  0  0  0  0  0
   11.6665   -7.8639    0.0000 C   0  0  0  0  0  0  0  0  0  0  0  0
    4.8238  -10.6409    0.0000 C   0  0  0  0  0  0  0  0  0  0  0  0
    5.6488  -10.6409    0.0000 C   0  0  0  0  0  0  0  0  0  0  0  0
    5.9507   -7.8639    0.0000 C   0  0  0  0  0  0  0  0  0  0  0  0
    7.3797   -7.8639    0.0000 C   0  0  0  0  0  0  0  0  0  0  0  0
    8.8086   -7.8639    0.0000 H   0  0  0  0  0  0  0  0  0  0  0  0
    8.0942   -5.8014    0.0000 C   0  0  0  0  0  0  0  0  0  0  0  0
  1  2  1  0  0  0  0
  2  3  1  0  0  0  0
  3  4  1  0  0  0  0
  4  5  1  0  0  0  0
  5  6  1  0  0  0  0
  6  1  1  0  0  0  0
  4  7  1  0  0  0  0
  7  8  1  0  0  0  0
  8  9  1  0  0  0  0
  9 10  1  0  0  0  0
 10  5  1  0  0  0  0
  9 11  1  0  0  0  0
 11 12  1  0  0  0  0
 12 13  2  0  0  0  0
 13 14  1  0  0  0  0
 14 10  1  0  0  0  0
 11 15  1  0  0  0  0
 15 16  1  0  0  0  0
 16 17  1  0  0  0  0
 17 18  1  0  0  0  0
 18 12  1  0  0  0  0
 17 19  1  0  0  0  0
 19 20  1  0  0  0  0
 20 21  1  0  0  0  0
 21 22  1  0  0  0  0
 22 18  1  0  0  0  0
  1 23  1  6  0  0  0
  2 24  1  6  0  0  0
  4 25  1  6  0  0  0
 10 26  1  6  0  0  0
 11 27  1  6  0  0  0
 21 28  1  6  0  0  0
 17 29  1  1  0  0  0
 29 30  1  0  0  0  0
 29 31  2  0  0  0  0
 30 32  1  0  0  0  0
  3 33  1  0  0  0  0
  3 34  1  0  0  0  0
  5 35  1  1  0  0  0
  9 36  1  1  0  0  0
 18 37  1  1  0  0  0
 22 38  1  1  0  0  0
M  END
>  <cdx:fragmentId>
5

$$$$
