90516.cdx
  Mrv1902 05222410252D          

 25 26  0  0  0  0            999 V2000
    4.0991   -8.9332    0.0000 O   0  0  0  0  0  0  0  0  0  0  0  0
    4.9241   -8.9276    0.0000 C   0  0  2  0  0  0  0  0  0  0  0  0
    5.3317   -8.2104    0.0000 C   0  0  1  0  0  0  0  0  0  0  0  0
    4.9144   -7.4987    0.0000 C   0  0  0  0  0  0  0  0  0  0  0  0
    4.0895   -7.5043    0.0000 O   0  0  0  0  0  0  0  0  0  0  0  0
    5.3413   -9.6393    0.0000 C   0  0  1  0  0  0  0  0  0  0  0  0
    6.1663   -9.6338    0.0000 C   0  0  2  0  0  0  0  0  0  0  0  0
    6.5740   -8.9166    0.0000 C   0  0  1  0  0  0  0  0  0  0  0  0
    6.1567   -8.2049    0.0000 O   0  0  0  0  0  0  0  0  0  0  0  0
    7.3990   -8.9110    0.0000 O   0  0  0  0  0  0  0  0  0  0  0  0
    7.8067   -8.1938    0.0000 C   0  0  0  0  0  0  0  0  0  0  0  0
    7.3894   -7.4821    0.0000 C   0  0  0  0  0  0  0  0  0  0  0  0
    6.5644   -7.4877    0.0000 O   0  0  0  0  0  0  0  0  0  0  0  0
    8.6317   -8.1938    0.0000 C   0  0  0  0  0  0  0  0  0  0  0  0
    9.0394   -7.4821    0.0000 C   0  0  0  0  0  0  0  0  0  0  0  0
    8.6317   -6.7704    0.0000 C   0  0  0  0  0  0  0  0  0  0  0  0
    7.8067   -6.7704    0.0000 C   0  0  0  0  0  0  0  0  0  0  0  0
    9.0442   -8.9082    0.0000 O   0  0  0  0  0  0  0  0  0  0  0  0
    9.0442   -6.0560    0.0000 C   0  0  0  0  0  0  0  0  0  0  0  0
    8.6317   -5.3415    0.0000 O   0  0  0  0  0  0  0  0  0  0  0  0
    9.8691   -6.0560    0.0000 O   0  0  0  0  0  0  0  0  0  0  0  0
   10.2816   -5.3415    0.0000 C   0  0  0  0  0  0  0  0  0  0  0  0
    4.9337  -10.3566    0.0000 O   0  0  0  0  0  0  0  0  0  0  0  0
    6.5836  -10.3455    0.0000 O   0  0  0  0  0  0  0  0  0  0  0  0
    6.1519   -6.7732    0.0000 C   0  0  0  0  0  0  0  0  0  0  0  0
  2  1  1  6  0  0  0
  2  3  1  0  0  0  0
  3  4  1  1  0  0  0
  4  5  1  0  0  0  0
  2  6  1  0  0  0  0
  6  7  1  0  0  0  0
  7  8  1  0  0  0  0
  8  9  1  0  0  0  0
  9  3  1  0  0  0  0
  8 10  1  1  0  0  0
 10 11  1  0  0  0  0
 11 12  1  0  0  0  0
 12 13  1  0  0  0  0
 11 14  2  0  0  0  0
 14 15  1  0  0  0  0
 15 16  2  0  0  0  0
 16 17  1  0  0  0  0
 17 12  2  0  0  0  0
 18 14  1  0  0  0  0
 16 19  1  0  0  0  0
 19 20  2  0  0  0  0
 19 21  1  0  0  0  0
 21 22  1  0  0  0  0
  6 23  1  1  0  0  0
  7 24  1  6  0  0  0
 13 25  1  0  0  0  0
M  END
>  <cdx:fragmentId>
5

$$$$
