90515.cdx
  Mrv1902 05222410252D          

 26 27  0  0  0  0            999 V2000
    5.6631   -9.3076    0.0000 C   0  0  0  0  0  0  0  0  0  0  0  0
    5.6631  -10.1326    0.0000 C   0  0  0  0  0  0  0  0  0  0  0  0
    6.3775  -10.5451    0.0000 C   0  0  0  0  0  0  0  0  0  0  0  0
    7.0920  -10.1326    0.0000 C   0  0  0  0  0  0  0  0  0  0  0  0
    7.0920   -9.3076    0.0000 C   0  0  0  0  0  0  0  0  0  0  0  0
    6.3775   -8.8951    0.0000 C   0  0  0  0  0  0  0  0  0  0  0  0
    7.0920   -7.6576    0.0000 C   0  0  0  0  0  0  0  0  0  0  0  0
    6.3775   -8.0701    0.0000 C   0  0  0  0  0  0  0  0  0  0  0  0
    7.0920   -6.8326    0.0000 C   0  0  0  0  0  0  0  0  0  0  0  0
    6.3775   -6.4201    0.0000 O   0  0  0  0  0  0  0  0  0  0  0  0
    7.8065   -6.4201    0.0000 O   0  0  0  0  0  0  0  0  0  0  0  0
    7.8065   -5.5951    0.0000 C   0  0  0  0  0  0  0  0  0  0  0  0
    7.0920   -5.1826    0.0000 C   0  0  2  0  0  0  0  0  0  0  0  0
    6.3775   -5.5951    0.0000 O   0  0  0  0  0  0  0  0  0  0  0  0
    8.5209   -5.1826    0.0000 C   0  0  1  0  0  0  0  0  0  0  0  0
    8.5209   -4.3576    0.0000 C   0  0  0  0  0  0  0  0  0  0  0  0
    7.8065   -3.9451    0.0000 C   0  0  0  0  0  0  0  0  0  0  0  0
    7.0920   -4.3576    0.0000 C   0  0  0  0  0  0  0  0  0  0  0  0
    6.3775  -11.3701    0.0000 O   0  0  0  0  0  0  0  0  0  0  0  0
    4.9486  -10.5451    0.0000 O   0  0  0  0  0  0  0  0  0  0  0  0
    7.3940   -3.2307    0.0000 O   0  0  0  0  0  0  0  0  0  0  0  0
    8.2190   -3.2307    0.0000 C   0  0  0  0  0  0  0  0  0  0  0  0
    7.8065   -2.5162    0.0000 O   0  0  0  0  0  0  0  0  0  0  0  0
    9.0440   -3.2307    0.0000 O   0  0  0  0  0  0  0  0  0  0  0  0
    9.4565   -2.5162    0.0000 C   0  0  0  0  0  0  0  0  0  0  0  0
    9.2354   -5.5951    0.0000 O   0  0  0  0  0  0  0  0  0  0  0  0
  1  2  2  0  0  0  0
  2  3  1  0  0  0  0
  3  4  2  0  0  0  0
  4  5  1  0  0  0  0
  5  6  2  0  0  0  0
  6  1  1  0  0  0  0
  7  8  2  0  0  0  0
  8  6  1  0  0  0  0
  7  9  1  0  0  0  0
  9 10  2  0  0  0  0
  9 11  1  0  0  0  0
 11 12  1  0  0  0  0
 12 13  1  0  0  0  0
 13 14  1  6  0  0  0
 12 15  1  0  0  0  0
 15 16  1  0  0  0  0
 16 17  1  0  0  0  0
 17 18  1  0  0  0  0
 18 13  1  0  0  0  0
  3 19  1  0  0  0  0
  2 20  1  0  0  0  0
 17 21  1  0  0  0  0
 17 22  1  0  0  0  0
 22 23  2  0  0  0  0
 22 24  1  0  0  0  0
 24 25  1  0  0  0  0
 15 26  1  1  0  0  0
M  END
>  <cdx:fragmentId>
5

$$$$
