90514.cdx
  Mrv1902 05222410242D          

 16 16  0  0  0  0            999 V2000
    6.7218   -9.6926    0.0000 C   0  0  0  0  0  0  0  0  0  0  0  0
    6.7218  -10.5176    0.0000 C   0  0  0  0  0  0  0  0  0  0  0  0
    7.4363  -10.9301    0.0000 C   0  0  0  0  0  0  0  0  0  0  0  0
    8.1507  -10.5176    0.0000 C   0  0  0  0  0  0  0  0  0  0  0  0
    8.1507   -9.6926    0.0000 C   0  0  0  0  0  0  0  0  0  0  0  0
    7.4363   -9.2801    0.0000 C   0  0  0  0  0  0  0  0  0  0  0  0
    7.4363  -11.7551    0.0000 C   0  0  0  0  0  0  0  0  0  0  0  0
    8.1507  -12.1676    0.0000 O   0  0  0  0  0  0  0  0  0  0  0  0
    6.7218  -12.1676    0.0000 O   0  0  0  0  0  0  0  0  0  0  0  0
    6.7218  -12.9926    0.0000 C   0  0  0  0  0  0  0  0  0  0  0  0
    6.0073   -9.2801    0.0000 O   0  0  0  0  0  0  0  0  0  0  0  0
    5.2929   -9.6926    0.0000 C   0  0  0  0  0  0  0  0  0  0  0  0
    7.4363   -8.4551    0.0000 O   0  0  0  0  0  0  0  0  0  0  0  0
    8.1507   -8.0426    0.0000 C   0  0  0  0  0  0  0  0  0  0  0  0
    8.8652   -9.2801    0.0000 O   0  0  0  0  0  0  0  0  0  0  0  0
    9.5797   -9.6926    0.0000 C   0  0  0  0  0  0  0  0  0  0  0  0
  1  2  2  0  0  0  0
  2  3  1  0  0  0  0
  3  4  2  0  0  0  0
  4  5  1  0  0  0  0
  5  6  2  0  0  0  0
  6  1  1  0  0  0  0
  3  7  1  0  0  0  0
  7  8  2  0  0  0  0
  7  9  1  0  0  0  0
  9 10  1  0  0  0  0
  1 11  1  0  0  0  0
 11 12  1  0  0  0  0
  6 13  1  0  0  0  0
 13 14  1  0  0  0  0
  5 15  1  0  0  0  0
 15 16  1  0  0  0  0
M  END
>  <cdx:fragmentId>
5

$$$$
