90518.cdx
  Mrv1902 05222410212D          

 13 12  0  0  0  0            999 V2000
    3.2425   -8.5789    0.0000 C   0  0  0  0  0  0  0  0  0  0  0  0
    3.9570   -8.1664    0.0000 O   0  0  0  0  0  0  0  0  0  0  0  0
    4.6715   -8.5789    0.0000 C   0  0  0  0  0  0  0  0  0  0  0  0
    5.3859   -8.1664    0.0000 C   0  0  0  0  0  0  0  0  0  0  0  0
    6.1004   -8.5789    0.0000 C   0  0  0  0  0  0  0  0  0  0  0  0
    6.8149   -8.1664    0.0000 C   0  0  0  0  0  0  0  0  0  0  0  0
    7.5294   -8.5789    0.0000 C   0  0  0  0  0  0  0  0  0  0  0  0
    8.2438   -8.1664    0.0000 C   0  0  0  0  0  0  0  0  0  0  0  0
    8.9583   -8.5789    0.0000 C   0  0  0  0  0  0  0  0  0  0  0  0
    9.6728   -8.1664    0.0000 C   0  0  0  0  0  0  0  0  0  0  0  0
   10.3872   -8.5789    0.0000 C   0  0  0  0  0  0  0  0  0  0  0  0
    4.6715   -9.4039    0.0000 O   0  0  0  0  0  0  0  0  0  0  0  0
    9.6728   -7.3414    0.0000 C   0  0  0  0  0  0  0  0  0  0  0  0
  1  2  1  0  0  0  0
  2  3  1  0  0  0  0
  3  4  1  0  0  0  0
  4  5  1  0  0  0  0
  5  6  1  0  0  0  0
  6  7  1  0  0  0  0
  7  8  1  0  0  0  0
  8  9  1  0  0  0  0
  9 10  1  0  0  0  0
 10 11  1  0  0  0  0
  3 12  2  0  0  0  0
 10 13  1  0  0  0  0
M  END
>  <cdx:fragmentId>
3

$$$$
