90510.cdx
  Mrv1902 05222410242D          

 16 15  0  0  0  0            999 V2000
   12.5708   -8.1389    0.0000 C   0  0  0  0  0  0  0  0  0  0  0  0
   11.8564   -8.5514    0.0000 C   0  0  0  0  0  0  0  0  0  0  0  0
   11.1419   -8.1389    0.0000 C   0  0  0  0  0  0  0  0  0  0  0  0
   10.4274   -8.5514    0.0000 C   0  0  0  0  0  0  0  0  0  0  0  0
    9.7130   -8.1389    0.0000 C   0  0  0  0  0  0  0  0  0  0  0  0
    8.9985   -8.5514    0.0000 C   0  0  0  0  0  0  0  0  0  0  0  0
    8.2840   -8.1389    0.0000 C   0  0  0  0  0  0  0  0  0  0  0  0
    7.5695   -8.5514    0.0000 C   0  0  0  0  0  0  0  0  0  0  0  0
    6.8551   -8.1389    0.0000 C   0  0  0  0  0  0  0  0  0  0  0  0
    6.1406   -8.5514    0.0000 C   0  0  0  0  0  0  0  0  0  0  0  0
    5.4261   -8.1389    0.0000 C   0  0  0  0  0  0  0  0  0  0  0  0
    4.7117   -8.5514    0.0000 C   0  0  0  0  0  0  0  0  0  0  0  0
    3.9972   -8.1389    0.0000 C   0  0  0  0  0  0  0  0  0  0  0  0
    3.2827   -8.5514    0.0000 C   0  0  0  0  0  0  0  0  0  0  0  0
    2.5682   -8.1389    0.0000 O   0  0  0  0  0  0  0  0  0  0  0  0
    1.8538   -8.5514    0.0000 C   0  0  0  0  0  0  0  0  0  0  0  0
  1  2  1  0  0  0  0
  2  3  1  0  0  0  0
  3  4  1  0  0  0  0
  4  5  1  0  0  0  0
  5  6  1  0  0  0  0
  6  7  1  0  0  0  0
  7  8  1  0  0  0  0
  8  9  1  0  0  0  0
  9 10  1  0  0  0  0
 10 11  1  0  0  0  0
 11 12  1  0  0  0  0
 12 13  1  0  0  0  0
 13 14  2  0  0  0  0
 14 15  1  0  0  0  0
 15 16  1  0  0  0  0
M  END
>  <cdx:fragmentId>
3

$$$$
