90517.cdx
  Mrv1902 05222410252D          

 25 26  0  0  0  0            999 V2000
    9.9108   -7.0901    0.0000 O   0  0  0  0  0  0  0  0  0  0  0  0
    9.1938   -8.3262    0.0000 O   0  0  0  0  0  0  0  0  0  0  0  0
    9.9091   -7.9151    0.0000 C   0  0  2  0  0  0  0  0  0  0  0  0
    9.1921   -9.1512    0.0000 C   0  0  1  0  0  0  0  0  0  0  0  0
    9.9057   -9.5651    0.0000 C   0  0  2  0  0  0  0  0  0  0  0  0
   10.6210   -9.1541    0.0000 C   0  0  1  0  0  0  0  0  0  0  0  0
   10.6227   -8.3291    0.0000 C   0  0  1  0  0  0  0  0  0  0  0  0
    7.0297   -5.4811    0.0000 C   0  0  0  0  0  0  0  0  0  0  0  0
    6.3212   -5.9037    0.0000 C   0  0  0  0  0  0  0  0  0  0  0  0
    5.5891   -4.6766    0.0000 O   0  0  0  0  0  0  0  0  0  0  0  0
    5.6009   -5.5015    0.0000 C   0  0  0  0  0  0  0  0  0  0  0  0
    8.4768   -9.5622    0.0000 C   0  0  0  0  0  0  0  0  0  0  0  0
    8.4751  -10.3872    0.0000 O   0  0  0  0  0  0  0  0  0  0  0  0
   11.3346   -9.5681    0.0000 O   0  0  0  0  0  0  0  0  0  0  0  0
    9.9040  -10.3901    0.0000 O   0  0  0  0  0  0  0  0  0  0  0  0
   11.3380   -7.9181    0.0000 O   0  0  0  0  0  0  0  0  0  0  0  0
    9.8873   -5.4403    0.0000 O   0  0  0  0  0  0  0  0  0  0  0  0
    4.8924   -5.9241    0.0000 O   0  0  0  0  0  0  0  0  0  0  0  0
    4.1721   -5.5219    0.0000 C   0  0  0  0  0  0  0  0  0  0  0  0
    8.4585   -5.4607    0.0000 C   0  0  0  0  0  0  0  0  0  0  0  0
    7.7499   -5.8834    0.0000 C   0  0  0  0  0  0  0  0  0  0  0  0
    7.7617   -6.7083    0.0000 C   0  0  0  0  0  0  0  0  0  0  0  0
    8.4820   -7.1105    0.0000 C   0  0  0  0  0  0  0  0  0  0  0  0
    9.1905   -6.6879    0.0000 C   0  0  0  0  0  0  0  0  0  0  0  0
    9.1787   -5.8630    0.0000 C   0  0  0  0  0  0  0  0  0  0  0  0
  2  3  1  0  0  0  0
  3  1  1  1  0  0  0
  2  4  1  0  0  0  0
  4  5  1  0  0  0  0
  5  6  1  0  0  0  0
 21  8  1  0  0  0  0
  8  9  2  0  0  0  0
 10 11  2  0  0  0  0
 11  9  1  0  0  0  0
  6  7  1  0  0  0  0
  7  3  1  0  0  0  0
  4 12  1  1  0  0  0
 12 13  1  0  0  0  0
  6 14  1  1  0  0  0
  5 15  1  6  0  0  0
  1 24  1  0  0  0  0
 25 17  1  0  0  0  0
  7 16  1  6  0  0  0
 20 25  1  0  0  0  0
 21 20  2  0  0  0  0
 11 18  1  0  0  0  0
 18 19  1  0  0  0  0
 22 21  1  0  0  0  0
 23 22  2  0  0  0  0
 24 23  1  0  0  0  0
 25 24  2  0  0  0  0
M  END
>  <cdx:fragmentId>
5

$$$$
