90511.cdx
  Mrv1902 05222410242D          

 30 35  0  0  0  0            999 V2000
    3.8068   -9.8301    0.0000 C   0  0  0  0  0  0  0  0  0  0  0  0
    3.8068  -10.6551    0.0000 C   0  0  0  0  0  0  0  0  0  0  0  0
    4.5213  -11.0676    0.0000 C   0  0  0  0  0  0  0  0  0  0  0  0
    5.2357  -10.6551    0.0000 C   0  0  0  0  0  0  0  0  0  0  0  0
    5.2357   -9.8301    0.0000 C   0  0  0  0  0  0  0  0  0  0  0  0
    4.5213   -9.4176    0.0000 C   0  0  0  0  0  0  0  0  0  0  0  0
    5.9502  -11.0676    0.0000 C   0  0  0  0  0  0  0  0  0  0  0  0
    6.6647  -10.6551    0.0000 N   0  0  0  0  0  0  0  0  0  0  0  0
    6.6647   -9.8301    0.0000 C   0  0  0  0  0  0  0  0  0  0  0  0
    5.9502   -9.4176    0.0000 C   0  0  0  0  0  0  0  0  0  0  0  0
    7.3792   -9.4176    0.0000 C   0  0  0  0  0  0  0  0  0  0  0  0
    7.3792   -8.5926    0.0000 C   0  0  0  0  0  0  0  0  0  0  0  0
    6.6647   -8.1801    0.0000 C   0  0  0  0  0  0  0  0  0  0  0  0
    5.9502   -8.5926    0.0000 C   0  0  0  0  0  0  0  0  0  0  0  0
    8.0936   -9.8301    0.0000 C   0  0  0  0  0  0  0  0  0  0  0  0
    8.8081   -9.4176    0.0000 C   0  0  0  0  0  0  0  0  0  0  0  0
    8.8081   -8.5926    0.0000 C   0  0  0  0  0  0  0  0  0  0  0  0
    8.0936   -8.1801    0.0000 C   0  0  0  0  0  0  0  0  0  0  0  0
    3.1937  -11.2072    0.0000 O   0  0  0  0  0  0  0  0  0  0  0  0
    3.5293  -11.9609    0.0000 C   0  0  0  0  0  0  0  0  0  0  0  0
    4.3497  -11.8746    0.0000 O   0  0  0  0  0  0  0  0  0  0  0  0
    9.5927   -9.6726    0.0000 O   0  0  0  0  0  0  0  0  0  0  0  0
   10.0776   -9.0051    0.0000 C   0  0  0  0  0  0  0  0  0  0  0  0
    9.5927   -8.3377    0.0000 O   0  0  0  0  0  0  0  0  0  0  0  0
    5.9502  -11.8926    0.0000 C   0  0  0  0  0  0  0  0  0  0  0  0
    7.3792  -11.0676    0.0000 C   0  0  0  0  0  0  0  0  0  0  0  0
    6.6647  -12.3051    0.0000 C   0  0  0  0  0  0  0  0  0  0  0  0
    6.6647  -13.1301    0.0000 O   0  0  0  0  0  0  0  0  0  0  0  0
    7.3792  -11.8926    0.0000 O   0  0  0  0  0  0  0  0  0  0  0  0
    7.3792  -13.5426    0.0000 C   0  0  0  0  0  0  0  0  0  0  0  0
  1  2  2  0  0  0  0
  2  3  1  0  0  0  0
  3  4  2  0  0  0  0
  4  5  1  0  0  0  0
  5  6  2  0  0  0  0
  6  1  1  0  0  0  0
  4  7  1  0  0  0  0
  7  8  1  0  0  0  0
  8  9  1  0  0  0  0
  9 10  2  0  0  0  0
 10  5  1  0  0  0  0
  9 11  1  0  0  0  0
 11 12  2  0  0  0  0
 12 13  1  0  0  0  0
 13 14  2  0  0  0  0
 14 10  1  0  0  0  0
 11 15  1  0  0  0  0
 15 16  2  0  0  0  0
 16 17  1  0  0  0  0
 17 18  2  0  0  0  0
 18 12  1  0  0  0  0
  2 19  1  0  0  0  0
 19 20  1  0  0  0  0
 20 21  1  0  0  0  0
 21  3  1  0  0  0  0
 16 22  1  0  0  0  0
 22 23  1  0  0  0  0
 23 24  1  0  0  0  0
 24 17  1  0  0  0  0
  7 25  1  0  0  0  0
  8 26  1  0  0  0  0
 25 27  1  0  0  0  0
 27 28  1  0  0  0  0
 27 29  2  0  0  0  0
 28 30  1  0  0  0  0
M  END
>  <cdx:fragmentId>
5

$$$$
