90525.cdx
  Mrv1902 05222410212D          

 22 25  0  0  0  0            999 V2000
    3.1743  -10.6826    0.0000 C   0  0  0  0  0  0  0  0  0  0  0  0
    3.1743  -11.5076    0.0000 C   0  0  0  0  0  0  0  0  0  0  0  0
    3.8888  -11.9201    0.0000 C   0  0  0  0  0  0  0  0  0  0  0  0
    4.6032  -11.5076    0.0000 C   0  0  0  0  0  0  0  0  0  0  0  0
    4.6032  -10.6826    0.0000 C   0  0  0  0  0  0  0  0  0  0  0  0
    3.8888  -10.2701    0.0000 C   0  0  0  0  0  0  0  0  0  0  0  0
    5.3177  -11.9201    0.0000 C   0  0  0  0  0  0  0  0  0  0  0  0
    6.0322  -11.5076    0.0000 C   0  0  2  0  0  0  0  0  0  0  0  0
    6.0322  -10.6826    0.0000 C   0  0  0  0  0  0  0  0  0  0  0  0
    5.3177  -10.2701    0.0000 C   0  0  0  0  0  0  0  0  0  0  0  0
    6.7467  -11.9201    0.0000 N   0  0  0  0  0  0  0  0  0  0  0  0
    7.4611  -11.5076    0.0000 C   0  0  0  0  0  0  0  0  0  0  0  0
    7.4611  -10.6826    0.0000 C   0  0  0  0  0  0  0  0  0  0  0  0
    6.7467  -10.2701    0.0000 C   0  0  0  0  0  0  0  0  0  0  0  0
    6.7467   -9.4451    0.0000 C   0  0  0  0  0  0  0  0  0  0  0  0
    6.0322   -9.0326    0.0000 C   0  0  0  0  0  0  0  0  0  0  0  0
    5.3177   -9.4451    0.0000 C   0  0  0  0  0  0  0  0  0  0  0  0
    6.0322   -8.2076    0.0000 O   0  0  0  0  0  0  0  0  0  0  0  0
    4.6032   -8.2076    0.0000 C   0  0  0  0  0  0  0  0  0  0  0  0
    4.6032   -9.0326    0.0000 O   0  0  0  0  0  0  0  0  0  0  0  0
    6.7467  -12.7451    0.0000 C   0  0  0  0  0  0  0  0  0  0  0  0
    6.0322  -12.3326    0.0000 H   0  0  0  0  0  0  0  0  0  0  0  0
  1  2  2  0  0  0  0
  2  3  1  0  0  0  0
  3  4  2  0  0  0  0
  4  5  1  0  0  0  0
  5  6  2  0  0  0  0
  6  1  1  0  0  0  0
  4  7  1  0  0  0  0
  7  8  1  0  0  0  0
  8  9  1  0  0  0  0
  9 10  2  0  0  0  0
 10  5  1  0  0  0  0
  8 11  1  0  0  0  0
 11 12  1  0  0  0  0
 12 13  1  0  0  0  0
 13 14  1  0  0  0  0
 14  9  1  0  0  0  0
 14 15  2  0  0  0  0
 15 16  1  0  0  0  0
 16 17  2  0  0  0  0
 17 10  1  0  0  0  0
 16 18  1  0  0  0  0
 19 20  1  0  0  0  0
 20 17  1  0  0  0  0
 11 21  1  0  0  0  0
  8 22  1  1  0  0  0
M  END
>  <cdx:fragmentId>
5

$$$$
