90524.cdx
  Mrv1902 05222410212D          

 71 78  0  0  0  0            999 V2000
    3.0308   -8.7723    0.0000 C   0  0  1  0  0  0  0  0  0  0  0  0
    3.0376   -9.3498    0.0000 C   0  0  1  0  0  0  0  0  0  0  0  0
    3.5411   -9.6326    0.0000 C   0  0  2  0  0  0  0  0  0  0  0  0
    4.0378   -9.3380    0.0000 C   0  0  1  0  0  0  0  0  0  0  0  0
    4.0310   -8.7606    0.0000 O   0  0  0  0  0  0  0  0  0  0  0  0
    3.5275   -8.4777    0.0000 C   0  0  2  0  0  0  0  0  0  0  0  0
    4.5413   -9.6209    0.0000 O   0  0  0  0  0  0  0  0  0  0  0  0
    5.0380   -9.3263    0.0000 C   0  0  1  0  0  0  0  0  0  0  0  0
    5.0312   -8.7488    0.0000 C   0  0  0  0  0  0  0  0  0  0  0  0
    5.5415   -9.6092    0.0000 C   0  0  0  0  0  0  0  0  0  0  0  0
    6.0382   -9.3146    0.0000 C   0  0  0  0  0  0  0  0  0  0  0  0
    6.0314   -8.7371    0.0000 C   0  0  2  0  0  0  0  0  0  0  0  0
    5.5279   -8.4543    0.0000 C   0  0  0  0  0  0  0  0  0  0  0  0
    6.5416   -9.5974    0.0000 C   0  0  0  0  0  0  0  0  0  0  0  0
    7.0383   -9.3028    0.0000 C   0  0  0  0  0  0  0  0  0  0  0  0
    7.0316   -8.7254    0.0000 C   0  0  2  0  0  0  0  0  0  0  0  0
    6.5281   -8.4425    0.0000 C   0  0  2  0  0  0  0  0  0  0  0  0
    3.5207   -7.9003    0.0000 C   0  0  0  0  0  0  0  0  0  0  0  0
    3.0173   -7.6174    0.0000 O   0  0  0  0  0  0  0  0  0  0  0  0
    2.5273   -8.4895    0.0000 O   0  0  0  0  0  0  0  0  0  0  0  0
    7.5283   -8.4308    0.0000 C   0  0  1  0  0  0  0  0  0  0  0  0
    7.5215   -7.8533    0.0000 C   0  0  2  0  0  0  0  0  0  0  0  0
    7.0180   -7.5705    0.0000 C   0  0  0  0  0  0  0  0  0  0  0  0
    6.5213   -7.8651    0.0000 C   0  0  0  0  0  0  0  0  0  0  0  0
    8.0796   -8.6028    0.0000 C   0  0  0  0  0  0  0  0  0  0  0  0
    8.4135   -8.1316    0.0000 C   0  0  1  0  0  0  0  0  0  0  0  0
    8.0686   -7.6684    0.0000 C   0  0  2  0  0  0  0  0  0  0  0  0
    8.9606   -7.9467    0.0000 O   0  0  0  0  0  0  0  0  0  0  0  0
    8.9538   -7.3693    0.0000 C   0  0  1  0  0  0  0  0  0  0  0  0
    8.4025   -7.1973    0.0000 C   0  0  1  0  0  0  0  0  0  0  0  0
    9.9540   -7.3575    0.0000 C   0  0  0  0  0  0  0  0  0  0  0  0
    9.4505   -7.0747    0.0000 C   0  0  0  0  0  0  0  0  0  0  0  0
   10.9542   -7.3458    0.0000 C   0  0  0  0  0  0  0  0  0  0  0  0
   10.4507   -7.0629    0.0000 C   0  0  2  0  0  0  0  0  0  0  0  0
   11.9612   -7.9115    0.0000 O   0  0  0  0  0  0  0  0  0  0  0  0
   11.9544   -7.3340    0.0000 C   0  0  1  0  0  0  0  0  0  0  0  0
   11.4509   -7.0512    0.0000 O   0  0  0  0  0  0  0  0  0  0  0  0
   12.4647   -8.1944    0.0000 C   0  0  1  0  0  0  0  0  0  0  0  0
   12.9614   -7.8998    0.0000 C   0  0  2  0  0  0  0  0  0  0  0  0
   12.9546   -7.3223    0.0000 C   0  0  1  0  0  0  0  0  0  0  0  0
   12.4511   -7.0395    0.0000 C   0  0  1  0  0  0  0  0  0  0  0  0
    3.5478  -10.2101    0.0000 O   0  0  0  0  0  0  0  0  0  0  0  0
    4.5345   -9.0434    0.0000 H   0  0  0  0  0  0  0  0  0  0  0  0
    6.5349   -9.0200    0.0000 H   0  0  0  0  0  0  0  0  0  0  0  0
    7.5954   -9.0044    0.0000 H   0  0  0  0  0  0  0  0  0  0  0  0
    8.7584   -8.5948    0.0000 H   0  0  0  0  0  0  0  0  0  0  0  0
    7.7237   -7.2052    0.0000 H   0  0  0  0  0  0  0  0  0  0  0  0
    8.2177   -6.6502    0.0000 C   0  0  0  0  0  0  0  0  0  0  0  0
    8.8867   -6.7957    0.0000 O   0  0  0  0  0  0  0  0  0  0  0  0
    3.0511  -10.5047    0.0000 C   0  0  2  0  0  0  0  0  0  0  0  0
    3.0579  -11.0822    0.0000 O   0  0  0  0  0  0  0  0  0  0  0  0
    2.5477  -10.2218    0.0000 C   0  0  1  0  0  0  0  0  0  0  0  0
    2.0509  -10.5164    0.0000 C   0  0  1  0  0  0  0  0  0  0  0  0
    2.0577  -11.0939    0.0000 C   0  0  2  0  0  0  0  0  0  0  0  0
    2.5612  -11.3768    0.0000 C   0  0  2  0  0  0  0  0  0  0  0  0
    3.5253  -10.8343    0.0000 H   0  0  0  0  0  0  0  0  0  0  0  0
    2.5680  -11.9542    0.0000 O   0  0  0  0  0  0  0  0  0  0  0  0
    1.5475  -10.2336    0.0000 O   0  0  0  0  0  0  0  0  0  0  0  0
    2.5409   -9.6444    0.0000 O   0  0  0  0  0  0  0  0  0  0  0  0
    2.5634   -9.0202    0.0000 O   0  0  0  0  0  0  0  0  0  0  0  0
    6.0797   -8.1616    0.0000 C   0  0  0  0  0  0  0  0  0  0  0  0
    7.0799   -8.1499    0.0000 H   0  0  0  0  0  0  0  0  0  0  0  0
    7.2756   -7.3308    0.0000 C   0  0  0  0  0  0  0  0  0  0  0  0
   10.4440   -6.4855    0.0000 C   0  0  0  0  0  0  0  0  0  0  0  0
   13.4513   -7.0277    0.0000 O   0  0  0  0  0  0  0  0  0  0  0  0
   12.4714   -8.7718    0.0000 C   0  0  0  0  0  0  0  0  0  0  0  0
   11.9747   -9.0664    0.0000 O   0  0  0  0  0  0  0  0  0  0  0  0
    1.5610  -11.3885    0.0000 O   0  0  0  0  0  0  0  0  0  0  0  0
   12.4443   -6.4620    0.0000 O   0  0  0  0  0  0  0  0  0  0  0  0
   13.4649   -8.1826    0.0000 O   0  0  0  0  0  0  0  0  0  0  0  0
    9.3499   -6.4508    0.0000 C   0  0  0  0  0  0  0  0  0  0  0  0
  1  2  1  0  0  0  0
  2  3  1  0  0  0  0
  3  4  1  0  0  0  0
  4  5  1  0  0  0  0
  5  6  1  0  0  0  0
  6  1  1  0  0  0  0
  4  7  1  0  0  0  0
  8  7  1  1  0  0  0
  8  9  1  0  0  0  0
  8 10  1  0  0  0  0
 10 11  1  0  0  0  0
 11 12  1  0  0  0  0
 12 13  1  0  0  0  0
 13  9  1  0  0  0  0
 11 14  2  0  0  0  0
 14 15  1  0  0  0  0
 15 16  1  0  0  0  0
 16 17  1  0  0  0  0
 17 12  1  0  0  0  0
  6 18  1  1  0  0  0
 18 19  1  0  0  0  0
  1 20  1  6  0  0  0
 16 21  1  0  0  0  0
 21 22  1  0  0  0  0
 22 23  1  0  0  0  0
 23 24  1  0  0  0  0
 24 17  1  0  0  0  0
 21 25  1  0  0  0  0
 25 26  1  0  0  0  0
 26 27  1  0  0  0  0
 27 22  1  0  0  0  0
 26 28  1  0  0  0  0
 28 29  1  0  0  0  0
 29 30  1  0  0  0  0
 30 27  1  0  0  0  0
 31 32  1  0  0  0  0
 32 29  1  0  0  0  0
 33 34  1  0  0  0  0
 34 31  1  0  0  0  0
 35 36  1  0  0  0  0
 36 37  1  1  0  0  0
 37 33  1  0  0  0  0
 35 38  1  0  0  0  0
 38 39  1  0  0  0  0
 39 40  1  0  0  0  0
 40 41  1  0  0  0  0
 41 36  1  0  0  0  0
  3 42  1  6  0  0  0
  4 43  1  6  0  0  0
 17 44  1  6  0  0  0
 21 45  1  6  0  0  0
 26 46  1  6  0  0  0
 27 47  1  6  0  0  0
 30 48  1  6  0  0  0
 29 49  1  6  0  0  0
 42 50  1  0  0  0  0
 50 51  1  0  0  0  0
 50 52  1  0  0  0  0
 52 53  1  0  0  0  0
 53 54  1  0  0  0  0
 54 55  1  0  0  0  0
 55 51  1  0  0  0  0
 50 56  1  1  0  0  0
 55 57  1  1  0  0  0
 53 58  1  1  0  0  0
 52 59  1  1  0  0  0
  2 60  1  1  0  0  0
 12 61  1  1  0  0  0
 16 62  1  1  0  0  0
 22 63  1  1  0  0  0
 34 64  1  1  0  0  0
 40 65  1  1  0  0  0
 38 66  1  1  0  0  0
 66 67  1  0  0  0  0
 54 68  1  6  0  0  0
 41 69  1  6  0  0  0
 39 70  1  6  0  0  0
 49 71  1  0  0  0  0
M  END
>  <cdx:fragmentId>
5

$$$$
