90529.cdx
  Mrv1902 05222410252D          

 13 13  0  0  0  0            999 V2000
    5.1406   -8.7026    0.0000 C   0  0  0  0  0  0  0  0  0  0  0  0
    5.1406   -9.5276    0.0000 C   0  0  0  0  0  0  0  0  0  0  0  0
    5.8550   -9.9401    0.0000 C   0  0  0  0  0  0  0  0  0  0  0  0
    6.5695   -9.5276    0.0000 C   0  0  0  0  0  0  0  0  0  0  0  0
    6.5695   -8.7026    0.0000 C   0  0  0  0  0  0  0  0  0  0  0  0
    5.8550   -8.2901    0.0000 C   0  0  0  0  0  0  0  0  0  0  0  0
    4.4261   -9.9401    0.0000 O   0  0  0  0  0  0  0  0  0  0  0  0
    3.7116   -9.5276    0.0000 C   0  0  0  0  0  0  0  0  0  0  0  0
    5.8550  -10.7651    0.0000 O   0  0  0  0  0  0  0  0  0  0  0  0
    6.5695  -11.1776    0.0000 C   0  0  0  0  0  0  0  0  0  0  0  0
    5.8550   -7.4651    0.0000 C   0  0  0  0  0  0  0  0  0  0  0  0
    6.5695   -7.0526    0.0000 C   0  0  0  0  0  0  0  0  0  0  0  0
    6.5695   -6.2276    0.0000 C   0  0  0  0  0  0  0  0  0  0  0  0
  1  2  2  0  0  0  0
  2  3  1  0  0  0  0
  3  4  2  0  0  0  0
  4  5  1  0  0  0  0
  5  6  2  0  0  0  0
  6  1  1  0  0  0  0
  2  7  1  0  0  0  0
  7  8  1  0  0  0  0
  3  9  1  0  0  0  0
  9 10  1  0  0  0  0
  6 11  1  0  0  0  0
 11 12  2  0  0  0  0
 12 13  1  0  0  0  0
M  END
>  <cdx:fragmentId>
5

$$$$
