90526.cdx
  Mrv1902 05222410212D          

  8  8  0  0  0  0            999 V2000
    6.3185   -9.7751    0.0000 C   0  0  0  0  0  0  0  0  0  0  0  0
    6.3185  -10.6001    0.0000 C   0  0  0  0  0  0  0  0  0  0  0  0
    6.9635  -11.1145    0.0000 C   0  0  0  0  0  0  0  0  0  0  0  0
    7.7678  -10.9309    0.0000 C   0  0  0  0  0  0  0  0  0  0  0  0
    8.1257  -10.1876    0.0000 C   0  0  0  0  0  0  0  0  0  0  0  0
    7.7678   -9.4444    0.0000 C   0  0  0  0  0  0  0  0  0  0  0  0
    6.9635   -9.2608    0.0000 C   0  0  0  0  0  0  0  0  0  0  0  0
    8.9507  -10.1876    0.0000 C   0  0  0  0  0  0  0  0  0  0  0  0
  1  2  1  0  0  0  0
  2  3  1  0  0  0  0
  3  4  1  0  0  0  0
  4  5  1  0  0  0  0
  5  6  1  0  0  0  0
  6  7  1  0  0  0  0
  7  1  1  0  0  0  0
  5  8  1  0  0  0  0
M  END
>  <cdx:fragmentId>
5

$$$$
