905204.cdx
  Mrv1902 05222410282D          

 36 40  0  0  0  0            999 V2000
    4.3334  -11.8838    0.0000 C   0  0  1  0  0  0  0  0  0  0  0  0
    4.3334  -11.0588    0.0000 C   0  0  0  0  0  0  0  0  0  0  0  0
    5.0479  -10.6463    0.0000 C   0  0  0  0  0  0  0  0  0  0  0  0
    5.0479  -12.2963    0.0000 C   0  0  1  0  0  0  0  0  0  0  0  0
    5.4604  -13.0107    0.0000 C   0  0  0  0  0  0  0  0  0  0  0  0
    5.7624  -11.8838    0.0000 C   0  0  2  0  0  0  0  0  0  0  0  0
    5.7624  -12.7088    0.0000 H   0  0  0  0  0  0  0  0  0  0  0  0
    6.4768  -12.2963    0.0000 C   0  0  0  0  0  0  0  0  0  0  0  0
    7.1913  -11.8838    0.0000 C   0  0  0  0  0  0  0  0  0  0  0  0
    7.1913  -11.0588    0.0000 C   0  0  1  0  0  0  0  0  0  0  0  0
    7.1913  -10.2338    0.0000 C   0  0  0  0  0  0  0  0  0  0  0  0
    7.9058  -10.6463    0.0000 C   0  0  2  0  0  0  0  0  0  0  0  0
    7.9058  -11.4713    0.0000 C   0  0  0  0  0  0  0  0  0  0  0  0
    8.6203  -11.0588    0.0000 C   0  0  0  0  0  0  0  0  0  0  0  0
    9.3347  -10.6463    0.0000 C   0  0  0  0  0  0  0  0  0  0  0  0
    9.3347   -9.8213    0.0000 C   0  0  1  0  0  0  0  0  0  0  0  0
   10.0492  -10.2338    0.0000 C   0  0  0  0  0  0  0  0  0  0  0  0
   10.0492   -9.4088    0.0000 C   0  0  0  0  0  0  0  0  0  0  0  0
   10.0492   -8.5838    0.0000 C   0  0  0  0  0  0  0  0  0  0  0  0
    9.3347   -8.1713    0.0000 C   0  0  0  0  0  0  0  0  0  0  0  0
    9.3347   -7.3463    0.0000 C   0  0  0  0  0  0  0  0  0  0  0  0
    8.6203   -8.5838    0.0000 C   0  0  0  0  0  0  0  0  0  0  0  0
    8.6203   -9.4088    0.0000 C   0  0  1  0  0  0  0  0  0  0  0  0
    8.6203  -10.2338    0.0000 H   0  0  0  0  0  0  0  0  0  0  0  0
    7.9058   -9.8213    0.0000 C   0  0  0  0  0  0  0  0  0  0  0  0
    7.1913   -9.4088    0.0000 C   0  0  0  0  0  0  0  0  0  0  0  0
    6.4768   -9.8213    0.0000 C   0  0  0  0  0  0  0  0  0  0  0  0
    6.4768  -10.6463    0.0000 C   0  0  2  0  0  0  0  0  0  0  0  0
    5.7624  -11.0588    0.0000 C   0  0  1  0  0  0  0  0  0  0  0  0
    5.7624  -10.2338    0.0000 C   0  0  0  0  0  0  0  0  0  0  0  0
   10.0492  -11.0588    0.0000 O   0  0  0  0  0  0  0  0  0  0  0  0
   10.7637   -9.8213    0.0000 O   0  0  0  0  0  0  0  0  0  0  0  0
    5.0479  -13.7252    0.0000 O   0  0  0  0  0  0  0  0  0  0  0  0
    4.6354  -13.0107    0.0000 O   0  0  0  0  0  0  0  0  0  0  0  0
    3.6190  -12.2963    0.0000 O   0  0  0  0  0  0  0  0  0  0  0  0
    6.4768  -11.4713    0.0000 H   0  0  0  0  0  0  0  0  0  0  0  0
  1  2  1  0  0  0  0
  2  3  1  0  0  0  0
  1  4  1  0  0  0  0
  4  5  1  6  0  0  0
  4  6  1  0  0  0  0
  6  7  1  6  0  0  0
  6  8  1  0  0  0  0
  8  9  1  0  0  0  0
  9 10  1  0  0  0  0
 10 11  1  1  0  0  0
 10 12  1  0  0  0  0
 12 13  1  6  0  0  0
 12 14  1  0  0  0  0
 14 15  1  0  0  0  0
 15 16  1  0  0  0  0
 16 17  1  1  0  0  0
 16 18  1  0  0  0  0
 18 19  1  0  0  0  0
 19 20  1  0  0  0  0
 20 21  2  0  0  0  0
 20 22  1  0  0  0  0
 22 23  1  0  0  0  0
 23 24  1  1  0  0  0
 16 23  1  0  0  0  0
 23 25  1  0  0  0  0
 12 25  1  0  0  0  0
 25 26  2  0  0  0  0
 26 27  1  0  0  0  0
 27 28  1  0  0  0  0
 10 28  1  0  0  0  0
 28 29  1  0  0  0  0
  3 29  1  0  0  0  0
  6 29  1  0  0  0  0
 29 30  1  1  0  0  0
 17 31  2  0  0  0  0
 17 32  1  0  0  0  0
  5 33  1  0  0  0  0
  4 34  1  1  0  0  0
  1 35  1  1  0  0  0
 28 36  1  6  0  0  0
M  END
>  <cdx:fragmentId>
192

$$$$
