90527.cdx
  Mrv1902 05222410202D          

  7  7  0  0  0  0            999 V2000
    6.2543   -8.1664    0.0000 C   0  0  0  0  0  0  0  0  0  0  0  0
    6.2543   -8.9914    0.0000 C   0  0  0  0  0  0  0  0  0  0  0  0
    6.9688   -9.4039    0.0000 C   0  0  0  0  0  0  0  0  0  0  0  0
    7.6832   -8.9914    0.0000 C   0  0  0  0  0  0  0  0  0  0  0  0
    7.6832   -8.1664    0.0000 C   0  0  0  0  0  0  0  0  0  0  0  0
    6.9688   -7.7539    0.0000 C   0  0  0  0  0  0  0  0  0  0  0  0
    6.9688   -6.9289    0.0000 C   0  0  0  0  0  0  0  0  0  0  0  0
  1  2  1  0  0  0  0
  2  3  1  0  0  0  0
  3  4  1  0  0  0  0
  4  5  1  0  0  0  0
  5  6  1  0  0  0  0
  6  1  1  0  0  0  0
  6  7  1  0  0  0  0
M  END
>  <cdx:fragmentId>
5

$$$$
