90534.cdx
  Mrv1902 05222410222D          

 22 23  0  0  0  0            999 V2000
    3.4075   -7.8364    0.0000 O   0  0  0  0  0  0  0  0  0  0  0  0
    4.1220   -7.4239    0.0000 C   0  0  1  0  0  0  0  0  0  0  0  0
    4.1220   -6.5989    0.0000 C   0  0  0  0  0  0  0  0  0  0  0  0
    3.4075   -6.1864    0.0000 C   0  0  0  0  0  0  0  0  0  0  0  0
    4.8365   -7.8364    0.0000 C   0  0  1  0  0  0  0  0  0  0  0  0
    5.5509   -7.4239    0.0000 O   0  0  0  0  0  0  0  0  0  0  0  0
    4.8365   -6.1864    0.0000 C   0  0  0  0  0  0  0  0  0  0  0  0
    3.4075   -8.6614    0.0000 O   0  0  0  0  0  0  0  0  0  0  0  0
    4.1220   -9.0739    0.0000 C   0  0  0  0  0  0  0  0  0  0  0  0
    4.8365   -8.6614    0.0000 C   0  0  0  0  0  0  0  0  0  0  0  0
    2.6931   -9.0739    0.0000 C   0  0  0  0  0  0  0  0  0  0  0  0
    4.1220   -9.8989    0.0000 C   0  0  0  0  0  0  0  0  0  0  0  0
    4.8365  -10.3114    0.0000 C   0  0  0  0  0  0  0  0  0  0  0  0
    5.5509   -9.8989    0.0000 C   0  0  0  0  0  0  0  0  0  0  0  0
    5.5509   -9.0739    0.0000 C   0  0  0  0  0  0  0  0  0  0  0  0
    6.2654   -8.6614    0.0000 O   0  0  0  0  0  0  0  0  0  0  0  0
    6.2654   -7.8364    0.0000 C   0  0  0  0  0  0  0  0  0  0  0  0
    6.2654  -10.3114    0.0000 C   0  0  0  0  0  0  0  0  0  0  0  0
    6.9799   -9.8989    0.0000 C   0  0  0  0  0  0  0  0  0  0  0  0
    6.9799   -9.0739    0.0000 C   0  0  0  0  0  0  0  0  0  0  0  0
    7.6944   -8.6614    0.0000 O   0  0  0  0  0  0  0  0  0  0  0  0
    6.9799   -7.4239    0.0000 C   0  0  0  0  0  0  0  0  0  0  0  0
  2  1  1  1  0  0  0
  2  3  1  0  0  0  0
  3  4  1  0  0  0  0
  2  5  1  0  0  0  0
  5  6  1  1  0  0  0
  7  3  2  0  0  0  0
  8  9  1  0  0  0  0
  9 10  1  0  0  0  0
 10  5  1  0  0  0  0
  8 11  1  0  0  0  0
 12  9  2  0  0  0  0
 12 13  1  0  0  0  0
 13 14  2  0  0  0  0
 14 15  1  0  0  0  0
 15 10  2  0  0  0  0
 15 16  1  0  0  0  0
 17  6  1  0  0  0  0
 14 18  1  0  0  0  0
 18 19  2  0  0  0  0
 19 20  1  0  0  0  0
 20 16  1  0  0  0  0
 20 21  2  0  0  0  0
 22 17  1  0  0  0  0
M  END
>  <cdx:fragmentId>
5

$$$$
