90539.cdx
  Mrv1902 05222410242D          

 69 75  0  0  0  0            999 V2000
    6.7218   -8.4964    0.0000 C   0  0  2  0  0  0  0  0  0  0  0  0
    6.7218   -9.3214    0.0000 C   0  0  2  0  0  0  0  0  0  0  0  0
    7.4363   -9.7339    0.0000 C   0  0  1  0  0  0  0  0  0  0  0  0
    8.1507   -9.3214    0.0000 C   0  0  2  0  0  0  0  0  0  0  0  0
    8.1507   -8.4964    0.0000 C   0  0  1  0  0  0  0  0  0  0  0  0
    7.4363   -8.0839    0.0000 O   0  0  0  0  0  0  0  0  0  0  0  0
    6.0073   -8.0839    0.0000 C   0  0  0  0  0  0  0  0  0  0  0  0
    8.8652   -8.0839    0.0000 O   0  0  0  0  0  0  0  0  0  0  0  0
    7.4363  -10.5589    0.0000 O   0  0  0  0  0  0  0  0  0  0  0  0
    6.0073   -9.7339    0.0000 O   0  0  0  0  0  0  0  0  0  0  0  0
    8.8652   -9.7339    0.0000 O   0  0  0  0  0  0  0  0  0  0  0  0
    6.0073  -10.5589    0.0000 C   0  0  0  0  0  0  0  0  0  0  0  0
    5.2929  -10.9714    0.0000 C   0  0  0  0  0  0  0  0  0  0  0  0
    6.7218  -10.9714    0.0000 O   0  0  0  0  0  0  0  0  0  0  0  0
    4.5784  -10.5589    0.0000 C   0  0  0  0  0  0  0  0  0  0  0  0
    3.8639  -10.9714    0.0000 C   0  0  0  0  0  0  0  0  0  0  0  0
    3.8639  -11.7964    0.0000 O   0  0  0  0  0  0  0  0  0  0  0  0
    3.1494  -10.5589    0.0000 O   0  0  0  0  0  0  0  0  0  0  0  0
    5.2929  -11.7964    0.0000 C   0  0  0  0  0  0  0  0  0  0  0  0
    4.5784  -12.2089    0.0000 C   0  0  1  0  0  0  0  0  0  0  0  0
    4.5784  -13.0339    0.0000 C   0  0  0  0  0  0  0  0  0  0  0  0
    5.2929  -13.4464    0.0000 O   0  0  0  0  0  0  0  0  0  0  0  0
    6.0073  -13.0339    0.0000 C   0  0  0  0  0  0  0  0  0  0  0  0
    6.0073  -12.2089    0.0000 C   0  0  0  0  0  0  0  0  0  0  0  0
    6.7218  -13.4464    0.0000 C   0  0  0  0  0  0  0  0  0  0  0  0
    7.4363  -13.0339    0.0000 C   0  0  0  0  0  0  0  0  0  0  0  0
    7.4363  -12.2089    0.0000 C   0  0  0  0  0  0  0  0  0  0  0  0
    6.7218  -11.7964    0.0000 C   0  0  0  0  0  0  0  0  0  0  0  0
    3.8639  -13.4464    0.0000 O   0  0  0  0  0  0  0  0  0  0  0  0
    6.7218  -14.2714    0.0000 O   0  0  0  0  0  0  0  0  0  0  0  0
    8.1507  -13.4464    0.0000 O   0  0  0  0  0  0  0  0  0  0  0  0
    7.4363  -11.3839    0.0000 C   0  0  0  0  0  0  0  0  0  0  0  0
    8.1507  -11.7964    0.0000 O   0  0  0  0  0  0  0  0  0  0  0  0
    7.8488  -10.6694    0.0000 O   0  0  0  0  0  0  0  0  0  0  0  0
    4.7831   -9.5964    0.0000 C   0  0  0  0  0  0  0  0  0  0  0  0
    4.3706   -8.8819    0.0000 C   0  0  0  0  0  0  0  0  0  0  0  0
    4.2531  -10.2287    0.0000 O   0  0  0  0  0  0  0  0  0  0  0  0
    3.9614   -8.1656    0.0000 C   0  0  0  0  0  0  0  0  0  0  0  0
    3.1364   -8.1618    0.0000 C   0  0  0  0  0  0  0  0  0  0  0  0
    2.7206   -8.8743    0.0000 C   0  0  0  0  0  0  0  0  0  0  0  0
    3.1298   -9.5907    0.0000 C   0  0  0  0  0  0  0  0  0  0  0  0
    3.9548   -9.5945    0.0000 C   0  0  0  0  0  0  0  0  0  0  0  0
    6.0073   -7.2589    0.0000 O   0  0  0  0  0  0  0  0  0  0  0  0
    2.7140  -10.3032    0.0000 O   0  0  0  0  0  0  0  0  0  0  0  0
    1.8956   -8.8705    0.0000 O   0  0  0  0  0  0  0  0  0  0  0  0
    2.7272   -7.4454    0.0000 O   0  0  0  0  0  0  0  0  0  0  0  0
    8.8652   -7.2589    0.0000 C   0  0  0  0  0  0  0  0  0  0  0  0
    3.8639  -11.7964    0.0000 O   0  0  0  0  0  0  0  0  0  0  0  0
    9.5797   -6.8464    0.0000 C   0  0  0  0  0  0  0  0  0  0  0  0
    8.1507   -6.8464    0.0000 O   0  0  0  0  0  0  0  0  0  0  0  0
   10.2942   -7.2589    0.0000 C   0  0  0  0  0  0  0  0  0  0  0  0
   11.0086   -6.8464    0.0000 C   0  0  0  0  0  0  0  0  0  0  0  0
   11.0086   -6.0214    0.0000 C   0  0  0  0  0  0  0  0  0  0  0  0
   10.2942   -5.6089    0.0000 C   0  0  0  0  0  0  0  0  0  0  0  0
    9.5797   -6.0214    0.0000 C   0  0  0  0  0  0  0  0  0  0  0  0
   11.7231   -5.6089    0.0000 O   0  0  0  0  0  0  0  0  0  0  0  0
   10.2942   -4.7839    0.0000 O   0  0  0  0  0  0  0  0  0  0  0  0
   11.7231   -7.2589    0.0000 O   0  0  0  0  0  0  0  0  0  0  0  0
    5.2929   -6.8464    0.0000 C   0  0  0  0  0  0  0  0  0  0  0  0
    5.2929   -6.0214    0.0000 O   0  0  0  0  0  0  0  0  0  0  0  0
    4.4679   -6.8464    0.0000 C   0  0  0  0  0  0  0  0  0  0  0  0
    4.4588   -6.0214    0.0000 C   0  0  0  0  0  0  0  0  0  0  0  0
    3.7399   -5.6168    0.0000 C   0  0  0  0  0  0  0  0  0  0  0  0
    3.0300   -6.0371    0.0000 C   0  0  0  0  0  0  0  0  0  0  0  0
    3.0390   -6.8620    0.0000 C   0  0  0  0  0  0  0  0  0  0  0  0
    3.7579   -7.2667    0.0000 C   0  0  0  0  0  0  0  0  0  0  0  0
    2.2140   -6.8620    0.0000 O   0  0  0  0  0  0  0  0  0  0  0  0
    2.3111   -5.6324    0.0000 O   0  0  0  0  0  0  0  0  0  0  0  0
    3.7309   -4.7918    0.0000 O   0  0  0  0  0  0  0  0  0  0  0  0
  1  2  1  0  0  0  0
  2  3  1  0  0  0  0
  3  4  1  0  0  0  0
  4  5  1  0  0  0  0
  5  6  1  0  0  0  0
  6  1  1  0  0  0  0
  1  7  1  1  0  0  0
  5  8  1  1  0  0  0
  3  9  1  1  0  0  0
  2 10  1  6  0  0  0
  4 11  1  6  0  0  0
 10 12  1  0  0  0  0
 12 13  1  0  0  0  0
 12 14  2  0  0  0  0
 13 15  1  0  0  0  0
 15 16  1  0  0  0  0
 13 19  1  0  0  0  0
 19 20  1  0  0  0  0
 20 21  1  0  0  0  0
 21 22  1  0  0  0  0
 22 23  1  0  0  0  0
 23 24  2  0  0  0  0
 24 19  1  0  0  0  0
 23 25  1  0  0  0  0
 25 26  2  0  0  0  0
 26 27  1  0  0  0  0
 27 28  2  0  0  0  0
 28 24  1  0  0  0  0
 21 29  2  0  0  0  0
 25 30  1  0  0  0  0
 26 31  1  0  0  0  0
 28 32  1  0  0  0  0
 32 33  2  0  0  0  0
 32 34  1  0  0  0  0
  9 35  1  0  0  0  0
 35 36  1  0  0  0  0
 35 37  2  0  0  0  0
 36 38  2  0  0  0  0
 38 39  1  0  0  0  0
 39 40  2  0  0  0  0
 40 41  1  0  0  0  0
 41 42  2  0  0  0  0
 42 36  1  0  0  0  0
  7 43  1  0  0  0  0
 41 44  1  0  0  0  0
 40 45  1  0  0  0  0
 39 46  1  0  0  0  0
  8 47  1  0  0  0  0
 20 48  1  1  0  0  0
 47 49  1  0  0  0  0
 47 50  2  0  0  0  0
 49 51  2  0  0  0  0
 51 52  1  0  0  0  0
 52 53  2  0  0  0  0
 53 54  1  0  0  0  0
 54 55  2  0  0  0  0
 55 49  1  0  0  0  0
 53 56  1  0  0  0  0
 54 57  1  0  0  0  0
 52 58  1  0  0  0  0
 43 59  1  0  0  0  0
 59 60  2  0  0  0  0
 59 61  1  0  0  0  0
 61 62  2  0  0  0  0
 62 63  1  0  0  0  0
 63 64  2  0  0  0  0
 64 65  1  0  0  0  0
 65 66  2  0  0  0  0
 66 61  1  0  0  0  0
 66 38  1  0  0  0  0
 65 67  1  0  0  0  0
 64 68  1  0  0  0  0
 63 69  1  0  0  0  0
 16 17  2  0  0  0  0
 16 18  1  0  0  0  0
M  STY  1   1 SUP
M  SAL   1  3  16  17  18
M  SBL   1  1  16
M  SMT   1 COOH
M  SAP   1  1  16  15  1
M  END
>  <cdx:fragmentId>
5

$$$$
