90538.cdx
  Mrv1902 05222410242D          

 16 16  0  0  0  0            999 V2000
    5.5799  -10.1014    0.0000 C   0  0  2  0  0  0  0  0  0  0  0  0
    5.8194  -10.8909    0.0000 C   0  0  2  0  0  0  0  0  0  0  0  0
    6.6443  -10.9071    0.0000 C   0  0  1  0  0  0  0  0  0  0  0  0
    6.9145  -10.1276    0.0000 C   0  0  1  0  0  0  0  0  0  0  0  0
    6.2568   -9.6297    0.0000 O   0  0  0  0  0  0  0  0  0  0  0  0
    4.8005   -9.8311    0.0000 C   0  0  0  0  0  0  0  0  0  0  0  0
    7.1160  -11.5839    0.0000 O   0  0  0  0  0  0  0  0  0  0  0  0
    7.4979   -9.5442    0.0000 O   0  0  0  0  0  0  0  0  0  0  0  0
    5.3215  -11.5487    0.0000 O   0  0  0  0  0  0  0  0  0  0  0  0
    7.6290  -10.5401    0.0000 C   0  0  0  0  0  0  0  0  0  0  0  0
    8.2948   -9.7578    0.0000 C   0  0  0  0  0  0  0  0  0  0  0  0
    8.8782   -9.1744    0.0000 C   0  0  0  0  0  0  0  0  0  0  0  0
    9.6751   -9.3879    0.0000 C   0  0  0  0  0  0  0  0  0  0  0  0
   10.2584   -8.8046    0.0000 C   0  0  0  0  0  0  0  0  0  0  0  0
    8.4259  -10.3266    0.0000 O   0  0  0  0  0  0  0  0  0  0  0  0
    4.1766  -10.3710    0.0000 O   0  0  0  0  0  0  0  0  0  0  0  0
  1  2  1  0  0  0  0
  2  3  1  0  0  0  0
  3  4  1  0  0  0  0
  4  5  1  0  0  0  0
  5  1  1  0  0  0  0
  1  6  1  1  0  0  0
  3  7  1  1  0  0  0
  4  8  1  1  0  0  0
  2  9  1  6  0  0  0
  4 10  1  0  0  0  0
  8 11  1  0  0  0  0
 11 12  1  0  0  0  0
 12 13  1  0  0  0  0
 13 14  1  0  0  0  0
 10 15  1  0  0  0  0
  6 16  1  0  0  0  0
M  END
>  <cdx:fragmentId>
5

$$$$
