90533.cdx
  Mrv1902 05222410202D          

 22 21  0  0  0  0            999 V2000
    0.3550  -10.2564    0.0000 C   0  0  0  0  0  0  0  0  0  0  0  0
    1.0695   -9.8439    0.0000 C   0  0  0  0  0  0  0  0  0  0  0  0
    1.7840  -10.2564    0.0000 C   0  0  0  0  0  0  0  0  0  0  0  0
    2.4984   -9.8439    0.0000 C   0  0  0  0  0  0  0  0  0  0  0  0
    3.2129  -10.2564    0.0000 C   0  0  0  0  0  0  0  0  0  0  0  0
    3.9274   -9.8439    0.0000 C   0  0  0  0  0  0  0  0  0  0  0  0
    4.6419  -10.2564    0.0000 C   0  0  0  0  0  0  0  0  0  0  0  0
    5.3563   -9.8439    0.0000 C   0  0  0  0  0  0  0  0  0  0  0  0
    6.0708  -10.2564    0.0000 C   0  0  0  0  0  0  0  0  0  0  0  0
    6.7853   -9.8439    0.0000 C   0  0  0  0  0  0  0  0  0  0  0  0
    7.4997  -10.2564    0.0000 C   0  0  0  0  0  0  0  0  0  0  0  0
    8.2142   -9.8439    0.0000 C   0  0  0  0  0  0  0  0  0  0  0  0
    8.9287  -10.2564    0.0000 C   0  0  0  0  0  0  0  0  0  0  0  0
    9.6431   -9.8439    0.0000 C   0  0  0  0  0  0  0  0  0  0  0  0
   10.3576  -10.2564    0.0000 C   0  0  0  0  0  0  0  0  0  0  0  0
   11.0721   -9.8439    0.0000 O   0  0  0  0  0  0  0  0  0  0  0  0
   11.7866  -10.2564    0.0000 C   0  0  0  0  0  0  0  0  0  0  0  0
   12.5010   -9.8439    0.0000 C   0  0  0  0  0  0  0  0  0  0  0  0
   13.2155  -10.2564    0.0000 C   0  0  0  0  0  0  0  0  0  0  0  0
   13.9300   -9.8439    0.0000 O   0  0  0  0  0  0  0  0  0  0  0  0
   12.5010   -9.0189    0.0000 O   0  0  0  0  0  0  0  0  0  0  0  0
   10.3576  -11.0814    0.0000 O   0  0  0  0  0  0  0  0  0  0  0  0
  1  2  1  0  0  0  0
  2  3  1  0  0  0  0
  3  4  1  0  0  0  0
  4  5  1  0  0  0  0
  5  6  1  0  0  0  0
  6  7  1  0  0  0  0
  7  8  1  0  0  0  0
  8  9  1  0  0  0  0
  9 10  1  0  0  0  0
 10 11  1  0  0  0  0
 11 12  1  0  0  0  0
 12 13  1  0  0  0  0
 13 14  1  0  0  0  0
 14 15  1  0  0  0  0
 15 16  1  0  0  0  0
 16 17  1  0  0  0  0
 17 18  1  0  0  0  0
 18 19  1  0  0  0  0
 19 20  1  0  0  0  0
 18 21  1  0  0  0  0
 15 22  2  0  0  0  0
M  END
>  <cdx:fragmentId>
3

$$$$
