90536.cdx
  Mrv1902 05222410222D          

 24 23  0  0  0  0            999 V2000
    1.6475  -11.1226    0.0000 C   0  0  0  0  0  0  0  0  0  0  0  0
    2.3620  -10.7101    0.0000 C   0  0  0  0  0  0  0  0  0  0  0  0
    3.0765  -11.1226    0.0000 C   0  0  0  0  0  0  0  0  0  0  0  0
    3.7909  -10.7101    0.0000 C   0  0  0  0  0  0  0  0  0  0  0  0
    4.5054  -11.1226    0.0000 C   0  0  0  0  0  0  0  0  0  0  0  0
    5.2199  -10.7101    0.0000 C   0  0  0  0  0  0  0  0  0  0  0  0
    2.3620   -9.8851    0.0000 C   0  0  0  0  0  0  0  0  0  0  0  0
    3.7909   -9.8851    0.0000 O   0  0  0  0  0  0  0  0  0  0  0  0
    5.9344  -10.2976    0.0000 N   0  3  0  0  0  0  0  0  0  0  0  0
    4.8074   -9.9957    0.0000 C   0  0  0  0  0  0  0  0  0  0  0  0
    5.6324  -11.4246    0.0000 C   0  0  0  0  0  0  0  0  0  0  0  0
    6.6488  -10.7101    0.0000 N   0  0  0  0  0  0  0  0  0  0  0  0
    5.9344   -9.4726    0.0000 O   0  0  0  0  0  0  0  0  0  0  0  0
    7.3633  -10.2976    0.0000 C   0  0  0  0  0  0  0  0  0  0  0  0
    8.0778   -9.8851    0.0000 C   0  0  0  0  0  0  0  0  0  0  0  0
    6.9508   -9.5832    0.0000 C   0  0  0  0  0  0  0  0  0  0  0  0
    7.7758  -11.0121    0.0000 C   0  0  0  0  0  0  0  0  0  0  0  0
    8.7922  -10.2976    0.0000 C   0  0  0  0  0  0  0  0  0  0  0  0
    9.5067   -9.8851    0.0000 C   0  0  0  0  0  0  0  0  0  0  0  0
    8.7922  -11.1226    0.0000 O   0  0  0  0  0  0  0  0  0  0  0  0
   10.2212  -10.2976    0.0000 C   0  0  0  0  0  0  0  0  0  0  0  0
   10.9356   -9.8851    0.0000 C   0  0  0  0  0  0  0  0  0  0  0  0
   10.2212  -11.1226    0.0000 C   0  0  0  0  0  0  0  0  0  0  0  0
    6.6488  -11.5351    0.0000 O   0  5  0  0  0  0  0  0  0  0  0  0
  1  2  1  0  0  0  0
  2  3  2  0  0  0  0
  3  4  1  0  0  0  0
  4  5  1  0  0  0  0
  5  6  1  0  0  0  0
  2  7  1  0  0  0  0
  4  8  2  0  0  0  0
  6  9  1  0  0  0  0
  6 10  1  0  0  0  0
  6 11  1  0  0  0  0
  9 12  1  0  0  0  0
  9 13  2  0  0  0  0
 12 14  1  0  0  0  0
 14 15  1  0  0  0  0
 14 16  1  0  0  0  0
 14 17  1  0  0  0  0
 15 18  1  0  0  0  0
 18 19  1  0  0  0  0
 18 20  2  0  0  0  0
 19 21  2  0  0  0  0
 21 22  1  0  0  0  0
 21 23  1  0  0  0  0
 12 24  1  0  0  0  0
M  CHG  2   9   1  24  -1
M  END
>  <cdx:fragmentId>
3

$$$$
