90537.cdx
  Mrv1902 05222410232D          

 14 16  0  0  0  0            999 V2000
    4.9618   -9.3489    0.0000 C   0  0  0  0  0  0  0  0  0  0  0  0
    4.9618  -10.1739    0.0000 C   0  0  0  0  0  0  0  0  0  0  0  0
    5.6763  -10.5864    0.0000 C   0  0  0  0  0  0  0  0  0  0  0  0
    6.3907  -10.1739    0.0000 C   0  0  0  0  0  0  0  0  0  0  0  0
    6.3907   -9.3489    0.0000 C   0  0  0  0  0  0  0  0  0  0  0  0
    5.6763   -8.9364    0.0000 C   0  0  0  0  0  0  0  0  0  0  0  0
    7.1052  -10.5864    0.0000 C   0  0  0  0  0  0  0  0  0  0  0  0
    7.8197  -10.1739    0.0000 C   0  0  0  0  0  0  0  0  0  0  0  0
    7.8197   -9.3489    0.0000 C   0  0  0  0  0  0  0  0  0  0  0  0
    7.1052   -8.9364    0.0000 C   0  0  0  0  0  0  0  0  0  0  0  0
    8.6043  -10.4288    0.0000 C   0  0  0  0  0  0  0  0  0  0  0  0
    9.0892   -9.7614    0.0000 C   0  0  0  0  0  0  0  0  0  0  0  0
    8.6043   -9.0940    0.0000 O   0  0  0  0  0  0  0  0  0  0  0  0
    9.9142   -9.7614    0.0000 O   0  0  0  0  0  0  0  0  0  0  0  0
  1  2  2  0  0  0  0
  2  3  1  0  0  0  0
  3  4  2  0  0  0  0
  4  5  1  0  0  0  0
  5  6  2  0  0  0  0
  6  1  1  0  0  0  0
  4  7  1  0  0  0  0
  7  8  2  0  0  0  0
  8  9  1  0  0  0  0
  9 10  2  0  0  0  0
 10  5  1  0  0  0  0
  8 11  1  0  0  0  0
 11 12  1  0  0  0  0
 12 13  1  0  0  0  0
 13  9  1  0  0  0  0
 12 14  2  0  0  0  0
M  END
>  <cdx:fragmentId>
5

$$$$
