90530.cdx
  Mrv1902 05222410212D          

 13 13  0  0  0  0            999 V2000
    6.3368  -10.3251    0.0000 C   0  0  2  0  0  0  0  0  0  0  0  0
    6.3368  -11.1501    0.0000 C   0  0  2  0  0  0  0  0  0  0  0  0
    7.0513  -11.5626    0.0000 C   0  0  1  0  0  0  0  0  0  0  0  0
    7.7657  -11.1501    0.0000 C   0  0  1  0  0  0  0  0  0  0  0  0
    7.7657  -10.3251    0.0000 C   0  0  2  0  0  0  0  0  0  0  0  0
    7.0513   -9.9126    0.0000 O   0  0  0  0  0  0  0  0  0  0  0  0
    5.6223   -9.9126    0.0000 C   0  0  0  0  0  0  0  0  0  0  0  0
    4.9079  -10.3251    0.0000 O   0  0  0  0  0  0  0  0  0  0  0  0
    8.4802   -9.9126    0.0000 O   0  0  0  0  0  0  0  0  0  0  0  0
    9.1947  -10.3251    0.0000 C   0  0  0  0  0  0  0  0  0  0  0  0
    7.0513  -12.3876    0.0000 O   0  0  0  0  0  0  0  0  0  0  0  0
    8.4802  -11.5626    0.0000 O   0  0  0  0  0  0  0  0  0  0  0  0
    5.6223  -11.5626    0.0000 O   0  0  0  0  0  0  0  0  0  0  0  0
  1  2  1  0  0  0  0
  2  3  1  0  0  0  0
  3  4  1  0  0  0  0
  4  5  1  0  0  0  0
  5  6  1  0  0  0  0
  6  1  1  0  0  0  0
  1  7  1  1  0  0  0
  7  8  1  0  0  0  0
  5  9  1  6  0  0  0
  9 10  1  0  0  0  0
  3 11  1  1  0  0  0
  4 12  1  1  0  0  0
  2 13  1  6  0  0  0
M  END
>  <cdx:fragmentId>
5

$$$$
