90532.cdx
  Mrv1902 05222410212D          

 26 29  0  0  0  0            999 V2000
    4.4740   -7.4060    0.0000 O   0  0  0  0  0  0  0  0  0  0  0  0
    4.4581   -9.0559    0.0000 O   0  0  0  0  0  0  0  0  0  0  0  0
    8.7844   -4.9723    0.0000 O   0  0  0  0  0  0  0  0  0  0  0  0
    8.7368   -9.9220    0.0000 O   0  0  0  0  0  0  0  0  0  0  0  0
    5.1844   -7.8253    0.0000 C   0  0  0  0  0  0  0  0  0  0  0  0
    5.1765   -8.6503    0.0000 C   0  0  0  0  0  0  0  0  0  0  0  0
    5.8870   -9.0696    0.0000 C   0  0  0  0  0  0  0  0  0  0  0  0
    6.6292   -6.1891    0.0000 C   0  0  0  0  0  0  0  0  0  0  0  0
    5.9108   -6.5947    0.0000 O   0  0  0  0  0  0  0  0  0  0  0  0
    5.9028   -7.4197    0.0000 C   0  0  0  0  0  0  0  0  0  0  0  0
    6.6133   -7.8390    0.0000 C   0  0  0  0  0  0  0  0  0  0  0  0
    6.6054   -8.6640    0.0000 C   0  0  0  0  0  0  0  0  0  0  0  0
    7.3159   -9.0834    0.0000 O   0  0  0  0  0  0  0  0  0  0  0  0
    8.0660   -5.3779    0.0000 C   0  0  0  0  0  0  0  0  0  0  0  0
    7.3555   -4.9585    0.0000 O   0  0  0  0  0  0  0  0  0  0  0  0
    6.6371   -5.3642    0.0000 O   0  0  0  0  0  0  0  0  0  0  0  0
    8.7685   -6.6222    0.0000 C   0  0  0  0  0  0  0  0  0  0  0  0
    8.0581   -6.2029    0.0000 C   0  0  0  0  0  0  0  0  0  0  0  0
    7.3397   -6.6085    0.0000 C   0  0  0  0  0  0  0  0  0  0  0  0
    7.3317   -7.4334    0.0000 C   0  0  0  0  0  0  0  0  0  0  0  0
    9.4711   -7.8665    0.0000 C   0  0  0  0  0  0  0  0  0  0  0  0
    8.7606   -7.4472    0.0000 C   0  0  0  0  0  0  0  0  0  0  0  0
    8.0422   -7.8528    0.0000 C   0  0  0  0  0  0  0  0  0  0  0  0
    8.0343   -8.6777    0.0000 C   0  0  0  0  0  0  0  0  0  0  0  0
    8.7447   -9.0971    0.0000 C   0  0  0  0  0  0  0  0  0  0  0  0
    9.4631   -8.6915    0.0000 C   0  0  0  0  0  0  0  0  0  0  0  0
  5  1  1  0  0  0  0
  6  2  1  0  0  0  0
 14  3  2  0  0  0  0
 25  4  1  0  0  0  0
  5 10  2  0  0  0  0
  6  5  1  0  0  0  0
  7  6  2  0  0  0  0
 12  7  1  0  0  0  0
 11 10  1  0  0  0  0
 11 20  1  0  0  0  0
 12 11  2  0  0  0  0
 13 12  1  0  0  0  0
 24 13  1  0  0  0  0
 14 18  1  0  0  0  0
 15 14  1  0  0  0  0
  8  9  2  0  0  0  0
 19  8  1  0  0  0  0
 16  8  1  0  0  0  0
 17 22  1  0  0  0  0
 18 17  2  0  0  0  0
 19 18  1  0  0  0  0
 20 19  2  0  0  0  0
 23 20  1  0  0  0  0
 21 26  2  0  0  0  0
 22 21  1  0  0  0  0
 23 22  2  0  0  0  0
 24 23  1  0  0  0  0
 25 24  2  0  0  0  0
 26 25  1  0  0  0  0
M  END
>  <cdx:fragmentId>
5

$$$$
