90548.cdx
  Mrv1902 05222410282D          

 22 24  0  0  0  0            999 V2000
    4.2193   -7.5064    0.0000 C   0  0  0  0  0  0  0  0  0  0  0  0
    4.2193   -8.3314    0.0000 C   0  0  0  0  0  0  0  0  0  0  0  0
    4.9338   -8.7439    0.0000 C   0  0  0  0  0  0  0  0  0  0  0  0
    5.6482   -8.3314    0.0000 C   0  0  0  0  0  0  0  0  0  0  0  0
    5.6482   -7.5064    0.0000 C   0  0  0  0  0  0  0  0  0  0  0  0
    4.9338   -7.0939    0.0000 C   0  0  0  0  0  0  0  0  0  0  0  0
    6.3627   -8.7439    0.0000 C   0  0  0  0  0  0  0  0  0  0  0  0
    7.0772   -8.3314    0.0000 N   0  0  0  0  0  0  0  0  0  0  0  0
    7.0772   -7.5064    0.0000 C   0  0  0  0  0  0  0  0  0  0  0  0
    6.3627   -7.0939    0.0000 C   0  0  0  0  0  0  0  0  0  0  0  0
    6.3627   -9.5689    0.0000 C   0  0  0  0  0  0  0  0  0  0  0  0
    7.0772   -9.9814    0.0000 C   0  0  0  0  0  0  0  0  0  0  0  0
    7.7917   -9.5689    0.0000 C   0  0  0  0  0  0  0  0  0  0  0  0
    7.0772  -10.8064    0.0000 C   0  0  0  0  0  0  0  0  0  0  0  0
    7.7917  -11.2189    0.0000 C   0  0  0  0  0  0  0  0  0  0  0  0
    8.5061  -10.8064    0.0000 C   0  0  0  0  0  0  0  0  0  0  0  0
    8.5061   -9.9814    0.0000 C   0  0  0  0  0  0  0  0  0  0  0  0
    3.5048   -7.0939    0.0000 O   0  0  0  0  0  0  0  0  0  0  0  0
    3.5048   -6.2689    0.0000 C   0  0  0  0  0  0  0  0  0  0  0  0
    3.5048   -8.7439    0.0000 O   0  0  0  0  0  0  0  0  0  0  0  0
    3.5048   -9.5689    0.0000 C   0  0  0  0  0  0  0  0  0  0  0  0
    9.2206  -11.2189    0.0000 O   0  0  0  0  0  0  0  0  0  0  0  0
  1  2  2  0  0  0  0
  2  3  1  0  0  0  0
  3  4  2  0  0  0  0
  4  5  1  0  0  0  0
  5  6  2  0  0  0  0
  6  1  1  0  0  0  0
  4  7  1  0  0  0  0
  7  8  1  0  0  0  0
  8  9  1  0  0  0  0
  9 10  1  0  0  0  0
 10  5  1  0  0  0  0
  7 11  1  0  0  0  0
 11 12  1  0  0  0  0
 12 13  2  0  0  0  0
 12 14  1  0  0  0  0
 14 15  2  0  0  0  0
 15 16  1  0  0  0  0
 16 17  2  0  0  0  0
 17 13  1  0  0  0  0
  1 18  1  0  0  0  0
 18 19  1  0  0  0  0
  2 20  1  0  0  0  0
 20 21  1  0  0  0  0
 16 22  1  0  0  0  0
M  END
>  <cdx:fragmentId>
5

$$$$
