90545.cdx
  Mrv1902 05222410182D          

 21 22  0  0  0  0            999 V2000
    7.0626   -4.6072    0.0000 C   0  0  0  0  0  0  0  0  0  0  0  0
    6.2591   -4.4203    0.0000 C   0  0  0  0  0  0  0  0  0  0  0  0
    5.6954   -5.0228    0.0000 C   0  0  0  0  0  0  0  0  0  0  0  0
    5.9354   -5.8121    0.0000 C   0  0  0  0  0  0  0  0  0  0  0  0
    6.7389   -5.9990    0.0000 C   0  0  0  0  0  0  0  0  0  0  0  0
    7.3026   -5.3966    0.0000 C   0  0  0  0  0  0  0  0  0  0  0  0
    5.5093   -6.5186    0.0000 N   0  0  0  0  0  0  0  0  0  0  0  0
    6.0496   -7.1421    0.0000 C   0  0  0  0  0  0  0  0  0  0  0  0
    6.8095   -6.8210    0.0000 C   0  0  0  0  0  0  0  0  0  0  0  0
    7.5160   -7.2470    0.0000 C   0  0  0  0  0  0  0  0  0  0  0  0
    6.9255  -10.9813    0.0000 O   0  0  0  0  0  0  0  0  0  0  0  0
    5.4973  -11.0288    0.0000 O   0  0  0  0  0  0  0  0  0  0  0  0
    6.1977  -10.5928    0.0000 C   0  0  0  0  0  0  0  0  0  0  0  0
    7.5984   -9.7207    0.0000 O   0  0  0  0  0  0  0  0  0  0  0  0
    6.1702   -9.7682    0.0000 C   0  0  0  0  0  0  0  0  0  0  0  0
    6.8706   -9.3322    0.0000 C   0  0  0  0  0  0  0  0  0  0  0  0
    8.2712   -8.4601    0.0000 C   0  0  0  0  0  0  0  0  0  0  0  0
    8.9716   -8.0240    0.0000 O   0  0  0  0  0  0  0  0  0  0  0  0
    8.2987   -9.2846    0.0000 O   0  0  0  0  0  0  0  0  0  0  0  0
    6.8431   -8.5076    0.0000 N   0  0  0  0  0  0  0  0  0  0  0  0
    7.5434   -8.0716    0.0000 C   0  0  1  0  0  0  0  0  0  0  0  0
  1  2  2  0  0  0  0
  2  3  1  0  0  0  0
  3  4  2  0  0  0  0
  4  5  1  0  0  0  0
  5  6  2  0  0  0  0
  6  1  1  0  0  0  0
  4  7  1  0  0  0  0
  7  8  1  0  0  0  0
  8  9  2  0  0  0  0
  9  5  1  0  0  0  0
  9 10  1  0  0  0  0
 13 11  2  0  0  0  0
 10 21  1  0  0  0  0
 13 12  1  0  0  0  0
 15 13  1  0  0  0  0
 16 14  2  0  0  0  0
 16 15  1  0  0  0  0
 20 16  1  0  0  0  0
 17 18  1  0  0  0  0
 21 17  1  0  0  0  0
 17 19  2  0  0  0  0
 21 20  1  1  0  0  0
M  END
>  <cdx:fragmentId>
5

$$$$
