90541.cdx
  Mrv1902 05222410202D          

 16 15  0  0  0  0            999 V2000
    3.1230  -13.7444    0.0000 C   0  0  0  0  0  0  0  0  0  0  0  0
    3.1208  -12.9194    0.0000 C   0  0  0  0  0  0  0  0  0  0  0  0
    3.8342  -12.5050    0.0000 C   0  0  0  0  0  0  0  0  0  0  0  0
    3.8321  -11.6800    0.0000 C   0  0  0  0  0  0  0  0  0  0  0  0
    4.5454  -11.2656    0.0000 C   0  0  0  0  0  0  0  0  0  0  0  0
    4.5433  -10.4406    0.0000 C   0  0  0  0  0  0  0  0  0  0  0  0
    5.2567  -10.0263    0.0000 C   0  0  0  0  0  0  0  0  0  0  0  0
    2.4053  -12.5087    0.0000 C   0  0  0  0  0  0  0  0  0  0  0  0
    3.8277  -10.0300    0.0000 C   0  0  0  0  0  0  0  0  0  0  0  0
    5.9722  -10.4369    0.0000 C   0  0  0  0  0  0  0  0  0  0  0  0
    6.6856  -10.0225    0.0000 O   0  0  0  0  0  0  0  0  0  0  0  0
    7.4012  -10.4332    0.0000 C   0  0  0  0  0  0  0  0  0  0  0  0
    8.1146  -10.0188    0.0000 C   0  0  0  0  0  0  0  0  0  0  0  0
    7.4033  -11.2582    0.0000 O   0  0  0  0  0  0  0  0  0  0  0  0
    8.8301  -10.4294    0.0000 C   0  0  0  0  0  0  0  0  0  0  0  0
    8.1124   -9.1938    0.0000 C   0  0  0  0  0  0  0  0  0  0  0  0
  1  2  1  0  0  0  0
  2  3  2  0  0  0  0
  3  4  1  0  0  0  0
  4  5  1  0  0  0  0
  5  6  1  0  0  0  0
  6  7  2  0  0  0  0
  2  8  1  0  0  0  0
  6  9  1  0  0  0  0
  7 10  1  0  0  0  0
 10 11  1  0  0  0  0
 11 12  1  0  0  0  0
 12 13  1  0  0  0  0
 12 14  2  0  0  0  0
 13 15  1  0  0  0  0
 13 16  1  0  0  0  0
M  END
>  <cdx:fragmentId>
3

$$$$
