90546.cdx
  Mrv1902 05222410192D          

 10 10  0  0  0  0            999 V2000
    5.2266   -6.8216    0.0000 C   0  0  0  0  0  0  0  0  0  0  0  0
    4.5094   -7.2294    0.0000 C   0  0  0  0  0  0  0  0  0  0  0  0
    4.5040   -8.0544    0.0000 C   0  0  0  0  0  0  0  0  0  0  0  0
    5.2158   -8.4716    0.0000 C   0  0  0  0  0  0  0  0  0  0  0  0
    5.9329   -8.0637    0.0000 C   0  0  0  0  0  0  0  0  0  0  0  0
    5.9383   -7.2388    0.0000 C   0  0  0  0  0  0  0  0  0  0  0  0
    6.6555   -6.8309    0.0000 C   0  0  0  0  0  0  0  0  0  0  0  0
    7.3672   -7.2481    0.0000 C   0  0  0  0  0  0  0  0  0  0  0  0
    8.0844   -6.8403    0.0000 N   0  0  0  0  0  0  0  0  0  0  0  0
    8.7962   -7.2575    0.0000 C   0  0  0  0  0  0  0  0  0  0  0  0
  1  2  2  0  0  0  0
  2  3  1  0  0  0  0
  3  4  2  0  0  0  0
  4  5  1  0  0  0  0
  5  6  2  0  0  0  0
  6  1  1  0  0  0  0
  6  7  1  0  0  0  0
  7  8  1  0  0  0  0
  8  9  1  0  0  0  0
  9 10  1  0  0  0  0
M  END
>  <cdx:fragmentId>
5

$$$$
