90543.cdx
  Mrv1902 05222410192D          

 47 51  0  0  0  0            999 V2000
    6.2406   -6.0362    0.0000 C   0  0  0  0  0  0  0  0  0  0  0  0
    6.2406   -6.8613    0.0000 O   0  0  0  0  0  0  0  0  0  0  0  0
    6.9550   -7.2738    0.0000 C   0  0  2  0  0  0  0  0  0  0  0  0
    7.6695   -6.8613    0.0000 C   0  0  1  0  0  0  0  0  0  0  0  0
    7.6695   -6.0362    0.0000 C   0  0  1  0  0  0  0  0  0  0  0  0
    6.9550   -5.6238    0.0000 C   0  0  0  0  0  0  0  0  0  0  0  0
    5.5261   -8.0987    0.0000 O   0  0  0  0  0  0  0  0  0  0  0  0
    6.2406   -8.5113    0.0000 C   0  0  1  0  0  0  0  0  0  0  0  0
    6.9550   -8.0987    0.0000 O   0  0  0  0  0  0  0  0  0  0  0  0
    4.8116   -8.5113    0.0000 C   0  0  1  0  0  0  0  0  0  0  0  0
    4.8116   -9.3362    0.0000 C   0  0  2  0  0  0  0  0  0  0  0  0
    5.5261   -9.7487    0.0000 C   0  0  1  0  0  0  0  0  0  0  0  0
    6.2406   -9.3362    0.0000 C   0  0  1  0  0  0  0  0  0  0  0  0
    4.0971   -8.0987    0.0000 C   0  0  0  0  0  0  0  0  0  0  0  0
    3.3827   -8.5113    0.0000 O   0  0  0  0  0  0  0  0  0  0  0  0
    4.0971   -9.7487    0.0000 O   0  0  0  0  0  0  0  0  0  0  0  0
    8.4541   -7.1162    0.0000 C   0  0  1  0  0  0  0  0  0  0  0  0
    8.9390   -6.4487    0.0000 C   0  0  0  0  0  0  0  0  0  0  0  0
    8.4541   -5.7813    0.0000 C   0  0  1  0  0  0  0  0  0  0  0  0
    8.4541   -7.9412    0.0000 C   0  0  0  0  0  0  0  0  0  0  0  0
    9.1686   -7.5287    0.0000 O   0  0  0  0  0  0  0  0  0  0  0  0
    9.8831   -7.1162    0.0000 C   0  0  0  0  0  0  0  0  0  0  0  0
   10.5975   -7.5287    0.0000 C   0  0  0  0  0  0  0  0  0  0  0  0
    9.8831   -6.2912    0.0000 O   0  0  0  0  0  0  0  0  0  0  0  0
   11.3120   -7.1162    0.0000 C   0  0  0  0  0  0  0  0  0  0  0  0
   12.0265   -7.5287    0.0000 C   0  0  0  0  0  0  0  0  0  0  0  0
   12.0265   -8.3537    0.0000 C   0  0  0  0  0  0  0  0  0  0  0  0
   12.7409   -8.7662    0.0000 C   0  0  0  0  0  0  0  0  0  0  0  0
   13.4554   -8.3537    0.0000 C   0  0  0  0  0  0  0  0  0  0  0  0
   13.4554   -7.5287    0.0000 C   0  0  0  0  0  0  0  0  0  0  0  0
   12.7409   -7.1162    0.0000 C   0  0  0  0  0  0  0  0  0  0  0  0
    5.5261  -10.5737    0.0000 O   0  0  0  0  0  0  0  0  0  0  0  0
    6.9550   -9.7487    0.0000 O   0  0  0  0  0  0  0  0  0  0  0  0
    7.7557   -5.2158    0.0000 O   0  0  0  0  0  0  0  0  0  0  0  0
    8.7091   -4.9967    0.0000 O   0  0  0  0  0  0  0  0  0  0  0  0
    7.6695   -7.6863    0.0000 H   0  0  0  0  0  0  0  0  0  0  0  0
    4.8116  -10.9863    0.0000 C   0  0  2  0  0  0  0  0  0  0  0  0
    4.0971  -10.5737    0.0000 O   0  0  0  0  0  0  0  0  0  0  0  0
    3.3827  -10.9863    0.0000 C   0  0  1  0  0  0  0  0  0  0  0  0
    3.3827  -11.8113    0.0000 C   0  0  2  0  0  0  0  0  0  0  0  0
    4.0971  -12.2237    0.0000 C   0  0  1  0  0  0  0  0  0  0  0  0
    4.8116  -11.8113    0.0000 C   0  0  1  0  0  0  0  0  0  0  0  0
    2.6682  -10.5737    0.0000 C   0  0  0  0  0  0  0  0  0  0  0  0
    4.0971  -13.0487    0.0000 O   0  0  0  0  0  0  0  0  0  0  0  0
    5.5261  -12.2238    0.0000 O   0  0  0  0  0  0  0  0  0  0  0  0
    2.6682  -12.2238    0.0000 O   0  0  0  0  0  0  0  0  0  0  0  0
    1.9537  -10.9863    0.0000 O   0  0  0  0  0  0  0  0  0  0  0  0
  1  2  1  0  0  0  0
  2  3  1  0  0  0  0
  3  4  1  0  0  0  0
  4  5  1  0  0  0  0
  5  6  1  0  0  0  0
  6  1  2  0  0  0  0
  7  8  1  0  0  0  0
  8  9  1  1  0  0  0
  3  9  1  6  0  0  0
  7 10  1  0  0  0  0
 10 11  1  0  0  0  0
 11 12  1  0  0  0  0
 12 13  1  0  0  0  0
 13  8  1  0  0  0  0
 10 14  1  1  0  0  0
 14 15  1  0  0  0  0
 11 16  1  6  0  0  0
  4 17  1  0  0  0  0
 17 18  1  0  0  0  0
 18 19  1  0  0  0  0
 19  5  1  0  0  0  0
 17 20  1  0  0  0  0
 17 21  1  6  0  0  0
 21 22  1  0  0  0  0
 22 23  1  0  0  0  0
 22 24  2  0  0  0  0
 23 25  2  0  0  0  0
 25 26  1  0  0  0  0
 26 27  2  0  0  0  0
 27 28  1  0  0  0  0
 28 29  2  0  0  0  0
 29 30  1  0  0  0  0
 30 31  2  0  0  0  0
 31 26  1  0  0  0  0
 12 32  1  1  0  0  0
 13 33  1  6  0  0  0
  5 34  1  6  0  0  0
 19 35  1  6  0  0  0
  4 36  1  6  0  0  0
 37 32  1  1  0  0  0
 37 38  1  0  0  0  0
 38 39  1  0  0  0  0
 39 40  1  0  0  0  0
 40 41  1  0  0  0  0
 41 42  1  0  0  0  0
 42 37  1  0  0  0  0
 39 43  1  1  0  0  0
 41 44  1  1  0  0  0
 42 45  1  6  0  0  0
 40 46  1  6  0  0  0
 43 47  1  0  0  0  0
M  END
>  <cdx:fragmentId>
46

$$$$
