90540.cdx
  Mrv1902 05222410202D          

100109  0  0  0  0            999 V2000
    1.5106   -5.8839    0.0000 O   0  0  0  0  0  0  0  0  0  0  0  0
    2.5108   -6.4614    0.0000 O   0  0  0  0  0  0  0  0  0  0  0  0
    2.5108   -5.8839    0.0000 C   0  0  2  0  0  0  0  0  0  0  0  0
    2.0107   -5.5951    0.0000 C   0  0  0  0  0  0  0  0  0  0  0  0
    3.0109   -6.7501    0.0000 C   0  0  2  0  0  0  0  0  0  0  0  0
    3.5111   -6.4614    0.0000 C   0  0  1  0  0  0  0  0  0  0  0  0
    3.5111   -5.8839    0.0000 C   0  0  2  0  0  0  0  0  0  0  0  0
    3.0109   -5.5951    0.0000 C   0  0  2  0  0  0  0  0  0  0  0  0
    3.0109   -7.3276    0.0000 O   0  0  0  0  0  0  0  0  0  0  0  0
    3.5111   -7.6164    0.0000 C   0  0  0  0  0  0  0  0  0  0  0  0
    4.0112   -6.7501    0.0000 O   0  0  0  0  0  0  0  0  0  0  0  0
    2.5108   -8.1939    0.0000 O   0  0  0  0  0  0  0  0  0  0  0  0
    3.0109   -8.4826    0.0000 C   0  0  2  0  0  0  0  0  0  0  0  0
    3.5111   -8.1939    0.0000 C   0  0  2  0  0  0  0  0  0  0  0  0
    3.0109   -9.0601    0.0000 C   0  0  1  0  0  0  0  0  0  0  0  0
    3.5111   -9.3489    0.0000 C   0  0  2  0  0  0  0  0  0  0  0  0
    4.0112   -9.0601    0.0000 C   0  0  1  0  0  0  0  0  0  0  0  0
    4.0112   -8.4826    0.0000 O   0  0  0  0  0  0  0  0  0  0  0  0
    4.5113   -9.3489    0.0000 O   0  0  0  0  0  0  0  0  0  0  0  0
    5.0115   -9.0601    0.0000 C   0  0  1  0  0  0  0  0  0  0  0  0
    5.0115   -8.4826    0.0000 C   0  0  0  0  0  0  0  0  0  0  0  0
    5.5116   -9.3489    0.0000 C   0  0  0  0  0  0  0  0  0  0  0  0
    6.0117   -9.0601    0.0000 C   0  0  0  0  0  0  0  0  0  0  0  0
    6.0117   -8.4826    0.0000 C   0  0  1  0  0  0  0  0  0  0  0  0
    5.5116   -8.1939    0.0000 C   0  0  0  0  0  0  0  0  0  0  0  0
    6.5119   -9.3489    0.0000 C   0  0  0  0  0  0  0  0  0  0  0  0
    7.0120   -9.0601    0.0000 C   0  0  0  0  0  0  0  0  0  0  0  0
    7.0120   -8.4826    0.0000 C   0  0  2  0  0  0  0  0  0  0  0  0
    6.5119   -8.1939    0.0000 C   0  0  1  0  0  0  0  0  0  0  0  0
    7.5121   -8.1939    0.0000 C   0  0  1  0  0  0  0  0  0  0  0  0
    7.5121   -7.6164    0.0000 C   0  0  2  0  0  0  0  0  0  0  0  0
    7.0120   -7.3276    0.0000 C   0  0  0  0  0  0  0  0  0  0  0  0
    6.5119   -7.6164    0.0000 C   0  0  1  0  0  0  0  0  0  0  0  0
    8.0613   -8.3724    0.0000 C   0  0  0  0  0  0  0  0  0  0  0  0
    8.4008   -7.9051    0.0000 C   0  0  0  0  0  0  0  0  0  0  0  0
    8.0613   -7.4379    0.0000 C   0  0  2  0  0  0  0  0  0  0  0  0
    2.5108   -9.3489    0.0000 O   0  0  0  0  0  0  0  0  0  0  0  0
    2.4335  -10.2223    0.0000 C   0  0  1  0  0  0  0  0  0  0  0  0
    3.0109  -10.2151    0.0000 C   0  0  2  0  0  0  0  0  0  0  0  0
    3.5111   -9.9264    0.0000 O   0  0  0  0  0  0  0  0  0  0  0  0
    2.1509  -10.7259    0.0000 C   0  0  2  0  0  0  0  0  0  0  0  0
    2.4458  -11.2225    0.0000 C   0  0  1  0  0  0  0  0  0  0  0  0
    3.0233  -11.2153    0.0000 C   0  0  2  0  0  0  0  0  0  0  0  0
    3.3058  -10.7117    0.0000 O   0  0  0  0  0  0  0  0  0  0  0  0
    2.1632  -11.7261    0.0000 O   0  0  0  0  0  0  0  0  0  0  0  0
    3.0356  -12.2155    0.0000 O   0  0  0  0  0  0  0  0  0  0  0  0
    3.3182  -11.7119    0.0000 C   0  0  0  0  0  0  0  0  0  0  0  0
    8.2398   -6.8887    0.0000 C   0  0  2  0  0  0  0  0  0  0  0  0
    7.8534   -6.4595    0.0000 C   0  0  0  0  0  0  0  0  0  0  0  0
    8.8047   -6.7686    0.0000 C   0  0  0  0  0  0  0  0  0  0  0  0
    9.0934   -6.2685    0.0000 C   0  0  0  0  0  0  0  0  0  0  0  0
    9.6709   -6.2685    0.0000 C   0  0  2  0  0  0  0  0  0  0  0  0
    9.9597   -5.7684    0.0000 C   0  0  0  0  0  0  0  0  0  0  0  0
    9.9597   -6.7686    0.0000 O   0  0  0  0  0  0  0  0  0  0  0  0
    9.6709   -5.2682    0.0000 C   0  0  0  0  0  0  0  0  0  0  0  0
   10.5372   -5.7684    0.0000 C   0  0  0  0  0  0  0  0  0  0  0  0
    9.3822   -5.7684    0.0000 O   0  0  0  0  0  0  0  0  0  0  0  0
   10.6364   -8.9446    0.0000 O   0  0  0  0  0  0  0  0  0  0  0  0
   10.6364   -9.5221    0.0000 C   0  0  1  0  0  0  0  0  0  0  0  0
   11.1366   -9.8109    0.0000 C   0  0  2  0  0  0  0  0  0  0  0  0
   11.6367   -9.5221    0.0000 C   0  0  1  0  0  0  0  0  0  0  0  0
   11.6367   -8.9446    0.0000 C   0  0  2  0  0  0  0  0  0  0  0  0
   11.1366   -8.6559    0.0000 C   0  0  2  0  0  0  0  0  0  0  0  0
   10.1363   -9.8109    0.0000 C   0  0  0  0  0  0  0  0  0  0  0  0
   10.1363  -10.3884    0.0000 O   0  0  0  0  0  0  0  0  0  0  0  0
   11.1366  -10.3884    0.0000 O   0  0  0  0  0  0  0  0  0  0  0  0
   12.1368   -8.6559    0.0000 O   0  0  0  0  0  0  0  0  0  0  0  0
   11.6367   -7.7896    0.0000 C   0  0  0  0  0  0  0  0  0  0  0  0
   11.1366   -8.0784    0.0000 O   0  0  0  0  0  0  0  0  0  0  0  0
   11.6367   -7.2121    0.0000 C   0  0  2  0  0  0  0  0  0  0  0  0
   12.2142   -7.2133    0.0000 C   0  0  2  0  0  0  0  0  0  0  0  0
   12.5039   -6.7138    0.0000 C   0  0  1  0  0  0  0  0  0  0  0  0
   12.2162   -6.2130    0.0000 C   0  0  2  0  0  0  0  0  0  0  0  0
   11.6387   -6.2119    0.0000 O   0  0  0  0  0  0  0  0  0  0  0  0
   11.3489   -6.7114    0.0000 C   0  0  1  0  0  0  0  0  0  0  0  0
   12.5059   -5.7135    0.0000 O   0  0  0  0  0  0  0  0  0  0  0  0
   12.2182   -5.2128    0.0000 C   0  0  1  0  0  0  0  0  0  0  0  0
   12.5089   -4.7138    0.0000 C   0  0  1  0  0  0  0  0  0  0  0  0
   12.2182   -4.2125    0.0000 C   0  0  2  0  0  0  0  0  0  0  0  0
   11.6407   -4.2125    0.0000 C   0  0  1  0  0  0  0  0  0  0  0  0
   11.3499   -4.7138    0.0000 C   0  0  2  0  0  0  0  0  0  0  0  0
   11.6407   -5.2128    0.0000 O   0  0  0  0  0  0  0  0  0  0  0  0
   10.7724   -4.7144    0.0000 C   0  0  0  0  0  0  0  0  0  0  0  0
   10.4832   -4.2146    0.0000 O   0  0  0  0  0  0  0  0  0  0  0  0
    3.0109   -5.0176    0.0000 O   0  0  0  0  0  0  0  0  0  0  0  0
    2.1386   -9.7257    0.0000 O   0  0  0  0  0  0  0  0  0  0  0  0
    6.5119   -8.7714    0.0000 C   0  0  0  0  0  0  0  0  0  0  0  0
    7.5725   -7.0421    0.0000 C   0  0  0  0  0  0  0  0  0  0  0  0
   12.1368   -9.8109    0.0000 O   0  0  0  0  0  0  0  0  0  0  0  0
   13.0814   -6.7149    0.0000 O   0  0  0  0  0  0  0  0  0  0  0  0
   11.3524   -3.7121    0.0000 O   0  0  0  0  0  0  0  0  0  0  0  0
   13.0864   -4.7144    0.0000 O   0  0  0  0  0  0  0  0  0  0  0  0
   12.5019   -7.7140    0.0000 O   0  0  0  0  0  0  0  0  0  0  0  0
   12.5064   -3.7121    0.0000 O   0  0  0  0  0  0  0  0  0  0  0  0
    4.0112   -5.5951    0.0000 O   0  0  0  0  0  0  0  0  0  0  0  0
    1.5735  -10.7330    0.0000 O   0  0  0  0  0  0  0  0  0  0  0  0
    7.5725   -8.7682    0.0000 C   0  0  0  0  0  0  0  0  0  0  0  0
    6.0117   -7.3276    0.0000 O   0  0  0  0  0  0  0  0  0  0  0  0
    5.2228   -9.8490    0.0000 C   0  0  0  0  0  0  0  0  0  0  0  0
    5.8003   -9.8490    0.0000 C   0  0  0  0  0  0  0  0  0  0  0  0
  2  3  1  0  0  0  0
  3  4  1  6  0  0  0
  4  1  1  0  0  0  0
  2  5  1  0  0  0  0
  5  6  1  0  0  0  0
  6  7  1  0  0  0  0
  7  8  1  0  0  0  0
  8  3  1  0  0  0  0
  5  9  1  6  0  0  0
  9 10  1  0  0  0  0
  6 11  1  1  0  0  0
 13 12  1  6  0  0  0
 13 14  1  0  0  0  0
 14 10  1  1  0  0  0
 13 15  1  0  0  0  0
 15 16  1  0  0  0  0
 16 17  1  0  0  0  0
 17 18  1  0  0  0  0
 18 14  1  0  0  0  0
 17 19  1  1  0  0  0
 20 19  1  1  0  0  0
 20 21  1  0  0  0  0
 20 22  1  0  0  0  0
 22 23  1  0  0  0  0
 24 23  1  1  0  0  0
 24 25  1  0  0  0  0
 25 21  1  0  0  0  0
 23 26  2  0  0  0  0
 26 27  1  0  0  0  0
 28 27  1  6  0  0  0
 28 29  1  0  0  0  0
 29 24  1  0  0  0  0
 28 30  1  0  0  0  0
 30 31  1  0  0  0  0
 31 32  1  0  0  0  0
 32 33  1  0  0  0  0
 33 29  1  0  0  0  0
 30 34  1  0  0  0  0
 34 35  1  0  0  0  0
 36 35  1  1  0  0  0
 36 31  1  0  0  0  0
 15 37  1  1  0  0  0
 38 39  1  0  0  0  0
 39 40  1  6  0  0  0
 16 40  1  6  0  0  0
 38 41  1  0  0  0  0
 41 42  1  0  0  0  0
 42 43  1  0  0  0  0
 43 44  1  0  0  0  0
 44 39  1  0  0  0  0
 42 45  1  1  0  0  0
 46 47  1  0  0  0  0
 43 47  1  6  0  0  0
 36 48  1  0  0  0  0
 48 49  1  6  0  0  0
 48 50  1  0  0  0  0
 50 51  1  0  0  0  0
 51 52  1  0  0  0  0
 52 53  1  6  0  0  0
 52 54  1  0  0  0  0
 53 55  1  0  0  0  0
 53 56  1  0  0  0  0
 53 57  1  0  0  0  0
 58 59  1  0  0  0  0
 59 60  1  0  0  0  0
 60 61  1  0  0  0  0
 61 62  1  0  0  0  0
 62 63  1  0  0  0  0
 63 58  1  0  0  0  0
 59 64  1  1  0  0  0
 64 65  1  0  0  0  0
 60 66  1  6  0  0  0
 62 67  1  6  0  0  0
 68 69  1  0  0  0  0
 63 69  1  1  0  0  0
 70 68  1  1  0  0  0
 70 71  1  0  0  0  0
 71 72  1  0  0  0  0
 72 73  1  0  0  0  0
 73 74  1  0  0  0  0
 74 75  1  0  0  0  0
 75 70  1  0  0  0  0
 73 76  1  6  0  0  0
 77 76  1  6  0  0  0
 77 78  1  0  0  0  0
 78 79  1  0  0  0  0
 79 80  1  0  0  0  0
 80 81  1  0  0  0  0
 81 82  1  0  0  0  0
 82 77  1  0  0  0  0
 81 83  1  6  0  0  0
 83 84  1  0  0  0  0
  8 85  1  1  0  0  0
 38 86  1  1  0  0  0
 29 87  1  1  0  0  0
 31 88  1  1  0  0  0
 61 89  1  1  0  0  0
 72 90  1  1  0  0  0
 80 91  1  1  0  0  0
 78 92  1  1  0  0  0
 71 93  1  6  0  0  0
 79 94  1  6  0  0  0
  7 95  1  6  0  0  0
 41 96  1  6  0  0  0
 30 97  1  6  0  0  0
 33 98  1  6  0  0  0
 22 99  1  0  0  0  0
 22100  1  0  0  0  0
 75 54  1  6  0  0  0
M  END
>  <cdx:fragmentId>
5

$$$$
