90557.cdx
  Mrv1902 05222410192D          

 35 38  0  0  0  0            999 V2000
    6.8705  -11.8255    0.0000 O   0  0  0  0  0  0  0  0  0  0  0  0
    8.2994  -11.8283    0.0000 O   0  0  0  0  0  0  0  0  0  0  0  0
    8.3011  -11.0033    0.0000 C   0  0  2  0  0  0  0  0  0  0  0  0
    7.5874  -10.5894    0.0000 C   0  0  1  0  0  0  0  0  0  0  0  0
    6.8722  -11.0005    0.0000 C   0  0  0  0  0  0  0  0  0  0  0  0
    9.0164  -10.5923    0.0000 C   0  0  1  0  0  0  0  0  0  0  0  0
    9.0180   -9.7673    0.0000 C   0  0  2  0  0  0  0  0  0  0  0  0
    8.3044   -9.3533    0.0000 C   0  0  1  0  0  0  0  0  0  0  0  0
    7.5891   -9.7644    0.0000 O   0  0  0  0  0  0  0  0  0  0  0  0
    8.3060   -8.5283    0.0000 O   0  0  0  0  0  0  0  0  0  0  0  0
    7.5924   -8.1144    0.0000 C   0  0  0  0  0  0  0  0  0  0  0  0
    6.8771   -8.5255    0.0000 C   0  0  0  0  0  0  0  0  0  0  0  0
    6.8755   -9.3505    0.0000 O   0  0  0  0  0  0  0  0  0  0  0  0
    7.5941   -7.2894    0.0000 C   0  0  0  0  0  0  0  0  0  0  0  0
    6.8804   -6.8755    0.0000 O   0  0  0  0  0  0  0  0  0  0  0  0
    6.1651   -7.2865    0.0000 C   0  0  0  0  0  0  0  0  0  0  0  0
    6.1635   -8.1115    0.0000 C   0  0  0  0  0  0  0  0  0  0  0  0
    5.4515   -6.8726    0.0000 C   0  0  0  0  0  0  0  0  0  0  0  0
    4.7362   -7.2837    0.0000 C   0  0  0  0  0  0  0  0  0  0  0  0
    4.7345   -8.1087    0.0000 C   0  0  0  0  0  0  0  0  0  0  0  0
    5.4482   -8.5226    0.0000 C   0  0  0  0  0  0  0  0  0  0  0  0
    4.0225   -6.8698    0.0000 O   0  0  0  0  0  0  0  0  0  0  0  0
    3.3056   -8.1058    0.0000 C   0  0  0  0  0  0  0  0  0  0  0  0
    4.0192   -8.5198    0.0000 O   0  0  0  0  0  0  0  0  0  0  0  0
    9.0230   -7.2923    0.0000 C   0  0  0  0  0  0  0  0  0  0  0  0
    8.3094   -6.8783    0.0000 C   0  0  0  0  0  0  0  0  0  0  0  0
    9.7383   -6.8812    0.0000 C   0  0  0  0  0  0  0  0  0  0  0  0
    9.7399   -6.0562    0.0000 C   0  0  0  0  0  0  0  0  0  0  0  0
    9.0263   -5.6423    0.0000 C   0  0  0  0  0  0  0  0  0  0  0  0
    8.3110   -6.0533    0.0000 C   0  0  0  0  0  0  0  0  0  0  0  0
    9.7300  -11.0062    0.0000 O   0  0  0  0  0  0  0  0  0  0  0  0
    9.7333   -9.3562    0.0000 O   0  0  0  0  0  0  0  0  0  0  0  0
    5.4465   -9.3476    0.0000 O   0  0  0  0  0  0  0  0  0  0  0  0
   10.4552   -5.6451    0.0000 O   0  0  0  0  0  0  0  0  0  0  0  0
    9.0280   -4.8173    0.0000 O   0  0  0  0  0  0  0  0  0  0  0  0
  3  2  1  6  0  0  0
  3  4  1  0  0  0  0
  4  5  1  1  0  0  0
  5  1  1  0  0  0  0
  3  6  1  0  0  0  0
  6  7  1  0  0  0  0
  7  8  1  0  0  0  0
  8  9  1  0  0  0  0
  9  4  1  0  0  0  0
  8 10  1  1  0  0  0
 10 11  1  0  0  0  0
 11 12  1  0  0  0  0
 12 13  2  0  0  0  0
 11 14  2  0  0  0  0
 14 15  1  0  0  0  0
 15 16  1  0  0  0  0
 16 17  2  0  0  0  0
 17 12  1  0  0  0  0
 16 18  1  0  0  0  0
 18 19  2  0  0  0  0
 19 20  1  0  0  0  0
 20 21  2  0  0  0  0
 21 17  1  0  0  0  0
 19 22  1  0  0  0  0
 23 24  1  0  0  0  0
 24 20  1  0  0  0  0
 25 26  1  0  0  0  0
 26 14  1  0  0  0  0
 25 27  2  0  0  0  0
 27 28  1  0  0  0  0
 28 29  2  0  0  0  0
 29 30  1  0  0  0  0
 30 26  2  0  0  0  0
  6 31  1  1  0  0  0
  7 32  1  6  0  0  0
 21 33  1  0  0  0  0
 28 34  1  0  0  0  0
 29 35  1  0  0  0  0
M  END
>  <cdx:fragmentId>
5

$$$$
