90550.cdx
  Mrv1902 05222410182D          

 31 34  0  0  0  0            999 V2000
    5.1818   -6.7226    0.0000 C   0  0  0  0  0  0  0  0  0  0  0  0
    5.1818   -7.5476    0.0000 C   0  0  0  0  0  0  0  0  0  0  0  0
    5.8963   -7.9601    0.0000 C   0  0  0  0  0  0  0  0  0  0  0  0
    6.6107   -7.5476    0.0000 C   0  0  0  0  0  0  0  0  0  0  0  0
    6.6107   -6.7226    0.0000 C   0  0  0  0  0  0  0  0  0  0  0  0
    5.8963   -6.3101    0.0000 C   0  0  0  0  0  0  0  0  0  0  0  0
    6.6107   -9.1976    0.0000 N   0  0  0  0  0  0  0  0  0  0  0  0
    7.3252   -8.7851    0.0000 C   0  0  2  0  0  0  0  0  0  0  0  0
    7.3252   -7.9601    0.0000 C   0  0  0  0  0  0  0  0  0  0  0  0
    6.6107  -10.0226    0.0000 C   0  0  0  0  0  0  0  0  0  0  0  0
    7.3252  -10.4351    0.0000 C   0  0  0  0  0  0  0  0  0  0  0  0
    8.0397  -10.0226    0.0000 C   0  0  0  0  0  0  0  0  0  0  0  0
    8.0397   -9.1976    0.0000 C   0  0  0  0  0  0  0  0  0  0  0  0
    8.7542  -10.4351    0.0000 C   0  0  0  0  0  0  0  0  0  0  0  0
    9.4686  -10.0226    0.0000 C   0  0  0  0  0  0  0  0  0  0  0  0
    9.4686   -9.1976    0.0000 C   0  0  0  0  0  0  0  0  0  0  0  0
    8.7542   -8.7851    0.0000 C   0  0  0  0  0  0  0  0  0  0  0  0
   10.1831  -10.4351    0.0000 O   0  0  0  0  0  0  0  0  0  0  0  0
   10.1831   -8.7851    0.0000 O   0  0  0  0  0  0  0  0  0  0  0  0
    4.4673   -6.3101    0.0000 O   0  0  0  0  0  0  0  0  0  0  0  0
   10.1864  -11.2585    0.0000 C   0  0  2  0  0  0  0  0  0  0  0  0
    9.4742  -11.6749    0.0000 O   0  0  0  0  0  0  0  0  0  0  0  0
    9.4787  -12.4999    0.0000 C   0  0  1  0  0  0  0  0  0  0  0  0
   10.1955  -12.9085    0.0000 C   0  0  2  0  0  0  0  0  0  0  0  0
   10.9077  -12.4920    0.0000 C   0  0  1  0  0  0  0  0  0  0  0  0
   10.9031  -11.6670    0.0000 C   0  0  1  0  0  0  0  0  0  0  0  0
    8.7666  -12.9164    0.0000 C   0  0  0  0  0  0  0  0  0  0  0  0
   11.6244  -12.9005    0.0000 O   0  0  0  0  0  0  0  0  0  0  0  0
   10.2001  -13.7334    0.0000 O   0  0  0  0  0  0  0  0  0  0  0  0
   11.6153  -11.2506    0.0000 O   0  0  0  0  0  0  0  0  0  0  0  0
    8.7711  -13.7414    0.0000 O   0  0  0  0  0  0  0  0  0  0  0  0
  1  2  1  0  0  0  0
  2  3  2  0  0  0  0
  3  4  1  0  0  0  0
  4  5  2  0  0  0  0
  5  6  1  0  0  0  0
  6  1  2  0  0  0  0
  7  8  1  0  0  0  0
  8  9  1  6  0  0  0
  9  4  1  0  0  0  0
  7 10  1  0  0  0  0
 10 11  1  0  0  0  0
 11 12  1  0  0  0  0
 12 13  2  0  0  0  0
 13  8  1  0  0  0  0
 12 14  1  0  0  0  0
 14 15  2  0  0  0  0
 15 16  1  0  0  0  0
 16 17  2  0  0  0  0
 17 13  1  0  0  0  0
 15 18  1  0  0  0  0
 19 16  1  0  0  0  0
  1 20  1  0  0  0  0
 21 22  1  0  0  0  0
 22 23  1  0  0  0  0
 23 24  1  0  0  0  0
 24 25  1  0  0  0  0
 25 26  1  0  0  0  0
 26 21  1  0  0  0  0
 23 27  1  1  0  0  0
 25 28  1  1  0  0  0
 24 29  1  6  0  0  0
 26 30  1  6  0  0  0
 27 31  1  0  0  0  0
 21 18  1  1  0  0  0
M  END
>  <cdx:fragmentId>
5

$$$$
