90558.cdx
  Mrv1902 05222410262D          

 45 49  0  0  0  0            999 V2000
    3.1056   -8.7439    0.0000 C   0  0  0  0  0  0  0  0  0  0  0  0
    3.8200   -9.1564    0.0000 O   0  0  0  0  0  0  0  0  0  0  0  0
    4.5345   -8.7439    0.0000 C   0  0  0  0  0  0  0  0  0  0  0  0
    4.5345   -7.9189    0.0000 C   0  0  0  0  0  0  0  0  0  0  0  0
    3.8200   -7.5064    0.0000 O   0  0  0  0  0  0  0  0  0  0  0  0
    5.2490   -9.1564    0.0000 C   0  0  0  0  0  0  0  0  0  0  0  0
    5.9634   -8.7439    0.0000 C   0  0  0  0  0  0  0  0  0  0  0  0
    5.9634   -7.9189    0.0000 C   0  0  0  0  0  0  0  0  0  0  0  0
    5.2490   -7.5064    0.0000 C   0  0  0  0  0  0  0  0  0  0  0  0
    6.6779   -9.1564    0.0000 C   0  0  0  0  0  0  0  0  0  0  0  0
    7.3924   -8.7439    0.0000 C   0  0  0  0  0  0  0  0  0  0  0  0
    7.3924   -7.9189    0.0000 C   0  0  0  0  0  0  0  0  0  0  0  0
    6.6779   -7.5064    0.0000 O   0  0  0  0  0  0  0  0  0  0  0  0
    5.2490   -9.9814    0.0000 O   0  0  0  0  0  0  0  0  0  0  0  0
    6.6779   -9.9814    0.0000 O   0  0  0  0  0  0  0  0  0  0  0  0
    7.3924  -10.3939    0.0000 O   0  0  0  0  0  0  0  0  0  0  0  0
    8.1069   -9.9814    0.0000 C   0  0  1  0  0  0  0  0  0  0  0  0
    8.1069   -9.1564    0.0000 O   0  0  0  0  0  0  0  0  0  0  0  0
    8.8213   -7.9189    0.0000 C   0  0  0  0  0  0  0  0  0  0  0  0
    8.1069   -7.5064    0.0000 C   0  0  0  0  0  0  0  0  0  0  0  0
    9.5358   -7.5064    0.0000 C   0  0  0  0  0  0  0  0  0  0  0  0
    9.5358   -6.6814    0.0000 C   0  0  0  0  0  0  0  0  0  0  0  0
    8.8213   -6.2689    0.0000 C   0  0  0  0  0  0  0  0  0  0  0  0
    8.1069   -6.6814    0.0000 C   0  0  0  0  0  0  0  0  0  0  0  0
    7.3924  -11.2189    0.0000 C   0  0  1  0  0  0  0  0  0  0  0  0
    8.1069  -11.6314    0.0000 C   0  0  2  0  0  0  0  0  0  0  0  0
    8.8213  -11.2189    0.0000 C   0  0  1  0  0  0  0  0  0  0  0  0
    8.8213  -10.3939    0.0000 C   0  0  1  0  0  0  0  0  0  0  0  0
    6.6779  -11.6314    0.0000 C   0  0  0  0  0  0  0  0  0  0  0  0
    6.6779  -12.4564    0.0000 O   0  0  0  0  0  0  0  0  0  0  0  0
    8.1069  -12.4564    0.0000 O   0  0  0  0  0  0  0  0  0  0  0  0
    5.2490  -12.4564    0.0000 O   0  0  0  0  0  0  0  0  0  0  0  0
    5.9634  -12.8689    0.0000 C   0  0  2  0  0  0  0  0  0  0  0  0
    4.5345  -12.8689    0.0000 C   0  0  2  0  0  0  0  0  0  0  0  0
    4.5345  -13.6939    0.0000 C   0  0  1  0  0  0  0  0  0  0  0  0
    5.2490  -14.1064    0.0000 C   0  0  2  0  0  0  0  0  0  0  0  0
    5.9634  -13.6939    0.0000 C   0  0  1  0  0  0  0  0  0  0  0  0
    3.8200  -14.1064    0.0000 O   0  0  0  0  0  0  0  0  0  0  0  0
    5.2490  -14.9314    0.0000 O   0  0  0  0  0  0  0  0  0  0  0  0
    3.8200  -12.4564    0.0000 C   0  0  0  0  0  0  0  0  0  0  0  0
    6.6779  -14.1064    0.0000 O   0  0  0  0  0  0  0  0  0  0  0  0
    9.5358  -11.6314    0.0000 O   0  0  0  0  0  0  0  0  0  0  0  0
    9.5358   -9.9814    0.0000 O   0  0  0  0  0  0  0  0  0  0  0  0
   10.2503   -6.2689    0.0000 O   0  0  0  0  0  0  0  0  0  0  0  0
    8.8213   -5.4439    0.0000 O   0  0  0  0  0  0  0  0  0  0  0  0
  1  2  1  0  0  0  0
  2  3  1  0  0  0  0
  3  4  1  0  0  0  0
  4  5  1  0  0  0  0
  3  6  2  0  0  0  0
  6  7  1  0  0  0  0
  7  8  2  0  0  0  0
  8  9  1  0  0  0  0
  9  4  2  0  0  0  0
  7 10  1  0  0  0  0
 10 11  1  0  0  0  0
 11 12  2  0  0  0  0
 12 13  1  0  0  0  0
 13  8  1  0  0  0  0
  6 14  1  0  0  0  0
 15 10  2  0  0  0  0
 16 17  1  0  0  0  0
 17 18  1  1  0  0  0
 18 11  1  0  0  0  0
 19 20  1  0  0  0  0
 20 12  1  0  0  0  0
 19 21  2  0  0  0  0
 21 22  1  0  0  0  0
 22 23  2  0  0  0  0
 23 24  1  0  0  0  0
 24 20  2  0  0  0  0
 16 25  1  0  0  0  0
 25 26  1  0  0  0  0
 26 27  1  0  0  0  0
 27 28  1  0  0  0  0
 28 17  1  0  0  0  0
 25 29  1  1  0  0  0
 29 30  1  0  0  0  0
 26 31  1  6  0  0  0
 32 33  1  0  0  0  0
 33 30  1  1  0  0  0
 32 34  1  0  0  0  0
 34 35  1  0  0  0  0
 35 36  1  0  0  0  0
 36 37  1  0  0  0  0
 37 33  1  0  0  0  0
 35 38  1  1  0  0  0
 36 39  1  6  0  0  0
 34 40  1  6  0  0  0
 37 41  1  6  0  0  0
 27 42  1  1  0  0  0
 28 43  1  6  0  0  0
 22 44  1  0  0  0  0
 23 45  1  0  0  0  0
M  END
>  <cdx:fragmentId>
5

$$$$
