90559.cdx
  Mrv1902 05222410262D          

 35 38  0  0  0  0            999 V2000
    3.2702   -9.5420    0.0000 O   0  0  0  0  0  0  0  0  0  0  0  0
   10.7198   -5.9972    0.0000 O   0  0  0  0  0  0  0  0  0  0  0  0
   12.1531   -6.8145    0.0000 O   0  0  0  0  0  0  0  0  0  0  0  0
    4.9201   -9.5241    0.0000 O   0  0  0  0  0  0  0  0  0  0  0  0
   11.4452   -8.0558    0.0000 C   0  0  0  0  0  0  0  0  0  0  0  0
   11.4408   -7.2308    0.0000 C   0  0  0  0  0  0  0  0  0  0  0  0
   10.7242   -6.8221    0.0000 C   0  0  0  0  0  0  0  0  0  0  0  0
   10.0119   -7.2384    0.0000 C   0  0  0  0  0  0  0  0  0  0  0  0
   10.0251   -9.7134    0.0000 O   0  0  0  0  0  0  0  0  0  0  0  0
   10.7330   -8.4721    0.0000 C   0  0  0  0  0  0  0  0  0  0  0  0
   10.0163   -8.0634    0.0000 C   0  0  0  0  0  0  0  0  0  0  0  0
    9.3084   -9.3047    0.0000 C   0  0  0  0  0  0  0  0  0  0  0  0
    9.3040   -8.4797    0.0000 C   0  0  0  0  0  0  0  0  0  0  0  0
    8.5874   -8.0710    0.0000 O   0  0  0  0  0  0  0  0  0  0  0  0
    8.6006  -10.5460    0.0000 O   0  0  0  0  0  0  0  0  0  0  0  0
    8.5962   -9.7210    0.0000 C   0  0  0  0  0  0  0  0  0  0  0  0
    5.7427  -10.5612    0.0000 C   0  0  0  0  0  0  0  0  0  0  0  0
    7.1716  -10.5536    0.0000 O   0  0  0  0  0  0  0  0  0  0  0  0
    7.1673   -9.7286    0.0000 C   0  0  0  0  0  0  0  0  0  0  0  0
    7.8795   -9.3123    0.0000 C   0  0  0  0  0  0  0  0  0  0  0  0
    7.8751   -8.4873    0.0000 C   0  0  0  0  0  0  0  0  0  0  0  0
    7.1585   -8.0786    0.0000 C   0  0  0  0  0  0  0  0  0  0  0  0
    5.7383   -9.7362    0.0000 O   0  0  0  0  0  0  0  0  0  0  0  0
    6.4506   -9.3199    0.0000 C   0  0  0  0  0  0  0  0  0  0  0  0
    6.4462   -8.4949    0.0000 C   0  0  0  0  0  0  0  0  0  0  0  0
    5.7295   -8.0863    0.0000 O   0  0  0  0  0  0  0  0  0  0  0  0
    4.4844   -7.3853    0.0000 O   0  0  0  0  0  0  0  0  0  0  0  0
    4.9046   -8.0952    0.0000 C   0  0  2  0  0  0  0  0  0  0  0  0
    4.4999   -8.8141    0.0000 C   0  0  1  0  0  0  0  0  0  0  0  0
    3.6749   -8.8231    0.0000 C   0  0  2  0  0  0  0  0  0  0  0  0
    3.2392   -6.6843    0.0000 C   0  0  0  0  0  0  0  0  0  0  0  0
    3.6594   -7.3942    0.0000 C   0  0  2  0  0  0  0  0  0  0  0  0
    3.2547   -8.1131    0.0000 C   0  0  1  0  0  0  0  0  0  0  0  0
    2.4297   -8.1221    0.0000 O   0  0  0  0  0  0  0  0  0  0  0  0
    2.4142   -6.6932    0.0000 O   0  0  0  0  0  0  0  0  0  0  0  0
 30  1  1  1  0  0  0
  7  2  1  0  0  0  0
  6  3  1  0  0  0  0
 29  4  1  6  0  0  0
  5 10  2  0  0  0  0
  6  5  1  0  0  0  0
  7  6  2  0  0  0  0
  8  7  1  0  0  0  0
 11  8  2  0  0  0  0
  9 12  1  0  0  0  0
 11 10  1  0  0  0  0
 13 11  1  0  0  0  0
 12 16  1  0  0  0  0
 13 12  2  0  0  0  0
 14 13  1  0  0  0  0
 21 14  1  0  0  0  0
 16 15  2  0  0  0  0
 20 16  1  0  0  0  0
 17 23  1  0  0  0  0
 19 18  1  0  0  0  0
 19 24  1  0  0  0  0
 20 19  2  0  0  0  0
 21 20  1  0  0  0  0
 22 21  2  0  0  0  0
 25 22  1  0  0  0  0
 24 23  1  0  0  0  0
 25 24  2  0  0  0  0
 26 25  1  0  0  0  0
 28 26  1  1  0  0  0
 27 32  1  0  0  0  0
 28 27  1  0  0  0  0
 29 28  1  0  0  0  0
 30 29  1  0  0  0  0
 33 30  1  0  0  0  0
 31 35  1  0  0  0  0
 32 31  1  1  0  0  0
 33 32  1  0  0  0  0
 33 34  1  6  0  0  0
M  END
>  <cdx:fragmentId>
5

$$$$
