90566.cdx
  Mrv1902 05222410262D          

 66 72  0  0  0  0            999 V2000
   17.3005   -9.8855    0.0000 O   0  0  0  0  0  0  0  0  0  0  0  0
    8.6632  -12.0884    0.0000 O   0  0  0  0  0  0  0  0  0  0  0  0
   10.3396  -14.9224    0.0000 C   0  0  0  0  0  0  0  0  0  0  0  0
   16.4699   -8.4640    0.0000 O   0  0  0  0  0  0  0  0  0  0  0  0
   14.8236   -8.4725    0.0000 O   0  0  0  0  0  0  0  0  0  0  0  0
   16.4773   -9.8897    0.0000 C   0  0  2  0  0  0  0  0  0  0  0  0
   16.0620   -9.1790    0.0000 C   0  0  2  0  0  0  0  0  0  0  0  0
   15.2388   -9.1833    0.0000 C   0  0  1  0  0  0  0  0  0  0  0  0
   14.8310   -9.8983    0.0000 O   0  0  0  0  0  0  0  0  0  0  0  0
   16.4847  -11.3155    0.0000 O   0  0  0  0  0  0  0  0  0  0  0  0
   16.0694  -10.6048    0.0000 C   0  0  2  0  0  0  0  0  0  0  0  0
   15.2462  -10.6090    0.0000 C   0  0  1  0  0  0  0  0  0  0  0  0
   14.8383  -11.3240    0.0000 C   0  0  0  0  0  0  0  0  0  0  0  0
    9.0974  -14.2226    0.0000 C   0  0  0  0  0  0  0  0  0  0  0  0
    9.9205  -14.2139    0.0000 C   0  0  0  0  0  0  0  0  0  0  0  0
   11.1627  -14.9158    0.0000 C   0  0  0  0  0  0  0  0  0  0  0  0
   10.3245  -13.4967    0.0000 C   0  0  0  0  0  0  0  0  0  0  0  0
    9.9054  -12.7882    0.0000 C   0  0  0  0  0  0  0  0  0  0  0  0
   11.5686  -14.1996    0.0000 C   0  0  0  0  0  0  0  0  0  0  0  0
   11.1513  -13.4901    0.0000 O   0  0  0  0  0  0  0  0  0  0  0  0
   12.3918  -14.1930    0.0000 O   0  0  0  0  0  0  0  0  0  0  0  0
   12.7976  -13.4768    0.0000 C   0  0  1  0  0  0  0  0  0  0  0  0
   12.3803  -12.7673    0.0000 C   0  0  2  0  0  0  0  0  0  0  0  0
   11.5572  -12.7739    0.0000 C   0  0  0  0  0  0  0  0  0  0  0  0
   13.6208  -13.4702    0.0000 C   0  0  2  0  0  0  0  0  0  0  0  0
   14.0266  -12.7541    0.0000 C   0  0  2  0  0  0  0  0  0  0  0  0
   13.6093  -12.0445    0.0000 C   0  0  1  0  0  0  0  0  0  0  0  0
   12.7862  -12.0511    0.0000 O   0  0  0  0  0  0  0  0  0  0  0  0
   14.1122   -8.0582    0.0000 C   0  0  0  0  0  0  0  0  0  0  0  0
   13.3978   -8.4671    0.0000 C   0  0  0  0  0  0  0  0  0  0  0  0
   14.1154   -7.2350    0.0000 C   0  0  0  0  0  0  0  0  0  0  0  0
   13.4040   -6.8207    0.0000 O   0  3  0  0  0  0  0  0  0  0  0  0
   12.6896   -7.2296    0.0000 C   0  0  0  0  0  0  0  0  0  0  0  0
   12.6865   -8.0528    0.0000 C   0  0  0  0  0  0  0  0  0  0  0  0
   11.9782   -6.8153    0.0000 C   0  0  0  0  0  0  0  0  0  0  0  0
   11.2638   -7.2242    0.0000 C   0  0  0  0  0  0  0  0  0  0  0  0
   11.2607   -8.0474    0.0000 C   0  0  0  0  0  0  0  0  0  0  0  0
   11.9720   -8.4617    0.0000 C   0  0  0  0  0  0  0  0  0  0  0  0
   15.5411   -7.2404    0.0000 C   0  0  0  0  0  0  0  0  0  0  0  0
   14.8298   -6.8261    0.0000 C   0  0  0  0  0  0  0  0  0  0  0  0
   16.2556   -6.8315    0.0000 C   0  0  0  0  0  0  0  0  0  0  0  0
   16.2587   -6.0084    0.0000 C   0  0  0  0  0  0  0  0  0  0  0  0
   15.5474   -5.5941    0.0000 C   0  0  0  0  0  0  0  0  0  0  0  0
   14.8329   -6.0030    0.0000 C   0  0  0  0  0  0  0  0  0  0  0  0
   16.9732   -5.5995    0.0000 O   0  0  0  0  0  0  0  0  0  0  0  0
   15.5505   -4.7709    0.0000 O   0  0  0  0  0  0  0  0  0  0  0  0
   10.4942  -11.7255    0.0000 O   0  0  0  0  0  0  0  0  0  0  0  0
    9.1179   -9.2281    0.0000 C   0  0  0  0  0  0  0  0  0  0  0  0
    8.3969   -9.6254    0.0000 O   0  0  0  0  0  0  0  0  0  0  0  0
    9.0851  -10.8741    0.0000 O   0  0  0  0  0  0  0  0  0  0  0  0
   10.5434   -9.2565    0.0000 O   0  0  0  0  0  0  0  0  0  0  0  0
    9.8224   -9.6538    0.0000 C   0  0  1  0  0  0  0  0  0  0  0  0
    9.8060  -10.4768    0.0000 C   0  0  2  0  0  0  0  0  0  0  0  0
   10.5106  -10.9025    0.0000 C   0  0  1  0  0  0  0  0  0  0  0  0
   11.9689   -9.2849    0.0000 O   0  0  0  0  0  0  0  0  0  0  0  0
   11.2479   -9.6822    0.0000 C   0  0  1  0  0  0  0  0  0  0  0  0
   14.0152  -11.3283    0.0000 O   0  0  0  0  0  0  0  0  0  0  0  0
   16.9669   -7.2458    0.0000 O   0  0  0  0  0  0  0  0  0  0  0  0
   14.8392   -4.3566    0.0000 C   0  0  0  0  0  0  0  0  0  0  0  0
   10.5525   -6.8099    0.0000 O   0  0  0  0  0  0  0  0  0  0  0  0
    9.0823  -12.7969    0.0000 C   0  0  0  0  0  0  0  0  0  0  0  0
    8.6783  -13.5141    0.0000 C   0  0  0  0  0  0  0  0  0  0  0  0
   14.0381  -14.1798    0.0000 O   0  0  0  0  0  0  0  0  0  0  0  0
   14.8498  -12.7474    0.0000 O   0  0  0  0  0  0  0  0  0  0  0  0
   11.2315  -10.5052    0.0000 C   0  0  2  0  0  0  0  0  0  0  0  0
   11.9361  -10.9309    0.0000 O   0  0  0  0  0  0  0  0  0  0  0  0
  6  1  1  1  0  0  0
 61  2  1  0  0  0  0
  3 15  1  0  0  0  0
 14 62  2  0  0  0  0
 15 14  1  0  0  0  0
  7  4  1  6  0  0  0
  8  5  1  1  0  0  0
  6 11  1  0  0  0  0
  7  6  1  0  0  0  0
  8  7  1  0  0  0  0
  9  8  1  0  0  0  0
 12  9  1  0  0  0  0
 11 10  1  6  0  0  0
 12 11  1  0  0  0  0
 12 13  1  1  0  0  0
 57 13  1  0  0  0  0
 17 15  2  0  0  0  0
 18 17  1  0  0  0  0
 61 18  2  0  0  0  0
 62 61  1  0  0  0  0
 16  3  2  0  0  0  0
 16 19  1  0  0  0  0
 19 20  2  0  0  0  0
 19 21  1  0  0  0  0
 22 21  1  1  0  0  0
 22 23  1  0  0  0  0
 23 24  1  6  0  0  0
 22 25  1  0  0  0  0
 25 26  1  0  0  0  0
 26 27  1  0  0  0  0
 27 28  1  0  0  0  0
  5 29  1  0  0  0  0
 29 30  1  0  0  0  0
 28 23  1  0  0  0  0
 29 31  2  0  0  0  0
 31 32  1  0  0  0  0
 32 33  2  0  0  0  0
 33 34  1  0  0  0  0
 34 30  2  0  0  0  0
 33 35  1  0  0  0  0
 35 36  2  0  0  0  0
 36 37  1  0  0  0  0
 37 38  2  0  0  0  0
 38 34  1  0  0  0  0
 39 40  2  0  0  0  0
 40 31  1  0  0  0  0
 39 41  1  0  0  0  0
 41 42  2  0  0  0  0
 42 43  1  0  0  0  0
 43 44  2  0  0  0  0
 44 40  1  0  0  0  0
 42 45  1  0  0  0  0
 46 43  1  0  0  0  0
 54 47  1  1  0  0  0
 52 48  1  1  0  0  0
 49 48  1  0  0  0  0
 53 50  1  6  0  0  0
 55 38  1  0  0  0  0
 51 56  1  0  0  0  0
 52 51  1  0  0  0  0
 53 52  1  0  0  0  0
 54 53  1  0  0  0  0
 65 54  1  0  0  0  0
 56 55  1  1  0  0  0
 65 56  1  0  0  0  0
 65 66  1  6  0  0  0
 27 57  1  1  0  0  0
 41 58  1  0  0  0  0
 46 59  1  0  0  0  0
 36 60  1  0  0  0  0
 25 63  1  6  0  0  0
 26 64  1  6  0  0  0
M  CHG  1  32   1
M  END
>  <cdx:fragmentId>
5

$$$$
