90562.cdx
  Mrv1902 05222410272D          

 37 40  0  0  0  0            999 V2000
    5.5411   -8.6449    0.0000 C   0  0  0  0  0  0  0  0  0  0  0  0
    6.2527   -9.0623    0.0000 C   0  0  0  0  0  0  0  0  0  0  0  0
    6.9700   -8.6548    0.0000 C   0  0  0  0  0  0  0  0  0  0  0  0
    6.9757   -7.8298    0.0000 C   0  0  0  0  0  0  0  0  0  0  0  0
    6.2641   -7.4124    0.0000 C   0  0  0  0  0  0  0  0  0  0  0  0
    5.5468   -7.8199    0.0000 C   0  0  0  0  0  0  0  0  0  0  0  0
    7.6816   -9.0722    0.0000 C   0  0  0  0  0  0  0  0  0  0  0  0
    8.3989   -8.6647    0.0000 C   0  0  0  0  0  0  0  0  0  0  0  0
    8.4046   -7.8397    0.0000 C   0  0  0  0  0  0  0  0  0  0  0  0
    7.6930   -7.4223    0.0000 O   0  3  0  0  0  0  0  0  0  0  0  0
    9.8335   -7.8495    0.0000 C   0  0  0  0  0  0  0  0  0  0  0  0
    9.1219   -7.4321    0.0000 C   0  0  0  0  0  0  0  0  0  0  0  0
   10.5508   -7.4420    0.0000 C   0  0  0  0  0  0  0  0  0  0  0  0
   10.5565   -6.6170    0.0000 C   0  0  0  0  0  0  0  0  0  0  0  0
    9.8449   -6.1996    0.0000 C   0  0  0  0  0  0  0  0  0  0  0  0
    9.1276   -6.6071    0.0000 C   0  0  0  0  0  0  0  0  0  0  0  0
    8.3991  -10.3220    0.0000 O   0  0  0  0  0  0  0  0  0  0  0  0
    9.1164   -9.9145    0.0000 C   0  0  1  0  0  0  0  0  0  0  0  0
    9.1221   -9.0895    0.0000 O   0  0  0  0  0  0  0  0  0  0  0  0
    8.3934  -11.1470    0.0000 C   0  0  1  0  0  0  0  0  0  0  0  0
    9.1050  -11.5644    0.0000 C   0  0  2  0  0  0  0  0  0  0  0  0
    9.8223  -11.1569    0.0000 C   0  0  1  0  0  0  0  0  0  0  0  0
    9.8280  -10.3319    0.0000 C   0  0  1  0  0  0  0  0  0  0  0  0
    7.6761  -11.5546    0.0000 C   0  0  0  0  0  0  0  0  0  0  0  0
    7.6704  -12.3795    0.0000 O   0  0  0  0  0  0  0  0  0  0  0  0
    9.0993  -12.3894    0.0000 O   0  0  0  0  0  0  0  0  0  0  0  0
    6.2415  -12.3697    0.0000 O   0  0  0  0  0  0  0  0  0  0  0  0
    6.9531  -12.7871    0.0000 C   0  0  0  0  0  0  0  0  0  0  0  0
    5.5185  -13.6022    0.0000 O   0  0  0  0  0  0  0  0  0  0  0  0
    6.2301  -14.0196    0.0000 C   0  0  0  0  0  0  0  0  0  0  0  0
    6.9474  -13.6121    0.0000 C   0  0  0  0  0  0  0  0  0  0  0  0
    6.2244  -14.8446    0.0000 O   0  0  0  0  0  0  0  0  0  0  0  0
    4.8352   -7.4025    0.0000 O   0  0  0  0  0  0  0  0  0  0  0  0
    6.2470   -9.8873    0.0000 O   0  0  0  0  0  0  0  0  0  0  0  0
   11.2738   -6.2095    0.0000 O   0  0  0  0  0  0  0  0  0  0  0  0
   10.5339  -11.5743    0.0000 O   0  0  0  0  0  0  0  0  0  0  0  0
   10.5453   -9.9243    0.0000 O   0  0  0  0  0  0  0  0  0  0  0  0
  1  2  1  0  0  0  0
  2  3  2  0  0  0  0
  3  4  1  0  0  0  0
  4  5  2  0  0  0  0
  5  6  1  0  0  0  0
  6  1  2  0  0  0  0
  3  7  1  0  0  0  0
  7  8  2  0  0  0  0
  8  9  1  0  0  0  0
  9 10  2  0  0  0  0
 10  4  1  0  0  0  0
 11 12  1  0  0  0  0
 12  9  1  0  0  0  0
 11 13  2  0  0  0  0
 13 14  1  0  0  0  0
 14 15  2  0  0  0  0
 15 16  1  0  0  0  0
 16 12  2  0  0  0  0
 17 18  1  0  0  0  0
 18 19  1  1  0  0  0
 17 20  1  0  0  0  0
 20 21  1  0  0  0  0
 21 22  1  0  0  0  0
 22 23  1  0  0  0  0
 23 18  1  0  0  0  0
 20 24  1  1  0  0  0
 24 25  1  0  0  0  0
 21 26  1  6  0  0  0
 27 28  2  0  0  0  0
 28 25  1  0  0  0  0
 29 30  2  0  0  0  0
 30 31  1  0  0  0  0
 31 28  1  0  0  0  0
 30 32  1  0  0  0  0
  6 33  1  0  0  0  0
  2 34  1  0  0  0  0
 14 35  1  0  0  0  0
 19  8  1  0  0  0  0
 22 36  1  1  0  0  0
 23 37  1  6  0  0  0
M  CHG  1  10   1
M  END
>  <cdx:fragmentId>
5

$$$$
