90564.cdx
  Mrv1902 05222410262D          

 45 49  0  0  0  0            999 V2000
    2.4043  -11.1364    0.0000 O   0  0  0  0  0  0  0  0  0  0  0  0
    3.1188  -12.3739    0.0000 O   0  0  0  0  0  0  0  0  0  0  0  0
    3.8332  -11.9614    0.0000 C   0  0  2  0  0  0  0  0  0  0  0  0
    3.8332  -11.1364    0.0000 C   0  0  1  0  0  0  0  0  0  0  0  0
    3.1188  -10.7239    0.0000 C   0  0  0  0  0  0  0  0  0  0  0  0
    4.5477  -12.3739    0.0000 C   0  0  1  0  0  0  0  0  0  0  0  0
    5.2622  -11.9614    0.0000 C   0  0  2  0  0  0  0  0  0  0  0  0
    5.2622  -11.1364    0.0000 C   0  0  1  0  0  0  0  0  0  0  0  0
    4.5477  -10.7239    0.0000 O   0  0  0  0  0  0  0  0  0  0  0  0
    5.9767  -10.7239    0.0000 O   0  0  0  0  0  0  0  0  0  0  0  0
    5.9767   -9.8989    0.0000 C   0  0  0  0  0  0  0  0  0  0  0  0
    5.2622   -9.4864    0.0000 C   0  0  0  0  0  0  0  0  0  0  0  0
    6.6911   -9.4864    0.0000 C   0  0  0  0  0  0  0  0  0  0  0  0
    6.6911   -8.6614    0.0000 C   0  0  0  0  0  0  0  0  0  0  0  0
    5.9767   -8.2489    0.0000 C   0  0  0  0  0  0  0  0  0  0  0  0
    5.2622   -8.6614    0.0000 C   0  0  0  0  0  0  0  0  0  0  0  0
    7.4056   -9.8989    0.0000 C   0  0  0  0  0  0  0  0  0  0  0  0
    8.1201   -9.4864    0.0000 C   0  0  0  0  0  0  0  0  0  0  0  0
    8.1201   -8.6614    0.0000 C   0  0  0  0  0  0  0  0  0  0  0  0
    7.4056   -8.2489    0.0000 O   0  3  0  0  0  0  0  0  0  0  0  0
    9.5490   -8.6614    0.0000 C   0  0  0  0  0  0  0  0  0  0  0  0
    8.8345   -8.2489    0.0000 C   0  0  0  0  0  0  0  0  0  0  0  0
   10.2635   -8.2489    0.0000 C   0  0  0  0  0  0  0  0  0  0  0  0
   10.2635   -7.4239    0.0000 C   0  0  0  0  0  0  0  0  0  0  0  0
    9.5490   -7.0114    0.0000 C   0  0  0  0  0  0  0  0  0  0  0  0
    8.8345   -7.4239    0.0000 C   0  0  0  0  0  0  0  0  0  0  0  0
   10.9780   -7.0114    0.0000 O   0  0  0  0  0  0  0  0  0  0  0  0
    9.5490   -6.1864    0.0000 O   0  0  0  0  0  0  0  0  0  0  0  0
    8.8127  -13.1988    0.0000 O   0  0  0  0  0  0  0  0  0  0  0  0
   10.2471  -12.3833    0.0000 O   0  0  0  0  0  0  0  0  0  0  0  0
    7.3892  -13.1894    0.0000 O   0  0  0  0  0  0  0  0  0  0  0  0
    7.3892  -12.3644    0.0000 C   0  0  0  0  0  0  0  0  0  0  0  0
    8.1119  -11.1316    0.0000 O   0  0  0  0  0  0  0  0  0  0  0  0
    8.1064  -11.9566    0.0000 C   0  0  1  0  0  0  0  0  0  0  0  0
    8.8182  -12.3738    0.0000 C   0  0  2  0  0  0  0  0  0  0  0  0
    4.5477   -8.2489    0.0000 O   0  0  0  0  0  0  0  0  0  0  0  0
   10.9780   -8.6614    0.0000 O   0  0  0  0  0  0  0  0  0  0  0  0
    8.8345   -5.7739    0.0000 C   0  0  0  0  0  0  0  0  0  0  0  0
    9.5353  -11.9661    0.0000 C   0  0  1  0  0  0  0  0  0  0  0  0
    5.9767  -12.3739    0.0000 O   0  0  0  0  0  0  0  0  0  0  0  0
    8.8291  -10.7239    0.0000 C   0  0  2  0  0  0  0  0  0  0  0  0
    9.5408  -11.1411    0.0000 C   0  0  2  0  0  0  0  0  0  0  0  0
    4.5477  -13.1989    0.0000 O   0  0  0  0  0  0  0  0  0  0  0  0
   10.2580  -10.7333    0.0000 O   0  0  0  0  0  0  0  0  0  0  0  0
    8.8345   -9.8989    0.0000 O   0  0  0  0  0  0  0  0  0  0  0  0
  3  2  1  6  0  0  0
  3  4  1  0  0  0  0
  4  5  1  1  0  0  0
  5  1  1  0  0  0  0
  3  6  1  0  0  0  0
  6  7  1  0  0  0  0
  7  8  1  0  0  0  0
  8  9  1  0  0  0  0
  9  4  1  0  0  0  0
  8 10  1  1  0  0  0
 10 11  1  0  0  0  0
 11 12  2  0  0  0  0
 11 13  1  0  0  0  0
 13 14  1  0  0  0  0
 14 15  1  0  0  0  0
 15 16  2  0  0  0  0
 16 12  1  0  0  0  0
 13 17  2  0  0  0  0
 17 18  1  0  0  0  0
 18 19  2  0  0  0  0
 19 20  1  0  0  0  0
 20 14  2  0  0  0  0
 35 29  1  6  0  0  0
 18 45  1  0  0  0  0
 21 22  2  0  0  0  0
 22 19  1  0  0  0  0
 21 23  1  0  0  0  0
 23 24  2  0  0  0  0
 24 25  1  0  0  0  0
 25 26  2  0  0  0  0
 26 22  1  0  0  0  0
 24 27  1  0  0  0  0
 28 25  1  0  0  0  0
 39 30  1  1  0  0  0
 32 31  1  0  0  0  0
 34 32  1  1  0  0  0
 33 41  1  0  0  0  0
 34 33  1  0  0  0  0
 35 34  1  0  0  0  0
 39 35  1  0  0  0  0
 42 39  1  0  0  0  0
 16 36  1  0  0  0  0
 23 37  1  0  0  0  0
 28 38  1  0  0  0  0
 41 45  1  1  0  0  0
 42 41  1  0  0  0  0
 42 44  1  6  0  0  0
  7 40  1  6  0  0  0
  6 43  1  1  0  0  0
M  CHG  1  20   1
M  END
>  <cdx:fragmentId>
5

$$$$
