90569.cdx
  Mrv1902 05222410202D          

 18 19  0  0  0  0            999 V2000
    7.1481  -10.2289    0.0000 C   0  0  2  0  0  0  0  0  0  0  0  0
    7.1481  -11.0539    0.0000 C   0  0  1  0  0  0  0  0  0  0  0  0
    7.8625  -11.4664    0.0000 C   0  0  0  0  0  0  0  0  0  0  0  0
    8.5770  -11.0539    0.0000 C   0  0  0  0  0  0  0  0  0  0  0  0
    8.5770  -10.2289    0.0000 C   0  0  0  0  0  0  0  0  0  0  0  0
    7.8625   -9.8164    0.0000 C   0  0  2  0  0  0  0  0  0  0  0  0
    6.3634   -9.9740    0.0000 C   0  0  0  0  0  0  0  0  0  0  0  0
    5.8785  -10.6414    0.0000 C   0  0  0  0  0  0  0  0  0  0  0  0
    6.3634  -11.3088    0.0000 C   0  0  2  0  0  0  0  0  0  0  0  0
    9.2915  -11.4664    0.0000 C   0  0  0  0  0  0  0  0  0  0  0  0
   10.0059  -11.0539    0.0000 C   0  0  0  0  0  0  0  0  0  0  0  0
    9.2915  -12.2914    0.0000 O   0  0  0  0  0  0  0  0  0  0  0  0
    7.4500   -9.1019    0.0000 C   0  0  0  0  0  0  0  0  0  0  0  0
    6.3634  -12.1338    0.0000 C   0  0  0  0  0  0  0  0  0  0  0  0
    5.6490  -11.7213    0.0000 O   0  0  0  0  0  0  0  0  0  0  0  0
    7.0618   -9.4084    0.0000 O   0  0  0  0  0  0  0  0  0  0  0  0
    7.0618  -11.8744    0.0000 H   0  0  0  0  0  0  0  0  0  0  0  0
    8.2750   -9.1019    0.0000 O   0  0  0  0  0  0  0  0  0  0  0  0
  1  2  1  0  0  0  0
  2  3  1  0  0  0  0
  3  4  1  0  0  0  0
  4  5  2  0  0  0  0
  5  6  1  0  0  0  0
  6  1  1  0  0  0  0
  1  7  1  0  0  0  0
  7  8  1  0  0  0  0
  8  9  1  0  0  0  0
  9  2  1  0  0  0  0
  4 10  1  0  0  0  0
 10 11  1  0  0  0  0
 10 12  2  0  0  0  0
  6 13  1  1  0  0  0
  9 14  1  1  0  0  0
  9 15  1  6  0  0  0
  1 16  1  6  0  0  0
  2 17  1  6  0  0  0
  6 18  1  6  0  0  0
M  END
>  <cdx:fragmentId>
5

$$$$
