90567.cdx
  Mrv1902 05222410272D          

 66 72  0  0  0  0            999 V2000
   17.3005   -9.8855    0.0000 O   0  0  0  0  0  0  0  0  0  0  0  0
    8.7011  -16.3572    0.0000 C   0  0  0  0  0  0  0  0  0  0  0  0
    9.1166  -17.0679    0.0000 C   0  0  0  0  0  0  0  0  0  0  0  0
    9.9398  -17.0633    0.0000 C   0  0  0  0  0  0  0  0  0  0  0  0
   10.3474  -16.3482    0.0000 C   0  0  0  0  0  0  0  0  0  0  0  0
    9.9319  -15.6376    0.0000 C   0  0  0  0  0  0  0  0  0  0  0  0
    9.1088  -15.6421    0.0000 C   0  0  0  0  0  0  0  0  0  0  0  0
   16.4699   -8.4640    0.0000 O   0  0  0  0  0  0  0  0  0  0  0  0
   14.8236   -8.4725    0.0000 O   0  0  0  0  0  0  0  0  0  0  0  0
   16.4773   -9.8897    0.0000 C   0  0  2  0  0  0  0  0  0  0  0  0
   16.0620   -9.1790    0.0000 C   0  0  2  0  0  0  0  0  0  0  0  0
   15.2388   -9.1833    0.0000 C   0  0  1  0  0  0  0  0  0  0  0  0
   14.8310   -9.8983    0.0000 O   0  0  0  0  0  0  0  0  0  0  0  0
   16.4847  -11.3155    0.0000 O   0  0  0  0  0  0  0  0  0  0  0  0
   16.0694  -10.6048    0.0000 C   0  0  2  0  0  0  0  0  0  0  0  0
   15.2462  -10.6090    0.0000 C   0  0  1  0  0  0  0  0  0  0  0  0
   14.8383  -11.3240    0.0000 C   0  0  0  0  0  0  0  0  0  0  0  0
   11.1627  -14.9158    0.0000 C   0  0  0  0  0  0  0  0  0  0  0  0
   10.3396  -14.9224    0.0000 C   0  0  0  0  0  0  0  0  0  0  0  0
   11.5686  -14.1996    0.0000 C   0  0  0  0  0  0  0  0  0  0  0  0
   11.1513  -13.4901    0.0000 O   0  0  0  0  0  0  0  0  0  0  0  0
   12.3918  -14.1930    0.0000 O   0  0  0  0  0  0  0  0  0  0  0  0
   12.7976  -13.4768    0.0000 C   0  0  1  0  0  0  0  0  0  0  0  0
   12.3803  -12.7673    0.0000 C   0  0  2  0  0  0  0  0  0  0  0  0
   11.5572  -12.7739    0.0000 C   0  0  0  0  0  0  0  0  0  0  0  0
   13.6208  -13.4702    0.0000 C   0  0  2  0  0  0  0  0  0  0  0  0
   14.0266  -12.7541    0.0000 C   0  0  2  0  0  0  0  0  0  0  0  0
   13.6093  -12.0445    0.0000 C   0  0  1  0  0  0  0  0  0  0  0  0
   12.7862  -12.0511    0.0000 O   0  0  0  0  0  0  0  0  0  0  0  0
   14.1122   -8.0582    0.0000 C   0  0  0  0  0  0  0  0  0  0  0  0
   13.3978   -8.4671    0.0000 C   0  0  0  0  0  0  0  0  0  0  0  0
   14.1154   -7.2350    0.0000 C   0  0  0  0  0  0  0  0  0  0  0  0
   13.4040   -6.8207    0.0000 O   0  3  0  0  0  0  0  0  0  0  0  0
   12.6896   -7.2296    0.0000 C   0  0  0  0  0  0  0  0  0  0  0  0
   12.6865   -8.0528    0.0000 C   0  0  0  0  0  0  0  0  0  0  0  0
   11.9782   -6.8153    0.0000 C   0  0  0  0  0  0  0  0  0  0  0  0
   11.2638   -7.2242    0.0000 C   0  0  0  0  0  0  0  0  0  0  0  0
   11.2607   -8.0474    0.0000 C   0  0  0  0  0  0  0  0  0  0  0  0
   11.9720   -8.4617    0.0000 C   0  0  0  0  0  0  0  0  0  0  0  0
   15.5411   -7.2404    0.0000 C   0  0  0  0  0  0  0  0  0  0  0  0
   14.8298   -6.8261    0.0000 C   0  0  0  0  0  0  0  0  0  0  0  0
   16.2556   -6.8315    0.0000 C   0  0  0  0  0  0  0  0  0  0  0  0
   16.2587   -6.0084    0.0000 C   0  0  0  0  0  0  0  0  0  0  0  0
   15.5474   -5.5941    0.0000 C   0  0  0  0  0  0  0  0  0  0  0  0
   14.8329   -6.0030    0.0000 C   0  0  0  0  0  0  0  0  0  0  0  0
   16.9732   -5.5995    0.0000 O   0  0  0  0  0  0  0  0  0  0  0  0
   15.5505   -4.7709    0.0000 O   0  0  0  0  0  0  0  0  0  0  0  0
   10.4942  -11.7255    0.0000 O   0  0  0  0  0  0  0  0  0  0  0  0
    9.1179   -9.2281    0.0000 C   0  0  0  0  0  0  0  0  0  0  0  0
    8.3969   -9.6254    0.0000 O   0  0  0  0  0  0  0  0  0  0  0  0
    9.0851  -10.8741    0.0000 O   0  0  0  0  0  0  0  0  0  0  0  0
   10.5434   -9.2565    0.0000 O   0  0  0  0  0  0  0  0  0  0  0  0
    9.8224   -9.6538    0.0000 C   0  0  1  0  0  0  0  0  0  0  0  0
    9.8060  -10.4768    0.0000 C   0  0  2  0  0  0  0  0  0  0  0  0
   10.5106  -10.9025    0.0000 C   0  0  1  0  0  0  0  0  0  0  0  0
   11.9689   -9.2849    0.0000 O   0  0  0  0  0  0  0  0  0  0  0  0
   11.2479   -9.6822    0.0000 C   0  0  1  0  0  0  0  0  0  0  0  0
   14.0152  -11.3283    0.0000 O   0  0  0  0  0  0  0  0  0  0  0  0
   16.9669   -7.2458    0.0000 O   0  0  0  0  0  0  0  0  0  0  0  0
   14.8392   -4.3566    0.0000 C   0  0  0  0  0  0  0  0  0  0  0  0
   10.5525   -6.8099    0.0000 O   0  0  0  0  0  0  0  0  0  0  0  0
    8.7089  -17.7830    0.0000 O   0  0  0  0  0  0  0  0  0  0  0  0
   14.0381  -14.1798    0.0000 O   0  0  0  0  0  0  0  0  0  0  0  0
   14.8498  -12.7474    0.0000 O   0  0  0  0  0  0  0  0  0  0  0  0
   11.2315  -10.5052    0.0000 C   0  0  2  0  0  0  0  0  0  0  0  0
   11.9361  -10.9309    0.0000 O   0  0  0  0  0  0  0  0  0  0  0  0
 10  1  1  1  0  0  0
 11  8  1  6  0  0  0
 12  9  1  1  0  0  0
 10 15  1  0  0  0  0
 11 10  1  0  0  0  0
 12 11  1  0  0  0  0
 13 12  1  0  0  0  0
 16 13  1  0  0  0  0
 15 14  1  6  0  0  0
 16 15  1  0  0  0  0
 16 17  1  1  0  0  0
 58 17  1  0  0  0  0
  2  3  1  0  0  0  0
  3  4  2  0  0  0  0
  4  5  1  0  0  0  0
  5  6  2  0  0  0  0
  6  7  1  0  0  0  0
  7  2  2  0  0  0  0
 18 19  2  0  0  0  0
 19  6  1  0  0  0  0
 18 20  1  0  0  0  0
 20 21  2  0  0  0  0
 20 22  1  0  0  0  0
 23 22  1  1  0  0  0
 23 24  1  0  0  0  0
 24 25  1  6  0  0  0
 23 26  1  0  0  0  0
 26 27  1  0  0  0  0
 27 28  1  0  0  0  0
 28 29  1  0  0  0  0
  9 30  1  0  0  0  0
 30 31  1  0  0  0  0
 29 24  1  0  0  0  0
 30 32  2  0  0  0  0
 32 33  1  0  0  0  0
 33 34  2  0  0  0  0
 34 35  1  0  0  0  0
 35 31  2  0  0  0  0
 34 36  1  0  0  0  0
 36 37  2  0  0  0  0
 37 38  1  0  0  0  0
 38 39  2  0  0  0  0
 39 35  1  0  0  0  0
 40 41  2  0  0  0  0
 41 32  1  0  0  0  0
 40 42  1  0  0  0  0
 42 43  2  0  0  0  0
 43 44  1  0  0  0  0
 44 45  2  0  0  0  0
 45 41  1  0  0  0  0
 43 46  1  0  0  0  0
 47 44  1  0  0  0  0
 55 48  1  1  0  0  0
 53 49  1  1  0  0  0
 50 49  1  0  0  0  0
 54 51  1  6  0  0  0
 56 39  1  0  0  0  0
 52 57  1  0  0  0  0
 53 52  1  0  0  0  0
 54 53  1  0  0  0  0
 55 54  1  0  0  0  0
 65 55  1  0  0  0  0
 57 56  1  1  0  0  0
 65 57  1  0  0  0  0
 65 66  1  6  0  0  0
 28 58  1  1  0  0  0
 42 59  1  0  0  0  0
 47 60  1  0  0  0  0
 37 61  1  0  0  0  0
  3 62  1  0  0  0  0
 26 63  1  6  0  0  0
 27 64  1  6  0  0  0
M  CHG  1  33   1
M  END
>  <cdx:fragmentId>
5

$$$$
