90563.cdx
  Mrv1902 05222410272D          

 65 71  0  0  0  0            999 V2000
   11.3847   -7.3547    0.0000 O   0  0  0  0  0  0  0  0  0  0  0  0
    4.1306  -14.6682    0.0000 C   0  0  0  0  0  0  0  0  0  0  0  0
    4.5595  -15.3727    0.0000 C   0  0  0  0  0  0  0  0  0  0  0  0
    5.3840  -15.3535    0.0000 C   0  0  0  0  0  0  0  0  0  0  0  0
    5.7796  -14.6298    0.0000 C   0  0  0  0  0  0  0  0  0  0  0  0
   10.5935   -8.8020    0.0000 O   0  0  0  0  0  0  0  0  0  0  0  0
    5.3507  -13.9253    0.0000 C   0  0  0  0  0  0  0  0  0  0  0  0
    4.5262  -13.9446    0.0000 C   0  0  0  0  0  0  0  0  0  0  0  0
   10.5269   -5.9458    0.0000 O   0  0  0  0  0  0  0  0  0  0  0  0
    8.8778   -5.9842    0.0000 O   0  0  0  0  0  0  0  0  0  0  0  0
   10.1646   -8.0975    0.0000 C   0  0  1  0  0  0  0  0  0  0  0  0
   10.5602   -7.3739    0.0000 C   0  0  1  0  0  0  0  0  0  0  0  0
   10.1313   -6.6694    0.0000 C   0  0  2  0  0  0  0  0  0  0  0  0
    9.3067   -6.6887    0.0000 C   0  0  1  0  0  0  0  0  0  0  0  0
    9.3401   -8.1168    0.0000 C   0  0  2  0  0  0  0  0  0  0  0  0
    8.9111   -7.4123    0.0000 O   0  0  0  0  0  0  0  0  0  0  0  0
    6.5708  -13.1825    0.0000 C   0  0  0  0  0  0  0  0  0  0  0  0
    5.7463  -13.2017    0.0000 C   0  0  0  0  0  0  0  0  0  0  0  0
    7.7910  -12.4396    0.0000 O   0  0  0  0  0  0  0  0  0  0  0  0
    6.9664  -12.4588    0.0000 C   0  0  0  0  0  0  0  0  0  0  0  0
    9.4400  -12.4011    0.0000 O   0  0  0  0  0  0  0  0  0  0  0  0
    9.0111  -11.6967    0.0000 C   0  0  2  0  0  0  0  0  0  0  0  0
    8.1866  -11.7159    0.0000 C   0  0  2  0  0  0  0  0  0  0  0  0
    9.4067  -10.9730    0.0000 C   0  0  2  0  0  0  0  0  0  0  0  0
    8.9778  -10.2686    0.0000 C   0  0  1  0  0  0  0  0  0  0  0  0
    8.1532  -10.2878    0.0000 O   0  0  0  0  0  0  0  0  0  0  0  0
    7.7576  -11.0114    0.0000 C   0  0  1  0  0  0  0  0  0  0  0  0
    8.1692   -5.5624    0.0000 C   0  0  0  0  0  0  0  0  0  0  0  0
    7.4495   -5.9651    0.0000 C   0  0  0  0  0  0  0  0  0  0  0  0
    8.1802   -4.7377    0.0000 C   0  0  0  0  0  0  0  0  0  0  0  0
    7.4715   -4.3158    0.0000 O   0  3  0  0  0  0  0  0  0  0  0  0
    6.7518   -4.7186    0.0000 C   0  0  0  0  0  0  0  0  0  0  0  0
    6.7408   -5.5432    0.0000 C   0  0  0  0  0  0  0  0  0  0  0  0
    6.0432   -4.2967    0.0000 C   0  0  0  0  0  0  0  0  0  0  0  0
    5.3235   -4.6995    0.0000 C   0  0  0  0  0  0  0  0  0  0  0  0
    5.3124   -5.5241    0.0000 C   0  0  0  0  0  0  0  0  0  0  0  0
    6.0211   -5.9460    0.0000 C   0  0  0  0  0  0  0  0  0  0  0  0
    4.5817   -6.7516    0.0000 O   0  0  0  0  0  0  0  0  0  0  0  0
    5.2904   -7.1735    0.0000 C   0  0  1  0  0  0  0  0  0  0  0  0
    6.0101   -6.7707    0.0000 O   0  0  0  0  0  0  0  0  0  0  0  0
    3.8620   -7.1543    0.0000 C   0  0  1  0  0  0  0  0  0  0  0  0
    3.8510   -7.9790    0.0000 C   0  0  2  0  0  0  0  0  0  0  0  0
    4.5596   -8.4009    0.0000 C   0  0  1  0  0  0  0  0  0  0  0  0
    5.2793   -7.9981    0.0000 C   0  0  1  0  0  0  0  0  0  0  0  0
    3.1533   -6.7325    0.0000 C   0  0  0  0  0  0  0  0  0  0  0  0
    2.4336   -7.1352    0.0000 O   0  0  0  0  0  0  0  0  0  0  0  0
    3.1313   -8.3818    0.0000 O   0  0  0  0  0  0  0  0  0  0  0  0
    9.3734   -9.5449    0.0000 O   0  0  0  0  0  0  0  0  0  0  0  0
    8.9445   -8.8404    0.0000 C   0  0  0  0  0  0  0  0  0  0  0  0
    4.6148   -4.2776    0.0000 O   0  0  0  0  0  0  0  0  0  0  0  0
    8.8999   -4.3349    0.0000 C   0  0  0  0  0  0  0  0  0  0  0  0
    9.6086   -4.7568    0.0000 C   0  0  0  0  0  0  0  0  0  0  0  0
   10.3283   -4.3540    0.0000 C   0  0  0  0  0  0  0  0  0  0  0  0
   10.3393   -3.5294    0.0000 C   0  0  0  0  0  0  0  0  0  0  0  0
    9.6306   -3.1075    0.0000 C   0  0  0  0  0  0  0  0  0  0  0  0
    8.9109   -3.5102    0.0000 C   0  0  0  0  0  0  0  0  0  0  0  0
   11.0590   -3.1266    0.0000 O   0  0  0  0  0  0  0  0  0  0  0  0
   11.0369   -4.7759    0.0000 O   0  0  0  0  0  0  0  0  0  0  0  0
   11.7514   -4.3634    0.0000 C   0  0  0  0  0  0  0  0  0  0  0  0
    4.1639  -16.0964    0.0000 O   0  0  0  0  0  0  0  0  0  0  0  0
    4.5486   -9.2256    0.0000 O   0  0  0  0  0  0  0  0  0  0  0  0
    6.5375  -11.7543    0.0000 O   0  0  0  0  0  0  0  0  0  0  0  0
    6.9331  -11.0307    0.0000 C   0  0  0  0  0  0  0  0  0  0  0  0
   10.2312  -10.9538    0.0000 O   0  0  0  0  0  0  0  0  0  0  0  0
    5.9880   -8.4200    0.0000 O   0  0  0  0  0  0  0  0  0  0  0  0
 12  1  1  1  0  0  0
 11  6  1  6  0  0  0
  2  3  1  0  0  0  0
  3  4  2  0  0  0  0
 13  9  1  6  0  0  0
 14 10  1  1  0  0  0
 11 15  1  0  0  0  0
 12 11  1  0  0  0  0
 13 12  1  0  0  0  0
 14 13  1  0  0  0  0
 16 14  1  0  0  0  0
 15 49  1  1  0  0  0
 16 15  1  0  0  0  0
  4  5  1  0  0  0  0
  5  7  2  0  0  0  0
  7  8  1  0  0  0  0
  8  2  2  0  0  0  0
 17 18  2  0  0  0  0
 18  7  1  0  0  0  0
 19 20  1  0  0  0  0
 20 17  1  0  0  0  0
 22 21  1  6  0  0  0
 22 23  1  0  0  0  0
 23 19  1  1  0  0  0
 22 24  1  0  0  0  0
 24 25  1  0  0  0  0
 25 26  1  0  0  0  0
 26 27  1  0  0  0  0
 10 28  1  0  0  0  0
 28 29  2  0  0  0  0
 27 23  1  0  0  0  0
 28 30  1  0  0  0  0
 30 31  2  0  0  0  0
 31 32  1  0  0  0  0
 32 33  2  0  0  0  0
 33 29  1  0  0  0  0
 32 34  1  0  0  0  0
 34 35  2  0  0  0  0
 35 36  1  0  0  0  0
 36 37  2  0  0  0  0
 37 33  1  0  0  0  0
 38 39  1  0  0  0  0
 39 40  1  1  0  0  0
 40 37  1  0  0  0  0
 38 41  1  0  0  0  0
 41 42  1  0  0  0  0
 42 43  1  0  0  0  0
 43 44  1  0  0  0  0
 44 39  1  0  0  0  0
 41 45  1  1  0  0  0
 45 46  1  0  0  0  0
 42 47  1  6  0  0  0
 25 48  1  1  0  0  0
 48 49  1  0  0  0  0
 35 50  1  0  0  0  0
 30 51  1  0  0  0  0
 51 52  2  0  0  0  0
 52 53  1  0  0  0  0
 53 54  2  0  0  0  0
 54 55  1  0  0  0  0
 55 56  2  0  0  0  0
 56 51  1  0  0  0  0
 54 57  1  0  0  0  0
 53 58  1  0  0  0  0
 58 59  1  0  0  0  0
  3 60  1  0  0  0  0
 43 61  1  1  0  0  0
 20 62  2  0  0  0  0
 27 63  1  6  0  0  0
 24 64  1  6  0  0  0
 44 65  1  6  0  0  0
M  CHG  1  31   1
M  END
>  <cdx:fragmentId>
5

$$$$
