90565.cdx
  Mrv1902 05222410262D          

 40 43  0  0  0  0            999 V2000
    5.0967   -8.8814    0.0000 O   0  0  0  0  0  0  0  0  0  0  0  0
    5.0967   -8.0564    0.0000 C   0  0  0  0  0  0  0  0  0  0  0  0
    4.3822   -7.6439    0.0000 C   0  0  0  0  0  0  0  0  0  0  0  0
    5.8111   -7.6439    0.0000 C   0  0  0  0  0  0  0  0  0  0  0  0
    5.8111   -6.8189    0.0000 C   0  0  0  0  0  0  0  0  0  0  0  0
    5.0967   -6.4064    0.0000 C   0  0  0  0  0  0  0  0  0  0  0  0
    4.3822   -6.8189    0.0000 C   0  0  0  0  0  0  0  0  0  0  0  0
    6.5256   -8.0564    0.0000 C   0  0  0  0  0  0  0  0  0  0  0  0
    7.2401   -7.6439    0.0000 C   0  0  0  0  0  0  0  0  0  0  0  0
    7.2401   -6.8189    0.0000 C   0  0  0  0  0  0  0  0  0  0  0  0
    6.5256   -6.4064    0.0000 O   0  3  0  0  0  0  0  0  0  0  0  0
    7.9545   -8.0564    0.0000 O   0  0  0  0  0  0  0  0  0  0  0  0
    8.6690   -4.3439    0.0000 O   0  0  0  0  0  0  0  0  0  0  0  0
   10.0980   -6.8189    0.0000 O   0  0  0  0  0  0  0  0  0  0  0  0
   10.0980   -5.1689    0.0000 O   0  0  0  0  0  0  0  0  0  0  0  0
    8.6690   -6.8189    0.0000 C   0  0  0  0  0  0  0  0  0  0  0  0
    9.3835   -6.4064    0.0000 C   0  0  0  0  0  0  0  0  0  0  0  0
    9.3835   -5.5814    0.0000 C   0  0  0  0  0  0  0  0  0  0  0  0
    3.6677   -6.4064    0.0000 O   0  0  0  0  0  0  0  0  0  0  0  0
    8.6690   -5.1689    0.0000 C   0  0  0  0  0  0  0  0  0  0  0  0
    7.9545   -6.4064    0.0000 C   0  0  0  0  0  0  0  0  0  0  0  0
    7.9545   -5.5814    0.0000 C   0  0  0  0  0  0  0  0  0  0  0  0
    7.9545   -8.8814    0.0000 C   0  0  2  0  0  0  0  0  0  0  0  0
    7.2401   -9.2939    0.0000 O   0  0  0  0  0  0  0  0  0  0  0  0
    7.2401  -10.1189    0.0000 C   0  0  1  0  0  0  0  0  0  0  0  0
    7.9545  -10.5314    0.0000 C   0  0  2  0  0  0  0  0  0  0  0  0
    8.6690  -10.1189    0.0000 C   0  0  1  0  0  0  0  0  0  0  0  0
    8.6690   -9.2939    0.0000 C   0  0  1  0  0  0  0  0  0  0  0  0
    6.5256  -10.5314    0.0000 C   0  0  0  0  0  0  0  0  0  0  0  0
    9.3835  -10.5314    0.0000 O   0  0  0  0  0  0  0  0  0  0  0  0
    7.9545  -11.3564    0.0000 O   0  0  0  0  0  0  0  0  0  0  0  0
    9.3835   -8.8814    0.0000 O   0  0  0  0  0  0  0  0  0  0  0  0
    6.5256  -11.3564    0.0000 O   0  0  0  0  0  0  0  0  0  0  0  0
    5.8111  -11.7689    0.0000 C   0  0  0  0  0  0  0  0  0  0  0  0
    5.8111  -12.5939    0.0000 C   0  0  0  0  0  0  0  0  0  0  0  0
    5.0967  -11.3564    0.0000 O   0  0  0  0  0  0  0  0  0  0  0  0
    5.0967  -13.0064    0.0000 C   0  0  0  0  0  0  0  0  0  0  0  0
    5.0967  -13.8314    0.0000 O   0  0  0  0  0  0  0  0  0  0  0  0
    4.3822  -12.5939    0.0000 O   0  0  0  0  0  0  0  0  0  0  0  0
   10.8124   -6.4064    0.0000 C   0  0  0  0  0  0  0  0  0  0  0  0
  1  2  1  0  0  0  0
  2  3  2  0  0  0  0
  2  4  1  0  0  0  0
  4  5  1  0  0  0  0
  5  6  1  0  0  0  0
  6  7  2  0  0  0  0
  7  3  1  0  0  0  0
  4  8  2  0  0  0  0
  8  9  1  0  0  0  0
  9 10  2  0  0  0  0
 10 11  1  0  0  0  0
 11  5  2  0  0  0  0
  9 12  1  0  0  0  0
 20 13  1  0  0  0  0
 21 10  1  0  0  0  0
 14 17  1  0  0  0  0
 18 15  1  0  0  0  0
 16 21  1  0  0  0  0
 17 16  2  0  0  0  0
 18 17  1  0  0  0  0
 20 18  2  0  0  0  0
 22 20  1  0  0  0  0
  7 19  1  0  0  0  0
 22 21  2  0  0  0  0
 23 12  1  1  0  0  0
 23 24  1  0  0  0  0
 24 25  1  0  0  0  0
 25 26  1  0  0  0  0
 26 27  1  0  0  0  0
 27 28  1  0  0  0  0
 28 23  1  0  0  0  0
 25 29  1  1  0  0  0
 27 30  1  1  0  0  0
 26 31  1  6  0  0  0
 28 32  1  6  0  0  0
 29 33  1  0  0  0  0
 33 34  1  0  0  0  0
 34 35  1  0  0  0  0
 34 36  2  0  0  0  0
 35 37  1  0  0  0  0
 37 38  1  0  0  0  0
 37 39  2  0  0  0  0
 14 40  1  0  0  0  0
M  CHG  1  11   1
M  END
>  <cdx:fragmentId>
5

$$$$
