90570.cdx
  Mrv1902 05222410262D          

 18 19  0  0  0  0            999 V2000
    5.3408   -9.2923    0.0000 C   0  0  0  0  0  0  0  0  0  0  0  0
    4.8523   -9.9572    0.0000 C   0  0  0  0  0  0  0  0  0  0  0  0
    5.3337  -10.6272    0.0000 C   0  0  2  0  0  0  0  0  0  0  0  0
    6.1197  -10.3764    0.0000 C   0  0  1  0  0  0  0  0  0  0  0  0
    6.1240   -9.5514    0.0000 C   0  0  2  0  0  0  0  0  0  0  0  0
    6.9029  -10.6355    0.0000 C   0  0  0  0  0  0  0  0  0  0  0  0
    7.3914   -9.9707    0.0000 C   0  0  0  0  0  0  0  0  0  0  0  0
    6.9100   -9.3007    0.0000 C   0  0  0  0  0  0  0  0  0  0  0  0
    7.1691   -8.5174    0.0000 O   0  0  0  0  0  0  0  0  0  0  0  0
    8.2164   -9.9751    0.0000 C   0  0  0  0  0  0  0  0  0  0  0  0
    8.6327   -9.2628    0.0000 C   0  0  0  0  0  0  0  0  0  0  0  0
    8.6251  -10.6917    0.0000 C   0  0  0  0  0  0  0  0  0  0  0  0
    6.1284   -8.7264    0.0000 C   0  0  0  0  0  0  0  0  0  0  0  0
    6.1153  -11.2014    0.0000 H   0  0  0  0  0  0  0  0  0  0  0  0
    5.5472  -11.4241    0.0000 C   0  0  0  0  0  0  0  0  0  0  0  0
    4.5881  -10.9804    0.0000 O   0  0  0  0  0  0  0  0  0  0  0  0
    5.4162   -8.3102    0.0000 O   0  0  0  0  0  0  0  0  0  0  0  0
    6.8451   -8.3178    0.0000 C   0  0  0  0  0  0  0  0  0  0  0  0
  1  2  1  0  0  0  0
  2  3  1  0  0  0  0
  3  4  1  0  0  0  0
  4  5  1  0  0  0  0
  5  1  1  0  0  0  0
  4  6  1  0  0  0  0
  6  7  1  0  0  0  0
  7  8  1  0  0  0  0
  8  5  1  0  0  0  0
  8  9  2  0  0  0  0
  7 10  2  0  0  0  0
 10 11  1  0  0  0  0
 10 12  1  0  0  0  0
  5 13  1  6  0  0  0
  4 14  1  6  0  0  0
  3 15  1  6  0  0  0
  3 16  1  1  0  0  0
 13 17  2  0  0  0  0
 13 18  1  0  0  0  0
M  END
>  <cdx:fragmentId>
5

$$$$
