90576.cdx
  Mrv1902 05222410272D          

 21 20  0  0  0  0            999 V2000
   13.7105   -9.5689    0.0000 O   0  0  0  0  0  0  0  0  0  0  0  0
   12.9960   -9.9814    0.0000 C   0  0  0  0  0  0  0  0  0  0  0  0
   12.2816   -9.5689    0.0000 C   0  0  0  0  0  0  0  0  0  0  0  0
   11.5671   -9.9814    0.0000 C   0  0  0  0  0  0  0  0  0  0  0  0
   10.8526   -9.5689    0.0000 C   0  0  0  0  0  0  0  0  0  0  0  0
   10.1381   -9.9814    0.0000 C   0  0  0  0  0  0  0  0  0  0  0  0
    9.4237   -9.5689    0.0000 C   0  0  0  0  0  0  0  0  0  0  0  0
    8.7092   -9.9814    0.0000 C   0  0  0  0  0  0  0  0  0  0  0  0
    7.9947   -9.5689    0.0000 C   0  0  0  0  0  0  0  0  0  0  0  0
    7.2803   -9.9814    0.0000 C   0  0  0  0  0  0  0  0  0  0  0  0
    6.5658   -9.5689    0.0000 C   0  0  0  0  0  0  0  0  0  0  0  0
    5.8513   -9.9814    0.0000 C   0  0  0  0  0  0  0  0  0  0  0  0
    5.1369   -9.5689    0.0000 C   0  0  0  0  0  0  0  0  0  0  0  0
    4.4224   -9.9814    0.0000 C   0  0  0  0  0  0  0  0  0  0  0  0
    3.7079   -9.5689    0.0000 C   0  0  0  0  0  0  0  0  0  0  0  0
    2.9934   -9.9814    0.0000 C   0  0  0  0  0  0  0  0  0  0  0  0
    2.2790   -9.5689    0.0000 C   0  0  0  0  0  0  0  0  0  0  0  0
    1.5645   -9.9814    0.0000 C   0  0  0  0  0  0  0  0  0  0  0  0
    0.8500   -9.5689    0.0000 C   0  0  0  0  0  0  0  0  0  0  0  0
    5.8513  -10.8064    0.0000 O   0  0  0  0  0  0  0  0  0  0  0  0
   12.9960  -10.8064    0.0000 O   0  0  0  0  0  0  0  0  0  0  0  0
  2  1  1  0  0  0  0
  3  2  1  0  0  0  0
  4  3  1  0  0  0  0
  5  4  1  0  0  0  0
  6  5  1  0  0  0  0
  7  6  1  0  0  0  0
  8  7  1  0  0  0  0
  9  8  1  0  0  0  0
 10  9  1  0  0  0  0
 11 10  2  0  0  0  0
 12 11  1  0  0  0  0
 13 12  1  0  0  0  0
 14 13  1  0  0  0  0
 15 14  1  0  0  0  0
 16 15  1  0  0  0  0
 17 16  1  0  0  0  0
 18 17  1  0  0  0  0
 19 18  1  0  0  0  0
 12 20  2  0  0  0  0
  2 21  2  0  0  0  0
M  END
>  <cdx:fragmentId>
3

$$$$
