90573.cdx
  Mrv1902 05222410272D          

 20 21  0  0  0  0            999 V2000
    3.7931   -9.5139    0.0000 C   0  0  0  0  0  0  0  0  0  0  0  0
    3.7931  -10.3389    0.0000 C   0  0  0  0  0  0  0  0  0  0  0  0
    4.5075  -10.7514    0.0000 C   0  0  0  0  0  0  0  0  0  0  0  0
    5.2220  -10.3389    0.0000 C   0  0  1  0  0  0  0  0  0  0  0  0
    5.2220   -9.5139    0.0000 C   0  0  2  0  0  0  0  0  0  0  0  0
    4.5075   -9.1014    0.0000 C   0  0  0  0  0  0  0  0  0  0  0  0
    5.9365  -10.7514    0.0000 C   0  0  0  0  0  0  0  0  0  0  0  0
    6.6509  -10.3389    0.0000 C   0  0  0  0  0  0  0  0  0  0  0  0
    6.6509   -9.5139    0.0000 C   0  0  2  0  0  0  0  0  0  0  0  0
    5.9365   -9.1014    0.0000 C   0  0  0  0  0  0  0  0  0  0  0  0
    7.4356  -10.5938    0.0000 C   0  0  0  0  0  0  0  0  0  0  0  0
    7.9205   -9.9264    0.0000 C   0  0  0  0  0  0  0  0  0  0  0  0
    7.4356   -9.2590    0.0000 O   0  0  0  0  0  0  0  0  0  0  0  0
    4.5075  -11.5764    0.0000 C   0  0  0  0  0  0  0  0  0  0  0  0
    7.6905  -11.3785    0.0000 C   0  0  0  0  0  0  0  0  0  0  0  0
    8.7455   -9.9264    0.0000 O   0  0  0  0  0  0  0  0  0  0  0  0
    5.2220   -8.6889    0.0000 C   0  0  0  0  0  0  0  0  0  0  0  0
    6.7372   -8.6934    0.0000 O   0  0  0  0  0  0  0  0  0  0  0  0
    7.4516   -8.2809    0.0000 C   0  0  0  0  0  0  0  0  0  0  0  0
    5.2220  -11.1639    0.0000 H   0  0  0  0  0  0  0  0  0  0  0  0
  2  3  2  0  0  0  0
  4  3  1  1  0  0  0
  4  5  1  0  0  0  0
  5  6  1  0  0  0  0
  6  1  2  0  0  0  0
  4  7  1  0  0  0  0
  7  8  1  0  0  0  0
  8  9  1  0  0  0  0
  9 10  1  0  0  0  0
 10  5  1  0  0  0  0
  8 11  2  0  0  0  0
 11 12  1  0  0  0  0
 12 13  1  0  0  0  0
 13  9  1  0  0  0  0
  3 14  1  0  0  0  0
 11 15  1  0  0  0  0
 12 16  2  0  0  0  0
  5 17  1  1  0  0  0
  9 18  1  1  0  0  0
 18 19  1  0  0  0  0
  4 20  1  6  0  0  0
M  END
>  <cdx:fragmentId>
5

$$$$
