90572.cdx
  Mrv1902 05222410262D          

 21 23  0  0  0  0            999 V2000
    5.0718   -7.1901    0.0000 C   0  0  0  0  0  0  0  0  0  0  0  0
    5.0718   -8.0151    0.0000 C   0  0  0  0  0  0  0  0  0  0  0  0
    5.7863   -8.4276    0.0000 C   0  0  1  0  0  0  0  0  0  0  0  0
    6.5007   -8.0151    0.0000 C   0  0  1  0  0  0  0  0  0  0  0  0
    6.5007   -7.1901    0.0000 C   0  0  2  0  0  0  0  0  0  0  0  0
    5.7863   -6.7776    0.0000 C   0  0  2  0  0  0  0  0  0  0  0  0
    7.2152   -8.4276    0.0000 C   0  0  0  0  0  0  0  0  0  0  0  0
    7.9297   -8.0151    0.0000 C   0  0  0  0  0  0  0  0  0  0  0  0
    7.9297   -7.1901    0.0000 C   0  0  2  0  0  0  0  0  0  0  0  0
    7.2152   -6.7776    0.0000 C   0  0  0  0  0  0  0  0  0  0  0  0
    8.7143   -8.2701    0.0000 C   0  0  0  0  0  0  0  0  0  0  0  0
    9.1992   -7.6026    0.0000 C   0  0  0  0  0  0  0  0  0  0  0  0
    8.7143   -6.9352    0.0000 N   0  0  0  0  0  0  0  0  0  0  0  0
    5.7863   -5.9526    0.0000 O   0  0  0  0  0  0  0  0  0  0  0  0
    6.1988   -9.1421    0.0000 C   0  0  0  0  0  0  0  0  0  0  0  0
    6.5007   -6.3651    0.0000 C   0  0  0  0  0  0  0  0  0  0  0  0
    7.9297   -6.3651    0.0000 H   0  0  0  0  0  0  0  0  0  0  0  0
    8.9692   -9.0547    0.0000 C   0  0  0  0  0  0  0  0  0  0  0  0
   10.0242   -7.6026    0.0000 O   0  0  0  0  0  0  0  0  0  0  0  0
    5.3738   -9.1421    0.0000 O   0  0  0  0  0  0  0  0  0  0  0  0
    6.5007   -8.8401    0.0000 H   0  0  0  0  0  0  0  0  0  0  0  0
  1  2  1  0  0  0  0
  2  3  1  0  0  0  0
  3  4  1  0  0  0  0
  4  5  1  0  0  0  0
  5  6  1  0  0  0  0
  6  1  1  0  0  0  0
  4  7  1  0  0  0  0
  7  8  1  0  0  0  0
  8  9  1  0  0  0  0
  9 10  1  0  0  0  0
 10  5  1  0  0  0  0
  8 11  2  0  0  0  0
 11 12  1  0  0  0  0
 12 13  1  0  0  0  0
 13  9  1  0  0  0  0
  6 14  1  1  0  0  0
  3 15  1  1  0  0  0
  5 16  1  1  0  0  0
  9 17  1  1  0  0  0
 11 18  1  0  0  0  0
 12 19  2  0  0  0  0
  3 20  1  6  0  0  0
  4 21  1  6  0  0  0
M  END
>  <cdx:fragmentId>
5

$$$$
