90571.cdx
  Mrv1902 05222410262D          

 19 20  0  0  0  0            999 V2000
    4.7747   -8.5138    0.0000 C   0  0  0  0  0  0  0  0  0  0  0  0
    4.4141   -9.2558    0.0000 C   0  0  0  0  0  0  0  0  0  0  0  0
    4.7694  -10.0004    0.0000 C   0  0  1  0  0  0  0  0  0  0  0  0
    5.5731  -10.1869    0.0000 C   0  0  0  0  0  0  0  0  0  0  0  0
    6.2199   -9.6748    0.0000 C   0  0  2  0  0  0  0  0  0  0  0  0
    6.2229   -8.8498    0.0000 C   0  0  1  0  0  0  0  0  0  0  0  0
    5.5797   -8.3331    0.0000 C   0  0  1  0  0  0  0  0  0  0  0  0
    7.0036   -9.9325    0.0000 C   0  0  0  0  0  0  0  0  0  0  0  0
    7.4909   -9.2668    0.0000 C   0  0  0  0  0  0  0  0  0  0  0  0
    7.0036   -8.5977    0.0000 C   0  0  0  0  0  0  0  0  0  0  0  0
    8.3159   -9.2679    0.0000 O   0  0  0  0  0  0  0  0  0  0  0  0
    7.2558  -10.7181    0.0000 C   0  0  0  0  0  0  0  0  0  0  0  0
    6.7015  -11.3292    0.0000 C   0  0  0  0  0  0  0  0  0  0  0  0
    8.0621  -10.8925    0.0000 C   0  0  0  0  0  0  0  0  0  0  0  0
    5.7538  -10.9918    0.0000 O   0  0  0  0  0  0  0  0  0  0  0  0
    4.2527  -10.6436    0.0000 C   0  0  0  0  0  0  0  0  0  0  0  0
    6.2199  -10.4998    0.0000 H   0  0  0  0  0  0  0  0  0  0  0  0
    5.7661   -7.5295    0.0000 O   0  0  0  0  0  0  0  0  0  0  0  0
    6.2229   -8.0248    0.0000 C   0  0  0  0  0  0  0  0  0  0  0  0
  1  2  1  0  0  0  0
  2  3  1  0  0  0  0
  3  4  1  0  0  0  0
  4  5  1  0  0  0  0
  5  6  1  0  0  0  0
  6  7  1  0  0  0  0
  7  1  1  0  0  0  0
  5  8  1  0  0  0  0
  8  9  1  0  0  0  0
  9 10  1  0  0  0  0
 10  6  1  0  0  0  0
  9 11  2  0  0  0  0
  8 12  2  0  0  0  0
 12 13  1  0  0  0  0
 12 14  1  0  0  0  0
  4 15  2  0  0  0  0
  3 16  1  1  0  0  0
  5 17  1  1  0  0  0
  7 18  1  6  0  0  0
  6 19  1  6  0  0  0
M  END
>  <cdx:fragmentId>
5

$$$$
