90585.cdx
  Mrv1902 05222410192D          

 38 41  0  0  0  0            999 V2000
    6.8186   -7.2314    0.0000 O   0  0  0  0  0  0  0  0  0  0  0  0
   13.9633   -6.4064    0.0000 C   0  0  0  0  0  0  0  0  0  0  0  0
   13.2488   -5.9939    0.0000 O   0  0  0  0  0  0  0  0  0  0  0  0
   11.8199   -7.6439    0.0000 C   0  0  0  0  0  0  0  0  0  0  0  0
   12.5344   -7.2314    0.0000 C   0  0  0  0  0  0  0  0  0  0  0  0
   12.5344   -6.4064    0.0000 C   0  0  0  0  0  0  0  0  0  0  0  0
   11.8199   -5.9939    0.0000 C   0  0  0  0  0  0  0  0  0  0  0  0
   11.1054   -7.2314    0.0000 C   0  0  0  0  0  0  0  0  0  0  0  0
   11.1054   -6.4064    0.0000 C   0  0  0  0  0  0  0  0  0  0  0  0
    8.2475   -9.7064    0.0000 O   0  0  0  0  0  0  0  0  0  0  0  0
    9.6765   -9.7064    0.0000 O   0  0  0  0  0  0  0  0  0  0  0  0
    9.6765   -8.8814    0.0000 C   0  0  0  0  0  0  0  0  0  0  0  0
   10.3909   -8.4689    0.0000 C   0  0  0  0  0  0  0  0  0  0  0  0
   10.3909   -7.6439    0.0000 C   0  0  0  0  0  0  0  0  0  0  0  0
    9.6765   -7.2314    0.0000 O   0  0  0  0  0  0  0  0  0  0  0  0
    8.2475   -8.8814    0.0000 C   0  0  0  0  0  0  0  0  0  0  0  0
    8.9620   -8.4689    0.0000 C   0  0  0  0  0  0  0  0  0  0  0  0
    8.9620   -7.6439    0.0000 C   0  0  0  0  0  0  0  0  0  0  0  0
    8.2475   -7.2314    0.0000 C   0  0  0  0  0  0  0  0  0  0  0  0
    7.5331   -7.6439    0.0000 C   0  0  0  0  0  0  0  0  0  0  0  0
    7.5331   -8.4689    0.0000 C   0  0  0  0  0  0  0  0  0  0  0  0
    6.1041   -7.6439    0.0000 C   0  0  2  0  0  0  0  0  0  0  0  0
    5.3896   -7.2314    0.0000 O   0  0  0  0  0  0  0  0  0  0  0  0
    4.6752   -7.6439    0.0000 C   0  0  1  0  0  0  0  0  0  0  0  0
    4.6752   -8.4689    0.0000 C   0  0  2  0  0  0  0  0  0  0  0  0
    5.3896   -8.8814    0.0000 C   0  0  1  0  0  0  0  0  0  0  0  0
    6.1041   -8.4689    0.0000 C   0  0  1  0  0  0  0  0  0  0  0  0
    3.9607   -7.2314    0.0000 C   0  0  0  0  0  0  0  0  0  0  0  0
    5.3896   -9.7064    0.0000 O   0  0  0  0  0  0  0  0  0  0  0  0
    3.9607   -8.8814    0.0000 O   0  0  0  0  0  0  0  0  0  0  0  0
    6.8186   -8.8814    0.0000 O   0  0  0  0  0  0  0  0  0  0  0  0
    3.2462   -7.6439    0.0000 O   0  0  0  0  0  0  0  0  0  0  0  0
    2.5318   -7.2314    0.0000 C   0  0  0  0  0  0  0  0  0  0  0  0
    1.8173   -7.6439    0.0000 C   0  0  0  0  0  0  0  0  0  0  0  0
    1.1028   -7.2314    0.0000 C   0  0  0  0  0  0  0  0  0  0  0  0
    0.3883   -7.6439    0.0000 O   0  0  0  0  0  0  0  0  0  0  0  0
    1.1028   -6.4064    0.0000 O   0  0  0  0  0  0  0  0  0  0  0  0
    2.5318   -6.4064    0.0000 O   0  0  0  0  0  0  0  0  0  0  0  0
 20  1  1  0  0  0  0
  3  2  1  0  0  0  0
  6  3  1  0  0  0  0
  4  8  2  0  0  0  0
  5  4  1  0  0  0  0
  6  5  2  0  0  0  0
  7  6  1  0  0  0  0
  9  7  2  0  0  0  0
  8 14  1  0  0  0  0
  9  8  1  0  0  0  0
 10 16  1  0  0  0  0
 12 11  2  0  0  0  0
 12 17  1  0  0  0  0
 13 12  1  0  0  0  0
 14 13  2  0  0  0  0
 15 14  1  0  0  0  0
 18 15  1  0  0  0  0
 16 21  1  0  0  0  0
 17 16  2  0  0  0  0
 18 17  1  0  0  0  0
 19 18  2  0  0  0  0
 20 19  1  0  0  0  0
 21 20  2  0  0  0  0
 22  1  1  1  0  0  0
 22 23  1  0  0  0  0
 23 24  1  0  0  0  0
 24 25  1  0  0  0  0
 25 26  1  0  0  0  0
 26 27  1  0  0  0  0
 27 22  1  0  0  0  0
 24 28  1  1  0  0  0
 26 29  1  1  0  0  0
 25 30  1  6  0  0  0
 27 31  1  6  0  0  0
 28 32  1  0  0  0  0
 32 33  1  0  0  0  0
 33 34  1  0  0  0  0
 34 35  1  0  0  0  0
 35 36  1  0  0  0  0
 35 37  2  0  0  0  0
 33 38  2  0  0  0  0
M  END
>  <cdx:fragmentId>
5

$$$$
