90589.cdx
  Mrv1902 05222410272D          

 42 46  0  0  0  0            999 V2000
    6.9423   -5.8701    0.0000 O   0  0  0  0  0  0  0  0  0  0  0  0
   14.0870   -5.0451    0.0000 C   0  0  0  0  0  0  0  0  0  0  0  0
   13.3726   -4.6326    0.0000 O   0  0  0  0  0  0  0  0  0  0  0  0
   12.6581   -5.8701    0.0000 C   0  0  0  0  0  0  0  0  0  0  0  0
   12.6581   -5.0451    0.0000 C   0  0  0  0  0  0  0  0  0  0  0  0
   11.9436   -4.6326    0.0000 C   0  0  0  0  0  0  0  0  0  0  0  0
   11.2292   -5.0451    0.0000 C   0  0  0  0  0  0  0  0  0  0  0  0
   11.9436   -6.2826    0.0000 C   0  0  0  0  0  0  0  0  0  0  0  0
   11.2292   -5.8701    0.0000 C   0  0  0  0  0  0  0  0  0  0  0  0
    8.3713   -8.3451    0.0000 O   0  0  0  0  0  0  0  0  0  0  0  0
    9.8002   -8.3451    0.0000 O   0  0  0  0  0  0  0  0  0  0  0  0
    9.8002   -7.5201    0.0000 C   0  0  0  0  0  0  0  0  0  0  0  0
   10.5147   -7.1076    0.0000 C   0  0  0  0  0  0  0  0  0  0  0  0
   10.5147   -6.2826    0.0000 C   0  0  0  0  0  0  0  0  0  0  0  0
    9.8002   -5.8701    0.0000 O   0  0  0  0  0  0  0  0  0  0  0  0
    8.3713   -7.5201    0.0000 C   0  0  0  0  0  0  0  0  0  0  0  0
    9.0857   -7.1076    0.0000 C   0  0  0  0  0  0  0  0  0  0  0  0
    9.0857   -6.2826    0.0000 C   0  0  0  0  0  0  0  0  0  0  0  0
    8.3713   -5.8701    0.0000 C   0  0  0  0  0  0  0  0  0  0  0  0
    7.6568   -6.2826    0.0000 C   0  0  0  0  0  0  0  0  0  0  0  0
    7.6568   -7.1076    0.0000 C   0  0  0  0  0  0  0  0  0  0  0  0
    6.2279   -6.2826    0.0000 C   0  0  2  0  0  0  0  0  0  0  0  0
    5.5134   -5.8701    0.0000 O   0  0  0  0  0  0  0  0  0  0  0  0
    4.7989   -6.2826    0.0000 C   0  0  1  0  0  0  0  0  0  0  0  0
    4.7989   -7.1076    0.0000 C   0  0  2  0  0  0  0  0  0  0  0  0
    5.5134   -7.5201    0.0000 C   0  0  1  0  0  0  0  0  0  0  0  0
    6.2279   -7.1076    0.0000 C   0  0  1  0  0  0  0  0  0  0  0  0
    4.0844   -5.8701    0.0000 C   0  0  0  0  0  0  0  0  0  0  0  0
    3.3700   -6.2826    0.0000 O   0  0  0  0  0  0  0  0  0  0  0  0
    4.0844   -7.5201    0.0000 O   0  0  0  0  0  0  0  0  0  0  0  0
    2.6555   -5.0451    0.0000 O   0  0  0  0  0  0  0  0  0  0  0  0
    2.6555   -5.8701    0.0000 C   0  0  2  0  0  0  0  0  0  0  0  0
    1.9410   -4.6326    0.0000 C   0  0  2  0  0  0  0  0  0  0  0  0
    1.2266   -5.0451    0.0000 C   0  0  1  0  0  0  0  0  0  0  0  0
    1.2266   -5.8701    0.0000 C   0  0  2  0  0  0  0  0  0  0  0  0
    1.9410   -6.2826    0.0000 C   0  0  1  0  0  0  0  0  0  0  0  0
    5.5134   -8.3451    0.0000 O   0  0  0  0  0  0  0  0  0  0  0  0
    0.5121   -4.6326    0.0000 O   0  0  0  0  0  0  0  0  0  0  0  0
    6.9423   -7.5201    0.0000 O   0  0  0  0  0  0  0  0  0  0  0  0
    1.9410   -7.1076    0.0000 O   0  0  0  0  0  0  0  0  0  0  0  0
    0.5121   -6.2826    0.0000 O   0  0  0  0  0  0  0  0  0  0  0  0
    1.9410   -3.8076    0.0000 C   0  0  0  0  0  0  0  0  0  0  0  0
 20  1  1  0  0  0  0
  3  2  1  0  0  0  0
  5  3  1  0  0  0  0
  4  8  1  0  0  0  0
  5  4  2  0  0  0  0
  6  5  1  0  0  0  0
  7  6  2  0  0  0  0
  9  7  1  0  0  0  0
  9  8  2  0  0  0  0
 14  9  1  0  0  0  0
 10 16  1  0  0  0  0
 12 11  2  0  0  0  0
 12 17  1  0  0  0  0
 13 12  1  0  0  0  0
 14 13  2  0  0  0  0
 15 14  1  0  0  0  0
 18 15  1  0  0  0  0
 16 21  1  0  0  0  0
 17 16  2  0  0  0  0
 18 17  1  0  0  0  0
 19 18  2  0  0  0  0
 20 19  1  0  0  0  0
 21 20  2  0  0  0  0
 22  1  1  1  0  0  0
 22 23  1  0  0  0  0
 23 24  1  0  0  0  0
 24 25  1  0  0  0  0
 25 26  1  0  0  0  0
 26 27  1  0  0  0  0
 27 22  1  0  0  0  0
 24 28  1  1  0  0  0
 28 29  1  0  0  0  0
 25 30  1  6  0  0  0
 31 32  1  0  0  0  0
 32 29  1  1  0  0  0
 31 33  1  0  0  0  0
 33 34  1  0  0  0  0
 34 35  1  0  0  0  0
 35 36  1  0  0  0  0
 36 32  1  0  0  0  0
 26 37  1  1  0  0  0
 34 38  1  1  0  0  0
 27 39  1  6  0  0  0
 36 40  1  6  0  0  0
 35 41  1  6  0  0  0
 33 42  1  6  0  0  0
M  END
>  <cdx:fragmentId>
5

$$$$
