90582.cdx
  Mrv1902 05222410202D          

 25 24  0  0  0  0            999 V2000
    3.1602  -11.5214    0.0000 O   0  0  0  0  0  0  0  0  0  0  0  0
    3.8747  -11.1089    0.0000 C   0  0  0  0  0  0  0  0  0  0  0  0
   10.3049   -4.9214    0.0000 C   0  0  0  0  0  0  0  0  0  0  0  0
   11.0194   -5.3339    0.0000 C   0  0  0  0  0  0  0  0  0  0  0  0
   11.0194   -6.1589    0.0000 C   0  0  0  0  0  0  0  0  0  0  0  0
   11.7339   -6.5714    0.0000 C   0  0  0  0  0  0  0  0  0  0  0  0
   11.7339   -7.3964    0.0000 C   0  0  0  0  0  0  0  0  0  0  0  0
   12.4484   -7.8089    0.0000 C   0  0  0  0  0  0  0  0  0  0  0  0
   12.4484   -8.6339    0.0000 C   0  0  0  0  0  0  0  0  0  0  0  0
   11.7339   -9.0464    0.0000 C   0  0  0  0  0  0  0  0  0  0  0  0
    5.3036  -11.1089    0.0000 O   0  0  0  0  0  0  0  0  0  0  0  0
   11.7339   -9.8714    0.0000 C   0  0  0  0  0  0  0  0  0  0  0  0
   11.0194  -10.2839    0.0000 C   0  0  0  0  0  0  0  0  0  0  0  0
   10.3049   -9.8714    0.0000 C   0  0  0  0  0  0  0  0  0  0  0  0
    9.5905  -10.2839    0.0000 C   0  0  0  0  0  0  0  0  0  0  0  0
    8.8760   -9.8714    0.0000 C   0  0  0  0  0  0  0  0  0  0  0  0
    8.1615  -10.2839    0.0000 C   0  0  0  0  0  0  0  0  0  0  0  0
    7.4471   -9.8714    0.0000 C   0  0  0  0  0  0  0  0  0  0  0  0
    6.7326  -10.2839    0.0000 C   0  0  0  0  0  0  0  0  0  0  0  0
    6.0181   -9.8714    0.0000 C   0  0  0  0  0  0  0  0  0  0  0  0
    5.3036  -10.2839    0.0000 C   0  0  0  0  0  0  0  0  0  0  0  0
    4.5892   -9.8714    0.0000 O   0  0  0  0  0  0  0  0  0  0  0  0
    3.8747  -10.2839    0.0000 C   0  0  0  0  0  0  0  0  0  0  0  0
    3.1602   -9.8714    0.0000 C   0  0  0  0  0  0  0  0  0  0  0  0
    2.4458  -10.2839    0.0000 O   0  0  0  0  0  0  0  0  0  0  0  0
  2  1  1  0  0  0  0
 23  2  1  0  0  0  0
  4  3  1  0  0  0  0
  5  4  1  0  0  0  0
  6  5  1  0  0  0  0
  7  6  1  0  0  0  0
  8  7  1  0  0  0  0
  9  8  2  0  0  0  0
 10  9  1  0  0  0  0
 12 10  1  0  0  0  0
 21 11  2  0  0  0  0
 12 13  2  0  0  0  0
 13 14  1  0  0  0  0
 14 15  1  0  0  0  0
 15 16  1  0  0  0  0
 16 17  1  0  0  0  0
 17 18  1  0  0  0  0
 18 19  1  0  0  0  0
 19 20  1  0  0  0  0
 20 21  1  0  0  0  0
 21 22  1  0  0  0  0
 22 23  1  0  0  0  0
 23 24  1  0  0  0  0
 24 25  1  0  0  0  0
M  END
>  <cdx:fragmentId>
3

$$$$
