90580.cdx
  Mrv1902 05222410192D          

 16 18  0  0  0  0            999 V2000
    4.1643   -7.9464    0.0000 C   0  0  0  0  0  0  0  0  0  0  0  0
    4.1643   -8.7714    0.0000 C   0  0  0  0  0  0  0  0  0  0  0  0
    4.8788   -9.1839    0.0000 C   0  0  0  0  0  0  0  0  0  0  0  0
    5.5932   -8.7714    0.0000 C   0  0  0  0  0  0  0  0  0  0  0  0
    5.5932   -7.9464    0.0000 C   0  0  0  0  0  0  0  0  0  0  0  0
    4.8788   -7.5339    0.0000 C   0  0  0  0  0  0  0  0  0  0  0  0
    6.3077   -9.1839    0.0000 C   0  0  0  0  0  0  0  0  0  0  0  0
    7.0222   -8.7714    0.0000 C   0  0  0  0  0  0  0  0  0  0  0  0
    7.0222   -7.9464    0.0000 C   0  0  0  0  0  0  0  0  0  0  0  0
    6.3077   -7.5339    0.0000 C   0  0  0  0  0  0  0  0  0  0  0  0
    7.7367   -9.1839    0.0000 C   0  0  0  0  0  0  0  0  0  0  0  0
    8.4511   -8.7714    0.0000 C   0  0  0  0  0  0  0  0  0  0  0  0
    8.4511   -7.9464    0.0000 C   0  0  0  0  0  0  0  0  0  0  0  0
    7.7367   -7.5339    0.0000 C   0  0  0  0  0  0  0  0  0  0  0  0
    6.3077   -6.7089    0.0000 C   0  0  0  0  0  0  0  0  0  0  0  0
    6.3077  -10.0089    0.0000 C   0  0  0  0  0  0  0  0  0  0  0  0
  1  2  1  0  0  0  0
  2  3  2  0  0  0  0
  3  4  1  0  0  0  0
  4  5  1  0  0  0  0
  5  6  1  0  0  0  0
  6  1  2  0  0  0  0
  4  7  2  0  0  0  0
  7  8  1  0  0  0  0
  8  9  1  0  0  0  0
  9 10  1  0  0  0  0
 10  5  2  0  0  0  0
  8 11  2  0  0  0  0
 11 12  1  0  0  0  0
 12 13  2  0  0  0  0
 13 14  1  0  0  0  0
 14  9  2  0  0  0  0
 10 15  1  0  0  0  0
  7 16  1  0  0  0  0
M  END
>  <cdx:fragmentId>
5

$$$$
