90584.cdx
  Mrv1902 05222410182D          

 20 19  0  0  0  0            999 V2000
    1.0288   -8.2489    0.0000 C   0  0  0  0  0  0  0  0  0  0  0  0
    1.7432   -7.8364    0.0000 C   0  0  0  0  0  0  0  0  0  0  0  0
    2.4577   -8.2489    0.0000 C   0  0  0  0  0  0  0  0  0  0  0  0
    3.1722   -7.8364    0.0000 C   0  0  0  0  0  0  0  0  0  0  0  0
    3.8867   -8.2489    0.0000 C   0  0  0  0  0  0  0  0  0  0  0  0
    4.6011   -7.8364    0.0000 C   0  0  0  0  0  0  0  0  0  0  0  0
    5.3156   -8.2489    0.0000 C   0  0  0  0  0  0  0  0  0  0  0  0
    6.0301   -7.8364    0.0000 C   0  0  0  0  0  0  0  0  0  0  0  0
    6.7445   -8.2489    0.0000 C   0  0  0  0  0  0  0  0  0  0  0  0
    7.4590   -7.8364    0.0000 C   0  0  0  0  0  0  0  0  0  0  0  0
    8.1735   -8.2489    0.0000 C   0  0  0  0  0  0  0  0  0  0  0  0
    8.8880   -7.8364    0.0000 C   0  0  0  0  0  0  0  0  0  0  0  0
    9.6024   -8.2489    0.0000 C   0  0  0  0  0  0  0  0  0  0  0  0
   10.3169   -7.8364    0.0000 C   0  0  0  0  0  0  0  0  0  0  0  0
   11.0314   -8.2489    0.0000 C   0  0  0  0  0  0  0  0  0  0  0  0
   11.7458   -7.8364    0.0000 C   0  0  0  0  0  0  0  0  0  0  0  0
   12.4603   -8.2489    0.0000 C   0  0  0  0  0  0  0  0  0  0  0  0
   13.1748   -7.8364    0.0000 C   0  0  0  0  0  0  0  0  0  0  0  0
   13.8893   -8.2489    0.0000 C   0  0  0  0  0  0  0  0  0  0  0  0
    6.7445   -9.0739    0.0000 C   0  0  0  0  0  0  0  0  0  0  0  0
  1  2  1  0  0  0  0
  2  3  1  0  0  0  0
  3  4  1  0  0  0  0
  4  5  1  0  0  0  0
  5  6  1  0  0  0  0
  6  7  1  0  0  0  0
  7  8  1  0  0  0  0
  8  9  1  0  0  0  0
  9 10  1  0  0  0  0
 10 11  1  0  0  0  0
 11 12  1  0  0  0  0
 12 13  1  0  0  0  0
 13 14  1  0  0  0  0
 14 15  1  0  0  0  0
 15 16  1  0  0  0  0
 16 17  1  0  0  0  0
 17 18  1  0  0  0  0
 18 19  1  0  0  0  0
  9 20  1  0  0  0  0
M  END
>  <cdx:fragmentId>
3

$$$$
