90587.cdx
  Mrv1902 05222410182D          

 32 35  0  0  0  0            999 V2000
    3.2827   -6.4763    0.0000 C   0  0  2  0  0  0  0  0  0  0  0  0
    3.2827   -7.3012    0.0000 C   0  0  1  0  0  0  0  0  0  0  0  0
    3.9971   -7.7138    0.0000 C   0  0  1  0  0  0  0  0  0  0  0  0
    4.7116   -7.3012    0.0000 C   0  0  2  0  0  0  0  0  0  0  0  0
    4.7116   -6.4763    0.0000 C   0  0  1  0  0  0  0  0  0  0  0  0
    3.9971   -6.0638    0.0000 O   0  0  0  0  0  0  0  0  0  0  0  0
    5.4261   -7.7138    0.0000 O   0  0  0  0  0  0  0  0  0  0  0  0
    6.1405   -7.3012    0.0000 C   0  0  0  0  0  0  0  0  0  0  0  0
    6.1405   -6.4763    0.0000 C   0  0  0  0  0  0  0  0  0  0  0  0
    5.4261   -6.0638    0.0000 O   0  0  0  0  0  0  0  0  0  0  0  0
    6.8550   -7.7138    0.0000 C   0  0  0  0  0  0  0  0  0  0  0  0
    7.5695   -7.3012    0.0000 C   0  0  0  0  0  0  0  0  0  0  0  0
    7.5695   -6.4763    0.0000 C   0  0  0  0  0  0  0  0  0  0  0  0
    6.8550   -6.0638    0.0000 C   0  0  0  0  0  0  0  0  0  0  0  0
    8.2840   -7.7138    0.0000 C   0  0  0  0  0  0  0  0  0  0  0  0
    8.9984   -7.3012    0.0000 C   0  0  0  0  0  0  0  0  0  0  0  0
    8.9984   -6.4763    0.0000 C   0  0  0  0  0  0  0  0  0  0  0  0
    8.2840   -6.0638    0.0000 O   0  0  0  0  0  0  0  0  0  0  0  0
    9.7129   -6.0638    0.0000 C   0  0  0  0  0  0  0  0  0  0  0  0
    9.7129   -5.2387    0.0000 C   0  0  0  0  0  0  0  0  0  0  0  0
   10.4274   -6.4763    0.0000 C   0  0  0  0  0  0  0  0  0  0  0  0
   11.1418   -6.0638    0.0000 C   0  0  0  0  0  0  0  0  0  0  0  0
   11.1418   -5.2387    0.0000 C   0  0  0  0  0  0  0  0  0  0  0  0
   10.4274   -4.8263    0.0000 C   0  0  0  0  0  0  0  0  0  0  0  0
   11.8563   -4.8263    0.0000 O   0  0  0  0  0  0  0  0  0  0  0  0
   12.5708   -5.2387    0.0000 C   0  0  0  0  0  0  0  0  0  0  0  0
    8.2840   -8.5388    0.0000 O   0  0  0  0  0  0  0  0  0  0  0  0
    6.8550   -8.5388    0.0000 O   0  0  0  0  0  0  0  0  0  0  0  0
    2.5682   -6.0638    0.0000 C   0  0  0  0  0  0  0  0  0  0  0  0
    1.8537   -6.4763    0.0000 O   0  0  0  0  0  0  0  0  0  0  0  0
    3.9971   -8.5388    0.0000 O   0  0  0  0  0  0  0  0  0  0  0  0
    2.5682   -7.7138    0.0000 O   0  0  0  0  0  0  0  0  0  0  0  0
  1  2  1  0  0  0  0
  2  3  1  0  0  0  0
  3  4  1  0  0  0  0
  4  5  1  0  0  0  0
  5  6  1  0  0  0  0
  6  1  1  0  0  0  0
  4  7  1  6  0  0  0
  8  9  1  0  0  0  0
  9 10  1  0  0  0  0
  5 10  1  1  0  0  0
  8 11  2  0  0  0  0
 11 12  1  0  0  0  0
 12 13  2  0  0  0  0
 13 14  1  0  0  0  0
 14  9  2  0  0  0  0
 12 15  1  0  0  0  0
 15 16  1  0  0  0  0
 16 17  2  0  0  0  0
 17 18  1  0  0  0  0
 18 13  1  0  0  0  0
 17 19  1  0  0  0  0
 19 20  1  0  0  0  0
 19 21  2  0  0  0  0
 21 22  1  0  0  0  0
 22 23  2  0  0  0  0
 23 24  1  0  0  0  0
 24 20  2  0  0  0  0
 23 25  1  0  0  0  0
 25 26  1  0  0  0  0
 15 27  2  0  0  0  0
 11 28  1  0  0  0  0
  1 29  1  1  0  0  0
 29 30  1  0  0  0  0
  3 31  1  1  0  0  0
  2 32  1  1  0  0  0
M  END
>  <cdx:fragmentId>
5

$$$$
