90591.cdx
  Mrv1902 05222410192D          

 42 45  0  0  0  0            999 V2000
    6.4743   -9.4314    0.0000 C   0  0  2  0  0  0  0  0  0  0  0  0
    6.4743  -10.2564    0.0000 C   0  0  2  0  0  0  0  0  0  0  0  0
    7.1888  -10.6689    0.0000 C   0  0  1  0  0  0  0  0  0  0  0  0
    7.9032  -10.2564    0.0000 C   0  0  2  0  0  0  0  0  0  0  0  0
    7.9032   -9.4314    0.0000 C   0  0  1  0  0  0  0  0  0  0  0  0
    7.1888   -9.0189    0.0000 O   0  0  0  0  0  0  0  0  0  0  0  0
    7.1888   -5.7189    0.0000 C   0  0  0  0  0  0  0  0  0  0  0  0
    7.1888  -11.4939    0.0000 O   0  0  0  0  0  0  0  0  0  0  0  0
    5.7598  -10.6689    0.0000 O   0  0  0  0  0  0  0  0  0  0  0  0
    8.6177  -10.6689    0.0000 O   0  0  0  0  0  0  0  0  0  0  0  0
    2.6755   -6.8862    0.0000 O   0  0  0  0  0  0  0  0  0  0  0  0
    3.3900   -6.4737    0.0000 C   0  0  0  0  0  0  0  0  0  0  0  0
    4.3657   -5.9925    0.0000 O   0  0  0  0  0  0  0  0  0  0  0  0
    5.5722   -6.4089    0.0000 O   0  0  0  0  0  0  0  0  0  0  0  0
    4.9591   -6.9609    0.0000 C   0  0  2  0  0  0  0  0  0  0  0  0
    4.1522   -6.7894    0.0000 C   0  0  2  0  0  0  0  0  0  0  0  0
    3.7397   -7.5039    0.0000 C   0  0  0  0  0  0  0  0  0  0  0  0
    4.2917   -8.1170    0.0000 O   0  0  0  0  0  0  0  0  0  0  0  0
    5.0454   -7.7814    0.0000 C   0  0  1  0  0  0  0  0  0  0  0  0
    5.7598   -8.1939    0.0000 O   0  0  0  0  0  0  0  0  0  0  0  0
    5.7598   -9.0189    0.0000 C   0  0  0  0  0  0  0  0  0  0  0  0
    7.9032   -5.3064    0.0000 C   0  0  0  0  0  0  0  0  0  0  0  0
    8.6177   -5.7189    0.0000 C   0  0  0  0  0  0  0  0  0  0  0  0
    9.3322   -5.3064    0.0000 C   0  0  0  0  0  0  0  0  0  0  0  0
    9.3322   -4.4814    0.0000 C   0  0  0  0  0  0  0  0  0  0  0  0
    8.6177   -4.0689    0.0000 C   0  0  0  0  0  0  0  0  0  0  0  0
    7.9032   -4.4814    0.0000 C   0  0  0  0  0  0  0  0  0  0  0  0
   10.0467   -4.0689    0.0000 O   0  0  0  0  0  0  0  0  0  0  0  0
    7.1888   -6.5439    0.0000 C   0  0  0  0  0  0  0  0  0  0  0  0
    7.9032   -6.9564    0.0000 C   0  0  0  0  0  0  0  0  0  0  0  0
   12.1901   -5.3064    0.0000 O   0  0  0  0  0  0  0  0  0  0  0  0
   10.7611   -6.9564    0.0000 C   0  0  0  0  0  0  0  0  0  0  0  0
   11.4756   -6.5439    0.0000 C   0  0  0  0  0  0  0  0  0  0  0  0
   11.4756   -5.7189    0.0000 C   0  0  0  0  0  0  0  0  0  0  0  0
   10.7611   -5.3064    0.0000 C   0  0  0  0  0  0  0  0  0  0  0  0
   10.0467   -5.7189    0.0000 C   0  0  0  0  0  0  0  0  0  0  0  0
   10.0467   -6.5439    0.0000 C   0  0  0  0  0  0  0  0  0  0  0  0
    9.3322   -6.9564    0.0000 C   0  0  0  0  0  0  0  0  0  0  0  0
    7.9032   -7.7814    0.0000 C   0  0  0  0  0  0  0  0  0  0  0  0
    9.3322   -7.7814    0.0000 C   0  0  0  0  0  0  0  0  0  0  0  0
    8.6177   -8.1939    0.0000 C   0  0  2  0  0  0  0  0  0  0  0  0
    8.6177   -9.0189    0.0000 O   0  0  0  0  0  0  0  0  0  0  0  0
  1  2  1  0  0  0  0
  2  3  1  0  0  0  0
  3  4  1  0  0  0  0
  4  5  1  0  0  0  0
  5  6  1  0  0  0  0
  6  1  1  0  0  0  0
  5 42  1  1  0  0  0
  3  8  1  1  0  0  0
 12 11  1  0  0  0  0
  1 21  1  1  0  0  0
  2  9  1  6  0  0  0
  4 10  1  6  0  0  0
 16 12  1  0  0  0  0
 16 13  1  1  0  0  0
 15 14  1  1  0  0  0
 15 19  1  0  0  0  0
 16 15  1  0  0  0  0
 17 16  1  0  0  0  0
 18 17  1  0  0  0  0
 19 18  1  0  0  0  0
 19 20  1  6  0  0  0
 21 20  1  0  0  0  0
  7 22  1  0  0  0  0
 22 23  2  0  0  0  0
 23 24  1  0  0  0  0
 24 25  2  0  0  0  0
 25 26  1  0  0  0  0
 26 27  2  0  0  0  0
 27 22  1  0  0  0  0
 29  7  1  0  0  0  0
 25 28  1  0  0  0  0
 30 29  1  0  0  0  0
 39 30  1  0  0  0  0
 34 31  1  0  0  0  0
 32 37  1  0  0  0  0
 33 32  2  0  0  0  0
 34 33  1  0  0  0  0
 35 34  2  0  0  0  0
 36 35  1  0  0  0  0
 37 36  2  0  0  0  0
 38 37  1  0  0  0  0
 40 38  1  0  0  0  0
 41 39  1  0  0  0  0
 41 40  1  0  0  0  0
 41 42  1  6  0  0  0
M  END
>  <cdx:fragmentId>
5

$$$$
