90595.cdx
  Mrv1902 05222410192D          

 47 50  0  0  0  0            999 V2000
    6.5843   -8.5651    0.0000 C   0  0  2  0  0  0  0  0  0  0  0  0
    6.5843   -9.3901    0.0000 C   0  0  2  0  0  0  0  0  0  0  0  0
    7.2988   -9.8026    0.0000 C   0  0  1  0  0  0  0  0  0  0  0  0
    8.0132   -9.3901    0.0000 C   0  0  2  0  0  0  0  0  0  0  0  0
    8.0132   -8.5651    0.0000 C   0  0  1  0  0  0  0  0  0  0  0  0
    7.2988   -8.1526    0.0000 O   0  0  0  0  0  0  0  0  0  0  0  0
    8.7277   -9.8026    0.0000 O   0  0  0  0  0  0  0  0  0  0  0  0
   13.0145   -8.1527    0.0000 O   0  0  0  0  0  0  0  0  0  0  0  0
   13.0145   -9.8027    0.0000 O   0  0  0  0  0  0  0  0  0  0  0  0
   11.5856   -9.8027    0.0000 C   0  0  0  0  0  0  0  0  0  0  0  0
   12.3001   -9.3902    0.0000 C   0  0  0  0  0  0  0  0  0  0  0  0
   12.3001   -8.5652    0.0000 C   0  0  0  0  0  0  0  0  0  0  0  0
   11.5856   -8.1527    0.0000 C   0  0  0  0  0  0  0  0  0  0  0  0
   10.8711   -9.3902    0.0000 C   0  0  0  0  0  0  0  0  0  0  0  0
   10.8711   -8.5652    0.0000 C   0  0  0  0  0  0  0  0  0  0  0  0
    7.2988  -10.6276    0.0000 O   0  0  0  0  0  0  0  0  0  0  0  0
    8.0132  -11.0401    0.0000 C   0  0  2  0  0  0  0  0  0  0  0  0
    8.7277  -10.6276    0.0000 O   0  0  0  0  0  0  0  0  0  0  0  0
    8.0132  -11.8651    0.0000 C   0  0  1  0  0  0  0  0  0  0  0  0
    8.7277  -12.2776    0.0000 C   0  0  1  0  0  0  0  0  0  0  0  0
    9.4422  -11.8651    0.0000 C   0  0  2  0  0  0  0  0  0  0  0  0
    9.4422  -11.0401    0.0000 C   0  0  2  0  0  0  0  0  0  0  0  0
    5.8698   -8.1526    0.0000 C   0  0  0  0  0  0  0  0  0  0  0  0
    5.1554   -8.5651    0.0000 O   0  0  0  0  0  0  0  0  0  0  0  0
    5.1554   -9.3901    0.0000 C   0  0  0  0  0  0  0  0  0  0  0  0
    5.8698   -9.8026    0.0000 O   0  0  0  0  0  0  0  0  0  0  0  0
    3.7264   -9.3901    0.0000 C   0  0  0  0  0  0  0  0  0  0  0  0
    4.4409   -9.8026    0.0000 C   0  0  0  0  0  0  0  0  0  0  0  0
    3.0119   -9.8026    0.0000 C   0  0  0  0  0  0  0  0  0  0  0  0
    3.0119  -10.6276    0.0000 C   0  0  0  0  0  0  0  0  0  0  0  0
    2.2975   -9.3901    0.0000 C   0  0  0  0  0  0  0  0  0  0  0  0
    1.5830   -9.8026    0.0000 C   0  0  0  0  0  0  0  0  0  0  0  0
    1.5830  -10.6276    0.0000 C   0  0  0  0  0  0  0  0  0  0  0  0
    2.2975  -11.0401    0.0000 C   0  0  0  0  0  0  0  0  0  0  0  0
    0.8685   -9.3901    0.0000 O   0  0  0  0  0  0  0  0  0  0  0  0
    0.8685  -11.0401    0.0000 O   0  0  0  0  0  0  0  0  0  0  0  0
    5.8698   -7.3276    0.0000 O   0  0  0  0  0  0  0  0  0  0  0  0
   10.1567   -8.1527    0.0000 C   0  0  0  0  0  0  0  0  0  0  0  0
    9.4422   -8.5651    0.0000 C   0  0  0  0  0  0  0  0  0  0  0  0
    8.7277   -8.1526    0.0000 O   0  0  0  0  0  0  0  0  0  0  0  0
    5.1554   -6.0901    0.0000 O   0  0  0  0  0  0  0  0  0  0  0  0
    4.4409   -7.3276    0.0000 C   0  0  0  0  0  0  0  0  0  0  0  0
    5.1554   -6.9151    0.0000 C   0  0  0  0  0  0  0  0  0  0  0  0
    7.2988  -12.2776    0.0000 O   0  0  0  0  0  0  0  0  0  0  0  0
    8.7277  -13.1026    0.0000 O   0  0  0  0  0  0  0  0  0  0  0  0
   10.1567  -10.6276    0.0000 C   0  0  0  0  0  0  0  0  0  0  0  0
   10.1567  -12.2776    0.0000 O   0  0  0  0  0  0  0  0  0  0  0  0
  1  2  1  0  0  0  0
  2  3  1  0  0  0  0
  3  4  1  0  0  0  0
  4  5  1  0  0  0  0
  5  6  1  0  0  0  0
  6  1  1  0  0  0  0
 12  8  1  0  0  0  0
  4  7  1  6  0  0  0
  5 40  1  1  0  0  0
 11  9  1  0  0  0  0
 10 14  2  0  0  0  0
 11 10  1  0  0  0  0
 12 11  2  0  0  0  0
 13 12  1  0  0  0  0
 15 13  2  0  0  0  0
 15 14  1  0  0  0  0
 38 15  1  0  0  0  0
 39 38  1  0  0  0  0
  3 16  1  1  0  0  0
 17 16  1  6  0  0  0
 17 18  1  0  0  0  0
 17 19  1  0  0  0  0
 19 20  1  0  0  0  0
 20 21  1  0  0  0  0
 21 22  1  0  0  0  0
 22 18  1  0  0  0  0
  1 23  1  1  0  0  0
 24 25  2  0  0  0  0
 25 26  1  0  0  0  0
  2 26  1  6  0  0  0
 27 28  2  0  0  0  0
 28 25  1  0  0  0  0
 27 29  1  0  0  0  0
 29 30  1  0  0  0  0
 29 31  2  0  0  0  0
 31 32  1  0  0  0  0
 32 33  2  0  0  0  0
 33 34  1  0  0  0  0
 34 30  2  0  0  0  0
 32 35  1  0  0  0  0
 33 36  1  0  0  0  0
 23 37  1  0  0  0  0
 40 39  1  0  0  0  0
 43 41  2  0  0  0  0
 37 43  1  0  0  0  0
 43 42  1  0  0  0  0
 19 44  1  1  0  0  0
 20 45  1  1  0  0  0
 22 46  1  1  0  0  0
 21 47  1  6  0  0  0
M  END
>  <cdx:fragmentId>
5

$$$$
