905971.cdx
  Mrv1902 05222410192D          

 25 27  0  0  0  0            999 V2000
    3.3652   -6.8475    0.0000 C   0  0  0  0  0  0  0  0  0  0  0  0
    3.3652   -7.6725    0.0000 C   0  0  0  0  0  0  0  0  0  0  0  0
    4.0796   -8.0850    0.0000 C   0  0  0  0  0  0  0  0  0  0  0  0
    4.7941   -7.6725    0.0000 C   0  0  0  0  0  0  0  0  0  0  0  0
    4.7941   -6.8475    0.0000 C   0  0  0  0  0  0  0  0  0  0  0  0
    4.0796   -6.4350    0.0000 C   0  0  0  0  0  0  0  0  0  0  0  0
    5.5086   -8.0850    0.0000 C   0  0  0  0  0  0  0  0  0  0  0  0
    6.2230   -7.6725    0.0000 C   0  0  0  0  0  0  0  0  0  0  0  0
    6.2230   -6.8475    0.0000 C   0  0  0  0  0  0  0  0  0  0  0  0
    5.5086   -6.4350    0.0000 O   0  0  0  0  0  0  0  0  0  0  0  0
    6.9375   -8.0850    0.0000 C   0  0  0  0  0  0  0  0  0  0  0  0
    7.6520   -7.6725    0.0000 C   0  0  0  0  0  0  0  0  0  0  0  0
    7.6520   -6.8475    0.0000 C   0  0  0  0  0  0  0  0  0  0  0  0
    8.3665   -8.0850    0.0000 C   0  0  0  0  0  0  0  0  0  0  0  0
    9.0809   -7.6725    0.0000 C   0  0  0  0  0  0  0  0  0  0  0  0
    9.0809   -6.8475    0.0000 C   0  0  0  0  0  0  0  0  0  0  0  0
    8.3665   -6.4350    0.0000 C   0  0  0  0  0  0  0  0  0  0  0  0
    5.5086   -8.9100    0.0000 O   0  0  0  0  0  0  0  0  0  0  0  0
    9.7954   -6.4350    0.0000 O   0  0  0  0  0  0  0  0  0  0  0  0
    4.0796   -5.6100    0.0000 O   0  0  0  0  0  0  0  0  0  0  0  0
    2.6507   -6.4350    0.0000 O   0  0  0  0  0  0  0  0  0  0  0  0
    2.6507   -8.0850    0.0000 C   0  0  0  0  0  0  0  0  0  0  0  0
    4.0796   -8.9100    0.0000 O   0  0  0  0  0  0  0  0  0  0  0  0
    3.3652   -5.1975    0.0000 C   0  0  0  0  0  0  0  0  0  0  0  0
   10.5099   -6.8475    0.0000 C   0  0  0  0  0  0  0  0  0  0  0  0
  1  2  2  0  0  0  0
  2  3  1  0  0  0  0
  3  4  2  0  0  0  0
  4  5  1  0  0  0  0
  5  6  2  0  0  0  0
  6  1  1  0  0  0  0
  4  7  1  0  0  0  0
  7  8  1  0  0  0  0
  8  9  1  0  0  0  0
  9 10  1  0  0  0  0
 10  5  1  0  0  0  0
  8 11  1  0  0  0  0
 11 12  1  0  0  0  0
 12 13  1  0  0  0  0
 12 14  2  0  0  0  0
 14 15  1  0  0  0  0
 15 16  2  0  0  0  0
 16 17  1  0  0  0  0
 17 13  2  0  0  0  0
  7 18  2  0  0  0  0
 16 19  1  0  0  0  0
  6 20  1  0  0  0  0
  1 21  1  0  0  0  0
  2 22  1  0  0  0  0
  3 23  1  0  0  0  0
 20 24  1  0  0  0  0
 19 25  1  0  0  0  0
M  END
>  <cdx:fragmentId>
5

$$$$
