905946.cdx
  Mrv1902 05222410282D          

 14 15  0  0  0  0            999 V2000
    5.6064   -6.0569    0.0000 C   0  0  0  0  0  0  0  0  0  0  0  0
    5.6064   -5.2319    0.0000 C   0  0  0  0  0  0  0  0  0  0  0  0
    6.3209   -4.8194    0.0000 C   0  0  0  0  0  0  0  0  0  0  0  0
    7.0353   -5.2319    0.0000 C   0  0  0  0  0  0  0  0  0  0  0  0
    7.0353   -6.0569    0.0000 C   0  0  0  0  0  0  0  0  0  0  0  0
    6.3209   -6.4694    0.0000 C   0  0  0  0  0  0  0  0  0  0  0  0
    7.7498   -4.8194    0.0000 O   0  0  0  0  0  0  0  0  0  0  0  0
    8.4643   -5.2319    0.0000 C   0  0  0  0  0  0  0  0  0  0  0  0
    8.4643   -6.0569    0.0000 C   0  0  0  0  0  0  0  0  0  0  0  0
    7.7498   -6.4694    0.0000 C   0  0  0  0  0  0  0  0  0  0  0  0
    9.1788   -4.8194    0.0000 O   0  0  0  0  0  0  0  0  0  0  0  0
    6.3209   -7.2944    0.0000 C   0  0  0  0  0  0  0  0  0  0  0  0
    4.8919   -4.8194    0.0000 C   0  0  0  0  0  0  0  0  0  0  0  0
    6.3209   -3.9944    0.0000 C   0  0  0  0  0  0  0  0  0  0  0  0
  1  2  2  0  0  0  0
  2  3  1  0  0  0  0
  3  4  2  0  0  0  0
  4  5  1  0  0  0  0
  5  6  2  0  0  0  0
  6  1  1  0  0  0  0
  4  7  1  0  0  0  0
  7  8  1  0  0  0  0
  8  9  1  0  0  0  0
  9 10  1  0  0  0  0
 10  5  1  0  0  0  0
  8 11  2  0  0  0  0
  6 12  1  0  0  0  0
  2 13  1  0  0  0  0
  3 14  1  0  0  0  0
M  END
>  <cdx:fragmentId>
5

$$$$
