90593.cdx
  Mrv1902 05222410182D          

 53 61  0  0  0  0            999 V2000
   10.9879   -9.1661    0.0000 H   0  0  0  0  0  0  0  0  0  0  0  0
   10.2802   -9.5151    0.0000 H   0  0  0  0  0  0  0  0  0  0  0  0
    7.8547   -7.1759    0.0000 O   0  0  0  0  0  0  0  0  0  0  0  0
    7.1566   -9.2440    0.0000 C   0  0  2  0  0  0  0  0  0  0  0  0
    7.1501   -8.4190    0.0000 C   0  0  0  0  0  0  0  0  0  0  0  0
    7.8612   -8.0008    0.0000 C   0  0  2  0  0  0  0  0  0  0  0  0
    8.5790   -8.4077    0.0000 C   0  0  2  0  0  0  0  0  0  0  0  0
    9.3615   -8.1465    0.0000 C   0  0  1  0  0  0  0  0  0  0  0  0
    9.6911   -7.3902    0.0000 C   0  0  1  0  0  0  0  0  0  0  0  0
   10.5109   -7.2975    0.0000 C   0  0  0  0  0  0  0  0  0  0  0  0
   10.6715   -8.7174    0.0000 O   0  0  0  0  0  0  0  0  0  0  0  0
    9.8517   -8.8101    0.0000 C   0  0  1  0  0  0  0  0  0  0  0  0
    9.3721   -9.4814    0.0000 C   0  0  0  0  0  0  0  0  0  0  0  0
    8.5855   -9.2326    0.0000 C   0  0  1  0  0  0  0  0  0  0  0  0
    7.8743   -9.6508    0.0000 C   0  0  2  0  0  0  0  0  0  0  0  0
    7.8809  -10.4758    0.0000 C   0  0  0  0  0  0  0  0  0  0  0  0
    7.1697  -10.8939    0.0000 C   0  0  0  0  0  0  0  0  0  0  0  0
    6.4520  -10.4871    0.0000 C   0  0  1  0  0  0  0  0  0  0  0  0
    5.7408  -10.9052    0.0000 C   0  0  0  0  0  0  0  0  0  0  0  0
    5.0231  -10.4984    0.0000 C   0  0  2  0  0  0  0  0  0  0  0  0
    5.0165   -9.6734    0.0000 C   0  0  0  0  0  0  0  0  0  0  0  0
    5.7277   -9.2553    0.0000 C   0  0  0  0  0  0  0  0  0  0  0  0
    6.4454   -9.6621    0.0000 C   0  0  2  0  0  0  0  0  0  0  0  0
    6.4389   -8.8371    0.0000 C   0  0  0  0  0  0  0  0  0  0  0  0
    6.1589  -11.6164    0.0000 C   0  0  0  0  0  0  0  0  0  0  0  0
    5.3340  -11.6230    0.0000 C   0  0  0  0  0  0  0  0  0  0  0  0
    8.5920  -10.0576    0.0000 C   0  0  0  0  0  0  0  0  0  0  0  0
    9.2009   -6.7266    0.0000 C   0  0  0  0  0  0  0  0  0  0  0  0
    8.5604   -7.5829    0.0000 C   0  0  0  0  0  0  0  0  0  0  0  0
    8.9188   -7.4504    0.0000 H   0  0  0  0  0  0  0  0  0  0  0  0
    7.8678   -8.8258    0.0000 H   0  0  0  0  0  0  0  0  0  0  0  0
    6.4585  -11.3121    0.0000 H   0  0  0  0  0  0  0  0  0  0  0  0
   12.8249   -6.8516    0.0000 O   0  0  0  0  0  0  0  0  0  0  0  0
   13.1339   -8.2217    0.0000 C   0  0  0  0  0  0  0  0  0  0  0  0
   12.2292   -9.0494    0.0000 O   0  0  0  0  0  0  0  0  0  0  0  0
   11.5580   -8.5697    0.0000 C   0  0  2  0  0  0  0  0  0  0  0  0
   11.0011   -7.9610    0.0000 C   0  0  2  0  0  0  0  0  0  0  0  0
   11.4079   -7.2433    0.0000 O   0  0  0  0  0  0  0  0  0  0  0  0
   12.2162   -7.4084    0.0000 C   0  0  1  0  0  0  0  0  0  0  0  0
   12.3089   -8.2282    0.0000 C   0  0  1  0  0  0  0  0  0  0  0  0
    4.3119  -10.9166    0.0000 O   0  0  0  0  0  0  0  0  0  0  0  0
    7.1370   -6.7690    0.0000 C   0  0  0  0  0  0  0  0  0  0  0  0
    6.4258   -7.1872    0.0000 C   0  0  0  0  0  0  0  0  0  0  0  0
    7.1304   -5.9441    0.0000 O   0  0  0  0  0  0  0  0  0  0  0  0
    3.5942  -10.5098    0.0000 C   0  0  2  0  0  0  0  0  0  0  0  0
    3.5843   -9.6848    0.0000 O   0  0  0  0  0  0  0  0  0  0  0  0
    2.8650   -9.2809    0.0000 C   0  0  0  0  0  0  0  0  0  0  0  0
    2.1555   -9.6848    0.0000 C   0  0  1  0  0  0  0  0  0  0  0  0
    2.1555  -10.5098    0.0000 C   0  0  1  0  0  0  0  0  0  0  0  0
    2.8650  -10.9137    0.0000 C   0  0  1  0  0  0  0  0  0  0  0  0
    2.8602  -11.7387    0.0000 O   0  0  0  0  0  0  0  0  0  0  0  0
    1.4423  -10.9244    0.0000 O   0  0  0  0  0  0  0  0  0  0  0  0
    1.4423   -9.2702    0.0000 O   0  0  0  0  0  0  0  0  0  0  0  0
 36  1  1  1  0  0  0
 12  2  1  6  0  0  0
 39 33  1  6  0  0  0
 40 34  1  1  0  0  0
 40 36  1  0  0  0  0
 40 35  1  0  0  0  0
 36 35  1  0  0  0  0
 37 36  1  0  0  0  0
 37 38  1  6  0  0  0
 39 38  1  0  0  0  0
 40 39  1  0  0  0  0
  4  5  1  0  0  0  0
  5  6  1  0  0  0  0
  6  7  1  0  0  0  0
  7  8  1  0  0  0  0
  8  9  1  0  0  0  0
  9 10  1  0  0  0  0
 11 12  1  0  0  0  0
 12 13  1  0  0  0  0
 13 14  1  0  0  0  0
 14 15  1  0  0  0  0
 15 16  1  0  0  0  0
 16 17  1  0  0  0  0
 17 18  1  0  0  0  0
 18 19  1  0  0  0  0
 19 20  1  0  0  0  0
 20 21  1  0  0  0  0
 21 22  1  0  0  0  0
 22 23  1  0  0  0  0
 23 24  1  1  0  0  0
  4 24  1  1  0  0  0
  4 15  1  0  0  0  0
 18 23  1  0  0  0  0
  4 23  1  0  0  0  0
  7 14  1  0  0  0  0
  8 12  1  0  0  0  0
 10 37  1  0  0  0  0
 11 37  1  0  0  0  0
 19 25  1  0  0  0  0
 19 26  1  0  0  0  0
 14 27  1  6  0  0  0
  9 28  1  6  0  0  0
  7 29  1  1  0  0  0
 20 41  1  1  0  0  0
  6  3  1  1  0  0  0
  8 30  1  6  0  0  0
 15 31  1  1  0  0  0
 18 32  1  6  0  0  0
  3 42  1  0  0  0  0
 42 43  1  0  0  0  0
 42 44  2  0  0  0  0
 45 41  1  1  0  0  0
 45 46  1  0  0  0  0
 46 47  1  0  0  0  0
 47 48  1  0  0  0  0
 48 49  1  0  0  0  0
 49 50  1  0  0  0  0
 50 45  1  0  0  0  0
 50 51  1  6  0  0  0
 49 52  1  1  0  0  0
 48 53  1  1  0  0  0
M  END
>  <cdx:fragmentId>
39

$$$$
