90599.cdx
  Mrv1902 05222410262D          

134149  0  0  0  0            999 V2000
    5.9238   -1.4019    0.0000 O   0  0  0  0  0  0  0  0  0  0  0  0
    5.5113   -2.1164    0.0000 C   0  0  0  0  0  0  0  0  0  0  0  0
    5.9238   -2.8309    0.0000 C   0  0  0  0  0  0  0  0  0  0  0  0
    6.7488   -2.8309    0.0000 C   0  0  0  0  0  0  0  0  0  0  0  0
    7.1613   -2.1164    0.0000 C   0  0  0  0  0  0  0  0  0  0  0  0
    6.7488   -1.4019    0.0000 O   0  0  0  0  0  0  0  0  0  0  0  0
    4.6863   -2.1164    0.0000 C   0  0  0  0  0  0  0  0  0  0  0  0
    4.2738   -2.8309    0.0000 C   0  0  0  0  0  0  0  0  0  0  0  0
    4.6863   -3.5453    0.0000 C   0  0  0  0  0  0  0  0  0  0  0  0
    5.5113   -3.5453    0.0000 C   0  0  0  0  0  0  0  0  0  0  0  0
    7.1613   -3.5453    0.0000 C   0  0  0  0  0  0  0  0  0  0  0  0
    7.9863   -3.5453    0.0000 C   0  0  0  0  0  0  0  0  0  0  0  0
    8.3988   -2.8309    0.0000 C   0  0  0  0  0  0  0  0  0  0  0  0
    7.9863   -2.1164    0.0000 C   0  0  0  0  0  0  0  0  0  0  0  0
    5.9238   -4.2598    0.0000 C   0  0  0  0  0  0  0  0  0  0  0  0
    6.7488   -4.2598    0.0000 C   0  0  0  0  0  0  0  0  0  0  0  0
    5.5113   -4.9743    0.0000 O   0  0  0  0  0  0  0  0  0  0  0  0
    7.1613   -4.9743    0.0000 O   0  0  0  0  0  0  0  0  0  0  0  0
    5.5113   -5.7993    0.0000 C   0  0  1  0  0  0  0  0  0  0  0  0
    4.7968   -6.2118    0.0000 C   0  0  1  0  0  0  0  0  0  0  0  0
    4.7968   -7.0368    0.0000 C   0  0  2  0  0  0  0  0  0  0  0  0
    5.5113   -7.4493    0.0000 C   0  0  2  0  0  0  0  0  0  0  0  0
    6.2257   -7.0368    0.0000 O   0  0  0  0  0  0  0  0  0  0  0  0
    6.2257   -6.2118    0.0000 C   0  0  2  0  0  0  0  0  0  0  0  0
    6.9402   -5.7993    0.0000 C   0  0  0  0  0  0  0  0  0  0  0  0
    7.5738   -4.2598    0.0000 O   0  0  0  0  0  0  0  0  0  0  0  0
    5.0988   -4.2598    0.0000 O   0  0  0  0  0  0  0  0  0  0  0  0
    3.4488   -2.8309    0.0000 O   0  0  0  0  0  0  0  0  0  0  0  0
    4.2738   -1.4019    0.0000 O   0  0  0  0  0  0  0  0  0  0  0  0
    8.3988   -1.4019    0.0000 O   0  0  0  0  0  0  0  0  0  0  0  0
    9.2238   -2.8309    0.0000 O   0  0  0  0  0  0  0  0  0  0  0  0
    4.0823   -5.7993    0.0000 O   0  0  0  0  0  0  0  0  0  0  0  0
    4.0823   -4.9743    0.0000 C   0  0  0  0  0  0  0  0  0  0  0  0
    3.3679   -4.5618    0.0000 C   0  0  0  0  0  0  0  0  0  0  0  0
    4.0823   -4.1493    0.0000 O   0  0  0  0  0  0  0  0  0  0  0  0
    3.3679   -3.7368    0.0000 C   0  0  0  0  0  0  0  0  0  0  0  0
    2.6534   -3.3243    0.0000 C   0  0  0  0  0  0  0  0  0  0  0  0
    1.9389   -3.7368    0.0000 C   0  0  0  0  0  0  0  0  0  0  0  0
    1.9389   -4.5618    0.0000 C   0  0  0  0  0  0  0  0  0  0  0  0
    2.6534   -4.9743    0.0000 C   0  0  0  0  0  0  0  0  0  0  0  0
    2.6534   -2.4993    0.0000 O   0  0  0  0  0  0  0  0  0  0  0  0
    1.2244   -3.3243    0.0000 O   0  0  0  0  0  0  0  0  0  0  0  0
    1.2244   -4.9743    0.0000 O   0  0  0  0  0  0  0  0  0  0  0  0
    4.0823   -7.4493    0.0000 O   0  0  0  0  0  0  0  0  0  0  0  0
    3.3679   -7.0368    0.0000 C   0  0  0  0  0  0  0  0  0  0  0  0
    2.6534   -7.4493    0.0000 C   0  0  0  0  0  0  0  0  0  0  0  0
    3.3679   -6.2118    0.0000 O   0  0  0  0  0  0  0  0  0  0  0  0
    1.9389   -7.0368    0.0000 C   0  0  0  0  0  0  0  0  0  0  0  0
    1.2244   -7.4493    0.0000 C   0  0  0  0  0  0  0  0  0  0  0  0
    1.2244   -8.2743    0.0000 C   0  0  0  0  0  0  0  0  0  0  0  0
    1.9389   -8.6868    0.0000 C   0  0  0  0  0  0  0  0  0  0  0  0
    2.6534   -8.2743    0.0000 C   0  0  0  0  0  0  0  0  0  0  0  0
    0.5100   -7.0368    0.0000 O   0  0  0  0  0  0  0  0  0  0  0  0
    0.5100   -8.6868    0.0000 O   0  0  0  0  0  0  0  0  0  0  0  0
    1.9389   -9.5118    0.0000 O   0  0  0  0  0  0  0  0  0  0  0  0
    5.5113   -8.2743    0.0000 O   0  0  0  0  0  0  0  0  0  0  0  0
    6.2257   -8.6868    0.0000 C   0  0  0  0  0  0  0  0  0  0  0  0
    6.9402   -8.2743    0.0000 O   0  0  0  0  0  0  0  0  0  0  0  0
    6.2257   -9.5118    0.0000 C   0  0  0  0  0  0  0  0  0  0  0  0
    6.9402   -9.9243    0.0000 C   0  0  0  0  0  0  0  0  0  0  0  0
    7.6547   -9.5118    0.0000 O   0  0  0  0  0  0  0  0  0  0  0  0
    5.5113   -9.9243    0.0000 C   0  0  0  0  0  0  0  0  0  0  0  0
    5.5113  -10.7493    0.0000 C   0  0  0  0  0  0  0  0  0  0  0  0
    6.2257  -11.1618    0.0000 C   0  0  0  0  0  0  0  0  0  0  0  0
    6.9402  -10.7493    0.0000 C   0  0  0  0  0  0  0  0  0  0  0  0
    7.6547  -11.1618    0.0000 O   0  0  0  0  0  0  0  0  0  0  0  0
    8.3692  -10.7493    0.0000 C   0  0  0  0  0  0  0  0  0  0  0  0
    8.3692   -9.9243    0.0000 C   0  0  0  0  0  0  0  0  0  0  0  0
    9.0836  -11.1618    0.0000 C   0  0  0  0  0  0  0  0  0  0  0  0
    9.7981  -10.7493    0.0000 C   0  0  0  0  0  0  0  0  0  0  0  0
    9.7981   -9.9243    0.0000 C   0  0  0  0  0  0  0  0  0  0  0  0
    9.0836   -9.5118    0.0000 C   0  0  0  0  0  0  0  0  0  0  0  0
    9.0836  -11.9868    0.0000 C   0  0  0  0  0  0  0  0  0  0  0  0
    9.7981  -12.3993    0.0000 O   0  0  0  0  0  0  0  0  0  0  0  0
   10.5126  -11.9868    0.0000 O   0  0  0  0  0  0  0  0  0  0  0  0
    8.3692  -12.3993    0.0000 O   0  0  0  0  0  0  0  0  0  0  0  0
    9.0836  -13.6368    0.0000 O   0  0  0  0  0  0  0  0  0  0  0  0
    9.7981  -13.2243    0.0000 C   0  0  1  0  0  0  0  0  0  0  0  0
   10.5126  -13.6368    0.0000 C   0  0  2  0  0  0  0  0  0  0  0  0
   11.2270  -13.2243    0.0000 O   0  0  0  0  0  0  0  0  0  0  0  0
   11.2270  -12.3993    0.0000 C   0  0  0  0  0  0  0  0  0  0  0  0
   11.9415  -11.9868    0.0000 C   0  0  0  0  0  0  0  0  0  0  0  0
   11.9415  -11.1618    0.0000 C   0  0  0  0  0  0  0  0  0  0  0  0
   12.6560  -12.3993    0.0000 C   0  0  0  0  0  0  0  0  0  0  0  0
   13.3705  -11.9868    0.0000 C   0  0  0  0  0  0  0  0  0  0  0  0
   13.3705  -11.1618    0.0000 C   0  0  0  0  0  0  0  0  0  0  0  0
   12.6560  -10.7493    0.0000 C   0  0  0  0  0  0  0  0  0  0  0  0
    9.0836  -14.4618    0.0000 C   0  0  1  0  0  0  0  0  0  0  0  0
    9.7981  -14.8743    0.0000 C   0  0  2  0  0  0  0  0  0  0  0  0
   10.5126  -14.4618    0.0000 C   0  0  2  0  0  0  0  0  0  0  0  0
    9.7981  -15.6993    0.0000 O   0  0  0  0  0  0  0  0  0  0  0  0
   10.5126  -16.1118    0.0000 O   0  0  0  0  0  0  0  0  0  0  0  0
   11.2270  -15.6993    0.0000 C   0  0  0  0  0  0  0  0  0  0  0  0
   11.2270  -14.8743    0.0000 O   0  0  0  0  0  0  0  0  0  0  0  0
    8.3692  -14.8743    0.0000 C   0  0  0  0  0  0  0  0  0  0  0  0
    8.3692  -15.6993    0.0000 O   0  0  0  0  0  0  0  0  0  0  0  0
    9.0836  -16.1118    0.0000 C   0  0  0  0  0  0  0  0  0  0  0  0
    7.6547  -16.1118    0.0000 C   0  0  0  0  0  0  0  0  0  0  0  0
    7.6547  -16.9368    0.0000 C   0  0  0  0  0  0  0  0  0  0  0  0
    8.3692  -17.3493    0.0000 C   0  0  0  0  0  0  0  0  0  0  0  0
    9.0836  -16.9368    0.0000 C   0  0  0  0  0  0  0  0  0  0  0  0
    8.3692  -18.1743    0.0000 C   0  0  0  0  0  0  0  0  0  0  0  0
    9.0836  -18.5868    0.0000 C   0  0  0  0  0  0  0  0  0  0  0  0
    9.7981  -18.1743    0.0000 C   0  0  0  0  0  0  0  0  0  0  0  0
    9.7981  -17.3493    0.0000 C   0  0  0  0  0  0  0  0  0  0  0  0
    6.9402  -15.6993    0.0000 C   0  0  0  0  0  0  0  0  0  0  0  0
    6.2257  -16.1118    0.0000 C   0  0  0  0  0  0  0  0  0  0  0  0
    6.2257  -16.9368    0.0000 C   0  0  0  0  0  0  0  0  0  0  0  0
    6.9402  -17.3493    0.0000 C   0  0  0  0  0  0  0  0  0  0  0  0
    6.9402  -18.1743    0.0000 O   0  0  0  0  0  0  0  0  0  0  0  0
    7.6547  -18.5868    0.0000 O   0  0  0  0  0  0  0  0  0  0  0  0
   11.9415  -16.1118    0.0000 C   0  0  0  0  0  0  0  0  0  0  0  0
   12.6560  -15.6993    0.0000 C   0  0  0  0  0  0  0  0  0  0  0  0
   11.9415  -16.9368    0.0000 C   0  0  0  0  0  0  0  0  0  0  0  0
   12.6560  -17.3493    0.0000 C   0  0  0  0  0  0  0  0  0  0  0  0
   13.3705  -16.9368    0.0000 C   0  0  0  0  0  0  0  0  0  0  0  0
   13.3705  -16.1118    0.0000 C   0  0  0  0  0  0  0  0  0  0  0  0
    4.7968  -11.1618    0.0000 O   0  0  0  0  0  0  0  0  0  0  0  0
    6.2257  -11.9868    0.0000 O   0  0  0  0  0  0  0  0  0  0  0  0
    9.0836   -8.6868    0.0000 O   0  0  0  0  0  0  0  0  0  0  0  0
   10.5126   -9.5118    0.0000 O   0  0  0  0  0  0  0  0  0  0  0  0
    7.6547  -14.4618    0.0000 O   0  0  0  0  0  0  0  0  0  0  0  0
    6.9402  -14.8743    0.0000 C   0  0  0  0  0  0  0  0  0  0  0  0
    6.2257  -14.4618    0.0000 O   0  0  0  0  0  0  0  0  0  0  0  0
    5.5113  -15.6993    0.0000 O   0  0  0  0  0  0  0  0  0  0  0  0
    5.5113  -17.3493    0.0000 O   0  0  0  0  0  0  0  0  0  0  0  0
    9.0836  -19.4118    0.0000 O   0  0  0  0  0  0  0  0  0  0  0  0
   10.5126  -18.5868    0.0000 O   0  0  0  0  0  0  0  0  0  0  0  0
   12.6560  -18.1743    0.0000 O   0  0  0  0  0  0  0  0  0  0  0  0
   14.0849  -17.3493    0.0000 O   0  0  0  0  0  0  0  0  0  0  0  0
   14.0849  -15.6993    0.0000 O   0  0  0  0  0  0  0  0  0  0  0  0
   14.0849  -12.3993    0.0000 O   0  0  0  0  0  0  0  0  0  0  0  0
   14.0849  -10.7493    0.0000 O   0  0  0  0  0  0  0  0  0  0  0  0
   12.6560   -9.9243    0.0000 O   0  0  0  0  0  0  0  0  0  0  0  0
  1  2  1  0  0  0  0
  2  3  2  0  0  0  0
  3  4  1  0  0  0  0
  4  5  1  0  0  0  0
  5  6  1  0  0  0  0
  2  7  1  0  0  0  0
  7  8  2  0  0  0  0
  8  9  1  0  0  0  0
  9 10  2  0  0  0  0
 10  3  1  0  0  0  0
  4 11  2  0  0  0  0
 11 12  1  0  0  0  0
 12 13  2  0  0  0  0
 13 14  1  0  0  0  0
 14  5  2  0  0  0  0
 10 15  1  0  0  0  0
 16 11  1  0  0  0  0
 15 17  1  0  0  0  0
 18 16  1  0  0  0  0
 19 17  1  6  0  0  0
 19 20  1  0  0  0  0
 20 21  1  0  0  0  0
 21 22  1  0  0  0  0
 22 23  1  0  0  0  0
 23 24  1  0  0  0  0
 24 19  1  0  0  0  0
 24 25  1  1  0  0  0
 25 18  1  0  0  0  0
 16 26  2  0  0  0  0
 15 27  2  0  0  0  0
  8 28  1  0  0  0  0
  7 29  1  0  0  0  0
 14 30  1  0  0  0  0
 13 31  1  0  0  0  0
 20 32  1  1  0  0  0
 32 33  1  0  0  0  0
 33 34  1  0  0  0  0
 33 35  2  0  0  0  0
 34 36  2  0  0  0  0
 36 37  1  0  0  0  0
 37 38  2  0  0  0  0
 38 39  1  0  0  0  0
 39 40  2  0  0  0  0
 40 34  1  0  0  0  0
 37 41  1  0  0  0  0
 38 42  1  0  0  0  0
 39 43  1  0  0  0  0
 21 44  1  6  0  0  0
 44 45  1  0  0  0  0
 45 46  1  0  0  0  0
 45 47  2  0  0  0  0
 46 48  2  0  0  0  0
 48 49  1  0  0  0  0
 49 50  2  0  0  0  0
 50 51  1  0  0  0  0
 51 52  2  0  0  0  0
 52 46  1  0  0  0  0
 49 53  1  0  0  0  0
 50 54  1  0  0  0  0
 51 55  1  0  0  0  0
 40 48  1  0  0  0  0
 22 56  1  6  0  0  0
 56 57  1  0  0  0  0
 57 58  2  0  0  0  0
 57 59  1  0  0  0  0
 59 60  1  0  0  0  0
 60 61  1  0  0  0  0
 59 62  2  0  0  0  0
 62 63  1  0  0  0  0
 63 64  2  0  0  0  0
 64 65  1  0  0  0  0
 65 60  2  0  0  0  0
 65 66  1  0  0  0  0
 67 68  1  0  0  0  0
 68 61  1  0  0  0  0
 67 69  2  0  0  0  0
 69 70  1  0  0  0  0
 70 71  2  0  0  0  0
 71 72  1  0  0  0  0
 72 68  2  0  0  0  0
 69 73  1  0  0  0  0
 73 74  1  0  0  0  0
 73 76  2  0  0  0  0
 77 78  1  0  0  0  0
 78 74  1  6  0  0  0
 78 79  1  0  0  0  0
 79 80  1  6  0  0  0
 80 81  1  0  0  0  0
 81 75  2  0  0  0  0
 81 82  1  0  0  0  0
 82 83  1  0  0  0  0
 82 84  2  0  0  0  0
 84 85  1  0  0  0  0
 85 86  2  0  0  0  0
 86 87  1  0  0  0  0
 87 83  2  0  0  0  0
 77 88  1  0  0  0  0
 88 89  1  0  0  0  0
 89 90  1  0  0  0  0
 90 79  1  0  0  0  0
 89 91  1  6  0  0  0
 92 93  2  0  0  0  0
 93 94  1  0  0  0  0
 90 94  1  1  0  0  0
 88 95  1  1  0  0  0
 96 97  2  0  0  0  0
 97 91  1  0  0  0  0
 98 99  2  0  0  0  0
 99100  1  0  0  0  0
100101  2  0  0  0  0
101 97  1  0  0  0  0
100102  1  0  0  0  0
102103  2  0  0  0  0
103104  1  0  0  0  0
104105  2  0  0  0  0
105101  1  0  0  0  0
 98106  1  0  0  0  0
106107  2  0  0  0  0
107108  1  0  0  0  0
108109  2  0  0  0  0
109 99  1  0  0  0  0
109110  1  0  0  0  0
111102  1  0  0  0  0
 93112  1  0  0  0  0
112113  1  0  0  0  0
112114  2  0  0  0  0
114115  1  0  0  0  0
115116  2  0  0  0  0
116117  1  0  0  0  0
117113  2  0  0  0  0
 63118  1  0  0  0  0
 64119  1  0  0  0  0
 72120  1  0  0  0  0
 71121  1  0  0  0  0
 95122  1  0  0  0  0
122123  1  0  0  0  0
123124  2  0  0  0  0
123 98  1  0  0  0  0
107125  1  0  0  0  0
108126  1  0  0  0  0
103127  1  0  0  0  0
104128  1  0  0  0  0
115129  1  0  0  0  0
116130  1  0  0  0  0
117131  1  0  0  0  0
 84113  1  0  0  0  0
 85132  1  0  0  0  0
 86133  1  0  0  0  0
 87134  1  0  0  0  0
M  END
>  <cdx:fragmentId>
5

$$$$
