90590.cdx
  Mrv1902 05222410182D          

 33 36  0  0  0  0            999 V2000
    5.4436   -6.7639    0.0000 O   0  0  0  0  0  0  0  0  0  0  0  0
   12.5883   -5.9389    0.0000 C   0  0  0  0  0  0  0  0  0  0  0  0
   11.8738   -5.5264    0.0000 O   0  0  0  0  0  0  0  0  0  0  0  0
   11.1594   -6.7639    0.0000 C   0  0  0  0  0  0  0  0  0  0  0  0
   11.1594   -5.9389    0.0000 C   0  0  0  0  0  0  0  0  0  0  0  0
   10.4449   -5.5264    0.0000 C   0  0  0  0  0  0  0  0  0  0  0  0
    9.7304   -5.9389    0.0000 C   0  0  0  0  0  0  0  0  0  0  0  0
   10.4449   -7.1764    0.0000 C   0  0  0  0  0  0  0  0  0  0  0  0
    9.7304   -6.7639    0.0000 C   0  0  0  0  0  0  0  0  0  0  0  0
    6.8725   -9.2389    0.0000 O   0  0  0  0  0  0  0  0  0  0  0  0
    8.3015   -9.2389    0.0000 O   0  0  0  0  0  0  0  0  0  0  0  0
    8.3015   -8.4139    0.0000 C   0  0  0  0  0  0  0  0  0  0  0  0
    9.0159   -8.0014    0.0000 C   0  0  0  0  0  0  0  0  0  0  0  0
    9.0159   -7.1764    0.0000 C   0  0  0  0  0  0  0  0  0  0  0  0
    8.3015   -6.7639    0.0000 O   0  0  0  0  0  0  0  0  0  0  0  0
    6.8725   -8.4139    0.0000 C   0  0  0  0  0  0  0  0  0  0  0  0
    7.5870   -8.0014    0.0000 C   0  0  0  0  0  0  0  0  0  0  0  0
    7.5870   -7.1764    0.0000 C   0  0  0  0  0  0  0  0  0  0  0  0
    6.8725   -6.7639    0.0000 C   0  0  0  0  0  0  0  0  0  0  0  0
    6.1581   -7.1764    0.0000 C   0  0  0  0  0  0  0  0  0  0  0  0
    6.1581   -8.0014    0.0000 C   0  0  0  0  0  0  0  0  0  0  0  0
    4.7291   -7.1764    0.0000 C   0  0  2  0  0  0  0  0  0  0  0  0
    4.0146   -6.7639    0.0000 O   0  0  0  0  0  0  0  0  0  0  0  0
    3.3002   -7.1764    0.0000 C   0  0  1  0  0  0  0  0  0  0  0  0
    3.3002   -8.0014    0.0000 C   0  0  2  0  0  0  0  0  0  0  0  0
    4.0146   -8.4139    0.0000 C   0  0  1  0  0  0  0  0  0  0  0  0
    4.7291   -8.0014    0.0000 C   0  0  1  0  0  0  0  0  0  0  0  0
    2.5857   -6.7639    0.0000 C   0  0  0  0  0  0  0  0  0  0  0  0
    1.8712   -7.1764    0.0000 O   0  0  0  0  0  0  0  0  0  0  0  0
    2.5857   -8.4139    0.0000 O   0  0  0  0  0  0  0  0  0  0  0  0
    4.0146   -9.2389    0.0000 O   0  0  0  0  0  0  0  0  0  0  0  0
    5.4436   -8.4139    0.0000 O   0  0  0  0  0  0  0  0  0  0  0  0
    2.5857   -5.9389    0.0000 O   0  0  0  0  0  0  0  0  0  0  0  0
 20  1  1  0  0  0  0
  3  2  1  0  0  0  0
  5  3  1  0  0  0  0
  4  8  1  0  0  0  0
  5  4  2  0  0  0  0
  6  5  1  0  0  0  0
  7  6  2  0  0  0  0
  9  7  1  0  0  0  0
  9  8  2  0  0  0  0
 14  9  1  0  0  0  0
 10 16  1  0  0  0  0
 12 11  2  0  0  0  0
 12 17  1  0  0  0  0
 13 12  1  0  0  0  0
 14 13  2  0  0  0  0
 15 14  1  0  0  0  0
 18 15  1  0  0  0  0
 16 21  1  0  0  0  0
 17 16  2  0  0  0  0
 18 17  1  0  0  0  0
 19 18  2  0  0  0  0
 20 19  1  0  0  0  0
 21 20  2  0  0  0  0
 22  1  1  1  0  0  0
 22 23  1  0  0  0  0
 23 24  1  0  0  0  0
 24 25  1  0  0  0  0
 25 26  1  0  0  0  0
 26 27  1  0  0  0  0
 27 22  1  0  0  0  0
 24 28  1  1  0  0  0
 28 29  1  0  0  0  0
 25 30  1  6  0  0  0
 26 31  1  1  0  0  0
 27 32  1  6  0  0  0
 28 33  2  0  0  0  0
M  END
>  <cdx:fragmentId>
5

$$$$
