90592.cdx
  Mrv1902 05222410182D          

  7  6  0  0  0  0            999 V2000
    8.6717   -8.8539    0.0000 C   0  0  0  0  0  0  0  0  0  0  0  0
    7.9572   -9.2664    0.0000 C   0  0  0  0  0  0  0  0  0  0  0  0
    7.2427   -8.8539    0.0000 C   0  0  0  0  0  0  0  0  0  0  0  0
    6.5282   -9.2664    0.0000 C   0  0  0  0  0  0  0  0  0  0  0  0
    5.8138   -8.8539    0.0000 O   0  5  0  0  0  0  0  0  0  0  0  0
    6.5282  -10.0914    0.0000 O   0  0  0  0  0  0  0  0  0  0  0  0
    7.9572  -10.0914    0.0000 O   0  0  0  0  0  0  0  0  0  0  0  0
  2  1  1  0  0  0  0
  3  2  1  0  0  0  0
  4  3  1  0  0  0  0
  5  4  1  0  0  0  0
  4  6  2  0  0  0  0
  2  7  2  0  0  0  0
M  CHG  1   5  -1
M  END
>  <cdx:fragmentId>
3

$$$$
