90604.cdx
  Mrv1902 05222410272D          

 36 39  0  0  0  0            999 V2000
    8.2943   -6.5132    0.0000 C   0  0  0  0  0  0  0  0  0  0  0  0
    7.4693   -6.5159    0.0000 C   0  0  0  0  0  0  0  0  0  0  0  0
    6.8878   -7.1012    0.0000 C   0  0  0  0  0  0  0  0  0  0  0  0
    6.8905   -7.9262    0.0000 C   0  0  0  0  0  0  0  0  0  0  0  0
    7.4758   -8.5076    0.0000 C   0  0  0  0  0  0  0  0  0  0  0  0
    8.3008   -8.5049    0.0000 C   0  0  1  0  0  0  0  0  0  0  0  0
    8.8822   -7.9197    0.0000 C   0  0  2  0  0  0  0  0  0  0  0  0
    8.8796   -7.0947    0.0000 C   0  0  1  0  0  0  0  0  0  0  0  0
    9.6407   -6.7765    0.0000 C   0  0  0  0  0  0  0  0  0  0  0  0
    9.6455   -8.2329    0.0000 C   0  0  0  0  0  0  0  0  0  0  0  0
    7.2532   -5.7197    0.0000 C   0  0  0  0  0  0  0  0  0  0  0  0
    6.4556   -5.5088    0.0000 C   0  0  0  0  0  0  0  0  0  0  0  0
    5.8741   -6.0941    0.0000 C   0  0  0  0  0  0  0  0  0  0  0  0
    6.0903   -6.8902    0.0000 C   0  0  0  0  0  0  0  0  0  0  0  0
    6.0943   -8.1423    0.0000 C   0  0  0  0  0  0  0  0  0  0  0  0
    5.8834   -8.9399    0.0000 C   0  0  0  0  0  0  0  0  0  0  0  0
    6.4687   -9.5213    0.0000 C   0  0  0  0  0  0  0  0  0  0  0  0
    7.2649   -9.3052    0.0000 C   0  0  0  0  0  0  0  0  0  0  0  0
    6.2394   -4.7126    0.0000 O   0  0  0  0  0  0  0  0  0  0  0  0
    6.8928   -4.2088    0.0000 C   0  0  0  0  0  0  0  0  0  0  0  0
    5.0765   -5.8831    0.0000 O   0  0  0  0  0  0  0  0  0  0  0  0
    4.7590   -5.1217    0.0000 C   0  0  0  0  0  0  0  0  0  0  0  0
    5.3288   -7.2078    0.0000 O   0  0  0  0  0  0  0  0  0  0  0  0
    4.5659   -6.8939    0.0000 C   0  0  0  0  0  0  0  0  0  0  0  0
    5.3314   -7.8284    0.0000 O   0  0  0  0  0  0  0  0  0  0  0  0
    4.5137   -7.9380    0.0000 C   0  0  0  0  0  0  0  0  0  0  0  0
    5.1496   -9.3168    0.0000 O   0  0  0  0  0  0  0  0  0  0  0  0
    5.2813  -10.1312    0.0000 C   0  0  0  0  0  0  0  0  0  0  0  0
    6.0966  -10.2576    0.0000 O   0  0  0  0  0  0  0  0  0  0  0  0
    8.6190   -9.2661    0.0000 O   0  0  0  0  0  0  0  0  0  0  0  0
    9.4372   -9.3718    0.0000 C   0  0  0  0  0  0  0  0  0  0  0  0
    9.7547  -10.1333    0.0000 C   0  0  0  0  0  0  0  0  0  0  0  0
    9.9379   -8.7161    0.0000 O   0  0  0  0  0  0  0  0  0  0  0  0
   10.5729  -10.2390    0.0000 C   0  0  0  0  0  0  0  0  0  0  0  0
    9.2540  -10.7890    0.0000 C   0  0  0  0  0  0  0  0  0  0  0  0
   11.0736   -9.5833    0.0000 C   0  0  0  0  0  0  0  0  0  0  0  0
  1  2  1  0  0  0  0
  2  3  2  0  0  0  0
  3  4  1  0  0  0  0
  4  5  2  0  0  0  0
  5  6  1  0  0  0  0
  6  7  1  0  0  0  0
  7  8  1  0  0  0  0
  8  1  1  0  0  0  0
  8  9  1  6  0  0  0
  7 10  1  6  0  0  0
  2 11  1  0  0  0  0
 11 12  2  0  0  0  0
 12 13  1  0  0  0  0
 13 14  2  0  0  0  0
 14  3  1  0  0  0  0
  4 15  1  0  0  0  0
 15 16  2  0  0  0  0
 16 17  1  0  0  0  0
 17 18  2  0  0  0  0
 18  5  1  0  0  0  0
 12 19  1  0  0  0  0
 19 20  1  0  0  0  0
 13 21  1  0  0  0  0
 21 22  1  0  0  0  0
 14 23  1  0  0  0  0
 23 24  1  0  0  0  0
 15 25  1  0  0  0  0
 25 26  1  0  0  0  0
 16 27  1  0  0  0  0
 27 28  1  0  0  0  0
 28 29  1  0  0  0  0
 29 17  1  0  0  0  0
  6 30  1  1  0  0  0
 30 31  1  0  0  0  0
 31 32  1  0  0  0  0
 31 33  2  0  0  0  0
 32 34  2  0  0  0  0
 32 35  1  0  0  0  0
 34 36  1  0  0  0  0
M  END
>  <cdx:fragmentId>
26

$$$$
