90602.cdx
  Mrv1902 05222410282D          

 38 40  0  0  0  0            999 V2000
    5.1681  -11.0401    0.0000 C   0  0  0  0  0  0  0  0  0  0  0  0
    5.1681  -11.8651    0.0000 C   0  0  0  0  0  0  0  0  0  0  0  0
    5.8825  -12.2776    0.0000 C   0  0  0  0  0  0  0  0  0  0  0  0
    6.5970  -11.8651    0.0000 C   0  0  0  0  0  0  0  0  0  0  0  0
    6.5970  -11.0401    0.0000 C   0  0  0  0  0  0  0  0  0  0  0  0
    5.8825  -10.6276    0.0000 C   0  0  0  0  0  0  0  0  0  0  0  0
    7.3115  -10.6276    0.0000 C   0  0  2  0  0  0  0  0  0  0  0  0
    7.3115   -9.8026    0.0000 C   0  0  2  0  0  0  0  0  0  0  0  0
    6.5970   -9.3901    0.0000 C   0  0  0  0  0  0  0  0  0  0  0  0
    8.0259  -11.0401    0.0000 O   0  0  0  0  0  0  0  0  0  0  0  0
    8.7404  -10.6276    0.0000 C   0  0  0  0  0  0  0  0  0  0  0  0
    8.7404   -9.8026    0.0000 C   0  0  0  0  0  0  0  0  0  0  0  0
    8.0259   -9.3901    0.0000 O   0  0  0  0  0  0  0  0  0  0  0  0
    9.4549  -11.0401    0.0000 C   0  0  0  0  0  0  0  0  0  0  0  0
   10.1694  -10.6276    0.0000 C   0  0  0  0  0  0  0  0  0  0  0  0
   10.1694   -9.8026    0.0000 C   0  0  0  0  0  0  0  0  0  0  0  0
    9.4549   -9.3901    0.0000 C   0  0  0  0  0  0  0  0  0  0  0  0
   10.8838  -11.0401    0.0000 C   0  0  0  0  0  0  0  0  0  0  0  0
   11.5983  -10.6276    0.0000 C   0  0  0  0  0  0  0  0  0  0  0  0
    9.4549   -8.5651    0.0000 O   0  0  0  0  0  0  0  0  0  0  0  0
    8.7404   -8.1526    0.0000 C   0  0  0  0  0  0  0  0  0  0  0  0
    5.8825   -9.8026    0.0000 O   0  0  0  0  0  0  0  0  0  0  0  0
    5.8825  -13.1026    0.0000 O   0  0  0  0  0  0  0  0  0  0  0  0
    6.5970  -13.5151    0.0000 C   0  0  0  0  0  0  0  0  0  0  0  0
    4.4536  -12.2776    0.0000 O   0  0  0  0  0  0  0  0  0  0  0  0
    3.7413  -11.8613    0.0000 C   0  0  2  0  0  0  0  0  0  0  0  0
    3.7457  -11.0363    0.0000 O   0  0  0  0  0  0  0  0  0  0  0  0
    3.0335  -10.6200    0.0000 C   0  0  1  0  0  0  0  0  0  0  0  0
    2.3168  -11.0287    0.0000 C   0  0  2  0  0  0  0  0  0  0  0  0
    2.3124  -11.8537    0.0000 C   0  0  1  0  0  0  0  0  0  0  0  0
    3.0247  -12.2700    0.0000 C   0  0  1  0  0  0  0  0  0  0  0  0
    3.0379   -9.7950    0.0000 C   0  0  0  0  0  0  0  0  0  0  0  0
    1.5957  -12.2624    0.0000 O   0  0  0  0  0  0  0  0  0  0  0  0
    1.6046  -10.6124    0.0000 O   0  0  0  0  0  0  0  0  0  0  0  0
    3.0203  -13.0950    0.0000 O   0  0  0  0  0  0  0  0  0  0  0  0
    2.3256   -9.3787    0.0000 O   0  0  0  0  0  0  0  0  0  0  0  0
   12.3128  -11.0401    0.0000 C   0  0  0  0  0  0  0  0  0  0  0  0
   13.0272  -10.6276    0.0000 O   0  0  0  0  0  0  0  0  0  0  0  0
  1  2  2  0  0  0  0
  2  3  1  0  0  0  0
  3  4  2  0  0  0  0
  4  5  1  0  0  0  0
  5  6  2  0  0  0  0
  6  1  1  0  0  0  0
  5  7  1  0  0  0  0
  7  8  1  0  0  0  0
  8  9  1  6  0  0  0
  7 10  1  6  0  0  0
 11 12  1  0  0  0  0
 12 13  1  0  0  0  0
 13  8  1  0  0  0  0
 11 14  2  0  0  0  0
 14 15  1  0  0  0  0
 15 16  2  0  0  0  0
 16 17  1  0  0  0  0
 17 12  2  0  0  0  0
 15 18  1  0  0  0  0
 18 19  2  0  0  0  0
 17 20  1  0  0  0  0
 20 21  1  0  0  0  0
  9 22  1  0  0  0  0
  3 23  1  0  0  0  0
 23 24  1  0  0  0  0
  2 25  1  0  0  0  0
 26 25  1  1  0  0  0
 26 27  1  0  0  0  0
 27 28  1  0  0  0  0
 28 29  1  0  0  0  0
 29 30  1  0  0  0  0
 30 31  1  0  0  0  0
 31 26  1  0  0  0  0
 28 32  1  1  0  0  0
 30 33  1  1  0  0  0
 29 34  1  6  0  0  0
 31 35  1  6  0  0  0
 32 36  1  0  0  0  0
 19 37  1  0  0  0  0
 37 38  1  0  0  0  0
M  END
>  <cdx:fragmentId>
5

$$$$
