906054.cdx
  Mrv1902 05222410272D          

 25 26  0  0  0  0            999 V2000
    4.8443   -8.0522    0.0000 C   0  0  0  0  0  0  0  0  0  0  0  0
    5.5588   -8.4647    0.0000 C   0  0  0  0  0  0  0  0  0  0  0  0
    6.2733   -8.0522    0.0000 C   0  0  0  0  0  0  0  0  0  0  0  0
    6.9878   -8.4647    0.0000 C   0  0  0  0  0  0  0  0  0  0  0  0
    7.7022   -8.0522    0.0000 C   0  0  0  0  0  0  0  0  0  0  0  0
    8.4167   -8.4647    0.0000 C   0  0  0  0  0  0  0  0  0  0  0  0
    9.1312   -8.0522    0.0000 C   0  0  0  0  0  0  0  0  0  0  0  0
    6.2733   -7.2272    0.0000 O   0  0  0  0  0  0  0  0  0  0  0  0
    4.1299   -8.4647    0.0000 C   0  0  0  0  0  0  0  0  0  0  0  0
    4.1299   -9.2897    0.0000 C   0  0  0  0  0  0  0  0  0  0  0  0
    3.4154   -9.7022    0.0000 C   0  0  0  0  0  0  0  0  0  0  0  0
    2.7009   -9.2897    0.0000 C   0  0  0  0  0  0  0  0  0  0  0  0
    2.7009   -8.4647    0.0000 C   0  0  0  0  0  0  0  0  0  0  0  0
    3.4154   -8.0522    0.0000 C   0  0  0  0  0  0  0  0  0  0  0  0
    1.9865   -9.7022    0.0000 O   0  0  0  0  0  0  0  0  0  0  0  0
    9.8456   -8.4647    0.0000 C   0  0  0  0  0  0  0  0  0  0  0  0
   10.5601   -8.0522    0.0000 C   0  0  0  0  0  0  0  0  0  0  0  0
   11.2746   -8.4647    0.0000 C   0  0  0  0  0  0  0  0  0  0  0  0
   11.2746   -9.2897    0.0000 C   0  0  0  0  0  0  0  0  0  0  0  0
   10.5601   -9.7022    0.0000 C   0  0  0  0  0  0  0  0  0  0  0  0
    9.8456   -9.2897    0.0000 C   0  0  0  0  0  0  0  0  0  0  0  0
   11.9890   -8.0522    0.0000 O   0  0  0  0  0  0  0  0  0  0  0  0
   12.7035   -8.4647    0.0000 C   0  0  0  0  0  0  0  0  0  0  0  0
   11.9890   -9.7022    0.0000 O   0  0  0  0  0  0  0  0  0  0  0  0
    7.7022   -7.2272    0.0000 O   0  0  0  0  0  0  0  0  0  0  0  0
  1  2  1  0  0  0  0
  2  3  1  0  0  0  0
  3  4  1  0  0  0  0
  4  5  1  0  0  0  0
  5  6  1  0  0  0  0
  6  7  1  0  0  0  0
  3  8  2  0  0  0  0
  9 10  1  0  0  0  0
 10 11  2  0  0  0  0
 11 12  1  0  0  0  0
 12 13  2  0  0  0  0
 13 14  1  0  0  0  0
  9 14  2  0  0  0  0
 12 15  1  0  0  0  0
  1  9  1  0  0  0  0
 16 17  1  0  0  0  0
 17 18  2  0  0  0  0
 18 19  1  0  0  0  0
 19 20  2  0  0  0  0
 20 21  1  0  0  0  0
 16 21  2  0  0  0  0
 22 23  1  0  0  0  0
 18 22  1  0  0  0  0
 19 24  1  0  0  0  0
  7 16  1  0  0  0  0
  5 25  1  0  0  0  0
M  END
>  <cdx:fragmentId>
5

$$$$
