90605.cdx
  Mrv1902 05222410272D          

 23 25  0  0  0  0            999 V2000
    5.0354   -6.9133    0.0000 O   0  0  0  0  0  0  0  0  0  0  0  0
   10.0367  -10.6258    0.0000 C   0  0  0  0  0  0  0  0  0  0  0  0
    9.3223  -11.0383    0.0000 C   0  0  0  0  0  0  0  0  0  0  0  0
    9.3223  -11.8633    0.0000 C   0  0  0  0  0  0  0  0  0  0  0  0
    8.6078  -10.6258    0.0000 C   0  0  0  0  0  0  0  0  0  0  0  0
    7.8933  -11.0383    0.0000 O   0  0  0  0  0  0  0  0  0  0  0  0
    8.6078   -9.8008    0.0000 C   0  0  0  0  0  0  0  0  0  0  0  0
    7.8933   -9.3883    0.0000 O   0  0  0  0  0  0  0  0  0  0  0  0
    7.1789   -5.6758    0.0000 C   0  0  0  0  0  0  0  0  0  0  0  0
    7.8933   -6.0883    0.0000 O   0  0  0  0  0  0  0  0  0  0  0  0
    9.3924   -7.0709    0.0000 O   0  0  0  0  0  0  0  0  0  0  0  0
    9.8773   -7.7383    0.0000 C   0  0  0  0  0  0  0  0  0  0  0  0
    9.3924   -8.4057    0.0000 C   0  0  0  0  0  0  0  0  0  0  0  0
    6.4644   -8.5633    0.0000 C   0  0  0  0  0  0  0  0  0  0  0  0
    5.7499   -8.1508    0.0000 C   0  0  0  0  0  0  0  0  0  0  0  0
    5.7499   -7.3258    0.0000 C   0  0  0  0  0  0  0  0  0  0  0  0
    6.4644   -6.9133    0.0000 O   0  0  0  0  0  0  0  0  0  0  0  0
    7.8933   -8.5633    0.0000 C   0  0  0  0  0  0  0  0  0  0  0  0
    7.1789   -8.1508    0.0000 C   0  0  0  0  0  0  0  0  0  0  0  0
    7.1789   -7.3258    0.0000 C   0  0  0  0  0  0  0  0  0  0  0  0
    7.8933   -6.9133    0.0000 C   0  0  0  0  0  0  0  0  0  0  0  0
    8.6078   -7.3258    0.0000 C   0  0  0  0  0  0  0  0  0  0  0  0
    8.6078   -8.1508    0.0000 C   0  0  0  0  0  0  0  0  0  0  0  0
 16  1  2  0  0  0  0
  3  2  1  0  0  0  0
  3  5  1  0  0  0  0
  4  3  1  0  0  0  0
  5  7  1  0  0  0  0
  6  5  2  0  0  0  0
  8  7  1  0  0  0  0
 18  8  1  0  0  0  0
 10  9  1  0  0  0  0
 21 10  1  0  0  0  0
 11 22  1  0  0  0  0
 12 11  1  0  0  0  0
 13 12  2  0  0  0  0
 23 13  1  0  0  0  0
 14 19  1  0  0  0  0
 15 14  2  0  0  0  0
 16 15  1  0  0  0  0
 17 16  1  0  0  0  0
 20 17  1  0  0  0  0
 18 23  1  0  0  0  0
 19 18  2  0  0  0  0
 20 19  1  0  0  0  0
 21 20  2  0  0  0  0
 22 21  1  0  0  0  0
 23 22  2  0  0  0  0
M  END
>  <cdx:fragmentId>
5

$$$$
