90608.cdx
  Mrv1902 05222410192D          

 21 24  0  0  0  0            999 V2000
    6.1528   -7.5583    0.0000 C   0  0  0  0  0  0  0  0  0  0  0  0
    6.1700   -8.3831    0.0000 C   0  0  0  0  0  0  0  0  0  0  0  0
    6.8929   -8.7806    0.0000 C   0  0  0  0  0  0  0  0  0  0  0  0
    7.5986   -8.3533    0.0000 C   0  0  0  0  0  0  0  0  0  0  0  0
    7.5814   -7.5284    0.0000 C   0  0  0  0  0  0  0  0  0  0  0  0
    6.8585   -7.1310    0.0000 C   0  0  0  0  0  0  0  0  0  0  0  0
    6.9101   -9.6054    0.0000 C   0  0  0  0  0  0  0  0  0  0  0  0
    7.6331  -10.0029    0.0000 C   0  0  0  0  0  0  0  0  0  0  0  0
    8.3388   -9.5756    0.0000 C   0  0  0  0  0  0  0  0  0  0  0  0
    8.3215   -8.7508    0.0000 C   0  0  0  0  0  0  0  0  0  0  0  0
    6.2044  -10.0327    0.0000 C   0  0  0  0  0  0  0  0  0  0  0  0
    6.2217  -10.8576    0.0000 C   0  0  0  0  0  0  0  0  0  0  0  0
    6.9446  -11.2551    0.0000 C   0  0  0  0  0  0  0  0  0  0  0  0
    7.6503  -10.8277    0.0000 C   0  0  0  0  0  0  0  0  0  0  0  0
    5.4298   -7.1608    0.0000 O   0  0  0  0  0  0  0  0  0  0  0  0
    4.7241   -7.5881    0.0000 C   0  0  0  0  0  0  0  0  0  0  0  0
    5.4643   -8.8104    0.0000 O   0  0  0  0  0  0  0  0  0  0  0  0
    8.3736   -7.2983    0.0000 C   0  0  0  0  0  0  0  0  0  0  0  0
    8.8926   -8.1553    0.0000 N   0  0  0  0  0  0  0  0  0  0  0  0
    8.6734   -6.5297    0.0000 O   0  0  0  0  0  0  0  0  0  0  0  0
    5.4643   -9.6354    0.0000 C   0  0  0  0  0  0  0  0  0  0  0  0
  1  2  2  0  0  0  0
  2  3  1  0  0  0  0
  3  4  2  0  0  0  0
  4  5  1  0  0  0  0
  5  6  2  0  0  0  0
  6  1  1  0  0  0  0
  3  7  1  0  0  0  0
  7  8  2  0  0  0  0
  8  9  1  0  0  0  0
  9 10  2  0  0  0  0
 10  4  1  0  0  0  0
  7 11  1  0  0  0  0
 11 12  2  0  0  0  0
 12 13  1  0  0  0  0
 13 14  2  0  0  0  0
 14  8  1  0  0  0  0
  1 15  1  0  0  0  0
 15 16  1  0  0  0  0
 17  2  1  0  0  0  0
  5 18  1  0  0  0  0
 10 19  1  0  0  0  0
 18 19  1  0  0  0  0
 18 20  2  0  0  0  0
 17 21  1  0  0  0  0
M  END
>  <cdx:fragmentId>
106

$$$$
