90607.cdx
  Mrv1902 05222410262D          

 20 19  0  0  0  0            999 V2000
    3.2981  -10.2701    0.0000 O   0  0  0  0  0  0  0  0  0  0  0  0
    3.2981  -11.0951    0.0000 O   0  0  0  0  0  0  0  0  0  0  0  0
    4.0125  -11.5076    0.0000 C   0  0  0  0  0  0  0  0  0  0  0  0
    4.7270  -11.0951    0.0000 C   0  0  0  0  0  0  0  0  0  0  0  0
    4.7270  -10.2701    0.0000 C   0  0  1  0  0  0  0  0  0  0  0  0
    4.0125   -9.8576    0.0000 C   0  0  0  0  0  0  0  0  0  0  0  0
    5.4415   -9.8576    0.0000 N   0  0  0  0  0  0  0  0  0  0  0  0
    6.8704  -13.9826    0.0000 N   0  0  0  0  0  0  0  0  0  0  0  0
    8.2993  -14.8076    0.0000 O   0  0  0  0  0  0  0  0  0  0  0  0
    7.5849  -13.5701    0.0000 C   0  0  2  0  0  0  0  0  0  0  0  0
    8.2993  -13.9826    0.0000 C   0  0  0  0  0  0  0  0  0  0  0  0
    9.0138  -13.5701    0.0000 O   0  0  0  0  0  0  0  0  0  0  0  0
    6.8704  -12.3326    0.0000 C   0  0  0  0  0  0  0  0  0  0  0  0
    7.5849  -12.7451    0.0000 C   0  0  0  0  0  0  0  0  0  0  0  0
    6.1559  -11.0951    0.0000 N   0  0  0  0  0  0  0  0  0  0  0  0
    6.8704  -11.5076    0.0000 C   0  0  0  0  0  0  0  0  0  0  0  0
    6.1559  -10.2701    0.0000 C   0  0  0  0  0  0  0  0  0  0  0  0
    6.8704   -9.8576    0.0000 N   0  0  0  0  0  0  0  0  0  0  0  0
    4.0125   -9.0326    0.0000 O   0  0  0  0  0  0  0  0  0  0  0  0
    4.0125  -12.3326    0.0000 O   0  0  0  0  0  0  0  0  0  0  0  0
  2  3  2  0  0  0  0
  3  4  1  0  0  0  0
  4  5  1  0  0  0  0
  5  6  1  0  0  0  0
  6  1  1  0  0  0  0
 10  8  1  1  0  0  0
 11  9  1  0  0  0  0
 17  7  1  0  0  0  0
  5  7  1  1  0  0  0
 10 14  1  0  0  0  0
 11 10  1  0  0  0  0
 12 11  2  0  0  0  0
 13 16  1  0  0  0  0
 14 13  1  0  0  0  0
 15 17  2  0  0  0  0
 16 15  1  0  0  0  0
 18 17  1  0  0  0  0
  6 19  2  0  0  0  0
  3 20  1  0  0  0  0
M  END
>  <cdx:fragmentId>
5

$$$$
