906057.cdx
  Mrv1902 05222410282D          

 27 28  0  0  0  0            999 V2000
    2.7877   -7.0125    0.0000 C   0  0  0  0  0  0  0  0  0  0  0  0
    2.7877   -7.8375    0.0000 C   0  0  0  0  0  0  0  0  0  0  0  0
    3.5021   -8.2500    0.0000 C   0  0  0  0  0  0  0  0  0  0  0  0
    4.2166   -7.8375    0.0000 C   0  0  0  0  0  0  0  0  0  0  0  0
    4.2166   -7.0125    0.0000 C   0  0  0  0  0  0  0  0  0  0  0  0
    3.5021   -6.6000    0.0000 C   0  0  0  0  0  0  0  0  0  0  0  0
    4.9311   -6.6000    0.0000 C   0  0  0  0  0  0  0  0  0  0  0  0
    5.6455   -7.0125    0.0000 C   0  0  0  0  0  0  0  0  0  0  0  0
    6.3600   -6.6000    0.0000 C   0  0  0  0  0  0  0  0  0  0  0  0
    7.0745   -7.0125    0.0000 C   0  0  0  0  0  0  0  0  0  0  0  0
    7.7890   -6.6000    0.0000 C   0  0  0  0  0  0  0  0  0  0  0  0
    8.5034   -7.0125    0.0000 C   0  0  0  0  0  0  0  0  0  0  0  0
    9.2179   -6.6000    0.0000 C   0  0  0  0  0  0  0  0  0  0  0  0
    9.9324   -7.0125    0.0000 C   0  0  0  0  0  0  0  0  0  0  0  0
    9.9324   -7.8375    0.0000 C   0  0  0  0  0  0  0  0  0  0  0  0
   10.6468   -8.2500    0.0000 C   0  0  0  0  0  0  0  0  0  0  0  0
   11.3613   -7.8375    0.0000 C   0  0  0  0  0  0  0  0  0  0  0  0
   11.3613   -7.0125    0.0000 C   0  0  0  0  0  0  0  0  0  0  0  0
   10.6468   -6.6000    0.0000 C   0  0  0  0  0  0  0  0  0  0  0  0
    2.0732   -6.6000    0.0000 O   0  0  0  0  0  0  0  0  0  0  0  0
    2.0732   -8.2500    0.0000 O   0  0  0  0  0  0  0  0  0  0  0  0
   12.0758   -6.6000    0.0000 O   0  0  0  0  0  0  0  0  0  0  0  0
   12.0758   -8.2500    0.0000 O   0  0  0  0  0  0  0  0  0  0  0  0
    6.3600   -5.7750    0.0000 O   0  0  0  0  0  0  0  0  0  0  0  0
    7.7890   -5.7750    0.0000 O   0  0  0  0  0  0  0  0  0  0  0  0
    1.3587   -7.0125    0.0000 C   0  0  0  0  0  0  0  0  0  0  0  0
   12.7902   -7.0125    0.0000 C   0  0  0  0  0  0  0  0  0  0  0  0
  1  2  2  0  0  0  0
  2  3  1  0  0  0  0
  3  4  2  0  0  0  0
  4  5  1  0  0  0  0
  5  6  2  0  0  0  0
  6  1  1  0  0  0  0
  5  7  1  0  0  0  0
  7  8  1  0  0  0  0
  8  9  1  0  0  0  0
  9 10  1  0  0  0  0
 10 11  1  0  0  0  0
 11 12  1  0  0  0  0
 12 13  2  0  0  0  0
 13 14  1  0  0  0  0
 14 15  2  0  0  0  0
 15 16  1  0  0  0  0
 16 17  2  0  0  0  0
 17 18  1  0  0  0  0
 18 19  2  0  0  0  0
 19 14  1  0  0  0  0
  1 20  1  0  0  0  0
  2 21  1  0  0  0  0
 18 22  1  0  0  0  0
 17 23  1  0  0  0  0
  9 24  2  0  0  0  0
 11 25  1  0  0  0  0
 20 26  1  0  0  0  0
 22 27  1  0  0  0  0
M  END
>  <cdx:fragmentId>
5

$$$$
