90609.cdx
  Mrv1902 05222410192D          

105116  0  0  0  0            999 V2000
    5.6351  -12.7243    0.0000 C   0  0  2  0  0  0  0  0  0  0  0  0
    5.6351  -13.5493    0.0000 C   0  0  1  0  0  0  0  0  0  0  0  0
    6.3495  -13.9618    0.0000 C   0  0  0  0  0  0  0  0  0  0  0  0
    7.0640  -13.5493    0.0000 C   0  0  1  0  0  0  0  0  0  0  0  0
    7.0640  -12.7243    0.0000 C   0  0  2  0  0  0  0  0  0  0  0  0
    6.3495  -12.3118    0.0000 C   0  0  0  0  0  0  0  0  0  0  0  0
    7.7785  -13.9618    0.0000 C   0  0  0  0  0  0  0  0  0  0  0  0
    8.4929  -13.5493    0.0000 C   0  0  0  0  0  0  0  0  0  0  0  0
    8.4929  -12.7243    0.0000 C   0  0  2  0  0  0  0  0  0  0  0  0
    7.7785  -12.3118    0.0000 C   0  0  2  0  0  0  0  0  0  0  0  0
    9.2074  -12.3118    0.0000 C   0  0  1  0  0  0  0  0  0  0  0  0
    9.2074  -11.4868    0.0000 C   0  0  0  0  0  0  0  0  0  0  0  0
    8.4929  -11.0743    0.0000 C   0  0  0  0  0  0  0  0  0  0  0  0
    7.7785  -11.4868    0.0000 C   0  0  0  0  0  0  0  0  0  0  0  0
    9.9219  -12.7243    0.0000 C   0  0  0  0  0  0  0  0  0  0  0  0
   10.6364  -12.3118    0.0000 C   0  0  2  0  0  0  0  0  0  0  0  0
   10.6364  -11.4868    0.0000 C   0  0  2  0  0  0  0  0  0  0  0  0
    9.9219  -11.0743    0.0000 C   0  0  1  0  0  0  0  0  0  0  0  0
   11.3508  -11.0743    0.0000 C   0  0  0  0  0  0  0  0  0  0  0  0
   11.3508  -10.2493    0.0000 C   0  0  0  0  0  0  0  0  0  0  0  0
   10.6364   -9.8368    0.0000 C   0  0  0  0  0  0  0  0  0  0  0  0
    9.9219  -10.2493    0.0000 C   0  0  0  0  0  0  0  0  0  0  0  0
    4.9206  -13.9618    0.0000 O   0  0  0  0  0  0  0  0  0  0  0  0
    4.2064  -13.5488    0.0000 C   0  0  2  0  0  0  0  0  0  0  0  0
    4.2070  -12.7238    0.0000 O   0  0  0  0  0  0  0  0  0  0  0  0
    3.4928  -12.3108    0.0000 C   0  0  1  0  0  0  0  0  0  0  0  0
    2.7780  -12.7228    0.0000 C   0  0  2  0  0  0  0  0  0  0  0  0
    2.7775  -13.5478    0.0000 C   0  0  1  0  0  0  0  0  0  0  0  0
    3.4916  -13.9608    0.0000 C   0  0  1  0  0  0  0  0  0  0  0  0
    2.0627  -13.9598    0.0000 O   0  0  0  0  0  0  0  0  0  0  0  0
    3.4934  -11.4858    0.0000 C   0  0  0  0  0  0  0  0  0  0  0  0
    2.7792  -11.0728    0.0000 O   0  0  0  0  0  0  0  0  0  0  0  0
    2.7804  -10.2478    0.0000 C   0  0  2  0  0  0  0  0  0  0  0  0
    3.4955   -9.8364    0.0000 O   0  0  0  0  0  0  0  0  0  0  0  0
    3.4968   -9.0114    0.0000 C   0  0  0  0  0  0  0  0  0  0  0  0
    2.7829   -8.5978    0.0000 C   0  0  1  0  0  0  0  0  0  0  0  0
    2.0678   -9.0093    0.0000 C   0  0  1  0  0  0  0  0  0  0  0  0
    2.0666   -9.8343    0.0000 C   0  0  1  0  0  0  0  0  0  0  0  0
    1.3540   -8.5957    0.0000 O   0  0  0  0  0  0  0  0  0  0  0  0
    2.7841   -7.7728    0.0000 O   0  0  0  0  0  0  0  0  0  0  0  0
    4.9206  -12.3118    0.0000 O   0  0  0  0  0  0  0  0  0  0  0  0
    7.0640  -11.8993    0.0000 C   0  0  0  0  0  0  0  0  0  0  0  0
    8.4929  -11.8993    0.0000 C   0  0  0  0  0  0  0  0  0  0  0  0
    5.9370  -14.6763    0.0000 C   0  0  0  0  0  0  0  0  0  0  0  0
   11.3508  -11.8993    0.0000 C   0  0  0  0  0  0  0  0  0  0  0  0
   10.2239   -9.1224    0.0000 C   0  0  0  0  0  0  0  0  0  0  0  0
    1.3515  -10.2457    0.0000 O   0  0  0  0  0  0  0  0  0  0  0  0
    2.0639  -12.3098    0.0000 O   0  0  0  0  0  0  0  0  0  0  0  0
    3.4911  -14.7858    0.0000 O   0  0  0  0  0  0  0  0  0  0  0  0
    6.7620  -14.6763    0.0000 C   0  0  0  0  0  0  0  0  0  0  0  0
    9.2074  -13.1368    0.0000 C   0  0  0  0  0  0  0  0  0  0  0  0
   10.6364  -13.1368    0.0000 O   0  0  0  0  0  0  0  0  0  0  0  0
   11.0489   -9.1224    0.0000 C   0  0  0  0  0  0  0  0  0  0  0  0
   12.0653  -11.4868    0.0000 O   0  0  0  0  0  0  0  0  0  0  0  0
   12.7805  -11.9100    0.0000 C   0  0  2  0  0  0  0  0  0  0  0  0
   12.7676  -12.7349    0.0000 O   0  0  0  0  0  0  0  0  0  0  0  0
   13.4755  -13.1585    0.0000 C   0  0  0  0  0  0  0  0  0  0  0  0
   14.1964  -12.7572    0.0000 C   0  0  2  0  0  0  0  0  0  0  0  0
   14.2092  -11.9323    0.0000 C   0  0  1  0  0  0  0  0  0  0  0  0
   13.5013  -11.5087    0.0000 C   0  0  1  0  0  0  0  0  0  0  0  0
   14.9301  -11.5310    0.0000 O   0  0  0  0  0  0  0  0  0  0  0  0
   14.9043  -13.1808    0.0000 O   0  0  0  0  0  0  0  0  0  0  0  0
   13.4796  -10.6971    0.0000 O   0  0  0  0  0  0  0  0  0  0  0  0
   14.1895  -10.2768    0.0000 C   0  0  2  0  0  0  0  0  0  0  0  0
   14.9085  -10.6815    0.0000 O   0  0  0  0  0  0  0  0  0  0  0  0
   15.6184  -10.2612    0.0000 C   0  0  2  0  0  0  0  0  0  0  0  0
   15.6094   -9.4362    0.0000 C   0  0  1  0  0  0  0  0  0  0  0  0
   14.8904   -9.0316    0.0000 C   0  0  2  0  0  0  0  0  0  0  0  0
   14.1805   -9.4518    0.0000 C   0  0  1  0  0  0  0  0  0  0  0  0
   16.3193   -9.0159    0.0000 O   0  0  0  0  0  0  0  0  0  0  0  0
   16.3373  -10.6658    0.0000 C   0  0  0  0  0  0  0  0  0  0  0  0
   14.8814   -8.2066    0.0000 O   0  0  0  0  0  0  0  0  0  0  0  0
   13.4616   -9.0472    0.0000 O   0  0  0  0  0  0  0  0  0  0  0  0
   14.2895   -7.6319    0.0000 C   0  0  2  0  0  0  0  0  0  0  0  0
   14.5683   -6.8554    0.0000 O   0  0  0  0  0  0  0  0  0  0  0  0
   13.9160   -6.3503    0.0000 C   0  0  0  0  0  0  0  0  0  0  0  0
   13.2341   -6.8146    0.0000 C   0  0  1  0  0  0  0  0  0  0  0  0
   13.4649   -7.6067    0.0000 C   0  0  1  0  0  0  0  0  0  0  0  0
   12.8111   -6.1063    0.0000 C   0  0  0  0  0  0  0  0  0  0  0  0
   12.4092   -6.8268    0.0000 O   0  0  0  0  0  0  0  0  0  0  0  0
   12.9598   -8.2590    0.0000 O   0  0  0  0  0  0  0  0  0  0  0  0
   13.3902   -5.6071    0.0000 O   0  0  0  0  0  0  0  0  0  0  0  0
   17.0397   -9.4180    0.0000 C   0  0  0  0  0  0  0  0  0  0  0  0
   17.7481   -8.9951    0.0000 C   0  0  2  0  0  0  0  0  0  0  0  0
   18.4685   -9.3971    0.0000 O   0  0  0  0  0  0  0  0  0  0  0  0
   19.1769   -8.9742    0.0000 C   0  0  0  0  0  0  0  0  0  0  0  0
   19.1648   -8.1493    0.0000 C   0  0  1  0  0  0  0  0  0  0  0  0
   18.4444   -7.7473    0.0000 C   0  0  1  0  0  0  0  0  0  0  0  0
   17.7360   -8.1701    0.0000 C   0  0  1  0  0  0  0  0  0  0  0  0
   17.0624   -7.7696    0.0000 O   0  0  0  0  0  0  0  0  0  0  0  0
   18.4323   -6.9223    0.0000 O   0  0  0  0  0  0  0  0  0  0  0  0
   19.8732   -7.7264    0.0000 O   0  0  0  0  0  0  0  0  0  0  0  0
   19.1407   -6.4994    0.0000 C   0  0  2  0  0  0  0  0  0  0  0  0
   19.8611   -6.9015    0.0000 O   0  0  0  0  0  0  0  0  0  0  0  0
   20.5695   -6.4786    0.0000 C   0  0  0  0  0  0  0  0  0  0  0  0
   20.5574   -5.6537    0.0000 C   0  0  2  0  0  0  0  0  0  0  0  0
   19.8370   -5.2516    0.0000 C   0  0  1  0  0  0  0  0  0  0  0  0
   19.1287   -5.6745    0.0000 C   0  0  1  0  0  0  0  0  0  0  0  0
   19.8250   -4.4267    0.0000 O   0  0  0  0  0  0  0  0  0  0  0  0
   21.2658   -5.2308    0.0000 O   0  0  0  0  0  0  0  0  0  0  0  0
   18.4082   -5.2725    0.0000 O   0  0  0  0  0  0  0  0  0  0  0  0
   11.3508  -12.7243    0.0000 O   0  0  0  0  0  0  0  0  0  0  0  0
    7.0640  -14.3743    0.0000 H   0  0  0  0  0  0  0  0  0  0  0  0
    7.7785  -13.1368    0.0000 H   0  0  0  0  0  0  0  0  0  0  0  0
    9.9219  -11.8993    0.0000 H   0  0  0  0  0  0  0  0  0  0  0  0
  1  2  1  0  0  0  0
  2  3  1  0  0  0  0
  3  4  1  0  0  0  0
  4  5  1  0  0  0  0
  5  6  1  0  0  0  0
  6  1  1  0  0  0  0
  4  7  1  0  0  0  0
  7  8  1  0  0  0  0
  8  9  1  0  0  0  0
  9 10  1  0  0  0  0
 10  5  1  0  0  0  0
  9 11  1  0  0  0  0
 11 12  1  0  0  0  0
 12 13  2  0  0  0  0
 13 14  1  0  0  0  0
 14 10  1  0  0  0  0
 11 15  1  0  0  0  0
 15 16  1  0  0  0  0
 16 17  1  0  0  0  0
 17 18  1  0  0  0  0
 18 12  1  0  0  0  0
 17 19  1  0  0  0  0
 19 20  1  0  0  0  0
 20 21  1  0  0  0  0
 21 22  1  0  0  0  0
 22 18  1  0  0  0  0
  2 23  1  1  0  0  0
 24 23  1  1  0  0  0
 24 25  1  0  0  0  0
 25 26  1  0  0  0  0
 26 27  1  0  0  0  0
 27 28  1  0  0  0  0
 28 29  1  0  0  0  0
 29 24  1  0  0  0  0
 28 30  1  1  0  0  0
 26 31  1  1  0  0  0
 31 32  1  0  0  0  0
 33 32  1  1  0  0  0
 33 34  1  0  0  0  0
 34 35  1  0  0  0  0
 35 36  1  0  0  0  0
 36 37  1  0  0  0  0
 37 38  1  0  0  0  0
 38 33  1  0  0  0  0
 37 39  1  1  0  0  0
 36 40  1  1  0  0  0
  1 41  1  1  0  0  0
  5 42  1  1  0  0  0
  9 43  1  1  0  0  0
  3 44  1  0  0  0  0
 17 45  1  1  0  0  0
 21 46  1  0  0  0  0
 38 47  1  6  0  0  0
 27 48  1  6  0  0  0
 29 49  1  6  0  0  0
  3 50  1  0  0  0  0
 11 51  1  6  0  0  0
 16 52  1  6  0  0  0
 21 53  1  0  0  0  0
 45 54  1  0  0  0  0
 55 56  1  0  0  0  0
 56 57  1  0  0  0  0
 57 58  1  0  0  0  0
 58 59  1  0  0  0  0
 59 60  1  0  0  0  0
 60 55  1  0  0  0  0
 59 61  1  1  0  0  0
 58 62  1  6  0  0  0
 60 63  1  6  0  0  0
 64 63  1  1  0  0  0
 64 65  1  0  0  0  0
 65 66  1  0  0  0  0
 66 67  1  0  0  0  0
 67 68  1  0  0  0  0
 68 69  1  0  0  0  0
 69 64  1  0  0  0  0
 67 70  1  1  0  0  0
 66 71  1  6  0  0  0
 68 72  1  6  0  0  0
 69 73  1  6  0  0  0
 74 72  1  1  0  0  0
 74 75  1  0  0  0  0
 75 76  1  0  0  0  0
 76 77  1  0  0  0  0
 77 78  1  0  0  0  0
 78 74  1  0  0  0  0
 77 79  1  1  0  0  0
 77 80  1  6  0  0  0
 78 81  1  6  0  0  0
 79 82  1  0  0  0  0
 70 83  1  0  0  0  0
 84 83  1  1  0  0  0
 84 85  1  0  0  0  0
 85 86  1  0  0  0  0
 86 87  1  0  0  0  0
 87 88  1  0  0  0  0
 88 89  1  0  0  0  0
 89 84  1  0  0  0  0
 89 90  1  6  0  0  0
 88 91  1  1  0  0  0
 87 92  1  1  0  0  0
 93 91  1  1  0  0  0
 93 94  1  0  0  0  0
 94 95  1  0  0  0  0
 95 96  1  0  0  0  0
 96 97  1  0  0  0  0
 97 98  1  0  0  0  0
 98 93  1  0  0  0  0
 97 99  1  1  0  0  0
 96100  1  6  0  0  0
 98101  1  6  0  0  0
 45102  2  0  0  0  0
 55 54  1  1  0  0  0
  4103  1  6  0  0  0
 10104  1  6  0  0  0
 18105  1  1  0  0  0
M  END
>  <cdx:fragmentId>
5

$$$$
