90601.cdx
  Mrv1902 05222410272D          

 19 21  0  0  0  0            999 V2000
    5.5604   -5.8092    0.0000 C   0  0  0  0  0  0  0  0  0  0  0  0
    5.0754   -6.4767    0.0000 C   0  0  0  0  0  0  0  0  0  0  0  0
    5.5604   -7.1441    0.0000 C   0  0  0  0  0  0  0  0  0  0  0  0
    6.3450   -6.8892    0.0000 C   0  0  1  0  0  0  0  0  0  0  0  0
    6.9900   -7.4035    0.0000 C   0  0  1  0  0  0  0  0  0  0  0  0
    7.7943   -7.2200    0.0000 C   0  0  1  0  0  0  0  0  0  0  0  0
    8.1523   -6.4767    0.0000 C   0  0  0  0  0  0  0  0  0  0  0  0
    7.7943   -5.7334    0.0000 C   0  0  0  0  0  0  0  0  0  0  0  0
    6.9900   -5.5498    0.0000 C   0  0  2  0  0  0  0  0  0  0  0  0
    6.3450   -6.0642    0.0000 C   0  0  1  0  0  0  0  0  0  0  0  0
    7.5511   -8.0083    0.0000 C   0  0  0  0  0  0  0  0  0  0  0  0
    5.3054   -7.9287    0.0000 C   0  0  0  0  0  0  0  0  0  0  0  0
    6.8064   -4.7455    0.0000 C   0  0  0  0  0  0  0  0  0  0  0  0
    7.3080   -8.7966    0.0000 C   0  0  0  0  0  0  0  0  0  0  0  0
    8.1123   -8.6131    0.0000 C   0  0  0  0  0  0  0  0  0  0  0  0
    8.5623   -7.5214    0.0000 H   0  0  0  0  0  0  0  0  0  0  0  0
    6.1977   -5.2524    0.0000 H   0  0  0  0  0  0  0  0  0  0  0  0
    6.4288   -8.0083    0.0000 H   0  0  0  0  0  0  0  0  0  0  0  0
    6.3450   -7.7142    0.0000 H   0  0  0  0  0  0  0  0  0  0  0  0
  1  2  1  0  0  0  0
  2  3  1  0  0  0  0
  3  4  1  0  0  0  0
  4  5  1  0  0  0  0
  5  6  1  0  0  0  0
  6  7  1  0  0  0  0
  7  8  1  0  0  0  0
  8  9  1  0  0  0  0
  9 10  1  0  0  0  0
  1 10  1  0  0  0  0
  4 10  1  0  0  0  0
  5 11  1  0  0  0  0
  6 11  1  0  0  0  0
  3 12  2  0  0  0  0
  9 13  1  6  0  0  0
 11 14  1  0  0  0  0
 11 15  1  0  0  0  0
  6 16  1  6  0  0  0
 10 17  1  1  0  0  0
  5 18  1  6  0  0  0
  4 19  1  1  0  0  0
M  END
>  <cdx:fragmentId>
7228

$$$$
