90615.cdx
  Mrv1902 05222410272D          

 33 34  0  0  0  0            999 V2000
   11.8397   -8.3944    0.0000 C   0  0  0  0  0  0  0  0  0  0  0  0
   11.1252   -8.8069    0.0000 C   0  0  2  0  0  0  0  0  0  0  0  0
   10.4108   -8.3944    0.0000 C   0  0  2  0  0  0  0  0  0  0  0  0
   10.4108   -7.5694    0.0000 C   0  0  0  0  0  0  0  0  0  0  0  0
   11.1252   -7.1569    0.0000 C   0  0  0  0  0  0  0  0  0  0  0  0
   11.1252   -6.3319    0.0000 C   0  0  0  0  0  0  0  0  0  0  0  0
   11.8397   -7.5694    0.0000 O   0  0  0  0  0  0  0  0  0  0  0  0
   12.5542   -8.8069    0.0000 O   0  0  0  0  0  0  0  0  0  0  0  0
    9.6963   -8.8069    0.0000 C   0  0  0  0  0  0  0  0  0  0  0  0
    9.6963   -9.6319    0.0000 O   0  0  0  0  0  0  0  0  0  0  0  0
    8.9818   -8.3944    0.0000 O   0  0  0  0  0  0  0  0  0  0  0  0
    8.2674   -8.8069    0.0000 C   0  0  0  0  0  0  0  0  0  0  0  0
    7.5529   -8.3944    0.0000 C   0  0  0  0  0  0  0  0  0  0  0  0
    6.8384   -8.8069    0.0000 C   0  0  0  0  0  0  0  0  0  0  0  0
    6.1239   -8.3944    0.0000 C   0  0  0  0  0  0  0  0  0  0  0  0
    6.1239   -7.5694    0.0000 C   0  0  0  0  0  0  0  0  0  0  0  0
    6.8384   -7.1569    0.0000 C   0  0  0  0  0  0  0  0  0  0  0  0
    7.5529   -7.5694    0.0000 C   0  0  0  0  0  0  0  0  0  0  0  0
    5.4095   -7.1569    0.0000 O   0  0  0  0  0  0  0  0  0  0  0  0
    3.9805   -7.1569    0.0000 O   0  0  0  0  0  0  0  0  0  0  0  0
    4.6950   -7.5694    0.0000 C   0  0  2  0  0  0  0  0  0  0  0  0
    4.6950   -8.3944    0.0000 C   0  0  1  0  0  0  0  0  0  0  0  0
    3.9805   -8.8069    0.0000 C   0  0  2  0  0  0  0  0  0  0  0  0
    3.2661   -8.3944    0.0000 C   0  0  1  0  0  0  0  0  0  0  0  0
    3.2661   -7.5694    0.0000 C   0  0  1  0  0  0  0  0  0  0  0  0
    2.5516   -7.1569    0.0000 C   0  0  0  0  0  0  0  0  0  0  0  0
    1.8371   -7.5694    0.0000 O   0  0  0  0  0  0  0  0  0  0  0  0
    2.5516   -8.8069    0.0000 O   0  0  0  0  0  0  0  0  0  0  0  0
    3.9805   -9.6319    0.0000 O   0  0  0  0  0  0  0  0  0  0  0  0
    5.4095   -8.8069    0.0000 O   0  0  0  0  0  0  0  0  0  0  0  0
    9.6963   -7.1569    0.0000 C   0  0  0  0  0  0  0  0  0  0  0  0
   10.4108   -9.2194    0.0000 O   0  0  0  0  0  0  0  0  0  0  0  0
   11.1252   -9.6319    0.0000 O   0  0  0  0  0  0  0  0  0  0  0  0
  1  2  1  0  0  0  0
  2  3  1  0  0  0  0
  3  4  1  0  0  0  0
  4  5  1  0  0  0  0
  5  6  1  0  0  0  0
  1  7  2  0  0  0  0
  1  8  1  0  0  0  0
  9 10  2  0  0  0  0
 11 12  1  0  0  0  0
  9 11  1  0  0  0  0
 13 14  1  0  0  0  0
 14 15  2  0  0  0  0
 15 16  1  0  0  0  0
 16 17  2  0  0  0  0
 17 18  1  0  0  0  0
 13 18  2  0  0  0  0
 20 21  1  0  0  0  0
 21 22  1  0  0  0  0
 22 23  1  0  0  0  0
 23 24  1  0  0  0  0
 24 25  1  0  0  0  0
 20 25  1  0  0  0  0
 26 27  1  0  0  0  0
 25 26  1  1  0  0  0
 24 28  1  6  0  0  0
 23 29  1  1  0  0  0
 22 30  1  6  0  0  0
 21 19  1  1  0  0  0
 16 19  1  0  0  0  0
 12 13  1  0  0  0  0
  3  9  1  0  0  0  0
  4 31  1  0  0  0  0
  3 32  1  6  0  0  0
  2 33  1  1  0  0  0
M  END
>  <cdx:fragmentId>
43

$$$$
