90617.cdx
  Mrv1902 05222410282D          

 21 22  0  0  0  0            999 V2000
    6.5156  -11.6864    0.0000 C   0  0  0  0  0  0  0  0  0  0  0  0
    6.5156  -12.5114    0.0000 C   0  0  0  0  0  0  0  0  0  0  0  0
    7.2300  -12.9239    0.0000 C   0  0  0  0  0  0  0  0  0  0  0  0
    7.9445  -12.5114    0.0000 C   0  0  0  0  0  0  0  0  0  0  0  0
    7.9445  -11.6864    0.0000 C   0  0  0  0  0  0  0  0  0  0  0  0
    7.2300  -11.2739    0.0000 C   0  0  0  0  0  0  0  0  0  0  0  0
    5.0866  -12.5114    0.0000 C   0  0  0  0  0  0  0  0  0  0  0  0
    5.8011  -12.9239    0.0000 O   0  0  0  0  0  0  0  0  0  0  0  0
    7.9445  -10.0364    0.0000 C   0  0  0  0  0  0  0  0  0  0  0  0
    7.2300  -10.4489    0.0000 C   0  0  0  0  0  0  0  0  0  0  0  0
    7.9445   -9.2114    0.0000 C   0  0  0  0  0  0  0  0  0  0  0  0
    8.6590   -8.7989    0.0000 O   0  0  0  0  0  0  0  0  0  0  0  0
    8.6590   -7.9739    0.0000 C   0  0  0  0  0  0  0  0  0  0  0  0
    7.9445   -7.5614    0.0000 O   0  0  0  0  0  0  0  0  0  0  0  0
    9.3734   -7.5614    0.0000 C   0  0  0  0  0  0  0  0  0  0  0  0
    9.3734   -6.7364    0.0000 C   0  0  0  0  0  0  0  0  0  0  0  0
   10.0879   -7.9739    0.0000 C   0  0  0  0  0  0  0  0  0  0  0  0
   10.8024   -7.5614    0.0000 C   0  0  0  0  0  0  0  0  0  0  0  0
   10.8024   -6.7364    0.0000 C   0  0  0  0  0  0  0  0  0  0  0  0
   10.0879   -6.3239    0.0000 C   0  0  0  0  0  0  0  0  0  0  0  0
    7.2300  -13.7489    0.0000 O   0  0  0  0  0  0  0  0  0  0  0  0
  1  2  2  0  0  0  0
  2  3  1  0  0  0  0
  3  4  2  0  0  0  0
  4  5  1  0  0  0  0
  5  6  2  0  0  0  0
  6  1  1  0  0  0  0
  7  8  1  0  0  0  0
  8  2  1  0  0  0  0
  9 10  2  0  0  0  0
 10  6  1  0  0  0  0
  9 11  1  0  0  0  0
 11 12  1  0  0  0  0
 12 13  1  0  0  0  0
 13 14  2  0  0  0  0
 13 15  1  0  0  0  0
 15 16  2  0  0  0  0
 15 17  1  0  0  0  0
 17 18  2  0  0  0  0
 18 19  1  0  0  0  0
 19 20  2  0  0  0  0
 20 16  1  0  0  0  0
  3 21  1  0  0  0  0
M  END
>  <cdx:fragmentId>
5

$$$$
