90612.cdx
  Mrv1902 05222410262D          

 25 26  0  0  0  0            999 V2000
    4.6731  -13.3914    0.0000 C   0  0  0  0  0  0  0  0  0  0  0  0
    4.6731  -14.2164    0.0000 C   0  0  0  0  0  0  0  0  0  0  0  0
    5.3875  -14.6289    0.0000 C   0  0  0  0  0  0  0  0  0  0  0  0
    6.1020  -14.2164    0.0000 C   0  0  0  0  0  0  0  0  0  0  0  0
    6.1020  -13.3914    0.0000 C   0  0  0  0  0  0  0  0  0  0  0  0
    5.3875  -12.9789    0.0000 C   0  0  0  0  0  0  0  0  0  0  0  0
    6.8165  -12.9789    0.0000 O   0  0  0  0  0  0  0  0  0  0  0  0
    6.8165  -12.1539    0.0000 C   0  0  0  0  0  0  0  0  0  0  0  0
    6.1020  -11.7414    0.0000 C   0  0  1  0  0  0  0  0  0  0  0  0
    5.3875  -12.1539    0.0000 C   0  0  0  0  0  0  0  0  0  0  0  0
    7.5309  -11.7414    0.0000 O   0  0  0  0  0  0  0  0  0  0  0  0
    7.5309  -10.9164    0.0000 O   0  0  0  0  0  0  0  0  0  0  0  0
    6.8165  -10.5039    0.0000 C   0  0  0  0  0  0  0  0  0  0  0  0
    6.1020  -10.9164    0.0000 O   0  0  0  0  0  0  0  0  0  0  0  0
    7.5309   -9.2664    0.0000 C   0  0  0  0  0  0  0  0  0  0  0  0
    6.8165   -9.6789    0.0000 C   0  0  0  0  0  0  0  0  0  0  0  0
    7.5309   -8.4414    0.0000 C   0  0  0  0  0  0  0  0  0  0  0  0
    6.8165   -8.0289    0.0000 C   0  0  0  0  0  0  0  0  0  0  0  0
    8.2454   -8.0289    0.0000 C   0  0  0  0  0  0  0  0  0  0  0  0
    8.2454   -7.2039    0.0000 C   0  0  0  0  0  0  0  0  0  0  0  0
    7.5309   -6.7914    0.0000 C   0  0  0  0  0  0  0  0  0  0  0  0
    6.8165   -7.2039    0.0000 C   0  0  0  0  0  0  0  0  0  0  0  0
    7.5309   -5.9664    0.0000 O   0  0  0  0  0  0  0  0  0  0  0  0
    5.3875  -15.4539    0.0000 O   0  0  0  0  0  0  0  0  0  0  0  0
    3.9586  -14.6289    0.0000 O   0  0  0  0  0  0  0  0  0  0  0  0
  1  2  2  0  0  0  0
  2  3  1  0  0  0  0
  3  4  2  0  0  0  0
  4  5  1  0  0  0  0
  5  6  2  0  0  0  0
  6  1  1  0  0  0  0
  7  8  2  0  0  0  0
  8  9  1  0  0  0  0
  9 10  1  0  0  0  0
 10  6  1  0  0  0  0
  8 11  1  0  0  0  0
 12 13  2  0  0  0  0
 13 14  1  0  0  0  0
  9 14  1  1  0  0  0
 15 16  2  0  0  0  0
 16 13  1  0  0  0  0
 15 17  1  0  0  0  0
 17 18  2  0  0  0  0
 17 19  1  0  0  0  0
 19 20  2  0  0  0  0
 20 21  1  0  0  0  0
 21 22  2  0  0  0  0
 22 18  1  0  0  0  0
 21 23  1  0  0  0  0
  3 24  1  0  0  0  0
  2 25  1  0  0  0  0
M  END
>  <cdx:fragmentId>
5

$$$$
