90613.cdx
  Mrv1902 05222410262D          

 18 20  0  0  0  0            999 V2000
    6.2081   -7.7367    0.0000 C   0  0  0  0  0  0  0  0  0  0  0  0
    5.9487   -8.5199    0.0000 C   0  0  0  0  0  0  0  0  0  0  0  0
    6.3191   -9.2571    0.0000 C   0  0  2  0  0  0  0  0  0  0  0  0
    7.1023   -9.5165    0.0000 C   0  0  1  0  0  0  0  0  0  0  0  0
    7.8395   -9.1461    0.0000 C   0  0  0  0  0  0  0  0  0  0  0  0
    8.0988   -8.3629    0.0000 C   0  0  0  0  0  0  0  0  0  0  0  0
    7.7284   -7.6257    0.0000 C   0  0  2  0  0  0  0  0  0  0  0  0
    6.9453   -7.3663    0.0000 C   0  0  2  0  0  0  0  0  0  0  0  0
    6.8852   -6.5435    0.0000 C   0  0  0  0  0  0  0  0  0  0  0  0
    8.2678   -7.0014    0.0000 O   0  0  0  0  0  0  0  0  0  0  0  0
    5.5222   -9.0436    0.0000 H   0  0  0  0  0  0  0  0  0  0  0  0
    5.8304   -9.9218    0.0000 C   0  0  0  0  0  0  0  0  0  0  0  0
    6.3191  -10.5920    0.0000 C   0  0  0  0  0  0  0  0  0  0  0  0
    7.1023  -10.3414    0.0000 C   0  0  2  0  0  0  0  0  0  0  0  0
    7.7686  -10.8279    0.0000 O   0  0  0  0  0  0  0  0  0  0  0  0
    5.1160   -9.5093    0.0000 C   0  0  0  0  0  0  0  0  0  0  0  0
    5.2471  -10.5052    0.0000 C   0  0  0  0  0  0  0  0  0  0  0  0
    6.7042   -8.3970    0.0000 C   0  0  0  0  0  0  0  0  0  0  0  0
  1  2  1  0  0  0  0
  2  3  1  0  0  0  0
  3  4  1  0  0  0  0
  4  5  1  1  0  0  0
  5  6  1  0  0  0  0
  6  7  1  0  0  0  0
  7  8  1  0  0  0  0
  8  1  1  0  0  0  0
  8  9  1  6  0  0  0
  7 10  1  6  0  0  0
  3 11  1  1  0  0  0
  3 12  1  0  0  0  0
 12 13  1  0  0  0  0
 13 14  1  0  0  0  0
 14  4  1  0  0  0  0
 14 15  1  1  0  0  0
 12 16  1  0  0  0  0
 12 17  1  0  0  0  0
  8 18  1  0  0  0  0
 18  4  1  0  0  0  0
M  END
>  <cdx:fragmentId>
5

$$$$
