906199.cdx
  Mrv1902 05222410212D          

 25 27  0  0  0  0            999 V2000
    3.2414  -10.0031    0.0000 C   0  0  0  0  0  0  0  0  0  0  0  0
    3.2414  -10.8281    0.0000 C   0  0  0  0  0  0  0  0  0  0  0  0
    3.9559  -11.2406    0.0000 C   0  0  1  0  0  0  0  0  0  0  0  0
    4.6703  -10.8281    0.0000 C   0  0  1  0  0  0  0  0  0  0  0  0
    4.6703  -10.0031    0.0000 C   0  0  2  0  0  0  0  0  0  0  0  0
    3.9559   -9.5906    0.0000 C   0  0  0  0  0  0  0  0  0  0  0  0
    5.3848  -11.2406    0.0000 C   0  0  0  0  0  0  0  0  0  0  0  0
    6.0993  -10.8281    0.0000 C   0  0  0  0  0  0  0  0  0  0  0  0
    6.0993  -10.0031    0.0000 C   0  0  0  0  0  0  0  0  0  0  0  0
    5.3848   -9.5906    0.0000 C   0  0  2  0  0  0  0  0  0  0  0  0
    6.8962   -9.7896    0.0000 C   0  0  0  0  0  0  0  0  0  0  0  0
    7.3087   -9.0751    0.0000 C   0  0  2  0  0  0  0  0  0  0  0  0
    7.0952   -8.2782    0.0000 C   0  0  0  0  0  0  0  0  0  0  0  0
    6.3807   -7.8657    0.0000 C   0  0  0  0  0  0  0  0  0  0  0  0
    5.5838   -8.0793    0.0000 C   0  0  0  0  0  0  0  0  0  0  0  0
    5.1713   -8.7937    0.0000 C   0  0  0  0  0  0  0  0  0  0  0  0
    6.5942   -7.0689    0.0000 C   0  0  0  0  0  0  0  0  0  0  0  0
    3.5434  -11.9551    0.0000 C   0  0  0  0  0  0  0  0  0  0  0  0
    4.6703   -9.1781    0.0000 C   0  0  0  0  0  0  0  0  0  0  0  0
    4.3684  -11.9551    0.0000 C   0  0  0  0  0  0  0  0  0  0  0  0
    4.6703  -11.6531    0.0000 H   0  0  0  0  0  0  0  0  0  0  0  0
    5.3848  -10.4156    0.0000 H   0  0  0  0  0  0  0  0  0  0  0  0
    8.1056   -9.2887    0.0000 O   0  0  0  0  0  0  0  0  0  0  0  0
    6.0108   -6.4855    0.0000 O   0  0  0  0  0  0  0  0  0  0  0  0
    7.3911   -6.8553    0.0000 O   0  0  0  0  0  0  0  0  0  0  0  0
  1  2  1  0  0  0  0
  2  3  1  0  0  0  0
  3  4  1  0  0  0  0
  4  5  1  0  0  0  0
  5  6  1  0  0  0  0
  6  1  1  0  0  0  0
  4  7  1  0  0  0  0
  7  8  1  0  0  0  0
  8  9  2  0  0  0  0
  9 10  1  0  0  0  0
 10  5  1  0  0  0  0
  9 11  1  0  0  0  0
 11 12  1  0  0  0  0
 12 13  1  0  0  0  0
 13 14  1  0  0  0  0
 14 15  2  0  0  0  0
 15 16  1  0  0  0  0
 16 10  1  0  0  0  0
 14 17  1  0  0  0  0
  3 18  1  1  0  0  0
  5 19  1  1  0  0  0
  3 20  1  6  0  0  0
  4 21  1  6  0  0  0
 10 22  1  6  0  0  0
 12 23  1  6  0  0  0
 17 24  2  0  0  0  0
 17 25  1  0  0  0  0
M  END
>  <cdx:fragmentId>
5

$$$$
