90611.cdx
  Mrv1902 05222410272D          

 31 33  0  0  0  0            999 V2000
    5.6356  -12.8001    0.0000 C   0  0  0  0  0  0  0  0  0  0  0  0
    5.6356  -13.6251    0.0000 C   0  0  0  0  0  0  0  0  0  0  0  0
    6.3500  -14.0376    0.0000 C   0  0  0  0  0  0  0  0  0  0  0  0
    7.0645  -13.6251    0.0000 C   0  0  0  0  0  0  0  0  0  0  0  0
    7.0645  -12.8001    0.0000 C   0  0  0  0  0  0  0  0  0  0  0  0
    6.3500  -12.3876    0.0000 C   0  0  0  0  0  0  0  0  0  0  0  0
    4.9211  -14.0376    0.0000 O   0  0  0  0  0  0  0  0  0  0  0  0
    4.2066  -13.6251    0.0000 C   0  0  0  0  0  0  0  0  0  0  0  0
    6.3500  -14.8626    0.0000 O   0  0  0  0  0  0  0  0  0  0  0  0
    7.7790  -14.0376    0.0000 O   0  0  0  0  0  0  0  0  0  0  0  0
    8.4934  -13.6251    0.0000 C   0  0  0  0  0  0  0  0  0  0  0  0
    6.3500  -11.5626    0.0000 C   0  0  2  0  0  0  0  0  0  0  0  0
    7.0175  -11.0777    0.0000 C   0  0  2  0  0  0  0  0  0  0  0  0
    6.7625  -10.2931    0.0000 C   0  0  2  0  0  0  0  0  0  0  0  0
    5.9375  -10.2931    0.0000 C   0  0  0  0  0  0  0  0  0  0  0  0
    5.6826  -11.0777    0.0000 O   0  0  0  0  0  0  0  0  0  0  0  0
    7.8021  -11.3327    0.0000 C   0  0  0  0  0  0  0  0  0  0  0  0
    8.4152  -10.7806    0.0000 O   0  0  0  0  0  0  0  0  0  0  0  0
    7.2474   -9.6257    0.0000 C   0  0  0  0  0  0  0  0  0  0  0  0
    6.9119   -8.8720    0.0000 C   0  0  0  0  0  0  0  0  0  0  0  0
    8.0679   -9.7119    0.0000 O   0  0  0  0  0  0  0  0  0  0  0  0
    7.3968   -8.2046    0.0000 C   0  0  0  0  0  0  0  0  0  0  0  0
    7.0613   -7.4509    0.0000 C   0  0  0  0  0  0  0  0  0  0  0  0
    6.2408   -7.3646    0.0000 C   0  0  0  0  0  0  0  0  0  0  0  0
    5.7559   -8.0321    0.0000 C   0  0  0  0  0  0  0  0  0  0  0  0
    6.0914   -8.7858    0.0000 C   0  0  0  0  0  0  0  0  0  0  0  0
    5.9052   -6.6110    0.0000 O   0  0  0  0  0  0  0  0  0  0  0  0
    4.9354   -7.9458    0.0000 O   0  0  0  0  0  0  0  0  0  0  0  0
    4.5229   -7.2314    0.0000 C   0  0  0  0  0  0  0  0  0  0  0  0
    7.5462   -6.7834    0.0000 O   0  0  0  0  0  0  0  0  0  0  0  0
    8.3712   -6.7834    0.0000 C   0  0  0  0  0  0  0  0  0  0  0  0
  1  2  2  0  0  0  0
  2  3  1  0  0  0  0
  3  4  2  0  0  0  0
  4  5  1  0  0  0  0
  5  6  2  0  0  0  0
  6  1  1  0  0  0  0
  2  7  1  0  0  0  0
  7  8  1  0  0  0  0
  3  9  1  0  0  0  0
  4 10  1  0  0  0  0
 10 11  1  0  0  0  0
 12  6  1  1  0  0  0
 12 13  1  0  0  0  0
 13 14  1  0  0  0  0
 14 15  1  0  0  0  0
 15 16  1  0  0  0  0
 16 12  1  0  0  0  0
 13 17  1  6  0  0  0
 17 18  1  0  0  0  0
 14 19  1  6  0  0  0
 19 20  1  0  0  0  0
 19 21  2  0  0  0  0
 20 22  2  0  0  0  0
 22 23  1  0  0  0  0
 23 24  2  0  0  0  0
 24 25  1  0  0  0  0
 25 26  2  0  0  0  0
 26 20  1  0  0  0  0
 24 27  1  0  0  0  0
 25 28  1  0  0  0  0
 28 29  1  0  0  0  0
 23 30  1  0  0  0  0
 30 31  1  0  0  0  0
M  END
>  <cdx:fragmentId>
5

$$$$
