90618.cdx
  Mrv1902 05222410192D          

 27 31  0  0  0  0            999 V2000
    7.9441   -5.8345    0.0000 C   0  0  0  0  0  0  0  0  0  0  0  0
    7.2301   -6.2477    0.0000 C   0  0  0  0  0  0  0  0  0  0  0  0
    7.2309   -7.0727    0.0000 C   0  0  0  0  0  0  0  0  0  0  0  0
    7.9458   -7.4845    0.0000 C   0  0  0  0  0  0  0  0  0  0  0  0
    8.6598   -7.0713    0.0000 C   0  0  0  0  0  0  0  0  0  0  0  0
    8.6590   -6.2463    0.0000 C   0  0  0  0  0  0  0  0  0  0  0  0
    7.9466   -8.3095    0.0000 C   0  0  0  0  0  0  0  0  0  0  0  0
    8.6615   -8.7213    0.0000 N   0  0  0  0  0  0  0  0  0  0  0  0
    9.3756   -8.3080    0.0000 C   0  0  0  0  0  0  0  0  0  0  0  0
    9.3747   -7.4830    0.0000 C   0  0  0  0  0  0  0  0  0  0  0  0
    6.5168   -7.4859    0.0000 C   0  0  0  0  0  0  0  0  0  0  0  0
    6.5177   -8.3109    0.0000 C   0  0  0  0  0  0  0  0  0  0  0  0
    7.2326   -8.7227    0.0000 C   0  0  0  0  0  0  0  0  0  0  0  0
    5.8020   -7.0742    0.0000 C   0  0  0  0  0  0  0  0  0  0  0  0
    5.0879   -7.4874    0.0000 C   0  0  0  0  0  0  0  0  0  0  0  0
    5.0887   -8.3124    0.0000 C   0  0  0  0  0  0  0  0  0  0  0  0
    5.8036   -8.7242    0.0000 C   0  0  0  0  0  0  0  0  0  0  0  0
    4.3030   -7.2333    0.0000 O   0  0  0  0  0  0  0  0  0  0  0  0
    3.8188   -7.9012    0.0000 C   0  0  0  0  0  0  0  0  0  0  0  0
    4.3044   -8.5681    0.0000 O   0  0  0  0  0  0  0  0  0  0  0  0
   10.0888   -7.0698    0.0000 O   0  0  0  0  0  0  0  0  0  0  0  0
   10.0905   -8.7198    0.0000 O   0  0  0  0  0  0  0  0  0  0  0  0
    7.9433   -5.0095    0.0000 O   0  0  0  0  0  0  0  0  0  0  0  0
    7.2284   -4.5977    0.0000 C   0  0  0  0  0  0  0  0  0  0  0  0
    6.5152   -5.8359    0.0000 O   0  0  0  0  0  0  0  0  0  0  0  0
    5.8011   -6.2492    0.0000 C   0  0  0  0  0  0  0  0  0  0  0  0
    8.6624   -9.5463    0.0000 C   0  0  0  0  0  0  0  0  0  0  0  0
  1  2  1  0  0  0  0
  2  3  2  0  0  0  0
  3  4  1  0  0  0  0
  4  5  2  0  0  0  0
  5  6  1  0  0  0  0
  6  1  2  0  0  0  0
  4  7  1  0  0  0  0
  7  8  1  0  0  0  0
  8  9  1  0  0  0  0
  9 10  1  0  0  0  0
 10  5  1  0  0  0  0
  3 11  1  0  0  0  0
 11 12  2  0  0  0  0
 12 13  1  0  0  0  0
 13  7  2  0  0  0  0
 11 14  1  0  0  0  0
 14 15  2  0  0  0  0
 15 16  1  0  0  0  0
 16 17  2  0  0  0  0
 17 12  1  0  0  0  0
 15 18  1  0  0  0  0
 18 19  1  0  0  0  0
 19 20  1  0  0  0  0
 20 16  1  0  0  0  0
 10 21  2  0  0  0  0
  9 22  2  0  0  0  0
  1 23  1  0  0  0  0
 23 24  1  0  0  0  0
  2 25  1  0  0  0  0
 25 26  1  0  0  0  0
  8 27  1  0  0  0  0
M  END
>  <cdx:fragmentId>
5

$$$$
