90614.cdx
  Mrv1902 05222410272D          

 11 11  0  0  0  0            999 V2000
    5.7731   -9.1976    0.0000 C   0  0  0  0  0  0  0  0  0  0  0  0
    5.7731  -10.0226    0.0000 C   0  0  0  0  0  0  0  0  0  0  0  0
    6.4875  -10.4351    0.0000 C   0  0  0  0  0  0  0  0  0  0  0  0
    7.2020  -10.0226    0.0000 C   0  0  0  0  0  0  0  0  0  0  0  0
    7.2020   -9.1976    0.0000 C   0  0  0  0  0  0  0  0  0  0  0  0
    6.4875   -8.7851    0.0000 C   0  0  0  0  0  0  0  0  0  0  0  0
    5.0586   -8.7851    0.0000 O   0  0  0  0  0  0  0  0  0  0  0  0
    4.3441   -9.1976    0.0000 C   0  0  0  0  0  0  0  0  0  0  0  0
    6.4875   -7.9601    0.0000 C   0  0  0  0  0  0  0  0  0  0  0  0
    7.2020   -7.5476    0.0000 C   0  0  0  0  0  0  0  0  0  0  0  0
    7.9165   -8.7851    0.0000 C   0  0  0  0  0  0  0  0  0  0  0  0
  1  2  2  0  0  0  0
  2  3  1  0  0  0  0
  3  4  2  0  0  0  0
  4  5  1  0  0  0  0
  5  6  2  0  0  0  0
  6  1  1  0  0  0  0
  1  7  1  0  0  0  0
  7  8  1  0  0  0  0
  6  9  1  0  0  0  0
  9 10  2  0  0  0  0
  5 11  1  0  0  0  0
M  END
>  <cdx:fragmentId>
5

$$$$
