90627.cdx
  Mrv1902 05222410182D          

 24 25  0  0  0  0            999 V2000
    3.3668  -10.6689    0.0000 O   0  0  0  0  0  0  0  0  0  0  0  0
    4.0813  -11.9064    0.0000 O   0  0  0  0  0  0  0  0  0  0  0  0
    4.7957  -11.4939    0.0000 C   0  0  2  0  0  0  0  0  0  0  0  0
    4.7957  -10.6689    0.0000 C   0  0  1  0  0  0  0  0  0  0  0  0
    4.0813  -10.2564    0.0000 C   0  0  0  0  0  0  0  0  0  0  0  0
    5.5102  -11.9064    0.0000 C   0  0  1  0  0  0  0  0  0  0  0  0
    6.2247  -11.4939    0.0000 C   0  0  2  0  0  0  0  0  0  0  0  0
    6.2247  -10.6689    0.0000 C   0  0  1  0  0  0  0  0  0  0  0  0
    5.5102  -10.2564    0.0000 O   0  0  0  0  0  0  0  0  0  0  0  0
    6.9392  -10.2564    0.0000 O   0  0  0  0  0  0  0  0  0  0  0  0
    6.9392   -9.4314    0.0000 C   0  0  0  0  0  0  0  0  0  0  0  0
    6.2247   -9.0189    0.0000 C   0  0  0  0  0  0  0  0  0  0  0  0
    7.6536   -9.0189    0.0000 C   0  0  0  0  0  0  0  0  0  0  0  0
    7.6536   -8.1939    0.0000 C   0  0  0  0  0  0  0  0  0  0  0  0
    6.9392   -7.7814    0.0000 C   0  0  0  0  0  0  0  0  0  0  0  0
    6.2247   -8.1939    0.0000 C   0  0  0  0  0  0  0  0  0  0  0  0
    8.3681  -10.2564    0.0000 O   0  0  0  0  0  0  0  0  0  0  0  0
    8.3681   -9.4314    0.0000 C   0  0  0  0  0  0  0  0  0  0  0  0
    9.0826   -9.0189    0.0000 C   0  0  0  0  0  0  0  0  0  0  0  0
    8.3681   -7.7814    0.0000 O   0  0  0  0  0  0  0  0  0  0  0  0
    5.5102   -6.9564    0.0000 C   0  0  0  0  0  0  0  0  0  0  0  0
    5.5102   -7.7814    0.0000 O   0  0  0  0  0  0  0  0  0  0  0  0
    5.5102  -12.7314    0.0000 O   0  0  0  0  0  0  0  0  0  0  0  0
    6.9392  -11.9064    0.0000 O   0  0  0  0  0  0  0  0  0  0  0  0
  3  2  1  6  0  0  0
  3  4  1  0  0  0  0
  4  5  1  1  0  0  0
  5  1  1  0  0  0  0
  3  6  1  0  0  0  0
  6  7  1  0  0  0  0
  7  8  1  0  0  0  0
  8  9  1  0  0  0  0
  9  4  1  0  0  0  0
  8 10  1  1  0  0  0
 10 11  1  0  0  0  0
 11 12  2  0  0  0  0
 11 13  1  0  0  0  0
 13 14  2  0  0  0  0
 14 15  1  0  0  0  0
 15 16  2  0  0  0  0
 16 12  1  0  0  0  0
 17 18  2  0  0  0  0
 18 13  1  0  0  0  0
 18 19  1  0  0  0  0
 20 14  1  0  0  0  0
 21 22  1  0  0  0  0
 22 16  1  0  0  0  0
  6 23  1  1  0  0  0
  7 24  1  6  0  0  0
M  END
>  <cdx:fragmentId>
5

$$$$
