90629.cdx
  Mrv1902 05222410272D          

 47 51  0  0  0  0            999 V2000
    3.1625  -10.5598    0.0000 C   0  0  0  0  0  0  0  0  0  0  0  0
    2.4480  -10.9723    0.0000 C   0  0  1  0  0  0  0  0  0  0  0  0
    2.4480  -11.7973    0.0000 C   0  0  1  0  0  0  0  0  0  0  0  0
    3.1625  -12.2098    0.0000 C   0  0  0  0  0  0  0  0  0  0  0  0
    3.8770  -11.7973    0.0000 C   0  0  1  0  0  0  0  0  0  0  0  0
    4.5914  -12.2098    0.0000 C   0  0  0  0  0  0  0  0  0  0  0  0
    5.3059  -11.7973    0.0000 C   0  0  0  0  0  0  0  0  0  0  0  0
    5.3059  -10.9723    0.0000 C   0  0  0  0  0  0  0  0  0  0  0  0
    6.0204  -10.5598    0.0000 C   0  0  2  0  0  0  0  0  0  0  0  0
    6.8050  -10.8148    0.0000 C   0  0  0  0  0  0  0  0  0  0  0  0
    7.2899  -10.1473    0.0000 C   0  0  0  0  0  0  0  0  0  0  0  0
    6.8050   -9.4799    0.0000 C   0  0  1  0  0  0  0  0  0  0  0  0
    6.0204   -9.7348    0.0000 C   0  0  1  0  0  0  0  0  0  0  0  0
    5.3059   -9.3223    0.0000 C   0  0  0  0  0  0  0  0  0  0  0  0
    4.5914   -9.7348    0.0000 C   0  0  0  0  0  0  0  0  0  0  0  0
    4.5914  -10.5598    0.0000 C   0  0  2  0  0  0  0  0  0  0  0  0
    3.8770  -10.9723    0.0000 C   0  0  1  0  0  0  0  0  0  0  0  0
    4.5914  -13.0348    0.0000 O   0  0  0  0  0  0  0  0  0  0  0  0
    6.0204   -8.9098    0.0000 C   0  0  0  0  0  0  0  0  0  0  0  0
    3.8770  -10.1473    0.0000 C   0  0  0  0  0  0  0  0  0  0  0  0
    6.0204  -11.3848    0.0000 O   0  0  0  0  0  0  0  0  0  0  0  0
    1.7336  -12.2098    0.0000 O   0  0  0  0  0  0  0  0  0  0  0  0
    1.7336  -10.5598    0.0000 O   0  0  0  0  0  0  0  0  0  0  0  0
    3.8770  -12.6223    0.0000 H   0  0  0  0  0  0  0  0  0  0  0  0
    4.5914  -11.3848    0.0000 H   0  0  0  0  0  0  0  0  0  0  0  0
    7.0599   -8.6953    0.0000 C   0  0  2  0  0  0  0  0  0  0  0  0
    6.5079   -8.0822    0.0000 C   0  0  0  0  0  0  0  0  0  0  0  0
    7.8669   -8.5238    0.0000 C   0  0  2  0  0  0  0  0  0  0  0  0
    8.4189   -9.1369    0.0000 O   0  0  0  0  0  0  0  0  0  0  0  0
    8.1219   -7.7391    0.0000 C   0  0  0  0  0  0  0  0  0  0  0  0
    8.9288   -7.5676    0.0000 C   0  0  0  0  0  0  0  0  0  0  0  0
    9.1838   -6.7830    0.0000 C   0  0  0  0  0  0  0  0  0  0  0  0
    8.3869   -6.5695    0.0000 C   0  0  0  0  0  0  0  0  0  0  0  0
    9.9806   -6.9965    0.0000 C   0  0  0  0  0  0  0  0  0  0  0  0
    9.4387   -5.9984    0.0000 O   0  0  0  0  0  0  0  0  0  0  0  0
    7.5896   -9.2250    0.0000 H   0  0  0  0  0  0  0  0  0  0  0  0
   10.2457   -5.8268    0.0000 C   0  0  2  0  0  0  0  0  0  0  0  0
   10.7977   -6.4399    0.0000 O   0  0  0  0  0  0  0  0  0  0  0  0
   11.6047   -6.2684    0.0000 C   0  0  1  0  0  0  0  0  0  0  0  0
   11.8596   -5.4838    0.0000 C   0  0  2  0  0  0  0  0  0  0  0  0
   11.3076   -4.8707    0.0000 C   0  0  1  0  0  0  0  0  0  0  0  0
   10.5006   -5.0422    0.0000 C   0  0  1  0  0  0  0  0  0  0  0  0
   12.1567   -6.8815    0.0000 C   0  0  0  0  0  0  0  0  0  0  0  0
   11.5625   -4.0861    0.0000 O   0  0  0  0  0  0  0  0  0  0  0  0
    9.9486   -4.4291    0.0000 O   0  0  0  0  0  0  0  0  0  0  0  0
   12.6666   -5.3123    0.0000 O   0  0  0  0  0  0  0  0  0  0  0  0
   12.9637   -6.7100    0.0000 O   0  0  0  0  0  0  0  0  0  0  0  0
  1  2  1  0  0  0  0
  2  3  1  0  0  0  0
  3  4  1  0  0  0  0
  4  5  1  0  0  0  0
  5  6  1  0  0  0  0
  6  7  1  0  0  0  0
  7  8  2  0  0  0  0
  8  9  1  0  0  0  0
  9 10  1  0  0  0  0
 10 11  1  0  0  0  0
 12 11  1  0  0  0  0
 12 13  1  0  0  0  0
  9 13  1  0  0  0  0
 13 14  1  0  0  0  0
 14 15  1  0  0  0  0
 15 16  1  0  0  0  0
  8 16  1  0  0  0  0
 16 17  1  0  0  0  0
  5 17  1  0  0  0  0
  1 17  1  0  0  0  0
  6 18  2  0  0  0  0
 13 19  1  1  0  0  0
 17 20  1  1  0  0  0
  9 21  1  6  0  0  0
  3 22  1  1  0  0  0
  2 23  1  1  0  0  0
  5 24  1  1  0  0  0
 16 25  1  6  0  0  0
 12 26  1  0  0  0  0
 26 27  1  6  0  0  0
 26 28  1  0  0  0  0
 28 29  1  1  0  0  0
 28 30  1  0  0  0  0
 30 31  1  0  0  0  0
 31 32  1  0  0  0  0
 32 33  1  0  0  0  0
 32 34  1  0  0  0  0
 32 35  1  0  0  0  0
 12 36  1  6  0  0  0
 37 35  1  1  0  0  0
 37 38  1  0  0  0  0
 38 39  1  0  0  0  0
 39 40  1  0  0  0  0
 40 41  1  0  0  0  0
 41 42  1  0  0  0  0
 42 37  1  0  0  0  0
 39 43  1  1  0  0  0
 41 44  1  1  0  0  0
 42 45  1  6  0  0  0
 40 46  1  6  0  0  0
 43 47  1  0  0  0  0
M  END
>  <cdx:fragmentId>
5

$$$$
