9062.cdx
  Mrv1902 05222410252D          

 26 27  0  0  0  0            999 V2000
    5.8402   -6.0844    0.0000 C   0  0  0  0  0  0  0  0  0  0  0  0
    5.8402   -6.9094    0.0000 C   0  0  2  0  0  0  0  0  0  0  0  0
    6.5546   -7.3219    0.0000 C   0  0  1  0  0  0  0  0  0  0  0  0
    7.2691   -6.9094    0.0000 C   0  0  1  0  0  0  0  0  0  0  0  0
    7.2691   -6.0844    0.0000 C   0  0  0  0  0  0  0  0  0  0  0  0
    6.5546   -5.6719    0.0000 C   0  0  2  0  0  0  0  0  0  0  0  0
    6.1421   -4.9574    0.0000 O   0  0  0  0  0  0  0  0  0  0  0  0
    6.9671   -4.9574    0.0000 C   0  0  0  0  0  0  0  0  0  0  0  0
    7.7921   -4.9574    0.0000 O   0  0  0  0  0  0  0  0  0  0  0  0
    6.5546   -4.2429    0.0000 O   0  0  0  0  0  0  0  0  0  0  0  0
    8.2046   -4.2429    0.0000 C   0  0  0  0  0  0  0  0  0  0  0  0
    5.1257   -7.3219    0.0000 O   0  0  0  0  0  0  0  0  0  0  0  0
    4.4112   -6.9094    0.0000 C   0  0  0  0  0  0  0  0  0  0  0  0
    4.4112   -6.0844    0.0000 O   0  0  0  0  0  0  0  0  0  0  0  0
    3.6967   -7.3219    0.0000 C   0  0  0  0  0  0  0  0  0  0  0  0
    2.9823   -6.9094    0.0000 C   0  0  0  0  0  0  0  0  0  0  0  0
    2.9823   -6.0844    0.0000 C   0  0  0  0  0  0  0  0  0  0  0  0
    3.6967   -5.6719    0.0000 C   0  0  0  0  0  0  0  0  0  0  0  0
    3.6967   -4.8469    0.0000 C   0  0  0  0  0  0  0  0  0  0  0  0
    2.9823   -4.4344    0.0000 C   0  0  0  0  0  0  0  0  0  0  0  0
    2.2678   -4.8469    0.0000 C   0  0  0  0  0  0  0  0  0  0  0  0
    2.2678   -5.6719    0.0000 C   0  0  0  0  0  0  0  0  0  0  0  0
    2.9823   -3.6094    0.0000 O   0  0  0  0  0  0  0  0  0  0  0  0
    4.4112   -4.4344    0.0000 O   0  0  0  0  0  0  0  0  0  0  0  0
    6.5546   -8.1469    0.0000 O   0  0  0  0  0  0  0  0  0  0  0  0
    7.9836   -7.3219    0.0000 O   0  0  0  0  0  0  0  0  0  0  0  0
  1  2  1  0  0  0  0
  2  3  1  0  0  0  0
  3  4  1  0  0  0  0
  4  5  1  0  0  0  0
  5  6  1  0  0  0  0
  6  1  1  0  0  0  0
  6  7  1  1  0  0  0
  6  8  1  0  0  0  0
  8  9  1  0  0  0  0
  8 10  2  0  0  0  0
  9 11  1  0  0  0  0
  2 12  1  6  0  0  0
 12 13  1  0  0  0  0
 13 14  2  0  0  0  0
 13 15  1  0  0  0  0
 15 16  2  0  0  0  0
 16 17  1  0  0  0  0
 17 18  2  0  0  0  0
 18 19  1  0  0  0  0
 19 20  2  0  0  0  0
 20 21  1  0  0  0  0
 21 22  2  0  0  0  0
 22 17  1  0  0  0  0
 20 23  1  0  0  0  0
 19 24  1  0  0  0  0
  3 25  1  1  0  0  0
  4 26  1  1  0  0  0
M  END
>  <cdx:fragmentId>
5

$$$$
