90620.cdx
  Mrv1902 05222410192D          

 38 42  0  0  0  0            999 V2000
    3.5863   -9.1701    0.0000 O   0  0  0  0  0  0  0  0  0  0  0  0
    4.3007   -8.7576    0.0000 C   0  0  0  0  0  0  0  0  0  0  0  0
    4.3007   -7.9326    0.0000 C   0  0  0  0  0  0  0  0  0  0  0  0
    3.5863   -7.5201    0.0000 O   0  0  0  0  0  0  0  0  0  0  0  0
    5.0152   -9.1701    0.0000 C   0  0  0  0  0  0  0  0  0  0  0  0
    5.7297   -8.7576    0.0000 C   0  0  0  0  0  0  0  0  0  0  0  0
    5.7297   -7.9326    0.0000 C   0  0  0  0  0  0  0  0  0  0  0  0
    5.0152   -7.5201    0.0000 C   0  0  0  0  0  0  0  0  0  0  0  0
    6.4442   -9.1701    0.0000 C   0  0  1  0  0  0  0  0  0  0  0  0
    7.1586   -8.7576    0.0000 C   0  0  1  0  0  0  0  0  0  0  0  0
    7.1586   -7.9326    0.0000 C   0  0  0  0  0  0  0  0  0  0  0  0
    6.4442   -7.5201    0.0000 C   0  0  1  0  0  0  0  0  0  0  0  0
    6.4442   -9.9951    0.0000 O   0  0  0  0  0  0  0  0  0  0  0  0
    7.1586  -10.4076    0.0000 C   0  0  1  0  0  0  0  0  0  0  0  0
    7.8731   -9.9951    0.0000 C   0  0  2  0  0  0  0  0  0  0  0  0
    7.8731   -9.1701    0.0000 O   0  0  0  0  0  0  0  0  0  0  0  0
    7.1586  -11.2326    0.0000 C   0  0  2  0  0  0  0  0  0  0  0  0
    7.8731  -11.6451    0.0000 C   0  0  1  0  0  0  0  0  0  0  0  0
    8.5876  -11.2326    0.0000 C   0  0  2  0  0  0  0  0  0  0  0  0
    8.5876  -10.4076    0.0000 O   0  0  0  0  0  0  0  0  0  0  0  0
    7.8731  -12.4701    0.0000 O   0  0  0  0  0  0  0  0  0  0  0  0
    9.3020  -12.4701    0.0000 O   0  0  0  0  0  0  0  0  0  0  0  0
    9.3020  -11.6451    0.0000 C   0  0  0  0  0  0  0  0  0  0  0  0
    6.4461   -6.6983    0.0000 C   0  0  0  0  0  0  0  0  0  0  0  0
    7.1607   -6.2861    0.0000 O   0  0  0  0  0  0  0  0  0  0  0  0
    3.5882   -6.6970    0.0000 O   0  0  0  0  0  0  0  0  0  0  0  0
    3.5889   -5.0470    0.0000 O   0  0  0  0  0  0  0  0  0  0  0  0
    5.0178   -5.0477    0.0000 C   0  0  0  0  0  0  0  0  0  0  0  0
    4.3032   -5.4599    0.0000 C   0  0  0  0  0  0  0  0  0  0  0  0
    4.3028   -6.2849    0.0000 C   0  0  0  0  0  0  0  0  0  0  0  0
    5.0171   -6.6977    0.0000 C   0  0  0  0  0  0  0  0  0  0  0  0
    5.7321   -5.4605    0.0000 C   0  0  0  0  0  0  0  0  0  0  0  0
    5.7318   -6.2855    0.0000 C   0  0  0  0  0  0  0  0  0  0  0  0
    7.8731   -8.3451    0.0000 H   0  0  0  0  0  0  0  0  0  0  0  0
    5.7297   -9.5826    0.0000 H   0  0  0  0  0  0  0  0  0  0  0  0
    6.4442  -10.8201    0.0000 H   0  0  0  0  0  0  0  0  0  0  0  0
    6.4442  -11.6451    0.0000 O   0  0  0  0  0  0  0  0  0  0  0  0
    8.5876   -9.5826    0.0000 H   0  0  0  0  0  0  0  0  0  0  0  0
  1  2  1  0  0  0  0
  2  3  2  0  0  0  0
  3  4  1  0  0  0  0
  2  5  1  0  0  0  0
  5  6  2  0  0  0  0
  6  7  1  0  0  0  0
  7  8  2  0  0  0  0
  8  3  1  0  0  0  0
  6  9  1  0  0  0  0
  9 10  1  0  0  0  0
 10 11  1  0  0  0  0
 11 12  1  0  0  0  0
 12  7  1  0  0  0  0
  9 13  1  0  0  0  0
 13 14  1  0  0  0  0
 14 15  1  0  0  0  0
 15 16  1  0  0  0  0
 16 10  1  0  0  0  0
 14 17  1  0  0  0  0
 17 18  1  0  0  0  0
 18 19  1  0  0  0  0
 19 20  1  0  0  0  0
 20 15  1  0  0  0  0
 18 21  1  1  0  0  0
 22 23  1  0  0  0  0
 19 23  1  6  0  0  0
 30 26  1  0  0  0  0
 24 33  1  0  0  0  0
 24 25  2  0  0  0  0
 29 27  1  0  0  0  0
 28 32  1  0  0  0  0
 29 28  2  0  0  0  0
 30 29  1  0  0  0  0
 31 30  2  0  0  0  0
 33 31  1  0  0  0  0
 33 32  2  0  0  0  0
 10 34  1  6  0  0  0
  9 35  1  6  0  0  0
 14 36  1  6  0  0  0
 17 37  1  6  0  0  0
 15 38  1  1  0  0  0
 12 24  1  6  0  0  0
M  END
>  <cdx:fragmentId>
5

$$$$
