90626.cdx
  Mrv1902 05222410182D          

 27 28  0  0  0  0            999 V2000
    9.7057   -8.0156    0.0000 C   0  0  0  0  0  0  0  0  0  0  0  0
    9.6931   -7.1907    0.0000 C   0  0  0  0  0  0  0  0  0  0  0  0
    8.9724   -6.7891    0.0000 C   0  0  0  0  0  0  0  0  0  0  0  0
    8.2643   -7.2124    0.0000 C   0  0  0  0  0  0  0  0  0  0  0  0
    8.2769   -8.0373    0.0000 C   0  0  1  0  0  0  0  0  0  0  0  0
    8.9975   -8.4389    0.0000 C   0  0  0  0  0  0  0  0  0  0  0  0
    7.5436   -6.8108    0.0000 C   0  0  0  0  0  0  0  0  0  0  0  0
    6.8481   -8.0591    0.0000 C   0  0  0  0  0  0  0  0  0  0  0  0
    7.5688   -8.4606    0.0000 C   0  0  0  0  0  0  0  0  0  0  0  0
    5.4193   -8.0808    0.0000 C   0  0  0  0  0  0  0  0  0  0  0  0
    6.1400   -8.4824    0.0000 C   0  0  1  0  0  0  0  0  0  0  0  0
    6.1525   -9.3073    0.0000 O   0  0  0  0  0  0  0  0  0  0  0  0
    4.7238   -9.3291    0.0000 O   0  0  0  0  0  0  0  0  0  0  0  0
    5.4444   -9.7306    0.0000 C   0  0  2  0  0  0  0  0  0  0  0  0
    4.0157   -9.7524    0.0000 C   0  0  1  0  0  0  0  0  0  0  0  0
    4.0282  -10.5773    0.0000 C   0  0  2  0  0  0  0  0  0  0  0  0
    4.7489  -10.9789    0.0000 C   0  0  1  0  0  0  0  0  0  0  0  0
    5.4570  -10.5555    0.0000 C   0  0  1  0  0  0  0  0  0  0  0  0
    2.5805   -9.7633    0.0000 O   0  0  0  0  0  0  0  0  0  0  0  0
    3.2950   -9.3508    0.0000 C   0  0  0  0  0  0  0  0  0  0  0  0
   10.4012   -6.7673    0.0000 O   0  0  0  0  0  0  0  0  0  0  0  0
    9.4209   -9.1470    0.0000 C   0  0  0  0  0  0  0  0  0  0  0  0
    8.5960   -9.1596    0.0000 C   0  0  0  0  0  0  0  0  0  0  0  0
    7.4800   -7.8238    0.0000 O   0  0  0  0  0  0  0  0  0  0  0  0
    4.7614  -11.8038    0.0000 O   0  0  0  0  0  0  0  0  0  0  0  0
    6.1777  -10.9571    0.0000 O   0  0  0  0  0  0  0  0  0  0  0  0
    3.3201  -11.0006    0.0000 O   0  0  0  0  0  0  0  0  0  0  0  0
  1  2  1  0  0  0  0
  2  3  1  0  0  0  0
  3  4  2  0  0  0  0
  4  5  1  0  0  0  0
  5  6  1  0  0  0  0
  6  1  1  0  0  0  0
  4  7  1  0  0  0  0
  8  9  1  0  0  0  0
  9  5  1  0  0  0  0
 10 11  1  0  0  0  0
 11  8  1  0  0  0  0
 11 12  1  6  0  0  0
 13 14  1  0  0  0  0
 14 12  1  1  0  0  0
 13 15  1  0  0  0  0
 15 16  1  0  0  0  0
 16 17  1  0  0  0  0
 17 18  1  0  0  0  0
 18 14  1  0  0  0  0
 19 20  1  0  0  0  0
 15 20  1  1  0  0  0
  2 21  2  0  0  0  0
  6 22  1  0  0  0  0
  6 23  1  0  0  0  0
  5 24  1  6  0  0  0
 17 25  1  1  0  0  0
 18 26  1  6  0  0  0
 16 27  1  6  0  0  0
M  END
>  <cdx:fragmentId>
5

$$$$
