90622.cdx
  Mrv1902 05222410202D          

  9  9  0  0  0  0            999 V2000
    6.5373   -8.4975    0.0000 C   0  0  0  0  0  0  0  0  0  0  0  0
    6.7968   -9.2806    0.0000 C   0  0  0  0  0  0  0  0  0  0  0  0
    7.6218   -9.2759    0.0000 C   0  0  0  0  0  0  0  0  0  0  0  0
    7.8722   -8.4898    0.0000 C   0  0  0  0  0  0  0  0  0  0  0  0
    7.2020   -8.0087    0.0000 O   0  0  0  0  0  0  0  0  0  0  0  0
    5.7512   -8.2471    0.0000 C   0  0  0  0  0  0  0  0  0  0  0  0
    5.5377   -7.4502    0.0000 O   0  0  0  0  0  0  0  0  0  0  0  0
    6.3157   -9.9508    0.0000 O   0  0  0  0  0  0  0  0  0  0  0  0
    8.6553   -8.2303    0.0000 O   0  0  0  0  0  0  0  0  0  0  0  0
  1  2  1  0  0  0  0
  2  3  1  0  0  0  0
  3  4  1  0  0  0  0
  4  5  1  0  0  0  0
  5  1  1  0  0  0  0
  1  6  1  0  0  0  0
  6  7  1  0  0  0  0
  2  8  1  0  0  0  0
  4  9  2  0  0  0  0
M  END
>  <cdx:fragmentId>
5

$$$$
