90624.cdx
  Mrv1902 05222410192D          

 17 18  0  0  0  0            999 V2000
    4.4256   -8.0014    0.0000 C   0  0  0  0  0  0  0  0  0  0  0  0
    4.4256   -8.8264    0.0000 C   0  0  0  0  0  0  0  0  0  0  0  0
    5.1400   -9.2389    0.0000 C   0  0  0  0  0  0  0  0  0  0  0  0
    5.8545   -8.8264    0.0000 C   0  0  0  0  0  0  0  0  0  0  0  0
    5.8545   -8.0014    0.0000 C   0  0  0  0  0  0  0  0  0  0  0  0
    5.1400   -7.5889    0.0000 C   0  0  0  0  0  0  0  0  0  0  0  0
    5.1400  -10.0639    0.0000 C   0  0  0  0  0  0  0  0  0  0  0  0
    5.8545  -10.4764    0.0000 C   0  0  0  0  0  0  0  0  0  0  0  0
    6.5690  -10.0639    0.0000 C   0  0  0  0  0  0  0  0  0  0  0  0
    6.5690   -9.2389    0.0000 C   0  0  0  0  0  0  0  0  0  0  0  0
    7.3536  -10.3188    0.0000 O   0  0  0  0  0  0  0  0  0  0  0  0
    7.8385   -9.6514    0.0000 C   0  0  0  0  0  0  0  0  0  0  0  0
    7.3536   -8.9840    0.0000 C   0  0  0  0  0  0  0  0  0  0  0  0
    5.1400   -6.7639    0.0000 C   0  0  0  0  0  0  0  0  0  0  0  0
    4.4256  -10.4764    0.0000 C   0  0  0  0  0  0  0  0  0  0  0  0
    7.6085   -8.1993    0.0000 C   0  0  0  0  0  0  0  0  0  0  0  0
    8.6635   -9.6514    0.0000 O   0  0  0  0  0  0  0  0  0  0  0  0
  1  2  1  0  0  0  0
  2  3  1  0  0  0  0
  4  5  1  0  0  0  0
  5  6  1  0  0  0  0
  6  1  2  0  0  0  0
  3  7  1  0  0  0  0
  7  8  2  0  0  0  0
  8  9  1  0  0  0  0
  9 10  1  0  0  0  0
 10  4  1  0  0  0  0
  9 11  1  0  0  0  0
 11 12  1  0  0  0  0
 12 13  1  0  0  0  0
 13 10  1  0  0  0  0
  6 14  1  0  0  0  0
  7 15  1  0  0  0  0
 13 16  1  0  0  0  0
 12 17  2  0  0  0  0
M  END
>  <cdx:fragmentId>
5

$$$$
