90635.cdx
  Mrv1902 05222410192D          

 24 28  0  0  0  0            999 V2000
    9.0101  -11.4236    0.0000 C   0  0  0  0  0  0  0  0  0  0  0  0
    9.7202  -11.0035    0.0000 C   0  0  0  0  0  0  0  0  0  0  0  0
    9.7114  -10.1786    0.0000 C   0  0  0  0  0  0  0  0  0  0  0  0
    8.9926   -9.7737    0.0000 C   0  0  0  0  0  0  0  0  0  0  0  0
    8.2825  -10.1938    0.0000 C   0  0  0  0  0  0  0  0  0  0  0  0
    8.2913  -11.0187    0.0000 C   0  0  0  0  0  0  0  0  0  0  0  0
    8.9838   -8.9487    0.0000 C   0  0  0  0  0  0  0  0  0  0  0  0
    8.2650   -8.5439    0.0000 N   0  0  0  0  0  0  0  0  0  0  0  0
    7.5550   -8.9639    0.0000 C   0  0  0  0  0  0  0  0  0  0  0  0
    7.5637   -9.7889    0.0000 N   0  0  0  0  0  0  0  0  0  0  0  0
    8.2562   -7.7189    0.0000 C   0  0  0  0  0  0  0  0  0  0  0  0
    7.5374   -7.3140    0.0000 C   0  0  0  0  0  0  0  0  0  0  0  0
    6.8274   -7.7341    0.0000 C   0  0  0  0  0  0  0  0  0  0  0  0
    6.8361   -8.5590    0.0000 C   0  0  0  0  0  0  0  0  0  0  0  0
    6.1086   -7.3292    0.0000 C   0  0  0  0  0  0  0  0  0  0  0  0
    5.3985   -7.7493    0.0000 C   0  0  0  0  0  0  0  0  0  0  0  0
    5.4073   -8.5742    0.0000 C   0  0  0  0  0  0  0  0  0  0  0  0
    6.1261   -8.9791    0.0000 N   0  0  0  0  0  0  0  0  0  0  0  0
    4.6797   -7.3444    0.0000 C   0  0  0  0  0  0  0  0  0  0  0  0
    3.9697   -7.7644    0.0000 C   0  0  0  0  0  0  0  0  0  0  0  0
    3.9784   -8.5894    0.0000 C   0  0  0  0  0  0  0  0  0  0  0  0
    4.6972   -8.9943    0.0000 C   0  0  0  0  0  0  0  0  0  0  0  0
    9.6939   -8.5287    0.0000 O   0  0  0  0  0  0  0  0  0  0  0  0
    6.1349   -9.8040    0.0000 C   0  0  0  0  0  0  0  0  0  0  0  0
  1  2  2  0  0  0  0
  2  3  1  0  0  0  0
  3  4  2  0  0  0  0
  4  5  1  0  0  0  0
  5  6  2  0  0  0  0
  6  1  1  0  0  0  0
  4  7  1  0  0  0  0
  7  8  1  0  0  0  0
  8  9  1  0  0  0  0
  9 10  2  0  0  0  0
 10  5  1  0  0  0  0
  8 11  1  0  0  0  0
 11 12  2  0  0  0  0
 12 13  1  0  0  0  0
 13 14  2  0  0  0  0
 14  9  1  0  0  0  0
 13 15  1  0  0  0  0
 15 16  1  0  0  0  0
 16 17  1  0  0  0  0
 17 18  1  0  0  0  0
 18 14  1  0  0  0  0
 16 19  2  0  0  0  0
 19 20  1  0  0  0  0
 20 21  2  0  0  0  0
 21 22  1  0  0  0  0
 22 17  2  0  0  0  0
  7 23  2  0  0  0  0
 18 24  1  0  0  0  0
M  END
>  <cdx:fragmentId>
5

$$$$
