6363.cdx
  Mrv1902 05222410232D          

 13 12  0  0  0  0            999 V2000
    3.4196   -7.5900    0.0000 C   0  0  0  0  0  0  0  0  0  0  0  0
    4.1341   -7.1775    0.0000 C   0  0  0  0  0  0  0  0  0  0  0  0
    4.8486   -7.5900    0.0000 C   0  0  0  0  0  0  0  0  0  0  0  0
    5.5630   -7.1775    0.0000 C   0  0  0  0  0  0  0  0  0  0  0  0
    6.2775   -7.5900    0.0000 C   0  0  0  0  0  0  0  0  0  0  0  0
    6.9920   -7.1775    0.0000 C   0  0  0  0  0  0  0  0  0  0  0  0
    7.7065   -7.5900    0.0000 C   0  0  0  0  0  0  0  0  0  0  0  0
    8.4209   -7.1775    0.0000 C   0  0  0  0  0  0  0  0  0  0  0  0
    9.1354   -7.5900    0.0000 C   0  0  0  0  0  0  0  0  0  0  0  0
    9.8499   -7.1775    0.0000 C   0  0  0  0  0  0  0  0  0  0  0  0
   10.5643   -7.5900    0.0000 C   0  0  0  0  0  0  0  0  0  0  0  0
   11.2788   -7.1775    0.0000 C   0  0  0  0  0  0  0  0  0  0  0  0
   11.9933   -7.5900    0.0000 O   0  0  0  0  0  0  0  0  0  0  0  0
  1  2  1  0  0  0  0
  2  3  1  0  0  0  0
  3  4  1  0  0  0  0
  4  5  1  0  0  0  0
  5  6  1  0  0  0  0
  6  7  2  0  0  0  0
  7  8  1  0  0  0  0
  8  9  1  0  0  0  0
  9 10  1  0  0  0  0
 10 11  1  0  0  0  0
 11 12  1  0  0  0  0
 12 13  2  0  0  0  0
M  END
>  <cdx:fragmentId>
3

$$$$
