90632.cdx
  Mrv1902 05222410182D          

 79 90  0  0  0  0            999 V2000
   12.7285   -3.8687    0.0000 O   0  0  0  0  0  0  0  0  0  0  0  0
   12.7285   -2.2187    0.0000 O   0  0  0  0  0  0  0  0  0  0  0  0
   11.2996   -1.3937    0.0000 O   0  0  0  0  0  0  0  0  0  0  0  0
    9.1562   -3.4562    0.0000 O   0  0  0  0  0  0  0  0  0  0  0  0
    9.8706   -4.6937    0.0000 O   0  0  0  0  0  0  0  0  0  0  0  0
   10.5851   -2.6312    0.0000 C   0  0  0  0  0  0  0  0  0  0  0  0
   11.2996   -2.2187    0.0000 C   0  0  0  0  0  0  0  0  0  0  0  0
   12.0141   -2.6312    0.0000 C   0  0  0  0  0  0  0  0  0  0  0  0
   12.0141   -3.4562    0.0000 C   0  0  0  0  0  0  0  0  0  0  0  0
   11.2996   -3.8687    0.0000 C   0  0  0  0  0  0  0  0  0  0  0  0
   10.5851   -3.4562    0.0000 C   0  0  0  0  0  0  0  0  0  0  0  0
    9.8706   -3.8687    0.0000 C   0  0  0  0  0  0  0  0  0  0  0  0
    7.7272   -5.9312    0.0000 O   0  0  0  0  0  0  0  0  0  0  0  0
    6.2983   -3.4562    0.0000 C   0  0  0  0  0  0  0  0  0  0  0  0
    6.2983   -5.1062    0.0000 O   0  0  0  0  0  0  0  0  0  0  0  0
    9.1562   -5.1062    0.0000 O   0  0  0  0  0  0  0  0  0  0  0  0
    8.4417   -3.8687    0.0000 C   0  0  1  0  0  0  0  0  0  0  0  0
    8.4417   -4.6937    0.0000 C   0  0  1  0  0  0  0  0  0  0  0  0
    7.7272   -5.1062    0.0000 C   0  0  2  0  0  0  0  0  0  0  0  0
    7.0128   -4.6937    0.0000 C   0  0  1  0  0  0  0  0  0  0  0  0
    7.0128   -3.8687    0.0000 C   0  0  2  0  0  0  0  0  0  0  0  0
    7.7272   -3.4562    0.0000 O   0  0  0  0  0  0  0  0  0  0  0  0
    5.5838   -3.8687    0.0000 O   0  0  0  0  0  0  0  0  0  0  0  0
    4.8694   -3.4562    0.0000 C   0  0  0  0  0  0  0  0  0  0  0  0
    4.1549   -3.8687    0.0000 C   0  0  0  0  0  0  0  0  0  0  0  0
    4.8694   -2.6312    0.0000 O   0  0  0  0  0  0  0  0  0  0  0  0
    3.4404   -3.4562    0.0000 C   0  0  0  0  0  0  0  0  0  0  0  0
    2.7259   -3.8687    0.0000 C   0  0  0  0  0  0  0  0  0  0  0  0
    2.7259   -4.6937    0.0000 C   0  0  0  0  0  0  0  0  0  0  0  0
    3.4404   -5.1062    0.0000 C   0  0  0  0  0  0  0  0  0  0  0  0
    4.1549   -4.6937    0.0000 C   0  0  0  0  0  0  0  0  0  0  0  0
    2.0115   -3.4562    0.0000 O   0  0  0  0  0  0  0  0  0  0  0  0
    2.0115   -5.1062    0.0000 O   0  0  0  0  0  0  0  0  0  0  0  0
    7.7316   -6.7562    0.0000 C   0  0  0  0  0  0  0  0  0  0  0  0
    7.0194   -7.1725    0.0000 C   0  0  0  0  0  0  0  0  0  0  0  0
    8.4483   -7.1649    0.0000 O   0  0  0  0  0  0  0  0  0  0  0  0
    6.3008   -6.7671    0.0000 C   0  0  0  0  0  0  0  0  0  0  0  0
    5.5849   -7.1769    0.0000 C   0  0  0  0  0  0  0  0  0  0  0  0
    5.5875   -7.9921    0.0000 C   0  0  0  0  0  0  0  0  0  0  0  0
    6.2892   -8.4072    0.0000 C   0  0  0  0  0  0  0  0  0  0  0  0
    7.0051   -7.9973    0.0000 C   0  0  0  0  0  0  0  0  0  0  0  0
    4.8705   -6.7642    0.0000 O   0  0  0  0  0  0  0  0  0  0  0  0
    4.8715   -8.4020    0.0000 O   0  0  0  0  0  0  0  0  0  0  0  0
    6.2833   -9.2321    0.0000 O   0  0  0  0  0  0  0  0  0  0  0  0
    3.4404   -5.9312    0.0000 O   0  0  0  0  0  0  0  0  0  0  0  0
    9.1562   -5.9312    0.0000 C   0  0  0  0  0  0  0  0  0  0  0  0
    9.9812   -5.9312    0.0000 O   0  0  0  0  0  0  0  0  0  0  0  0
    3.3275   -7.3150    0.0000 C   0  0  0  0  0  0  0  0  0  0  0  0
    2.5025   -7.3150    0.0000 O   0  0  0  0  0  0  0  0  0  0  0  0
    7.8262   -9.5781    0.0000 C   0  0  0  0  0  0  0  0  0  0  0  0
    7.9085  -10.3990    0.0000 C   0  0  0  0  0  0  0  0  0  0  0  0
    8.6605  -10.7382    0.0000 C   0  0  0  0  0  0  0  0  0  0  0  0
    9.3303  -10.2566    0.0000 C   0  0  0  0  0  0  0  0  0  0  0  0
    9.2481   -9.4357    0.0000 C   0  0  0  0  0  0  0  0  0  0  0  0
    8.4960   -9.0964    0.0000 C   0  0  0  0  0  0  0  0  0  0  0  0
   10.0823  -10.5958    0.0000 O   0  0  0  0  0  0  0  0  0  0  0  0
    9.9179   -8.9540    0.0000 O   0  0  0  0  0  0  0  0  0  0  0  0
    7.3534  -11.0094    0.0000 C   0  0  0  0  0  0  0  0  0  0  0  0
    7.7624  -11.7258    0.0000 C   0  0  0  0  0  0  0  0  0  0  0  0
    8.5702  -11.5583    0.0000 O   0  0  0  0  0  0  0  0  0  0  0  0
    6.5284  -11.0053    0.0000 C   0  0  0  0  0  0  0  0  0  0  0  0
    6.1125  -11.7178    0.0000 C   0  0  0  0  0  0  0  0  0  0  0  0
    6.5215  -12.4343    0.0000 O   0  0  0  0  0  0  0  0  0  0  0  0
    7.3465  -12.4383    0.0000 C   0  0  0  0  0  0  0  0  0  0  0  0
    7.8282  -13.1080    0.0000 O   0  0  0  0  0  0  0  0  0  0  0  0
    8.3632  -12.2913    0.0000 O   0  0  0  0  0  0  0  0  0  0  0  0
    5.6309  -11.0479    0.0000 C   0  0  0  0  0  0  0  0  0  0  0  0
    4.8450  -11.2990    0.0000 C   0  0  0  0  0  0  0  0  0  0  0  0
    4.8409  -12.1240    0.0000 O   0  0  0  0  0  0  0  0  0  0  0  0
    5.6245  -12.3826    0.0000 C   0  0  0  0  0  0  0  0  0  0  0  0
    5.6350  -10.2229    0.0000 O   0  0  0  0  0  0  0  0  0  0  0  0
    4.8513   -9.9643    0.0000 C   0  0  0  0  0  0  0  0  0  0  0  0
    4.3632  -10.6293    0.0000 C   0  0  0  0  0  0  0  0  0  0  0  0
    5.8757  -13.1684    0.0000 O   0  0  0  0  0  0  0  0  0  0  0  0
    3.5382  -10.6253    0.0000 O   0  0  0  0  0  0  0  0  0  0  0  0
    5.4173  -11.8448    0.0000 O   0  0  0  0  0  0  0  0  0  0  0  0
    7.3634  -11.3105    0.0000 C   0  0  0  0  0  0  0  0  0  0  0  0
    7.2373  -11.8416    0.0000 C   0  0  0  0  0  0  0  0  0  0  0  0
    6.4231  -11.7087    0.0000 O   0  0  0  0  0  0  0  0  0  0  0  0
 17  4  1  1  0  0  0
  9  1  1  0  0  0  0
  8  2  1  0  0  0  0
  7  3  1  0  0  0  0
 12  4  1  0  0  0  0
 12  5  2  0  0  0  0
 11  6  2  0  0  0  0
  7  6  1  0  0  0  0
  8  7  2  0  0  0  0
  9  8  1  0  0  0  0
 10  9  2  0  0  0  0
 11 10  1  0  0  0  0
 12 11  1  0  0  0  0
 19 13  1  1  0  0  0
 21 14  1  1  0  0  0
 20 15  1  6  0  0  0
 18 16  1  6  0  0  0
 22 17  1  0  0  0  0
 18 17  1  0  0  0  0
 19 18  1  0  0  0  0
 20 19  1  0  0  0  0
 21 20  1  0  0  0  0
 22 21  1  0  0  0  0
 14 23  1  0  0  0  0
 23 24  1  0  0  0  0
 24 25  1  0  0  0  0
 24 26  2  0  0  0  0
 25 27  2  0  0  0  0
 27 28  1  0  0  0  0
 28 29  2  0  0  0  0
 29 30  1  0  0  0  0
 30 31  2  0  0  0  0
 31 25  1  0  0  0  0
 28 32  1  0  0  0  0
 29 33  1  0  0  0  0
 13 34  1  0  0  0  0
 34 35  1  0  0  0  0
 34 36  2  0  0  0  0
 35 37  2  0  0  0  0
 37 38  1  0  0  0  0
 38 39  2  0  0  0  0
 39 40  1  0  0  0  0
 40 41  2  0  0  0  0
 41 35  1  0  0  0  0
 38 42  1  0  0  0  0
 39 43  1  0  0  0  0
 40 44  1  0  0  0  0
 30 45  1  0  0  0  0
 16 46  1  0  0  0  0
 46 47  2  0  0  0  0
 15 48  1  0  0  0  0
 48 49  2  0  0  0  0
 50 51  2  0  0  0  0
 51 52  1  0  0  0  0
 52 53  2  0  0  0  0
 53 54  1  0  0  0  0
 54 55  2  0  0  0  0
 55 50  1  0  0  0  0
 53 56  1  0  0  0  0
 54 57  1  0  0  0  0
 37 31  1  0  0  0  0
 51 58  1  0  0  0  0
 58 59  1  0  0  0  0
 59 60  1  0  0  0  0
 60 52  1  0  0  0  0
 58 61  1  0  0  0  0
 61 62  1  0  0  0  0
 62 63  1  0  0  0  0
 63 64  1  0  0  0  0
 64 59  1  0  0  0  0
 64 65  1  0  0  0  0
 59 66  1  0  0  0  0
 62 67  1  0  0  0  0
 67 68  1  0  0  0  0
 68 69  1  0  0  0  0
 69 70  1  0  0  0  0
 70 62  1  0  0  0  0
 67 71  1  0  0  0  0
 71 72  1  0  0  0  0
 72 73  1  0  0  0  0
 73 68  1  0  0  0  0
 70 74  2  0  0  0  0
 73 75  1  0  0  0  0
 67 76  1  0  0  0  0
 61 77  1  0  0  0  0
 77 78  1  0  0  0  0
 64 78  1  0  0  0  0
 78 79  2  0  0  0  0
 48 61  1  0  0  0  0
 46 50  1  0  0  0  0
M  END
>  <cdx:fragmentId>
1231

$$$$
