90637.cdx
  Mrv1902 05222410202D          

 78 85  0  0  0  0            999 V2000
    5.7456   -5.9526    0.0000 C   0  0  0  0  0  0  0  0  0  0  0  0
    5.7456   -6.7776    0.0000 C   0  0  1  0  0  0  0  0  0  0  0  0
    6.4600   -7.1901    0.0000 C   0  0  1  0  0  0  0  0  0  0  0  0
    7.1745   -6.7776    0.0000 C   0  0  1  0  0  0  0  0  0  0  0  0
    7.1745   -5.9526    0.0000 C   0  0  0  0  0  0  0  0  0  0  0  0
    6.4600   -5.5401    0.0000 C   0  0  0  0  0  0  0  0  0  0  0  0
    5.0311   -5.5401    0.0000 C   0  0  0  0  0  0  0  0  0  0  0  0
    4.3166   -5.9526    0.0000 C   0  0  2  0  0  0  0  0  0  0  0  0
    4.3166   -6.7776    0.0000 C   0  0  0  0  0  0  0  0  0  0  0  0
    5.0311   -7.1901    0.0000 C   0  0  0  0  0  0  0  0  0  0  0  0
    3.6021   -5.5401    0.0000 O   0  0  0  0  0  0  0  0  0  0  0  0
    2.8877   -5.9526    0.0000 C   0  0  0  0  0  0  0  0  0  0  0  0
    2.8877   -6.7776    0.0000 O   0  0  0  0  0  0  0  0  0  0  0  0
    2.1732   -5.5401    0.0000 C   0  0  1  0  0  0  0  0  0  0  0  0
    1.4587   -5.9526    0.0000 C   0  0  2  0  0  0  0  0  0  0  0  0
    1.4587   -6.7776    0.0000 C   0  0  1  0  0  0  0  0  0  0  0  0
    2.1732   -7.1901    0.0000 C   0  0  1  0  0  0  0  0  0  0  0  0
    0.7443   -7.1901    0.0000 O   0  0  0  0  0  0  0  0  0  0  0  0
    1.4587   -8.4276    0.0000 O   0  0  0  0  0  0  0  0  0  0  0  0
    2.1732   -8.0151    0.0000 C   0  0  0  0  0  0  0  0  0  0  0  0
    6.4600   -8.0151    0.0000 C   0  0  1  0  0  0  0  0  0  0  0  0
    7.1745   -8.4276    0.0000 C   0  0  0  0  0  0  0  0  0  0  0  0
    7.8890   -8.0151    0.0000 C   0  0  1  0  0  0  0  0  0  0  0  0
    7.8890   -7.1901    0.0000 C   0  0  1  0  0  0  0  0  0  0  0  0
    8.6736   -8.2701    0.0000 C   0  0  0  0  0  0  0  0  0  0  0  0
    9.1585   -7.6026    0.0000 C   0  0  0  0  0  0  0  0  0  0  0  0
    8.6736   -6.9352    0.0000 C   0  0  0  0  0  0  0  0  0  0  0  0
    8.9285   -9.0547    0.0000 C   0  0  2  0  0  0  0  0  0  0  0  0
    8.3765   -9.6678    0.0000 C   0  0  0  0  0  0  0  0  0  0  0  0
    9.9904  -10.0109    0.0000 C   0  0  0  0  0  0  0  0  0  0  0  0
    9.7355   -9.2262    0.0000 C   0  0  0  0  0  0  0  0  0  0  0  0
   10.7974  -10.1824    0.0000 C   0  0  2  0  0  0  0  0  0  0  0  0
   11.3494   -9.5693    0.0000 C   0  0  0  0  0  0  0  0  0  0  0  0
    9.6933  -11.4086    0.0000 O   0  0  0  0  0  0  0  0  0  0  0  0
   10.5003  -11.5801    0.0000 C   0  0  0  0  0  0  0  0  0  0  0  0
   11.0523  -10.9670    0.0000 O   0  0  0  0  0  0  0  0  0  0  0  0
    9.1413  -12.0217    0.0000 C   0  0  1  0  0  0  0  0  0  0  0  0
    9.3963  -12.8063    0.0000 C   0  0  1  0  0  0  0  0  0  0  0  0
   10.2032  -12.9778    0.0000 C   0  0  1  0  0  0  0  0  0  0  0  0
   10.7553  -12.3647    0.0000 C   0  0  1  0  0  0  0  0  0  0  0  0
   10.4582  -13.7624    0.0000 O   0  0  0  0  0  0  0  0  0  0  0  0
   11.2651  -13.9340    0.0000 O   0  0  0  0  0  0  0  0  0  0  0  0
   11.8172  -13.3209    0.0000 C   0  0  0  0  0  0  0  0  0  0  0  0
   11.5622  -12.5363    0.0000 O   0  0  0  0  0  0  0  0  0  0  0  0
   11.5201  -14.7186    0.0000 C   0  0  1  0  0  0  0  0  0  0  0  0
   12.3270  -14.8901    0.0000 C   0  0  2  0  0  0  0  0  0  0  0  0
   12.8791  -14.2770    0.0000 C   0  0  1  0  0  0  0  0  0  0  0  0
   12.6241  -13.4924    0.0000 C   0  0  1  0  0  0  0  0  0  0  0  0
   10.9680  -15.3317    0.0000 C   0  0  0  0  0  0  0  0  0  0  0  0
    8.3343  -11.8501    0.0000 C   0  0  0  0  0  0  0  0  0  0  0  0
    7.7823  -12.4632    0.0000 O   0  0  0  0  0  0  0  0  0  0  0  0
    8.8442  -13.4194    0.0000 O   0  0  0  0  0  0  0  0  0  0  0  0
    7.2724  -10.8940    0.0000 O   0  0  0  0  0  0  0  0  0  0  0  0
    6.7204  -11.5071    0.0000 C   0  0  1  0  0  0  0  0  0  0  0  0
    6.9753  -12.2917    0.0000 C   0  0  0  0  0  0  0  0  0  0  0  0
    5.9134  -11.3356    0.0000 C   0  0  2  0  0  0  0  0  0  0  0  0
    5.3614  -11.9487    0.0000 C   0  0  1  0  0  0  0  0  0  0  0  0
    5.6163  -12.7333    0.0000 C   0  0  2  0  0  0  0  0  0  0  0  0
    6.4233  -12.9048    0.0000 O   0  0  0  0  0  0  0  0  0  0  0  0
    4.5544  -11.7771    0.0000 O   0  0  0  0  0  0  0  0  0  0  0  0
    4.2573  -13.1748    0.0000 O   0  0  0  0  0  0  0  0  0  0  0  0
    5.0643  -13.3464    0.0000 C   0  0  0  0  0  0  0  0  0  0  0  0
    4.6186   -4.8257    0.0000 C   0  0  0  0  0  0  0  0  0  0  0  0
    5.4436   -4.8257    0.0000 C   0  0  0  0  0  0  0  0  0  0  0  0
   11.9328   -8.9859    0.0000 O   0  0  0  0  0  0  0  0  0  0  0  0
   10.7510   -9.0014    0.0000 C   0  0  0  0  0  0  0  0  0  0  0  0
   11.9479  -10.1372    0.0000 C   0  0  0  0  0  0  0  0  0  0  0  0
   10.1712  -15.1182    0.0000 O   0  0  0  0  0  0  0  0  0  0  0  0
    0.7443   -5.5401    0.0000 O   0  0  0  0  0  0  0  0  0  0  0  0
    5.7456   -7.6026    0.0000 C   0  0  0  0  0  0  0  0  0  0  0  0
    7.9752   -8.8356    0.0000 C   0  0  0  0  0  0  0  0  0  0  0  0
   13.1762  -12.8793    0.0000 O   0  0  0  0  0  0  0  0  0  0  0  0
   12.5820  -15.6747    0.0000 O   0  0  0  0  0  0  0  0  0  0  0  0
    5.6585  -10.5509    0.0000 O   0  0  0  0  0  0  0  0  0  0  0  0
    2.1732   -4.7151    0.0000 O   0  0  0  0  0  0  0  0  0  0  0  0
    5.7456   -8.4276    0.0000 O   0  0  0  0  0  0  0  0  0  0  0  0
    7.9752   -6.3697    0.0000 C   0  0  0  0  0  0  0  0  0  0  0  0
   13.6860  -14.4485    0.0000 O   0  0  0  0  0  0  0  0  0  0  0  0
  1  2  1  0  0  0  0
  2  3  1  0  0  0  0
  3  4  1  0  0  0  0
  4  5  1  1  0  0  0
  5  6  1  0  0  0  0
  6  1  2  0  0  0  0
  1  7  1  0  0  0  0
  7  8  1  0  0  0  0
  8  9  1  0  0  0  0
  9 10  1  0  0  0  0
  2 10  1  1  0  0  0
  8 11  1  6  0  0  0
 11 12  1  0  0  0  0
 12 13  1  0  0  0  0
 12 14  1  0  0  0  0
 14 15  1  0  0  0  0
 15 16  1  0  0  0  0
 16 17  1  0  0  0  0
 17 13  1  0  0  0  0
 16 18  1  1  0  0  0
 19 20  1  0  0  0  0
 17 20  1  6  0  0  0
  3 21  1  0  0  0  0
 21 22  1  0  0  0  0
 22 23  1  0  0  0  0
 23 24  1  0  0  0  0
 24  4  1  0  0  0  0
 23 25  1  0  0  0  0
 25 26  1  0  0  0  0
 26 27  1  0  0  0  0
 27 24  1  0  0  0  0
 25 28  1  0  0  0  0
 28 29  1  1  0  0  0
 30 31  1  0  0  0  0
 31 28  1  0  0  0  0
 30 32  1  0  0  0  0
 32 33  1  0  0  0  0
 34 35  1  0  0  0  0
 35 36  1  0  0  0  0
 32 36  1  6  0  0  0
 34 37  1  0  0  0  0
 37 38  1  0  0  0  0
 38 39  1  0  0  0  0
 39 40  1  0  0  0  0
 40 35  1  0  0  0  0
 39 41  1  1  0  0  0
 42 43  1  0  0  0  0
 43 44  1  0  0  0  0
 40 44  1  6  0  0  0
 42 45  1  0  0  0  0
 45 46  1  0  0  0  0
 46 47  1  0  0  0  0
 47 48  1  0  0  0  0
 48 43  1  0  0  0  0
 45 49  1  1  0  0  0
 37 50  1  1  0  0  0
 50 51  1  0  0  0  0
 38 52  1  1  0  0  0
 54 53  1  1  0  0  0
 54 55  1  0  0  0  0
 55 51  1  0  0  0  0
 54 56  1  0  0  0  0
 56 57  1  0  0  0  0
 57 58  1  0  0  0  0
 58 59  1  0  0  0  0
 59 55  1  0  0  0  0
 57 60  1  1  0  0  0
 61 62  1  0  0  0  0
 58 62  1  6  0  0  0
  7 63  1  0  0  0  0
  7 64  1  0  0  0  0
 33 65  1  0  0  0  0
 33 66  1  0  0  0  0
 33 67  1  0  0  0  0
 49 68  1  0  0  0  0
 15 69  1  6  0  0  0
  3 70  1  6  0  0  0
 23 71  1  6  0  0  0
 48 72  1  6  0  0  0
 46 73  1  6  0  0  0
 56 74  1  6  0  0  0
 14 75  1  1  0  0  0
 21 76  1  1  0  0  0
 24 77  1  1  0  0  0
 47 78  1  1  0  0  0
M  END
>  <cdx:fragmentId>
5

$$$$
