90638.cdx
  Mrv1902 05222410272D          

 27 29  0  0  0  0            999 V2000
    7.1956   -8.0924    0.0000 C   0  0  0  0  0  0  0  0  0  0  0  0
    6.4812   -7.6799    0.0000 C   0  0  0  0  0  0  0  0  0  0  0  0
    6.4812   -6.8549    0.0000 C   0  0  0  0  0  0  0  0  0  0  0  0
    5.7667   -6.4424    0.0000 C   0  0  0  0  0  0  0  0  0  0  0  0
    5.0522   -6.8549    0.0000 C   0  0  0  0  0  0  0  0  0  0  0  0
    5.0522   -7.6799    0.0000 C   0  0  0  0  0  0  0  0  0  0  0  0
    5.7667   -8.0924    0.0000 C   0  0  0  0  0  0  0  0  0  0  0  0
    7.1956   -8.9174    0.0000 C   0  0  0  0  0  0  0  0  0  0  0  0
    7.9101   -9.3299    0.0000 C   0  0  0  0  0  0  0  0  0  0  0  0
    8.6246   -8.9174    0.0000 C   0  0  0  0  0  0  0  0  0  0  0  0
    9.3391   -9.3299    0.0000 C   0  0  0  0  0  0  0  0  0  0  0  0
    9.3391  -10.1549    0.0000 C   0  0  0  0  0  0  0  0  0  0  0  0
    8.6246  -10.5674    0.0000 C   0  0  0  0  0  0  0  0  0  0  0  0
    7.9101  -10.1549    0.0000 C   0  0  0  0  0  0  0  0  0  0  0  0
    7.1956   -6.4424    0.0000 C   0  0  0  0  0  0  0  0  0  0  0  0
    7.9101   -6.8549    0.0000 C   0  0  0  0  0  0  0  0  0  0  0  0
    8.6246   -6.4424    0.0000 C   0  0  0  0  0  0  0  0  0  0  0  0
    9.3391   -6.8549    0.0000 C   0  0  0  0  0  0  0  0  0  0  0  0
    9.3391   -7.6799    0.0000 C   0  0  0  0  0  0  0  0  0  0  0  0
    8.6246   -8.0924    0.0000 C   0  0  0  0  0  0  0  0  0  0  0  0
    7.9101   -7.6799    0.0000 C   0  0  0  0  0  0  0  0  0  0  0  0
   10.0535   -8.0924    0.0000 O   0  0  0  0  0  0  0  0  0  0  0  0
    5.7667   -5.6174    0.0000 O   0  0  0  0  0  0  0  0  0  0  0  0
    4.3378   -8.0924    0.0000 O   0  0  0  0  0  0  0  0  0  0  0  0
    3.6233   -7.6799    0.0000 C   0  0  0  0  0  0  0  0  0  0  0  0
   10.0535   -8.9174    0.0000 O   0  0  0  0  0  0  0  0  0  0  0  0
   10.7680   -9.3299    0.0000 C   0  0  0  0  0  0  0  0  0  0  0  0
  1  2  1  0  0  0  0
  2  3  1  0  0  0  0
  3  4  2  0  0  0  0
  4  5  1  0  0  0  0
  5  6  2  0  0  0  0
  6  7  1  0  0  0  0
  2  7  2  0  0  0  0
  8  9  1  0  0  0  0
  9 10  1  0  0  0  0
 10 11  2  0  0  0  0
 11 12  1  0  0  0  0
 12 13  2  0  0  0  0
 13 14  1  0  0  0  0
  9 14  2  0  0  0  0
  1  8  1  0  0  0  0
 15 16  1  0  0  0  0
 16 17  1  0  0  0  0
 17 18  2  0  0  0  0
 18 19  1  0  0  0  0
 19 20  2  0  0  0  0
 20 21  1  0  0  0  0
 16 21  2  0  0  0  0
 19 22  1  0  0  0  0
  3 15  1  0  0  0  0
  4 23  1  0  0  0  0
 24 25  1  0  0  0  0
  6 24  1  0  0  0  0
 26 27  1  0  0  0  0
 11 26  1  0  0  0  0
M  END
>  <cdx:fragmentId>
19

$$$$
