90630.cdx
  Mrv1902 05222410192D          

 48 53  0  0  0  0            999 V2000
    5.1143   -9.5805    0.0000 H   0  0  0  0  0  0  0  0  0  0  0  0
    7.2375   -6.6720    0.0000 C   0  0  0  0  0  0  0  0  0  0  0  0
    7.9478   -6.2524    0.0000 C   0  0  0  0  0  0  0  0  0  0  0  0
    8.6664   -6.6578    0.0000 C   0  0  0  0  0  0  0  0  0  0  0  0
    8.6745   -7.4828    0.0000 C   0  0  0  0  0  0  0  0  0  0  0  0
    7.9641   -7.9023    0.0000 C   0  0  2  0  0  0  0  0  0  0  0  0
    7.9723   -8.7273    0.0000 C   0  0  1  0  0  0  0  0  0  0  0  0
    7.2619   -9.1468    0.0000 C   0  0  0  0  0  0  0  0  0  0  0  0
    6.5434   -8.7414    0.0000 C   0  0  1  0  0  0  0  0  0  0  0  0
    5.8330   -9.1609    0.0000 C   0  0  2  0  0  0  0  0  0  0  0  0
    5.8412   -9.9859    0.0000 C   0  0  0  0  0  0  0  0  0  0  0  0
    5.1308  -10.4054    0.0000 C   0  0  0  0  0  0  0  0  0  0  0  0
    4.4123  -10.0000    0.0000 C   0  0  1  0  0  0  0  0  0  0  0  0
    3.7020  -10.4195    0.0000 C   0  0  0  0  0  0  0  0  0  0  0  0
    2.9834  -10.0141    0.0000 C   0  0  2  0  0  0  0  0  0  0  0  0
    2.9753   -9.1892    0.0000 C   0  0  0  0  0  0  0  0  0  0  0  0
    3.6857   -8.7696    0.0000 C   0  0  0  0  0  0  0  0  0  0  0  0
    4.4042   -9.1751    0.0000 C   0  0  2  0  0  0  0  0  0  0  0  0
    5.1145   -8.7555    0.0000 C   0  0  1  0  0  0  0  0  0  0  0  0
    5.1064   -7.9306    0.0000 C   0  0  0  0  0  0  0  0  0  0  0  0
    5.8168   -7.5110    0.0000 C   0  0  0  0  0  0  0  0  0  0  0  0
    6.5353   -7.9164    0.0000 C   0  0  0  0  0  0  0  0  0  0  0  0
    7.2456   -7.4969    0.0000 C   0  0  2  0  0  0  0  0  0  0  0  0
    8.7013   -8.3448    0.0000 C   0  0  0  0  0  0  0  0  0  0  0  0
    8.7094   -9.1697    0.0000 O   0  0  0  0  0  0  0  0  0  0  0  0
    9.4116   -7.9252    0.0000 O   0  0  0  0  0  0  0  0  0  0  0  0
    4.3960   -8.3501    0.0000 C   0  0  0  0  0  0  0  0  0  0  0  0
    4.1215  -11.1299    0.0000 C   0  0  0  0  0  0  0  0  0  0  0  0
    3.2965  -11.1381    0.0000 C   0  0  0  0  0  0  0  0  0  0  0  0
    7.5283   -5.5421    0.0000 C   0  0  0  0  0  0  0  0  0  0  0  0
    8.3533   -5.5339    0.0000 C   0  0  0  0  0  0  0  0  0  0  0  0
    2.2731  -10.4337    0.0000 O   0  0  0  0  0  0  0  0  0  0  0  0
    4.4205  -10.8250    0.0000 H   0  0  0  0  0  0  0  0  0  0  0  0
    5.8330   -8.3359    0.0000 C   0  0  0  0  0  0  0  0  0  0  0  0
    6.5434   -9.5664    0.0000 C   0  0  0  0  0  0  0  0  0  0  0  0
    7.2456   -8.3219    0.0000 H   0  0  0  0  0  0  0  0  0  0  0  0
    7.9723   -9.5523    0.0000 O   0  0  0  0  0  0  0  0  0  0  0  0
   10.1301   -8.3307    0.0000 C   0  0  2  0  0  0  0  0  0  0  0  0
   10.1424   -9.1556    0.0000 O   0  0  0  0  0  0  0  0  0  0  0  0
   10.8629   -9.5574    0.0000 C   0  0  1  0  0  0  0  0  0  0  0  0
   11.5712   -9.1556    0.0000 C   0  0  2  0  0  0  0  0  0  0  0  0
   11.5712   -8.3307    0.0000 C   0  0  1  0  0  0  0  0  0  0  0  0
   10.8629   -7.9288    0.0000 C   0  0  1  0  0  0  0  0  0  0  0  0
   10.8659  -10.3824    0.0000 C   0  0  0  0  0  0  0  0  0  0  0  0
   12.2841   -7.9155    0.0000 O   0  0  0  0  0  0  0  0  0  0  0  0
   12.2841   -9.5708    0.0000 O   0  0  0  0  0  0  0  0  0  0  0  0
   10.8689   -7.1038    0.0000 O   0  0  0  0  0  0  0  0  0  0  0  0
   11.5819  -10.7923    0.0000 O   0  0  0  0  0  0  0  0  0  0  0  0
 19  1  1  6  0  0  0
  2  3  1  0  0  0  0
  3  4  1  0  0  0  0
  4  5  1  0  0  0  0
  5  6  1  0  0  0  0
  6  7  1  0  0  0  0
  7  8  1  0  0  0  0
  8  9  1  0  0  0  0
  9 10  1  0  0  0  0
 10 11  1  0  0  0  0
 11 12  1  0  0  0  0
 12 13  1  0  0  0  0
 13 14  1  0  0  0  0
 14 15  1  0  0  0  0
 15 16  1  0  0  0  0
 16 17  1  0  0  0  0
 17 18  1  0  0  0  0
 13 18  1  0  0  0  0
 18 19  1  0  0  0  0
 10 19  1  0  0  0  0
 19 20  1  0  0  0  0
 20 21  1  0  0  0  0
 21 22  2  0  0  0  0
  9 22  1  0  0  0  0
 22 23  1  0  0  0  0
  6 23  1  0  0  0  0
  2 23  1  0  0  0  0
 24 25  2  0  0  0  0
 24 26  1  0  0  0  0
  6 24  1  1  0  0  0
 18 27  1  1  0  0  0
 14 28  1  0  0  0  0
 14 29  1  0  0  0  0
  3 30  1  0  0  0  0
  3 31  1  0  0  0  0
 15 32  1  1  0  0  0
 13 33  1  6  0  0  0
 10 34  1  1  0  0  0
  9 35  1  6  0  0  0
 23 36  1  1  0  0  0
  7 37  1  6  0  0  0
 38 26  1  1  0  0  0
 38 39  1  0  0  0  0
 39 40  1  0  0  0  0
 40 41  1  0  0  0  0
 41 42  1  0  0  0  0
 42 43  1  0  0  0  0
 43 38  1  0  0  0  0
 40 44  1  1  0  0  0
 42 45  1  1  0  0  0
 41 46  1  6  0  0  0
 43 47  1  6  0  0  0
 44 48  1  0  0  0  0
M  END
>  <cdx:fragmentId>
5

$$$$
