90631.cdx
  Mrv1902 05222410192D          

 24 23  0  0  0  0            999 V2000
   18.0131   -9.0675    0.0000 C   0  0  0  0  0  0  0  0  0  0  0  0
   17.2972   -9.4770    0.0000 C   0  0  0  0  0  0  0  0  0  0  0  0
   16.5846   -9.0617    0.0000 C   0  0  0  0  0  0  0  0  0  0  0  0
   15.8687   -9.4712    0.0000 C   0  0  0  0  0  0  0  0  0  0  0  0
   15.1561   -9.0560    0.0000 C   0  0  0  0  0  0  0  0  0  0  0  0
   14.4402   -9.4655    0.0000 C   0  0  0  0  0  0  0  0  0  0  0  0
   13.7276   -9.0503    0.0000 C   0  0  0  0  0  0  0  0  0  0  0  0
   13.0117   -9.4598    0.0000 C   0  0  0  0  0  0  0  0  0  0  0  0
   12.2992   -9.0446    0.0000 C   0  0  0  0  0  0  0  0  0  0  0  0
   11.5833   -9.4541    0.0000 C   0  0  0  0  0  0  0  0  0  0  0  0
   10.8707   -9.0388    0.0000 C   0  0  0  0  0  0  0  0  0  0  0  0
   10.1548   -9.4483    0.0000 C   0  0  0  0  0  0  0  0  0  0  0  0
    9.4422   -9.0331    0.0000 C   0  0  0  0  0  0  0  0  0  0  0  0
    8.7263   -9.4426    0.0000 C   0  0  0  0  0  0  0  0  0  0  0  0
    8.0137   -9.0274    0.0000 C   0  0  0  0  0  0  0  0  0  0  0  0
    7.2978   -9.4369    0.0000 C   0  0  0  0  0  0  0  0  0  0  0  0
    6.5852   -9.0216    0.0000 C   0  0  0  0  0  0  0  0  0  0  0  0
    5.8693   -9.4311    0.0000 C   0  0  0  0  0  0  0  0  0  0  0  0
    5.1568   -9.0159    0.0000 C   0  0  0  0  0  0  0  0  0  0  0  0
    4.4409   -9.4254    0.0000 C   0  0  0  0  0  0  0  0  0  0  0  0
    3.7283   -9.0102    0.0000 O   0  0  0  0  0  0  0  0  0  0  0  0
    3.0124   -9.4197    0.0000 C   0  0  0  0  0  0  0  0  0  0  0  0
    2.2998   -9.0045    0.0000 C   0  0  0  0  0  0  0  0  0  0  0  0
    4.4376  -10.2501    0.0000 O   0  0  0  0  0  0  0  0  0  0  0  0
  2  1  1  0  0  0  0
  3  2  1  0  0  0  0
  4  3  1  0  0  0  0
  5  4  1  0  0  0  0
  6  5  1  0  0  0  0
  7  6  1  0  0  0  0
  8  7  1  0  0  0  0
  9  8  1  0  0  0  0
 10  9  1  0  0  0  0
 11 10  1  0  0  0  0
 12 11  1  0  0  0  0
 13 12  1  0  0  0  0
 14 13  1  0  0  0  0
 15 14  1  0  0  0  0
 16 15  1  0  0  0  0
 17 16  1  0  0  0  0
 18 17  1  0  0  0  0
 19 18  1  0  0  0  0
 20 19  1  0  0  0  0
 21 20  1  0  0  0  0
 22 21  1  0  0  0  0
 23 22  1  0  0  0  0
 20 24  2  0  0  0  0
M  END
>  <cdx:fragmentId>
3

$$$$
