90642.cdx
  Mrv1902 05222410222D          

 21 20  0  0  0  0            999 V2000
   14.0537   -9.5001    0.0000 C   0  0  0  0  0  0  0  0  0  0  0  0
   13.3393   -9.0876    0.0000 C   0  0  0  0  0  0  0  0  0  0  0  0
   12.6248   -9.5001    0.0000 C   0  0  0  0  0  0  0  0  0  0  0  0
   11.9103   -9.0876    0.0000 C   0  0  0  0  0  0  0  0  0  0  0  0
   11.1958   -9.5001    0.0000 C   0  0  0  0  0  0  0  0  0  0  0  0
   10.4814   -9.0876    0.0000 C   0  0  0  0  0  0  0  0  0  0  0  0
    9.7669   -9.5001    0.0000 C   0  0  0  0  0  0  0  0  0  0  0  0
    9.0524   -9.0876    0.0000 C   0  0  0  0  0  0  0  0  0  0  0  0
    8.3380   -9.5001    0.0000 C   0  0  0  0  0  0  0  0  0  0  0  0
    7.6235   -9.0876    0.0000 C   0  0  0  0  0  0  0  0  0  0  0  0
    6.9090   -9.5001    0.0000 C   0  0  0  0  0  0  0  0  0  0  0  0
    6.1945   -9.0876    0.0000 C   0  0  0  0  0  0  0  0  0  0  0  0
    5.4801   -9.5001    0.0000 C   0  0  0  0  0  0  0  0  0  0  0  0
    4.7656   -9.0876    0.0000 C   0  0  0  0  0  0  0  0  0  0  0  0
    4.0511   -9.5001    0.0000 C   0  0  0  0  0  0  0  0  0  0  0  0
    3.3367   -9.0876    0.0000 C   0  0  0  0  0  0  0  0  0  0  0  0
    2.6222   -9.5001    0.0000 C   0  0  0  0  0  0  0  0  0  0  0  0
    1.9077   -9.0876    0.0000 O   0  0  0  0  0  0  0  0  0  0  0  0
    1.1932   -9.5001    0.0000 C   0  0  0  0  0  0  0  0  0  0  0  0
    0.4788   -9.0876    0.0000 C   0  0  0  0  0  0  0  0  0  0  0  0
    2.6222  -10.3251    0.0000 O   0  0  0  0  0  0  0  0  0  0  0  0
  2  1  1  0  0  0  0
  3  2  1  0  0  0  0
  4  3  1  0  0  0  0
  5  4  1  0  0  0  0
  6  5  1  0  0  0  0
  7  6  1  0  0  0  0
  8  7  1  0  0  0  0
  9  8  1  0  0  0  0
 10  9  1  0  0  0  0
 11 10  1  0  0  0  0
 12 11  1  0  0  0  0
 13 12  1  0  0  0  0
 14 13  1  0  0  0  0
 15 14  1  0  0  0  0
 16 15  1  0  0  0  0
 17 16  1  0  0  0  0
 18 17  1  0  0  0  0
 19 18  1  0  0  0  0
 20 19  1  0  0  0  0
 17 21  2  0  0  0  0
M  END
>  <cdx:fragmentId>
3

$$$$
