90649.cdx
  Mrv1902 05222410252D          

 77 86  0  0  0  0            999 V2000
   11.2561  -11.0449    0.0000 O   0  0  0  0  0  0  0  0  0  0  0  0
   11.6788  -10.3364    0.0000 C   0  0  1  0  0  0  0  0  0  0  0  0
   12.5037  -10.3482    0.0000 C   0  0  1  0  0  0  0  0  0  0  0  0
   12.9059  -11.0685    0.0000 C   0  0  2  0  0  0  0  0  0  0  0  0
   12.4832  -11.7770    0.0000 C   0  0  2  0  0  0  0  0  0  0  0  0
   11.6583  -11.7652    0.0000 C   0  0  1  0  0  0  0  0  0  0  0  0
   12.9264   -9.6397    0.0000 O   0  0  0  0  0  0  0  0  0  0  0  0
   13.7308  -11.0804    0.0000 O   0  0  0  0  0  0  0  0  0  0  0  0
   12.8854  -12.4973    0.0000 O   0  0  0  0  0  0  0  0  0  0  0  0
   11.2356  -12.4737    0.0000 C   0  0  0  0  0  0  0  0  0  0  0  0
   11.2766   -9.6161    0.0000 O   0  0  0  0  0  0  0  0  0  0  0  0
   12.0092   -7.5600    0.0000 O   0  0  0  0  0  0  0  0  0  0  0  0
   12.0019   -8.3849    0.0000 C   0  0  2  0  0  0  0  0  0  0  0  0
   11.2838   -8.7911    0.0000 C   0  0  1  0  0  0  0  0  0  0  0  0
   10.5730   -8.3723    0.0000 C   0  0  2  0  0  0  0  0  0  0  0  0
   10.5803   -7.5473    0.0000 C   0  0  2  0  0  0  0  0  0  0  0  0
   11.2984   -7.1412    0.0000 C   0  0  0  0  0  0  0  0  0  0  0  0
   12.7127   -8.8037    0.0000 O   0  0  0  0  0  0  0  0  0  0  0  0
   17.0140   -7.1916    0.0000 C   0  0  2  0  0  0  0  0  0  0  0  0
   16.2959   -7.5978    0.0000 C   0  0  2  0  0  0  0  0  0  0  0  0
   16.2886   -8.4228    0.0000 C   0  0  0  0  0  0  0  0  0  0  0  0
   15.5705   -8.8289    0.0000 C   0  0  0  0  0  0  0  0  0  0  0  0
   14.8597   -8.4102    0.0000 C   0  0  1  0  0  0  0  0  0  0  0  0
   14.1416   -8.8163    0.0000 C   0  0  0  0  0  0  0  0  0  0  0  0
   13.4308   -8.3975    0.0000 C   0  0  2  0  0  0  0  0  0  0  0  0
   13.4381   -7.5726    0.0000 C   0  0  0  0  0  0  0  0  0  0  0  0
   14.1562   -7.1664    0.0000 C   0  0  0  0  0  0  0  0  0  0  0  0
   14.8670   -7.5852    0.0000 C   0  0  2  0  0  0  0  0  0  0  0  0
   15.5851   -7.1790    0.0000 C   0  0  1  0  0  0  0  0  0  0  0  0
   15.5924   -6.3540    0.0000 C   0  0  0  0  0  0  0  0  0  0  0  0
   16.3104   -5.9479    0.0000 C   0  0  0  0  0  0  0  0  0  0  0  0
   17.0212   -6.3667    0.0000 C   0  0  2  0  0  0  0  0  0  0  0  0
   17.7393   -5.9605    0.0000 C   0  0  1  0  0  0  0  0  0  0  0  0
   17.7466   -5.1355    0.0000 C   0  0  1  0  0  0  0  0  0  0  0  0
   18.4647   -4.7293    0.0000 C   0  0  0  0  0  0  0  0  0  0  0  0
   19.1755   -5.1481    0.0000 C   0  0  1  0  0  0  0  0  0  0  0  0
   19.1682   -5.9731    0.0000 O   0  0  0  0  0  0  0  0  0  0  0  0
   18.4501   -6.3793    0.0000 C   0  0  2  0  0  0  0  0  0  0  0  0
   18.4428   -7.2042    0.0000 O   0  0  0  0  0  0  0  0  0  0  0  0
   17.7248   -7.6104    0.0000 C   0  0  0  0  0  0  0  0  0  0  0  0
   17.8976   -7.0774    0.0000 C   0  0  0  0  0  0  0  0  0  0  0  0
   19.8936   -4.7420    0.0000 C   0  0  0  0  0  0  0  0  0  0  0  0
   20.6044   -5.1607    0.0000 C   0  0  0  0  0  0  0  0  0  0  0  0
   20.5971   -5.9857    0.0000 C   0  0  0  0  0  0  0  0  0  0  0  0
   21.3225   -4.7546    0.0000 C   0  0  0  0  0  0  0  0  0  0  0  0
   17.5331   -4.3386    0.0000 C   0  0  0  0  0  0  0  0  0  0  0  0
   14.8743   -6.7602    0.0000 C   0  0  0  0  0  0  0  0  0  0  0  0
   14.5478   -9.5344    0.0000 C   0  0  0  0  0  0  0  0  0  0  0  0
   13.7228   -9.5271    0.0000 C   0  0  0  0  0  0  0  0  0  0  0  0
   16.3032   -6.7728    0.0000 C   0  0  0  0  0  0  0  0  0  0  0  0
   17.0321   -4.7230    0.0000 O   0  0  0  0  0  0  0  0  0  0  0  0
    9.8695   -7.1286    0.0000 O   0  0  0  0  0  0  0  0  0  0  0  0
   14.8524   -9.2351    0.0000 H   0  0  0  0  0  0  0  0  0  0  0  0
   15.5778   -8.0040    0.0000 H   0  0  0  0  0  0  0  0  0  0  0  0
   17.0285   -5.5417    0.0000 H   0  0  0  0  0  0  0  0  0  0  0  0
   17.7339   -6.5792    0.0000 H   0  0  0  0  0  0  0  0  0  0  0  0
    6.9251   -8.8054    0.0000 O   0  0  0  0  0  0  0  0  0  0  0  0
    6.9332   -7.1554    0.0000 O   0  0  0  0  0  0  0  0  0  0  0  0
    7.6537   -5.9214    0.0000 O   0  0  0  0  0  0  0  0  0  0  0  0
    8.3662   -6.3374    0.0000 C   0  0  0  0  0  0  0  0  0  0  0  0
    8.3419  -11.2874    0.0000 O   0  0  0  0  0  0  0  0  0  0  0  0
    6.9090  -12.1053    0.0000 O   0  0  0  0  0  0  0  0  0  0  0  0
    5.4841  -11.2734    0.0000 O   0  0  0  0  0  0  0  0  0  0  0  0
    6.2046  -10.0394    0.0000 C   0  0  0  0  0  0  0  0  0  0  0  0
    6.2006  -10.8644    0.0000 C   0  0  2  0  0  0  0  0  0  0  0  0
    6.9130  -11.2804    0.0000 C   0  0  1  0  0  0  0  0  0  0  0  0
    7.6295  -10.8714    0.0000 C   0  0  2  0  0  0  0  0  0  0  0  0
    7.6335  -10.0464    0.0000 C   0  0  1  0  0  0  0  0  0  0  0  0
    6.9211   -9.6304    0.0000 O   0  0  0  0  0  0  0  0  0  0  0  0
    8.3500   -9.6374    0.0000 O   0  0  0  0  0  0  0  0  0  0  0  0
    8.3621   -7.1624    0.0000 C   0  0  2  0  0  0  0  0  0  0  0  0
    7.6457   -7.5714    0.0000 C   0  0  2  0  0  0  0  0  0  0  0  0
    7.6416   -8.3964    0.0000 C   0  0  1  0  0  0  0  0  0  0  0  0
    8.3541   -8.8124    0.0000 C   0  0  2  0  0  0  0  0  0  0  0  0
    9.0705   -8.4034    0.0000 C   0  0  1  0  0  0  0  0  0  0  0  0
    9.0746   -7.5784    0.0000 O   0  0  0  0  0  0  0  0  0  0  0  0
    9.8542   -8.8610    0.0000 O   0  0  0  0  0  0  0  0  0  0  0  0
 75 77  1  1  0  0  0
 73 57  1  1  0  0  0
 72 58  1  6  0  0  0
 71 60  1  1  0  0  0
 60 59  1  0  0  0  0
 74 70  1  6  0  0  0
 68 70  1  1  0  0  0
 67 61  1  6  0  0  0
 66 62  1  1  0  0  0
 65 63  1  6  0  0  0
 69 64  1  0  0  0  0
 65 64  1  0  0  0  0
 66 65  1  0  0  0  0
 67 66  1  0  0  0  0
 68 67  1  0  0  0  0
 69 68  1  0  0  0  0
 76 71  1  0  0  0  0
 72 71  1  0  0  0  0
 73 72  1  0  0  0  0
 74 73  1  0  0  0  0
 75 74  1  0  0  0  0
  1  2  1  0  0  0  0
  2  3  1  0  0  0  0
  3  4  1  0  0  0  0
  4  5  1  0  0  0  0
  5  6  1  0  0  0  0
  1  6  1  0  0  0  0
  3  7  1  6  0  0  0
  4  8  1  1  0  0  0
  5  9  1  1  0  0  0
  6 10  1  1  0  0  0
 12 13  1  0  0  0  0
 13 14  1  0  0  0  0
 14 15  1  0  0  0  0
 15 16  1  0  0  0  0
 16 17  1  0  0  0  0
 12 17  1  0  0  0  0
 19 20  1  0  0  0  0
 20 21  1  0  0  0  0
 21 22  1  0  0  0  0
 22 23  1  0  0  0  0
 23 24  1  0  0  0  0
 24 25  1  0  0  0  0
 25 26  1  0  0  0  0
 26 27  1  0  0  0  0
 27 28  1  0  0  0  0
 28 29  1  0  0  0  0
 29 30  1  0  0  0  0
 30 31  1  0  0  0  0
 31 32  1  0  0  0  0
 32 33  1  0  0  0  0
 33 34  1  0  0  0  0
 34 35  1  0  0  0  0
 35 36  1  0  0  0  0
 36 37  1  0  0  0  0
 38 37  1  1  0  0  0
 38 39  1  0  0  0  0
 39 40  1  0  0  0  0
 19 40  1  6  0  0  0
 19 41  1  0  0  0  0
 38 41  1  0  0  0  0
 33 38  1  0  0  0  0
 19 32  1  0  0  0  0
 20 29  1  0  0  0  0
 23 28  1  0  0  0  0
 42 43  2  0  0  0  0
 43 44  1  0  0  0  0
 43 45  1  0  0  0  0
 36 42  1  6  0  0  0
 34 46  1  0  0  0  0
 28 47  1  1  0  0  0
 24 48  1  0  0  0  0
 24 49  1  0  0  0  0
 20 50  1  1  0  0  0
 34 51  1  1  0  0  0
 25 18  1  1  0  0  0
 13 18  1  1  0  0  0
 16 52  1  1  0  0  0
 76 75  1  0  0  0  0
 14 11  1  6  0  0  0
  2 11  1  6  0  0  0
 23 53  1  6  0  0  0
 29 54  1  6  0  0  0
 32 55  1  1  0  0  0
 33 56  1  6  0  0  0
 15 77  1  1  0  0  0
M  END
>  <cdx:fragmentId>
41

$$$$
