90646.cdx
  Mrv1902 05222410212D          

 38 43  0  0  0  0            999 V2000
    3.9443   -8.6339    0.0000 C   0  0  0  0  0  0  0  0  0  0  0  0
    3.9443   -9.4589    0.0000 C   0  0  0  0  0  0  0  0  0  0  0  0
    4.6588   -9.8714    0.0000 C   0  0  0  0  0  0  0  0  0  0  0  0
    5.3732   -9.4589    0.0000 C   0  0  0  0  0  0  0  0  0  0  0  0
    5.3732   -8.6339    0.0000 C   0  0  0  0  0  0  0  0  0  0  0  0
    4.6588   -8.2214    0.0000 C   0  0  0  0  0  0  0  0  0  0  0  0
    6.0877   -9.8714    0.0000 C   0  0  0  0  0  0  0  0  0  0  0  0
    6.8022   -9.4589    0.0000 C   0  0  0  0  0  0  0  0  0  0  0  0
    6.8022   -8.6339    0.0000 C   0  0  0  0  0  0  0  0  0  0  0  0
    6.0877   -8.2214    0.0000 C   0  0  0  0  0  0  0  0  0  0  0  0
    7.5167   -9.8714    0.0000 C   0  0  0  0  0  0  0  0  0  0  0  0
    8.2311   -9.4589    0.0000 C   0  0  0  0  0  0  0  0  0  0  0  0
    8.2311   -8.6339    0.0000 C   0  0  0  0  0  0  0  0  0  0  0  0
    7.5167   -8.2214    0.0000 C   0  0  0  0  0  0  0  0  0  0  0  0
    6.0877   -7.3964    0.0000 O   0  0  0  0  0  0  0  0  0  0  0  0
    4.6588   -7.3964    0.0000 O   0  0  0  0  0  0  0  0  0  0  0  0
    7.5167   -7.3964    0.0000 O   0  0  0  0  0  0  0  0  0  0  0  0
    3.2298   -9.8714    0.0000 O   0  0  0  0  0  0  0  0  0  0  0  0
    3.2298  -10.6964    0.0000 O   0  0  0  0  0  0  0  0  0  0  0  0
    3.9443  -11.1089    0.0000 C   0  0  0  0  0  0  0  0  0  0  0  0
    4.6588  -10.6964    0.0000 C   0  0  0  0  0  0  0  0  0  0  0  0
    3.9443  -11.9339    0.0000 C   0  0  0  0  0  0  0  0  0  0  0  0
    4.6588  -12.3464    0.0000 C   0  0  0  0  0  0  0  0  0  0  0  0
    5.3732  -11.9339    0.0000 C   0  0  0  0  0  0  0  0  0  0  0  0
    5.3732  -11.1089    0.0000 C   0  0  0  0  0  0  0  0  0  0  0  0
    6.0877  -12.3464    0.0000 C   0  0  0  0  0  0  0  0  0  0  0  0
    6.8022  -11.9339    0.0000 C   0  0  0  0  0  0  0  0  0  0  0  0
    6.8022  -11.1089    0.0000 C   0  0  0  0  0  0  0  0  0  0  0  0
    6.0877  -10.6964    0.0000 C   0  0  0  0  0  0  0  0  0  0  0  0
    7.5167  -12.3464    0.0000 C   0  0  0  0  0  0  0  0  0  0  0  0
    8.2311  -11.9339    0.0000 C   0  0  0  0  0  0  0  0  0  0  0  0
    8.2311  -11.1089    0.0000 C   0  0  0  0  0  0  0  0  0  0  0  0
    7.5167  -10.6964    0.0000 C   0  0  0  0  0  0  0  0  0  0  0  0
    4.6588  -13.1714    0.0000 O   0  0  0  0  0  0  0  0  0  0  0  0
    6.0877  -13.1714    0.0000 O   0  0  0  0  0  0  0  0  0  0  0  0
    7.5167  -13.1714    0.0000 O   0  0  0  0  0  0  0  0  0  0  0  0
    8.9456   -9.8714    0.0000 C   0  0  0  0  0  0  0  0  0  0  0  0
    8.9456  -10.6964    0.0000 C   0  0  0  0  0  0  0  0  0  0  0  0
  1  2  1  0  0  0  0
  2  3  2  0  0  0  0
  3  4  1  0  0  0  0
  4  5  2  0  0  0  0
  5  6  1  0  0  0  0
  6  1  2  0  0  0  0
  4  7  1  0  0  0  0
  7  8  1  0  0  0  0
  8  9  2  0  0  0  0
  9 10  1  0  0  0  0
 10  5  1  0  0  0  0
  8 11  1  0  0  0  0
 11 12  2  0  0  0  0
 12 13  1  0  0  0  0
 13 14  2  0  0  0  0
 14  9  1  0  0  0  0
 10 15  2  0  0  0  0
 16  6  1  0  0  0  0
 14 17  1  0  0  0  0
  2 18  1  0  0  0  0
 19 20  1  0  0  0  0
 20 21  2  0  0  0  0
 20 22  1  0  0  0  0
 22 23  2  0  0  0  0
 23 24  1  0  0  0  0
 24 25  2  0  0  0  0
 25 21  1  0  0  0  0
 24 26  1  0  0  0  0
 26 27  1  0  0  0  0
 27 28  2  0  0  0  0
 28 29  1  0  0  0  0
 29 25  1  0  0  0  0
 27 30  1  0  0  0  0
 30 31  2  0  0  0  0
 31 32  1  0  0  0  0
 32 33  2  0  0  0  0
 33 28  1  0  0  0  0
 23 34  1  0  0  0  0
 35 26  2  0  0  0  0
 36 30  1  0  0  0  0
  7 29  2  0  0  0  0
 12 37  1  0  0  0  0
 32 38  1  0  0  0  0
M  END
>  <cdx:fragmentId>
5

$$$$
