90645.cdx
  Mrv1902 05222410202D          

 34 35  0  0  0  0            999 V2000
    4.8518   -9.1564    0.0000 C   0  0  0  0  0  0  0  0  0  0  0  0
    4.8518   -9.9814    0.0000 C   0  0  0  0  0  0  0  0  0  0  0  0
    5.5663  -10.3939    0.0000 C   0  0  0  0  0  0  0  0  0  0  0  0
    6.2807   -9.9814    0.0000 C   0  0  0  0  0  0  0  0  0  0  0  0
    6.2807   -9.1564    0.0000 C   0  0  0  0  0  0  0  0  0  0  0  0
    5.5663   -8.7439    0.0000 O   0  0  0  0  0  0  0  0  0  0  0  0
    6.9952  -10.3939    0.0000 C   0  0  0  0  0  0  0  0  0  0  0  0
    7.7097   -9.9814    0.0000 C   0  0  0  0  0  0  0  0  0  0  0  0
    7.7097   -9.1564    0.0000 C   0  0  0  0  0  0  0  0  0  0  0  0
    6.9952   -8.7439    0.0000 C   0  0  0  0  0  0  0  0  0  0  0  0
    8.4242  -10.3939    0.0000 C   0  0  0  0  0  0  0  0  0  0  0  0
    9.1386   -9.9814    0.0000 C   0  0  0  0  0  0  0  0  0  0  0  0
    8.4242   -8.7439    0.0000 O   0  0  0  0  0  0  0  0  0  0  0  0
    9.8531  -10.3939    0.0000 C   0  0  0  0  0  0  0  0  0  0  0  0
   10.5676   -9.9814    0.0000 C   0  0  0  0  0  0  0  0  0  0  0  0
    7.7097   -7.5064    0.0000 C   0  0  0  0  0  0  0  0  0  0  0  0
    6.9952   -7.9189    0.0000 C   0  0  0  0  0  0  0  0  0  0  0  0
    7.7097   -6.6814    0.0000 C   0  0  0  0  0  0  0  0  0  0  0  0
    6.9952   -6.2689    0.0000 C   0  0  0  0  0  0  0  0  0  0  0  0
    6.9952  -11.2189    0.0000 O   0  0  0  0  0  0  0  0  0  0  0  0
    6.2807  -11.6314    0.0000 C   0  0  2  0  0  0  0  0  0  0  0  0
    7.7097  -11.6314    0.0000 C   0  0  0  0  0  0  0  0  0  0  0  0
    6.9952  -12.0439    0.0000 C   0  0  0  0  0  0  0  0  0  0  0  0
    5.5663  -12.0439    0.0000 C   0  0  0  0  0  0  0  0  0  0  0  0
    5.5663  -12.8689    0.0000 C   0  0  0  0  0  0  0  0  0  0  0  0
    4.8518  -13.2814    0.0000 C   0  0  0  0  0  0  0  0  0  0  0  0
    4.8518  -14.1064    0.0000 C   0  0  0  0  0  0  0  0  0  0  0  0
    4.1373  -14.5189    0.0000 C   0  0  0  0  0  0  0  0  0  0  0  0
    5.5663  -14.5189    0.0000 C   0  0  0  0  0  0  0  0  0  0  0  0
    5.5663  -11.2189    0.0000 O   0  0  0  0  0  0  0  0  0  0  0  0
    4.1373  -10.3939    0.0000 C   0  0  0  0  0  0  0  0  0  0  0  0
    9.8531  -11.2189    0.0000 C   0  0  0  0  0  0  0  0  0  0  0  0
    8.4242   -6.2689    0.0000 C   0  0  0  0  0  0  0  0  0  0  0  0
    6.2807  -12.4564    0.0000 C   0  0  0  0  0  0  0  0  0  0  0  0
  1  2  1  0  0  0  0
  2  3  1  0  0  0  0
  3  4  1  0  0  0  0
  4  5  1  0  0  0  0
  5  6  2  0  0  0  0
  4  7  1  0  0  0  0
  7  8  1  0  0  0  0
  8  9  1  0  0  0  0
  9 10  2  0  0  0  0
 10  5  1  0  0  0  0
  8 11  1  0  0  0  0
 11 12  1  0  0  0  0
 13  9  1  0  0  0  0
 12 14  2  0  0  0  0
 14 15  1  0  0  0  0
 16 17  1  0  0  0  0
 17 10  1  0  0  0  0
 16 18  2  0  0  0  0
 18 19  1  0  0  0  0
  7 20  2  0  0  0  0
 21 23  1  0  0  0  0
 23 22  1  0  0  0  0
  4 21  1  0  0  0  0
  8 22  1  0  0  0  0
 21 24  1  0  0  0  0
 24 25  1  0  0  0  0
 25 26  1  0  0  0  0
 26 27  2  0  0  0  0
 27 28  1  0  0  0  0
 27 29  1  0  0  0  0
  3 30  2  0  0  0  0
  2 31  1  0  0  0  0
 14 32  1  0  0  0  0
 18 33  1  0  0  0  0
 21 34  1  1  0  0  0
M  END
>  <cdx:fragmentId>
5

$$$$
