90640.cdx
  Mrv1902 05222410232D          

 20 19  0  0  0  0            999 V2000
    1.4799   -8.7976    0.0000 C   0  0  0  0  0  0  0  0  0  0  0  0
    2.1944   -8.3851    0.0000 C   0  0  0  0  0  0  0  0  0  0  0  0
    2.9088   -8.7976    0.0000 C   0  0  0  0  0  0  0  0  0  0  0  0
    3.6233   -8.3851    0.0000 C   0  0  0  0  0  0  0  0  0  0  0  0
    4.3378   -8.7976    0.0000 C   0  0  0  0  0  0  0  0  0  0  0  0
    5.0522   -8.3851    0.0000 C   0  0  0  0  0  0  0  0  0  0  0  0
    5.7667   -8.7976    0.0000 C   0  0  0  0  0  0  0  0  0  0  0  0
    6.4812   -8.3851    0.0000 C   0  0  0  0  0  0  0  0  0  0  0  0
    7.1956   -8.7976    0.0000 C   0  0  0  0  0  0  0  0  0  0  0  0
    7.9101   -8.3851    0.0000 C   0  0  0  0  0  0  0  0  0  0  0  0
    8.6246   -8.7976    0.0000 C   0  0  0  0  0  0  0  0  0  0  0  0
    9.3391   -9.2101    0.0000 C   0  0  0  0  0  0  0  0  0  0  0  0
   10.0535   -9.6226    0.0000 C   0  0  0  0  0  0  0  0  0  0  0  0
   10.7680  -10.0351    0.0000 C   0  0  0  0  0  0  0  0  0  0  0  0
   11.4825  -10.4476    0.0000 C   0  0  0  0  0  0  0  0  0  0  0  0
   12.1969  -10.0351    0.0000 C   0  0  0  0  0  0  0  0  0  0  0  0
   12.9114  -10.4476    0.0000 C   0  0  0  0  0  0  0  0  0  0  0  0
    6.4812   -7.5601    0.0000 O   0  0  0  0  0  0  0  0  0  0  0  0
    7.1956   -9.6226    0.0000 O   0  0  0  0  0  0  0  0  0  0  0  0
    7.9101   -7.5601    0.0000 O   0  0  0  0  0  0  0  0  0  0  0  0
  1  2  2  0  0  0  0
  2  3  1  0  0  0  0
  3  4  1  0  0  0  0
  4  5  1  0  0  0  0
  5  6  1  0  0  0  0
  6  7  1  0  0  0  0
  7  8  1  0  0  0  0
  8  9  1  0  0  0  0
  9 10  1  0  0  0  0
 10 11  1  0  0  0  0
 11 12  3  0  0  0  0
 12 13  1  0  0  0  0
 13 14  3  0  0  0  0
 14 15  1  0  0  0  0
 15 16  1  0  0  0  0
 16 17  1  0  0  0  0
  8 18  1  0  0  0  0
  9 19  1  0  0  0  0
 10 20  1  0  0  0  0
M  END
>  <cdx:fragmentId>
5

$$$$
