90643.cdx
  Mrv1902 05222410222D          

 12 12  0  0  0  0            999 V2000
    5.7043  -10.1739    0.0000 C   0  0  0  0  0  0  0  0  0  0  0  0
    5.7043  -10.9989    0.0000 C   0  0  0  0  0  0  0  0  0  0  0  0
    6.4188  -11.4114    0.0000 C   0  0  0  0  0  0  0  0  0  0  0  0
    7.1332  -10.9989    0.0000 C   0  0  0  0  0  0  0  0  0  0  0  0
    7.1332  -10.1739    0.0000 C   0  0  0  0  0  0  0  0  0  0  0  0
    6.4188   -9.7614    0.0000 C   0  0  0  0  0  0  0  0  0  0  0  0
    6.4188   -8.9364    0.0000 C   0  0  0  0  0  0  0  0  0  0  0  0
    7.1332   -8.5239    0.0000 C   0  0  0  0  0  0  0  0  0  0  0  0
    7.1332   -7.6989    0.0000 C   0  0  0  0  0  0  0  0  0  0  0  0
    7.8477   -7.2864    0.0000 C   0  0  0  0  0  0  0  0  0  0  0  0
    7.8477   -6.4614    0.0000 C   0  0  0  0  0  0  0  0  0  0  0  0
    8.5622   -6.0489    0.0000 C   0  0  0  0  0  0  0  0  0  0  0  0
  1  2  2  0  0  0  0
  2  3  1  0  0  0  0
  3  4  2  0  0  0  0
  4  5  1  0  0  0  0
  5  6  2  0  0  0  0
  6  1  1  0  0  0  0
  6  7  1  0  0  0  0
  7  8  1  0  0  0  0
  8  9  1  0  0  0  0
  9 10  1  0  0  0  0
 10 11  1  0  0  0  0
 11 12  1  0  0  0  0
M  END
>  <cdx:fragmentId>
5

$$$$
