90644.cdx
  Mrv1902 05222410212D          

 32 34  0  0  0  0            999 V2000
    2.5439   -8.8951    0.0000 O   0  0  0  0  0  0  0  0  0  0  0  0
    3.2584   -9.3076    0.0000 C   0  0  2  0  0  0  0  0  0  0  0  0
    3.9729   -8.8951    0.0000 C   0  0  1  0  0  0  0  0  0  0  0  0
    3.9729   -8.0701    0.0000 C   0  0  0  0  0  0  0  0  0  0  0  0
   11.8320   -6.8326    0.0000 O   0  0  0  0  0  0  0  0  0  0  0  0
   11.1176   -6.4201    0.0000 C   0  0  0  0  0  0  0  0  0  0  0  0
   10.4031   -7.6576    0.0000 C   0  0  0  0  0  0  0  0  0  0  0  0
   10.4031   -6.8326    0.0000 C   0  0  0  0  0  0  0  0  0  0  0  0
    9.6886   -6.4201    0.0000 O   0  0  0  0  0  0  0  0  0  0  0  0
    9.6886   -8.8951    0.0000 O   0  0  0  0  0  0  0  0  0  0  0  0
    9.6886   -8.0701    0.0000 C   0  0  0  0  0  0  0  0  0  0  0  0
    8.2597   -8.8951    0.0000 O   0  0  0  0  0  0  0  0  0  0  0  0
    8.2597   -8.0701    0.0000 C   0  0  0  0  0  0  0  0  0  0  0  0
    8.9742   -7.6576    0.0000 C   0  0  0  0  0  0  0  0  0  0  0  0
    8.9742   -6.8326    0.0000 C   0  0  0  0  0  0  0  0  0  0  0  0
    8.2597   -6.4201    0.0000 C   0  0  0  0  0  0  0  0  0  0  0  0
    7.5452   -7.6576    0.0000 C   0  0  0  0  0  0  0  0  0  0  0  0
    7.5452   -6.8326    0.0000 C   0  0  0  0  0  0  0  0  0  0  0  0
    6.8307   -6.4201    0.0000 O   0  0  0  0  0  0  0  0  0  0  0  0
    6.8307   -8.8951    0.0000 C   0  0  0  0  0  0  0  0  0  0  0  0
    6.8307   -8.0701    0.0000 C   0  0  0  0  0  0  0  0  0  0  0  0
    6.1163   -9.3076    0.0000 C   0  0  0  0  0  0  0  0  0  0  0  0
    5.4018   -8.8951    0.0000 C   0  0  0  0  0  0  0  0  0  0  0  0
    3.2584   -7.6576    0.0000 O   0  0  0  0  0  0  0  0  0  0  0  0
    6.1163  -10.1326    0.0000 C   0  0  0  0  0  0  0  0  0  0  0  0
    3.2584  -10.1326    0.0000 C   0  0  1  0  0  0  0  0  0  0  0  0
    3.9729  -10.5451    0.0000 C   0  0  2  0  0  0  0  0  0  0  0  0
    4.6873  -10.1326    0.0000 C   0  0  1  0  0  0  0  0  0  0  0  0
    4.6873   -9.3076    0.0000 O   0  0  0  0  0  0  0  0  0  0  0  0
    5.4018  -10.5451    0.0000 O   0  0  0  0  0  0  0  0  0  0  0  0
    2.5439  -10.5451    0.0000 O   0  0  0  0  0  0  0  0  0  0  0  0
    3.9729  -11.3701    0.0000 O   0  0  0  0  0  0  0  0  0  0  0  0
  6  5  1  0  0  0  0
  8  6  1  0  0  0  0
  7 11  1  0  0  0  0
  8  7  2  0  0  0  0
  9  8  1  0  0  0  0
 15  9  1  0  0  0  0
 11 10  2  0  0  0  0
 14 11  1  0  0  0  0
 13 12  1  0  0  0  0
 13 17  1  0  0  0  0
 14 13  2  0  0  0  0
 15 14  1  0  0  0  0
 16 15  2  0  0  0  0
 18 16  1  0  0  0  0
 17 21  1  0  0  0  0
 18 17  2  0  0  0  0
 19 18  1  0  0  0  0
 20 22  2  0  0  0  0
 21 20  1  0  0  0  0
 22 25  1  0  0  0  0
 23 22  1  0  0  0  0
 30 25  1  0  0  0  0
  2  1  1  6  0  0  0
  2  3  1  0  0  0  0
  3  4  1  1  0  0  0
  4 24  1  0  0  0  0
  2 26  1  0  0  0  0
 26 27  1  0  0  0  0
 27 28  1  0  0  0  0
 28 29  1  0  0  0  0
 29  3  1  0  0  0  0
 28 30  1  1  0  0  0
 26 31  1  1  0  0  0
 27 32  1  6  0  0  0
M  END
>  <cdx:fragmentId>
5

$$$$
