906544.cdx
  Mrv1902 05222410252D          

 48 54  0  0  0  0            999 V2000
    9.2405   -6.5450    0.0000 C   0  0  2  0  0  0  0  0  0  0  0  0
    9.2405   -7.3700    0.0000 C   0  0  0  0  0  0  0  0  0  0  0  0
    9.9550   -7.7825    0.0000 C   0  0  1  0  0  0  0  0  0  0  0  0
   10.6695   -7.3700    0.0000 C   0  0  1  0  0  0  0  0  0  0  0  0
   10.6695   -6.5450    0.0000 C   0  0  0  0  0  0  0  0  0  0  0  0
    9.9550   -6.1325    0.0000 C   0  0  1  0  0  0  0  0  0  0  0  0
    9.9550   -5.3075    0.0000 C   0  0  0  0  0  0  0  0  0  0  0  0
   11.3025   -6.1600    0.0000 O   0  0  0  0  0  0  0  0  0  0  0  0
    9.9550   -6.9575    0.0000 C   0  0  2  0  0  0  0  0  0  0  0  0
    8.5261   -6.1325    0.0000 O   0  0  0  0  0  0  0  0  0  0  0  0
   11.3025   -7.7550    0.0000 O   0  0  0  0  0  0  0  0  0  0  0  0
   10.6695   -8.1950    0.0000 O   0  0  0  0  0  0  0  0  0  0  0  0
    9.3500   -7.7275    0.0000 C   0  0  0  0  0  0  0  0  0  0  0  0
    9.3500   -8.5525    0.0000 O   0  0  0  0  0  0  0  0  0  0  0  0
   11.3025   -6.9575    0.0000 C   0  0  1  0  0  0  0  0  0  0  0  0
    8.6315   -8.9580    0.0000 C   0  0  0  0  0  0  0  0  0  0  0  0
    7.9211   -8.5385    0.0000 O   0  0  0  0  0  0  0  0  0  0  0  0
    8.6234   -9.7829    0.0000 C   0  0  0  0  0  0  0  0  0  0  0  0
    9.3338  -10.2024    0.0000 C   0  0  0  0  0  0  0  0  0  0  0  0
    9.3257  -11.0274    0.0000 C   0  0  0  0  0  0  0  0  0  0  0  0
    8.6073  -11.4329    0.0000 C   0  0  0  0  0  0  0  0  0  0  0  0
    7.8969  -11.0134    0.0000 C   0  0  0  0  0  0  0  0  0  0  0  0
    7.9050  -10.1884    0.0000 C   0  0  0  0  0  0  0  0  0  0  0  0
    7.8116   -6.5450    0.0000 C   0  0  2  0  0  0  0  0  0  0  0  0
    7.0971   -6.1325    0.0000 O   0  0  0  0  0  0  0  0  0  0  0  0
    6.3826   -6.5450    0.0000 C   0  0  1  0  0  0  0  0  0  0  0  0
    6.3826   -7.3700    0.0000 C   0  0  2  0  0  0  0  0  0  0  0  0
    7.0971   -7.7825    0.0000 C   0  0  1  0  0  0  0  0  0  0  0  0
    7.8116   -7.3700    0.0000 C   0  0  1  0  0  0  0  0  0  0  0  0
    5.6682   -6.1325    0.0000 C   0  0  0  0  0  0  0  0  0  0  0  0
    7.0971   -8.6075    0.0000 O   0  0  0  0  0  0  0  0  0  0  0  0
    8.5261   -7.7825    0.0000 O   0  0  0  0  0  0  0  0  0  0  0  0
    5.6682   -7.7825    0.0000 O   0  0  0  0  0  0  0  0  0  0  0  0
    4.9537   -6.5450    0.0000 O   0  0  0  0  0  0  0  0  0  0  0  0
    9.9550   -8.6075    0.0000 H   0  0  0  0  0  0  0  0  0  0  0  0
   12.2100   -6.9300    0.0000 H   0  0  0  0  0  0  0  0  0  0  0  0
    4.2392   -6.1325    0.0000 C   0  0  0  0  0  0  0  0  0  0  0  0
    3.5248   -6.5450    0.0000 C   0  0  0  0  0  0  0  0  0  0  0  0
    2.8103   -6.1325    0.0000 C   0  0  0  0  0  0  0  0  0  0  0  0
    2.0958   -6.5450    0.0000 C   0  0  0  0  0  0  0  0  0  0  0  0
    2.0958   -7.3700    0.0000 C   0  0  0  0  0  0  0  0  0  0  0  0
    2.8103   -7.7825    0.0000 C   0  0  0  0  0  0  0  0  0  0  0  0
    3.5248   -7.3700    0.0000 C   0  0  0  0  0  0  0  0  0  0  0  0
    1.3813   -6.1325    0.0000 O   0  0  0  0  0  0  0  0  0  0  0  0
    0.6669   -6.5450    0.0000 C   0  0  0  0  0  0  0  0  0  0  0  0
    1.3813   -7.7825    0.0000 O   0  0  0  0  0  0  0  0  0  0  0  0
    8.5992  -12.2578    0.0000 O   0  0  0  0  0  0  0  0  0  0  0  0
    4.2392   -5.3075    0.0000 O   0  0  0  0  0  0  0  0  0  0  0  0
  1  2  1  0  0  0  0
  2  3  1  0  0  0  0
  3  4  1  0  0  0  0
  4  5  1  0  0  0  0
  5  6  1  0  0  0  0
  6  1  1  0  0  0  0
  6  7  1  6  0  0  0
  6  8  1  0  0  0  0
  3  9  1  0  0  0  0
  1 10  1  1  0  0  0
  4 11  1  0  0  0  0
  4 12  1  6  0  0  0
  9  1  1  0  0  0  0
  9 13  1  1  0  0  0
 13 14  1  0  0  0  0
 11 15  1  0  0  0  0
  8 15  1  0  0  0  0
  9 15  1  0  0  0  0
 14 16  1  0  0  0  0
 16 17  2  0  0  0  0
 16 18  1  0  0  0  0
 18 19  2  0  0  0  0
 19 20  1  0  0  0  0
 20 21  2  0  0  0  0
 21 22  1  0  0  0  0
 22 23  2  0  0  0  0
 23 18  1  0  0  0  0
 24 10  1  1  0  0  0
 24 25  1  0  0  0  0
 25 26  1  0  0  0  0
 26 27  1  0  0  0  0
 27 28  1  0  0  0  0
 28 29  1  0  0  0  0
 29 24  1  0  0  0  0
 26 30  1  1  0  0  0
 28 31  1  1  0  0  0
 29 32  1  6  0  0  0
 27 33  1  6  0  0  0
 30 34  1  0  0  0  0
  3 35  1  1  0  0  0
 15 36  1  1  0  0  0
 34 37  1  0  0  0  0
 37 38  1  0  0  0  0
 38 39  2  0  0  0  0
 39 40  1  0  0  0  0
 40 41  2  0  0  0  0
 41 42  1  0  0  0  0
 42 43  2  0  0  0  0
 43 38  1  0  0  0  0
 40 44  1  0  0  0  0
 44 45  1  0  0  0  0
 41 46  1  0  0  0  0
 21 47  1  0  0  0  0
 37 48  2  0  0  0  0
M  END
>  <cdx:fragmentId>
157

$$$$
