906532.cdx
  Mrv1902 05222410282D          

 50 54  0  0  0  0            999 V2000
    5.2546   -6.5171    0.0000 C   0  0  2  0  0  0  0  0  0  0  0  0
    4.5418   -6.9324    0.0000 C   0  0  2  0  0  0  0  0  0  0  0  0
    4.5450   -7.7574    0.0000 C   0  0  1  0  0  0  0  0  0  0  0  0
    5.2611   -8.1670    0.0000 C   0  0  2  0  0  0  0  0  0  0  0  0
    5.9739   -7.7518    0.0000 C   0  0  1  0  0  0  0  0  0  0  0  0
    5.9707   -6.9268    0.0000 O   0  0  0  0  0  0  0  0  0  0  0  0
    6.6900   -8.1615    0.0000 O   0  0  0  0  0  0  0  0  0  0  0  0
    5.2514   -5.6921    0.0000 C   0  0  0  0  0  0  0  0  0  0  0  0
    4.5353   -5.2824    0.0000 O   0  0  0  0  0  0  0  0  0  0  0  0
    3.8322   -8.1726    0.0000 O   0  0  0  0  0  0  0  0  0  0  0  0
    3.8257   -6.5227    0.0000 O   0  0  0  0  0  0  0  0  0  0  0  0
    8.1190  -11.4615    0.0000 O   0  0  0  0  0  0  0  0  0  0  0  0
    5.2643   -8.9920    0.0000 O   0  0  0  0  0  0  0  0  0  0  0  0
    7.3816   -1.9591    0.0000 C   0  0  0  0  0  0  0  0  0  0  0  0
    6.6661   -1.5483    0.0000 C   0  0  0  0  0  0  0  0  0  0  0  0
    5.9527   -1.9625    0.0000 C   0  0  0  0  0  0  0  0  0  0  0  0
    5.9547   -2.7875    0.0000 C   0  0  0  0  0  0  0  0  0  0  0  0
    6.6701   -3.1983    0.0000 C   0  0  0  0  0  0  0  0  0  0  0  0
    7.3836   -2.7841    0.0000 C   0  0  0  0  0  0  0  0  0  0  0  0
    9.5479   -8.1615    0.0000 C   0  0  2  0  0  0  0  0  0  0  0  0
    8.8334   -7.7490    0.0000 O   0  0  0  0  0  0  0  0  0  0  0  0
   10.2624   -7.7490    0.0000 C   0  0  1  0  0  0  0  0  0  0  0  0
   10.2624   -6.9240    0.0000 C   0  0  1  0  0  0  0  0  0  0  0  0
    9.5479   -6.5115    0.0000 C   0  0  0  0  0  0  0  0  0  0  0  0
    8.8334   -6.9240    0.0000 C   0  0  0  0  0  0  0  0  0  0  0  0
   11.0470   -8.0039    0.0000 C   0  0  0  0  0  0  0  0  0  0  0  0
   11.5319   -7.3365    0.0000 C   0  0  0  0  0  0  0  0  0  0  0  0
   11.0470   -6.6690    0.0000 C   0  0  0  0  0  0  0  0  0  0  0  0
    9.5479   -5.6865    0.0000 C   0  0  0  0  0  0  0  0  0  0  0  0
   10.2624   -5.2740    0.0000 O   0  0  0  0  0  0  0  0  0  0  0  0
    8.8334   -5.2740    0.0000 O   0  0  0  0  0  0  0  0  0  0  0  0
    8.8334   -4.4490    0.0000 C   0  0  0  0  0  0  0  0  0  0  0  0
   11.3019   -8.7885    0.0000 C   0  0  0  0  0  0  0  0  0  0  0  0
   12.1089   -8.9600    0.0000 O   0  0  0  0  0  0  0  0  0  0  0  0
    9.5479  -10.6365    0.0000 O   0  0  0  0  0  0  0  0  0  0  0  0
    9.5479   -8.9865    0.0000 O   0  0  0  0  0  0  0  0  0  0  0  0
    8.1190  -10.6365    0.0000 C   0  0  2  0  0  0  0  0  0  0  0  0
    8.8334  -10.2240    0.0000 C   0  0  2  0  0  0  0  0  0  0  0  0
    8.8334   -9.3990    0.0000 C   0  0  1  0  0  0  0  0  0  0  0  0
    8.1190   -8.9865    0.0000 O   0  0  0  0  0  0  0  0  0  0  0  0
    6.6900  -10.6365    0.0000 O   0  0  0  0  0  0  0  0  0  0  0  0
    7.4045  -10.2240    0.0000 C   0  0  2  0  0  0  0  0  0  0  0  0
    7.4045   -9.3990    0.0000 C   0  0  1  0  0  0  0  0  0  0  0  0
    6.6900   -8.9865    0.0000 C   0  0  0  0  0  0  0  0  0  0  0  0
    5.2412   -3.2018    0.0000 C   0  0  0  0  0  0  0  0  0  0  0  0
    5.2432   -4.0268    0.0000 C   0  0  0  0  0  0  0  0  0  0  0  0
    4.5297   -4.4410    0.0000 C   0  0  0  0  0  0  0  0  0  0  0  0
    3.8143   -4.0302    0.0000 O   0  0  0  0  0  0  0  0  0  0  0  0
   10.2624   -6.0990    0.0000 H   0  0  0  0  0  0  0  0  0  0  0  0
   10.2624   -8.5740    0.0000 H   0  0  0  0  0  0  0  0  0  0  0  0
  1  2  1  0  0  0  0
  2  3  1  0  0  0  0
  3  4  1  0  0  0  0
  4  5  1  0  0  0  0
  5  6  1  0  0  0  0
  6  1  1  0  0  0  0
  5  7  1  1  0  0  0
  1  8  1  1  0  0  0
  8  9  1  0  0  0  0
  3 10  1  1  0  0  0
 37 12  1  1  0  0  0
  2 11  1  6  0  0  0
  4 13  1  6  0  0  0
 14 15  2  0  0  0  0
 38 35  1  6  0  0  0
 20 36  1  6  0  0  0
 20 21  1  0  0  0  0
 39 36  1  1  0  0  0
 20 22  1  0  0  0  0
 22 23  1  0  0  0  0
 23 24  1  0  0  0  0
 24 25  2  0  0  0  0
 25 21  1  0  0  0  0
 22 26  1  0  0  0  0
 26 27  2  0  0  0  0
 27 28  1  0  0  0  0
 28 23  1  0  0  0  0
 24 29  1  0  0  0  0
 29 30  2  0  0  0  0
 29 31  1  0  0  0  0
 31 32  1  0  0  0  0
 26 33  1  0  0  0  0
 33 34  1  0  0  0  0
 37 42  1  0  0  0  0
 38 37  1  0  0  0  0
 39 38  1  0  0  0  0
 40 39  1  0  0  0  0
 43 40  1  0  0  0  0
 42 41  1  6  0  0  0
 43 42  1  0  0  0  0
 43 44  1  1  0  0  0
  7 44  1  0  0  0  0
 15 16  1  0  0  0  0
 16 17  2  0  0  0  0
 17 18  1  0  0  0  0
 18 19  2  0  0  0  0
 19 14  1  0  0  0  0
 17 45  1  0  0  0  0
 45 46  2  0  0  0  0
 46 47  1  0  0  0  0
 47 48  2  0  0  0  0
 47  9  1  0  0  0  0
 23 49  1  6  0  0  0
 22 50  1  6  0  0  0
M  END
>  <cdx:fragmentId>
5

$$$$
