90652.cdx
  Mrv1902 05222410212D          

 26 27  0  0  0  0            999 V2000
    4.1500   -6.0764    0.0000 C   0  0  2  0  0  0  0  0  0  0  0  0
    4.5625   -5.3619    0.0000 C   0  0  0  0  0  0  0  0  0  0  0  0
    4.1500   -4.6475    0.0000 O   0  0  0  0  0  0  0  0  0  0  0  0
    5.3875   -5.3619    0.0000 O   0  0  0  0  0  0  0  0  0  0  0  0
    5.8000   -4.6475    0.0000 C   0  0  0  0  0  0  0  0  0  0  0  0
    3.7375   -5.3619    0.0000 O   0  0  0  0  0  0  0  0  0  0  0  0
    6.2934   -6.4889    0.0000 O   0  0  0  0  0  0  0  0  0  0  0  0
   10.5803   -8.9639    0.0000 O   0  0  0  0  0  0  0  0  0  0  0  0
   10.5803   -7.3139    0.0000 O   0  0  0  0  0  0  0  0  0  0  0  0
    2.7211   -7.7264    0.0000 O   0  0  0  0  0  0  0  0  0  0  0  0
    4.8645   -6.4889    0.0000 C   0  0  0  0  0  0  0  0  0  0  0  0
    3.4356   -6.4889    0.0000 C   0  0  0  0  0  0  0  0  0  0  0  0
    3.4356   -7.3139    0.0000 C   0  0  2  0  0  0  0  0  0  0  0  0
    4.8645   -7.3139    0.0000 C   0  0  2  0  0  0  0  0  0  0  0  0
    4.1500   -7.7264    0.0000 C   0  0  1  0  0  0  0  0  0  0  0  0
    4.1500   -8.5514    0.0000 O   0  0  0  0  0  0  0  0  0  0  0  0
    6.2934   -7.3139    0.0000 C   0  0  0  0  0  0  0  0  0  0  0  0
    5.5790   -7.7264    0.0000 O   0  0  0  0  0  0  0  0  0  0  0  0
    7.7224   -7.3139    0.0000 C   0  0  0  0  0  0  0  0  0  0  0  0
    7.0079   -7.7264    0.0000 C   0  0  0  0  0  0  0  0  0  0  0  0
    9.1513   -7.3139    0.0000 C   0  0  0  0  0  0  0  0  0  0  0  0
    8.4369   -7.7264    0.0000 C   0  0  0  0  0  0  0  0  0  0  0  0
    8.4369   -8.5514    0.0000 C   0  0  0  0  0  0  0  0  0  0  0  0
    9.1513   -8.9639    0.0000 C   0  0  0  0  0  0  0  0  0  0  0  0
    9.8658   -8.5514    0.0000 C   0  0  0  0  0  0  0  0  0  0  0  0
    9.8658   -7.7264    0.0000 C   0  0  0  0  0  0  0  0  0  0  0  0
  1  2  1  0  0  0  0
  2  3  2  0  0  0  0
  2  4  1  0  0  0  0
  4  5  1  0  0  0  0
 17  7  2  0  0  0  0
 25  8  1  0  0  0  0
 26  9  1  0  0  0  0
 13 10  1  6  0  0  0
 11 14  1  0  0  0  0
  1 11  1  0  0  0  0
 12  1  1  0  0  0  0
 13 12  1  0  0  0  0
 15 13  1  0  0  0  0
  1  6  1  1  0  0  0
 14 18  1  1  0  0  0
 15 14  1  0  0  0  0
 15 16  1  1  0  0  0
 17 20  1  0  0  0  0
 18 17  1  0  0  0  0
 19 22  1  0  0  0  0
 20 19  2  0  0  0  0
 21 26  1  0  0  0  0
 22 21  2  0  0  0  0
 23 22  1  0  0  0  0
 24 23  2  0  0  0  0
 25 24  1  0  0  0  0
 26 25  2  0  0  0  0
M  END
>  <cdx:fragmentId>
5

$$$$
