90651.cdx
  Mrv1902 05222410202D          

 26 27  0  0  0  0            999 V2000
    3.4356   -7.7264    0.0000 C   0  0  0  0  0  0  0  0  0  0  0  0
    3.4356   -8.5514    0.0000 C   0  0  0  0  0  0  0  0  0  0  0  0
    4.1500   -8.9639    0.0000 C   0  0  0  0  0  0  0  0  0  0  0  0
    4.8645   -8.5514    0.0000 C   0  0  0  0  0  0  0  0  0  0  0  0
    4.8645   -7.7264    0.0000 C   0  0  0  0  0  0  0  0  0  0  0  0
    4.1500   -7.3139    0.0000 C   0  0  0  0  0  0  0  0  0  0  0  0
    6.2934   -7.7264    0.0000 C   0  0  0  0  0  0  0  0  0  0  0  0
    5.5790   -7.3139    0.0000 C   0  0  0  0  0  0  0  0  0  0  0  0
    7.7224   -7.7264    0.0000 O   0  0  0  0  0  0  0  0  0  0  0  0
    7.0079   -7.3139    0.0000 C   0  0  0  0  0  0  0  0  0  0  0  0
    9.1513   -8.5514    0.0000 O   0  0  0  0  0  0  0  0  0  0  0  0
    9.1513   -7.7264    0.0000 C   0  0  1  0  0  0  0  0  0  0  0  0
    8.4369   -7.3139    0.0000 C   0  0  1  0  0  0  0  0  0  0  0  0
    9.8658   -7.3139    0.0000 C   0  0  1  0  0  0  0  0  0  0  0  0
    9.8658   -6.4889    0.0000 C   0  0  0  0  0  0  0  0  0  0  0  0
    9.1513   -6.0764    0.0000 C   0  0  2  0  0  0  0  0  0  0  0  0
    8.4369   -6.4889    0.0000 C   0  0  0  0  0  0  0  0  0  0  0  0
   10.5803   -7.7264    0.0000 O   0  0  0  0  0  0  0  0  0  0  0  0
    2.7211   -7.3139    0.0000 O   0  0  0  0  0  0  0  0  0  0  0  0
    2.7211   -8.9639    0.0000 O   0  0  0  0  0  0  0  0  0  0  0  0
    7.0079   -6.4889    0.0000 O   0  0  0  0  0  0  0  0  0  0  0  0
    9.5638   -5.3619    0.0000 C   0  0  0  0  0  0  0  0  0  0  0  0
    9.1513   -4.6475    0.0000 O   0  0  0  0  0  0  0  0  0  0  0  0
   10.3888   -5.3619    0.0000 O   0  0  0  0  0  0  0  0  0  0  0  0
   10.8013   -4.6475    0.0000 C   0  0  0  0  0  0  0  0  0  0  0  0
    8.7388   -5.3619    0.0000 O   0  0  0  0  0  0  0  0  0  0  0  0
  1  2  2  0  0  0  0
  2  3  1  0  0  0  0
  3  4  2  0  0  0  0
  4  5  1  0  0  0  0
  5  6  2  0  0  0  0
  6  1  1  0  0  0  0
  7  8  2  0  0  0  0
  8  5  1  0  0  0  0
  9 10  1  0  0  0  0
 10  7  1  0  0  0  0
 12 11  1  1  0  0  0
 12 13  1  0  0  0  0
 13  9  1  6  0  0  0
 12 14  1  0  0  0  0
 14 15  1  0  0  0  0
 15 16  1  0  0  0  0
 16 17  1  0  0  0  0
 17 13  1  0  0  0  0
 14 18  1  1  0  0  0
  1 19  1  0  0  0  0
  2 20  1  0  0  0  0
 10 21  2  0  0  0  0
 16 22  1  0  0  0  0
 22 23  2  0  0  0  0
 22 24  1  0  0  0  0
 24 25  1  0  0  0  0
 16 26  1  1  0  0  0
M  END
>  <cdx:fragmentId>
5

$$$$
