90654.cdx
  Mrv1902 05222410232D          

 71 76  0  0  0  0            999 V2000
    5.7046   -8.7183    0.0000 C   0  0  0  0  0  0  0  0  0  0  0  0
    5.7046   -9.5433    0.0000 C   0  0  0  0  0  0  0  0  0  0  0  0
    6.4190   -9.9558    0.0000 C   0  0  0  0  0  0  0  0  0  0  0  0
    7.1335   -9.5433    0.0000 C   0  0  0  0  0  0  0  0  0  0  0  0
    7.1335   -8.7183    0.0000 C   0  0  0  0  0  0  0  0  0  0  0  0
    6.4190   -8.3058    0.0000 C   0  0  0  0  0  0  0  0  0  0  0  0
    7.9181   -9.7982    0.0000 N   0  0  0  0  0  0  0  0  0  0  0  0
    8.4031   -9.1308    0.0000 C   0  0  0  0  0  0  0  0  0  0  0  0
    7.9181   -8.4634    0.0000 C   0  0  0  0  0  0  0  0  0  0  0  0
    9.2281   -9.1308    0.0000 N   0  0  0  0  0  0  0  0  0  0  0  0
    9.7130   -9.7982    0.0000 C   0  0  0  0  0  0  0  0  0  0  0  0
   10.4976   -9.5433    0.0000 C   0  0  0  0  0  0  0  0  0  0  0  0
   10.4976   -8.7183    0.0000 N   0  0  0  0  0  0  0  0  0  0  0  0
    9.7130   -8.4634    0.0000 C   0  0  0  0  0  0  0  0  0  0  0  0
   11.2121   -9.9558    0.0000 C   0  0  0  0  0  0  0  0  0  0  0  0
   11.9266   -9.5433    0.0000 C   0  0  2  0  0  0  0  0  0  0  0  0
   12.2139   -8.6240    0.0000 N   0  0  0  0  0  0  0  0  0  0  0  0
    4.9901   -9.9558    0.0000 C   0  0  2  0  0  0  0  0  0  0  0  0
    4.2756   -9.5433    0.0000 C   0  0  1  0  0  0  0  0  0  0  0  0
    3.8631   -8.8288    0.0000 C   0  0  0  0  0  0  0  0  0  0  0  0
    3.8631   -8.0038    0.0000 N   0  0  0  0  0  0  0  0  0  0  0  0
    3.0662   -9.0423    0.0000 O   0  0  0  0  0  0  0  0  0  0  0  0
    4.2756   -7.2893    0.0000 C   0  0  2  0  0  0  0  0  0  0  0  0
    4.9901   -6.8768    0.0000 C   0  0  0  0  0  0  0  0  0  0  0  0
    5.7046   -7.2893    0.0000 N   0  0  0  0  0  0  0  0  0  0  0  0
    6.4190   -6.8768    0.0000 C   0  0  2  0  0  0  0  0  0  0  0  0
    7.1335   -7.2893    0.0000 C   0  0  0  0  0  0  0  0  0  0  0  0
    7.8480   -6.8768    0.0000 N   0  0  0  0  0  0  0  0  0  0  0  0
    8.4387   -7.1381    0.0000 C   0  0  1  0  0  0  0  0  0  0  0  0
    7.1335   -8.1143    0.0000 O   0  0  0  0  0  0  0  0  0  0  0  0
    4.9901   -6.0518    0.0000 O   0  0  0  0  0  0  0  0  0  0  0  0
    6.4190   -6.0518    0.0000 C   0  0  0  0  0  0  0  0  0  0  0  0
    5.7046   -5.6393    0.0000 C   0  0  0  0  0  0  0  0  0  0  0  0
    7.1335   -5.6393    0.0000 C   0  0  0  0  0  0  0  0  0  0  0  0
    3.6923   -6.7060    0.0000 C   0  0  0  0  0  0  0  0  0  0  0  0
    3.9058   -5.9091    0.0000 C   0  0  0  0  0  0  0  0  0  0  0  0
    3.3224   -5.3257    0.0000 C   0  0  0  0  0  0  0  0  0  0  0  0
    4.9901  -10.7808    0.0000 C   0  0  0  0  0  0  0  0  0  0  0  0
    5.7046  -11.1933    0.0000 C   0  0  0  0  0  0  0  0  0  0  0  0
    4.2756  -11.1933    0.0000 C   0  0  0  0  0  0  0  0  0  0  0  0
    7.9181   -7.6384    0.0000 C   0  0  0  0  0  0  0  0  0  0  0  0
    9.2769   -6.8768    0.0000 C   0  0  0  0  0  0  0  0  0  0  0  0
    9.9914   -7.2893    0.0000 N   0  0  0  0  0  0  0  0  0  0  0  0
   10.7059   -6.8768    0.0000 C   0  0  1  0  0  0  0  0  0  0  0  0
    9.2769   -6.0518    0.0000 O   0  0  0  0  0  0  0  0  0  0  0  0
   10.7059   -6.0518    0.0000 C   0  0  0  0  0  0  0  0  0  0  0  0
   11.4203   -5.6393    0.0000 C   0  0  0  0  0  0  0  0  0  0  0  0
   11.4203   -4.8143    0.0000 C   0  0  0  0  0  0  0  0  0  0  0  0
   12.1348   -4.4018    0.0000 N   0  0  0  0  0  0  0  0  0  0  0  0
   12.8493   -4.8143    0.0000 C   0  0  0  0  0  0  0  0  0  0  0  0
   13.5638   -4.4018    0.0000 N   0  0  0  0  0  0  0  0  0  0  0  0
   12.8493   -5.6393    0.0000 N   0  0  0  0  0  0  0  0  0  0  0  0
   12.6110  -10.0039    0.0000 C   0  0  0  0  0  0  0  0  0  0  0  0
   13.3521   -9.6415    0.0000 O   0  0  0  0  0  0  0  0  0  0  0  0
   12.5543  -10.8270    0.0000 O   0  0  0  0  0  0  0  0  0  0  0  0
    3.6923  -10.1267    0.0000 N   0  0  0  0  0  0  0  0  0  0  0  0
    2.8954  -10.3402    0.0000 C   0  0  0  0  0  0  0  0  0  0  0  0
    2.8954  -11.1652    0.0000 O   0  0  0  0  0  0  0  0  0  0  0  0
    2.0985  -10.1267    0.0000 C   0  0  1  0  0  0  0  0  0  0  0  0
    1.8028   -9.3564    0.0000 N   0  0  0  0  0  0  0  0  0  0  0  0
    0.9790   -9.3996    0.0000 C   0  0  0  0  0  0  0  0  0  0  0  0
    0.7654  -10.1965    0.0000 C   0  0  0  0  0  0  0  0  0  0  0  0
    1.4573  -10.6458    0.0000 C   0  0  0  0  0  0  0  0  0  0  0  0
    0.4598   -8.7585    0.0000 O   0  0  0  0  0  0  0  0  0  0  0  0
    4.7027   -5.6956    0.0000 C   0  0  0  0  0  0  0  0  0  0  0  0
   11.4203   -7.2893    0.0000 C   0  0  0  0  0  0  0  0  0  0  0  0
   12.1348   -6.8768    0.0000 N   0  0  0  0  0  0  0  0  0  0  0  0
   11.4203   -8.1143    0.0000 O   0  0  0  0  0  0  0  0  0  0  0  0
   12.8493   -7.2893    0.0000 C   0  0  0  0  0  0  0  0  0  0  0  0
   13.0628   -8.0862    0.0000 C   0  0  0  0  0  0  0  0  0  0  0  0
   13.8225   -8.4080    0.0000 O   0  0  0  0  0  0  0  0  0  0  0  0
  1  2  2  0  0  0  0
  2  3  1  0  0  0  0
  3  4  2  0  0  0  0
  4  5  1  0  0  0  0
  5  6  2  0  0  0  0
  6  1  1  0  0  0  0
  4  7  1  0  0  0  0
  7  8  1  0  0  0  0
  8  9  2  0  0  0  0
  9  5  1  0  0  0  0
  8 10  1  0  0  0  0
 10 11  1  0  0  0  0
 11 12  2  0  0  0  0
 12 13  1  0  0  0  0
 13 14  2  0  0  0  0
 14 10  1  0  0  0  0
 12 15  1  0  0  0  0
 15 16  1  0  0  0  0
 16 17  1  0  0  0  0
  2 18  1  0  0  0  0
 18 19  1  0  0  0  0
 19 20  1  0  0  0  0
 20 21  1  0  0  0  0
 20 22  2  0  0  0  0
 21 23  1  0  0  0  0
 23 24  1  0  0  0  0
 24 25  1  0  0  0  0
 25 26  1  0  0  0  0
 26 27  1  0  0  0  0
 27 28  1  0  0  0  0
 28 29  1  0  0  0  0
 27 30  2  0  0  0  0
 24 31  2  0  0  0  0
 26 32  1  1  0  0  0
 32 33  1  0  0  0  0
 32 34  1  0  0  0  0
 23 35  1  1  0  0  0
 35 36  1  0  0  0  0
 36 37  1  0  0  0  0
 18 38  1  1  0  0  0
 38 39  1  0  0  0  0
 38 40  1  0  0  0  0
  9 41  1  0  0  0  0
 29 41  1  6  0  0  0
 29 42  1  0  0  0  0
 42 43  1  0  0  0  0
 43 44  1  0  0  0  0
 42 45  2  0  0  0  0
 44 46  1  1  0  0  0
 46 47  1  0  0  0  0
 47 48  1  0  0  0  0
 48 49  1  0  0  0  0
 49 50  1  0  0  0  0
 50 51  1  0  0  0  0
 50 52  2  0  0  0  0
 16 53  1  6  0  0  0
 53 54  2  0  0  0  0
 53 55  1  0  0  0  0
 19 56  1  6  0  0  0
 56 57  1  0  0  0  0
 57 58  2  0  0  0  0
 57 59  1  0  0  0  0
 59 60  1  6  0  0  0
 60 61  1  0  0  0  0
 61 62  1  0  0  0  0
 62 63  1  0  0  0  0
 63 59  1  0  0  0  0
 61 64  2  0  0  0  0
 36 65  1  0  0  0  0
 44 66  1  0  0  0  0
 66 67  1  0  0  0  0
 66 68  2  0  0  0  0
 67 69  1  0  0  0  0
 69 70  1  0  0  0  0
 17 70  1  0  0  0  0
 70 71  2  0  0  0  0
M  END
>  <cdx:fragmentId>
5

$$$$
