90657.cdx
  Mrv1902 05222410222D          

 16 18  0  0  0  0            999 V2000
    6.9272   -9.0832    0.0000 C   0  0  0  0  0  0  0  0  0  0  0  0
    5.9303  -10.0645    0.0000 C   0  0  0  0  0  0  0  0  0  0  0  0
    4.8925   -9.6735    0.0000 O   0  0  0  0  0  0  0  0  0  0  0  0
    5.3981   -8.6591    0.0000 C   0  0  0  0  0  0  0  0  0  0  0  0
    6.7149   -8.3039    0.0000 C   0  0  0  0  0  0  0  0  0  0  0  0
    7.1726   -7.4044    0.0000 C   0  0  0  0  0  0  0  0  0  0  0  0
    8.4934   -8.4753    0.0000 C   0  0  0  0  0  0  0  0  0  0  0  0
    7.9899   -9.2234    0.0000 C   0  0  0  0  0  0  0  0  0  0  0  0
    6.1330  -10.8642    0.0000 O   0  0  0  0  0  0  0  0  0  0  0  0
    6.7601   -6.6899    0.0000 C   0  0  0  0  0  0  0  0  0  0  0  0
    5.9632   -6.4764    0.0000 C   0  0  0  0  0  0  0  0  0  0  0  0
    5.1388   -6.9714    0.0000 C   0  0  0  0  0  0  0  0  0  0  0  0
    6.7601   -5.8649    0.0000 C   0  0  0  0  0  0  0  0  0  0  0  0
    7.5851   -6.6899    0.0000 C   0  0  0  0  0  0  0  0  0  0  0  0
    4.9252   -7.7683    0.0000 C   0  0  0  0  0  0  0  0  0  0  0  0
    4.4087   -9.0789    0.0000 C   0  0  0  0  0  0  0  0  0  0  0  0
  2  3  1  0  0  0  0
  3  4  1  0  0  0  0
  4  5  1  0  0  0  0
  5  6  1  0  0  0  0
  5  7  1  0  0  0  0
  7  8  1  0  0  0  0
  1  8  1  0  0  0  0
  2  1  1  0  0  0  0
  6  1  1  0  0  0  0
  2  9  2  0  0  0  0
  6 10  1  0  0  0  0
 10 11  1  0  0  0  0
 11 12  1  0  0  0  0
 10 13  1  0  0  0  0
 10 14  1  0  0  0  0
 12 15  1  0  0  0  0
 15  4  1  0  0  0  0
  4 16  1  0  0  0  0
M  END
>  <cdx:groupId>
843

>  <cdx:fragmentId>
844

$$$$
