90650.cdx
  Mrv1902 05222410212D          

 31 34  0  0  0  0            999 V2000
    5.5256   -6.7364    0.0000 C   0  0  0  0  0  0  0  0  0  0  0  0
    5.5256   -7.5614    0.0000 C   0  0  0  0  0  0  0  0  0  0  0  0
    6.2400   -7.9739    0.0000 C   0  0  0  0  0  0  0  0  0  0  0  0
    6.9545   -7.5614    0.0000 C   0  0  0  0  0  0  0  0  0  0  0  0
    6.9545   -6.7364    0.0000 C   0  0  0  0  0  0  0  0  0  0  0  0
    6.2400   -6.3239    0.0000 C   0  0  0  0  0  0  0  0  0  0  0  0
    6.2400   -8.7989    0.0000 C   0  0  0  0  0  0  0  0  0  0  0  0
    6.9545   -9.2114    0.0000 C   0  0  0  0  0  0  0  0  0  0  0  0
    7.6690   -8.7989    0.0000 C   0  0  0  0  0  0  0  0  0  0  0  0
    7.6690   -7.9739    0.0000 O   0  0  0  0  0  0  0  0  0  0  0  0
    4.8111   -7.9739    0.0000 O   0  5  0  0  0  0  0  0  0  0  0  0
    5.5256   -9.2114    0.0000 O   0  0  0  0  0  0  0  0  0  0  0  0
    6.9545  -10.0364    0.0000 O   0  0  0  0  0  0  0  0  0  0  0  0
    8.3834  -10.0364    0.0000 C   0  0  0  0  0  0  0  0  0  0  0  0
    8.3834   -9.2114    0.0000 C   0  0  0  0  0  0  0  0  0  0  0  0
    5.5256  -10.0364    0.0000 O   0  0  0  0  0  0  0  0  0  0  0  0
    6.2400  -10.4489    0.0000 C   0  0  2  0  0  0  0  0  0  0  0  0
    9.0979  -10.4489    0.0000 C   0  0  0  0  0  0  0  0  0  0  0  0
    9.8124  -10.0364    0.0000 C   0  0  0  0  0  0  0  0  0  0  0  0
    9.8124   -9.2114    0.0000 C   0  0  0  0  0  0  0  0  0  0  0  0
    9.0979   -8.7989    0.0000 C   0  0  0  0  0  0  0  0  0  0  0  0
    4.8111  -10.4489    0.0000 C   0  0  2  0  0  0  0  0  0  0  0  0
    4.8111  -11.2739    0.0000 C   0  0  1  0  0  0  0  0  0  0  0  0
    5.5256  -11.6864    0.0000 C   0  0  2  0  0  0  0  0  0  0  0  0
    6.2400  -11.2739    0.0000 C   0  0  1  0  0  0  0  0  0  0  0  0
    6.2400   -5.4989    0.0000 O   0  0  0  0  0  0  0  0  0  0  0  0
   10.5269  -10.4489    0.0000 O   0  0  0  0  0  0  0  0  0  0  0  0
    4.0966  -11.6864    0.0000 O   0  0  0  0  0  0  0  0  0  0  0  0
    4.0966  -10.0364    0.0000 C   0  0  0  0  0  0  0  0  0  0  0  0
    5.5256  -12.5114    0.0000 O   0  0  0  0  0  0  0  0  0  0  0  0
    6.9545  -11.6864    0.0000 O   0  0  0  0  0  0  0  0  0  0  0  0
  1  2  1  0  0  0  0
  2  3  2  0  0  0  0
  3  4  1  0  0  0  0
  4  5  2  0  0  0  0
  5  6  1  0  0  0  0
  6  1  2  0  0  0  0
  3  7  1  0  0  0  0
  7  8  1  0  0  0  0
  8  9  2  0  0  0  0
  9 10  1  0  0  0  0
 10  4  1  0  0  0  0
  2 11  1  0  0  0  0
 12  7  2  0  0  0  0
  8 13  1  0  0  0  0
 14 15  2  0  0  0  0
 15  9  1  0  0  0  0
 16 17  1  0  0  0  0
 17 13  1  1  0  0  0
 14 18  1  0  0  0  0
 18 19  2  0  0  0  0
 19 20  1  0  0  0  0
 20 21  2  0  0  0  0
 21 15  1  0  0  0  0
 16 22  1  0  0  0  0
 22 23  1  0  0  0  0
 23 24  1  0  0  0  0
 24 25  1  0  0  0  0
 25 17  1  0  0  0  0
  6 26  1  0  0  0  0
 19 27  1  0  0  0  0
 23 28  1  1  0  0  0
 22 29  1  6  0  0  0
 24 30  1  6  0  0  0
 25 31  1  6  0  0  0
M  CHG  1  11  -1
M  END
>  <cdx:fragmentId>
5

$$$$
