90653.cdx
  Mrv1902 05222410212D          

 46 49  0  0  0  0            999 V2000
    2.6793   -9.4726    0.0000 C   0  0  0  0  0  0  0  0  0  0  0  0
    4.1082  -10.2976    0.0000 O   0  0  0  0  0  0  0  0  0  0  0  0
    4.1082   -9.4726    0.0000 C   0  0  0  0  0  0  0  0  0  0  0  0
    3.3938   -9.0601    0.0000 O   0  0  0  0  0  0  0  0  0  0  0  0
    4.8227  -10.7101    0.0000 C   0  0  0  0  0  0  0  0  0  0  0  0
    5.5372  -10.2976    0.0000 C   0  0  0  0  0  0  0  0  0  0  0  0
    5.5372   -9.4726    0.0000 C   0  0  1  0  0  0  0  0  0  0  0  0
    4.8227   -9.0601    0.0000 C   0  0  0  0  0  0  0  0  0  0  0  0
    6.2517  -10.7101    0.0000 C   0  0  0  0  0  0  0  0  0  0  0  0
    6.9661  -10.2976    0.0000 O   0  0  0  0  0  0  0  0  0  0  0  0
    6.9661   -9.4726    0.0000 C   0  0  0  0  0  0  0  0  0  0  0  0
    6.2517   -9.0601    0.0000 C   0  0  0  0  0  0  0  0  0  0  0  0
    8.3951  -10.2976    0.0000 C   0  0  0  0  0  0  0  0  0  0  0  0
    8.3951   -9.4726    0.0000 C   0  0  0  0  0  0  0  0  0  0  0  0
    7.6806   -9.0601    0.0000 C   0  0  0  0  0  0  0  0  0  0  0  0
    4.8227  -11.5351    0.0000 C   0  0  0  0  0  0  0  0  0  0  0  0
    5.5372  -11.9476    0.0000 C   0  0  0  0  0  0  0  0  0  0  0  0
    6.2517  -11.5351    0.0000 C   0  0  0  0  0  0  0  0  0  0  0  0
    8.3951  -11.9476    0.0000 C   0  0  0  0  0  0  0  0  0  0  0  0
    9.1095  -11.5351    0.0000 C   0  0  0  0  0  0  0  0  0  0  0  0
    9.1095  -10.7101    0.0000 C   0  0  0  0  0  0  0  0  0  0  0  0
    8.3951  -12.7726    0.0000 C   0  0  0  0  0  0  0  0  0  0  0  0
    9.1095  -13.1851    0.0000 C   0  0  0  0  0  0  0  0  0  0  0  0
    9.8240  -12.7726    0.0000 C   0  0  0  0  0  0  0  0  0  0  0  0
    9.8240  -11.9476    0.0000 C   0  0  0  0  0  0  0  0  0  0  0  0
    7.6806   -8.2351    0.0000 C   0  0  0  0  0  0  0  0  0  0  0  0
    6.9661   -7.8226    0.0000 C   0  0  0  0  0  0  0  0  0  0  0  0
    6.2517   -8.2351    0.0000 C   0  0  0  0  0  0  0  0  0  0  0  0
    5.5372  -12.7726    0.0000 O   0  0  0  0  0  0  0  0  0  0  0  0
    9.1095   -9.0601    0.0000 O   0  0  0  0  0  0  0  0  0  0  0  0
    9.1095  -14.0101    0.0000 O   0  0  0  0  0  0  0  0  0  0  0  0
    5.5372   -7.8226    0.0000 O   0  0  0  0  0  0  0  0  0  0  0  0
    8.3951   -7.8226    0.0000 O   0  0  0  0  0  0  0  0  0  0  0  0
    6.3828   -7.2393    0.0000 O   0  0  0  0  0  0  0  0  0  0  0  0
    7.5495   -7.2393    0.0000 C   0  0  2  0  0  0  0  0  0  0  0  0
    8.3464   -7.4528    0.0000 O   0  0  0  0  0  0  0  0  0  0  0  0
    8.9297   -6.8694    0.0000 C   0  0  1  0  0  0  0  0  0  0  0  0
    8.7162   -6.0726    0.0000 C   0  0  2  0  0  0  0  0  0  0  0  0
    7.9193   -5.8590    0.0000 C   0  0  1  0  0  0  0  0  0  0  0  0
    7.3360   -6.4424    0.0000 C   0  0  1  0  0  0  0  0  0  0  0  0
    9.7266   -7.0830    0.0000 C   0  0  0  0  0  0  0  0  0  0  0  0
    7.7058   -5.0621    0.0000 O   0  0  0  0  0  0  0  0  0  0  0  0
    9.2996   -5.4892    0.0000 O   0  0  0  0  0  0  0  0  0  0  0  0
    6.5391   -6.2289    0.0000 O   0  0  0  0  0  0  0  0  0  0  0  0
   10.3100   -6.4996    0.0000 O   0  0  0  0  0  0  0  0  0  0  0  0
    7.7630   -8.0362    0.0000 H   0  0  0  0  0  0  0  0  0  0  0  0
  2  3  2  0  0  0  0
  3  4  1  0  0  0  0
  4  1  1  0  0  0  0
  5  6  2  0  0  0  0
  7  6  1  1  0  0  0
  7  8  1  0  0  0  0
  8  3  1  0  0  0  0
  6  9  1  0  0  0  0
 10 11  2  0  0  0  0
 11 12  1  0  0  0  0
 12  7  1  0  0  0  0
 13 14  1  0  0  0  0
 14 15  1  0  0  0  0
 15 11  1  0  0  0  0
  5 16  1  0  0  0  0
 16 17  2  0  0  0  0
 17 18  1  0  0  0  0
 18  9  2  0  0  0  0
 19 20  2  0  0  0  0
 20 21  1  0  0  0  0
 21 13  2  0  0  0  0
 19 22  1  0  0  0  0
 22 23  2  0  0  0  0
 23 24  1  0  0  0  0
 24 25  2  0  0  0  0
 25 20  1  0  0  0  0
 15 26  2  0  0  0  0
 26 27  1  0  0  0  0
 27 28  1  0  0  0  0
 28 12  2  0  0  0  0
 17 29  1  0  0  0  0
 14 30  2  0  0  0  0
 23 31  1  0  0  0  0
 28 32  1  0  0  0  0
 26 33  1  0  0  0  0
 27 34  1  0  0  0  0
 27 35  1  0  0  0  0
 35 36  1  0  0  0  0
 36 37  1  0  0  0  0
 37 38  1  0  0  0  0
 38 39  1  0  0  0  0
 39 40  1  0  0  0  0
 40 35  1  0  0  0  0
 37 41  1  1  0  0  0
 39 42  1  1  0  0  0
 38 43  1  6  0  0  0
 40 44  1  6  0  0  0
 41 45  1  0  0  0  0
 35 46  1  6  0  0  0
M  END
>  <cdx:fragmentId>
5

$$$$
