90656.cdx
  Mrv1902 05222410222D          

 26 28  0  0  0  0            999 V2000
    3.0643   -8.4414    0.0000 C   0  0  0  0  0  0  0  0  0  0  0  0
    3.0643   -9.2664    0.0000 C   0  0  0  0  0  0  0  0  0  0  0  0
    3.7788   -9.6789    0.0000 C   0  0  0  0  0  0  0  0  0  0  0  0
    4.4932   -9.2664    0.0000 C   0  0  0  0  0  0  0  0  0  0  0  0
    4.4932   -8.4414    0.0000 C   0  0  0  0  0  0  0  0  0  0  0  0
    3.7788   -8.0289    0.0000 C   0  0  0  0  0  0  0  0  0  0  0  0
    5.2779   -9.5213    0.0000 N   0  0  0  0  0  0  0  0  0  0  0  0
    5.7628   -8.8539    0.0000 C   0  0  0  0  0  0  0  0  0  0  0  0
    5.2779   -8.1865    0.0000 C   0  0  0  0  0  0  0  0  0  0  0  0
    5.5328  -10.3060    0.0000 O   0  0  0  0  0  0  0  0  0  0  0  0
    4.9808  -10.9191    0.0000 C   0  0  0  0  0  0  0  0  0  0  0  0
    5.5328   -7.4018    0.0000 C   0  0  0  0  0  0  0  0  0  0  0  0
    6.5878   -8.8539    0.0000 C   0  0  2  0  0  0  0  0  0  0  0  0
    7.0003   -9.5684    0.0000 O   0  0  0  0  0  0  0  0  0  0  0  0
    7.8253   -9.5684    0.0000 C   0  0  1  0  0  0  0  0  0  0  0  0
    8.2378   -8.8539    0.0000 C   0  0  2  0  0  0  0  0  0  0  0  0
    7.8253   -8.1394    0.0000 C   0  0  1  0  0  0  0  0  0  0  0  0
    7.0003   -8.1394    0.0000 C   0  0  1  0  0  0  0  0  0  0  0  0
    5.1203   -6.6874    0.0000 C   0  0  0  0  0  0  0  0  0  0  0  0
    5.3338   -5.8905    0.0000 N   0  0  0  0  0  0  0  0  0  0  0  0
    6.5878   -7.4250    0.0000 O   0  0  0  0  0  0  0  0  0  0  0  0
    9.0628   -8.8539    0.0000 O   0  0  0  0  0  0  0  0  0  0  0  0
    8.2378   -7.4250    0.0000 O   0  0  0  0  0  0  0  0  0  0  0  0
    8.2378  -10.2828    0.0000 C   0  0  0  0  0  0  0  0  0  0  0  0
    9.0628  -10.2828    0.0000 O   0  0  0  0  0  0  0  0  0  0  0  0
    6.1753   -9.5684    0.0000 H   0  0  0  0  0  0  0  0  0  0  0  0
  1  2  2  0  0  0  0
  2  3  1  0  0  0  0
  3  4  2  0  0  0  0
  4  5  1  0  0  0  0
  5  6  2  0  0  0  0
  6  1  1  0  0  0  0
  4  7  1  0  0  0  0
  7  8  1  0  0  0  0
  8  9  2  0  0  0  0
  9  5  1  0  0  0  0
  7 10  1  0  0  0  0
 10 11  1  0  0  0  0
  9 12  1  0  0  0  0
  8 13  1  0  0  0  0
 13 14  1  0  0  0  0
 14 15  1  0  0  0  0
 15 16  1  0  0  0  0
 16 17  1  0  0  0  0
 17 18  1  0  0  0  0
 18 13  1  0  0  0  0
 12 19  1  0  0  0  0
 19 20  3  0  0  0  0
 18 21  1  6  0  0  0
 16 22  1  6  0  0  0
 17 23  1  1  0  0  0
 15 24  1  1  0  0  0
 24 25  1  0  0  0  0
 13 26  1  6  0  0  0
M  END
>  <cdx:fragmentId>
5

$$$$
