90655.cdx
  Mrv1902 05222410232D          

 21 21  0  0  0  0            999 V2000
    5.4647  -12.0730    0.0000 C   0  0  0  0  0  0  0  0  0  0  0  0
    5.7247  -12.8559    0.0000 C   0  0  0  0  0  0  0  0  0  0  0  0
    6.5497  -12.8506    0.0000 C   0  0  0  0  0  0  0  0  0  0  0  0
    6.7995  -12.0644    0.0000 C   0  0  0  0  0  0  0  0  0  0  0  0
    6.1290  -11.5838    0.0000 N   0  0  0  0  0  0  0  0  0  0  0  0
    4.6784  -11.8231    0.0000 C   0  0  0  0  0  0  0  0  0  0  0  0
    4.6784  -10.9981    0.0000 O   0  0  0  0  0  0  0  0  0  0  0  0
    7.5825  -11.8043    0.0000 C   0  0  0  0  0  0  0  0  0  0  0  0
    8.2997  -12.2121    0.0000 O   0  0  0  0  0  0  0  0  0  0  0  0
    9.0114  -11.7949    0.0000 C   0  0  0  0  0  0  0  0  0  0  0  0
    9.7286  -12.2027    0.0000 C   0  0  0  0  0  0  0  0  0  0  0  0
    9.0060  -10.9699    0.0000 C   0  0  0  0  0  0  0  0  0  0  0  0
   10.4403  -11.7855    0.0000 C   0  0  0  0  0  0  0  0  0  0  0  0
    9.7340  -13.0277    0.0000 O   0  0  0  0  0  0  0  0  0  0  0  0
    6.1427   -9.8100    0.0000 C   0  0  0  0  0  0  0  0  0  0  0  0
    5.4315   -9.3920    0.0000 C   0  0  0  0  0  0  0  0  0  0  0  0
    4.7170   -9.8045    0.0000 C   0  0  0  0  0  0  0  0  0  0  0  0
    4.0025   -9.3920    0.0000 C   0  0  0  0  0  0  0  0  0  0  0  0
    3.2881   -9.8045    0.0000 O   0  0  0  0  0  0  0  0  0  0  0  0
    4.0025   -8.5670    0.0000 O   0  0  0  0  0  0  0  0  0  0  0  0
    3.8816  -12.0367    0.0000 H   0  0  0  0  0  0  0  0  0  0  0  0
  1  2  2  0  0  0  0
  2  3  1  0  0  0  0
  3  4  2  0  0  0  0
  4  5  1  0  0  0  0
  5  1  1  0  0  0  0
  1  6  1  0  0  0  0
  6  7  2  0  0  0  0
  4  8  1  0  0  0  0
  8  9  1  0  0  0  0
  9 10  1  0  0  0  0
 10 11  1  0  0  0  0
 10 12  1  0  0  0  0
 11 13  1  0  0  0  0
 11 14  1  0  0  0  0
  5 15  1  0  0  0  0
 15 16  1  0  0  0  0
 16 17  1  0  0  0  0
 17 18  1  0  0  0  0
 18 19  1  0  0  0  0
 18 20  2  0  0  0  0
  6 21  1  0  0  0  0
M  END
>  <cdx:fragmentId>
5

$$$$
