90665.cdx
  Mrv1902 05222410232D          

 59 64  0  0  0  0            999 V2000
    2.1228   -2.9822    0.0000 O   0  0  0  0  0  0  0  0  0  0  0  0
    2.5248   -3.7026    0.0000 C   0  0  2  0  0  0  0  0  0  0  0  0
    3.3497   -3.7147    0.0000 C   0  0  1  0  0  0  0  0  0  0  0  0
    3.7727   -3.0064    0.0000 C   0  0  0  0  0  0  0  0  0  0  0  0
    3.3707   -2.2860    0.0000 O   0  0  0  0  0  0  0  0  0  0  0  0
    2.1019   -4.4110    0.0000 C   0  0  1  0  0  0  0  0  0  0  0  0
    2.5038   -5.1314    0.0000 C   0  0  2  0  0  0  0  0  0  0  0  0
    3.3287   -5.1435    0.0000 C   0  0  1  0  0  0  0  0  0  0  0  0
    3.7517   -4.4352    0.0000 O   0  0  0  0  0  0  0  0  0  0  0  0
    3.7307   -5.8640    0.0000 O   0  0  0  0  0  0  0  0  0  0  0  0
    4.5556   -5.8761    0.0000 C   0  0  0  0  0  0  0  0  0  0  0  0
    3.7097   -7.2928    0.0000 O   0  0  0  0  0  0  0  0  0  0  0  0
    4.5346   -7.3049    0.0000 C   0  0  2  0  0  0  0  0  0  0  0  0
    4.9576   -6.5966    0.0000 C   0  0  2  0  0  0  0  0  0  0  0  0
    4.9366   -8.0253    0.0000 C   0  0  1  0  0  0  0  0  0  0  0  0
    5.7615   -8.0375    0.0000 C   0  0  2  0  0  0  0  0  0  0  0  0
    6.1844   -7.3291    0.0000 C   0  0  1  0  0  0  0  0  0  0  0  0
    5.7825   -6.6087    0.0000 O   0  0  0  0  0  0  0  0  0  0  0  0
    7.0094   -7.3412    0.0000 O   0  0  0  0  0  0  0  0  0  0  0  0
    7.8343   -7.3534    0.0000 C   0  0  0  0  0  0  0  0  0  0  0  0
    8.2362   -8.0738    0.0000 C   0  0  0  0  0  0  0  0  0  0  0  0
    9.0611   -8.0859    0.0000 C   0  0  0  0  0  0  0  0  0  0  0  0
    9.4841   -7.3776    0.0000 C   0  0  0  0  0  0  0  0  0  0  0  0
    9.0821   -6.6571    0.0000 C   0  0  0  0  0  0  0  0  0  0  0  0
    8.2572   -6.6450    0.0000 C   0  0  0  0  0  0  0  0  0  0  0  0
    9.6041   -8.7071    0.0000 N   0  0  0  0  0  0  0  0  0  0  0  0
   10.3626   -8.3826    0.0000 C   0  0  1  0  0  0  0  0  0  0  0  0
   10.2885   -7.5609    0.0000 C   0  0  0  0  0  0  0  0  0  0  0  0
    7.8553   -5.9246    0.0000 O   0  0  0  0  0  0  0  0  0  0  0  0
    9.4208   -9.5114    0.0000 C   0  0  0  0  0  0  0  0  0  0  0  0
    8.6325   -9.7548    0.0000 O   0  0  0  0  0  0  0  0  0  0  0  0
   10.0257  -10.0724    0.0000 C   0  0  0  0  0  0  0  0  0  0  0  0
    9.8005  -10.8661    0.0000 C   0  0  0  0  0  0  0  0  0  0  0  0
   10.3752  -11.4579    0.0000 C   0  0  0  0  0  0  0  0  0  0  0  0
   10.1500  -12.2516    0.0000 C   0  0  0  0  0  0  0  0  0  0  0  0
   10.7247  -12.8435    0.0000 C   0  0  0  0  0  0  0  0  0  0  0  0
   11.5247  -12.6417    0.0000 C   0  0  0  0  0  0  0  0  0  0  0  0
   11.7499  -11.8480    0.0000 C   0  0  0  0  0  0  0  0  0  0  0  0
   11.1751  -11.2561    0.0000 C   0  0  0  0  0  0  0  0  0  0  0  0
   12.5498  -11.6462    0.0000 H   0  0  0  0  0  0  0  0  0  0  0  0
   12.0994  -13.2335    0.0000 O   0  0  0  0  0  0  0  0  0  0  0  0
    1.2769   -4.3989    0.0000 O   0  0  0  0  0  0  0  0  0  0  0  0
    4.5136   -8.7337    0.0000 O   0  0  0  0  0  0  0  0  0  0  0  0
   11.0710   -8.8055    0.0000 C   0  0  0  0  0  0  0  0  0  0  0  0
   11.7914   -8.4036    0.0000 O   0  0  0  0  0  0  0  0  0  0  0  0
   11.0589   -9.6305    0.0000 O   0  0  0  0  0  0  0  0  0  0  0  0
    2.0809   -5.8398    0.0000 O   0  0  0  0  0  0  0  0  0  0  0  0
    6.1635   -8.7579    0.0000 O   0  0  0  0  0  0  0  0  0  0  0  0
   10.4977  -14.7196    0.0000 C   0  0  2  0  0  0  0  0  0  0  0  0
   10.9324  -15.4208    0.0000 C   0  0  2  0  0  0  0  0  0  0  0  0
   11.7570  -15.3950    0.0000 C   0  0  1  0  0  0  0  0  0  0  0  0
   12.1469  -14.6680    0.0000 C   0  0  2  0  0  0  0  0  0  0  0  0
   11.7123  -13.9668    0.0000 C   0  0  1  0  0  0  0  0  0  0  0  0
   10.8877  -13.9926    0.0000 O   0  0  0  0  0  0  0  0  0  0  0  0
    9.6731  -14.7454    0.0000 C   0  0  0  0  0  0  0  0  0  0  0  0
   12.1916  -16.0963    0.0000 O   0  0  0  0  0  0  0  0  0  0  0  0
   10.5424  -16.1478    0.0000 O   0  0  0  0  0  0  0  0  0  0  0  0
   12.9715  -14.6422    0.0000 O   0  0  0  0  0  0  0  0  0  0  0  0
    9.2832  -15.4724    0.0000 O   0  0  0  0  0  0  0  0  0  0  0  0
  2  1  1  6  0  0  0
  2  3  1  0  0  0  0
  3  4  1  1  0  0  0
  4  5  1  0  0  0  0
  2  6  1  0  0  0  0
  6  7  1  0  0  0  0
  7  8  1  0  0  0  0
  8  9  1  0  0  0  0
  9  3  1  0  0  0  0
  8 10  1  1  0  0  0
 10 11  1  0  0  0  0
 13 12  1  6  0  0  0
 13 14  1  0  0  0  0
 14 11  1  1  0  0  0
 13 15  1  0  0  0  0
 15 16  1  0  0  0  0
 16 17  1  0  0  0  0
 17 18  1  0  0  0  0
 18 14  1  0  0  0  0
 17 19  1  1  0  0  0
 19 20  1  0  0  0  0
 20 21  2  0  0  0  0
 21 22  1  0  0  0  0
 22 23  2  0  0  0  0
 23 24  1  0  0  0  0
 24 25  2  0  0  0  0
 25 20  1  0  0  0  0
 22 26  1  0  0  0  0
 26 27  1  0  0  0  0
 27 28  1  0  0  0  0
 28 23  1  0  0  0  0
 25 29  1  0  0  0  0
 26 30  1  0  0  0  0
 30 31  2  0  0  0  0
 30 32  1  0  0  0  0
 32 33  2  0  0  0  0
 33 34  1  0  0  0  0
 34 35  2  0  0  0  0
 35 36  1  0  0  0  0
 36 37  2  0  0  0  0
 37 38  1  0  0  0  0
 38 39  2  0  0  0  0
 39 34  1  0  0  0  0
 38 40  1  0  0  0  0
 37 41  1  0  0  0  0
  6 42  1  1  0  0  0
 15 43  1  1  0  0  0
 27 44  1  1  0  0  0
  7 47  1  6  0  0  0
 16 48  1  6  0  0  0
 49 50  1  0  0  0  0
 50 51  1  0  0  0  0
 51 52  1  0  0  0  0
 52 53  1  0  0  0  0
 53 54  1  0  0  0  0
 54 49  1  0  0  0  0
 49 55  1  1  0  0  0
 51 56  1  1  0  0  0
 50 57  1  6  0  0  0
 52 58  1  6  0  0  0
 55 59  1  0  0  0  0
 53 41  1  1  0  0  0
 44 45  2  0  0  0  0
 44 46  1  0  0  0  0
M  STY  1   1 SUP
M  SAL   1  3  44  45  46
M  SBL   1  1  48
M  SMT   1 COOH
M  SAP   1  1  44  27  1
M  END
>  <cdx:fragmentId>
5

$$$$
