90667.cdx
  Mrv1902 05222410242D          

 72 78  0  0  0  0            999 V2000
    3.1403   -3.0097    0.0000 O   0  0  0  0  0  0  0  0  0  0  0  0
    3.5423   -3.7301    0.0000 C   0  0  2  0  0  0  0  0  0  0  0  0
    4.3672   -3.7422    0.0000 C   0  0  1  0  0  0  0  0  0  0  0  0
    4.7902   -3.0339    0.0000 C   0  0  0  0  0  0  0  0  0  0  0  0
    4.3882   -2.3135    0.0000 O   0  0  0  0  0  0  0  0  0  0  0  0
    3.1194   -4.4385    0.0000 C   0  0  1  0  0  0  0  0  0  0  0  0
    3.5213   -5.1589    0.0000 C   0  0  2  0  0  0  0  0  0  0  0  0
    4.3462   -5.1710    0.0000 C   0  0  1  0  0  0  0  0  0  0  0  0
    4.7692   -4.4627    0.0000 O   0  0  0  0  0  0  0  0  0  0  0  0
    4.7482   -5.8915    0.0000 O   0  0  0  0  0  0  0  0  0  0  0  0
    5.5731   -5.9036    0.0000 C   0  0  0  0  0  0  0  0  0  0  0  0
    4.7272   -7.3203    0.0000 O   0  0  0  0  0  0  0  0  0  0  0  0
    5.5521   -7.3324    0.0000 C   0  0  2  0  0  0  0  0  0  0  0  0
    5.9751   -6.6241    0.0000 C   0  0  2  0  0  0  0  0  0  0  0  0
    5.9541   -8.0528    0.0000 C   0  0  1  0  0  0  0  0  0  0  0  0
    6.7790   -8.0650    0.0000 C   0  0  2  0  0  0  0  0  0  0  0  0
    7.2019   -7.3566    0.0000 C   0  0  1  0  0  0  0  0  0  0  0  0
    6.8000   -6.6362    0.0000 O   0  0  0  0  0  0  0  0  0  0  0  0
    8.0269   -7.3687    0.0000 O   0  0  0  0  0  0  0  0  0  0  0  0
    8.8518   -7.3809    0.0000 C   0  0  0  0  0  0  0  0  0  0  0  0
    9.2537   -8.1013    0.0000 C   0  0  0  0  0  0  0  0  0  0  0  0
   10.0786   -8.1134    0.0000 C   0  0  0  0  0  0  0  0  0  0  0  0
   10.5016   -7.4051    0.0000 C   0  0  0  0  0  0  0  0  0  0  0  0
   10.0996   -6.6846    0.0000 C   0  0  0  0  0  0  0  0  0  0  0  0
    9.2747   -6.6725    0.0000 C   0  0  0  0  0  0  0  0  0  0  0  0
   10.6216   -8.7346    0.0000 N   0  0  0  0  0  0  0  0  0  0  0  0
   11.3801   -8.4101    0.0000 C   0  0  1  0  0  0  0  0  0  0  0  0
   11.3060   -7.5884    0.0000 C   0  0  0  0  0  0  0  0  0  0  0  0
    8.8728   -5.9521    0.0000 O   0  0  0  0  0  0  0  0  0  0  0  0
   10.4383   -9.5389    0.0000 C   0  0  0  0  0  0  0  0  0  0  0  0
    9.6500   -9.7823    0.0000 O   0  0  0  0  0  0  0  0  0  0  0  0
   11.0432  -10.0999    0.0000 C   0  0  0  0  0  0  0  0  0  0  0  0
   10.8180  -10.8936    0.0000 C   0  0  0  0  0  0  0  0  0  0  0  0
   11.3927  -11.4854    0.0000 C   0  0  0  0  0  0  0  0  0  0  0  0
   11.1675  -12.2791    0.0000 C   0  0  0  0  0  0  0  0  0  0  0  0
   11.7422  -12.8710    0.0000 C   0  0  0  0  0  0  0  0  0  0  0  0
   12.5422  -12.6692    0.0000 C   0  0  0  0  0  0  0  0  0  0  0  0
   12.7674  -11.8755    0.0000 C   0  0  0  0  0  0  0  0  0  0  0  0
   12.1926  -11.2836    0.0000 C   0  0  0  0  0  0  0  0  0  0  0  0
   13.5673  -11.6737    0.0000 H   0  0  0  0  0  0  0  0  0  0  0  0
   13.1169  -13.2610    0.0000 O   0  0  0  0  0  0  0  0  0  0  0  0
    2.2944   -4.4264    0.0000 O   0  0  0  0  0  0  0  0  0  0  0  0
    5.5311   -8.7612    0.0000 O   0  0  0  0  0  0  0  0  0  0  0  0
   12.0885   -8.8330    0.0000 C   0  0  0  0  0  0  0  0  0  0  0  0
   12.8089   -8.4311    0.0000 O   0  0  0  0  0  0  0  0  0  0  0  0
   12.0764   -9.6580    0.0000 O   0  0  0  0  0  0  0  0  0  0  0  0
    3.0984   -5.8673    0.0000 O   0  0  0  0  0  0  0  0  0  0  0  0
    7.1810   -8.7854    0.0000 O   0  0  0  0  0  0  0  0  0  0  0  0
   11.5152  -14.7471    0.0000 C   0  0  2  0  0  0  0  0  0  0  0  0
   11.9499  -15.4483    0.0000 C   0  0  2  0  0  0  0  0  0  0  0  0
   12.7745  -15.4225    0.0000 C   0  0  1  0  0  0  0  0  0  0  0  0
   13.1644  -14.6955    0.0000 C   0  0  2  0  0  0  0  0  0  0  0  0
   12.7298  -13.9943    0.0000 C   0  0  1  0  0  0  0  0  0  0  0  0
   11.9052  -14.0201    0.0000 O   0  0  0  0  0  0  0  0  0  0  0  0
   10.6906  -14.7729    0.0000 C   0  0  0  0  0  0  0  0  0  0  0  0
   13.2091  -16.1238    0.0000 O   0  0  0  0  0  0  0  0  0  0  0  0
   11.5599  -16.1753    0.0000 O   0  0  0  0  0  0  0  0  0  0  0  0
   13.9890  -14.6697    0.0000 O   0  0  0  0  0  0  0  0  0  0  0  0
   10.3007  -15.4999    0.0000 O   0  0  0  0  0  0  0  0  0  0  0  0
    3.5338   -9.5260    0.0000 C   0  0  0  0  0  0  0  0  0  0  0  0
    3.1111   -8.8175    0.0000 C   0  0  0  0  0  0  0  0  0  0  0  0
    2.2862   -8.8294    0.0000 C   0  0  0  0  0  0  0  0  0  0  0  0
    1.8840   -9.5497    0.0000 C   0  0  0  0  0  0  0  0  0  0  0  0
    2.3067  -10.2582    0.0000 C   0  0  0  0  0  0  0  0  0  0  0  0
    3.1316  -10.2463    0.0000 C   0  0  0  0  0  0  0  0  0  0  0  0
    1.9045  -10.9785    0.0000 O   0  0  0  0  0  0  0  0  0  0  0  0
    1.0591   -9.5616    0.0000 O   0  0  0  0  0  0  0  0  0  0  0  0
    0.6569  -10.2819    0.0000 C   0  0  0  0  0  0  0  0  0  0  0  0
    3.5132   -8.0972    0.0000 C   0  0  0  0  0  0  0  0  0  0  0  0
    3.0905   -7.3887    0.0000 C   0  0  0  0  0  0  0  0  0  0  0  0
    3.4927   -6.6684    0.0000 C   0  0  0  0  0  0  0  0  0  0  0  0
    4.3176   -6.6565    0.0000 O   0  0  0  0  0  0  0  0  0  0  0  0
  2  1  1  6  0  0  0
  2  3  1  0  0  0  0
  3  4  1  1  0  0  0
  4  5  1  0  0  0  0
  2  6  1  0  0  0  0
  6  7  1  0  0  0  0
  7  8  1  0  0  0  0
  8  9  1  0  0  0  0
  9  3  1  0  0  0  0
  8 10  1  1  0  0  0
 10 11  1  0  0  0  0
 13 12  1  6  0  0  0
 13 14  1  0  0  0  0
 14 11  1  1  0  0  0
 13 15  1  0  0  0  0
 15 16  1  0  0  0  0
 16 17  1  0  0  0  0
 17 18  1  0  0  0  0
 18 14  1  0  0  0  0
 17 19  1  1  0  0  0
 19 20  1  0  0  0  0
 20 21  2  0  0  0  0
 21 22  1  0  0  0  0
 22 23  2  0  0  0  0
 23 24  1  0  0  0  0
 24 25  2  0  0  0  0
 25 20  1  0  0  0  0
 22 26  1  0  0  0  0
 26 27  1  0  0  0  0
 27 28  1  0  0  0  0
 28 23  1  0  0  0  0
 25 29  1  0  0  0  0
 26 30  1  0  0  0  0
 30 31  2  0  0  0  0
 30 32  1  0  0  0  0
 32 33  2  0  0  0  0
 33 34  1  0  0  0  0
 34 35  2  0  0  0  0
 35 36  1  0  0  0  0
 36 37  2  0  0  0  0
 37 38  1  0  0  0  0
 38 39  2  0  0  0  0
 39 34  1  0  0  0  0
 38 40  1  0  0  0  0
 37 41  1  0  0  0  0
  6 42  1  1  0  0  0
 15 43  1  1  0  0  0
 27 44  1  1  0  0  0
  7 47  1  6  0  0  0
 16 48  1  6  0  0  0
 49 50  1  0  0  0  0
 50 51  1  0  0  0  0
 51 52  1  0  0  0  0
 52 53  1  0  0  0  0
 53 54  1  0  0  0  0
 54 49  1  0  0  0  0
 49 55  1  1  0  0  0
 51 56  1  1  0  0  0
 50 57  1  6  0  0  0
 52 58  1  6  0  0  0
 55 59  1  0  0  0  0
 53 41  1  1  0  0  0
 60 61  2  0  0  0  0
 61 62  1  0  0  0  0
 62 63  2  0  0  0  0
 63 64  1  0  0  0  0
 64 65  2  0  0  0  0
 65 60  1  0  0  0  0
 64 66  1  0  0  0  0
 63 67  1  0  0  0  0
 67 68  1  0  0  0  0
 61 69  1  0  0  0  0
 69 70  2  0  0  0  0
 70 71  1  0  0  0  0
 71 72  2  0  0  0  0
 71 47  1  0  0  0  0
 44 45  2  0  0  0  0
 44 46  1  0  0  0  0
M  STY  1   1 SUP
M  SAL   1  3  44  45  46
M  SBL   1  1  48
M  SMT   1 COOH
M  SAP   1  1  44  27  1
M  END
>  <cdx:fragmentId>
5

$$$$
