90668.cdx
  Mrv1902 05222410232D          

 61 66  0  0  0  0            999 V2000
    2.7278   -8.2072    0.0000 O   0  0  0  0  0  0  0  0  0  0  0  0
    3.1298   -8.9276    0.0000 C   0  0  2  0  0  0  0  0  0  0  0  0
    3.9547   -8.9397    0.0000 C   0  0  1  0  0  0  0  0  0  0  0  0
    4.3777   -8.2314    0.0000 C   0  0  0  0  0  0  0  0  0  0  0  0
    3.9757   -7.5110    0.0000 O   0  0  0  0  0  0  0  0  0  0  0  0
    2.7069   -9.6360    0.0000 C   0  0  1  0  0  0  0  0  0  0  0  0
    3.1088  -10.3564    0.0000 C   0  0  2  0  0  0  0  0  0  0  0  0
    3.9337  -10.3685    0.0000 C   0  0  1  0  0  0  0  0  0  0  0  0
    4.3567   -9.6602    0.0000 O   0  0  0  0  0  0  0  0  0  0  0  0
    4.3357  -11.0890    0.0000 O   0  0  0  0  0  0  0  0  0  0  0  0
    5.1606  -11.1011    0.0000 C   0  0  0  0  0  0  0  0  0  0  0  0
    4.3147  -12.5178    0.0000 O   0  0  0  0  0  0  0  0  0  0  0  0
    5.1396  -12.5299    0.0000 C   0  0  2  0  0  0  0  0  0  0  0  0
    5.5626  -11.8216    0.0000 C   0  0  2  0  0  0  0  0  0  0  0  0
    5.5416  -13.2503    0.0000 C   0  0  1  0  0  0  0  0  0  0  0  0
    6.3665  -13.2625    0.0000 C   0  0  2  0  0  0  0  0  0  0  0  0
    6.7894  -12.5541    0.0000 C   0  0  1  0  0  0  0  0  0  0  0  0
    6.3875  -11.8337    0.0000 O   0  0  0  0  0  0  0  0  0  0  0  0
    7.6144  -12.5662    0.0000 O   0  0  0  0  0  0  0  0  0  0  0  0
    8.4393  -12.5784    0.0000 C   0  0  0  0  0  0  0  0  0  0  0  0
    8.8412  -13.2988    0.0000 C   0  0  0  0  0  0  0  0  0  0  0  0
    9.6661  -13.3109    0.0000 C   0  0  0  0  0  0  0  0  0  0  0  0
   10.0891  -12.6026    0.0000 C   0  0  0  0  0  0  0  0  0  0  0  0
    9.6871  -11.8821    0.0000 C   0  0  0  0  0  0  0  0  0  0  0  0
    8.8622  -11.8700    0.0000 C   0  0  0  0  0  0  0  0  0  0  0  0
   10.2091  -13.9321    0.0000 N   0  0  0  0  0  0  0  0  0  0  0  0
   10.9676  -13.6076    0.0000 C   0  0  1  0  0  0  0  0  0  0  0  0
   10.8935  -12.7859    0.0000 C   0  0  0  0  0  0  0  0  0  0  0  0
    8.4603  -11.1496    0.0000 O   0  0  0  0  0  0  0  0  0  0  0  0
   10.0258  -14.7364    0.0000 C   0  0  0  0  0  0  0  0  0  0  0  0
    9.2375  -14.9798    0.0000 O   0  0  0  0  0  0  0  0  0  0  0  0
   10.6307  -15.2974    0.0000 C   0  0  0  0  0  0  0  0  0  0  0  0
   10.4055  -16.0911    0.0000 C   0  0  0  0  0  0  0  0  0  0  0  0
   10.9802  -16.6829    0.0000 C   0  0  0  0  0  0  0  0  0  0  0  0
   10.7550  -17.4766    0.0000 C   0  0  0  0  0  0  0  0  0  0  0  0
   11.3297  -18.0685    0.0000 C   0  0  0  0  0  0  0  0  0  0  0  0
   12.1297  -17.8667    0.0000 C   0  0  0  0  0  0  0  0  0  0  0  0
   12.3549  -17.0730    0.0000 C   0  0  0  0  0  0  0  0  0  0  0  0
   11.7801  -16.4811    0.0000 C   0  0  0  0  0  0  0  0  0  0  0  0
   13.1548  -16.8712    0.0000 H   0  0  0  0  0  0  0  0  0  0  0  0
   12.7044  -18.4585    0.0000 O   0  0  0  0  0  0  0  0  0  0  0  0
    1.8819   -9.6239    0.0000 O   0  0  0  0  0  0  0  0  0  0  0  0
    5.1186  -13.9587    0.0000 O   0  0  0  0  0  0  0  0  0  0  0  0
   11.6760  -14.0305    0.0000 C   0  0  0  0  0  0  0  0  0  0  0  0
   12.3964  -13.6286    0.0000 O   0  0  0  0  0  0  0  0  0  0  0  0
   11.6639  -14.8555    0.0000 O   0  0  0  0  0  0  0  0  0  0  0  0
    2.6859  -11.0648    0.0000 O   0  0  0  0  0  0  0  0  0  0  0  0
    6.7685  -13.9829    0.0000 O   0  0  0  0  0  0  0  0  0  0  0  0
    1.8993   -4.4626    0.0000 C   0  0  0  0  0  0  0  0  0  0  0  0
    2.6005   -4.8972    0.0000 C   0  0  0  0  0  0  0  0  0  0  0  0
    3.3275   -4.5073    0.0000 C   0  0  0  0  0  0  0  0  0  0  0  0
    3.3533   -3.6827    0.0000 C   0  0  0  0  0  0  0  0  0  0  0  0
    2.6521   -3.2480    0.0000 C   0  0  0  0  0  0  0  0  0  0  0  0
    1.9251   -3.6380    0.0000 C   0  0  0  0  0  0  0  0  0  0  0  0
    2.6779   -2.4234    0.0000 O   0  0  0  0  0  0  0  0  0  0  0  0
    4.0803   -3.2927    0.0000 O   0  0  0  0  0  0  0  0  0  0  0  0
    4.1062   -2.4681    0.0000 C   0  0  0  0  0  0  0  0  0  0  0  0
    2.5747   -5.7218    0.0000 C   0  0  0  0  0  0  0  0  0  0  0  0
    3.2759   -6.1565    0.0000 C   0  0  0  0  0  0  0  0  0  0  0  0
    3.2501   -6.9811    0.0000 C   0  0  0  0  0  0  0  0  0  0  0  0
    2.5231   -7.3710    0.0000 O   0  0  0  0  0  0  0  0  0  0  0  0
  2  1  1  6  0  0  0
  2  3  1  0  0  0  0
  3  4  1  1  0  0  0
  4  5  1  0  0  0  0
  2  6  1  0  0  0  0
  6  7  1  0  0  0  0
  7  8  1  0  0  0  0
  8  9  1  0  0  0  0
  9  3  1  0  0  0  0
  8 10  1  1  0  0  0
 10 11  1  0  0  0  0
 13 12  1  6  0  0  0
 13 14  1  0  0  0  0
 14 11  1  1  0  0  0
 13 15  1  0  0  0  0
 15 16  1  0  0  0  0
 16 17  1  0  0  0  0
 17 18  1  0  0  0  0
 18 14  1  0  0  0  0
 17 19  1  1  0  0  0
 19 20  1  0  0  0  0
 20 21  2  0  0  0  0
 21 22  1  0  0  0  0
 22 23  2  0  0  0  0
 23 24  1  0  0  0  0
 24 25  2  0  0  0  0
 25 20  1  0  0  0  0
 22 26  1  0  0  0  0
 26 27  1  0  0  0  0
 27 28  1  0  0  0  0
 28 23  1  0  0  0  0
 25 29  1  0  0  0  0
 26 30  1  0  0  0  0
 30 31  2  0  0  0  0
 30 32  1  0  0  0  0
 32 33  2  0  0  0  0
 33 34  1  0  0  0  0
 34 35  2  0  0  0  0
 35 36  1  0  0  0  0
 36 37  2  0  0  0  0
 37 38  1  0  0  0  0
 38 39  2  0  0  0  0
 39 34  1  0  0  0  0
 38 40  1  0  0  0  0
 37 41  1  0  0  0  0
  6 42  1  1  0  0  0
 15 43  1  1  0  0  0
 27 44  1  1  0  0  0
  7 47  1  6  0  0  0
 16 48  1  6  0  0  0
 49 50  2  0  0  0  0
 50 51  1  0  0  0  0
 51 52  2  0  0  0  0
 52 53  1  0  0  0  0
 53 54  2  0  0  0  0
 54 49  1  0  0  0  0
 53 55  1  0  0  0  0
 52 56  1  0  0  0  0
 56 57  1  0  0  0  0
 50 58  1  0  0  0  0
 58 59  2  0  0  0  0
 59 60  1  0  0  0  0
 60 61  2  0  0  0  0
 60  5  1  0  0  0  0
 44 45  2  0  0  0  0
 44 46  1  0  0  0  0
M  STY  1   1 SUP
M  SAL   1  3  44  45  46
M  SBL   1  1  48
M  SMT   1 COOH
M  SAP   1  1  44  27  1
M  END
>  <cdx:fragmentId>
5

$$$$
