90662.cdx
  Mrv1902 05222410252D          

 49 53  0  0  0  0            999 V2000
    0.4243   -7.6301    0.0000 O   0  0  0  0  0  0  0  0  0  0  0  0
    1.1388   -8.0426    0.0000 C   0  0  2  0  0  0  0  0  0  0  0  0
    1.8532   -7.6301    0.0000 C   0  0  1  0  0  0  0  0  0  0  0  0
    1.8532   -6.8051    0.0000 C   0  0  0  0  0  0  0  0  0  0  0  0
    1.1388   -6.3926    0.0000 O   0  0  0  0  0  0  0  0  0  0  0  0
    1.1388   -8.8676    0.0000 C   0  0  1  0  0  0  0  0  0  0  0  0
    1.8532   -9.2801    0.0000 C   0  0  2  0  0  0  0  0  0  0  0  0
    2.5677   -8.8676    0.0000 C   0  0  1  0  0  0  0  0  0  0  0  0
    2.5677   -8.0426    0.0000 O   0  0  0  0  0  0  0  0  0  0  0  0
    3.2822   -9.2801    0.0000 O   0  0  0  0  0  0  0  0  0  0  0  0
    3.9967   -8.8676    0.0000 C   0  0  0  0  0  0  0  0  0  0  0  0
    3.9967  -10.5176    0.0000 O   0  0  0  0  0  0  0  0  0  0  0  0
    4.7111  -10.1051    0.0000 C   0  0  2  0  0  0  0  0  0  0  0  0
    4.7111   -9.2801    0.0000 C   0  0  2  0  0  0  0  0  0  0  0  0
    5.4256  -10.5176    0.0000 C   0  0  1  0  0  0  0  0  0  0  0  0
    6.1401  -10.1051    0.0000 C   0  0  2  0  0  0  0  0  0  0  0  0
    6.1401   -9.2801    0.0000 C   0  0  1  0  0  0  0  0  0  0  0  0
    5.4256   -8.8676    0.0000 O   0  0  0  0  0  0  0  0  0  0  0  0
    6.8545   -8.8676    0.0000 O   0  0  0  0  0  0  0  0  0  0  0  0
    7.5690   -8.4551    0.0000 C   0  0  0  0  0  0  0  0  0  0  0  0
    8.2835   -8.8676    0.0000 C   0  0  0  0  0  0  0  0  0  0  0  0
    8.9980   -8.4551    0.0000 C   0  0  0  0  0  0  0  0  0  0  0  0
    8.9980   -7.6301    0.0000 C   0  0  0  0  0  0  0  0  0  0  0  0
    8.2835   -7.2176    0.0000 C   0  0  0  0  0  0  0  0  0  0  0  0
    7.5690   -7.6301    0.0000 C   0  0  0  0  0  0  0  0  0  0  0  0
    9.7826   -8.7101    0.0000 N   0  0  0  0  0  0  0  0  0  0  0  0
   10.2675   -8.0426    0.0000 C   0  0  1  0  0  0  0  0  0  0  0  0
    9.7826   -7.3752    0.0000 C   0  0  0  0  0  0  0  0  0  0  0  0
    6.8545   -7.2176    0.0000 O   0  0  0  0  0  0  0  0  0  0  0  0
   10.0375   -9.4947    0.0000 C   0  0  0  0  0  0  0  0  0  0  0  0
    9.4855  -10.1078    0.0000 O   0  0  0  0  0  0  0  0  0  0  0  0
   10.8445   -9.6662    0.0000 C   0  0  0  0  0  0  0  0  0  0  0  0
   11.0580  -10.4631    0.0000 C   0  0  0  0  0  0  0  0  0  0  0  0
   11.8549  -10.6767    0.0000 C   0  0  0  0  0  0  0  0  0  0  0  0
   12.0684  -11.4735    0.0000 C   0  0  0  0  0  0  0  0  0  0  0  0
   12.8653  -11.6871    0.0000 C   0  0  0  0  0  0  0  0  0  0  0  0
   13.4487  -11.1037    0.0000 C   0  0  0  0  0  0  0  0  0  0  0  0
   13.2352  -10.3068    0.0000 C   0  0  0  0  0  0  0  0  0  0  0  0
   12.4383  -10.0933    0.0000 C   0  0  0  0  0  0  0  0  0  0  0  0
   13.8185   -9.7235    0.0000 O   0  0  0  0  0  0  0  0  0  0  0  0
   14.2456  -11.3172    0.0000 O   0  0  0  0  0  0  0  0  0  0  0  0
    0.4243   -9.2801    0.0000 O   0  0  0  0  0  0  0  0  0  0  0  0
    5.4256  -11.3426    0.0000 O   0  0  0  0  0  0  0  0  0  0  0  0
   11.0925   -8.0426    0.0000 C   0  0  0  0  0  0  0  0  0  0  0  0
   11.5050   -7.3282    0.0000 O   0  0  0  0  0  0  0  0  0  0  0  0
   11.5050   -8.7571    0.0000 O   0  0  0  0  0  0  0  0  0  0  0  0
    1.8532  -10.1051    0.0000 O   0  0  0  0  0  0  0  0  0  0  0  0
    6.8545  -10.5176    0.0000 O   0  0  0  0  0  0  0  0  0  0  0  0
   13.6050   -8.9266    0.0000 C   0  0  0  0  0  0  0  0  0  0  0  0
  2  1  1  6  0  0  0
  2  3  1  0  0  0  0
  3  4  1  1  0  0  0
  4  5  1  0  0  0  0
  2  6  1  0  0  0  0
  6  7  1  0  0  0  0
  7  8  1  0  0  0  0
  8  9  1  0  0  0  0
  9  3  1  0  0  0  0
  8 10  1  1  0  0  0
 10 11  1  0  0  0  0
 13 12  1  6  0  0  0
 13 14  1  0  0  0  0
 14 11  1  1  0  0  0
 13 15  1  0  0  0  0
 15 16  1  0  0  0  0
 16 17  1  0  0  0  0
 17 18  1  0  0  0  0
 18 14  1  0  0  0  0
 17 19  1  1  0  0  0
 19 20  1  0  0  0  0
 20 21  2  0  0  0  0
 21 22  1  0  0  0  0
 22 23  2  0  0  0  0
 23 24  1  0  0  0  0
 24 25  2  0  0  0  0
 25 20  1  0  0  0  0
 22 26  1  0  0  0  0
 26 27  1  0  0  0  0
 27 28  1  0  0  0  0
 28 23  1  0  0  0  0
 25 29  1  0  0  0  0
 26 30  1  0  0  0  0
 30 31  2  0  0  0  0
 30 32  1  0  0  0  0
 32 33  2  0  0  0  0
 33 34  1  0  0  0  0
 34 35  2  0  0  0  0
 35 36  1  0  0  0  0
 36 37  2  0  0  0  0
 37 38  1  0  0  0  0
 38 39  2  0  0  0  0
 39 34  1  0  0  0  0
 38 40  1  0  0  0  0
 37 41  1  0  0  0  0
  6 42  1  1  0  0  0
 15 43  1  1  0  0  0
 27 44  1  1  0  0  0
  7 47  1  6  0  0  0
 16 48  1  6  0  0  0
 40 49  1  0  0  0  0
 44 45  2  0  0  0  0
 44 46  1  0  0  0  0
M  STY  1   1 SUP
M  SAL   1  3  44  45  46
M  SBL   1  1  48
M  SMT   1 COOH
M  SAP   1  1  44  27  1
M  END
>  <cdx:fragmentId>
5

$$$$
