7R-chloro-6-desoxy-harpagide.cdx
  Mrv1902 05222410212D          

 26 28  0  0  0  0            999 V2000
    3.9014   -5.3213    0.0000 C   0  0  1  0  0  0  0  0  0  0  0  0
    3.9014   -6.1463    0.0000 C   0  0  2  0  0  0  0  0  0  0  0  0
    4.6159   -6.5587    0.0000 C   0  0  1  0  0  0  0  0  0  0  0  0
    5.3303   -6.1463    0.0000 O   0  0  0  0  0  0  0  0  0  0  0  0
    5.3303   -5.3213    0.0000 C   0  0  0  0  0  0  0  0  0  0  0  0
    4.6159   -4.9088    0.0000 C   0  0  0  0  0  0  0  0  0  0  0  0
    3.1168   -5.0663    0.0000 C   0  0  0  0  0  0  0  0  0  0  0  0
    2.6319   -5.7338    0.0000 C   0  0  2  0  0  0  0  0  0  0  0  0
    3.1168   -6.4012    0.0000 C   0  0  2  0  0  0  0  0  0  0  0  0
    3.6879   -4.5244    0.0000 O   0  0  0  0  0  0  0  0  0  0  0  0
    3.6879   -6.9431    0.0000 H   0  0  0  0  0  0  0  0  0  0  0  0
    2.5334   -6.9846    0.0000 O   0  0  0  0  0  0  0  0  0  0  0  0
    1.8069   -5.7338    0.0000 Cl  0  0  0  0  0  0  0  0  0  0  0  0
    3.3303   -7.1981    0.0000 C   0  0  0  0  0  0  0  0  0  0  0  0
    4.6159   -7.3838    0.0000 O   0  0  0  0  0  0  0  0  0  0  0  0
    5.4496   -7.3978    0.0000 O   0  0  0  0  0  0  0  0  0  0  0  0
    5.0371   -8.1122    0.0000 C   0  0  0  0  0  0  0  0  0  0  0  0
    5.8303   -7.8855    0.0000 C   0  0  0  0  0  0  0  0  0  0  0  0
    6.6284   -8.1122    0.0000 C   0  0  0  0  0  0  0  0  0  0  0  0
    7.0410   -7.3978    0.0000 C   0  0  0  0  0  0  0  0  0  0  0  0
    6.2477   -7.6244    0.0000 C   0  0  0  0  0  0  0  0  0  0  0  0
    6.2477   -6.7994    0.0000 C   0  0  0  0  0  0  0  0  0  0  0  0
    6.9621   -6.3869    0.0000 O   0  0  0  0  0  0  0  0  0  0  0  0
    7.6243   -7.9811    0.0000 O   0  0  0  0  0  0  0  0  0  0  0  0
    7.0409   -8.8267    0.0000 O   0  0  0  0  0  0  0  0  0  0  0  0
    6.0439   -8.6824    0.0000 O   0  0  0  0  0  0  0  0  0  0  0  0
  1  2  1  0  0  0  0
  2  3  1  0  0  0  0
  3  4  1  0  0  0  0
  4  5  1  0  0  0  0
  5  6  2  0  0  0  0
  6  1  1  0  0  0  0
  1  7  1  0  0  0  0
  7  8  1  0  0  0  0
  8  9  1  0  0  0  0
  9  2  1  0  0  0  0
  1 10  1  1  0  0  0
  2 11  1  1  0  0  0
  9 12  1  1  0  0  0
  8 13  1  6  0  0  0
  9 14  1  6  0  0  0
  3 15  1  1  0  0  0
 16 17  1  0  0  0  0
 17 18  1  0  0  0  0
 18 19  1  0  0  0  0
 19 20  1  0  0  0  0
 20 21  1  0  0  0  0
 21 16  1  0  0  0  0
 15 17  1  0  0  0  0
 21 22  1  0  0  0  0
 22 23  1  0  0  0  0
 20 24  1  0  0  0  0
 19 25  1  0  0  0  0
 18 26  1  0  0  0  0
M  END
>  <cdx:fragmentId>
5

$$$$
