6723.cdx
  Mrv1902 05222410272D          

 10  9  0  0  0  0            999 V2000
    3.5640   -6.8888    0.0000 C   0  0  0  0  0  0  0  0  0  0  0  0
    4.2785   -6.4763    0.0000 C   0  0  0  0  0  0  0  0  0  0  0  0
    4.9929   -6.8888    0.0000 C   0  0  0  0  0  0  0  0  0  0  0  0
    5.7074   -6.4763    0.0000 C   0  0  0  0  0  0  0  0  0  0  0  0
    6.4219   -6.8888    0.0000 C   0  0  0  0  0  0  0  0  0  0  0  0
    7.1364   -6.4763    0.0000 C   0  0  0  0  0  0  0  0  0  0  0  0
    7.8508   -6.8888    0.0000 C   0  0  0  0  0  0  0  0  0  0  0  0
    8.5653   -6.4763    0.0000 C   0  0  0  0  0  0  0  0  0  0  0  0
    4.2785   -5.6512    0.0000 C   0  0  0  0  0  0  0  0  0  0  0  0
    7.8508   -7.7138    0.0000 O   0  0  0  0  0  0  0  0  0  0  0  0
  1  2  1  0  0  0  0
  2  3  1  0  0  0  0
  3  4  1  0  0  0  0
  4  5  1  0  0  0  0
  5  6  1  0  0  0  0
  6  7  1  0  0  0  0
  7  8  1  0  0  0  0
  2  9  1  0  0  0  0
  7 10  2  0  0  0  0
M  END
>  <cdx:fragmentId>
3

$$$$
