90686.cdx
  Mrv1902 05222410202D          

 18 20  0  0  0  0            999 V2000
   10.2421   -7.0485    0.0000 O   0  0  0  0  0  0  0  0  0  0  0  0
   10.2481   -4.1905    0.0000 O   0  0  0  0  0  0  0  0  0  0  0  0
    9.0091   -4.9024    0.0000 C   0  0  0  0  0  0  0  0  0  0  0  0
    9.8341   -4.9042    0.0000 C   0  0  0  0  0  0  0  0  0  0  0  0
   10.2451   -5.6195    0.0000 C   0  0  0  0  0  0  0  0  0  0  0  0
    9.8311   -6.3331    0.0000 C   0  0  0  0  0  0  0  0  0  0  0  0
    9.0061   -6.3313    0.0000 C   0  0  0  0  0  0  0  0  0  0  0  0
    8.5951   -5.6160    0.0000 C   0  0  0  0  0  0  0  0  0  0  0  0
    4.3554   -6.4320    0.0000 O   0  0  0  0  0  0  0  0  0  0  0  0
    5.7844   -6.4351    0.0000 C   0  0  0  0  0  0  0  0  0  0  0  0
    5.0707   -6.0210    0.0000 C   0  0  0  0  0  0  0  0  0  0  0  0
    5.0725   -5.1961    0.0000 C   0  0  0  0  0  0  0  0  0  0  0  0
    5.7878   -4.7851    0.0000 C   0  0  0  0  0  0  0  0  0  0  0  0
    6.4997   -6.0241    0.0000 C   0  0  0  0  0  0  0  0  0  0  0  0
    6.5014   -5.1991    0.0000 C   0  0  0  0  0  0  0  0  0  0  0  0
    7.2866   -4.9458    0.0000 C   0  0  0  0  0  0  0  0  0  0  0  0
    7.7701   -5.6143    0.0000 C   0  0  0  0  0  0  0  0  0  0  0  0
    7.2838   -6.2807    0.0000 O   0  0  0  0  0  0  0  0  0  0  0  0
 17  8  1  0  0  0  0
  6  1  1  0  0  0  0
  4  2  1  0  0  0  0
  8  3  2  0  0  0  0
  4  3  1  0  0  0  0
  5  4  2  0  0  0  0
  6  5  1  0  0  0  0
  7  6  2  0  0  0  0
  8  7  1  0  0  0  0
 11  9  1  0  0  0  0
 13 15  2  0  0  0  0
 10 14  2  0  0  0  0
 11 10  1  0  0  0  0
 12 11  2  0  0  0  0
 13 12  1  0  0  0  0
 18 14  1  0  0  0  0
 15 14  1  0  0  0  0
 16 15  1  0  0  0  0
 17 16  2  0  0  0  0
 18 17  1  0  0  0  0
M  END
>  <cdx:fragmentId>
16010

$$$$
