90682.cdx
  Mrv1902 05222410232D          

 31 34  0  0  0  0            999 V2000
    4.4118   -9.6376    0.0000 C   0  0  0  0  0  0  0  0  0  0  0  0
    4.4118  -10.4626    0.0000 C   0  0  0  0  0  0  0  0  0  0  0  0
    5.1263  -10.8751    0.0000 C   0  0  0  0  0  0  0  0  0  0  0  0
    5.8407  -10.4626    0.0000 C   0  0  0  0  0  0  0  0  0  0  0  0
    5.8407   -9.6376    0.0000 C   0  0  0  0  0  0  0  0  0  0  0  0
    5.1263   -9.2251    0.0000 C   0  0  0  0  0  0  0  0  0  0  0  0
    6.5552  -10.8751    0.0000 O   0  0  0  0  0  0  0  0  0  0  0  0
    7.2697  -10.4626    0.0000 C   0  0  0  0  0  0  0  0  0  0  0  0
    7.2697   -9.6376    0.0000 C   0  0  0  0  0  0  0  0  0  0  0  0
    6.5552   -9.2251    0.0000 C   0  0  0  0  0  0  0  0  0  0  0  0
    6.5552   -8.4001    0.0000 O   0  0  0  0  0  0  0  0  0  0  0  0
    5.1263   -8.4001    0.0000 O   0  0  0  0  0  0  0  0  0  0  0  0
    7.9842  -10.8751    0.0000 C   0  0  0  0  0  0  0  0  0  0  0  0
    8.6986  -10.4626    0.0000 C   0  0  0  0  0  0  0  0  0  0  0  0
    7.9842   -9.2251    0.0000 O   0  0  0  0  0  0  0  0  0  0  0  0
    7.9842  -11.7001    0.0000 C   0  0  0  0  0  0  0  0  0  0  0  0
    8.6986  -12.1126    0.0000 C   0  0  0  0  0  0  0  0  0  0  0  0
    9.4131  -11.7001    0.0000 C   0  0  0  0  0  0  0  0  0  0  0  0
    9.4131  -10.8751    0.0000 C   0  0  0  0  0  0  0  0  0  0  0  0
    7.9842   -8.4001    0.0000 C   0  0  0  0  0  0  0  0  0  0  0  0
    7.2697   -7.9876    0.0000 O   0  0  0  0  0  0  0  0  0  0  0  0
    8.6986   -7.9876    0.0000 C   0  0  1  0  0  0  0  0  0  0  0  0
    8.6986   -7.1626    0.0000 C   0  0  2  0  0  0  0  0  0  0  0  0
    7.9842   -6.7501    0.0000 C   0  0  1  0  0  0  0  0  0  0  0  0
    7.2697   -7.1626    0.0000 C   0  0  0  0  0  0  0  0  0  0  0  0
    3.6973  -10.8751    0.0000 O   0  0  0  0  0  0  0  0  0  0  0  0
    8.6986  -12.9376    0.0000 O   0  0  0  0  0  0  0  0  0  0  0  0
   10.1276  -12.1126    0.0000 O   0  0  0  0  0  0  0  0  0  0  0  0
    7.9842   -5.9251    0.0000 O   0  0  0  0  0  0  0  0  0  0  0  0
    9.4131   -8.4001    0.0000 O   0  0  0  0  0  0  0  0  0  0  0  0
    9.4131   -6.7501    0.0000 O   0  0  0  0  0  0  0  0  0  0  0  0
  1  2  2  0  0  0  0
  2  3  1  0  0  0  0
  3  4  2  0  0  0  0
  4  5  1  0  0  0  0
  5  6  2  0  0  0  0
  6  1  1  0  0  0  0
  4  7  1  0  0  0  0
  7  8  1  0  0  0  0
  8  9  2  0  0  0  0
  9 10  1  0  0  0  0
 10  5  1  0  0  0  0
 10 11  2  0  0  0  0
 12  6  1  0  0  0  0
  8 13  1  0  0  0  0
 13 14  1  0  0  0  0
 15  9  1  0  0  0  0
 13 16  2  0  0  0  0
 16 17  1  0  0  0  0
 17 18  2  0  0  0  0
 18 19  1  0  0  0  0
 19 14  2  0  0  0  0
 15 20  1  0  0  0  0
 20 21  1  0  0  0  0
 20 22  1  0  0  0  0
 22 23  1  0  0  0  0
 23 24  1  0  0  0  0
 24 25  1  0  0  0  0
 25 21  1  0  0  0  0
  2 26  1  0  0  0  0
 17 27  1  0  0  0  0
 18 28  1  0  0  0  0
 24 29  1  1  0  0  0
 22 30  1  1  0  0  0
 23 31  1  6  0  0  0
M  END
>  <cdx:fragmentId>
5

$$$$
