90685.cdx
  Mrv1902 05222410212D          

 21 24  0  0  0  0            999 V2000
    5.0031   -6.0489    0.0000 C   0  0  0  0  0  0  0  0  0  0  0  0
    5.0031   -6.8739    0.0000 C   0  0  0  0  0  0  0  0  0  0  0  0
    5.7175   -7.2864    0.0000 C   0  0  0  0  0  0  0  0  0  0  0  0
    6.4320   -6.8739    0.0000 C   0  0  0  0  0  0  0  0  0  0  0  0
    6.4320   -6.0489    0.0000 C   0  0  0  0  0  0  0  0  0  0  0  0
    5.7175   -5.6364    0.0000 C   0  0  0  0  0  0  0  0  0  0  0  0
    7.1465   -7.2864    0.0000 C   0  0  0  0  0  0  0  0  0  0  0  0
    7.8609   -6.8739    0.0000 C   0  0  0  0  0  0  0  0  0  0  0  0
    7.8609   -6.0489    0.0000 C   0  0  0  0  0  0  0  0  0  0  0  0
    7.1465   -5.6364    0.0000 C   0  0  0  0  0  0  0  0  0  0  0  0
    8.5754   -5.6364    0.0000 C   0  0  0  0  0  0  0  0  0  0  0  0
    8.5754   -4.8114    0.0000 C   0  0  0  0  0  0  0  0  0  0  0  0
    7.8609   -4.3989    0.0000 C   0  0  0  0  0  0  0  0  0  0  0  0
    7.1465   -4.8114    0.0000 C   0  0  0  0  0  0  0  0  0  0  0  0
    9.1885   -4.2594    0.0000 C   0  0  0  0  0  0  0  0  0  0  0  0
    8.8529   -3.5057    0.0000 C   0  0  0  0  0  0  0  0  0  0  0  0
    8.0325   -3.5919    0.0000 O   0  0  0  0  0  0  0  0  0  0  0  0
    4.2886   -5.6364    0.0000 O   0  0  0  0  0  0  0  0  0  0  0  0
    5.7175   -8.1114    0.0000 C   0  0  0  0  0  0  0  0  0  0  0  0
    6.4320   -4.3989    0.0000 O   0  0  0  0  0  0  0  0  0  0  0  0
    9.2899   -6.0489    0.0000 O   0  0  0  0  0  0  0  0  0  0  0  0
  1  2  2  0  0  0  0
  2  3  1  0  0  0  0
  3  4  2  0  0  0  0
  4  5  1  0  0  0  0
  5  6  2  0  0  0  0
  6  1  1  0  0  0  0
  4  7  1  0  0  0  0
  7  8  2  0  0  0  0
  8  9  1  0  0  0  0
  9 10  2  0  0  0  0
 10  5  1  0  0  0  0
  9 11  1  0  0  0  0
 11 12  1  0  0  0  0
 12 13  2  0  0  0  0
 13 14  1  0  0  0  0
 14 10  1  0  0  0  0
 12 15  1  0  0  0  0
 15 16  1  0  0  0  0
 16 17  1  0  0  0  0
 17 13  1  0  0  0  0
  1 18  1  0  0  0  0
  3 19  1  0  0  0  0
 14 20  2  0  0  0  0
 11 21  2  0  0  0  0
M  END
>  <cdx:fragmentId>
5

$$$$
