90689.cdx
  Mrv1902 05222410252D          

 15 16  0  0  0  0            999 V2000
    5.5943   -7.4514    0.0000 C   0  0  0  0  0  0  0  0  0  0  0  0
    5.5943   -8.2764    0.0000 C   0  0  0  0  0  0  0  0  0  0  0  0
    6.3088   -8.6889    0.0000 C   0  0  0  0  0  0  0  0  0  0  0  0
    7.0232   -8.2764    0.0000 C   0  0  0  0  0  0  0  0  0  0  0  0
    7.0232   -7.4514    0.0000 C   0  0  0  0  0  0  0  0  0  0  0  0
    6.3088   -7.0389    0.0000 C   0  0  0  0  0  0  0  0  0  0  0  0
    7.7377   -8.6889    0.0000 C   0  0  0  0  0  0  0  0  0  0  0  0
    8.4522   -8.2764    0.0000 C   0  0  0  0  0  0  0  0  0  0  0  0
    8.4522   -7.4514    0.0000 C   0  0  0  0  0  0  0  0  0  0  0  0
    7.7377   -7.0389    0.0000 C   0  0  0  0  0  0  0  0  0  0  0  0
    6.3088   -9.5139    0.0000 C   0  0  0  0  0  0  0  0  0  0  0  0
    7.0232   -9.9264    0.0000 C   0  0  0  0  0  0  0  0  0  0  0  0
    5.5943   -9.9264    0.0000 C   0  0  0  0  0  0  0  0  0  0  0  0
    6.3088   -6.2139    0.0000 C   0  0  0  0  0  0  0  0  0  0  0  0
    9.1667   -8.6889    0.0000 C   0  0  0  0  0  0  0  0  0  0  0  0
  1  2  2  0  0  0  0
  2  3  1  0  0  0  0
  3  4  2  0  0  0  0
  4  5  1  0  0  0  0
  5  6  2  0  0  0  0
  6  1  1  0  0  0  0
  4  7  1  0  0  0  0
  7  8  1  0  0  0  0
  8  9  1  0  0  0  0
  9 10  1  0  0  0  0
 10  5  1  0  0  0  0
  3 11  1  0  0  0  0
 11 12  1  0  0  0  0
 11 13  1  0  0  0  0
  6 14  1  0  0  0  0
  8 15  1  0  0  0  0
M  END
>  <cdx:fragmentId>
5

$$$$
