90684.cdx
  Mrv1902 05222410212D          

 23 26  0  0  0  0            999 V2000
    5.4638  -10.5269    0.0000 C   0  0  0  0  0  0  0  0  0  0  0  0
    5.0513   -9.8124    0.0000 C   0  0  0  0  0  0  0  0  0  0  0  0
    4.3368   -9.3999    0.0000 C   0  0  0  0  0  0  0  0  0  0  0  0
    4.3368   -8.5749    0.0000 C   0  0  0  0  0  0  0  0  0  0  0  0
    5.0513   -8.1624    0.0000 C   0  0  0  0  0  0  0  0  0  0  0  0
    5.7658   -8.5749    0.0000 C   0  0  0  0  0  0  0  0  0  0  0  0
    5.7658   -9.3999    0.0000 C   0  0  0  0  0  0  0  0  0  0  0  0
    6.4802   -9.8124    0.0000 C   0  0  0  0  0  0  0  0  0  0  0  0
    7.1947   -9.3999    0.0000 C   0  0  0  0  0  0  0  0  0  0  0  0
    7.1947   -8.5749    0.0000 C   0  0  0  0  0  0  0  0  0  0  0  0
    6.4802   -8.1624    0.0000 C   0  0  0  0  0  0  0  0  0  0  0  0
    6.4802   -7.3374    0.0000 C   0  0  0  0  0  0  0  0  0  0  0  0
    5.7658   -6.9249    0.0000 O   0  0  0  0  0  0  0  0  0  0  0  0
    7.1947   -6.9249    0.0000 C   0  0  0  0  0  0  0  0  0  0  0  0
    7.1947   -6.0999    0.0000 O   0  0  0  0  0  0  0  0  0  0  0  0
    7.9092   -7.3374    0.0000 C   0  0  0  0  0  0  0  0  0  0  0  0
    7.9092   -8.1624    0.0000 C   0  0  0  0  0  0  0  0  0  0  0  0
    8.6938   -8.4174    0.0000 O   0  0  0  0  0  0  0  0  0  0  0  0
    9.1787   -7.7499    0.0000 C   0  0  0  0  0  0  0  0  0  0  0  0
    8.6938   -7.0824    0.0000 C   0  0  0  0  0  0  0  0  0  0  0  0
    8.9487   -6.2979    0.0000 C   0  0  0  0  0  0  0  0  0  0  0  0
    9.7557   -6.1263    0.0000 O   0  0  0  0  0  0  0  0  0  0  0  0
    4.6388  -10.5269    0.0000 C   0  0  0  0  0  0  0  0  0  0  0  0
  1  2  1  0  0  0  0
  2  3  1  0  0  0  0
  3  4  1  0  0  0  0
  4  5  1  0  0  0  0
  5  6  1  0  0  0  0
  6  7  2  0  0  0  0
  2  7  1  0  0  0  0
  7  8  1  0  0  0  0
  8  9  2  0  0  0  0
  9 10  1  0  0  0  0
 10 11  2  0  0  0  0
  6 11  1  0  0  0  0
 11 12  1  0  0  0  0
 12 13  2  0  0  0  0
 12 14  1  0  0  0  0
 14 15  2  0  0  0  0
 14 16  1  0  0  0  0
 16 17  2  0  0  0  0
 10 17  1  0  0  0  0
 17 18  1  0  0  0  0
 18 19  1  0  0  0  0
 19 20  2  0  0  0  0
 16 20  1  0  0  0  0
 20 21  1  0  0  0  0
 21 22  1  0  0  0  0
  2 23  1  0  0  0  0
M  END
>  <cdx:fragmentId>
9081

$$$$
