90683.cdx
  Mrv1902 05222410222D          

 25 27  0  0  0  0            999 V2000
    4.8656   -8.7164    0.0000 C   0  0  0  0  0  0  0  0  0  0  0  0
    4.8656   -9.5414    0.0000 C   0  0  2  0  0  0  0  0  0  0  0  0
    5.5800   -9.9539    0.0000 C   0  0  1  0  0  0  0  0  0  0  0  0
    6.2945   -9.5414    0.0000 C   0  0  0  0  0  0  0  0  0  0  0  0
    6.2945   -8.7164    0.0000 C   0  0  2  0  0  0  0  0  0  0  0  0
    5.5800   -8.3039    0.0000 C   0  0  0  0  0  0  0  0  0  0  0  0
    7.0090   -9.9539    0.0000 C   0  0  1  0  0  0  0  0  0  0  0  0
    7.7234   -9.5414    0.0000 C   0  0  2  0  0  0  0  0  0  0  0  0
    7.7234   -8.7164    0.0000 C   0  0  0  0  0  0  0  0  0  0  0  0
    7.0090   -8.3039    0.0000 C   0  0  0  0  0  0  0  0  0  0  0  0
    8.4379   -8.3039    0.0000 C   0  0  0  0  0  0  0  0  0  0  0  0
    8.4379   -7.4789    0.0000 C   0  0  0  0  0  0  0  0  0  0  0  0
    7.7234   -7.0664    0.0000 C   0  0  0  0  0  0  0  0  0  0  0  0
    7.0090   -7.4789    0.0000 C   0  0  0  0  0  0  0  0  0  0  0  0
    9.1524   -8.7164    0.0000 O   0  0  0  0  0  0  0  0  0  0  0  0
    9.8669   -7.4789    0.0000 C   0  0  0  0  0  0  0  0  0  0  0  0
    9.1524   -7.0664    0.0000 C   0  0  0  0  0  0  0  0  0  0  0  0
    7.7234   -6.2414    0.0000 O   0  0  0  0  0  0  0  0  0  0  0  0
    6.2945   -7.0664    0.0000 O   0  0  0  0  0  0  0  0  0  0  0  0
   10.5813   -7.0664    0.0000 C   0  0  0  0  0  0  0  0  0  0  0  0
    5.5800  -10.7789    0.0000 C   0  0  0  0  0  0  0  0  0  0  0  0
    4.1511   -9.9539    0.0000 C   0  0  0  0  0  0  0  0  0  0  0  0
    8.4379   -9.9539    0.0000 O   0  0  0  0  0  0  0  0  0  0  0  0
    7.0090  -10.7789    0.0000 O   0  0  0  0  0  0  0  0  0  0  0  0
    6.2945   -7.8914    0.0000 C   0  0  0  0  0  0  0  0  0  0  0  0
  1  2  1  0  0  0  0
  2  3  1  0  0  0  0
  3  4  1  0  0  0  0
  4  5  1  0  0  0  0
  5  6  1  0  0  0  0
  6  1  1  0  0  0  0
  4  7  1  0  0  0  0
  7  8  1  0  0  0  0
  8  9  1  0  0  0  0
  9 10  2  0  0  0  0
 10  5  1  0  0  0  0
  9 11  1  0  0  0  0
 11 12  1  0  0  0  0
 12 13  2  0  0  0  0
 13 14  1  0  0  0  0
 14 10  1  0  0  0  0
 11 15  2  0  0  0  0
 16 17  1  0  0  0  0
 17 12  1  0  0  0  0
 13 18  1  0  0  0  0
 14 19  2  0  0  0  0
 16 20  2  0  0  0  0
  3 21  1  1  0  0  0
  2 22  1  6  0  0  0
  8 23  1  6  0  0  0
  7 24  1  1  0  0  0
  5 25  1  1  0  0  0
M  END
>  <cdx:fragmentId>
5

$$$$
