90697.cdx
  Mrv1902 05222410232D          

 30 32  0  0  0  0            999 V2000
    6.2623   -8.3664    0.0000 O   0  0  0  0  0  0  0  0  0  0  0  0
    5.5443   -8.7726    0.0000 C   0  0  2  0  0  0  0  0  0  0  0  0
    4.8379   -8.3463    0.0000 O   0  0  0  0  0  0  0  0  0  0  0  0
    4.1170   -8.7474    0.0000 C   0  0  1  0  0  0  0  0  0  0  0  0
    4.1024   -9.5748    0.0000 C   0  0  2  0  0  0  0  0  0  0  0  0
    4.8131   -9.9986    0.0000 C   0  0  1  0  0  0  0  0  0  0  0  0
    5.5340   -9.5976    0.0000 C   0  0  1  0  0  0  0  0  0  0  0  0
    3.4096   -8.3230    0.0000 C   0  0  0  0  0  0  0  0  0  0  0  0
    4.8007  -10.8235    0.0000 O   0  0  0  0  0  0  0  0  0  0  0  0
    6.2426  -10.0201    0.0000 O   0  0  0  0  0  0  0  0  0  0  0  0
    3.3815   -9.9759    0.0000 O   0  0  0  0  0  0  0  0  0  0  0  0
    2.6883   -8.7234    0.0000 O   0  0  0  0  0  0  0  0  0  0  0  0
    7.7129   -5.9040    0.0000 C   0  0  0  0  0  0  0  0  0  0  0  0
    8.4238   -6.3228    0.0000 C   0  0  0  0  0  0  0  0  0  0  0  0
   12.0136   -5.1050    0.0000 C   0  0  0  0  0  0  0  0  0  0  0  0
   11.2960   -4.6979    0.0000 O   0  0  0  0  0  0  0  0  0  0  0  0
   10.5707   -5.9291    0.0000 C   0  0  0  0  0  0  0  0  0  0  0  0
   10.5780   -5.1041    0.0000 C   0  0  0  0  0  0  0  0  0  0  0  0
    9.8671   -4.6854    0.0000 C   0  0  0  0  0  0  0  0  0  0  0  0
    9.1491   -5.0916    0.0000 C   0  0  0  0  0  0  0  0  0  0  0  0
    9.1418   -5.9166    0.0000 C   0  0  0  0  0  0  0  0  0  0  0  0
    9.8527   -6.3353    0.0000 C   0  0  0  0  0  0  0  0  0  0  0  0
   11.2815   -6.3479    0.0000 O   0  0  0  0  0  0  0  0  0  0  0  0
    6.9949   -6.3102    0.0000 C   0  0  0  0  0  0  0  0  0  0  0  0
    6.2841   -5.8915    0.0000 C   0  0  0  0  0  0  0  0  0  0  0  0
    5.5660   -6.2977    0.0000 C   0  0  0  0  0  0  0  0  0  0  0  0
    5.5588   -7.1227    0.0000 C   0  0  0  0  0  0  0  0  0  0  0  0
    6.2696   -7.5414    0.0000 C   0  0  0  0  0  0  0  0  0  0  0  0
    6.9876   -7.1352    0.0000 C   0  0  0  0  0  0  0  0  0  0  0  0
    4.8552   -5.8790    0.0000 O   0  0  0  0  0  0  0  0  0  0  0  0
  2  1  1  1  0  0  0
  2  3  1  0  0  0  0
  3  4  1  0  0  0  0
  4  5  1  0  0  0  0
  5  6  1  0  0  0  0
  6  7  1  0  0  0  0
  7  2  1  0  0  0  0
  4  8  1  1  0  0  0
  6  9  1  1  0  0  0
  7 10  1  6  0  0  0
  5 11  1  6  0  0  0
 28  1  1  0  0  0  0
  8 12  1  0  0  0  0
 14 13  2  0  0  0  0
 21 14  1  0  0  0  0
 16 15  1  0  0  0  0
 18 16  1  0  0  0  0
 17 18  2  0  0  0  0
 18 19  1  0  0  0  0
 19 20  2  0  0  0  0
 20 21  1  0  0  0  0
 21 22  2  0  0  0  0
 22 17  1  0  0  0  0
 17 23  1  0  0  0  0
 13 24  1  0  0  0  0
 24 25  2  0  0  0  0
 25 26  1  0  0  0  0
 26 27  2  0  0  0  0
 27 28  1  0  0  0  0
 28 29  2  0  0  0  0
 29 24  1  0  0  0  0
 26 30  1  0  0  0  0
M  END
>  <cdx:fragmentId>
5

$$$$
