90693.cdx
  Mrv1902 05222410212D          

 14 15  0  0  0  0            999 V2000
    7.2325   -8.9650    0.0000 C   0  0  0  0  0  0  0  0  0  0  0  0
    7.2600  -10.3950    0.0000 C   0  0  0  0  0  0  0  0  0  0  0  0
    8.2500   -9.5975    0.0000 C   0  0  0  0  0  0  0  0  0  0  0  0
    8.6900  -10.2575    0.0000 C   0  0  0  0  0  0  0  0  0  0  0  0
    8.0300  -10.6700    0.0000 C   0  0  0  0  0  0  0  0  0  0  0  0
    6.8562   -9.8587    0.0000 C   0  0  0  0  0  0  0  0  0  0  0  0
    6.0225  -10.2575    0.0000 C   0  0  0  0  0  0  0  0  0  0  0  0
    8.0300  -11.4950    0.0000 C   0  0  0  0  0  0  0  0  0  0  0  0
    5.2256  -10.0440    0.0000 C   0  0  0  0  0  0  0  0  0  0  0  0
    5.4391  -10.8409    0.0000 C   0  0  0  0  0  0  0  0  0  0  0  0
    7.6989   -8.2148    0.0000 O   0  0  0  0  0  0  0  0  0  0  0  0
    6.9811   -7.8082    0.0000 C   0  0  0  0  0  0  0  0  0  0  0  0
    6.9743   -6.9832    0.0000 C   0  0  0  0  0  0  0  0  0  0  0  0
    6.2700   -8.2265    0.0000 O   0  0  0  0  0  0  0  0  0  0  0  0
  6  3  1  0  0  0  0
  4  3  1  0  0  0  0
  5  4  2  0  0  0  0
  2  5  1  0  0  0  0
  6  1  1  0  0  0  0
  7  6  1  0  0  0  0
  2  7  1  0  0  0  0
  1  2  1  0  0  0  0
  5  8  1  0  0  0  0
  7  9  1  0  0  0  0
  7 10  1  0  0  0  0
  1 11  1  0  0  0  0
 11 12  1  0  0  0  0
 12 13  1  0  0  0  0
 12 14  2  0  0  0  0
M  END
>  <cdx:fragmentId>
814

$$$$
