90690.cdx
  Mrv1902 05222410212D          

 13 14  0  0  0  0            999 V2000
    5.7868   -8.9226    0.0000 C   0  0  0  0  0  0  0  0  0  0  0  0
    5.7868   -9.7476    0.0000 C   0  0  1  0  0  0  0  0  0  0  0  0
    6.5013  -10.1601    0.0000 C   0  0  0  0  0  0  0  0  0  0  0  0
    7.2157   -9.7476    0.0000 C   0  0  2  0  0  0  0  0  0  0  0  0
    7.2157   -8.9226    0.0000 C   0  0  2  0  0  0  0  0  0  0  0  0
    6.5013   -8.5101    0.0000 C   0  0  0  0  0  0  0  0  0  0  0  0
    7.9302   -9.3351    0.0000 O   0  0  0  0  0  0  0  0  0  0  0  0
    6.5013   -7.6851    0.0000 O   0  0  0  0  0  0  0  0  0  0  0  0
    7.6282   -8.2082    0.0000 C   0  0  0  0  0  0  0  0  0  0  0  0
    7.6282  -10.4621    0.0000 H   0  0  0  0  0  0  0  0  0  0  0  0
    5.0723  -10.1601    0.0000 C   0  0  0  0  0  0  0  0  0  0  0  0
    4.3579   -9.7476    0.0000 C   0  0  0  0  0  0  0  0  0  0  0  0
    5.0723  -10.9851    0.0000 C   0  0  0  0  0  0  0  0  0  0  0  0
  1  2  1  0  0  0  0
  2  3  1  0  0  0  0
  3  4  1  0  0  0  0
  4  5  1  0  0  0  0
  5  6  1  0  0  0  0
  6  1  1  0  0  0  0
  4  7  1  0  0  0  0
  7  5  1  0  0  0  0
  6  8  2  0  0  0  0
  5  9  1  1  0  0  0
  4 10  1  1  0  0  0
  2 11  1  1  0  0  0
 11 12  2  0  0  0  0
 11 13  1  0  0  0  0
M  END
>  <cdx:fragmentId>
5

$$$$
