90696.cdx
  Mrv1902 05222410232D          

 11 11  0  0  0  0            999 V2000
    5.3606  -10.8476    0.0000 C   0  0  0  0  0  0  0  0  0  0  0  0
    5.3606  -11.6726    0.0000 C   0  0  0  0  0  0  0  0  0  0  0  0
    6.0750  -12.0851    0.0000 C   0  0  0  0  0  0  0  0  0  0  0  0
    6.7895  -11.6726    0.0000 C   0  0  0  0  0  0  0  0  0  0  0  0
    6.7895  -10.8476    0.0000 C   0  0  0  0  0  0  0  0  0  0  0  0
    6.0750  -10.4351    0.0000 C   0  0  0  0  0  0  0  0  0  0  0  0
    6.0750  -12.9101    0.0000 O   0  0  0  0  0  0  0  0  0  0  0  0
    6.0750   -9.6101    0.0000 C   0  0  0  0  0  0  0  0  0  0  0  0
    6.7895   -9.1976    0.0000 C   0  0  0  0  0  0  0  0  0  0  0  0
    6.7895   -8.3726    0.0000 C   0  0  0  0  0  0  0  0  0  0  0  0
    7.5040   -7.9601    0.0000 O   0  0  0  0  0  0  0  0  0  0  0  0
  1  2  2  0  0  0  0
  2  3  1  0  0  0  0
  3  4  2  0  0  0  0
  4  5  1  0  0  0  0
  5  6  2  0  0  0  0
  6  1  1  0  0  0  0
  3  7  1  0  0  0  0
  6  8  1  0  0  0  0
  8  9  2  0  0  0  0
  9 10  1  0  0  0  0
 10 11  2  0  0  0  0
M  END
>  <cdx:fragmentId>
5

$$$$
