90718.cdx
  Mrv1902 05222410212D          

 15 16  0  0  0  0            999 V2000
    4.7831   -7.7539    0.0000 C   0  0  0  0  0  0  0  0  0  0  0  0
    4.7831   -8.5789    0.0000 C   0  0  0  0  0  0  0  0  0  0  0  0
    5.4975   -8.9914    0.0000 C   0  0  1  0  0  0  0  0  0  0  0  0
    6.2120   -8.5789    0.0000 C   0  0  0  0  0  0  0  0  0  0  0  0
    6.2120   -7.7539    0.0000 C   0  0  0  0  0  0  0  0  0  0  0  0
    5.4975   -7.3414    0.0000 C   0  0  1  0  0  0  0  0  0  0  0  0
    6.9265   -8.9914    0.0000 C   0  0  0  0  0  0  0  0  0  0  0  0
    7.6409   -8.5789    0.0000 C   0  0  0  0  0  0  0  0  0  0  0  0
    7.6409   -7.7539    0.0000 C   0  0  0  0  0  0  0  0  0  0  0  0
    6.9265   -7.3414    0.0000 C   0  0  0  0  0  0  0  0  0  0  0  0
    8.3554   -8.9914    0.0000 C   0  0  0  0  0  0  0  0  0  0  0  0
    5.4975   -6.5164    0.0000 C   0  0  0  0  0  0  0  0  0  0  0  0
    5.4975   -9.8164    0.0000 C   0  0  0  0  0  0  0  0  0  0  0  0
    6.2120  -10.2289    0.0000 C   0  0  0  0  0  0  0  0  0  0  0  0
    4.7831  -10.2289    0.0000 C   0  0  0  0  0  0  0  0  0  0  0  0
  1  2  1  0  0  0  0
  2  3  1  0  0  0  0
  3  4  1  0  0  0  0
  4  5  1  0  0  0  0
  5  6  1  0  0  0  0
  6  1  1  0  0  0  0
  4  7  1  0  0  0  0
  7  8  2  0  0  0  0
  8  9  1  0  0  0  0
  9 10  1  0  0  0  0
 10  5  2  0  0  0  0
  8 11  1  0  0  0  0
  6 12  1  6  0  0  0
  3 13  1  1  0  0  0
 13 14  1  0  0  0  0
 13 15  1  0  0  0  0
M  END
>  <cdx:fragmentId>
5

$$$$
