9071.cdx
  Mrv1902 05222410242D          

 30 32  0  0  0  0            999 V2000
    5.2833   -9.2744    0.0000 C   0  0  2  0  0  0  0  0  0  0  0  0
    5.2833  -10.0994    0.0000 C   0  0  2  0  0  0  0  0  0  0  0  0
    5.9977  -10.5119    0.0000 C   0  0  1  0  0  0  0  0  0  0  0  0
    6.7122  -10.0994    0.0000 C   0  0  2  0  0  0  0  0  0  0  0  0
    6.7122   -9.2744    0.0000 C   0  0  1  0  0  0  0  0  0  0  0  0
    5.9977   -8.8619    0.0000 O   0  0  0  0  0  0  0  0  0  0  0  0
    4.5688   -8.8619    0.0000 C   0  0  0  0  0  0  0  0  0  0  0  0
    3.8543   -9.2744    0.0000 O   0  0  0  0  0  0  0  0  0  0  0  0
    7.4267   -8.8619    0.0000 O   0  0  0  0  0  0  0  0  0  0  0  0
    7.4267   -8.0369    0.0000 C   0  0  0  0  0  0  0  0  0  0  0  0
    8.1412   -7.6244    0.0000 C   0  0  0  0  0  0  0  0  0  0  0  0
    8.1412   -6.7994    0.0000 C   0  0  0  0  0  0  0  0  0  0  0  0
    7.4267   -6.3869    0.0000 C   0  0  0  0  0  0  0  0  0  0  0  0
    6.7122   -6.7994    0.0000 C   0  0  0  0  0  0  0  0  0  0  0  0
    6.7122   -7.6244    0.0000 C   0  0  0  0  0  0  0  0  0  0  0  0
    5.9977   -6.3869    0.0000 C   0  0  0  0  0  0  0  0  0  0  0  0
    5.9977   -5.5619    0.0000 C   0  0  0  0  0  0  0  0  0  0  0  0
    7.4211   -3.0837    0.0000 O   0  0  0  0  0  0  0  0  0  0  0  0
    9.5673   -4.3163    0.0000 C   0  0  0  0  0  0  0  0  0  0  0  0
    8.8519   -3.9054    0.0000 O   0  0  0  0  0  0  0  0  0  0  0  0
    7.4267   -5.5587    0.0000 C   0  0  0  0  0  0  0  0  0  0  0  0
    8.1402   -5.1446    0.0000 C   0  0  0  0  0  0  0  0  0  0  0  0
    8.1384   -4.3196    0.0000 C   0  0  0  0  0  0  0  0  0  0  0  0
    7.4230   -3.9087    0.0000 C   0  0  0  0  0  0  0  0  0  0  0  0
    6.7094   -4.3228    0.0000 C   0  0  0  0  0  0  0  0  0  0  0  0
    6.7113   -5.1478    0.0000 C   0  0  0  0  0  0  0  0  0  0  0  0
    8.8556   -6.3869    0.0000 O   0  0  0  0  0  0  0  0  0  0  0  0
    5.9977  -11.3369    0.0000 O   0  0  0  0  0  0  0  0  0  0  0  0
    4.5688  -10.5119    0.0000 O   0  0  0  0  0  0  0  0  0  0  0  0
    7.4267  -10.5119    0.0000 O   0  0  0  0  0  0  0  0  0  0  0  0
  1  2  1  0  0  0  0
  2  3  1  0  0  0  0
  3  4  1  0  0  0  0
  4  5  1  0  0  0  0
  5  6  1  0  0  0  0
  6  1  1  0  0  0  0
  1  7  1  1  0  0  0
  7  8  1  0  0  0  0
  5  9  1  1  0  0  0
  9 10  1  0  0  0  0
 10 11  2  0  0  0  0
 11 12  1  0  0  0  0
 12 13  2  0  0  0  0
 13 14  1  0  0  0  0
 14 15  2  0  0  0  0
 15 10  1  0  0  0  0
 14 16  1  0  0  0  0
 16 17  2  0  0  0  0
 24 18  1  0  0  0  0
 17 26  1  0  0  0  0
 20 19  1  0  0  0  0
 23 20  1  0  0  0  0
 21 26  1  0  0  0  0
 22 21  2  0  0  0  0
 23 22  1  0  0  0  0
 24 23  2  0  0  0  0
 25 24  1  0  0  0  0
 26 25  2  0  0  0  0
 12 27  1  0  0  0  0
  3 28  1  1  0  0  0
  2 29  1  6  0  0  0
  4 30  1  6  0  0  0
M  END
>  <cdx:fragmentId>
5

$$$$
