907237.cdx
  Mrv1902 05222410202D          

 32 35  0  0  0  0            999 V2000
    8.7731   -8.4568    0.0000 C   0  0  1  0  0  0  0  0  0  0  0  0
    8.0587   -8.8693    0.0000 C   0  0  0  0  0  0  0  0  0  0  0  0
    7.3442   -8.4568    0.0000 C   0  0  0  0  0  0  0  0  0  0  0  0
    6.6297   -8.8693    0.0000 C   0  0  0  0  0  0  0  0  0  0  0  0
    5.9153   -8.4568    0.0000 C   0  0  0  0  0  0  0  0  0  0  0  0
    5.9153   -7.6318    0.0000 C   0  0  0  0  0  0  0  0  0  0  0  0
    6.6297   -7.2193    0.0000 C   0  0  0  0  0  0  0  0  0  0  0  0
    7.3442   -7.6318    0.0000 C   0  0  0  0  0  0  0  0  0  0  0  0
    8.0587   -7.2193    0.0000 O   0  0  0  0  0  0  0  0  0  0  0  0
    8.7731   -7.6318    0.0000 C   0  0  0  0  0  0  0  0  0  0  0  0
    9.4876   -8.8693    0.0000 C   0  0  0  0  0  0  0  0  0  0  0  0
   10.2021   -8.4568    0.0000 C   0  0  0  0  0  0  0  0  0  0  0  0
   10.9165   -8.8693    0.0000 C   0  0  0  0  0  0  0  0  0  0  0  0
   10.9165   -9.6943    0.0000 C   0  0  0  0  0  0  0  0  0  0  0  0
   10.2021  -10.1068    0.0000 C   0  0  0  0  0  0  0  0  0  0  0  0
    9.4876   -9.6943    0.0000 C   0  0  0  0  0  0  0  0  0  0  0  0
   11.6310  -10.1068    0.0000 C   0  0  0  0  0  0  0  0  0  0  0  0
   11.6310   -8.4568    0.0000 C   0  0  0  0  0  0  0  0  0  0  0  0
   10.2021   -7.6318    0.0000 O   0  0  0  0  0  0  0  0  0  0  0  0
    5.2008   -7.2193    0.0000 O   0  0  0  0  0  0  0  0  0  0  0  0
    1.6290   -7.6455    0.0000 O   0  0  0  0  0  0  0  0  0  0  0  0
    2.3434   -7.2330    0.0000 C   0  0  0  0  0  0  0  0  0  0  0  0
    3.7724   -7.2330    0.0000 O   0  0  0  0  0  0  0  0  0  0  0  0
    3.0579   -7.6455    0.0000 C   0  0  1  0  0  0  0  0  0  0  0  0
    2.3434   -8.8830    0.0000 O   0  0  0  0  0  0  0  0  0  0  0  0
    3.0579   -8.4705    0.0000 C   0  0  1  0  0  0  0  0  0  0  0  0
    3.7724   -9.7080    0.0000 O   0  0  0  0  0  0  0  0  0  0  0  0
    3.7724   -8.8830    0.0000 C   0  0  2  0  0  0  0  0  0  0  0  0
    5.2013   -8.8830    0.0000 O   0  0  0  0  0  0  0  0  0  0  0  0
    4.4868   -8.4705    0.0000 C   0  0  1  0  0  0  0  0  0  0  0  0
    4.4868   -7.6455    0.0000 C   0  0  2  0  0  0  0  0  0  0  0  0
    9.4876   -8.0443    0.0000 H   0  0  0  0  0  0  0  0  0  0  0  0
 31 23  1  0  0  0  0
 22 21  1  0  0  0  0
 24 22  1  1  0  0  0
 24 23  1  0  0  0  0
 26 24  1  0  0  0  0
 26 25  1  6  0  0  0
 28 26  1  0  0  0  0
 28 27  1  1  0  0  0
 30 28  1  0  0  0  0
 30 29  1  6  0  0  0
 31 30  1  0  0  0  0
  1  2  1  0  0  0  0
  2  3  1  0  0  0  0
  3  4  1  0  0  0  0
  4  5  2  0  0  0  0
  5  6  1  0  0  0  0
  6  7  2  0  0  0  0
  7  8  1  0  0  0  0
  3  8  2  0  0  0  0
  8  9  1  0  0  0  0
  9 10  1  0  0  0  0
  1 10  1  0  0  0  0
  1 11  1  0  0  0  0
 11 12  1  0  0  0  0
 12 13  2  0  0  0  0
 13 14  1  0  0  0  0
 14 15  2  0  0  0  0
 15 16  1  0  0  0  0
 11 16  2  0  0  0  0
 14 17  1  0  0  0  0
 13 18  1  0  0  0  0
 12 19  1  0  0  0  0
  6 20  1  0  0  0  0
 31 20  1  1  0  0  0
  1 32  1  6  0  0  0
M  END
>  <cdx:fragmentId>
5

$$$$
