90721.cdx
  Mrv1902 05222410232D          

 24 25  0  0  0  0            999 V2000
    2.0611   -8.7714    0.0000 O   0  0  0  0  0  0  0  0  0  0  0  0
    2.0611  -10.4214    0.0000 O   0  0  0  0  0  0  0  0  0  0  0  0
    4.2045  -10.0089    0.0000 C   0  0  0  0  0  0  0  0  0  0  0  0
    4.2045   -9.1839    0.0000 C   0  0  0  0  0  0  0  0  0  0  0  0
    5.6334   -9.1839    0.0000 C   0  0  0  0  0  0  0  0  0  0  0  0
    4.9190   -8.7714    0.0000 C   0  0  0  0  0  0  0  0  0  0  0  0
    7.0624   -9.1839    0.0000 O   0  0  0  0  0  0  0  0  0  0  0  0
    6.3479   -8.7714    0.0000 C   0  0  0  0  0  0  0  0  0  0  0  0
    8.4913  -10.0089    0.0000 O   0  0  0  0  0  0  0  0  0  0  0  0
    8.4913   -9.1839    0.0000 C   0  0  2  0  0  0  0  0  0  0  0  0
    7.7769   -8.7714    0.0000 C   0  0  0  0  0  0  0  0  0  0  0  0
    9.2058   -8.7714    0.0000 C   0  0  2  0  0  0  0  0  0  0  0  0
    3.4900   -8.7714    0.0000 C   0  0  0  0  0  0  0  0  0  0  0  0
    2.7756   -9.1839    0.0000 C   0  0  0  0  0  0  0  0  0  0  0  0
    2.7756  -10.0089    0.0000 C   0  0  0  0  0  0  0  0  0  0  0  0
    3.4900  -10.4214    0.0000 C   0  0  0  0  0  0  0  0  0  0  0  0
    6.3479   -7.9464    0.0000 O   0  0  0  0  0  0  0  0  0  0  0  0
    9.9595   -9.1070    0.0000 C   0  0  1  0  0  0  0  0  0  0  0  0
   10.5115   -8.4939    0.0000 C   0  0  2  0  0  0  0  0  0  0  0  0
   10.0990   -7.7794    0.0000 C   0  0  0  0  0  0  0  0  0  0  0  0
    9.2920   -7.9509    0.0000 O   0  0  0  0  0  0  0  0  0  0  0  0
   10.4346   -7.0257    0.0000 O   0  0  0  0  0  0  0  0  0  0  0  0
   10.1310   -9.9139    0.0000 O   0  0  0  0  0  0  0  0  0  0  0  0
   11.3320   -8.5801    0.0000 O   0  0  0  0  0  0  0  0  0  0  0  0
 14  1  1  0  0  0  0
 15  2  1  0  0  0  0
  3 16  1  0  0  0  0
  4  3  2  0  0  0  0
 13  4  1  0  0  0  0
 14 13  2  0  0  0  0
 15 14  1  0  0  0  0
 16 15  2  0  0  0  0
  5  6  2  0  0  0  0
  6  4  1  0  0  0  0
  7  8  1  0  0  0  0
  8  5  1  0  0  0  0
 10  9  1  6  0  0  0
 10 11  1  0  0  0  0
 11  7  1  0  0  0  0
 12 10  1  0  0  0  0
  8 17  2  0  0  0  0
 12 18  1  0  0  0  0
 18 19  1  0  0  0  0
 19 20  1  0  0  0  0
 20 21  1  0  0  0  0
 12 21  1  1  0  0  0
 20 22  2  0  0  0  0
 18 23  1  1  0  0  0
 19 24  1  6  0  0  0
M  END
>  <cdx:fragmentId>
5

$$$$
