90720.cdx
  Mrv1902 05222410222D          

 26 26  0  0  0  0            999 V2000
    2.0886   -8.7714    0.0000 O   0  0  0  0  0  0  0  0  0  0  0  0
    2.0886  -10.4214    0.0000 O   0  0  0  0  0  0  0  0  0  0  0  0
    4.2320  -10.0089    0.0000 C   0  0  0  0  0  0  0  0  0  0  0  0
    4.2320   -9.1839    0.0000 C   0  0  0  0  0  0  0  0  0  0  0  0
    5.6609   -9.1839    0.0000 C   0  0  0  0  0  0  0  0  0  0  0  0
    4.9465   -8.7714    0.0000 C   0  0  0  0  0  0  0  0  0  0  0  0
    7.0899   -9.1839    0.0000 O   0  0  0  0  0  0  0  0  0  0  0  0
    6.3754   -8.7714    0.0000 C   0  0  0  0  0  0  0  0  0  0  0  0
    8.5188  -10.0089    0.0000 O   0  0  0  0  0  0  0  0  0  0  0  0
    8.5188   -9.1839    0.0000 C   0  0  2  0  0  0  0  0  0  0  0  0
    7.8044   -8.7714    0.0000 C   0  0  0  0  0  0  0  0  0  0  0  0
    9.9478  -10.0089    0.0000 O   0  0  0  0  0  0  0  0  0  0  0  0
    9.9478   -9.1839    0.0000 C   0  0  1  0  0  0  0  0  0  0  0  0
    9.2333   -8.7714    0.0000 C   0  0  2  0  0  0  0  0  0  0  0  0
   11.3767  -10.0089    0.0000 O   0  0  0  0  0  0  0  0  0  0  0  0
   11.3767   -9.1839    0.0000 C   0  0  0  0  0  0  0  0  0  0  0  0
   10.6622   -8.7714    0.0000 C   0  0  2  0  0  0  0  0  0  0  0  0
    3.5175   -8.7714    0.0000 C   0  0  0  0  0  0  0  0  0  0  0  0
    2.8031   -9.1839    0.0000 C   0  0  0  0  0  0  0  0  0  0  0  0
    2.8031  -10.0089    0.0000 C   0  0  0  0  0  0  0  0  0  0  0  0
    3.5175  -10.4214    0.0000 C   0  0  0  0  0  0  0  0  0  0  0  0
    6.3754   -7.9464    0.0000 O   0  0  0  0  0  0  0  0  0  0  0  0
    9.2333   -7.9464    0.0000 O   0  0  0  0  0  0  0  0  0  0  0  0
   10.6622   -7.9464    0.0000 O   0  0  0  0  0  0  0  0  0  0  0  0
   12.0912   -8.7714    0.0000 O   0  0  0  0  0  0  0  0  0  0  0  0
   12.8056   -9.1839    0.0000 C   0  0  0  0  0  0  0  0  0  0  0  0
 19  1  1  0  0  0  0
 20  2  1  0  0  0  0
  3 21  1  0  0  0  0
  4  3  2  0  0  0  0
 18  4  1  0  0  0  0
 19 18  2  0  0  0  0
 20 19  1  0  0  0  0
 21 20  2  0  0  0  0
  5  6  2  0  0  0  0
  6  4  1  0  0  0  0
  7  8  1  0  0  0  0
  8  5  1  0  0  0  0
 10  9  1  6  0  0  0
 10 11  1  0  0  0  0
 11  7  1  0  0  0  0
 13 12  1  1  0  0  0
 13 14  1  0  0  0  0
 14 10  1  0  0  0  0
 15 16  2  0  0  0  0
 16 17  1  0  0  0  0
 17 13  1  0  0  0  0
  8 22  2  0  0  0  0
 14 23  1  1  0  0  0
 17 24  1  1  0  0  0
 16 25  1  0  0  0  0
 25 26  1  0  0  0  0
M  END
>  <cdx:fragmentId>
5

$$$$
