907351.cdx
  Mrv1902 05222410182D          

 16 17  0  0  0  0            999 V2000
    5.8365   -3.3006    0.0000 O   0  0  0  0  0  0  0  0  0  0  0  0
    7.2388   -4.2957    0.0000 H   0  0  0  0  0  0  0  0  0  0  0  0
    6.4625   -6.6000    0.0000 H   0  0  0  0  0  0  0  0  0  0  0  0
    5.6100   -7.0400    0.0000 C   0  0  0  0  0  0  0  0  0  0  0  0
    8.4425   -5.6650    0.0000 C   0  0  0  0  0  0  0  0  0  0  0  0
    8.3320   -6.0775    0.0000 C   0  0  0  0  0  0  0  0  0  0  0  0
    7.6175   -5.6650    0.0000 C   0  0  0  0  0  0  0  0  0  0  0  0
    6.0500   -4.0975    0.0000 C   0  0  2  0  0  0  0  0  0  0  0  0
    6.8263   -5.0101    0.0000 C   0  0  2  0  0  0  0  0  0  0  0  0
    5.4175   -5.0600    0.0000 C   0  0  0  0  0  0  0  0  0  0  0  0
    5.1150   -5.7200    0.0000 C   0  0  0  0  0  0  0  0  0  0  0  0
    5.6100   -6.2150    0.0000 C   0  0  0  0  0  0  0  0  0  0  0  0
    6.4625   -5.7750    0.0000 C   0  0  1  0  0  0  0  0  0  0  0  0
    6.4198   -2.7172    0.0000 C   0  0  0  0  0  0  0  0  0  0  0  0
    6.2063   -1.9204    0.0000 O   0  0  0  0  0  0  0  0  0  0  0  0
    7.2167   -2.9308    0.0000 C   0  0  0  0  0  0  0  0  0  0  0  0
  8  1  1  6  0  0  0
  9  2  1  6  0  0  0
 13  3  1  1  0  0  0
 12  4  1  0  0  0  0
  7  5  1  0  0  0  0
  7  6  1  0  0  0  0
  9  7  1  0  0  0  0
 13  7  1  0  0  0  0
 13  8  1  0  0  0  0
  9  8  1  0  0  0  0
 10  9  1  0  0  0  0
 11 10  1  0  0  0  0
 12 11  2  0  0  0  0
 13 12  1  0  0  0  0
  1 14  1  0  0  0  0
 14 15  2  0  0  0  0
 14 16  1  0  0  0  0
M  END
>  <cdx:fragmentId>
102

$$$$
