90732.cdx
  Mrv1902 05222410212D          

 15 16  0  0  0  0            999 V2000
    7.9247   -8.6918    0.0000 C   0  0  0  0  0  0  0  0  0  0  0  0
    7.3215   -8.1108    0.0000 C   0  0  0  0  0  0  0  0  0  0  0  0
    6.1173   -8.9953    0.0000 C   0  0  0  0  0  0  0  0  0  0  0  0
    5.6321   -8.6154    0.0000 C   0  0  0  0  0  0  0  0  0  0  0  0
    5.9614   -8.0857    0.0000 C   0  0  0  0  0  0  0  0  0  0  0  0
    6.9271   -8.5024    0.0000 C   0  0  0  0  0  0  0  0  0  0  0  0
    6.8369   -7.4053    0.0000 C   0  0  0  0  0  0  0  0  0  0  0  0
    5.5672   -7.3609    0.0000 C   0  0  0  0  0  0  0  0  0  0  0  0
    6.0689   -9.8189    0.0000 O   0  0  0  0  0  0  0  0  0  0  0  0
    8.6392   -8.2793    0.0000 C   0  0  0  0  0  0  0  0  0  0  0  0
    8.0626   -9.5052    0.0000 C   0  0  0  0  0  0  0  0  0  0  0  0
    5.3544  -10.2314    0.0000 C   0  0  0  0  0  0  0  0  0  0  0  0
    5.3544  -11.0564    0.0000 C   0  0  0  0  0  0  0  0  0  0  0  0
    4.6399   -9.8189    0.0000 O   0  0  0  0  0  0  0  0  0  0  0  0
    7.0745   -9.3142    0.0000 H   0  0  0  0  0  0  0  0  0  0  0  0
  6  1  1  0  0  0  0
  1  2  1  0  0  0  0
  2  7  1  0  0  0  0
  6  3  1  0  0  0  0
  3  4  1  0  0  0  0
  4  5  2  0  0  0  0
  2  5  1  0  0  0  0
  6  7  1  0  0  0  0
  5  8  1  0  0  0  0
  3  9  1  0  0  0  0
  1 10  1  0  0  0  0
  1 11  1  0  0  0  0
  9 12  1  0  0  0  0
 12 13  1  0  0  0  0
 12 14  2  0  0  0  0
  6 15  1  0  0  0  0
M  END
>  <cdx:groupId>
813

>  <cdx:fragmentId>
814

$$$$
