90730.cdx
  Mrv1902 05222410212D          

 40 45  0  0  0  0            999 V2000
   12.2401  -11.3307    0.0000 H   0  0  0  0  0  0  0  0  0  0  0  0
   12.2476   -8.8558    0.0000 C   0  0  0  0  0  0  0  0  0  0  0  0
   13.6741   -8.8601    0.0000 H   0  0  0  0  0  0  0  0  0  0  0  0
   14.3923   -7.6247    0.0000 C   0  0  0  0  0  0  0  0  0  0  0  0
   12.9584  -10.0954    0.0000 H   0  0  0  0  0  0  0  0  0  0  0  0
   14.3898  -10.0997    0.0000 H   0  0  0  0  0  0  0  0  0  0  0  0
   14.7652   -7.4827    0.0000 O   0  0  0  0  0  0  0  0  0  0  0  0
   16.1435   -9.5350    0.0000 H   0  0  0  0  0  0  0  0  0  0  0  0
   15.4120   -6.7458    0.0000 C   0  0  0  0  0  0  0  0  0  0  0  0
   18.4551   -6.3398    0.0000 C   0  0  0  0  0  0  0  0  0  0  0  0
   10.6102  -12.0122    0.0000 C   0  0  0  0  0  0  0  0  0  0  0  0
    9.8063   -9.4880    0.0000 C   0  0  0  0  0  0  0  0  0  0  0  0
   10.3990  -11.2147    0.0000 O   0  0  0  0  0  0  0  0  0  0  0  0
   10.0175  -10.2855    0.0000 O   0  0  0  0  0  0  0  0  0  0  0  0
   13.6815   -7.2101    0.0000 O   0  0  0  0  0  0  0  0  0  0  0  0
   17.2011   -8.1263    0.0000 C   0  0  0  0  0  0  0  0  0  0  0  0
   17.8700   -7.6434    0.0000 C   0  0  0  0  0  0  0  0  0  0  0  0
   17.7862   -6.8227    0.0000 C   0  0  2  0  0  0  0  0  0  0  0  0
   17.0336   -6.4849    0.0000 C   0  0  0  0  0  0  0  0  0  0  0  0
   16.3647   -6.9678    0.0000 O   0  0  0  0  0  0  0  0  0  0  0  0
   16.4460   -8.6135    0.0000 O   0  0  0  0  0  0  0  0  0  0  0  0
   16.4484   -7.7885    0.0000 C   0  0  1  0  0  0  0  0  0  0  0  0
   15.6646   -7.5312    0.0000 C   0  0  2  0  0  0  0  0  0  0  0  0
   15.1736   -9.5320    0.0000 C   0  0  0  0  0  0  0  0  0  0  0  0
   15.6606   -8.8661    0.0000 C   0  0  1  0  0  0  0  0  0  0  0  0
   15.1777   -8.1972    0.0000 C   0  0  2  0  0  0  0  0  0  0  0  0
   11.5319   -9.2661    0.0000 C   0  0  0  0  0  0  0  0  0  0  0  0
   10.8162   -9.6764    0.0000 C   0  0  0  0  0  0  0  0  0  0  0  0
   10.8137  -10.5014    0.0000 C   0  0  0  0  0  0  0  0  0  0  0  0
   11.5269  -10.9161    0.0000 C   0  0  0  0  0  0  0  0  0  0  0  0
   12.2451   -9.6808    0.0000 C   0  0  2  0  0  0  0  0  0  0  0  0
   12.2426  -10.5057    0.0000 C   0  0  2  0  0  0  0  0  0  0  0  0
   12.9559  -10.9204    0.0000 C   0  0  0  0  0  0  0  0  0  0  0  0
   13.6716  -10.5101    0.0000 C   0  0  0  0  0  0  0  0  0  0  0  0
   12.9633   -8.4454    0.0000 C   0  0  0  0  0  0  0  0  0  0  0  0
   12.9608   -9.2704    0.0000 C   0  0  1  0  0  0  0  0  0  0  0  0
   13.6741   -9.6851    0.0000 C   0  0  2  0  0  0  0  0  0  0  0  0
   14.3898   -9.2747    0.0000 C   0  0  1  0  0  0  0  0  0  0  0  0
   14.3923   -8.4497    0.0000 C   0  0  1  0  0  0  0  0  0  0  0  0
   13.6790   -8.0351    0.0000 C   0  0  0  0  0  0  0  0  0  0  0  0
 32  1  1  1  0  0  0
 31  2  1  1  0  0  0
 37  3  1  1  0  0  0
 39  4  1  1  0  0  0
 36  5  1  6  0  0  0
 38  6  1  6  0  0  0
 26  7  1  6  0  0  0
 25  8  1  6  0  0  0
 23  9  1  6  0  0  0
 18 10  1  6  0  0  0
 13 11  1  0  0  0  0
 14 12  1  0  0  0  0
 29 13  1  0  0  0  0
 29 14  1  0  0  0  0
 40 15  2  0  0  0  0
 16 22  1  0  0  0  0
 17 16  1  0  0  0  0
 18 17  1  0  0  0  0
 19 18  1  0  0  0  0
 20 19  1  0  0  0  0
 22 20  1  0  0  0  0
 21 25  1  0  0  0  0
 22 21  1  6  0  0  0
 23 22  1  0  0  0  0
 26 23  1  0  0  0  0
 24 38  1  0  0  0  0
 25 24  1  0  0  0  0
 26 25  1  0  0  0  0
 39 26  1  0  0  0  0
 27 31  1  0  0  0  0
 28 27  1  0  0  0  0
 29 28  1  0  0  0  0
 30 29  1  0  0  0  0
 32 30  1  0  0  0  0
 31 36  1  0  0  0  0
 32 31  1  0  0  0  0
 33 32  1  0  0  0  0
 34 33  1  0  0  0  0
 37 34  1  0  0  0  0
 35 40  1  0  0  0  0
 36 35  1  0  0  0  0
 37 36  1  0  0  0  0
 38 37  1  0  0  0  0
 39 38  1  0  0  0  0
 40 39  1  0  0  0  0
M  END
>  <cdx:fragmentId>
5

$$$$
