907304.cdx
  Mrv1902 05222410242D          

 23 23  0  0  0  0            999 V2000
    2.6158   -5.7956    0.0000 C   0  0  0  0  0  0  0  0  0  0  0  0
    2.6158   -6.6206    0.0000 C   0  0  0  0  0  0  0  0  0  0  0  0
    3.3302   -7.0331    0.0000 C   0  0  0  0  0  0  0  0  0  0  0  0
    4.0447   -6.6206    0.0000 C   0  0  0  0  0  0  0  0  0  0  0  0
    4.0447   -5.7956    0.0000 C   0  0  0  0  0  0  0  0  0  0  0  0
    3.3302   -5.3831    0.0000 C   0  0  0  0  0  0  0  0  0  0  0  0
    1.9013   -5.3831    0.0000 O   0  0  0  0  0  0  0  0  0  0  0  0
    1.9013   -7.0331    0.0000 O   0  0  0  0  0  0  0  0  0  0  0  0
    4.7592   -5.3831    0.0000 C   0  0  0  0  0  0  0  0  0  0  0  0
    5.4737   -5.7956    0.0000 C   0  0  0  0  0  0  0  0  0  0  0  0
    6.1881   -5.3831    0.0000 C   0  0  0  0  0  0  0  0  0  0  0  0
    6.9026   -5.7956    0.0000 C   0  0  0  0  0  0  0  0  0  0  0  0
    7.6171   -5.3831    0.0000 C   0  0  0  0  0  0  0  0  0  0  0  0
    6.1881   -4.5581    0.0000 O   0  0  0  0  0  0  0  0  0  0  0  0
    8.3315   -5.7956    0.0000 C   0  0  0  0  0  0  0  0  0  0  0  0
    9.0460   -5.3831    0.0000 C   0  0  0  0  0  0  0  0  0  0  0  0
    9.7605   -5.7956    0.0000 C   0  0  0  0  0  0  0  0  0  0  0  0
   10.4750   -5.3831    0.0000 C   0  0  0  0  0  0  0  0  0  0  0  0
   11.1894   -5.7956    0.0000 C   0  0  0  0  0  0  0  0  0  0  0  0
   11.9039   -5.3831    0.0000 C   0  0  0  0  0  0  0  0  0  0  0  0
   12.6184   -5.7956    0.0000 C   0  0  0  0  0  0  0  0  0  0  0  0
   13.3328   -5.3831    0.0000 C   0  0  0  0  0  0  0  0  0  0  0  0
    1.1868   -5.7956    0.0000 C   0  0  0  0  0  0  0  0  0  0  0  0
  1  2  2  0  0  0  0
  2  3  1  0  0  0  0
  3  4  2  0  0  0  0
  4  5  1  0  0  0  0
  5  6  2  0  0  0  0
  6  1  1  0  0  0  0
  1  7  1  0  0  0  0
  2  8  1  0  0  0  0
  5  9  1  0  0  0  0
  9 10  1  0  0  0  0
 10 11  1  0  0  0  0
 11 12  1  0  0  0  0
 12 13  1  0  0  0  0
 11 14  2  0  0  0  0
 13 15  1  0  0  0  0
 15 16  1  0  0  0  0
 16 17  1  0  0  0  0
 17 18  1  0  0  0  0
 18 19  1  0  0  0  0
 19 20  1  0  0  0  0
 20 21  1  0  0  0  0
 21 22  1  0  0  0  0
  7 23  1  0  0  0  0
M  END
>  <cdx:fragmentId>
5

$$$$
