90734.cdx
  Mrv1902 05222410222D          

 25 26  0  0  0  0            999 V2000
    6.3540   -4.0198    0.0000 C   0  0  0  0  0  0  0  0  0  0  0  0
    6.3540   -4.8448    0.0000 C   0  0  0  0  0  0  0  0  0  0  0  0
    7.0685   -5.2573    0.0000 C   0  0  0  0  0  0  0  0  0  0  0  0
    7.7829   -4.8448    0.0000 C   0  0  0  0  0  0  0  0  0  0  0  0
    7.7829   -4.0198    0.0000 C   0  0  0  0  0  0  0  0  0  0  0  0
    7.0685   -3.6073    0.0000 C   0  0  0  0  0  0  0  0  0  0  0  0
    5.6395   -3.6073    0.0000 O   0  0  0  0  0  0  0  0  0  0  0  0
    5.6395   -5.2573    0.0000 O   0  0  0  0  0  0  0  0  0  0  0  0
    8.4974   -3.6073    0.0000 C   0  0  0  0  0  0  0  0  0  0  0  0
    9.2119   -4.0198    0.0000 C   0  0  0  0  0  0  0  0  0  0  0  0
    9.9264   -3.6073    0.0000 C   0  0  0  0  0  0  0  0  0  0  0  0
   10.6408   -4.0198    0.0000 O   0  0  0  0  0  0  0  0  0  0  0  0
    9.9264   -2.7823    0.0000 O   0  0  0  0  0  0  0  0  0  0  0  0
    4.2048   -3.6368    0.0000 C   0  0  2  0  0  0  0  0  0  0  0  0
    3.4934   -4.0546    0.0000 C   0  0  2  0  0  0  0  0  0  0  0  0
    3.4995   -4.8795    0.0000 C   0  0  1  0  0  0  0  0  0  0  0  0
    4.2171   -5.2867    0.0000 C   0  0  2  0  0  0  0  0  0  0  0  0
    4.9284   -4.8689    0.0000 C   0  0  1  0  0  0  0  0  0  0  0  0
    4.9223   -4.0440    0.0000 O   0  0  0  0  0  0  0  0  0  0  0  0
    4.1987   -2.8118    0.0000 C   0  0  0  0  0  0  0  0  0  0  0  0
    2.7882   -5.2973    0.0000 O   0  0  0  0  0  0  0  0  0  0  0  0
    2.7759   -3.6474    0.0000 O   0  0  0  0  0  0  0  0  0  0  0  0
    4.2232   -6.1117    0.0000 O   0  0  0  0  0  0  0  0  0  0  0  0
    3.4812   -2.4046    0.0000 O   0  0  0  0  0  0  0  0  0  0  0  0
    4.9101   -2.3940    0.0000 O   0  0  0  0  0  0  0  0  0  0  0  0
  1  2  2  0  0  0  0
  2  3  1  0  0  0  0
  3  4  2  0  0  0  0
  4  5  1  0  0  0  0
  5  6  2  0  0  0  0
  6  1  1  0  0  0  0
  1  7  1  0  0  0  0
  2  8  1  0  0  0  0
  5  9  1  0  0  0  0
  9 10  2  0  0  0  0
 10 11  1  0  0  0  0
 11 12  1  0  0  0  0
 11 13  2  0  0  0  0
 14 15  1  0  0  0  0
 15 16  1  0  0  0  0
 16 17  1  0  0  0  0
 17 18  1  0  0  0  0
 18 19  1  0  0  0  0
 19 14  1  0  0  0  0
 14 20  1  1  0  0  0
 16 21  1  1  0  0  0
 15 22  1  6  0  0  0
 17 23  1  6  0  0  0
 20 24  1  0  0  0  0
 20 25  2  0  0  0  0
 18  8  1  1  0  0  0
M  END
>  <cdx:fragmentId>
171

$$$$
