907355.cdx
  Mrv1902 05222410202D          

 28 28  0  0  0  0            999 V2000
    2.4302  -10.2231    0.0000 C   0  0  0  0  0  0  0  0  0  0  0  0
    2.4302  -11.0481    0.0000 C   0  0  0  0  0  0  0  0  0  0  0  0
    3.1446  -11.4606    0.0000 C   0  0  0  0  0  0  0  0  0  0  0  0
    3.8591  -11.0481    0.0000 C   0  0  0  0  0  0  0  0  0  0  0  0
    3.8591  -10.2231    0.0000 C   0  0  0  0  0  0  0  0  0  0  0  0
    3.1446   -9.8106    0.0000 C   0  0  0  0  0  0  0  0  0  0  0  0
    1.7157   -9.8106    0.0000 O   0  0  0  0  0  0  0  0  0  0  0  0
    1.7157  -11.4606    0.0000 O   0  0  0  0  0  0  0  0  0  0  0  0
    4.5736   -9.8106    0.0000 C   0  0  0  0  0  0  0  0  0  0  0  0
    5.2880  -10.2231    0.0000 C   0  0  0  0  0  0  0  0  0  0  0  0
    6.0025   -9.8106    0.0000 C   0  0  0  0  0  0  0  0  0  0  0  0
    6.7170  -10.2231    0.0000 C   0  0  0  0  0  0  0  0  0  0  0  0
    7.4315   -9.8106    0.0000 C   0  0  2  0  0  0  0  0  0  0  0  0
    8.1459  -10.2231    0.0000 C   0  0  0  0  0  0  0  0  0  0  0  0
    8.8604   -9.8106    0.0000 C   0  0  0  0  0  0  0  0  0  0  0  0
    6.0025   -8.9856    0.0000 O   0  0  0  0  0  0  0  0  0  0  0  0
    7.4315   -8.9856    0.0000 O   0  0  0  0  0  0  0  0  0  0  0  0
    8.1459   -7.7481    0.0000 O   0  0  0  0  0  0  0  0  0  0  0  0
    8.8604   -8.9856    0.0000 C   0  0  0  0  0  0  0  0  0  0  0  0
    8.1459   -8.5731    0.0000 C   0  0  0  0  0  0  0  0  0  0  0  0
    9.5749  -10.2231    0.0000 C   0  0  0  0  0  0  0  0  0  0  0  0
   10.2893   -9.8106    0.0000 C   0  0  0  0  0  0  0  0  0  0  0  0
   11.0038  -10.2231    0.0000 C   0  0  0  0  0  0  0  0  0  0  0  0
   11.7183   -9.8106    0.0000 C   0  0  0  0  0  0  0  0  0  0  0  0
   12.4327  -10.2231    0.0000 C   0  0  0  0  0  0  0  0  0  0  0  0
   13.1472   -9.8106    0.0000 C   0  0  0  0  0  0  0  0  0  0  0  0
   13.8617  -10.2231    0.0000 C   0  0  0  0  0  0  0  0  0  0  0  0
    1.0012  -10.2231    0.0000 C   0  0  0  0  0  0  0  0  0  0  0  0
  1  2  2  0  0  0  0
  2  3  1  0  0  0  0
  3  4  2  0  0  0  0
  4  5  1  0  0  0  0
  5  6  2  0  0  0  0
  6  1  1  0  0  0  0
  1  7  1  0  0  0  0
  2  8  1  0  0  0  0
  5  9  1  0  0  0  0
  9 10  1  0  0  0  0
 10 11  1  0  0  0  0
 11 12  1  0  0  0  0
 12 13  1  0  0  0  0
 13 14  1  0  0  0  0
 14 15  1  0  0  0  0
 11 16  2  0  0  0  0
 13 17  1  1  0  0  0
 20 18  2  0  0  0  0
 17 20  1  0  0  0  0
 20 19  1  0  0  0  0
 15 21  1  0  0  0  0
 21 22  1  0  0  0  0
 22 23  1  0  0  0  0
 23 24  1  0  0  0  0
 24 25  1  0  0  0  0
 25 26  1  0  0  0  0
 26 27  1  0  0  0  0
  7 28  1  0  0  0  0
M  END
>  <cdx:fragmentId>
5

$$$$
