90735.cdx
  Mrv1902 05222410232D          

 31 34  0  0  0  0            999 V2000
    4.5081   -5.7326    0.0000 C   0  0  0  0  0  0  0  0  0  0  0  0
    4.5081   -6.5576    0.0000 C   0  0  0  0  0  0  0  0  0  0  0  0
    5.2225   -6.9701    0.0000 C   0  0  0  0  0  0  0  0  0  0  0  0
    5.9370   -6.5576    0.0000 C   0  0  0  0  0  0  0  0  0  0  0  0
    5.9370   -5.7326    0.0000 C   0  0  0  0  0  0  0  0  0  0  0  0
    5.2225   -5.3201    0.0000 C   0  0  0  0  0  0  0  0  0  0  0  0
    6.6515   -6.9701    0.0000 C   0  0  0  0  0  0  0  0  0  0  0  0
    7.3659   -6.5576    0.0000 N   0  0  0  0  0  0  0  0  0  0  0  0
    7.3659   -5.7326    0.0000 C   0  0  0  0  0  0  0  0  0  0  0  0
    6.6515   -5.3201    0.0000 C   0  0  0  0  0  0  0  0  0  0  0  0
    6.6515   -7.7951    0.0000 C   0  0  0  0  0  0  0  0  0  0  0  0
    7.3659   -8.2076    0.0000 C   0  0  0  0  0  0  0  0  0  0  0  0
    8.0804   -7.7951    0.0000 C   0  0  0  0  0  0  0  0  0  0  0  0
    8.0804   -6.9701    0.0000 C   0  0  0  0  0  0  0  0  0  0  0  0
    7.3659   -9.0326    0.0000 C   0  0  0  0  0  0  0  0  0  0  0  0
    8.0804   -9.4451    0.0000 C   0  0  0  0  0  0  0  0  0  0  0  0
    8.7949   -9.0326    0.0000 C   0  0  0  0  0  0  0  0  0  0  0  0
    8.7949   -8.2076    0.0000 C   0  0  0  0  0  0  0  0  0  0  0  0
    9.5094   -9.4451    0.0000 O   0  0  0  0  0  0  0  0  0  0  0  0
    9.5094   -7.7951    0.0000 O   0  0  0  0  0  0  0  0  0  0  0  0
    3.7936   -5.3201    0.0000 O   0  0  0  0  0  0  0  0  0  0  0  0
    3.7936   -6.9701    0.0000 O   0  0  0  0  0  0  0  0  0  0  0  0
    9.5094  -10.2701    0.0000 C   0  0  2  0  0  0  0  0  0  0  0  0
    8.7949  -10.6826    0.0000 O   0  0  0  0  0  0  0  0  0  0  0  0
    8.7949  -11.5076    0.0000 C   0  0  0  0  0  0  0  0  0  0  0  0
    9.5094  -11.9201    0.0000 C   0  0  2  0  0  0  0  0  0  0  0  0
   10.2238  -11.5076    0.0000 C   0  0  1  0  0  0  0  0  0  0  0  0
   10.2238  -10.6826    0.0000 C   0  0  1  0  0  0  0  0  0  0  0  0
   10.9383  -10.2701    0.0000 O   0  0  0  0  0  0  0  0  0  0  0  0
    9.5094  -12.7451    0.0000 O   0  0  0  0  0  0  0  0  0  0  0  0
   10.9383  -11.9201    0.0000 O   0  0  0  0  0  0  0  0  0  0  0  0
  1  2  2  0  0  0  0
  2  3  1  0  0  0  0
  3  4  2  0  0  0  0
  4  5  1  0  0  0  0
  5  6  2  0  0  0  0
  6  1  1  0  0  0  0
  4  7  1  0  0  0  0
  7  8  1  0  0  0  0
  8  9  1  0  0  0  0
  9 10  1  0  0  0  0
 10  5  1  0  0  0  0
  7 11  1  0  0  0  0
 11 12  1  0  0  0  0
 12 13  1  0  0  0  0
 14  8  1  0  0  0  0
 12 15  2  0  0  0  0
 15 16  1  0  0  0  0
 16 17  2  0  0  0  0
 17 18  1  0  0  0  0
 18 13  2  0  0  0  0
 17 19  1  0  0  0  0
 20 18  1  0  0  0  0
  1 21  1  0  0  0  0
  2 22  1  0  0  0  0
 23 19  1  1  0  0  0
 23 24  1  0  0  0  0
 24 25  1  0  0  0  0
 25 26  1  0  0  0  0
 26 27  1  0  0  0  0
 27 28  1  0  0  0  0
 28 23  1  0  0  0  0
 28 29  1  6  0  0  0
 26 30  1  6  0  0  0
 27 31  1  1  0  0  0
M  END
>  <cdx:fragmentId>
5

$$$$
