90743.cdx
  Mrv1902 05222410202D          

 82 90  0  0  0  0            999 V2000
    5.4706   -7.7264    0.0000 C   0  0  0  0  0  0  0  0  0  0  0  0
    5.4706   -8.5514    0.0000 C   0  0  1  0  0  0  0  0  0  0  0  0
    6.1850   -8.9639    0.0000 C   0  0  0  0  0  0  0  0  0  0  0  0
    6.8995   -8.5514    0.0000 C   0  0  0  0  0  0  0  0  0  0  0  0
    6.8995   -7.7264    0.0000 C   0  0  2  0  0  0  0  0  0  0  0  0
    6.1850   -7.3139    0.0000 C   0  0  0  0  0  0  0  0  0  0  0  0
    7.6140   -8.9639    0.0000 C   0  0  0  0  0  0  0  0  0  0  0  0
    8.3284   -8.5514    0.0000 C   0  0  0  0  0  0  0  0  0  0  0  0
    8.3284   -7.7264    0.0000 C   0  0  2  0  0  0  0  0  0  0  0  0
    7.6140   -7.3139    0.0000 C   0  0  0  0  0  0  0  0  0  0  0  0
    9.0429   -7.3139    0.0000 C   0  0  0  0  0  0  0  0  0  0  0  0
    9.0429   -6.4889    0.0000 C   0  0  2  0  0  0  0  0  0  0  0  0
    8.3284   -6.0764    0.0000 C   0  0  0  0  0  0  0  0  0  0  0  0
    7.6140   -6.4889    0.0000 C   0  0  0  0  0  0  0  0  0  0  0  0
   10.4719   -7.3139    0.0000 C   0  0  0  0  0  0  0  0  0  0  0  0
   10.4719   -6.4889    0.0000 C   0  0  0  0  0  0  0  0  0  0  0  0
    9.7574   -6.0764    0.0000 C   0  0  0  0  0  0  0  0  0  0  0  0
    4.7561   -8.9639    0.0000 O   0  0  0  0  0  0  0  0  0  0  0  0
    4.7561   -9.7889    0.0000 C   0  0  2  0  0  0  0  0  0  0  0  0
    4.3436   -9.0744    0.0000 O   0  0  0  0  0  0  0  0  0  0  0  0
    3.5186   -9.0744    0.0000 C   0  0  1  0  0  0  0  0  0  0  0  0
    3.1061   -9.7889    0.0000 C   0  0  2  0  0  0  0  0  0  0  0  0
    3.5186  -10.5034    0.0000 C   0  0  2  0  0  0  0  0  0  0  0  0
    4.3436  -10.5034    0.0000 C   0  0  0  0  0  0  0  0  0  0  0  0
    9.7574   -5.2514    0.0000 C   0  0  0  0  0  0  0  0  0  0  0  0
    3.5186  -11.3284    0.0000 O   0  0  0  0  0  0  0  0  0  0  0  0
    4.2331  -11.7409    0.0000 C   0  0  0  0  0  0  0  0  0  0  0  0
    3.1061  -10.6139    0.0000 O   0  0  0  0  0  0  0  0  0  0  0  0
    3.1061  -11.4389    0.0000 C   0  0  2  0  0  0  0  0  0  0  0  0
    2.6936  -10.7244    0.0000 O   0  0  0  0  0  0  0  0  0  0  0  0
    1.8686  -10.7244    0.0000 C   0  0  1  0  0  0  0  0  0  0  0  0
    1.4561  -11.4389    0.0000 C   0  0  1  0  0  0  0  0  0  0  0  0
    1.8686  -12.1534    0.0000 C   0  0  1  0  0  0  0  0  0  0  0  0
    2.6936  -12.1534    0.0000 C   0  0  1  0  0  0  0  0  0  0  0  0
    2.6936  -12.9784    0.0000 O   0  0  0  0  0  0  0  0  0  0  0  0
    3.4081  -12.5659    0.0000 C   0  0  0  0  0  0  0  0  0  0  0  0
    3.4081  -11.7409    0.0000 C   0  0  0  0  0  0  0  0  0  0  0  0
    4.1225  -12.9784    0.0000 O   0  0  0  0  0  0  0  0  0  0  0  0
    1.8686  -11.3284    0.0000 O   0  0  0  0  0  0  0  0  0  0  0  0
    2.5831  -11.7409    0.0000 C   0  0  0  0  0  0  0  0  0  0  0  0
    1.2426  -10.6420    0.0000 O   0  0  0  0  0  0  0  0  0  0  0  0
    1.8686   -9.8994    0.0000 C   0  0  0  0  0  0  0  0  0  0  0  0
    3.5186   -8.2494    0.0000 C   0  0  0  0  0  0  0  0  0  0  0  0
    6.8995   -6.9014    0.0000 C   0  0  0  0  0  0  0  0  0  0  0  0
    8.3284   -6.9014    0.0000 H   0  0  0  0  0  0  0  0  0  0  0  0
    9.0429   -5.6639    0.0000 C   0  0  0  0  0  0  0  0  0  0  0  0
   11.2450   -7.9194    0.0000 C   0  0  2  0  0  0  0  0  0  0  0  0
   10.8325   -8.6339    0.0000 C   0  0  1  0  0  0  0  0  0  0  0  0
   11.2450   -9.3484    0.0000 C   0  0  1  0  0  0  0  0  0  0  0  0
   12.0700   -9.3484    0.0000 C   0  0  2  0  0  0  0  0  0  0  0  0
   12.4825   -8.6339    0.0000 C   0  0  1  0  0  0  0  0  0  0  0  0
   12.0700   -7.9194    0.0000 O   0  0  0  0  0  0  0  0  0  0  0  0
   11.2450   -7.0944    0.0000 C   0  0  0  0  0  0  0  0  0  0  0  0
   10.6190   -7.8370    0.0000 O   0  0  0  0  0  0  0  0  0  0  0  0
   11.2450   -8.5234    0.0000 O   0  0  0  0  0  0  0  0  0  0  0  0
   12.4688   -6.8326    0.0000 O   0  0  0  0  0  0  0  0  0  0  0  0
    9.7574   -4.4264    0.0000 C   0  0  0  0  0  0  0  0  0  0  0  0
    8.9324   -5.2514    0.0000 H   0  0  0  0  0  0  0  0  0  0  0  0
   11.9595   -8.9359    0.0000 C   0  0  0  0  0  0  0  0  0  0  0  0
   12.0700  -10.1734    0.0000 O   0  0  0  0  0  0  0  0  0  0  0  0
   12.0700  -10.9984    0.0000 C   0  0  2  0  0  0  0  0  0  0  0  0
   11.6575  -10.2839    0.0000 O   0  0  0  0  0  0  0  0  0  0  0  0
   10.8325  -10.2839    0.0000 C   0  0  1  0  0  0  0  0  0  0  0  0
   10.4200  -10.9984    0.0000 C   0  0  2  0  0  0  0  0  0  0  0  0
   10.8325  -11.7128    0.0000 C   0  0  1  0  0  0  0  0  0  0  0  0
   11.6575  -11.7128    0.0000 C   0  0  1  0  0  0  0  0  0  0  0  0
   10.8325   -9.4589    0.0000 C   0  0  0  0  0  0  0  0  0  0  0  0
   10.1181   -9.8714    0.0000 O   0  0  0  0  0  0  0  0  0  0  0  0
    9.7056  -10.5859    0.0000 C   0  0  2  0  0  0  0  0  0  0  0  0
    9.2931   -9.8714    0.0000 O   0  0  0  0  0  0  0  0  0  0  0  0
    8.4681   -9.8714    0.0000 C   0  0  1  0  0  0  0  0  0  0  0  0
    8.0556  -10.5859    0.0000 C   0  0  2  0  0  0  0  0  0  0  0  0
    8.4681  -11.3003    0.0000 C   0  0  1  0  0  0  0  0  0  0  0  0
    9.2931  -11.3003    0.0000 C   0  0  1  0  0  0  0  0  0  0  0  0
    8.4681   -9.0464    0.0000 C   0  0  0  0  0  0  0  0  0  0  0  0
    7.8847   -9.6298    0.0000 O   0  0  0  0  0  0  0  0  0  0  0  0
   10.8325  -10.8878    0.0000 O   0  0  0  0  0  0  0  0  0  0  0  0
    8.4681  -10.4753    0.0000 O   0  0  0  0  0  0  0  0  0  0  0  0
    8.0556  -11.4109    0.0000 O   0  0  0  0  0  0  0  0  0  0  0  0
    9.2931  -12.1253    0.0000 O   0  0  0  0  0  0  0  0  0  0  0  0
   10.4200  -11.8234    0.0000 O   0  0  0  0  0  0  0  0  0  0  0  0
   11.6575  -12.5378    0.0000 O   0  0  0  0  0  0  0  0  0  0  0  0
  1  2  1  0  0  0  0
  2  3  1  0  0  0  0
  3  4  1  0  0  0  0
  4  5  1  0  0  0  0
  5  6  1  0  0  0  0
  6  1  1  0  0  0  0
  4  7  2  0  0  0  0
  7  8  1  0  0  0  0
  8  9  1  0  0  0  0
  9 10  1  0  0  0  0
 10  5  1  0  0  0  0
  9 11  1  0  0  0  0
 11 12  1  0  0  0  0
 12 13  1  0  0  0  0
 13 14  1  0  0  0  0
 14 10  1  0  0  0  0
 15 16  1  0  0  0  0
 16 17  1  0  0  0  0
 17 12  1  0  0  0  0
  2 18  1  1  0  0  0
 19 18  1  1  0  0  0
 19 20  1  0  0  0  0
 20 21  1  0  0  0  0
 21 22  1  0  0  0  0
 22 23  1  0  0  0  0
 23 24  1  0  0  0  0
 24 19  1  0  0  0  0
 11 15  1  0  0  0  0
 17 25  1  0  0  0  0
 23 26  1  6  0  0  0
 26 27  1  0  0  0  0
 22 28  1  6  0  0  0
 29 28  1  1  0  0  0
 29 30  1  0  0  0  0
 30 31  1  0  0  0  0
 31 32  1  0  0  0  0
 32 33  1  0  0  0  0
 33 34  1  0  0  0  0
 34 29  1  0  0  0  0
 34 35  1  6  0  0  0
 35 36  1  0  0  0  0
 36 37  1  0  0  0  0
 36 38  2  0  0  0  0
 33 39  1  1  0  0  0
 39 40  1  0  0  0  0
 32 41  1  1  0  0  0
 31 42  1  1  0  0  0
 21 43  1  1  0  0  0
  5 44  1  1  0  0  0
  9 45  1  1  0  0  0
 12 46  1  1  0  0  0
 47 48  1  0  0  0  0
 48 49  1  0  0  0  0
 49 50  1  0  0  0  0
 50 51  1  0  0  0  0
 51 52  1  0  0  0  0
 52 47  1  0  0  0  0
 47 53  1  1  0  0  0
 48 54  1  1  0  0  0
 49 55  1  1  0  0  0
 51 56  1  1  0  0  0
 25 56  1  0  0  0  0
 25 57  1  0  0  0  0
 25 58  1  0  0  0  0
 55 59  1  0  0  0  0
 50 60  1  6  0  0  0
 61 60  1  1  0  0  0
 61 62  1  0  0  0  0
 62 63  1  0  0  0  0
 63 64  1  0  0  0  0
 64 65  1  0  0  0  0
 65 66  1  0  0  0  0
 66 61  1  0  0  0  0
 63 67  1  1  0  0  0
 67 68  1  0  0  0  0
 69 68  1  1  0  0  0
 69 70  1  0  0  0  0
 70 71  1  0  0  0  0
 71 72  1  0  0  0  0
 72 73  1  0  0  0  0
 73 74  1  0  0  0  0
 74 69  1  0  0  0  0
 71 75  1  1  0  0  0
 75 76  1  0  0  0  0
 65 77  1  1  0  0  0
 73 78  1  1  0  0  0
 72 79  1  6  0  0  0
 74 80  1  6  0  0  0
 64 81  1  6  0  0  0
 66 82  1  6  0  0  0
M  END
>  <cdx:fragmentId>
5

$$$$
