90745.cdx
  Mrv1902 05222410182D          

 89 99  0  0  0  0            999 V2000
    8.6593   -5.9435    0.0000 C   0  0  0  0  0  0  0  0  0  0  0  0
    8.6579   -6.6035    0.0000 C   0  0  1  0  0  0  0  0  0  0  0  0
    9.2288   -6.9347    0.0000 C   0  0  0  0  0  0  0  0  0  0  0  0
    9.8011   -6.6060    0.0000 C   0  0  0  0  0  0  0  0  0  0  0  0
    9.8025   -5.9460    0.0000 C   0  0  2  0  0  0  0  0  0  0  0  0
    9.2316   -5.6147    0.0000 C   0  0  0  0  0  0  0  0  0  0  0  0
   10.3719   -6.9372    0.0000 C   0  0  0  0  0  0  0  0  0  0  0  0
   10.9442   -6.6085    0.0000 C   0  0  0  0  0  0  0  0  0  0  0  0
   10.9456   -5.9485    0.0000 C   0  0  0  0  0  0  0  0  0  0  0  0
   10.3748   -5.6172    0.0000 C   0  0  0  0  0  0  0  0  0  0  0  0
   11.5179   -5.6197    0.0000 C   0  0  0  0  0  0  0  0  0  0  0  0
   11.5194   -4.9597    0.0000 C   0  0  2  0  0  0  0  0  0  0  0  0
   10.9485   -4.6285    0.0000 C   0  0  0  0  0  0  0  0  0  0  0  0
   10.3762   -4.9572    0.0000 C   0  0  0  0  0  0  0  0  0  0  0  0
   12.1452   -5.8250    0.0000 C   0  0  0  0  0  0  0  0  0  0  0  0
   12.5343   -5.2919    0.0000 C   0  0  0  0  0  0  0  0  0  0  0  0
   12.1475   -4.7571    0.0000 C   0  0  1  0  0  0  0  0  0  0  0  0
   11.9781   -4.1192    0.0000 O   0  0  0  0  0  0  0  0  0  0  0  0
   12.7198   -4.4283    0.0000 C   0  0  0  0  0  0  0  0  0  0  0  0
   13.2907   -4.7596    0.0000 O   0  0  0  0  0  0  0  0  0  0  0  0
   12.7212   -3.7683    0.0000 C   0  0  0  0  0  0  0  0  0  0  0  0
   12.1863   -7.7991    0.0000 C   0  0  0  0  0  0  0  0  0  0  0  0
   12.1849   -8.4591    0.0000 C   0  0  0  0  0  0  0  0  0  0  0  0
   12.7558   -8.7904    0.0000 C   0  0  0  0  0  0  0  0  0  0  0  0
   13.3281   -8.4616    0.0000 O   0  0  0  0  0  0  0  0  0  0  0  0
   13.3295   -7.8016    0.0000 C   0  0  0  0  0  0  0  0  0  0  0  0
   12.7586   -7.4704    0.0000 C   0  0  0  0  0  0  0  0  0  0  0  0
   12.7543   -9.4504    0.0000 C   0  0  0  0  0  0  0  0  0  0  0  0
   11.6712   -7.3865    0.0000 O   0  0  0  0  0  0  0  0  0  0  0  0
   11.0275   -7.5320    0.0000 C   0  0  0  0  0  0  0  0  0  0  0  0
   10.7398   -8.1260    0.0000 C   0  0  0  0  0  0  0  0  0  0  0  0
   11.0249   -8.7213    0.0000 O   0  0  0  0  0  0  0  0  0  0  0  0
   11.6680   -8.8695    0.0000 O   0  0  0  0  0  0  0  0  0  0  0  0
   10.4110   -7.5537    0.0000 O   0  0  0  0  0  0  0  0  0  0  0  0
    9.7510   -7.5523    0.0000 C   0  0  1  0  0  0  0  0  0  0  0  0
    9.4198   -8.1232    0.0000 C   0  0  2  0  0  0  0  0  0  0  0  0
    9.7486   -8.6955    0.0000 C   0  0  2  0  0  0  0  0  0  0  0  0
   10.4086   -8.6969    0.0000 C   0  0  0  0  0  0  0  0  0  0  0  0
    8.7598   -8.1217    0.0000 O   0  0  0  0  0  0  0  0  0  0  0  0
    8.4286   -8.6926    0.0000 C   0  0  1  0  0  0  0  0  0  0  0  0
    7.7686   -8.6912    0.0000 O   0  0  0  0  0  0  0  0  0  0  0  0
    7.4373   -9.2620    0.0000 C   0  0  1  0  0  0  0  0  0  0  0  0
    7.7661   -9.8343    0.0000 C   0  0  2  0  0  0  0  0  0  0  0  0
    8.4261   -9.8357    0.0000 C   0  0  2  0  0  0  0  0  0  0  0  0
    8.7573   -9.2649    0.0000 C   0  0  0  0  0  0  0  0  0  0  0  0
    7.4349  -10.4052    0.0000 O   0  0  0  0  0  0  0  0  0  0  0  0
    6.7749  -10.4038    0.0000 C   0  0  1  0  0  0  0  0  0  0  0  0
    6.4461   -9.8315    0.0000 O   0  0  0  0  0  0  0  0  0  0  0  0
    5.7861   -9.8300    0.0000 C   0  0  1  0  0  0  0  0  0  0  0  0
    5.4549  -10.4009    0.0000 C   0  0  2  0  0  0  0  0  0  0  0  0
    5.7836  -10.9732    0.0000 C   0  0  2  0  0  0  0  0  0  0  0  0
    6.4436  -10.9746    0.0000 C   0  0  0  0  0  0  0  0  0  0  0  0
    4.7949  -10.3995    0.0000 O   0  0  0  0  0  0  0  0  0  0  0  0
    4.4636  -10.9703    0.0000 C   0  0  1  0  0  0  0  0  0  0  0  0
    3.8036  -10.9689    0.0000 O   0  0  0  0  0  0  0  0  0  0  0  0
    3.4724  -11.5398    0.0000 C   0  0  1  0  0  0  0  0  0  0  0  0
    3.8012  -12.1121    0.0000 C   0  0  2  0  0  0  0  0  0  0  0  0
    4.4612  -12.1135    0.0000 C   0  0  2  0  0  0  0  0  0  0  0  0
    4.7924  -11.5426    0.0000 C   0  0  0  0  0  0  0  0  0  0  0  0
    3.4699  -12.6829    0.0000 O   0  0  0  0  0  0  0  0  0  0  0  0
    2.8099  -12.6815    0.0000 C   0  0  1  0  0  0  0  0  0  0  0  0
    2.4812  -12.1092    0.0000 O   0  0  0  0  0  0  0  0  0  0  0  0
    1.8212  -12.1078    0.0000 C   0  0  1  0  0  0  0  0  0  0  0  0
    1.4899  -12.6786    0.0000 C   0  0  2  0  0  0  0  0  0  0  0  0
    1.8187  -13.2509    0.0000 C   0  0  1  0  0  0  0  0  0  0  0  0
    2.4787  -13.2523    0.0000 C   0  0  1  0  0  0  0  0  0  0  0  0
    8.0856   -6.9323    0.0000 O   0  0  0  0  0  0  0  0  0  0  0  0
    9.8039   -5.2860    0.0000 C   0  0  0  0  0  0  0  0  0  0  0  0
   11.5208   -4.2997    0.0000 C   0  0  0  0  0  0  0  0  0  0  0  0
    9.1139   -7.3801    0.0000 C   0  0  0  0  0  0  0  0  0  0  0  0
    6.7773   -9.2606    0.0000 C   0  0  0  0  0  0  0  0  0  0  0  0
    5.4573   -9.2577    0.0000 C   0  0  0  0  0  0  0  0  0  0  0  0
    2.8124  -11.5383    0.0000 C   0  0  0  0  0  0  0  0  0  0  0  0
    9.7471   -9.3554    0.0000 O   0  0  0  0  0  0  0  0  0  0  0  0
    8.7549  -10.4080    0.0000 O   0  0  0  0  0  0  0  0  0  0  0  0
    5.7822  -11.6332    0.0000 O   0  0  0  0  0  0  0  0  0  0  0  0
    4.7899  -12.6858    0.0000 O   0  0  0  0  0  0  0  0  0  0  0  0
    1.4924  -11.5355    0.0000 C   0  0  0  0  0  0  0  0  0  0  0  0
    1.4875  -13.8218    0.0000 O   0  0  0  0  0  0  0  0  0  0  0  0
    0.8299  -12.6772    0.0000 O   0  0  0  0  0  0  0  0  0  0  0  0
    2.8075  -13.8246    0.0000 O   0  0  0  0  0  0  0  0  0  0  0  0
    2.8044  -15.2536    0.0000 O   0  0  0  0  0  0  0  0  0  0  0  0
    3.2184  -14.5400    0.0000 C   0  0  0  0  0  0  0  0  0  0  0  0
    4.0434  -14.5418    0.0000 C   0  0  0  0  0  0  0  0  0  0  0  0
   10.2881   -9.7336    0.0000 C   0  0  0  0  0  0  0  0  0  0  0  0
    6.3231  -12.0113    0.0000 C   0  0  0  0  0  0  0  0  0  0  0  0
    5.4475  -12.7428    0.0000 C   0  0  0  0  0  0  0  0  0  0  0  0
    1.8162  -14.3941    0.0000 C   0  0  0  0  0  0  0  0  0  0  0  0
    9.5799  -10.4080    0.0000 C   0  0  0  0  0  0  0  0  0  0  0  0
  1  2  1  0  0  0  0
  2  3  1  0  0  0  0
  3  4  1  0  0  0  0
  4  5  1  0  0  0  0
  5  6  1  0  0  0  0
  6  1  1  0  0  0  0
  4  7  2  0  0  0  0
  7  8  1  0  0  0  0
  8  9  1  0  0  0  0
  9 10  1  0  0  0  0
 10  5  1  0  0  0  0
  9 11  1  0  0  0  0
 11 12  1  0  0  0  0
 12 13  1  0  0  0  0
 13 14  1  0  0  0  0
 14 10  1  0  0  0  0
 11 15  1  0  0  0  0
 15 16  1  0  0  0  0
 16 17  1  0  0  0  0
 17 12  1  0  0  0  0
 17 18  1  6  0  0  0
 17 19  1  0  0  0  0
 19 20  1  0  0  0  0
 19 21  1  0  0  0  0
 22 23  1  0  0  0  0
 23 24  1  0  0  0  0
 24 25  1  0  0  0  0
 25 26  1  0  0  0  0
 26 27  1  0  0  0  0
 27 22  1  0  0  0  0
 20 26  1  0  0  0  0
 24 28  1  0  0  0  0
 22 29  1  0  0  0  0
 29 30  1  0  0  0  0
 30 31  1  0  0  0  0
 31 32  1  0  0  0  0
 32 33  1  0  0  0  0
 33 23  1  0  0  0  0
 31 34  1  0  0  0  0
 34 35  1  0  0  0  0
 35 36  1  0  0  0  0
 36 37  1  0  0  0  0
 37 38  1  0  0  0  0
 38 31  1  0  0  0  0
 36 39  1  6  0  0  0
 40 39  1  6  0  0  0
 40 41  1  0  0  0  0
 41 42  1  0  0  0  0
 42 43  1  0  0  0  0
 43 44  1  0  0  0  0
 44 45  1  0  0  0  0
 45 40  1  0  0  0  0
 43 46  1  6  0  0  0
 47 46  1  6  0  0  0
 47 48  1  0  0  0  0
 48 49  1  0  0  0  0
 49 50  1  0  0  0  0
 50 51  1  0  0  0  0
 51 52  1  0  0  0  0
 52 47  1  0  0  0  0
 50 53  1  6  0  0  0
 54 53  1  6  0  0  0
 54 55  1  0  0  0  0
 55 56  1  0  0  0  0
 56 57  1  0  0  0  0
 57 58  1  0  0  0  0
 58 59  1  0  0  0  0
 59 54  1  0  0  0  0
 57 60  1  6  0  0  0
 61 60  1  6  0  0  0
 61 62  1  0  0  0  0
 62 63  1  0  0  0  0
 63 64  1  0  0  0  0
 64 65  1  0  0  0  0
 65 66  1  0  0  0  0
 66 61  1  0  0  0  0
  2 67  1  1  0  0  0
  5 68  1  1  0  0  0
 12 69  1  1  0  0  0
 35 70  1  1  0  0  0
 42 71  1  1  0  0  0
 49 72  1  1  0  0  0
 56 73  1  1  0  0  0
 37 74  1  6  0  0  0
 44 75  1  6  0  0  0
 51 76  1  6  0  0  0
 58 77  1  6  0  0  0
 63 78  1  1  0  0  0
 65 79  1  1  0  0  0
 64 80  1  6  0  0  0
 66 81  1  6  0  0  0
 74 85  1  0  0  0  0
 76 86  1  0  0  0  0
 77 87  1  0  0  0  0
 79 88  1  0  0  0  0
 75 89  1  0  0  0  0
 81 83  1  0  0  0  0
 82 83  2  0  0  0  0
 83 84  1  0  0  0  0
M  STY  1   1 SUP
M  SAL   1  4  81  82  83  84
M  SBL   1  1  91
M  SMT   1 OAc
M  SAP   1  1  81  66  1
M  END
>  <cdx:fragmentId>
5

$$$$
