90741.cdx
  Mrv1902 05222410192D          

 35 38  0  0  0  0            999 V2000
    4.1231   -6.9976    0.0000 C   0  0  0  0  0  0  0  0  0  0  0  0
    4.1231   -7.8226    0.0000 C   0  0  0  0  0  0  0  0  0  0  0  0
    4.8375   -8.2351    0.0000 C   0  0  0  0  0  0  0  0  0  0  0  0
    5.5520   -7.8226    0.0000 C   0  0  0  0  0  0  0  0  0  0  0  0
    5.5520   -6.9976    0.0000 C   0  0  0  0  0  0  0  0  0  0  0  0
    4.8375   -6.5851    0.0000 C   0  0  0  0  0  0  0  0  0  0  0  0
    6.2665   -8.2351    0.0000 C   0  0  0  0  0  0  0  0  0  0  0  0
    6.9809   -7.8226    0.0000 C   0  0  0  0  0  0  0  0  0  0  0  0
    6.9809   -6.9976    0.0000 C   0  0  0  0  0  0  0  0  0  0  0  0
    6.2665   -6.5851    0.0000 O   0  0  0  0  0  0  0  0  0  0  0  0
    4.8375   -9.0601    0.0000 O   0  0  0  0  0  0  0  0  0  0  0  0
    6.2665   -9.0601    0.0000 O   0  0  0  0  0  0  0  0  0  0  0  0
    3.4086   -5.7601    0.0000 C   0  0  0  0  0  0  0  0  0  0  0  0
    3.4086   -6.5851    0.0000 O   0  0  0  0  0  0  0  0  0  0  0  0
    7.6954   -8.2351    0.0000 O   0  0  0  0  0  0  0  0  0  0  0  0
    8.4099   -6.9976    0.0000 C   0  0  0  0  0  0  0  0  0  0  0  0
    7.6954   -6.5851    0.0000 C   0  0  0  0  0  0  0  0  0  0  0  0
    9.1244   -6.5851    0.0000 C   0  0  0  0  0  0  0  0  0  0  0  0
    9.1244   -5.7601    0.0000 C   0  0  0  0  0  0  0  0  0  0  0  0
    8.4099   -5.3476    0.0000 C   0  0  0  0  0  0  0  0  0  0  0  0
    7.6954   -5.7601    0.0000 C   0  0  0  0  0  0  0  0  0  0  0  0
    9.8388   -5.3476    0.0000 O   0  0  0  0  0  0  0  0  0  0  0  0
    8.4099   -4.5226    0.0000 O   0  0  0  0  0  0  0  0  0  0  0  0
    7.6954   -9.0601    0.0000 C   0  0  2  0  0  0  0  0  0  0  0  0
    8.4099   -9.4726    0.0000 C   0  0  2  0  0  0  0  0  0  0  0  0
    9.1244   -9.0601    0.0000 O   0  0  0  0  0  0  0  0  0  0  0  0
    6.9809   -9.4726    0.0000 O   0  0  0  0  0  0  0  0  0  0  0  0
    6.9809  -10.2976    0.0000 C   0  0  1  0  0  0  0  0  0  0  0  0
    7.6954  -10.7101    0.0000 C   0  0  1  0  0  0  0  0  0  0  0  0
    8.4099  -10.2976    0.0000 C   0  0  2  0  0  0  0  0  0  0  0  0
    6.2665  -10.7101    0.0000 C   0  0  0  0  0  0  0  0  0  0  0  0
    6.2665  -11.5351    0.0000 O   0  0  0  0  0  0  0  0  0  0  0  0
    7.6954  -11.5351    0.0000 O   0  0  0  0  0  0  0  0  0  0  0  0
   10.5533   -5.7601    0.0000 C   0  0  0  0  0  0  0  0  0  0  0  0
    9.1244  -10.7101    0.0000 O   0  0  0  0  0  0  0  0  0  0  0  0
  1  2  1  0  0  0  0
  2  3  2  0  0  0  0
  3  4  1  0  0  0  0
  4  5  2  0  0  0  0
  5  6  1  0  0  0  0
  6  1  2  0  0  0  0
  4  7  1  0  0  0  0
  7  8  1  0  0  0  0
  8  9  2  0  0  0  0
  9 10  1  0  0  0  0
 10  5  1  0  0  0  0
  3 11  1  0  0  0  0
 12  7  2  0  0  0  0
 13 14  1  0  0  0  0
 14  1  1  0  0  0  0
  8 15  1  0  0  0  0
 16 17  1  0  0  0  0
 17  9  1  0  0  0  0
 16 18  2  0  0  0  0
 18 19  1  0  0  0  0
 19 20  2  0  0  0  0
 20 21  1  0  0  0  0
 21 17  2  0  0  0  0
 19 22  1  0  0  0  0
 23 20  1  0  0  0  0
 24 15  1  6  0  0  0
 24 25  1  0  0  0  0
 25 26  1  6  0  0  0
 24 27  1  0  0  0  0
 27 28  1  0  0  0  0
 28 29  1  0  0  0  0
 29 30  1  0  0  0  0
 30 25  1  0  0  0  0
 28 31  1  1  0  0  0
 31 32  1  0  0  0  0
 29 33  1  1  0  0  0
 22 34  1  0  0  0  0
 30 35  1  1  0  0  0
M  END
>  <cdx:fragmentId>
5

$$$$
