90749.cdx
  Mrv1902 05222410272D          

 20 22  0  0  0  0            999 V2000
    8.2572  -10.4460    0.0000 C   0  0  0  0  0  0  0  0  0  0  0  0
    8.2572   -9.6210    0.0000 C   0  0  0  0  0  0  0  0  0  0  0  0
    7.5427   -9.2085    0.0000 C   0  0  0  0  0  0  0  0  0  0  0  0
    6.8282   -9.6210    0.0000 C   0  0  0  0  0  0  0  0  0  0  0  0
    6.8282  -10.4460    0.0000 C   0  0  0  0  0  0  0  0  0  0  0  0
    7.5427  -10.8585    0.0000 C   0  0  0  0  0  0  0  0  0  0  0  0
    6.1138   -9.2085    0.0000 O   0  0  0  0  0  0  0  0  0  0  0  0
    5.3993   -9.6210    0.0000 C   0  0  0  0  0  0  0  0  0  0  0  0
    5.3993  -10.4460    0.0000 C   0  0  0  0  0  0  0  0  0  0  0  0
    6.1138  -10.8585    0.0000 C   0  0  0  0  0  0  0  0  0  0  0  0
    8.9716   -9.2085    0.0000 O   0  0  0  0  0  0  0  0  0  0  0  0
    9.6861   -9.6210    0.0000 C   0  0  0  0  0  0  0  0  0  0  0  0
    4.6848   -9.2085    0.0000 O   0  0  0  0  0  0  0  0  0  0  0  0
    7.5427   -8.3835    0.0000 C   0  0  1  0  0  0  0  0  0  0  0  0
    8.2572   -7.9710    0.0000 C   0  0  1  0  0  0  0  0  0  0  0  0
    6.8282   -7.9710    0.0000 O   0  0  0  0  0  0  0  0  0  0  0  0
    8.2572   -7.1460    0.0000 C   0  0  0  0  0  0  0  0  0  0  0  0
    8.9716   -6.7335    0.0000 C   0  0  0  0  0  0  0  0  0  0  0  0
    7.5427   -6.7335    0.0000 C   0  0  0  0  0  0  0  0  0  0  0  0
    7.5427   -7.5585    0.0000 O   0  0  0  0  0  0  0  0  0  0  0  0
  1  2  2  0  0  0  0
  2  3  1  0  0  0  0
  3  4  2  0  0  0  0
  4  5  1  0  0  0  0
  5  6  2  0  0  0  0
  6  1  1  0  0  0  0
  4  7  1  0  0  0  0
  7  8  1  0  0  0  0
  8  9  1  0  0  0  0
  9 10  2  0  0  0  0
 10  5  1  0  0  0  0
  2 11  1  0  0  0  0
 11 12  1  0  0  0  0
  8 13  2  0  0  0  0
  3 14  1  0  0  0  0
 14 15  1  0  0  0  0
 14 16  1  6  0  0  0
 15 17  1  0  0  0  0
 17 18  1  0  0  0  0
 17 19  1  0  0  0  0
 15 20  1  1  0  0  0
 17 20  1  0  0  0  0
M  END
>  <cdx:fragmentId>
5

$$$$
