90742.cdx
  Mrv1902 05222410202D          

 42 46  0  0  0  0            999 V2000
    9.6977   -8.4175    0.0000 C   0  0  0  0  0  0  0  0  0  0  0  0
    9.6977   -7.5925    0.0000 C   0  0  0  0  0  0  0  0  0  0  0  0
    8.9832   -7.1800    0.0000 C   0  0  0  0  0  0  0  0  0  0  0  0
    8.2688   -7.5925    0.0000 C   0  0  0  0  0  0  0  0  0  0  0  0
    7.5543   -7.1800    0.0000 C   0  0  0  0  0  0  0  0  0  0  0  0
    6.8398   -7.5925    0.0000 C   0  0  0  0  0  0  0  0  0  0  0  0
    6.8398   -8.4175    0.0000 C   0  0  0  0  0  0  0  0  0  0  0  0
    7.5543   -8.8300    0.0000 C   0  0  0  0  0  0  0  0  0  0  0  0
    8.2688   -8.4175    0.0000 C   0  0  0  0  0  0  0  0  0  0  0  0
    8.9832   -8.8300    0.0000 O   0  0  0  0  0  0  0  0  0  0  0  0
    8.9832   -6.3550    0.0000 O   0  0  0  0  0  0  0  0  0  0  0  0
    6.1253   -8.8300    0.0000 O   0  0  0  0  0  0  0  0  0  0  0  0
    5.4109   -7.5925    0.0000 O   0  0  0  0  0  0  0  0  0  0  0  0
    5.4109   -8.4175    0.0000 C   0  0  2  0  0  0  0  0  0  0  0  0
    4.6964   -8.8300    0.0000 C   0  0  1  0  0  0  0  0  0  0  0  0
    3.9819   -8.4175    0.0000 C   0  0  2  0  0  0  0  0  0  0  0  0
    3.9819   -7.5925    0.0000 C   0  0  1  0  0  0  0  0  0  0  0  0
    4.6964   -7.1800    0.0000 C   0  0  1  0  0  0  0  0  0  0  0  0
    4.6964   -6.3550    0.0000 C   0  0  0  0  0  0  0  0  0  0  0  0
    3.9819   -5.9425    0.0000 O   0  0  0  0  0  0  0  0  0  0  0  0
    4.6964   -4.7050    0.0000 O   0  0  0  0  0  0  0  0  0  0  0  0
    3.9819   -5.1175    0.0000 C   0  0  2  0  0  0  0  0  0  0  0  0
    3.2675   -4.7050    0.0000 C   0  0  1  0  0  0  0  0  0  0  0  0
    3.2675   -3.8800    0.0000 C   0  0  2  0  0  0  0  0  0  0  0  0
    3.9819   -3.4675    0.0000 C   0  0  1  0  0  0  0  0  0  0  0  0
    4.6964   -3.8800    0.0000 C   0  0  1  0  0  0  0  0  0  0  0  0
    5.4109   -3.4675    0.0000 C   0  0  0  0  0  0  0  0  0  0  0  0
    6.1253   -3.8800    0.0000 O   0  0  0  0  0  0  0  0  0  0  0  0
    3.9819   -2.6425    0.0000 O   0  0  0  0  0  0  0  0  0  0  0  0
    2.5530   -3.4675    0.0000 O   0  0  0  0  0  0  0  0  0  0  0  0
    2.5530   -5.1175    0.0000 O   0  0  0  0  0  0  0  0  0  0  0  0
    3.2675   -7.1800    0.0000 O   0  0  0  0  0  0  0  0  0  0  0  0
    3.2675   -8.8300    0.0000 O   0  0  0  0  0  0  0  0  0  0  0  0
    4.6964   -9.6550    0.0000 O   0  0  0  0  0  0  0  0  0  0  0  0
   10.4122   -8.8300    0.0000 C   0  0  0  0  0  0  0  0  0  0  0  0
   11.1266   -8.4175    0.0000 C   0  0  0  0  0  0  0  0  0  0  0  0
   11.8411   -8.8300    0.0000 C   0  0  0  0  0  0  0  0  0  0  0  0
   11.8411   -9.6550    0.0000 C   0  0  0  0  0  0  0  0  0  0  0  0
   11.1266  -10.0675    0.0000 C   0  0  0  0  0  0  0  0  0  0  0  0
   10.4122   -9.6550    0.0000 C   0  0  0  0  0  0  0  0  0  0  0  0
    6.1253   -7.1800    0.0000 O   0  0  0  0  0  0  0  0  0  0  0  0
    7.5543   -6.3550    0.0000 O   0  0  0  0  0  0  0  0  0  0  0  0
  1  2  2  0  0  0  0
  2  3  1  0  0  0  0
  3  4  1  0  0  0  0
  4  5  1  0  0  0  0
  5  6  2  0  0  0  0
  6  7  1  0  0  0  0
  7  8  2  0  0  0  0
  8  9  1  0  0  0  0
  4  9  2  0  0  0  0
  9 10  1  0  0  0  0
  1 10  1  0  0  0  0
  3 11  2  0  0  0  0
 13 14  1  0  0  0  0
 14 15  1  0  0  0  0
 15 16  1  0  0  0  0
 16 17  1  0  0  0  0
 17 18  1  0  0  0  0
 13 18  1  0  0  0  0
 21 22  1  0  0  0  0
 22 23  1  0  0  0  0
 23 24  1  0  0  0  0
 24 25  1  0  0  0  0
 25 26  1  0  0  0  0
 21 26  1  0  0  0  0
 27 28  1  0  0  0  0
 26 27  1  1  0  0  0
 25 29  1  6  0  0  0
 24 30  1  1  0  0  0
 23 31  1  6  0  0  0
 22 20  1  1  0  0  0
 19 20  1  0  0  0  0
 18 19  1  1  0  0  0
 17 32  1  6  0  0  0
 16 33  1  1  0  0  0
 15 34  1  6  0  0  0
 14 12  1  1  0  0  0
  7 12  1  0  0  0  0
 35 36  1  0  0  0  0
 36 37  2  0  0  0  0
 37 38  1  0  0  0  0
 38 39  2  0  0  0  0
 39 40  1  0  0  0  0
 35 40  2  0  0  0  0
  1 35  1  0  0  0  0
  6 41  1  0  0  0  0
  5 42  1  0  0  0  0
M  END
>  <cdx:fragmentId>
39308

$$$$
