907453.cdx
  Mrv1902 05222410222D          

 29 31  0  0  0  0            999 V2000
    4.0939   -5.6994    0.0000 C   0  0  0  0  0  0  0  0  0  0  0  0
    4.0939   -6.5244    0.0000 C   0  0  0  0  0  0  0  0  0  0  0  0
    4.8084   -6.9369    0.0000 C   0  0  0  0  0  0  0  0  0  0  0  0
    5.5228   -6.5244    0.0000 C   0  0  0  0  0  0  0  0  0  0  0  0
    5.5228   -5.6994    0.0000 C   0  0  0  0  0  0  0  0  0  0  0  0
    4.8084   -5.2869    0.0000 C   0  0  0  0  0  0  0  0  0  0  0  0
    6.2373   -5.2869    0.0000 C   0  0  2  0  0  0  0  0  0  0  0  0
    6.9025   -5.7749    0.0000 O   0  0  0  0  0  0  0  0  0  0  0  0
    7.5722   -5.2930    0.0000 C   0  0  1  0  0  0  0  0  0  0  0  0
    7.3208   -4.5072    0.0000 C   0  0  1  0  0  0  0  0  0  0  0  0
    6.4958   -4.5034    0.0000 C   0  0  1  0  0  0  0  0  0  0  0  0
    8.2867   -5.7055    0.0000 C   0  0  0  0  0  0  0  0  0  0  0  0
    8.2867   -6.5305    0.0000 C   0  0  0  0  0  0  0  0  0  0  0  0
    9.0011   -6.9430    0.0000 C   0  0  0  0  0  0  0  0  0  0  0  0
    9.7156   -6.5305    0.0000 C   0  0  0  0  0  0  0  0  0  0  0  0
    9.7156   -5.7055    0.0000 C   0  0  0  0  0  0  0  0  0  0  0  0
    9.0011   -5.2930    0.0000 C   0  0  0  0  0  0  0  0  0  0  0  0
    5.9125   -3.9201    0.0000 C   0  0  0  0  0  0  0  0  0  0  0  0
    7.9042   -3.9238    0.0000 C   0  0  0  0  0  0  0  0  0  0  0  0
    3.3794   -5.2869    0.0000 O   0  0  0  0  0  0  0  0  0  0  0  0
    3.3794   -6.9369    0.0000 O   0  0  0  0  0  0  0  0  0  0  0  0
    4.8084   -7.7619    0.0000 O   0  0  0  0  0  0  0  0  0  0  0  0
    9.0011   -7.7680    0.0000 O   0  0  0  0  0  0  0  0  0  0  0  0
   10.4301   -6.9430    0.0000 O   0  0  0  0  0  0  0  0  0  0  0  0
   10.4301   -7.7680    0.0000 C   0  0  0  0  0  0  0  0  0  0  0  0
    8.2867   -8.1805    0.0000 C   0  0  0  0  0  0  0  0  0  0  0  0
    5.5228   -8.1744    0.0000 C   0  0  0  0  0  0  0  0  0  0  0  0
    3.3794   -7.7619    0.0000 C   0  0  0  0  0  0  0  0  0  0  0  0
    2.6650   -5.6994    0.0000 C   0  0  0  0  0  0  0  0  0  0  0  0
  1  2  2  0  0  0  0
  2  3  1  0  0  0  0
  3  4  2  0  0  0  0
  4  5  1  0  0  0  0
  5  6  2  0  0  0  0
  6  1  1  0  0  0  0
  7  5  1  1  0  0  0
  7  8  1  0  0  0  0
  8  9  1  0  0  0  0
  9 10  1  0  0  0  0
 10 11  1  0  0  0  0
 11  7  1  0  0  0  0
  9 12  1  1  0  0  0
 12 13  2  0  0  0  0
 13 14  1  0  0  0  0
 14 15  2  0  0  0  0
 15 16  1  0  0  0  0
 16 17  2  0  0  0  0
 17 12  1  0  0  0  0
 11 18  1  6  0  0  0
 10 19  1  1  0  0  0
  1 20  1  0  0  0  0
  2 21  1  0  0  0  0
  3 22  1  0  0  0  0
 14 23  1  0  0  0  0
 15 24  1  0  0  0  0
 24 25  1  0  0  0  0
 23 26  1  0  0  0  0
 22 27  1  0  0  0  0
 21 28  1  0  0  0  0
 20 29  1  0  0  0  0
M  END
>  <cdx:fragmentId>
5

$$$$
