907456.cdx
  Mrv1902 05222410212D          

 28 30  0  0  0  0            999 V2000
    4.8199   -6.7798    0.0000 C   0  0  0  0  0  0  0  0  0  0  0  0
    5.3202   -7.4357    0.0000 C   0  0  0  0  0  0  0  0  0  0  0  0
    6.1385   -7.3303    0.0000 C   0  0  0  0  0  0  0  0  0  0  0  0
    6.4563   -6.5690    0.0000 C   0  0  0  0  0  0  0  0  0  0  0  0
    5.9560   -5.9131    0.0000 C   0  0  0  0  0  0  0  0  0  0  0  0
    5.1377   -6.0184    0.0000 C   0  0  0  0  0  0  0  0  0  0  0  0
    7.2746   -6.4636    0.0000 C   0  0  1  0  0  0  0  0  0  0  0  0
    7.9571   -6.9271    0.0000 O   0  0  0  0  0  0  0  0  0  0  0  0
    8.6088   -6.4212    0.0000 C   0  0  0  0  0  0  0  0  0  0  0  0
    8.3291   -5.6451    0.0000 C   0  0  1  0  0  0  0  0  0  0  0  0
    7.5045   -5.6713    0.0000 C   0  0  2  0  0  0  0  0  0  0  0  0
    8.6469   -4.8838    0.0000 C   0  0  0  0  0  0  0  0  0  0  0  0
    4.6373   -5.3625    0.0000 O   0  0  0  0  0  0  0  0  0  0  0  0
    5.0024   -8.1970    0.0000 O   0  0  0  0  0  0  0  0  0  0  0  0
    9.4652   -4.7784    0.0000 C   0  0  0  0  0  0  0  0  0  0  0  0
    9.9656   -5.4343    0.0000 C   0  0  0  0  0  0  0  0  0  0  0  0
   10.7838   -5.3290    0.0000 C   0  0  0  0  0  0  0  0  0  0  0  0
   11.1017   -4.5677    0.0000 C   0  0  0  0  0  0  0  0  0  0  0  0
   10.6013   -3.9117    0.0000 C   0  0  0  0  0  0  0  0  0  0  0  0
    9.7830   -4.0171    0.0000 C   0  0  0  0  0  0  0  0  0  0  0  0
   11.9199   -4.4623    0.0000 O   0  0  0  0  0  0  0  0  0  0  0  0
    7.0041   -5.0154    0.0000 C   0  0  0  0  0  0  0  0  0  0  0  0
    4.0016   -6.8851    0.0000 O   0  0  0  0  0  0  0  0  0  0  0  0
   11.2842   -5.9849    0.0000 O   0  0  0  0  0  0  0  0  0  0  0  0
   10.9663   -6.7462    0.0000 C   0  0  0  0  0  0  0  0  0  0  0  0
    4.9552   -4.6012    0.0000 C   0  0  0  0  0  0  0  0  0  0  0  0
    3.5012   -6.2292    0.0000 C   0  0  0  0  0  0  0  0  0  0  0  0
    4.1774   -8.1970    0.0000 C   0  0  0  0  0  0  0  0  0  0  0  0
  1  2  2  0  0  0  0
  2  3  1  0  0  0  0
  3  4  2  0  0  0  0
  4  5  1  0  0  0  0
  5  6  2  0  0  0  0
  6  1  1  0  0  0  0
  7  4  1  6  0  0  0
  7  8  1  0  0  0  0
  8  9  1  0  0  0  0
  9 10  1  0  0  0  0
 10 11  1  0  0  0  0
 11  7  1  0  0  0  0
 10 12  1  1  0  0  0
  6 13  1  0  0  0  0
  2 14  1  0  0  0  0
 12 15  1  0  0  0  0
 15 16  2  0  0  0  0
 16 17  1  0  0  0  0
 17 18  2  0  0  0  0
 18 19  1  0  0  0  0
 19 20  2  0  0  0  0
 20 15  1  0  0  0  0
 18 21  1  0  0  0  0
 11 22  1  1  0  0  0
  1 23  1  0  0  0  0
 17 24  1  0  0  0  0
 24 25  1  0  0  0  0
 13 26  1  0  0  0  0
 23 27  1  0  0  0  0
 14 28  1  0  0  0  0
M  END
>  <cdx:fragmentId>
5

$$$$
