907476.cdx
  Mrv1902 05222410242D          

 35 39  0  0  0  0            999 V2000
    3.4683   -8.8069    0.0000 C   0  0  0  0  0  0  0  0  0  0  0  0
    3.4683   -9.6319    0.0000 C   0  0  2  0  0  0  0  0  0  0  0  0
    4.1827  -10.0444    0.0000 C   0  0  2  0  0  0  0  0  0  0  0  0
    4.8972   -9.6319    0.0000 C   0  0  0  0  0  0  0  0  0  0  0  0
    4.8972   -8.8069    0.0000 C   0  0  1  0  0  0  0  0  0  0  0  0
    4.1827   -8.3944    0.0000 C   0  0  0  0  0  0  0  0  0  0  0  0
    5.6117  -10.0444    0.0000 C   0  0  0  0  0  0  0  0  0  0  0  0
    6.3262   -9.6319    0.0000 C   0  0  0  0  0  0  0  0  0  0  0  0
    6.3262   -8.8069    0.0000 C   0  0  1  0  0  0  0  0  0  0  0  0
    5.6117   -8.3944    0.0000 C   0  0  1  0  0  0  0  0  0  0  0  0
    7.0406   -8.3944    0.0000 C   0  0  2  0  0  0  0  0  0  0  0  0
    7.0406   -7.5694    0.0000 C   0  0  1  0  0  0  0  0  0  0  0  0
    6.3262   -7.1569    0.0000 C   0  0  0  0  0  0  0  0  0  0  0  0
    5.6117   -7.5694    0.0000 C   0  0  0  0  0  0  0  0  0  0  0  0
    7.7551   -8.8069    0.0000 C   0  0  0  0  0  0  0  0  0  0  0  0
    8.4696   -8.3944    0.0000 C   0  0  0  0  0  0  0  0  0  0  0  0
    8.4696   -7.5694    0.0000 C   0  0  1  0  0  0  0  0  0  0  0  0
    7.7551   -7.1569    0.0000 C   0  0  1  0  0  0  0  0  0  0  0  0
    9.0827   -7.0173    0.0000 C   0  0  2  0  0  0  0  0  0  0  0  0
    8.7471   -6.2637    0.0000 C   0  0  0  0  0  0  0  0  0  0  0  0
    7.9266   -6.3499    0.0000 C   0  0  0  0  0  0  0  0  0  0  0  0
    9.8796   -7.2309    0.0000 C   0  0  0  0  0  0  0  0  0  0  0  0
   10.4629   -6.6475    0.0000 C   0  0  0  0  0  0  0  0  0  0  0  0
   10.0931   -8.0278    0.0000 C   0  0  0  0  0  0  0  0  0  0  0  0
    7.0406   -6.7444    0.0000 C   0  0  0  0  0  0  0  0  0  0  0  0
    3.7702  -10.7588    0.0000 C   0  0  0  0  0  0  0  0  0  0  0  0
    2.7538  -10.0444    0.0000 O   0  0  0  0  0  0  0  0  0  0  0  0
    4.5952  -10.7588    0.0000 C   0  0  0  0  0  0  0  0  0  0  0  0
    2.7538   -9.2194    0.0000 H   0  0  0  0  0  0  0  0  0  0  0  0
    7.0406   -9.2194    0.0000 C   0  0  0  0  0  0  0  0  0  0  0  0
    9.1840   -7.9819    0.0000 C   0  0  0  0  0  0  0  0  0  0  0  0
    6.7387   -9.5213    0.0000 H   0  0  0  0  0  0  0  0  0  0  0  0
    5.6117   -9.2194    0.0000 H   0  0  0  0  0  0  0  0  0  0  0  0
    4.8972   -7.9819    0.0000 C   0  0  0  0  0  0  0  0  0  0  0  0
    8.4696   -6.7444    0.0000 H   0  0  0  0  0  0  0  0  0  0  0  0
  1  2  1  0  0  0  0
  2  3  1  0  0  0  0
  3  4  1  0  0  0  0
  4  5  1  0  0  0  0
  5  6  1  0  0  0  0
  6  1  1  0  0  0  0
  4  7  2  0  0  0  0
  7  8  1  0  0  0  0
  8  9  1  0  0  0  0
  9 10  1  0  0  0  0
 10  5  1  0  0  0  0
  9 11  1  0  0  0  0
 11 12  1  0  0  0  0
 12 13  1  0  0  0  0
 13 14  1  0  0  0  0
 14 10  1  0  0  0  0
 11 15  1  0  0  0  0
 15 16  1  0  0  0  0
 16 17  1  0  0  0  0
 17 18  1  0  0  0  0
 18 12  1  0  0  0  0
 17 19  1  0  0  0  0
 19 20  1  0  0  0  0
 20 21  1  0  0  0  0
 21 18  1  0  0  0  0
 19 22  1  6  0  0  0
 22 23  1  0  0  0  0
 22 24  1  0  0  0  0
 12 25  1  6  0  0  0
  3 26  1  6  0  0  0
  2 27  1  6  0  0  0
  3 28  1  1  0  0  0
  2 29  1  1  0  0  0
 11 30  1  1  0  0  0
 17 31  1  6  0  0  0
  9 32  1  6  0  0  0
  5 33  1  6  0  0  0
 10 34  1  1  0  0  0
 18 35  1  1  0  0  0
M  END
>  <cdx:fragmentId>
5

$$$$
