90747.cdx
  Mrv1902 05222410182D          

 26 28  0  0  0  0            999 V2000
    3.9856   -6.8464    0.0000 C   0  0  0  0  0  0  0  0  0  0  0  0
    3.9856   -7.6714    0.0000 C   0  0  0  0  0  0  0  0  0  0  0  0
    4.7000   -8.0839    0.0000 C   0  0  0  0  0  0  0  0  0  0  0  0
    5.4145   -7.6714    0.0000 C   0  0  0  0  0  0  0  0  0  0  0  0
    5.4145   -6.8464    0.0000 C   0  0  0  0  0  0  0  0  0  0  0  0
    4.7000   -6.4339    0.0000 C   0  0  0  0  0  0  0  0  0  0  0  0
    6.1290   -8.0839    0.0000 C   0  0  1  0  0  0  0  0  0  0  0  0
    6.8434   -7.6714    0.0000 O   0  0  0  0  0  0  0  0  0  0  0  0
    7.5579   -8.0839    0.0000 C   0  0  1  0  0  0  0  0  0  0  0  0
    8.2724   -7.6714    0.0000 C   0  0  0  0  0  0  0  0  0  0  0  0
    6.1290   -8.9089    0.0000 C   0  0  0  0  0  0  0  0  0  0  0  0
    6.8434   -9.3214    0.0000 C   0  0  1  0  0  0  0  0  0  0  0  0
    7.5579   -8.9089    0.0000 C   0  0  0  0  0  0  0  0  0  0  0  0
    8.9869   -8.0839    0.0000 C   0  0  0  0  0  0  0  0  0  0  0  0
    9.7013   -7.6714    0.0000 C   0  0  0  0  0  0  0  0  0  0  0  0
    9.7013   -6.8464    0.0000 C   0  0  0  0  0  0  0  0  0  0  0  0
   10.4158   -8.0839    0.0000 C   0  0  0  0  0  0  0  0  0  0  0  0
   11.1303   -7.6714    0.0000 C   0  0  0  0  0  0  0  0  0  0  0  0
   11.1303   -6.8464    0.0000 C   0  0  0  0  0  0  0  0  0  0  0  0
   10.4158   -6.4339    0.0000 C   0  0  0  0  0  0  0  0  0  0  0  0
    3.2711   -6.4339    0.0000 O   0  0  0  0  0  0  0  0  0  0  0  0
    3.2711   -8.0839    0.0000 O   0  0  0  0  0  0  0  0  0  0  0  0
   11.8447   -6.4339    0.0000 O   0  0  0  0  0  0  0  0  0  0  0  0
    6.8434  -10.1464    0.0000 O   0  0  0  0  0  0  0  0  0  0  0  0
    6.1290   -7.2589    0.0000 H   0  0  0  0  0  0  0  0  0  0  0  0
    7.5579   -7.2589    0.0000 H   0  0  0  0  0  0  0  0  0  0  0  0
  1  2  2  0  0  0  0
  2  3  1  0  0  0  0
  3  4  2  0  0  0  0
  4  5  1  0  0  0  0
  5  6  2  0  0  0  0
  6  1  1  0  0  0  0
  7  4  1  1  0  0  0
  7  8  1  0  0  0  0
  8  9  1  0  0  0  0
  9 10  1  1  0  0  0
  7 11  1  0  0  0  0
 11 12  1  0  0  0  0
 12 13  1  0  0  0  0
 13  9  1  0  0  0  0
 10 14  1  0  0  0  0
 14 15  1  0  0  0  0
 15 16  1  0  0  0  0
 15 17  2  0  0  0  0
 17 18  1  0  0  0  0
 18 19  2  0  0  0  0
 19 20  1  0  0  0  0
 20 16  2  0  0  0  0
  1 21  1  0  0  0  0
  2 22  1  0  0  0  0
 19 23  1  0  0  0  0
 12 24  1  1  0  0  0
  7 25  1  6  0  0  0
  9 26  1  6  0  0  0
M  END
>  <cdx:fragmentId>
5

$$$$
