90756.cdx
  Mrv1902 05222410202D          

 22 25  0  0  0  0            999 V2000
    5.5256   -8.1526    0.0000 C   0  0  0  0  0  0  0  0  0  0  0  0
    5.5256   -8.9776    0.0000 C   0  0  0  0  0  0  0  0  0  0  0  0
    6.2400   -9.3901    0.0000 C   0  0  0  0  0  0  0  0  0  0  0  0
    6.9545   -8.9776    0.0000 C   0  0  0  0  0  0  0  0  0  0  0  0
    6.9545   -8.1526    0.0000 C   0  0  0  0  0  0  0  0  0  0  0  0
    6.2400   -7.7401    0.0000 C   0  0  0  0  0  0  0  0  0  0  0  0
    6.2400  -10.2151    0.0000 C   0  0  0  0  0  0  0  0  0  0  0  0
    6.9545  -10.6276    0.0000 C   0  0  0  0  0  0  0  0  0  0  0  0
    7.6690  -10.2151    0.0000 C   0  0  0  0  0  0  0  0  0  0  0  0
    7.6690   -9.3901    0.0000 C   0  0  0  0  0  0  0  0  0  0  0  0
    5.5256  -10.6276    0.0000 C   0  0  0  0  0  0  0  0  0  0  0  0
    5.5256  -11.4526    0.0000 C   0  0  0  0  0  0  0  0  0  0  0  0
    6.2400  -11.8651    0.0000 C   0  0  0  0  0  0  0  0  0  0  0  0
    6.9545  -11.4526    0.0000 C   0  0  0  0  0  0  0  0  0  0  0  0
    4.8111   -7.7401    0.0000 O   0  0  0  0  0  0  0  0  0  0  0  0
    4.0966   -8.1526    0.0000 C   0  0  0  0  0  0  0  0  0  0  0  0
    4.8111   -9.3901    0.0000 O   0  0  0  0  0  0  0  0  0  0  0  0
    6.2400   -6.9151    0.0000 O   0  0  0  0  0  0  0  0  0  0  0  0
    5.5256   -6.5026    0.0000 C   0  0  0  0  0  0  0  0  0  0  0  0
    7.7514   -7.9391    0.0000 C   0  0  0  0  0  0  0  0  0  0  0  0
    8.2523   -8.8068    0.0000 N   0  0  0  0  0  0  0  0  0  0  0  0
    8.0671   -7.1769    0.0000 O   0  0  0  0  0  0  0  0  0  0  0  0
  1  2  2  0  0  0  0
  2  3  1  0  0  0  0
  3  4  2  0  0  0  0
  4  5  1  0  0  0  0
  5  6  2  0  0  0  0
  6  1  1  0  0  0  0
  3  7  1  0  0  0  0
  7  8  2  0  0  0  0
  8  9  1  0  0  0  0
  9 10  2  0  0  0  0
 10  4  1  0  0  0  0
  7 11  1  0  0  0  0
 11 12  2  0  0  0  0
 12 13  1  0  0  0  0
 13 14  2  0  0  0  0
 14  8  1  0  0  0  0
  1 15  1  0  0  0  0
 15 16  1  0  0  0  0
 17  2  1  0  0  0  0
  6 18  1  0  0  0  0
 18 19  1  0  0  0  0
  5 20  1  0  0  0  0
 10 21  1  0  0  0  0
 20 21  1  0  0  0  0
 20 22  2  0  0  0  0
M  END
>  <cdx:fragmentId>
5

$$$$
