907501.cdx
  Mrv1902 05222410242D          

 39 42  0  0  0  0            999 V2000
    6.1946   -5.0392    0.0000 C   0  0  0  0  0  0  0  0  0  0  0  0
    5.7805   -5.7527    0.0000 C   0  0  0  0  0  0  0  0  0  0  0  0
    6.1914   -6.4681    0.0000 C   0  0  0  0  0  0  0  0  0  0  0  0
    7.0163   -6.4700    0.0000 C   0  0  0  0  0  0  0  0  0  0  0  0
    7.4305   -5.7565    0.0000 C   0  0  0  0  0  0  0  0  0  0  0  0
    7.0196   -5.0410    0.0000 C   0  0  0  0  0  0  0  0  0  0  0  0
    4.9555   -5.7508    0.0000 O   0  0  0  0  0  0  0  0  0  0  0  0
    5.7772   -7.1816    0.0000 O   0  0  0  0  0  0  0  0  0  0  0  0
    8.2555   -5.7583    0.0000 C   0  0  1  0  0  0  0  0  0  0  0  0
    8.7389   -6.4269    0.0000 C   0  0  0  0  0  0  0  0  0  0  0  0
    9.5241   -6.1737    0.0000 C   0  0  0  0  0  0  0  0  0  0  0  0
    9.5260   -5.3487    0.0000 C   0  0  0  0  0  0  0  0  0  0  0  0
    8.7419   -5.0920    0.0000 C   0  0  1  0  0  0  0  0  0  0  0  0
   10.2376   -6.5879    0.0000 C   0  0  0  0  0  0  0  0  0  0  0  0
   10.9530   -6.1770    0.0000 C   0  0  0  0  0  0  0  0  0  0  0  0
   10.9549   -5.3520    0.0000 C   0  0  0  0  0  0  0  0  0  0  0  0
   10.2414   -4.9379    0.0000 C   0  0  0  0  0  0  0  0  0  0  0  0
   11.6694   -4.9395    0.0000 C   0  0  0  0  0  0  0  0  0  0  0  0
   12.3838   -5.3520    0.0000 C   0  0  0  0  0  0  0  0  0  0  0  0
   13.0983   -4.9395    0.0000 C   0  0  0  0  0  0  0  0  0  0  0  0
   13.8128   -5.3520    0.0000 O   0  0  0  0  0  0  0  0  0  0  0  0
   10.2376   -7.4129    0.0000 O   0  0  0  0  0  0  0  0  0  0  0  0
    8.9555   -4.2951    0.0000 C   0  0  0  0  0  0  0  0  0  0  0  0
    8.1586   -4.5086    0.0000 H   0  0  0  0  0  0  0  0  0  0  0  0
    7.8430   -6.4728    0.0000 H   0  0  0  0  0  0  0  0  0  0  0  0
    8.3721   -3.7118    0.0000 O   0  0  0  0  0  0  0  0  0  0  0  0
    2.8114   -6.1391    0.0000 C   0  0  2  0  0  0  0  0  0  0  0  0
    2.8018   -6.9641    0.0000 C   0  0  2  0  0  0  0  0  0  0  0  0
    3.5114   -7.3849    0.0000 C   0  0  1  0  0  0  0  0  0  0  0  0
    4.2306   -6.9807    0.0000 C   0  0  2  0  0  0  0  0  0  0  0  0
    4.2403   -6.1558    0.0000 C   0  0  1  0  0  0  0  0  0  0  0  0
    3.5307   -5.7350    0.0000 O   0  0  0  0  0  0  0  0  0  0  0  0
    2.1018   -5.7183    0.0000 C   0  0  0  0  0  0  0  0  0  0  0  0
    3.5018   -8.2098    0.0000 O   0  0  0  0  0  0  0  0  0  0  0  0
    4.9403   -7.4015    0.0000 O   0  0  0  0  0  0  0  0  0  0  0  0
    2.0826   -7.3682    0.0000 O   0  0  0  0  0  0  0  0  0  0  0  0
    1.3826   -6.1225    0.0000 O   0  0  0  0  0  0  0  0  0  0  0  0
    6.1881   -7.8970    0.0000 C   0  0  0  0  0  0  0  0  0  0  0  0
   10.9521   -7.8254    0.0000 C   0  0  0  0  0  0  0  0  0  0  0  0
  1  2  2  0  0  0  0
  2  3  1  0  0  0  0
  3  4  2  0  0  0  0
  4  5  1  0  0  0  0
  5  6  2  0  0  0  0
  6  1  1  0  0  0  0
  2  7  1  0  0  0  0
  3  8  1  0  0  0  0
  9  5  1  6  0  0  0
  9 10  1  0  0  0  0
 10 11  1  0  0  0  0
 11 12  2  0  0  0  0
 12 13  1  0  0  0  0
 13  9  1  0  0  0  0
 11 14  1  0  0  0  0
 14 15  2  0  0  0  0
 15 16  1  0  0  0  0
 16 17  2  0  0  0  0
 17 12  1  0  0  0  0
 16 18  1  0  0  0  0
 18 19  2  0  0  0  0
 19 20  1  0  0  0  0
 20 21  1  0  0  0  0
 14 22  1  0  0  0  0
 13 23  1  6  0  0  0
 13 24  1  1  0  0  0
  9 25  1  1  0  0  0
 23 26  1  0  0  0  0
 27 28  1  0  0  0  0
 28 29  1  0  0  0  0
 29 30  1  0  0  0  0
 30 31  1  0  0  0  0
 31 32  1  0  0  0  0
 32 27  1  0  0  0  0
 27 33  1  1  0  0  0
 29 34  1  1  0  0  0
 30 35  1  6  0  0  0
 28 36  1  6  0  0  0
 33 37  1  0  0  0  0
 31  7  1  1  0  0  0
  8 38  1  0  0  0  0
 22 39  1  0  0  0  0
M  END
>  <cdx:fragmentId>
5

$$$$
