90754.cdx
  Mrv1902 05222410192D          

 49 54  0  0  0  0            999 V2000
    6.0206  -10.6551    0.0000 C   0  0  2  0  0  0  0  0  0  0  0  0
    6.0206  -11.4801    0.0000 C   0  0  0  0  0  0  0  0  0  0  0  0
    6.7350  -11.8926    0.0000 C   0  0  1  0  0  0  0  0  0  0  0  0
    7.4495  -11.4801    0.0000 C   0  0  0  0  0  0  0  0  0  0  0  0
    7.4495  -10.6551    0.0000 C   0  0  1  0  0  0  0  0  0  0  0  0
    6.7350  -10.2426    0.0000 C   0  0  0  0  0  0  0  0  0  0  0  0
    8.1640  -11.8926    0.0000 C   0  0  0  0  0  0  0  0  0  0  0  0
    8.8784  -11.4801    0.0000 C   0  0  0  0  0  0  0  0  0  0  0  0
    8.8784  -10.6551    0.0000 C   0  0  2  0  0  0  0  0  0  0  0  0
    8.1640  -10.2426    0.0000 C   0  0  1  0  0  0  0  0  0  0  0  0
    9.5929  -10.2426    0.0000 C   0  0  1  0  0  0  0  0  0  0  0  0
    9.5929   -9.4176    0.0000 C   0  0  2  0  0  0  0  0  0  0  0  0
    8.8784   -9.0051    0.0000 C   0  0  0  0  0  0  0  0  0  0  0  0
    8.1640   -9.4176    0.0000 C   0  0  0  0  0  0  0  0  0  0  0  0
   10.3775  -10.4976    0.0000 C   0  0  0  0  0  0  0  0  0  0  0  0
   10.8625   -9.8301    0.0000 C   0  0  2  0  0  0  0  0  0  0  0  0
   10.3775   -9.1627    0.0000 C   0  0  0  0  0  0  0  0  0  0  0  0
   10.6325   -8.3781    0.0000 C   0  0  2  0  0  0  0  0  0  0  0  0
   11.4294   -8.1646    0.0000 O   0  0  0  0  0  0  0  0  0  0  0  0
   11.4725   -7.3407    0.0000 C   0  0  0  0  0  0  0  0  0  0  0  0
   10.7023   -7.0450    0.0000 C   0  0  0  0  0  0  0  0  0  0  0  0
   10.1831   -7.6862    0.0000 C   0  0  0  0  0  0  0  0  0  0  0  0
    5.3061  -11.8926    0.0000 O   0  0  0  0  0  0  0  0  0  0  0  0
    7.4495   -9.0051    0.0000 O   0  0  0  0  0  0  0  0  0  0  0  0
    5.3061  -10.2426    0.0000 O   0  0  0  0  0  0  0  0  0  0  0  0
    6.3225  -12.6071    0.0000 C   0  0  0  0  0  0  0  0  0  0  0  0
    8.1640  -11.0676    0.0000 C   0  0  0  0  0  0  0  0  0  0  0  0
    8.8784   -9.8301    0.0000 H   0  0  0  0  0  0  0  0  0  0  0  0
    9.6791   -8.5972    0.0000 C   0  0  0  0  0  0  0  0  0  0  0  0
    9.8356   -8.1646    0.0000 C   0  0  0  0  0  0  0  0  0  0  0  0
    7.4495   -9.8301    0.0000 H   0  0  0  0  0  0  0  0  0  0  0  0
    7.3184  -12.4760    0.0000 C   0  0  0  0  0  0  0  0  0  0  0  0
    4.5916  -10.6551    0.0000 C   0  0  2  0  0  0  0  0  0  0  0  0
    3.8771  -10.2426    0.0000 O   0  0  0  0  0  0  0  0  0  0  0  0
    3.1627  -10.6551    0.0000 C   0  0  1  0  0  0  0  0  0  0  0  0
    3.1627  -11.4801    0.0000 C   0  0  2  0  0  0  0  0  0  0  0  0
    3.8771  -11.8926    0.0000 C   0  0  1  0  0  0  0  0  0  0  0  0
    4.5916  -11.4801    0.0000 C   0  0  1  0  0  0  0  0  0  0  0  0
    3.8771  -12.7176    0.0000 O   0  0  0  0  0  0  0  0  0  0  0  0
    2.4482  -10.2426    0.0000 C   0  0  0  0  0  0  0  0  0  0  0  0
    2.4482  -11.8926    0.0000 O   0  0  0  0  0  0  0  0  0  0  0  0
    4.5916  -12.3051    0.0000 O   0  0  0  0  0  0  0  0  0  0  0  0
    1.7337  -10.6551    0.0000 O   0  0  0  0  0  0  0  0  0  0  0  0
    9.3593   -7.6430    0.0000 O   0  0  0  0  0  0  0  0  0  0  0  0
   12.1644   -6.8914    0.0000 C   0  0  0  0  0  0  0  0  0  0  0  0
   12.8995   -7.2659    0.0000 C   0  0  0  0  0  0  0  0  0  0  0  0
   12.1213   -6.0675    0.0000 C   0  0  0  0  0  0  0  0  0  0  0  0
   11.6875   -9.8301    0.0000 O   0  0  0  0  0  0  0  0  0  0  0  0
    9.6791  -11.0631    0.0000 C   0  0  0  0  0  0  0  0  0  0  0  0
  1  2  1  0  0  0  0
  2  3  1  0  0  0  0
  3  4  1  0  0  0  0
  4  5  1  0  0  0  0
  5  6  1  0  0  0  0
  6  1  1  0  0  0  0
  4  7  2  0  0  0  0
  7  8  1  0  0  0  0
  8  9  1  0  0  0  0
  9 10  1  0  0  0  0
 10  5  1  0  0  0  0
  9 11  1  0  0  0  0
 11 12  1  0  0  0  0
 12 13  1  0  0  0  0
 13 14  1  0  0  0  0
 14 10  1  0  0  0  0
 11 15  1  0  0  0  0
 15 16  1  0  0  0  0
 16 17  1  0  0  0  0
 17 12  1  0  0  0  0
 17 18  1  0  0  0  0
 18 19  1  0  0  0  0
 19 20  1  0  0  0  0
 20 21  2  0  0  0  0
 21 22  1  0  0  0  0
 22 18  1  0  0  0  0
  2 23  2  0  0  0  0
 14 24  2  0  0  0  0
  1 25  1  1  0  0  0
  3 26  1  1  0  0  0
 10 27  1  1  0  0  0
  9 28  1  1  0  0  0
 12 29  1  1  0  0  0
 18 30  1  6  0  0  0
  5 31  1  6  0  0  0
  3 32  1  6  0  0  0
 33 25  1  1  0  0  0
 33 34  1  0  0  0  0
 34 35  1  0  0  0  0
 35 36  1  0  0  0  0
 36 37  1  0  0  0  0
 37 38  1  0  0  0  0
 38 33  1  0  0  0  0
 37 39  1  1  0  0  0
 35 40  1  1  0  0  0
 36 41  1  6  0  0  0
 38 42  1  6  0  0  0
 40 43  1  0  0  0  0
 22 44  2  0  0  0  0
 20 45  1  0  0  0  0
 45 46  1  0  0  0  0
 45 47  1  0  0  0  0
 16 48  1  6  0  0  0
 11 49  1  6  0  0  0
M  END
>  <cdx:fragmentId>
5

$$$$
