90759.cdx
  Mrv1902 05222410272D          

 50 54  0  0  0  0            999 V2000
    9.4448   -6.2050    0.0000 H   0  0  0  0  0  0  0  0  0  0  0  0
    9.4448   -3.7300    0.0000 H   0  0  0  0  0  0  0  0  0  0  0  0
   10.4429   -3.5032    0.0000 O   0  0  0  0  0  0  0  0  0  0  0  0
   10.2294   -5.6350    0.0000 C   0  0  0  0  0  0  0  0  0  0  0  0
   10.7143   -4.9675    0.0000 O   0  0  0  0  0  0  0  0  0  0  0  0
   10.2294   -4.3001    0.0000 C   0  0  0  0  0  0  0  0  0  0  0  0
    3.7290   -2.9050    0.0000 O   0  0  0  0  0  0  0  0  0  0  0  0
    8.7303   -5.7925    0.0000 C   0  0  0  0  0  0  0  0  0  0  0  0
    8.7303   -6.6175    0.0000 C   0  0  0  0  0  0  0  0  0  0  0  0
    9.4448   -7.0300    0.0000 C   0  0  0  0  0  0  0  0  0  0  0  0
    8.0158   -7.0300    0.0000 C   0  0  0  0  0  0  0  0  0  0  0  0
    8.0158   -7.8550    0.0000 C   0  0  0  0  0  0  0  0  0  0  0  0
    8.7303   -8.2675    0.0000 C   0  0  0  0  0  0  0  0  0  0  0  0
    9.4448   -7.8550    0.0000 C   0  0  0  0  0  0  0  0  0  0  0  0
    8.7303   -9.0925    0.0000 O   0  0  0  0  0  0  0  0  0  0  0  0
    9.4448   -5.3800    0.0000 C   0  0  2  0  0  0  0  0  0  0  0  0
    3.0145   -4.1425    0.0000 O   0  0  0  0  0  0  0  0  0  0  0  0
    3.7290   -4.5550    0.0000 C   0  0  2  0  0  0  0  0  0  0  0  0
    9.4448   -4.5550    0.0000 C   0  0  1  0  0  0  0  0  0  0  0  0
    4.4435   -4.1425    0.0000 C   0  0  1  0  0  0  0  0  0  0  0  0
    4.4435   -3.3175    0.0000 C   0  0  0  0  0  0  0  0  0  0  0  0
    3.7290   -5.3800    0.0000 C   0  0  1  0  0  0  0  0  0  0  0  0
    4.4435   -5.7925    0.0000 C   0  0  2  0  0  0  0  0  0  0  0  0
    5.1579   -5.3800    0.0000 C   0  0  1  0  0  0  0  0  0  0  0  0
    5.1579   -4.5550    0.0000 O   0  0  0  0  0  0  0  0  0  0  0  0
    5.8724   -5.7925    0.0000 O   0  0  0  0  0  0  0  0  0  0  0  0
    6.5869   -5.3800    0.0000 C   0  0  0  0  0  0  0  0  0  0  0  0
    6.5869   -4.5550    0.0000 C   0  0  0  0  0  0  0  0  0  0  0  0
    7.3014   -5.7925    0.0000 C   0  0  0  0  0  0  0  0  0  0  0  0
    8.0158   -5.3800    0.0000 C   0  0  0  0  0  0  0  0  0  0  0  0
    8.0158   -4.5550    0.0000 C   0  0  0  0  0  0  0  0  0  0  0  0
    7.3014   -4.1425    0.0000 C   0  0  0  0  0  0  0  0  0  0  0  0
    8.7303   -4.1425    0.0000 C   0  0  0  0  0  0  0  0  0  0  0  0
    3.0145   -5.7925    0.0000 O   0  0  0  0  0  0  0  0  0  0  0  0
    4.4435   -6.6175    0.0000 O   0  0  0  0  0  0  0  0  0  0  0  0
    5.8724   -4.1425    0.0000 O   0  0  0  0  0  0  0  0  0  0  0  0
    5.8724   -3.3175    0.0000 C   0  0  0  0  0  0  0  0  0  0  0  0
   10.1592   -8.2675    0.0000 O   0  0  0  0  0  0  0  0  0  0  0  0
   10.8737   -7.8550    0.0000 C   0  0  0  0  0  0  0  0  0  0  0  0
    5.1589   -9.4904    0.0000 O   0  0  0  0  0  0  0  0  0  0  0  0
    5.8733  -10.7279    0.0000 O   0  0  0  0  0  0  0  0  0  0  0  0
    6.5878  -10.3154    0.0000 C   0  0  2  0  0  0  0  0  0  0  0  0
    6.5878   -9.4904    0.0000 C   0  0  1  0  0  0  0  0  0  0  0  0
    5.8733   -9.0779    0.0000 C   0  0  0  0  0  0  0  0  0  0  0  0
    7.3023  -10.7279    0.0000 C   0  0  1  0  0  0  0  0  0  0  0  0
    8.0168  -10.3154    0.0000 C   0  0  2  0  0  0  0  0  0  0  0  0
    8.0168   -9.4904    0.0000 C   0  0  1  0  0  0  0  0  0  0  0  0
    7.3023   -9.0779    0.0000 O   0  0  0  0  0  0  0  0  0  0  0  0
    7.3023  -11.5529    0.0000 O   0  0  0  0  0  0  0  0  0  0  0  0
    8.7312  -10.7279    0.0000 O   0  0  0  0  0  0  0  0  0  0  0  0
 16  1  1  1  0  0  0
 19  2  1  6  0  0  0
  6  3  2  0  0  0  0
  4 16  1  0  0  0  0
  5  4  1  0  0  0  0
  6  5  1  0  0  0  0
 19  6  1  0  0  0  0
  8  9  1  0  0  0  0
  9 10  1  0  0  0  0
  9 11  2  0  0  0  0
 11 12  1  0  0  0  0
 12 13  2  0  0  0  0
 13 14  1  0  0  0  0
 14 10  2  0  0  0  0
 16  8  1  6  0  0  0
 19 16  1  0  0  0  0
 15 13  1  0  0  0  0
 19 33  1  1  0  0  0
 18 17  1  6  0  0  0
 18 20  1  0  0  0  0
 20 21  1  1  0  0  0
 21  7  1  0  0  0  0
 18 22  1  0  0  0  0
 22 23  1  0  0  0  0
 23 24  1  0  0  0  0
 24 25  1  0  0  0  0
 25 20  1  0  0  0  0
 24 26  1  1  0  0  0
 26 27  1  0  0  0  0
 27 28  2  0  0  0  0
 27 29  1  0  0  0  0
 29 30  2  0  0  0  0
 30 31  1  0  0  0  0
 31 32  2  0  0  0  0
 32 28  1  0  0  0  0
 33 31  1  0  0  0  0
 22 34  1  1  0  0  0
 23 35  1  6  0  0  0
 28 36  1  0  0  0  0
 36 37  1  0  0  0  0
 14 38  1  0  0  0  0
 38 39  1  0  0  0  0
 42 41  1  6  0  0  0
 42 43  1  0  0  0  0
 43 44  1  1  0  0  0
 44 40  1  0  0  0  0
 42 45  1  0  0  0  0
 45 46  1  0  0  0  0
 46 47  1  0  0  0  0
 47 48  1  0  0  0  0
 48 43  1  0  0  0  0
 45 49  1  1  0  0  0
 46 50  1  6  0  0  0
 47 15  1  1  0  0  0
M  END
>  <cdx:fragmentId>
5

$$$$
