90752.cdx
  Mrv1902 05222410182D          

 44 47  0  0  0  0            999 V2000
    3.9988  -11.8926    0.0000 O   0  0  0  0  0  0  0  0  0  0  0  0
    2.5698  -11.0676    0.0000 O   0  0  0  0  0  0  0  0  0  0  0  0
    4.7132   -9.0051    0.0000 H   0  0  0  0  0  0  0  0  0  0  0  0
    1.8554   -9.8301    0.0000 O   0  0  0  0  0  0  0  0  0  0  0  0
    2.5698   -9.4176    0.0000 C   0  0  0  0  0  0  0  0  0  0  0  0
    5.4277  -11.0676    0.0000 O   0  0  0  0  0  0  0  0  0  0  0  0
    5.4277   -9.4176    0.0000 C   0  0  0  0  0  0  0  0  0  0  0  0
    5.4277   -8.5926    0.0000 C   0  0  0  0  0  0  0  0  0  0  0  0
    4.7132   -8.1801    0.0000 O   0  0  0  0  0  0  0  0  0  0  0  0
    6.1422   -9.8301    0.0000 C   0  0  0  0  0  0  0  0  0  0  0  0
    6.8567   -9.4176    0.0000 C   0  0  0  0  0  0  0  0  0  0  0  0
    6.8567   -8.5926    0.0000 C   0  0  0  0  0  0  0  0  0  0  0  0
    6.1422   -8.1801    0.0000 C   0  0  0  0  0  0  0  0  0  0  0  0
    4.7132   -5.7051    0.0000 O   0  0  0  0  0  0  0  0  0  0  0  0
    6.8567   -7.7676    0.0000 H   0  0  0  0  0  0  0  0  0  0  0  0
    4.7132   -7.3551    0.0000 O   0  0  0  0  0  0  0  0  0  0  0  0
    7.5711   -5.7051    0.0000 C   0  0  0  0  0  0  0  0  0  0  0  0
    7.5711   -4.8801    0.0000 O   0  0  0  0  0  0  0  0  0  0  0  0
    6.1422   -4.8801    0.0000 O   0  0  0  0  0  0  0  0  0  0  0  0
    6.8567   -6.1176    0.0000 C   0  0  2  0  0  0  0  0  0  0  0  0
    7.5711   -8.1801    0.0000 O   0  0  0  0  0  0  0  0  0  0  0  0
    6.1422   -5.7051    0.0000 C   0  0  2  0  0  0  0  0  0  0  0  0
    5.4277   -6.1176    0.0000 C   0  0  1  0  0  0  0  0  0  0  0  0
    6.1422  -10.6551    0.0000 O   0  0  0  0  0  0  0  0  0  0  0  0
   11.8580   -8.1802    0.0000 O   0  0  0  0  0  0  0  0  0  0  0  0
    7.5711  -10.6551    0.0000 O   0  0  0  0  0  0  0  0  0  0  0  0
   10.4290   -9.8302    0.0000 C   0  0  0  0  0  0  0  0  0  0  0  0
   11.1435   -9.4177    0.0000 C   0  0  0  0  0  0  0  0  0  0  0  0
   11.1435   -8.5927    0.0000 C   0  0  0  0  0  0  0  0  0  0  0  0
   10.4290   -8.1801    0.0000 C   0  0  0  0  0  0  0  0  0  0  0  0
    9.0001   -9.8302    0.0000 C   0  0  0  0  0  0  0  0  0  0  0  0
    9.7145   -9.4177    0.0000 C   0  0  0  0  0  0  0  0  0  0  0  0
    9.7145   -8.5926    0.0000 C   0  0  0  0  0  0  0  0  0  0  0  0
    7.5711   -9.8301    0.0000 C   0  0  0  0  0  0  0  0  0  0  0  0
    8.2856   -9.4176    0.0000 C   0  0  0  0  0  0  0  0  0  0  0  0
    5.4277   -6.9426    0.0000 C   0  0  2  0  0  0  0  0  0  0  0  0
    4.7132  -10.6551    0.0000 C   0  0  1  0  0  0  0  0  0  0  0  0
    4.7132   -9.8301    0.0000 C   0  0  1  0  0  0  0  0  0  0  0  0
    3.9988   -9.4176    0.0000 O   0  0  0  0  0  0  0  0  0  0  0  0
    3.2843   -9.8301    0.0000 C   0  0  1  0  0  0  0  0  0  0  0  0
    3.2843  -10.6551    0.0000 C   0  0  2  0  0  0  0  0  0  0  0  0
    3.9988  -11.0676    0.0000 C   0  0  2  0  0  0  0  0  0  0  0  0
    6.8567   -6.9426    0.0000 O   0  0  0  0  0  0  0  0  0  0  0  0
    6.1422   -7.3551    0.0000 C   0  0  1  0  0  0  0  0  0  0  0  0
 42  1  1  1  0  0  0
 41  2  1  6  0  0  0
 38  3  1  6  0  0  0
  5  4  1  0  0  0  0
 40  5  1  1  0  0  0
 37  6  1  6  0  0  0
 37 42  1  0  0  0  0
 38  7  1  0  0  0  0
  7  8  2  0  0  0  0
  8  9  1  0  0  0  0
 38 37  1  0  0  0  0
  7 10  1  0  0  0  0
 10 11  2  0  0  0  0
 11 12  1  0  0  0  0
 12 13  2  0  0  0  0
 13  8  1  0  0  0  0
 23 14  1  1  0  0  0
 13 44  1  0  0  0  0
 44 15  1  6  0  0  0
 36 16  1  6  0  0  0
 20 17  1  1  0  0  0
 18 17  1  0  0  0  0
 22 19  1  6  0  0  0
 20 43  1  0  0  0  0
 22 20  1  0  0  0  0
 23 22  1  0  0  0  0
 36 23  1  0  0  0  0
 44 36  1  0  0  0  0
 12 21  1  0  0  0  0
 29 25  1  0  0  0  0
 10 24  1  0  0  0  0
 34 26  2  0  0  0  0
 34 11  1  0  0  0  0
 27 32  2  0  0  0  0
 28 27  1  0  0  0  0
 29 28  2  0  0  0  0
 30 29  1  0  0  0  0
 33 30  2  0  0  0  0
 31 35  1  0  0  0  0
 32 31  1  0  0  0  0
 33 32  1  0  0  0  0
 39 38  1  0  0  0  0
 40 39  1  0  0  0  0
 41 40  1  0  0  0  0
 42 41  1  0  0  0  0
 35 34  1  0  0  0  0
 44 43  1  0  0  0  0
M  END
>  <cdx:fragmentId>
5

$$$$
