cistachlorin.cdx
  Mrv1902 05222410252D          

 15 17  0  0  0  0            999 V2000
    6.6033   -7.3425    0.0000 C   0  0  1  0  0  0  0  0  0  0  0  0
    6.6033   -8.1675    0.0000 C   0  0  2  0  0  0  0  0  0  0  0  0
    7.3177   -8.5800    0.0000 C   0  0  2  0  0  0  0  0  0  0  0  0
    8.0322   -8.1675    0.0000 O   0  0  0  0  0  0  0  0  0  0  0  0
    8.0322   -7.3425    0.0000 C   0  0  0  0  0  0  0  0  0  0  0  0
    7.3177   -6.9300    0.0000 C   0  0  0  0  0  0  0  0  0  0  0  0
    5.8187   -7.0876    0.0000 C   0  0  0  0  0  0  0  0  0  0  0  0
    5.3337   -7.7550    0.0000 C   0  0  2  0  0  0  0  0  0  0  0  0
    5.8187   -8.4224    0.0000 C   0  0  2  0  0  0  0  0  0  0  0  0
    6.6033   -6.5175    0.0000 H   0  0  0  0  0  0  0  0  0  0  0  0
    6.6033   -8.9925    0.0000 H   0  0  0  0  0  0  0  0  0  0  0  0
    5.1042   -8.8349    0.0000 O   0  0  0  0  0  0  0  0  0  0  0  0
    4.5087   -7.7550    0.0000 Cl  0  0  0  0  0  0  0  0  0  0  0  0
    5.8187   -9.2474    0.0000 C   0  0  0  0  0  0  0  0  0  0  0  0
    7.3177   -9.4050    0.0000 O   0  0  0  0  0  0  0  0  0  0  0  0
  1  2  1  0  0  0  0
  2  3  1  0  0  0  0
  3  4  1  0  0  0  0
  4  5  1  0  0  0  0
  5  6  1  0  0  0  0
  6  1  1  0  0  0  0
  1  7  1  0  0  0  0
  7  8  1  0  0  0  0
  8  9  1  0  0  0  0
  9  2  1  0  0  0  0
  1 10  1  1  0  0  0
  2 11  1  1  0  0  0
  9 12  1  1  0  0  0
  8 13  1  6  0  0  0
  9 14  1  6  0  0  0
  3 15  1  6  0  0  0
 14 15  1  0  0  0  0
M  END
>  <cdx:fragmentId>
5

$$$$
