90755.cdx
  Mrv1902 05222410192D          

 36 42  0  0  0  0            999 V2000
    6.8009   -6.5039    0.0000 C   0  0  0  0  0  0  0  0  0  0  0  0
    5.0715   -6.9748    0.0000 N   0  0  0  0  0  0  0  0  0  0  0  0
    5.7388   -7.4599    0.0000 C   0  0  0  0  0  0  0  0  0  0  0  0
    5.4838   -8.2444    0.0000 C   0  0  0  0  0  0  0  0  0  0  0  0
    4.6588   -8.2443    0.0000 C   0  0  0  0  0  0  0  0  0  0  0  0
    4.1066   -8.8573    0.0000 C   0  0  0  0  0  0  0  0  0  0  0  0
    3.2997   -8.6856    0.0000 C   0  0  0  0  0  0  0  0  0  0  0  0
    3.0449   -7.9009    0.0000 C   0  0  0  0  0  0  0  0  0  0  0  0
    3.5970   -7.2879    0.0000 C   0  0  0  0  0  0  0  0  0  0  0  0
    4.4040   -7.4596    0.0000 C   0  0  0  0  0  0  0  0  0  0  0  0
    6.5458   -7.2885    0.0000 C   0  0  0  0  0  0  0  0  0  0  0  0
    6.0357   -8.8576    0.0000 C   0  0  0  0  0  0  0  0  0  0  0  0
    6.8427   -8.6863    0.0000 C   0  0  0  0  0  0  0  0  0  0  0  0
    7.0978   -7.9017    0.0000 N   0  0  0  0  0  0  0  0  0  0  0  0
    3.3422   -6.5033    0.0000 O   0  0  0  0  0  0  0  0  0  0  0  0
    2.5353   -6.3316    0.0000 C   0  0  0  0  0  0  0  0  0  0  0  0
    5.7806   -9.6422    0.0000 O   0  0  0  0  0  0  0  0  0  0  0  0
    4.9736   -9.8136    0.0000 C   0  0  0  0  0  0  0  0  0  0  0  0
    7.6079   -6.3325    0.0000 N   0  3  0  0  0  0  0  0  0  0  0  0
    7.8630   -5.5480    0.0000 C   0  0  0  0  0  0  0  0  0  0  0  0
    7.3111   -4.9348    0.0000 C   0  0  0  0  0  0  0  0  0  0  0  0
    6.5041   -5.1061    0.0000 C   0  0  0  0  0  0  0  0  0  0  0  0
    6.2490   -5.8907    0.0000 C   0  0  0  0  0  0  0  0  0  0  0  0
    8.1599   -6.9457    0.0000 C   0  0  0  0  0  0  0  0  0  0  0  0
    8.9669   -6.7744    0.0000 C   0  0  0  0  0  0  0  0  0  0  0  0
    9.2219   -5.9898    0.0000 C   0  0  0  0  0  0  0  0  0  0  0  0
    8.6700   -5.3766    0.0000 C   0  0  0  0  0  0  0  0  0  0  0  0
    9.5188   -7.3876    0.0000 O   0  0  0  0  0  0  0  0  0  0  0  0
    9.2637   -8.1721    0.0000 C   0  0  0  0  0  0  0  0  0  0  0  0
    9.9757   -5.6544    0.0000 C   0  0  0  0  0  0  0  0  0  0  0  0
    9.8896   -4.8339    0.0000 C   0  0  0  0  0  0  0  0  0  0  0  0
    9.0827   -4.6622    0.0000 N   0  0  0  0  0  0  0  0  0  0  0  0
   10.7293   -5.9901    0.0000 C   0  0  0  0  0  0  0  0  0  0  0  0
   11.3968   -5.5053    0.0000 C   0  0  0  0  0  0  0  0  0  0  0  0
   11.3107   -4.6848    0.0000 C   0  0  0  0  0  0  0  0  0  0  0  0
   10.5571   -4.3491    0.0000 C   0  0  0  0  0  0  0  0  0  0  0  0
  2  3  1  0  0  0  0
  3  4  2  0  0  0  0
  4  5  1  0  0  0  0
  5  6  1  0  0  0  0
  6  7  2  0  0  0  0
  7  8  1  0  0  0  0
  8  9  2  0  0  0  0
  9 10  1  0  0  0  0
  2 10  1  0  0  0  0
  5 10  2  0  0  0  0
 12 13  2  0  0  0  0
 13 14  1  0  0  0  0
 11 14  2  0  0  0  0
 11  3  1  0  0  0  0
 12  4  1  0  0  0  0
 15 16  1  0  0  0  0
  9 15  1  0  0  0  0
 17 18  1  0  0  0  0
 12 17  1  0  0  0  0
  1 11  1  0  0  0  0
  1 19  1  0  0  0  0
 19 20  2  0  0  0  0
 20 21  1  0  0  0  0
 21 22  1  0  0  0  0
 22 23  1  0  0  0  0
 23  1  1  0  0  0  0
 19 24  1  0  0  0  0
 24 25  2  0  0  0  0
 25 26  1  0  0  0  0
 26 27  2  0  0  0  0
 27 20  1  0  0  0  0
 25 28  1  0  0  0  0
 28 29  1  0  0  0  0
 26 30  1  0  0  0  0
 30 31  2  0  0  0  0
 31 32  1  0  0  0  0
 32 27  1  0  0  0  0
 30 33  1  0  0  0  0
 33 34  2  0  0  0  0
 34 35  1  0  0  0  0
 35 36  2  0  0  0  0
 36 31  1  0  0  0  0
M  CHG  1  19   1
M  END
>  <cdx:fragmentId>
19

$$$$
