90753.cdx
  Mrv1902 05222410182D          

 37 39  0  0  0  0            999 V2000
    3.5043  -11.2464    0.0000 O   0  0  0  0  0  0  0  0  0  0  0  0
    4.2188  -12.4839    0.0000 O   0  0  0  0  0  0  0  0  0  0  0  0
    4.9332  -12.0714    0.0000 C   0  0  2  0  0  0  0  0  0  0  0  0
    4.9332  -11.2464    0.0000 C   0  0  1  0  0  0  0  0  0  0  0  0
    4.2188  -10.8339    0.0000 C   0  0  0  0  0  0  0  0  0  0  0  0
    5.6477  -12.4839    0.0000 C   0  0  1  0  0  0  0  0  0  0  0  0
    6.3622  -12.0714    0.0000 C   0  0  2  0  0  0  0  0  0  0  0  0
    6.3622  -11.2464    0.0000 C   0  0  1  0  0  0  0  0  0  0  0  0
    5.6477  -10.8339    0.0000 O   0  0  0  0  0  0  0  0  0  0  0  0
    7.0767  -12.4839    0.0000 O   0  0  0  0  0  0  0  0  0  0  0  0
    7.7911  -12.0714    0.0000 O   0  0  0  0  0  0  0  0  0  0  0  0
    7.7911  -11.2464    0.0000 C   0  0  0  0  0  0  0  0  0  0  0  0
    7.0767  -10.8339    0.0000 C   0  0  0  0  0  0  0  0  0  0  0  0
    8.5056  -10.8339    0.0000 C   0  0  0  0  0  0  0  0  0  0  0  0
    8.5056  -10.0089    0.0000 C   0  0  0  0  0  0  0  0  0  0  0  0
    7.7911   -9.5964    0.0000 C   0  0  0  0  0  0  0  0  0  0  0  0
    7.0767  -10.0089    0.0000 C   0  0  0  0  0  0  0  0  0  0  0  0
    7.7911   -8.7714    0.0000 C   0  0  1  0  0  0  0  0  0  0  0  0
    7.0767   -8.3589    0.0000 C   0  0  2  0  0  0  0  0  0  0  0  0
    6.3622   -8.7714    0.0000 O   0  0  0  0  0  0  0  0  0  0  0  0
    6.3622   -9.5964    0.0000 O   0  0  0  0  0  0  0  0  0  0  0  0
    8.5056   -8.3589    0.0000 O   0  0  0  0  0  0  0  0  0  0  0  0
    8.5056   -7.5339    0.0000 C   0  0  1  0  0  0  0  0  0  0  0  0
    7.7911   -7.1214    0.0000 C   0  0  2  0  0  0  0  0  0  0  0  0
    7.0767   -7.5339    0.0000 C   0  0  2  0  0  0  0  0  0  0  0  0
    9.2201   -7.1214    0.0000 C   0  0  0  0  0  0  0  0  0  0  0  0
    9.2201   -6.2964    0.0000 O   0  0  0  0  0  0  0  0  0  0  0  0
    7.7911   -6.2964    0.0000 O   0  0  0  0  0  0  0  0  0  0  0  0
    9.2201  -11.2464    0.0000 C   0  0  0  0  0  0  0  0  0  0  0  0
    9.9345  -10.8339    0.0000 C   0  0  0  0  0  0  0  0  0  0  0  0
    9.2201   -9.5964    0.0000 O   0  0  0  0  0  0  0  0  0  0  0  0
    9.2201  -12.0714    0.0000 O   0  0  0  0  0  0  0  0  0  0  0  0
    6.3622   -7.1214    0.0000 O   0  0  0  0  0  0  0  0  0  0  0  0
    5.6477  -13.3089    0.0000 O   0  0  0  0  0  0  0  0  0  0  0  0
   10.6490  -11.2464    0.0000 C   0  0  0  0  0  0  0  0  0  0  0  0
   11.3635  -10.8339    0.0000 C   0  0  0  0  0  0  0  0  0  0  0  0
   10.6490  -12.0714    0.0000 C   0  0  0  0  0  0  0  0  0  0  0  0
  3  2  1  6  0  0  0
  3  4  1  0  0  0  0
  4  5  1  1  0  0  0
  5  1  1  0  0  0  0
  3  6  1  0  0  0  0
  6  7  1  0  0  0  0
  7  8  1  0  0  0  0
  8  9  1  0  0  0  0
  9  4  1  0  0  0  0
  7 10  1  6  0  0  0
 11 12  1  0  0  0  0
 12 13  1  0  0  0  0
  8 13  1  1  0  0  0
 12 14  2  0  0  0  0
 14 15  1  0  0  0  0
 15 16  2  0  0  0  0
 16 17  1  0  0  0  0
 17 13  2  0  0  0  0
 18 16  1  1  0  0  0
 18 19  1  0  0  0  0
 19 20  1  6  0  0  0
 21 17  1  0  0  0  0
 18 22  1  0  0  0  0
 22 23  1  0  0  0  0
 23 24  1  0  0  0  0
 24 25  1  0  0  0  0
 25 19  1  0  0  0  0
 23 26  1  1  0  0  0
 26 27  1  0  0  0  0
 24 28  1  6  0  0  0
 14 29  1  0  0  0  0
 29 30  1  0  0  0  0
 31 15  1  0  0  0  0
 29 32  2  0  0  0  0
 25 33  1  1  0  0  0
  6 34  1  1  0  0  0
 30 35  1  0  0  0  0
 35 36  1  0  0  0  0
 35 37  1  0  0  0  0
M  END
>  <cdx:fragmentId>
5

$$$$
