90750.cdx
  Mrv1902 05222410192D          

 33 37  0  0  0  0            999 V2000
    3.5318   -9.8576    0.0000 C   0  0  1  0  0  0  0  0  0  0  0  0
    3.5318  -10.6826    0.0000 C   0  0  1  0  0  0  0  0  0  0  0  0
    4.2463  -11.0951    0.0000 C   0  0  1  0  0  0  0  0  0  0  0  0
    4.9607  -10.6826    0.0000 C   0  0  0  0  0  0  0  0  0  0  0  0
    4.9607   -9.8576    0.0000 C   0  0  2  0  0  0  0  0  0  0  0  0
    4.2463   -9.4451    0.0000 C   0  0  0  0  0  0  0  0  0  0  0  0
    5.6752  -11.0951    0.0000 C   0  0  0  0  0  0  0  0  0  0  0  0
    6.3897  -10.6826    0.0000 C   0  0  0  0  0  0  0  0  0  0  0  0
    6.3897   -9.8576    0.0000 C   0  0  2  0  0  0  0  0  0  0  0  0
    5.6752   -9.4451    0.0000 C   0  0  0  0  0  0  0  0  0  0  0  0
    7.1042   -9.4451    0.0000 C   0  0  1  0  0  0  0  0  0  0  0  0
    7.1042   -8.6201    0.0000 C   0  0  0  0  0  0  0  0  0  0  0  0
    6.3897   -8.2076    0.0000 C   0  0  0  0  0  0  0  0  0  0  0  0
    5.6752   -8.6201    0.0000 C   0  0  0  0  0  0  0  0  0  0  0  0
    7.8186   -9.8576    0.0000 C   0  0  0  0  0  0  0  0  0  0  0  0
    8.5331   -9.4451    0.0000 C   0  0  0  0  0  0  0  0  0  0  0  0
    8.5331   -8.6201    0.0000 C   0  0  2  0  0  0  0  0  0  0  0  0
    7.8186   -8.2076    0.0000 C   0  0  2  0  0  0  0  0  0  0  0  0
    9.2868   -8.9557    0.0000 C   0  0  0  0  0  0  0  0  0  0  0  0
    9.8388   -8.3426    0.0000 C   0  0  2  0  0  0  0  0  0  0  0  0
    9.4263   -7.6281    0.0000 C   0  0  0  0  0  0  0  0  0  0  0  0
    8.6193   -7.7997    0.0000 C   0  0  0  0  0  0  0  0  0  0  0  0
    3.6629  -11.6785    0.0000 C   0  0  0  0  0  0  0  0  0  0  0  0
    4.8296  -11.6785    0.0000 C   0  0  0  0  0  0  0  0  0  0  0  0
    4.8296  -12.5035    0.0000 O   0  0  0  0  0  0  0  0  0  0  0  0
    2.8173   -9.4451    0.0000 O   0  0  0  0  0  0  0  0  0  0  0  0
    7.1042  -10.2701    0.0000 C   0  0  0  0  0  0  0  0  0  0  0  0
   10.5533   -7.9301    0.0000 C   0  0  0  0  0  0  0  0  0  0  0  0
    2.8173  -11.0951    0.0000 O   0  0  0  0  0  0  0  0  0  0  0  0
    4.9607   -9.0326    0.0000 C   0  0  0  0  0  0  0  0  0  0  0  0
    6.3897   -9.0326    0.0000 C   0  0  0  0  0  0  0  0  0  0  0  0
    7.8186   -7.3826    0.0000 O   0  0  0  0  0  0  0  0  0  0  0  0
   10.4222   -8.9260    0.0000 C   0  0  0  0  0  0  0  0  0  0  0  0
  1  2  1  0  0  0  0
  2  3  1  0  0  0  0
  3  4  1  0  0  0  0
  4  5  1  0  0  0  0
  5  6  1  0  0  0  0
  6  1  1  0  0  0  0
  4  7  1  0  0  0  0
  7  8  1  0  0  0  0
  8  9  1  0  0  0  0
  9 10  1  0  0  0  0
 10  5  1  0  0  0  0
  9 11  1  0  0  0  0
 11 12  1  0  0  0  0
 12 13  2  0  0  0  0
 13 14  1  0  0  0  0
 14 10  1  0  0  0  0
 11 15  1  0  0  0  0
 15 16  1  0  0  0  0
 16 17  1  0  0  0  0
 17 18  1  0  0  0  0
 18 12  1  0  0  0  0
 17 19  1  6  0  0  0
 19 20  1  0  0  0  0
 20 21  1  0  0  0  0
 21 22  1  0  0  0  0
 17 22  1  1  0  0  0
  3 23  1  1  0  0  0
  3 24  1  6  0  0  0
 24 25  1  0  0  0  0
  1 26  1  6  0  0  0
 11 27  1  6  0  0  0
 20 28  1  6  0  0  0
  2 29  1  1  0  0  0
  5 30  1  1  0  0  0
  9 31  1  1  0  0  0
 18 32  1  1  0  0  0
 20 33  1  1  0  0  0
M  END
>  <cdx:fragmentId>
5

$$$$
