90751.cdx
  Mrv1902 05222410182D          

 11 11  0  0  0  0            999 V2000
    6.3913   -7.9057    0.0000 C   0  0  0  0  0  0  0  0  0  0  0  0
    5.9788   -8.6201    0.0000 C   0  0  0  0  0  0  0  0  0  0  0  0
    6.3913   -9.3346    0.0000 C   0  0  0  0  0  0  0  0  0  0  0  0
    7.2163   -9.3346    0.0000 C   0  0  0  0  0  0  0  0  0  0  0  0
    7.6288   -8.6201    0.0000 C   0  0  0  0  0  0  0  0  0  0  0  0
    7.2163   -7.9057    0.0000 C   0  0  0  0  0  0  0  0  0  0  0  0
    8.4538   -8.6201    0.0000 C   0  0  0  0  0  0  0  0  0  0  0  0
    8.8663   -9.3346    0.0000 O   0  0  0  0  0  0  0  0  0  0  0  0
    5.1538   -8.6201    0.0000 C   0  0  0  0  0  0  0  0  0  0  0  0
    4.7413   -7.9057    0.0000 C   0  0  0  0  0  0  0  0  0  0  0  0
    4.7413   -9.3346    0.0000 C   0  0  0  0  0  0  0  0  0  0  0  0
  1  2  1  0  0  0  0
  2  3  1  0  0  0  0
  3  4  1  0  0  0  0
  4  5  2  0  0  0  0
  5  6  1  0  0  0  0
  6  1  1  0  0  0  0
  5  7  1  0  0  0  0
  7  8  1  0  0  0  0
  2  9  1  0  0  0  0
  9 10  1  0  0  0  0
  9 11  1  0  0  0  0
M  END
>  <cdx:fragmentId>
5

$$$$
