9076.cdx
  Mrv1902 05222410252D          

 27 29  0  0  0  0            999 V2000
    6.3796   -8.8550    0.0000 O   0  0  0  0  0  0  0  0  0  0  0  0
    7.0941   -9.2675    0.0000 C   0  0  2  0  0  0  0  0  0  0  0  0
    7.0941  -10.0925    0.0000 C   0  0  1  0  0  0  0  0  0  0  0  0
    6.3796  -10.5050    0.0000 C   0  0  2  0  0  0  0  0  0  0  0  0
    5.6652  -10.0925    0.0000 C   0  0  1  0  0  0  0  0  0  0  0  0
    5.6652   -9.2675    0.0000 C   0  0  1  0  0  0  0  0  0  0  0  0
    7.8086  -10.5050    0.0000 O   0  0  0  0  0  0  0  0  0  0  0  0
    6.3796  -11.3300    0.0000 O   0  0  0  0  0  0  0  0  0  0  0  0
    4.9507  -10.5050    0.0000 O   0  0  0  0  0  0  0  0  0  0  0  0
    4.9507   -8.8550    0.0000 C   0  0  0  0  0  0  0  0  0  0  0  0
    4.2362   -9.2675    0.0000 O   0  0  0  0  0  0  0  0  0  0  0  0
    7.8086   -8.8550    0.0000 O   0  0  0  0  0  0  0  0  0  0  0  0
    7.8086   -8.0300    0.0000 C   0  0  1  0  0  0  0  0  0  0  0  0
    8.5231   -7.6175    0.0000 C   0  0  1  0  0  0  0  0  0  0  0  0
    8.5231   -6.7925    0.0000 C   0  0  1  0  0  0  0  0  0  0  0  0
    7.8086   -6.3800    0.0000 C   0  0  0  0  0  0  0  0  0  0  0  0
    7.0941   -6.7925    0.0000 C   0  0  0  0  0  0  0  0  0  0  0  0
    7.0941   -7.6175    0.0000 O   0  0  0  0  0  0  0  0  0  0  0  0
    9.3077   -6.5376    0.0000 C   0  0  0  0  0  0  0  0  0  0  0  0
    9.7926   -7.2050    0.0000 C   0  0  1  0  0  0  0  0  0  0  0  0
    9.3077   -7.8724    0.0000 C   0  0  1  0  0  0  0  0  0  0  0  0
    9.1361   -8.6794    0.0000 C   0  0  0  0  0  0  0  0  0  0  0  0
    7.8086   -5.5550    0.0000 C   0  0  0  0  0  0  0  0  0  0  0  0
    9.9208   -8.4245    0.0000 O   0  0  0  0  0  0  0  0  0  0  0  0
    8.6093   -5.9720    0.0000 H   0  0  0  0  0  0  0  0  0  0  0  0
    8.6093   -8.4380    0.0000 H   0  0  0  0  0  0  0  0  0  0  0  0
   10.6176   -7.2050    0.0000 O   0  0  0  0  0  0  0  0  0  0  0  0
  1  2  1  0  0  0  0
  2  3  1  0  0  0  0
  3  4  1  0  0  0  0
  4  5  1  0  0  0  0
  5  6  1  0  0  0  0
  1  6  1  0  0  0  0
  3  7  1  6  0  0  0
  4  8  1  1  0  0  0
  5  9  1  6  0  0  0
 10 11  1  0  0  0  0
  6 10  1  1  0  0  0
 13 14  1  0  0  0  0
 14 15  1  0  0  0  0
 15 16  1  0  0  0  0
 16 17  2  0  0  0  0
 17 18  1  0  0  0  0
 13 18  1  0  0  0  0
 19 20  1  0  0  0  0
 20 21  1  0  0  0  0
 21 14  1  0  0  0  0
 19 15  1  0  0  0  0
 21 22  1  1  0  0  0
 16 23  1  0  0  0  0
 21 24  1  6  0  0  0
 13 12  1  6  0  0  0
  2 12  1  1  0  0  0
 15 25  1  6  0  0  0
 14 26  1  6  0  0  0
 20 27  1  6  0  0  0
M  END
>  <cdx:groupId>
73752

>  <cdx:fragmentId>
73699

$$$$
