90763.cdx
  Mrv1902 05222410282D          

 27 28  0  0  0  0            999 V2000
    3.1947   -9.0754    0.0000 C   0  0  0  0  0  0  0  0  0  0  0  0
    3.8999   -9.5036    0.0000 C   0  0  0  0  0  0  0  0  0  0  0  0
    2.4713   -9.4720    0.0000 C   0  0  0  0  0  0  0  0  0  0  0  0
    2.4531  -10.2968    0.0000 C   0  0  0  0  0  0  0  0  0  0  0  0
    3.1582  -10.7250    0.0000 C   0  0  0  0  0  0  0  0  0  0  0  0
    6.0702   -8.3139    0.0000 O   0  0  0  0  0  0  0  0  0  0  0  0
    7.4988   -8.3455    0.0000 O   0  0  0  0  0  0  0  0  0  0  0  0
    3.8816  -10.3284    0.0000 C   0  0  0  0  0  0  0  0  0  0  0  0
    1.7296  -10.6934    0.0000 O   0  0  0  0  0  0  0  0  0  0  0  0
    1.7661   -9.0438    0.0000 O   0  0  0  0  0  0  0  0  0  0  0  0
    4.6233   -9.1070    0.0000 C   0  0  0  0  0  0  0  0  0  0  0  0
    1.0427   -9.4404    0.0000 C   0  0  0  0  0  0  0  0  0  0  0  0
    6.0519   -9.1387    0.0000 C   0  0  0  0  0  0  0  0  0  0  0  0
    5.3285   -9.5352    0.0000 C   0  0  0  0  0  0  0  0  0  0  0  0
    7.4805   -9.1703    0.0000 C   0  0  0  0  0  0  0  0  0  0  0  0
    6.7571   -9.5669    0.0000 C   0  0  0  0  0  0  0  0  0  0  0  0
    8.9091   -9.2019    0.0000 C   0  0  0  0  0  0  0  0  0  0  0  0
    8.1857   -9.5985    0.0000 C   0  0  0  0  0  0  0  0  0  0  0  0
   12.4715   -9.6934    0.0000 C   0  0  0  0  0  0  0  0  0  0  0  0
   11.7663   -9.2652    0.0000 O   0  0  0  0  0  0  0  0  0  0  0  0
   11.7298  -10.9148    0.0000 O   0  0  0  0  0  0  0  0  0  0  0  0
   11.0429   -9.6617    0.0000 C   0  0  0  0  0  0  0  0  0  0  0  0
   10.3377   -9.2335    0.0000 C   0  0  0  0  0  0  0  0  0  0  0  0
    9.6143   -9.6301    0.0000 C   0  0  0  0  0  0  0  0  0  0  0  0
    9.5960  -10.4549    0.0000 C   0  0  0  0  0  0  0  0  0  0  0  0
   10.3012  -10.8831    0.0000 C   0  0  0  0  0  0  0  0  0  0  0  0
   11.0246  -10.4865    0.0000 C   0  0  0  0  0  0  0  0  0  0  0  0
  1  2  2  0  0  0  0
 13  6  2  0  0  0  0
 15  7  1  0  0  0  0
  1  3  1  0  0  0  0
  3  4  2  0  0  0  0
  4  5  1  0  0  0  0
  5  8  2  0  0  0  0
  8  2  1  0  0  0  0
  4  9  1  0  0  0  0
 11 14  1  0  0  0  0
  2 11  1  0  0  0  0
  3 10  1  0  0  0  0
 10 12  1  0  0  0  0
 13 16  1  0  0  0  0
 14 13  1  0  0  0  0
 15 18  1  0  0  0  0
 16 15  1  0  0  0  0
 17 24  1  0  0  0  0
 18 17  1  0  0  0  0
 20 19  1  0  0  0  0
 22 20  1  0  0  0  0
 27 21  1  0  0  0  0
 22 27  1  0  0  0  0
 23 22  2  0  0  0  0
 24 23  1  0  0  0  0
 25 24  2  0  0  0  0
 26 25  1  0  0  0  0
 27 26  2  0  0  0  0
M  END
>  <cdx:fragmentId>
5

$$$$
