90760.cdx
  Mrv1902 05222410272D          

 24 25  0  0  0  0            999 V2000
    3.4356   -7.5751    0.0000 O   0  0  0  0  0  0  0  0  0  0  0  0
    3.4356   -8.4001    0.0000 C   0  0  0  0  0  0  0  0  0  0  0  0
    4.1500   -8.8126    0.0000 O   0  0  0  0  0  0  0  0  0  0  0  0
    4.8645   -8.4001    0.0000 C   0  0  0  0  0  0  0  0  0  0  0  0
    5.5790   -8.8126    0.0000 C   0  0  0  0  0  0  0  0  0  0  0  0
    6.2934   -8.4001    0.0000 C   0  0  0  0  0  0  0  0  0  0  0  0
    7.0079   -8.8126    0.0000 C   0  0  2  0  0  0  0  0  0  0  0  0
    7.7224   -8.4001    0.0000 C   0  0  0  0  0  0  0  0  0  0  0  0
    7.7224   -7.5751    0.0000 C   0  0  0  0  0  0  0  0  0  0  0  0
    7.0079   -7.1626    0.0000 C   0  0  0  0  0  0  0  0  0  0  0  0
    8.4369   -8.8126    0.0000 C   0  0  2  0  0  0  0  0  0  0  0  0
    9.1513   -8.4001    0.0000 C   0  0  1  0  0  0  0  0  0  0  0  0
    9.1513   -7.5751    0.0000 C   0  0  1  0  0  0  0  0  0  0  0  0
    8.4369   -7.1626    0.0000 C   0  0  0  0  0  0  0  0  0  0  0  0
    9.9359   -8.6551    0.0000 C   0  0  0  0  0  0  0  0  0  0  0  0
   10.4209   -7.9876    0.0000 C   0  0  0  0  0  0  0  0  0  0  0  0
    9.9359   -7.3202    0.0000 O   0  0  0  0  0  0  0  0  0  0  0  0
    2.7211   -8.8126    0.0000 C   0  0  0  0  0  0  0  0  0  0  0  0
   11.2459   -7.9876    0.0000 O   0  0  0  0  0  0  0  0  0  0  0  0
   10.1909   -9.4397    0.0000 C   0  0  0  0  0  0  0  0  0  0  0  0
    7.0079   -9.6376    0.0000 C   0  0  0  0  0  0  0  0  0  0  0  0
    8.4369   -9.6376    0.0000 O   0  0  0  0  0  0  0  0  0  0  0  0
    9.1513   -6.7501    0.0000 H   0  0  0  0  0  0  0  0  0  0  0  0
    9.1513   -9.2251    0.0000 H   0  0  0  0  0  0  0  0  0  0  0  0
  1  2  2  0  0  0  0
  2  3  1  0  0  0  0
  3  4  1  0  0  0  0
  4  5  1  0  0  0  0
  5  6  1  0  0  0  0
  6  7  1  0  0  0  0
  7  8  1  0  0  0  0
  8  9  2  0  0  0  0
  9 10  1  0  0  0  0
  8 11  1  0  0  0  0
 11 12  1  0  0  0  0
 12 13  1  0  0  0  0
 13 14  1  0  0  0  0
 14  9  1  0  0  0  0
 12 15  1  0  0  0  0
 15 16  1  0  0  0  0
 16 17  1  0  0  0  0
 17 13  1  0  0  0  0
  2 18  1  0  0  0  0
 16 19  2  0  0  0  0
 15 20  2  0  0  0  0
  7 21  1  6  0  0  0
 11 22  1  6  0  0  0
 13 23  1  6  0  0  0
 12 24  1  6  0  0  0
M  END
>  <cdx:fragmentId>
5

$$$$
