907641.cdx
  Mrv1902 05222410212D          

 38 40  0  0  0  0            999 V2000
   12.1105   -7.8943    0.0000 C   0  0  0  0  0  0  0  0  0  0  0  0
   12.1105   -7.0693    0.0000 C   0  0  0  0  0  0  0  0  0  0  0  0
   11.3960   -6.6568    0.0000 C   0  0  0  0  0  0  0  0  0  0  0  0
   10.6815   -7.0693    0.0000 C   0  0  0  0  0  0  0  0  0  0  0  0
   10.6815   -7.8943    0.0000 C   0  0  0  0  0  0  0  0  0  0  0  0
   11.3960   -8.3068    0.0000 C   0  0  0  0  0  0  0  0  0  0  0  0
   12.8951   -8.1493    0.0000 C   0  0  0  0  0  0  0  0  0  0  0  0
   13.3800   -7.4818    0.0000 C   0  0  0  0  0  0  0  0  0  0  0  0
   12.8951   -6.8144    0.0000 O   0  0  0  0  0  0  0  0  0  0  0  0
    9.9671   -6.6568    0.0000 O   0  0  0  0  0  0  0  0  0  0  0  0
    9.2526   -7.0693    0.0000 C   0  0  0  0  0  0  0  0  0  0  0  0
    9.2526   -7.8943    0.0000 C   0  0  0  0  0  0  0  0  0  0  0  0
    9.9671   -8.3068    0.0000 C   0  0  0  0  0  0  0  0  0  0  0  0
    8.5381   -6.6568    0.0000 O   0  0  0  0  0  0  0  0  0  0  0  0
   12.0876   -9.6850    0.0000 C   0  0  0  0  0  0  0  0  0  0  0  0
   12.0876  -10.5100    0.0000 C   0  0  1  0  0  0  0  0  0  0  0  0
   11.3731  -10.9225    0.0000 C   0  0  0  0  0  0  0  0  0  0  0  0
   10.6586  -11.3350    0.0000 O   0  0  0  0  0  0  0  0  0  0  0  0
   10.6586  -10.5100    0.0000 C   0  0  0  0  0  0  0  0  0  0  0  0
   11.3731  -11.7475    0.0000 C   0  0  0  0  0  0  0  0  0  0  0  0
   12.8020  -10.9225    0.0000 O   0  0  0  0  0  0  0  0  0  0  0  0
    9.8130  -10.8607    0.0000 C   0  0  0  0  0  0  0  0  0  0  0  0
    9.0985  -11.2732    0.0000 C   0  0  0  0  0  0  0  0  0  0  0  0
    8.3840  -10.8607    0.0000 C   0  0  0  0  0  0  0  0  0  0  0  0
    7.6696  -11.2732    0.0000 C   0  0  0  0  0  0  0  0  0  0  0  0
    6.9551  -10.8607    0.0000 C   0  0  0  0  0  0  0  0  0  0  0  0
    6.2406  -11.2732    0.0000 C   0  0  0  0  0  0  0  0  0  0  0  0
    5.5262  -10.8607    0.0000 C   0  0  0  0  0  0  0  0  0  0  0  0
    4.8117  -11.2732    0.0000 C   0  0  0  0  0  0  0  0  0  0  0  0
    4.0972  -10.8607    0.0000 C   0  0  0  0  0  0  0  0  0  0  0  0
    3.3827  -11.2732    0.0000 C   0  0  0  0  0  0  0  0  0  0  0  0
    2.6683  -10.8607    0.0000 C   0  0  0  0  0  0  0  0  0  0  0  0
    1.9538  -11.2732    0.0000 C   0  0  0  0  0  0  0  0  0  0  0  0
    1.2393  -10.8607    0.0000 C   0  0  0  0  0  0  0  0  0  0  0  0
    0.5249  -11.2732    0.0000 C   0  0  0  0  0  0  0  0  0  0  0  0
   11.3731   -9.2725    0.0000 O   0  0  0  0  0  0  0  0  0  0  0  0
   11.3960   -5.8318    0.0000 O   0  0  0  0  0  0  0  0  0  0  0  0
   10.6815   -5.4193    0.0000 C   0  0  0  0  0  0  0  0  0  0  0  0
  1  2  2  0  0  0  0
  2  3  1  0  0  0  0
  3  4  2  0  0  0  0
  4  5  1  0  0  0  0
  5  6  2  0  0  0  0
  6  1  1  0  0  0  0
  1  7  1  0  0  0  0
  7  8  2  0  0  0  0
  8  9  1  0  0  0  0
  9  2  1  0  0  0  0
  4 10  1  0  0  0  0
 10 11  1  0  0  0  0
 11 12  1  0  0  0  0
 12 13  2  0  0  0  0
 13  5  1  0  0  0  0
 11 14  2  0  0  0  0
 15 16  1  0  0  0  0
 16 17  1  0  0  0  0
 17 18  1  0  0  0  0
 17 19  1  0  0  0  0
 17 20  1  0  0  0  0
 16 21  1  6  0  0  0
 22 23  1  0  0  0  0
 23 24  1  0  0  0  0
 24 25  1  0  0  0  0
 25 26  1  0  0  0  0
 26 27  1  0  0  0  0
 27 28  1  0  0  0  0
 28 29  1  0  0  0  0
 29 30  1  0  0  0  0
 30 31  1  0  0  0  0
 31 32  1  0  0  0  0
 32 33  1  0  0  0  0
 22 18  1  0  0  0  0
 33 34  1  0  0  0  0
 34 35  1  0  0  0  0
 15 36  1  0  0  0  0
  3 37  1  0  0  0  0
  6 36  1  0  0  0  0
 37 38  1  0  0  0  0
M  END
>  <cdx:fragmentId>
72

$$$$
