90766.cdx
  Mrv1902 05222410262D          

 28 29  0  0  0  0            999 V2000
    3.1331   -9.8439    0.0000 C   0  0  2  0  0  0  0  0  0  0  0  0
    3.1331  -10.6689    0.0000 C   0  0  2  0  0  0  0  0  0  0  0  0
    3.8475  -11.0814    0.0000 C   0  0  1  0  0  0  0  0  0  0  0  0
    4.5620  -10.6689    0.0000 C   0  0  2  0  0  0  0  0  0  0  0  0
    4.5620   -9.8439    0.0000 C   0  0  1  0  0  0  0  0  0  0  0  0
    3.8475   -9.4314    0.0000 O   0  0  0  0  0  0  0  0  0  0  0  0
    2.4186   -9.4314    0.0000 C   0  0  0  0  0  0  0  0  0  0  0  0
    5.2765   -9.4314    0.0000 C   0  0  0  0  0  0  0  0  0  0  0  0
    3.8475  -11.9064    0.0000 O   0  0  0  0  0  0  0  0  0  0  0  0
    2.4186  -11.0814    0.0000 O   0  0  0  0  0  0  0  0  0  0  0  0
    5.2765  -11.0814    0.0000 O   0  0  0  0  0  0  0  0  0  0  0  0
    1.7041   -9.8439    0.0000 O   0  0  0  0  0  0  0  0  0  0  0  0
    5.2765   -8.6064    0.0000 O   0  0  0  0  0  0  0  0  0  0  0  0
    5.9909   -8.1939    0.0000 C   0  0  0  0  0  0  0  0  0  0  0  0
    6.7054   -8.6064    0.0000 C   0  0  0  0  0  0  0  0  0  0  0  0
    7.4199   -8.1939    0.0000 C   0  0  0  0  0  0  0  0  0  0  0  0
    8.1281   -8.6170    0.0000 C   0  0  0  0  0  0  0  0  0  0  0  0
    8.1012   -9.4415    0.0000 C   0  0  0  0  0  0  0  0  0  0  0  0
    8.8018   -9.8771    0.0000 C   0  0  1  0  0  0  0  0  0  0  0  0
    8.8612  -10.7000    0.0000 C   0  0  0  0  0  0  0  0  0  0  0  0
    9.6622  -10.8978    0.0000 C   0  0  0  0  0  0  0  0  0  0  0  0
   10.0978  -10.1972    0.0000 C   0  0  0  0  0  0  0  0  0  0  0  0
    9.5660   -9.5664    0.0000 C   0  0  2  0  0  0  0  0  0  0  0  0
    9.7638   -8.7654    0.0000 C   0  0  0  0  0  0  0  0  0  0  0  0
    8.2304  -11.2317    0.0000 O   0  0  0  0  0  0  0  0  0  0  0  0
   10.4914   -8.3765    0.0000 C   0  0  0  0  0  0  0  0  0  0  0  0
   10.5183   -7.5519    0.0000 O   0  0  0  0  0  0  0  0  0  0  0  0
   11.1920   -8.8121    0.0000 O   0  0  0  0  0  0  0  0  0  0  0  0
  1  2  1  0  0  0  0
  2  3  1  0  0  0  0
  3  4  1  0  0  0  0
  4  5  1  0  0  0  0
  5  6  1  0  0  0  0
  6  1  1  0  0  0  0
  1  7  1  1  0  0  0
  5  8  1  1  0  0  0
  3  9  1  1  0  0  0
  2 10  1  6  0  0  0
  4 11  1  6  0  0  0
  7 12  1  0  0  0  0
  8 13  1  0  0  0  0
 13 14  1  0  0  0  0
 14 15  1  0  0  0  0
 15 16  1  0  0  0  0
 16 17  2  0  0  0  0
 17 18  1  0  0  0  0
 19 18  1  6  0  0  0
 19 20  1  0  0  0  0
 20 21  1  0  0  0  0
 21 22  1  0  0  0  0
 22 23  1  0  0  0  0
 23 19  1  0  0  0  0
 23 24  1  1  0  0  0
 20 25  2  0  0  0  0
 24 26  1  0  0  0  0
 26 27  1  0  0  0  0
 26 28  2  0  0  0  0
M  END
>  <cdx:fragmentId>
5

$$$$
