907601.cdx
  Mrv1902 05222410262D          

 27 28  0  0  0  0            999 V2000
    1.9865   -8.1317    0.0000 O   0  0  0  0  0  0  0  0  0  0  0  0
    1.9865   -9.7817    0.0000 O   0  0  0  0  0  0  0  0  0  0  0  0
    4.1299   -9.3692    0.0000 C   0  0  0  0  0  0  0  0  0  0  0  0
    3.4154   -9.7817    0.0000 C   0  0  0  0  0  0  0  0  0  0  0  0
    2.7009   -9.3692    0.0000 C   0  0  0  0  0  0  0  0  0  0  0  0
    2.7009   -8.5442    0.0000 C   0  0  0  0  0  0  0  0  0  0  0  0
    3.4154   -8.1317    0.0000 C   0  0  0  0  0  0  0  0  0  0  0  0
    4.1299   -8.5442    0.0000 C   0  0  0  0  0  0  0  0  0  0  0  0
    7.7022   -7.3067    0.0000 O   0  0  0  0  0  0  0  0  0  0  0  0
    6.2733   -7.3067    0.0000 O   0  0  0  0  0  0  0  0  0  0  0  0
    4.8443   -8.1317    0.0000 C   0  0  0  0  0  0  0  0  0  0  0  0
    5.5588   -8.5442    0.0000 C   0  0  0  0  0  0  0  0  0  0  0  0
    6.2733   -8.1317    0.0000 C   0  0  2  0  0  0  0  0  0  0  0  0
    6.9878   -8.5442    0.0000 C   0  0  0  0  0  0  0  0  0  0  0  0
    7.7022   -8.1317    0.0000 C   0  0  1  0  0  0  0  0  0  0  0  0
    8.4167   -8.5442    0.0000 C   0  0  0  0  0  0  0  0  0  0  0  0
    9.1312   -8.1317    0.0000 C   0  0  0  0  0  0  0  0  0  0  0  0
   12.7035   -8.5442    0.0000 C   0  0  0  0  0  0  0  0  0  0  0  0
   11.9890   -8.1317    0.0000 O   0  0  0  0  0  0  0  0  0  0  0  0
   11.9890   -9.7817    0.0000 O   0  0  0  0  0  0  0  0  0  0  0  0
   10.5601  -10.6067    0.0000 O   0  0  0  0  0  0  0  0  0  0  0  0
    9.8456   -9.3692    0.0000 C   0  0  0  0  0  0  0  0  0  0  0  0
    9.8456   -8.5442    0.0000 C   0  0  0  0  0  0  0  0  0  0  0  0
   10.5601   -8.1317    0.0000 C   0  0  0  0  0  0  0  0  0  0  0  0
   11.2746   -8.5442    0.0000 C   0  0  0  0  0  0  0  0  0  0  0  0
   11.2746   -9.3692    0.0000 C   0  0  0  0  0  0  0  0  0  0  0  0
   10.5601   -9.7817    0.0000 C   0  0  0  0  0  0  0  0  0  0  0  0
 23 17  1  0  0  0  0
 11  8  1  0  0  0  0
  6  1  1  0  0  0  0
  5  2  1  0  0  0  0
  8  3  2  0  0  0  0
  4  3  1  0  0  0  0
  5  4  2  0  0  0  0
  6  5  1  0  0  0  0
  7  6  2  0  0  0  0
  8  7  1  0  0  0  0
 15  9  1  6  0  0  0
 13 10  1  1  0  0  0
 12 11  1  0  0  0  0
 13 12  1  0  0  0  0
 14 13  1  0  0  0  0
 15 14  1  0  0  0  0
 16 15  1  0  0  0  0
 17 16  1  0  0  0  0
 25 19  1  0  0  0  0
 19 18  1  0  0  0  0
 26 20  1  0  0  0  0
 27 21  1  0  0  0  0
 27 22  2  0  0  0  0
 23 22  1  0  0  0  0
 24 23  2  0  0  0  0
 25 24  1  0  0  0  0
 26 25  2  0  0  0  0
 27 26  1  0  0  0  0
M  END
>  <cdx:fragmentId>
25

$$$$
