90767.cdx
  Mrv1902 05222410262D          

 12 12  0  0  0  0            999 V2000
    6.0179   -4.4126    0.0000 O   0  0  0  0  0  0  0  0  0  0  0  0
    7.4469   -4.4126    0.0000 O   0  0  0  0  0  0  0  0  0  0  0  0
    6.0179   -6.0626    0.0000 C   0  0  0  0  0  0  0  0  0  0  0  0
    6.0179   -6.8876    0.0000 C   0  0  0  0  0  0  0  0  0  0  0  0
    6.7324   -7.3001    0.0000 C   0  0  0  0  0  0  0  0  0  0  0  0
    7.4469   -6.8876    0.0000 C   0  0  0  0  0  0  0  0  0  0  0  0
    7.4469   -6.0626    0.0000 C   0  0  0  0  0  0  0  0  0  0  0  0
    6.7324   -5.6501    0.0000 C   0  0  0  0  0  0  0  0  0  0  0  0
    6.7324   -4.8251    0.0000 C   0  0  0  0  0  0  0  0  0  0  0  0
    8.1613   -7.3001    0.0000 O   0  0  0  0  0  0  0  0  0  0  0  0
    6.7324   -8.1251    0.0000 O   0  0  0  0  0  0  0  0  0  0  0  0
    8.8758   -6.8876    0.0000 C   0  0  0  0  0  0  0  0  0  0  0  0
  9  1  2  0  0  0  0
  9  2  1  0  0  0  0
  8  9  1  0  0  0  0
  3  4  2  0  0  0  0
  4  5  1  0  0  0  0
  5  6  2  0  0  0  0
  6  7  1  0  0  0  0
  7  8  2  0  0  0  0
  8  3  1  0  0  0  0
  6 10  1  0  0  0  0
  5 11  1  0  0  0  0
 10 12  1  0  0  0  0
M  END
>  <cdx:fragmentId>
5

$$$$
