907644.cdx
  Mrv1902 05222410222D          

 42 44  0  0  0  0            999 V2000
   10.8542   -5.1994    0.0000 C   0  0  0  0  0  0  0  0  0  0  0  0
   12.2620   -7.6590    0.0000 C   0  0  0  0  0  0  0  0  0  0  0  0
   12.2620   -6.8340    0.0000 C   0  0  0  0  0  0  0  0  0  0  0  0
   11.5475   -6.4215    0.0000 C   0  0  0  0  0  0  0  0  0  0  0  0
   10.8331   -6.8340    0.0000 C   0  0  0  0  0  0  0  0  0  0  0  0
   10.8331   -7.6590    0.0000 C   0  0  0  0  0  0  0  0  0  0  0  0
   11.5475   -8.0715    0.0000 C   0  0  0  0  0  0  0  0  0  0  0  0
   13.0466   -7.9139    0.0000 C   0  0  0  0  0  0  0  0  0  0  0  0
   13.5316   -7.2465    0.0000 C   0  0  0  0  0  0  0  0  0  0  0  0
   13.0466   -6.5790    0.0000 O   0  0  0  0  0  0  0  0  0  0  0  0
   10.1186   -6.4215    0.0000 O   0  0  0  0  0  0  0  0  0  0  0  0
    9.4041   -6.8340    0.0000 C   0  0  0  0  0  0  0  0  0  0  0  0
    9.4041   -7.6590    0.0000 C   0  0  0  0  0  0  0  0  0  0  0  0
   10.1186   -8.0715    0.0000 C   0  0  0  0  0  0  0  0  0  0  0  0
    8.6897   -6.4215    0.0000 O   0  0  0  0  0  0  0  0  0  0  0  0
   11.5484   -9.1181    0.0000 O   0  0  0  0  0  0  0  0  0  0  0  0
    4.1933  -10.6031    0.0000 C   0  0  0  0  0  0  0  0  0  0  0  0
    4.9078  -11.0156    0.0000 C   0  0  0  0  0  0  0  0  0  0  0  0
    5.6223  -10.6031    0.0000 C   0  0  0  0  0  0  0  0  0  0  0  0
    6.3367  -11.0156    0.0000 C   0  0  0  0  0  0  0  0  0  0  0  0
   11.5687   -5.6119    0.0000 O   0  0  0  0  0  0  0  0  0  0  0  0
    7.0512  -10.6031    0.0000 C   0  0  0  0  0  0  0  0  0  0  0  0
    7.7657  -11.0156    0.0000 C   0  0  0  0  0  0  0  0  0  0  0  0
    8.4801  -10.6031    0.0000 C   0  0  0  0  0  0  0  0  0  0  0  0
    9.1946  -11.0156    0.0000 C   0  0  0  0  0  0  0  0  0  0  0  0
    9.9091  -10.6031    0.0000 C   0  0  0  0  0  0  0  0  0  0  0  0
   12.8981  -10.6650    0.0000 O   0  0  0  0  0  0  0  0  0  0  0  0
   11.4692  -11.4900    0.0000 C   0  0  0  0  0  0  0  0  0  0  0  0
   10.7547  -10.2525    0.0000 C   0  0  0  0  0  0  0  0  0  0  0  0
   10.7547  -11.0775    0.0000 O   0  0  0  0  0  0  0  0  0  0  0  0
   11.4692  -10.6650    0.0000 C   0  0  0  0  0  0  0  0  0  0  0  0
   12.1837  -10.2525    0.0000 C   0  0  2  0  0  0  0  0  0  0  0  0
   12.1837   -9.4275    0.0000 C   0  0  0  0  0  0  0  0  0  0  0  0
    3.4788  -11.0156    0.0000 C   0  0  0  0  0  0  0  0  0  0  0  0
    3.4788  -11.8406    0.0000 C   0  0  0  0  0  0  0  0  0  0  0  0
    2.7644  -12.2531    0.0000 C   0  0  0  0  0  0  0  0  0  0  0  0
    2.7644  -13.0781    0.0000 C   0  0  0  0  0  0  0  0  0  0  0  0
    2.0499  -13.4906    0.0000 C   0  0  0  0  0  0  0  0  0  0  0  0
    2.0499  -14.3156    0.0000 C   0  0  0  0  0  0  0  0  0  0  0  0
    1.3354  -14.7281    0.0000 C   0  0  0  0  0  0  0  0  0  0  0  0
    1.3354  -15.5531    0.0000 C   0  0  0  0  0  0  0  0  0  0  0  0
    0.6210  -15.9656    0.0000 C   0  0  0  0  0  0  0  0  0  0  0  0
 21  1  1  0  0  0  0
  2  3  2  0  0  0  0
  3  4  1  0  0  0  0
  4  5  2  0  0  0  0
  5  6  1  0  0  0  0
  6  7  2  0  0  0  0
  7  2  1  0  0  0  0
  2  8  1  0  0  0  0
  8  9  2  0  0  0  0
  9 10  1  0  0  0  0
 10  3  1  0  0  0  0
  5 11  1  0  0  0  0
 11 12  1  0  0  0  0
 12 13  1  0  0  0  0
 13 14  2  0  0  0  0
 14  6  1  0  0  0  0
 12 15  2  0  0  0  0
 33 16  1  0  0  0  0
 26 30  1  0  0  0  0
 18 17  1  0  0  0  0
 19 18  1  0  0  0  0
 20 19  1  0  0  0  0
 22 20  1  0  0  0  0
 23 22  1  0  0  0  0
  4 21  1  0  0  0  0
 24 23  1  0  0  0  0
 25 24  1  0  0  0  0
 26 25  1  0  0  0  0
 32 27  1  6  0  0  0
 31 28  1  0  0  0  0
 31 29  1  0  0  0  0
 31 30  1  0  0  0  0
 32 31  1  0  0  0  0
 33 32  1  0  0  0  0
 16  7  1  0  0  0  0
 17 34  2  0  0  0  0
 34 35  1  0  0  0  0
 35 36  1  0  0  0  0
 36 37  1  0  0  0  0
 37 38  1  0  0  0  0
 38 39  1  0  0  0  0
 39 40  1  0  0  0  0
 40 41  1  0  0  0  0
 41 42  1  0  0  0  0
M  END
>  <cdx:fragmentId>
244

$$$$
