90764.cdx
  Mrv1902 05222410262D          

 16 17  0  0  0  0            999 V2000
    5.2368   -9.1014    0.0000 C   0  0  0  0  0  0  0  0  0  0  0  0
    5.2368   -9.9264    0.0000 C   0  0  0  0  0  0  0  0  0  0  0  0
    5.9513  -10.3389    0.0000 C   0  0  0  0  0  0  0  0  0  0  0  0
    6.6657   -9.9264    0.0000 C   0  0  0  0  0  0  0  0  0  0  0  0
    6.6657   -9.1014    0.0000 C   0  0  0  0  0  0  0  0  0  0  0  0
    5.9513   -8.6889    0.0000 C   0  0  0  0  0  0  0  0  0  0  0  0
    4.5223   -8.6889    0.0000 O   0  0  0  0  0  0  0  0  0  0  0  0
    3.8079   -9.1014    0.0000 C   0  0  0  0  0  0  0  0  0  0  0  0
    7.4504  -10.1813    0.0000 N   0  0  0  0  0  0  0  0  0  0  0  0
    7.9353   -9.5139    0.0000 C   0  0  0  0  0  0  0  0  0  0  0  0
    7.4504   -8.8465    0.0000 C   0  0  0  0  0  0  0  0  0  0  0  0
    7.7053   -8.0618    0.0000 C   0  0  0  0  0  0  0  0  0  0  0  0
    8.5022   -7.8483    0.0000 C   0  0  0  0  0  0  0  0  0  0  0  0
    8.7157   -7.0514    0.0000 N   0  0  0  0  0  0  0  0  0  0  0  0
    9.5126   -6.8379    0.0000 C   0  0  0  0  0  0  0  0  0  0  0  0
    8.1324   -6.4681    0.0000 C   0  0  0  0  0  0  0  0  0  0  0  0
  1  2  2  0  0  0  0
  2  3  1  0  0  0  0
  3  4  2  0  0  0  0
  4  5  1  0  0  0  0
  5  6  2  0  0  0  0
  6  1  1  0  0  0  0
  1  7  1  0  0  0  0
  7  8  1  0  0  0  0
  4  9  1  0  0  0  0
  9 10  1  0  0  0  0
 10 11  2  0  0  0  0
 11  5  1  0  0  0  0
 11 12  1  0  0  0  0
 12 13  1  0  0  0  0
 13 14  1  0  0  0  0
 14 15  1  0  0  0  0
 14 16  1  0  0  0  0
M  END
>  <cdx:fragmentId>
5

$$$$
