90768.cdx
  Mrv1902 05222410192D          

 35 40  0  0  0  0            999 V2000
    8.4819  -11.1088    0.0000 H   0  0  0  0  0  0  0  0  0  0  0  0
   10.1638   -8.8862    0.0000 H   0  0  0  0  0  0  0  0  0  0  0  0
   10.3076   -7.4645    0.0000 H   0  0  0  0  0  0  0  0  0  0  0  0
    7.7253   -8.5067    0.0000 H   0  0  0  0  0  0  0  0  0  0  0  0
    8.4713   -5.1244    0.0000 C   0  0  0  0  0  0  0  0  0  0  0  0
   10.5776   -7.7954    0.0000 C   0  0  0  0  0  0  0  0  0  0  0  0
    6.3385   -9.8769    0.0000 C   0  0  0  0  0  0  0  0  0  0  0  0
    4.1999  -11.9477    0.0000 O   0  0  0  0  0  0  0  0  0  0  0  0
   10.5023   -9.6386    0.0000 O   0  0  0  0  0  0  0  0  0  0  0  0
   10.5398   -8.5464    0.0000 O   0  0  0  0  0  0  0  0  0  0  0  0
    7.2197   -9.4789    0.0000 C   0  0  0  0  0  0  0  0  0  0  0  0
    7.0513  -10.2866    0.0000 C   0  0  0  0  0  0  0  0  0  0  0  0
    5.6288  -11.9422    0.0000 C   0  0  0  0  0  0  0  0  0  0  0  0
    4.9128  -11.5324    0.0000 C   0  0  2  0  0  0  0  0  0  0  0  0
    4.9096  -10.7075    0.0000 C   0  0  0  0  0  0  0  0  0  0  0  0
    5.6224  -10.2922    0.0000 C   0  0  0  0  0  0  0  0  0  0  0  0
    6.3385  -10.7019    0.0000 C   0  0  2  0  0  0  0  0  0  0  0  0
    6.3417  -11.5269    0.0000 C   0  0  0  0  0  0  0  0  0  0  0  0
    7.0578  -11.9366    0.0000 C   0  0  0  0  0  0  0  0  0  0  0  0
    7.7706  -11.5213    0.0000 C   0  0  0  0  0  0  0  0  0  0  0  0
    7.7674  -10.6963    0.0000 C   0  0  1  0  0  0  0  0  0  0  0  0
    8.3783  -10.1419    0.0000 C   0  0  0  0  0  0  0  0  0  0  0  0
    9.1992  -10.2249    0.0000 C   0  0  0  0  0  0  0  0  0  0  0  0
    9.6815   -9.5556    0.0000 C   0  0  1  0  0  0  0  0  0  0  0  0
    9.3430   -8.8032    0.0000 C   0  0  2  0  0  0  0  0  0  0  0  0
    9.8253   -8.1339    0.0000 C   0  0  2  0  0  0  0  0  0  0  0  0
    9.4868   -7.3815    0.0000 C   0  0  1  0  0  0  0  0  0  0  0  0
    9.9691   -6.7122    0.0000 C   0  0  0  0  0  0  0  0  0  0  0  0
    9.6306   -5.9598    0.0000 C   0  0  0  0  0  0  0  0  0  0  0  0
    8.8098   -5.8768    0.0000 C   0  0  1  0  0  0  0  0  0  0  0  0
    8.3275   -6.5461    0.0000 C   0  0  0  0  0  0  0  0  0  0  0  0
    8.6660   -7.2985    0.0000 N   0  0  0  0  0  0  0  0  0  0  0  0
    8.1837   -7.9678    0.0000 C   0  0  0  0  0  0  0  0  0  0  0  0
    8.5222   -8.7202    0.0000 C   0  0  2  0  0  0  0  0  0  0  0  0
    8.0398   -9.3895    0.0000 C   0  0  0  0  0  0  0  0  0  0  0  0
 21  1  1  1  0  0  0
 25  2  1  6  0  0  0
 27  3  1  1  0  0  0
 34  4  1  6  0  0  0
 30  5  1  1  0  0  0
 26  6  1  6  0  0  0
 17  7  1  1  0  0  0
 14  8  1  1  0  0  0
 24  9  1  1  0  0  0
 26 10  1  1  0  0  0
 32 27  1  0  0  0  0
 34 25  1  0  0  0  0
 18 13  1  0  0  0  0
 21 12  1  0  0  0  0
 17 12  1  0  0  0  0
 35 22  1  0  0  0  0
 35 11  1  0  0  0  0
 12 11  1  0  0  0  0
 14 13  1  0  0  0  0
 15 14  1  0  0  0  0
 16 15  1  0  0  0  0
 17 16  1  0  0  0  0
 18 17  1  0  0  0  0
 19 18  2  0  0  0  0
 20 19  1  0  0  0  0
 21 20  1  0  0  0  0
 22 21  1  0  0  0  0
 23 22  1  0  0  0  0
 24 23  1  0  0  0  0
 25 24  1  0  0  0  0
 26 25  1  0  0  0  0
 27 26  1  0  0  0  0
 28 27  1  0  0  0  0
 29 28  1  0  0  0  0
 30 29  1  0  0  0  0
 31 30  1  0  0  0  0
 32 31  1  0  0  0  0
 33 32  1  0  0  0  0
 34 33  1  0  0  0  0
 35 34  1  0  0  0  0
M  END
>  <cdx:fragmentId>
13604

$$$$
