907643.cdx
  Mrv1902 05222410202D          

 40 42  0  0  0  0            999 V2000
   12.1102   -7.0874    0.0000 C   0  0  0  0  0  0  0  0  0  0  0  0
   12.1102   -6.2624    0.0000 C   0  0  0  0  0  0  0  0  0  0  0  0
   11.3957   -5.8499    0.0000 C   0  0  0  0  0  0  0  0  0  0  0  0
   10.6813   -6.2624    0.0000 C   0  0  0  0  0  0  0  0  0  0  0  0
   10.6813   -7.0874    0.0000 C   0  0  0  0  0  0  0  0  0  0  0  0
   11.3957   -7.4999    0.0000 C   0  0  0  0  0  0  0  0  0  0  0  0
   12.8948   -7.3424    0.0000 C   0  0  0  0  0  0  0  0  0  0  0  0
   13.3797   -6.6749    0.0000 C   0  0  0  0  0  0  0  0  0  0  0  0
   12.8948   -6.0075    0.0000 O   0  0  0  0  0  0  0  0  0  0  0  0
    9.9668   -5.8499    0.0000 O   0  0  0  0  0  0  0  0  0  0  0  0
    9.2523   -6.2624    0.0000 C   0  0  0  0  0  0  0  0  0  0  0  0
    9.2523   -7.0874    0.0000 C   0  0  0  0  0  0  0  0  0  0  0  0
    9.9668   -7.4999    0.0000 C   0  0  0  0  0  0  0  0  0  0  0  0
    8.5378   -5.8499    0.0000 O   0  0  0  0  0  0  0  0  0  0  0  0
   11.3966   -8.5465    0.0000 O   0  0  0  0  0  0  0  0  0  0  0  0
    4.0415  -10.0315    0.0000 C   0  0  0  0  0  0  0  0  0  0  0  0
    4.7560  -10.4440    0.0000 C   0  0  0  0  0  0  0  0  0  0  0  0
    5.4704  -10.0315    0.0000 C   0  0  0  0  0  0  0  0  0  0  0  0
    6.1849  -10.4440    0.0000 C   0  0  0  0  0  0  0  0  0  0  0  0
    6.8994  -10.0315    0.0000 C   0  0  0  0  0  0  0  0  0  0  0  0
    7.6139  -10.4440    0.0000 C   0  0  0  0  0  0  0  0  0  0  0  0
    8.3283  -10.0315    0.0000 C   0  0  0  0  0  0  0  0  0  0  0  0
    9.0428  -10.4440    0.0000 C   0  0  0  0  0  0  0  0  0  0  0  0
    9.7573  -10.0315    0.0000 C   0  0  0  0  0  0  0  0  0  0  0  0
   12.7463  -10.0934    0.0000 O   0  0  0  0  0  0  0  0  0  0  0  0
   11.3174  -10.9184    0.0000 C   0  0  0  0  0  0  0  0  0  0  0  0
   10.6029   -9.6809    0.0000 C   0  0  0  0  0  0  0  0  0  0  0  0
   10.6029  -10.5059    0.0000 O   0  0  0  0  0  0  0  0  0  0  0  0
   11.3174  -10.0934    0.0000 C   0  0  0  0  0  0  0  0  0  0  0  0
   12.0318   -9.6809    0.0000 C   0  0  2  0  0  0  0  0  0  0  0  0
   12.0318   -8.8559    0.0000 C   0  0  0  0  0  0  0  0  0  0  0  0
    3.3270  -10.4440    0.0000 C   0  0  0  0  0  0  0  0  0  0  0  0
    3.3270  -11.2690    0.0000 C   0  0  0  0  0  0  0  0  0  0  0  0
    2.6126  -11.6815    0.0000 C   0  0  0  0  0  0  0  0  0  0  0  0
    2.6126  -12.5065    0.0000 C   0  0  0  0  0  0  0  0  0  0  0  0
    1.8981  -12.9190    0.0000 C   0  0  0  0  0  0  0  0  0  0  0  0
    1.8981  -13.7440    0.0000 C   0  0  0  0  0  0  0  0  0  0  0  0
    1.1836  -14.1565    0.0000 C   0  0  0  0  0  0  0  0  0  0  0  0
    1.1836  -14.9815    0.0000 C   0  0  0  0  0  0  0  0  0  0  0  0
    0.4691  -15.3940    0.0000 C   0  0  0  0  0  0  0  0  0  0  0  0
  1  2  2  0  0  0  0
  2  3  1  0  0  0  0
  3  4  2  0  0  0  0
  4  5  1  0  0  0  0
  5  6  2  0  0  0  0
  6  1  1  0  0  0  0
  1  7  1  0  0  0  0
  7  8  2  0  0  0  0
  8  9  1  0  0  0  0
  9  2  1  0  0  0  0
  4 10  1  0  0  0  0
 10 11  1  0  0  0  0
 11 12  1  0  0  0  0
 12 13  2  0  0  0  0
 13  5  1  0  0  0  0
 11 14  2  0  0  0  0
 31 15  1  0  0  0  0
 24 28  1  0  0  0  0
 17 16  1  0  0  0  0
 18 17  1  0  0  0  0
 19 18  1  0  0  0  0
 20 19  1  0  0  0  0
 21 20  1  0  0  0  0
 22 21  1  0  0  0  0
 23 22  1  0  0  0  0
 24 23  1  0  0  0  0
 30 25  1  6  0  0  0
 29 26  1  0  0  0  0
 29 27  1  0  0  0  0
 29 28  1  0  0  0  0
 30 29  1  0  0  0  0
 31 30  1  0  0  0  0
 15  6  1  0  0  0  0
 16 32  2  0  0  0  0
 32 33  1  0  0  0  0
 33 34  1  0  0  0  0
 34 35  1  0  0  0  0
 35 36  1  0  0  0  0
 36 37  1  0  0  0  0
 37 38  1  0  0  0  0
 38 39  1  0  0  0  0
 39 40  1  0  0  0  0
M  END
>  <cdx:fragmentId>
234

$$$$
