90769.cdx
  Mrv1902 05222410202D          

 33 37  0  0  0  0            999 V2000
    9.7894   -6.0177    0.0000 C   0  0  0  0  0  0  0  0  0  0  0  0
    7.9447   -3.6842    0.0000 C   0  0  2  0  0  0  0  0  0  0  0  0
    7.4648   -4.3553    0.0000 C   0  0  0  0  0  0  0  0  0  0  0  0
    7.8060   -5.1064    0.0000 N   0  0  0  0  0  0  0  0  0  0  0  0
    8.6271   -5.1865    0.0000 C   0  0  2  0  0  0  0  0  0  0  0  0
    9.1070   -4.5155    0.0000 C   0  0  1  0  0  0  0  0  0  0  0  0
    8.7658   -3.7643    0.0000 C   0  0  0  0  0  0  0  0  0  0  0  0
    8.9683   -5.9376    0.0000 C   0  0  2  0  0  0  0  0  0  0  0  0
    8.4883   -6.6087    0.0000 C   0  0  0  0  0  0  0  0  0  0  0  0
    8.8295   -7.3598    0.0000 C   0  0  0  0  0  0  0  0  0  0  0  0
    7.6672   -6.5286    0.0000 C   0  0  0  0  0  0  0  0  0  0  0  0
    7.1873   -7.1997    0.0000 C   0  0  0  0  0  0  0  0  0  0  0  0
    7.5285   -7.9508    0.0000 C   0  0  0  0  0  0  0  0  0  0  0  0
    8.3496   -8.0309    0.0000 C   0  0  0  0  0  0  0  0  0  0  0  0
    6.3675   -7.2920    0.0000 C   0  0  0  0  0  0  0  0  0  0  0  0
    6.2020   -8.1003    0.0000 C   0  0  1  0  0  0  0  0  0  0  0  0
    6.9196   -8.5074    0.0000 C   0  0  1  0  0  0  0  0  0  0  0  0
    5.4907   -8.5181    0.0000 C   0  0  2  0  0  0  0  0  0  0  0  0
    5.4969   -9.3431    0.0000 C   0  0  0  0  0  0  0  0  0  0  0  0
    6.2144   -9.7502    0.0000 C   0  0  0  0  0  0  0  0  0  0  0  0
    6.9258   -9.3324    0.0000 C   0  0  0  0  0  0  0  0  0  0  0  0
    4.7731   -8.1110    0.0000 C   0  0  0  0  0  0  0  0  0  0  0  0
    4.0618   -8.5288    0.0000 C   0  0  0  0  0  0  0  0  0  0  0  0
    4.0680   -9.3538    0.0000 C   0  0  1  0  0  0  0  0  0  0  0  0
    4.7855   -9.7609    0.0000 C   0  0  0  0  0  0  0  0  0  0  0  0
    7.3260   -5.7775    0.0000 C   0  0  0  0  0  0  0  0  0  0  0  0
    9.9281   -4.5955    0.0000 O   0  0  0  0  0  0  0  0  0  0  0  0
    7.6035   -2.9331    0.0000 C   0  0  0  0  0  0  0  0  0  0  0  0
    7.5906   -8.9873    0.0000 H   0  0  0  0  0  0  0  0  0  0  0  0
    5.4907   -7.6931    0.0000 C   0  0  0  0  0  0  0  0  0  0  0  0
    3.3566   -9.7716    0.0000 O   0  0  0  0  0  0  0  0  0  0  0  0
    9.4482   -5.2666    0.0000 H   0  0  0  0  0  0  0  0  0  0  0  0
    6.2020   -8.9253    0.0000 H   0  0  0  0  0  0  0  0  0  0  0  0
  8  1  1  1  0  0  0
  5  8  1  0  0  0  0
  2  3  1  0  0  0  0
  3  4  1  0  0  0  0
  4  5  1  0  0  0  0
  5  6  1  0  0  0  0
  6  7  1  0  0  0  0
  8  9  1  0  0  0  0
  9 10  1  0  0  0  0
  7  2  1  0  0  0  0
  9 11  2  0  0  0  0
 11 12  1  0  0  0  0
 12 13  2  0  0  0  0
 13 14  1  0  0  0  0
 14 10  2  0  0  0  0
 12 15  1  0  0  0  0
 15 16  1  0  0  0  0
 16 17  1  0  0  0  0
 17 13  1  0  0  0  0
 16 18  1  0  0  0  0
 18 19  1  0  0  0  0
 19 20  2  0  0  0  0
 20 21  1  0  0  0  0
 21 17  1  0  0  0  0
 18 22  1  0  0  0  0
 22 23  1  0  0  0  0
 23 24  1  0  0  0  0
 24 25  1  0  0  0  0
 25 19  1  0  0  0  0
 11 26  1  0  0  0  0
  6 27  1  1  0  0  0
  2 28  1  1  0  0  0
 17 29  1  1  0  0  0
 18 30  1  1  0  0  0
 24 31  1  1  0  0  0
  5 32  1  1  0  0  0
 16 33  1  6  0  0  0
M  END
>  <cdx:fragmentId>
5

$$$$
