90774.cdx
  Mrv1902 05222410272D          

 56 63  0  0  0  0            999 V2000
   21.9418   -6.6933    0.0000 C   0  0  0  0  0  0  0  0  0  0  0  0
   18.9064   -7.1536    0.0000 C   0  0  0  0  0  0  0  0  0  0  0  0
   19.6159   -9.9773    0.0000 H   0  0  0  0  0  0  0  0  0  0  0  0
   18.2855   -7.8944    0.0000 H   0  0  0  0  0  0  0  0  0  0  0  0
   17.9173   -8.0505    0.0000 C   0  0  0  0  0  0  0  0  0  0  0  0
   17.9295  -10.5254    0.0000 H   0  0  0  0  0  0  0  0  0  0  0  0
   17.2213   -9.2984    0.0000 H   0  0  0  0  0  0  0  0  0  0  0  0
   16.5008  -10.5466    0.0000 H   0  0  0  0  0  0  0  0  0  0  0  0
   15.7925   -9.3196    0.0000 C   0  0  0  0  0  0  0  0  0  0  0  0
   13.6677  -11.4138    0.0000 O   0  0  0  0  0  0  0  0  0  0  0  0
   20.7199   -8.5019    0.0000 C   0  0  0  0  0  0  0  0  0  0  0  0
   21.3801   -8.0071    0.0000 C   0  0  0  0  0  0  0  0  0  0  0  0
   21.2817   -7.1880    0.0000 C   0  0  1  0  0  0  0  0  0  0  0  0
   20.5231   -6.8637    0.0000 C   0  0  0  0  0  0  0  0  0  0  0  0
   19.8629   -7.3585    0.0000 O   0  0  0  0  0  0  0  0  0  0  0  0
   19.9736   -9.0025    0.0000 O   0  0  0  0  0  0  0  0  0  0  0  0
   19.9613   -8.1776    0.0000 C   0  0  1  0  0  0  0  0  0  0  0  0
   19.1730   -7.9343    0.0000 C   0  0  2  0  0  0  0  0  0  0  0  0
   18.7179   -9.9436    0.0000 C   0  0  0  0  0  0  0  0  0  0  0  0
   19.1928   -9.2691    0.0000 C   0  0  1  0  0  0  0  0  0  0  0  0
   18.6980   -8.6089    0.0000 C   0  0  1  0  0  0  0  0  0  0  0  0
   17.9295   -9.7004    0.0000 C   0  0  2  0  0  0  0  0  0  0  0  0
   17.9173   -8.8755    0.0000 C   0  0  1  0  0  0  0  0  0  0  0  0
   17.1968   -8.4736    0.0000 C   0  0  0  0  0  0  0  0  0  0  0  0
   16.4885   -8.8967    0.0000 C   0  0  0  0  0  0  0  0  0  0  0  0
   16.5253  -11.3714    0.0000 C   0  0  0  0  0  0  0  0  0  0  0  0
   17.2335  -10.9483    0.0000 C   0  0  0  0  0  0  0  0  0  0  0  0
   17.2213  -10.1234    0.0000 C   0  0  2  0  0  0  0  0  0  0  0  0
   16.5008   -9.7216    0.0000 C   0  0  1  0  0  0  0  0  0  0  0  0
   14.3637  -10.1659    0.0000 C   0  0  0  0  0  0  0  0  0  0  0  0
   14.3759  -10.9908    0.0000 C   0  0  1  0  0  0  0  0  0  0  0  0
   15.0965  -11.3926    0.0000 C   0  0  0  0  0  0  0  0  0  0  0  0
   15.8047  -10.9696    0.0000 C   0  0  0  0  0  0  0  0  0  0  0  0
   15.7925  -10.1446    0.0000 C   0  0  1  0  0  0  0  0  0  0  0  0
   15.0720   -9.7428    0.0000 C   0  0  0  0  0  0  0  0  0  0  0  0
   12.9472  -11.0120    0.0000 C   0  0  2  0  0  0  0  0  0  0  0  0
   12.9287  -10.1872    0.0000 O   0  0  0  0  0  0  0  0  0  0  0  0
   12.2052   -9.7908    0.0000 C   0  0  1  0  0  0  0  0  0  0  0  0
   11.5001  -10.2191    0.0000 C   0  0  2  0  0  0  0  0  0  0  0  0
   11.5001  -11.0439    0.0000 C   0  0  1  0  0  0  0  0  0  0  0  0
   12.2052  -11.4404    0.0000 C   0  0  1  0  0  0  0  0  0  0  0  0
   12.1867   -8.9660    0.0000 C   0  0  0  0  0  0  0  0  0  0  0  0
   10.7880  -11.4605    0.0000 O   0  0  0  0  0  0  0  0  0  0  0  0
   12.2099  -12.2653    0.0000 O   0  0  0  0  0  0  0  0  0  0  0  0
   10.7811   -9.8147    0.0000 O   0  0  0  0  0  0  0  0  0  0  0  0
   11.4723   -8.5535    0.0000 O   0  0  0  0  0  0  0  0  0  0  0  0
   11.4978  -12.6819    0.0000 C   0  0  2  0  0  0  0  0  0  0  0  0
   10.7787  -12.2776    0.0000 O   0  0  0  0  0  0  0  0  0  0  0  0
   10.0689  -12.6819    0.0000 C   0  0  2  0  0  0  0  0  0  0  0  0
   10.0689  -13.5069    0.0000 C   0  0  1  0  0  0  0  0  0  0  0  0
   10.7787  -13.9112    0.0000 C   0  0  2  0  0  0  0  0  0  0  0  0
   11.4978  -13.5069    0.0000 C   0  0  1  0  0  0  0  0  0  0  0  0
    9.3557  -13.9214    0.0000 O   0  0  0  0  0  0  0  0  0  0  0  0
   10.7763  -14.7362    0.0000 O   0  0  0  0  0  0  0  0  0  0  0  0
   12.2099  -13.9234    0.0000 O   0  0  0  0  0  0  0  0  0  0  0  0
    9.3557  -12.2674    0.0000 C   0  0  0  0  0  0  0  0  0  0  0  0
 13  1  1  1  0  0  0
 18  2  1  6  0  0  0
 20  3  1  6  0  0  0
 21  4  1  6  0  0  0
 23  5  1  1  0  0  0
 22  6  1  6  0  0  0
 28  7  1  1  0  0  0
 29  8  1  6  0  0  0
 34  9  1  1  0  0  0
 31 10  1  1  0  0  0
 11 17  1  0  0  0  0
 12 11  1  0  0  0  0
 13 12  1  0  0  0  0
 14 13  1  0  0  0  0
 15 14  1  0  0  0  0
 17 15  1  0  0  0  0
 16 20  1  0  0  0  0
 17 16  1  6  0  0  0
 18 17  1  0  0  0  0
 21 18  1  0  0  0  0
 19 22  1  0  0  0  0
 20 19  1  0  0  0  0
 21 20  1  0  0  0  0
 23 21  1  0  0  0  0
 22 28  1  0  0  0  0
 23 22  1  0  0  0  0
 24 23  1  0  0  0  0
 25 24  1  0  0  0  0
 29 25  1  0  0  0  0
 26 33  2  0  0  0  0
 27 26  1  0  0  0  0
 28 27  1  0  0  0  0
 29 28  1  0  0  0  0
 34 29  1  0  0  0  0
 30 35  1  0  0  0  0
 31 30  1  0  0  0  0
 32 31  1  0  0  0  0
 33 32  1  0  0  0  0
 34 33  1  0  0  0  0
 35 34  1  0  0  0  0
 36 10  1  1  0  0  0
 36 37  1  0  0  0  0
 37 38  1  0  0  0  0
 38 39  1  0  0  0  0
 39 40  1  0  0  0  0
 40 41  1  0  0  0  0
 41 36  1  0  0  0  0
 38 42  1  1  0  0  0
 40 43  1  1  0  0  0
 41 44  1  6  0  0  0
 39 45  1  6  0  0  0
 42 46  1  0  0  0  0
 47 44  1  1  0  0  0
 47 48  1  0  0  0  0
 48 49  1  0  0  0  0
 49 50  1  0  0  0  0
 50 51  1  0  0  0  0
 51 52  1  0  0  0  0
 52 47  1  0  0  0  0
 50 53  1  1  0  0  0
 51 54  1  6  0  0  0
 52 55  1  6  0  0  0
 49 56  1  6  0  0  0
M  END
>  <cdx:fragmentId>
767

$$$$
