90777.cdx
  Mrv1902 05222410282D          

 45 49  0  0  0  0            999 V2000
    1.7306   -8.4964    0.0000 O   0  0  0  0  0  0  0  0  0  0  0  0
    2.4450   -8.9089    0.0000 C   0  0  2  0  0  0  0  0  0  0  0  0
    3.1595   -8.4964    0.0000 C   0  0  1  0  0  0  0  0  0  0  0  0
    3.1595   -7.6714    0.0000 C   0  0  0  0  0  0  0  0  0  0  0  0
    2.4450   -7.2589    0.0000 O   0  0  0  0  0  0  0  0  0  0  0  0
    2.4450   -9.7339    0.0000 C   0  0  1  0  0  0  0  0  0  0  0  0
    3.1595  -10.1464    0.0000 C   0  0  2  0  0  0  0  0  0  0  0  0
    3.8740   -9.7339    0.0000 C   0  0  1  0  0  0  0  0  0  0  0  0
    3.8740   -8.9089    0.0000 O   0  0  0  0  0  0  0  0  0  0  0  0
    4.5884  -10.1464    0.0000 O   0  0  0  0  0  0  0  0  0  0  0  0
    5.3029   -9.7339    0.0000 C   0  0  1  0  0  0  0  0  0  0  0  0
    5.3029   -8.9089    0.0000 C   0  0  0  0  0  0  0  0  0  0  0  0
    6.0174  -10.1464    0.0000 C   0  0  0  0  0  0  0  0  0  0  0  0
    6.7319   -9.7339    0.0000 C   0  0  1  0  0  0  0  0  0  0  0  0
    6.7319   -8.9089    0.0000 C   0  0  2  0  0  0  0  0  0  0  0  0
    6.0174   -8.4964    0.0000 C   0  0  0  0  0  0  0  0  0  0  0  0
    7.4463  -10.1464    0.0000 C   0  0  0  0  0  0  0  0  0  0  0  0
    8.1608   -9.7339    0.0000 C   0  0  0  0  0  0  0  0  0  0  0  0
    8.1608   -8.9089    0.0000 C   0  0  0  0  0  0  0  0  0  0  0  0
    7.4463   -8.4964    0.0000 C   0  0  2  0  0  0  0  0  0  0  0  0
    8.8753   -8.4964    0.0000 C   0  0  1  0  0  0  0  0  0  0  0  0
    8.8753   -7.6714    0.0000 C   0  0  2  0  0  0  0  0  0  0  0  0
    8.1608   -7.2589    0.0000 C   0  0  0  0  0  0  0  0  0  0  0  0
    7.4463   -7.6714    0.0000 C   0  0  0  0  0  0  0  0  0  0  0  0
    9.6599   -8.7513    0.0000 C   0  0  0  0  0  0  0  0  0  0  0  0
   10.1448   -8.0839    0.0000 C   0  0  0  0  0  0  0  0  0  0  0  0
    9.6599   -7.4165    0.0000 C   0  0  2  0  0  0  0  0  0  0  0  0
    9.9148   -6.6318    0.0000 C   0  0  2  0  0  0  0  0  0  0  0  0
    9.3628   -6.0187    0.0000 C   0  0  0  0  0  0  0  0  0  0  0  0
   10.7218   -6.4603    0.0000 C   0  0  0  0  0  0  0  0  0  0  0  0
   11.1343   -5.7458    0.0000 C   0  0  0  0  0  0  0  0  0  0  0  0
   11.9593   -5.7458    0.0000 C   0  0  2  0  0  0  0  0  0  0  0  0
   12.3718   -5.0314    0.0000 C   0  0  0  0  0  0  0  0  0  0  0  0
   12.3718   -6.4603    0.0000 C   0  0  0  0  0  0  0  0  0  0  0  0
   13.1968   -6.4603    0.0000 C   0  0  0  0  0  0  0  0  0  0  0  0
   11.9593   -4.3169    0.0000 C   0  0  0  0  0  0  0  0  0  0  0  0
   13.1968   -5.0314    0.0000 C   0  0  0  0  0  0  0  0  0  0  0  0
   10.4568   -7.2029    0.0000 H   0  0  0  0  0  0  0  0  0  0  0  0
    8.8753   -9.3214    0.0000 H   0  0  0  0  0  0  0  0  0  0  0  0
    7.4463   -9.3214    0.0000 H   0  0  0  0  0  0  0  0  0  0  0  0
    6.7319  -10.5589    0.0000 H   0  0  0  0  0  0  0  0  0  0  0  0
    3.1595  -10.9714    0.0000 O   0  0  0  0  0  0  0  0  0  0  0  0
    1.7306  -10.1464    0.0000 O   0  0  0  0  0  0  0  0  0  0  0  0
    6.7319   -8.0839    0.0000 C   0  0  0  0  0  0  0  0  0  0  0  0
    8.8753   -6.8464    0.0000 C   0  0  0  0  0  0  0  0  0  0  0  0
  2  1  1  6  0  0  0
  2  3  1  0  0  0  0
  3  4  1  1  0  0  0
  4  5  1  0  0  0  0
  2  6  1  0  0  0  0
  6  7  1  0  0  0  0
  7  8  1  0  0  0  0
  8  9  1  0  0  0  0
  9  3  1  0  0  0  0
  8 10  1  1  0  0  0
 11 10  1  1  0  0  0
 11 12  1  0  0  0  0
 11 13  1  0  0  0  0
 13 14  1  0  0  0  0
 14 15  1  0  0  0  0
 15 16  1  0  0  0  0
 16 12  1  0  0  0  0
 14 17  1  0  0  0  0
 17 18  1  0  0  0  0
 18 19  2  0  0  0  0
 19 20  1  0  0  0  0
 20 15  1  0  0  0  0
 19 21  1  0  0  0  0
 21 22  1  0  0  0  0
 22 23  1  0  0  0  0
 23 24  1  0  0  0  0
 24 20  1  0  0  0  0
 21 25  1  0  0  0  0
 25 26  1  0  0  0  0
 26 27  1  0  0  0  0
 27 22  1  0  0  0  0
 27 28  1  0  0  0  0
 28 29  1  6  0  0  0
 28 30  1  0  0  0  0
 30 31  2  0  0  0  0
 31 32  1  0  0  0  0
 32 33  1  0  0  0  0
 32 34  1  6  0  0  0
 34 35  1  0  0  0  0
 33 36  1  0  0  0  0
 33 37  1  0  0  0  0
 27 38  1  6  0  0  0
 21 39  1  6  0  0  0
 20 40  1  6  0  0  0
 14 41  1  6  0  0  0
  7 42  1  6  0  0  0
  6 43  1  1  0  0  0
 15 44  1  1  0  0  0
 22 45  1  1  0  0  0
M  END
>  <cdx:fragmentId>
5

$$$$
