90773.cdx
  Mrv1902 05222410262D          

 13 13  0  0  0  0            999 V2000
    6.9006   -4.3714    0.0000 C   0  0  0  0  0  0  0  0  0  0  0  0
    6.9006   -5.1964    0.0000 C   0  0  0  0  0  0  0  0  0  0  0  0
    7.6150   -5.6089    0.0000 C   0  0  0  0  0  0  0  0  0  0  0  0
    8.3295   -5.1964    0.0000 C   0  0  0  0  0  0  0  0  0  0  0  0
    8.3295   -4.3714    0.0000 C   0  0  0  0  0  0  0  0  0  0  0  0
    7.6150   -3.9589    0.0000 C   0  0  0  0  0  0  0  0  0  0  0  0
    7.6150   -6.4339    0.0000 C   0  0  0  0  0  0  0  0  0  0  0  0
    6.9006   -6.8464    0.0000 C   0  0  0  0  0  0  0  0  0  0  0  0
    6.1861   -3.9589    0.0000 O   0  0  0  0  0  0  0  0  0  0  0  0
    5.4716   -4.3714    0.0000 C   0  0  0  0  0  0  0  0  0  0  0  0
    7.6150   -3.1339    0.0000 O   0  0  0  0  0  0  0  0  0  0  0  0
    9.0440   -3.9589    0.0000 O   0  0  0  0  0  0  0  0  0  0  0  0
    9.7584   -4.3714    0.0000 C   0  0  0  0  0  0  0  0  0  0  0  0
  1  2  2  0  0  0  0
  2  3  1  0  0  0  0
  3  4  2  0  0  0  0
  4  5  1  0  0  0  0
  5  6  2  0  0  0  0
  6  1  1  0  0  0  0
  3  7  1  0  0  0  0
  7  8  2  0  0  0  0
  1  9  1  0  0  0  0
  9 10  1  0  0  0  0
  6 11  1  0  0  0  0
  5 12  1  0  0  0  0
 12 13  1  0  0  0  0
M  END
>  <cdx:fragmentId>
5

$$$$
