90781.cdx
  Mrv1902 05222410202D          

 31 33  0  0  0  0            999 V2000
    4.7831   -6.2276    0.0000 C   0  0  0  0  0  0  0  0  0  0  0  0
    4.7831   -7.0526    0.0000 C   0  0  0  0  0  0  0  0  0  0  0  0
    5.4975   -7.4651    0.0000 C   0  0  0  0  0  0  0  0  0  0  0  0
    6.2120   -7.0526    0.0000 C   0  0  0  0  0  0  0  0  0  0  0  0
    6.2120   -6.2276    0.0000 C   0  0  0  0  0  0  0  0  0  0  0  0
    5.4975   -5.8151    0.0000 C   0  0  0  0  0  0  0  0  0  0  0  0
    6.9265   -7.4651    0.0000 O   0  0  0  0  0  0  0  0  0  0  0  0
    7.6409   -7.0526    0.0000 C   0  0  0  0  0  0  0  0  0  0  0  0
    7.6409   -6.2276    0.0000 C   0  0  0  0  0  0  0  0  0  0  0  0
    6.9265   -5.8151    0.0000 C   0  0  0  0  0  0  0  0  0  0  0  0
    8.3554   -7.4651    0.0000 C   0  0  0  0  0  0  0  0  0  0  0  0
    9.0699   -7.0526    0.0000 C   0  0  0  0  0  0  0  0  0  0  0  0
    9.0699   -6.2276    0.0000 C   0  0  0  0  0  0  0  0  0  0  0  0
    8.3554   -5.8151    0.0000 C   0  0  0  0  0  0  0  0  0  0  0  0
    6.9265   -8.2901    0.0000 C   0  0  1  0  0  0  0  0  0  0  0  0
    7.6409   -8.7026    0.0000 C   0  0  1  0  0  0  0  0  0  0  0  0
    6.2120   -8.7026    0.0000 O   0  0  0  0  0  0  0  0  0  0  0  0
    6.2120   -9.5276    0.0000 C   0  0  1  0  0  0  0  0  0  0  0  0
    6.9265   -9.9401    0.0000 C   0  0  2  0  0  0  0  0  0  0  0  0
    7.6409   -9.5276    0.0000 C   0  0  2  0  0  0  0  0  0  0  0  0
    4.0686   -7.4651    0.0000 O   0  0  0  0  0  0  0  0  0  0  0  0
    4.0686   -5.8151    0.0000 O   0  0  0  0  0  0  0  0  0  0  0  0
    3.3541   -6.2276    0.0000 C   0  0  0  0  0  0  0  0  0  0  0  0
    6.9265   -4.9901    0.0000 O   0  0  0  0  0  0  0  0  0  0  0  0
    8.3554   -4.9901    0.0000 O   0  0  0  0  0  0  0  0  0  0  0  0
    9.7844   -7.4651    0.0000 O   0  0  0  0  0  0  0  0  0  0  0  0
    5.4975   -9.9401    0.0000 C   0  0  0  0  0  0  0  0  0  0  0  0
    8.3554   -9.9401    0.0000 O   0  0  0  0  0  0  0  0  0  0  0  0
    8.3554   -8.2901    0.0000 O   0  0  0  0  0  0  0  0  0  0  0  0
    6.9265  -10.7651    0.0000 O   0  0  0  0  0  0  0  0  0  0  0  0
    5.4975  -10.7651    0.0000 O   0  0  0  0  0  0  0  0  0  0  0  0
  1  2  2  0  0  0  0
  2  3  1  0  0  0  0
  3  4  2  0  0  0  0
  4  5  1  0  0  0  0
  5  6  2  0  0  0  0
  6  1  1  0  0  0  0
  7  8  1  0  0  0  0
  8  9  2  0  0  0  0
  9 10  1  0  0  0  0
 10  5  1  0  0  0  0
  8 11  1  0  0  0  0
 11 12  2  0  0  0  0
 12 13  1  0  0  0  0
 13 14  2  0  0  0  0
 14  9  1  0  0  0  0
 15  7  1  1  0  0  0
 15 16  1  0  0  0  0
 15 17  1  0  0  0  0
 17 18  1  0  0  0  0
 18 19  1  0  0  0  0
 19 20  1  0  0  0  0
 20 16  1  0  0  0  0
  2 21  1  0  0  0  0
  1 22  1  0  0  0  0
 22 23  1  0  0  0  0
 10 24  2  0  0  0  0
 14 25  1  0  0  0  0
 12 26  1  0  0  0  0
 18 27  1  1  0  0  0
 20 28  1  1  0  0  0
 16 29  1  6  0  0  0
 19 30  1  6  0  0  0
 27 31  1  0  0  0  0
M  END
>  <cdx:fragmentId>
5

$$$$
