90787.cdx
  Mrv1902 05222410192D          

 20 19  0  0  0  0            999 V2000
   11.0192   -7.5614    0.0000 N   0  0  0  0  0  0  0  0  0  0  0  0
   10.3047   -7.1489    0.0000 C   0  0  0  0  0  0  0  0  0  0  0  0
    9.5903   -7.5614    0.0000 N   0  0  0  0  0  0  0  0  0  0  0  0
    8.8758   -7.1489    0.0000 C   0  0  0  0  0  0  0  0  0  0  0  0
    8.1613   -7.5614    0.0000 C   0  0  0  0  0  0  0  0  0  0  0  0
    7.4469   -7.1489    0.0000 C   0  0  0  0  0  0  0  0  0  0  0  0
    6.7324   -7.5614    0.0000 C   0  0  0  0  0  0  0  0  0  0  0  0
    6.0179   -7.1489    0.0000 N   0  0  0  0  0  0  0  0  0  0  0  0
    5.3034   -7.5614    0.0000 C   0  0  0  0  0  0  0  0  0  0  0  0
    4.5890   -7.1489    0.0000 C   0  0  0  0  0  0  0  0  0  0  0  0
    3.8745   -7.5614    0.0000 C   0  0  0  0  0  0  0  0  0  0  0  0
    3.1600   -7.1489    0.0000 O   0  0  0  0  0  0  0  0  0  0  0  0
    3.8745   -8.3864    0.0000 O   0  0  0  0  0  0  0  0  0  0  0  0
    5.3034   -8.3864    0.0000 O   0  0  0  0  0  0  0  0  0  0  0  0
   10.3047   -6.3239    0.0000 N   0  0  0  0  0  0  0  0  0  0  0  0
    9.5903   -8.3864    0.0000 C   0  0  0  0  0  0  0  0  0  0  0  0
    8.8758   -8.7989    0.0000 C   0  0  0  0  0  0  0  0  0  0  0  0
    8.8758   -9.6239    0.0000 C   0  0  0  0  0  0  0  0  0  0  0  0
    8.1613  -10.0364    0.0000 C   0  0  0  0  0  0  0  0  0  0  0  0
    9.5903  -10.0364    0.0000 C   0  0  0  0  0  0  0  0  0  0  0  0
  2  1  1  0  0  0  0
  3  2  1  0  0  0  0
  4  3  1  0  0  0  0
  5  4  1  0  0  0  0
  6  5  1  0  0  0  0
  7  6  1  0  0  0  0
  8  7  1  0  0  0  0
  9  8  1  0  0  0  0
 10  9  1  0  0  0  0
 11 10  1  0  0  0  0
 12 11  1  0  0  0  0
 11 13  2  0  0  0  0
  9 14  2  0  0  0  0
  2 15  2  0  0  0  0
  3 16  1  0  0  0  0
 16 17  1  0  0  0  0
 17 18  2  0  0  0  0
 18 19  1  0  0  0  0
 18 20  1  0  0  0  0
M  END
>  <cdx:fragmentId>
3

$$$$
