90785.cdx
  Mrv1902 05222410182D          

 16 17  0  0  0  0            999 V2000
    1.9698   -2.3472    0.0000 C   0  0  0  0  0  0  0  0  0  0  0  0
    1.6684   -3.1152    0.0000 C   0  0  0  0  0  0  0  0  0  0  0  0
    0.8526   -3.2382    0.0000 C   0  0  0  0  0  0  0  0  0  0  0  0
    1.1540   -2.4702    0.0000 O   0  0  0  0  0  0  0  0  0  0  0  0
    4.4167   -5.1710    0.0000 C   0  0  0  0  0  0  0  0  0  0  0  0
    4.9016   -4.5035    0.0000 C   0  0  0  0  0  0  0  0  0  0  0  0
    4.4167   -3.8361    0.0000 C   0  0  0  0  0  0  0  0  0  0  0  0
    3.6321   -4.0910    0.0000 C   0  0  0  0  0  0  0  0  0  0  0  0
    2.9871   -3.5766    0.0000 C   0  0  0  0  0  0  0  0  0  0  0  0
    2.1827   -3.7602    0.0000 C   0  0  0  0  0  0  0  0  0  0  0  0
    1.8248   -4.5035    0.0000 C   0  0  0  0  0  0  0  0  0  0  0  0
    2.1827   -5.2468    0.0000 C   0  0  0  0  0  0  0  0  0  0  0  0
    2.9871   -5.4304    0.0000 C   0  0  0  0  0  0  0  0  0  0  0  0
    3.6321   -4.9160    0.0000 C   0  0  0  0  0  0  0  0  0  0  0  0
    3.1706   -6.2347    0.0000 C   0  0  0  0  0  0  0  0  0  0  0  0
    4.6716   -3.0515    0.0000 C   0  0  0  0  0  0  0  0  0  0  0  0
  1  2  1  0  0  0  0
  2  3  1  0  0  0  0
  2  4  1  0  0  0  0
  5  6  1  0  0  0  0
  6  7  1  0  0  0  0
  7  8  1  0  0  0  0
  8  9  1  0  0  0  0
  9 10  1  0  0  0  0
 10 11  1  0  0  0  0
 11 12  1  0  0  0  0
 12 13  1  0  0  0  0
 13 14  2  0  0  0  0
  5 14  1  0  0  0  0
  8 14  1  0  0  0  0
 13 15  1  0  0  0  0
  7 16  1  0  0  0  0
  2 10  1  0  0  0  0
M  END
>  <cdx:groupId>
51

>  <cdx:fragmentId>
13

$$$$
