90788.cdx
  Mrv1902 05222410282D          

 34 37  0  0  0  0            999 V2000
    1.8268   -9.5276    0.0000 O   0  0  0  0  0  0  0  0  0  0  0  0
    2.5413  -10.7651    0.0000 H   0  0  0  0  0  0  0  0  0  0  0  0
    3.2557  -10.3526    0.0000 C   0  0  0  0  0  0  0  0  0  0  0  0
    3.2557   -9.5276    0.0000 C   0  0  0  0  0  0  0  0  0  0  0  0
    2.5413   -9.1151    0.0000 C   0  0  0  0  0  0  0  0  0  0  0  0
    3.9702  -10.7651    0.0000 C   0  0  0  0  0  0  0  0  0  0  0  0
    4.6847  -10.3526    0.0000 C   0  0  1  0  0  0  0  0  0  0  0  0
    4.6847   -9.5276    0.0000 C   0  0  2  0  0  0  0  0  0  0  0  0
    3.9702   -9.1151    0.0000 C   0  0  0  0  0  0  0  0  0  0  0  0
    5.3992  -10.7651    0.0000 C   0  0  0  0  0  0  0  0  0  0  0  0
    6.1136  -10.3526    0.0000 C   0  0  0  0  0  0  0  0  0  0  0  0
    6.1136   -9.5276    0.0000 C   0  0  2  0  0  0  0  0  0  0  0  0
    5.3992   -9.1151    0.0000 C   0  0  1  0  0  0  0  0  0  0  0  0
    6.8281   -9.1151    0.0000 C   0  0  1  0  0  0  0  0  0  0  0  0
    6.8281   -8.2901    0.0000 C   0  0  2  0  0  0  0  0  0  0  0  0
    6.1136   -7.8776    0.0000 C   0  0  0  0  0  0  0  0  0  0  0  0
    5.3992   -8.2901    0.0000 C   0  0  0  0  0  0  0  0  0  0  0  0
    7.6127   -9.3701    0.0000 C   0  0  0  0  0  0  0  0  0  0  0  0
    8.0976   -8.7026    0.0000 C   0  0  0  0  0  0  0  0  0  0  0  0
    7.6127   -8.0352    0.0000 C   0  0  2  0  0  0  0  0  0  0  0  0
    2.5413   -8.2901    0.0000 O   0  0  0  0  0  0  0  0  0  0  0  0
    3.9702  -11.5901    0.0000 C   0  0  0  0  0  0  0  0  0  0  0  0
    7.8677   -7.2506    0.0000 C   0  0  2  0  0  0  0  0  0  0  0  0
    7.3156   -6.6375    0.0000 C   0  0  0  0  0  0  0  0  0  0  0  0
    8.6746   -7.0791    0.0000 C   0  0  0  0  0  0  0  0  0  0  0  0
    9.2267   -7.6922    0.0000 C   0  0  0  0  0  0  0  0  0  0  0  0
   10.0336   -7.5206    0.0000 C   0  0  0  0  0  0  0  0  0  0  0  0
   10.5857   -8.1337    0.0000 C   0  0  0  0  0  0  0  0  0  0  0  0
   11.3926   -7.9622    0.0000 C   0  0  0  0  0  0  0  0  0  0  0  0
   10.3307   -8.9183    0.0000 C   0  0  0  0  0  0  0  0  0  0  0  0
    4.6847   -8.7026    0.0000 C   0  0  0  0  0  0  0  0  0  0  0  0
    6.1136   -8.7026    0.0000 H   0  0  0  0  0  0  0  0  0  0  0  0
    6.9143   -7.4697    0.0000 C   0  0  0  0  0  0  0  0  0  0  0  0
    6.9143   -9.9356    0.0000 C   0  0  0  0  0  0  0  0  0  0  0  0
  2  3  1  0  0  0  0
  4  5  1  0  0  0  0
  5  1  1  0  0  0  0
  3  6  1  0  0  0  0
  7  6  1  1  0  0  0
  7  8  1  0  0  0  0
  8  9  1  6  0  0  0
  9  4  1  0  0  0  0
  7 10  1  0  0  0  0
 10 11  1  0  0  0  0
 11 12  1  0  0  0  0
 12 13  1  0  0  0  0
 13  8  1  0  0  0  0
 12 14  1  0  0  0  0
 14 15  1  0  0  0  0
 15 16  1  0  0  0  0
 16 17  1  0  0  0  0
 17 13  1  0  0  0  0
 14 18  1  0  0  0  0
 18 19  1  0  0  0  0
 19 20  1  0  0  0  0
 20 15  1  0  0  0  0
  5 21  2  0  0  0  0
  6 22  2  0  0  0  0
 20 23  1  1  0  0  0
 23 24  1  6  0  0  0
 23 25  1  0  0  0  0
 25 26  1  0  0  0  0
 26 27  1  0  0  0  0
 27 28  2  0  0  0  0
 28 29  1  0  0  0  0
 28 30  1  0  0  0  0
  8 31  1  1  0  0  0
 13 31  1  1  0  0  0
 12 32  1  1  0  0  0
 15 33  1  1  0  0  0
 14 34  1  6  0  0  0
M  END
>  <cdx:fragmentId>
5

$$$$
