7859.cdx
  Mrv1902 05222410212D          

 17 18  0  0  0  0            999 V2000
    4.1209   -7.8655    0.0000 C   0  0  0  0  0  0  0  0  0  0  0  0
    3.7084   -8.5800    0.0000 C   0  0  0  0  0  0  0  0  0  0  0  0
    4.1209   -9.2945    0.0000 C   0  0  0  0  0  0  0  0  0  0  0  0
    4.9459   -9.2945    0.0000 C   0  0  0  0  0  0  0  0  0  0  0  0
    5.3584   -8.5800    0.0000 C   0  0  1  0  0  0  0  0  0  0  0  0
    4.9459   -7.8655    0.0000 C   0  0  0  0  0  0  0  0  0  0  0  0
    5.8433   -9.2474    0.0000 C   0  0  0  0  0  0  0  0  0  0  0  0
    6.6279   -8.9925    0.0000 C   0  0  1  0  0  0  0  0  0  0  0  0
    6.6279   -8.1675    0.0000 C   0  0  0  0  0  0  0  0  0  0  0  0
    5.8433   -7.9126    0.0000 C   0  0  0  0  0  0  0  0  0  0  0  0
    2.8834   -8.5800    0.0000 O   0  0  0  0  0  0  0  0  0  0  0  0
    5.3584   -7.1511    0.0000 C   0  0  0  0  0  0  0  0  0  0  0  0
    6.1834   -7.1511    0.0000 O   0  0  0  0  0  0  0  0  0  0  0  0
    5.3584  -10.0089    0.0000 C   0  0  0  0  0  0  0  0  0  0  0  0
    7.3424   -9.4050    0.0000 C   0  0  0  0  0  0  0  0  0  0  0  0
    8.0569   -8.9925    0.0000 C   0  0  0  0  0  0  0  0  0  0  0  0
    7.3424  -10.2300    0.0000 C   0  0  0  0  0  0  0  0  0  0  0  0
  1  2  1  0  0  0  0
  2  3  1  0  0  0  0
  3  4  2  0  0  0  0
  4  5  1  0  0  0  0
  5  6  1  0  0  0  0
  6  1  2  0  0  0  0
  5  7  1  1  0  0  0
  7  8  1  0  0  0  0
  8  9  1  0  0  0  0
  9 10  1  0  0  0  0
  5 10  1  6  0  0  0
  2 11  2  0  0  0  0
  6 12  1  0  0  0  0
 12 13  1  0  0  0  0
  4 14  1  0  0  0  0
  8 15  1  1  0  0  0
 15 16  2  0  0  0  0
 15 17  1  0  0  0  0
M  END
>  <cdx:fragmentId>
5

$$$$
