90789.cdx
  Mrv1902 05222410282D          

 23 24  0  0  0  0            999 V2000
    4.9068   -8.5926    0.0000 C   0  0  2  0  0  0  0  0  0  0  0  0
    4.9068   -9.4176    0.0000 C   0  0  2  0  0  0  0  0  0  0  0  0
    5.6213   -9.8301    0.0000 C   0  0  1  0  0  0  0  0  0  0  0  0
    6.3357   -9.4176    0.0000 C   0  0  2  0  0  0  0  0  0  0  0  0
    6.3357   -8.5926    0.0000 C   0  0  2  0  0  0  0  0  0  0  0  0
    5.6213   -8.1801    0.0000 O   0  0  0  0  0  0  0  0  0  0  0  0
    7.0502   -9.8301    0.0000 O   0  0  0  0  0  0  0  0  0  0  0  0
    7.7647   -9.4176    0.0000 C   0  0  2  0  0  0  0  0  0  0  0  0
    7.7647   -8.5926    0.0000 O   0  0  0  0  0  0  0  0  0  0  0  0
    7.0502   -8.1801    0.0000 O   0  0  0  0  0  0  0  0  0  0  0  0
    8.4792   -9.8301    0.0000 C   0  0  1  0  0  0  0  0  0  0  0  0
    9.1936   -9.4176    0.0000 C   0  0  2  0  0  0  0  0  0  0  0  0
    9.1936   -8.5926    0.0000 C   0  0  1  0  0  0  0  0  0  0  0  0
    8.4792   -8.1801    0.0000 C   0  0  1  0  0  0  0  0  0  0  0  0
    9.9081   -8.1801    0.0000 O   0  0  0  0  0  0  0  0  0  0  0  0
    9.1936   -6.9426    0.0000 O   0  0  0  0  0  0  0  0  0  0  0  0
    8.4792   -7.3551    0.0000 C   0  0  0  0  0  0  0  0  0  0  0  0
    4.1923   -7.3551    0.0000 O   0  0  0  0  0  0  0  0  0  0  0  0
    4.1923   -8.1801    0.0000 C   0  0  0  0  0  0  0  0  0  0  0  0
    4.1923   -9.8301    0.0000 O   0  0  0  0  0  0  0  0  0  0  0  0
    9.9081   -9.8301    0.0000 O   0  0  0  0  0  0  0  0  0  0  0  0
    5.6213  -10.6551    0.0000 O   0  0  0  0  0  0  0  0  0  0  0  0
    8.4792  -10.6551    0.0000 O   0  0  0  0  0  0  0  0  0  0  0  0
  1  2  1  0  0  0  0
  2  3  1  0  0  0  0
  3  4  1  0  0  0  0
  4  5  1  0  0  0  0
  5  6  1  0  0  0  0
  6  1  1  0  0  0  0
  4  7  1  6  0  0  0
  8  7  1  6  0  0  0
  8  9  1  0  0  0  0
  5 10  1  6  0  0  0
  8 11  1  0  0  0  0
 11 12  1  0  0  0  0
 12 13  1  0  0  0  0
 13 14  1  0  0  0  0
 14  9  1  0  0  0  0
 13 15  1  1  0  0  0
 16 17  1  0  0  0  0
 14 17  1  6  0  0  0
 18 19  1  0  0  0  0
  1 19  1  1  0  0  0
  2 20  1  6  0  0  0
 12 21  1  6  0  0  0
  3 22  1  1  0  0  0
 11 23  1  1  0  0  0
M  END
>  <cdx:fragmentId>
5

$$$$
