907826.cdx
  Mrv1902 05222410262D          

 77 86  0  0  0  0            999 V2000
    8.3083   -9.3775    0.0000 C   0  0  0  0  0  0  0  0  0  0  0  0
    8.3083  -10.2025    0.0000 C   0  0  1  0  0  0  0  0  0  0  0  0
    9.0227  -10.6150    0.0000 C   0  0  1  0  0  0  0  0  0  0  0  0
    9.7372  -10.2025    0.0000 C   0  0  1  0  0  0  0  0  0  0  0  0
    9.7372   -9.3775    0.0000 C   0  0  2  0  0  0  0  0  0  0  0  0
    9.0227   -8.9650    0.0000 C   0  0  0  0  0  0  0  0  0  0  0  0
   10.4517  -10.6150    0.0000 C   0  0  0  0  0  0  0  0  0  0  0  0
   11.1662  -10.2025    0.0000 C   0  0  0  0  0  0  0  0  0  0  0  0
   11.1662   -9.3775    0.0000 C   0  0  2  0  0  0  0  0  0  0  0  0
   10.4517   -8.9650    0.0000 C   0  0  2  0  0  0  0  0  0  0  0  0
   11.8806   -8.9650    0.0000 C   0  0  1  0  0  0  0  0  0  0  0  0
   11.8806   -8.1400    0.0000 C   0  0  2  0  0  0  0  0  0  0  0  0
   11.1662   -7.7275    0.0000 C   0  0  0  0  0  0  0  0  0  0  0  0
   10.4517   -8.1400    0.0000 C   0  0  0  0  0  0  0  0  0  0  0  0
   12.5951   -9.3775    0.0000 C   0  0  0  0  0  0  0  0  0  0  0  0
   13.3096   -8.9650    0.0000 C   0  0  2  0  0  0  0  0  0  0  0  0
   13.3096   -8.1400    0.0000 C   0  0  2  0  0  0  0  0  0  0  0  0
   12.5951   -7.7275    0.0000 C   0  0  1  0  0  0  0  0  0  0  0  0
   14.0240   -7.7275    0.0000 C   0  0  0  0  0  0  0  0  0  0  0  0
   14.0240   -6.9025    0.0000 C   0  0  0  0  0  0  0  0  0  0  0  0
   13.3096   -6.4900    0.0000 C   0  0  1  0  0  0  0  0  0  0  0  0
   12.5951   -6.9025    0.0000 C   0  0  0  0  0  0  0  0  0  0  0  0
    7.5938  -10.6150    0.0000 O   0  0  0  0  0  0  0  0  0  0  0  0
    8.6102  -11.3295    0.0000 C   0  0  0  0  0  0  0  0  0  0  0  0
    9.7372   -8.5525    0.0000 C   0  0  0  0  0  0  0  0  0  0  0  0
   11.1662   -8.5525    0.0000 C   0  0  0  0  0  0  0  0  0  0  0  0
   11.8806   -7.3150    0.0000 O   0  0  0  0  0  0  0  0  0  0  0  0
   12.5951   -8.5525    0.0000 H   0  0  0  0  0  0  0  0  0  0  0  0
   13.3096   -7.3150    0.0000 C   0  0  0  0  0  0  0  0  0  0  0  0
   13.7221   -5.7755    0.0000 C   0  0  0  0  0  0  0  0  0  0  0  0
    9.4352  -11.3295    0.0000 C   0  0  0  0  0  0  0  0  0  0  0  0
    9.7372  -11.0275    0.0000 H   0  0  0  0  0  0  0  0  0  0  0  0
   10.4517   -9.7900    0.0000 H   0  0  0  0  0  0  0  0  0  0  0  0
   11.8806   -9.7900    0.0000 C   0  0  0  0  0  0  0  0  0  0  0  0
   14.0240   -9.3775    0.0000 O   0  0  0  0  0  0  0  0  0  0  0  0
   12.8971   -5.7755    0.0000 C   0  0  0  0  0  0  0  0  0  0  0  0
    6.1601   -8.9711    0.0000 C   0  0  0  0  0  0  0  0  0  0  0  0
    5.4465   -9.3852    0.0000 C   0  0  1  0  0  0  0  0  0  0  0  0
    5.4484  -10.2102    0.0000 C   0  0  1  0  0  0  0  0  0  0  0  0
    6.1638  -10.6211    0.0000 C   0  0  2  0  0  0  0  0  0  0  0  0
    6.8773  -10.2069    0.0000 C   0  0  1  0  0  0  0  0  0  0  0  0
    6.8755   -9.3820    0.0000 O   0  0  0  0  0  0  0  0  0  0  0  0
    6.1657  -11.4461    0.0000 O   0  0  0  0  0  0  0  0  0  0  0  0
    4.7311   -8.9743    0.0000 O   0  0  0  0  0  0  0  0  0  0  0  0
    4.7349  -10.6243    0.0000 O   0  0  0  0  0  0  0  0  0  0  0  0
    4.0256  -11.8723    0.0000 C   0  0  2  0  0  0  0  0  0  0  0  0
    4.0272  -12.6973    0.0000 C   0  0  2  0  0  0  0  0  0  0  0  0
    4.7425  -13.1083    0.0000 C   0  0  1  0  0  0  0  0  0  0  0  0
    5.4561  -12.6944    0.0000 C   0  0  2  0  0  0  0  0  0  0  0  0
    5.4545  -11.8694    0.0000 C   0  0  1  0  0  0  0  0  0  0  0  0
    4.7392  -11.4583    0.0000 O   0  0  0  0  0  0  0  0  0  0  0  0
    3.3103  -11.4612    0.0000 C   0  0  0  0  0  0  0  0  0  0  0  0
    4.7441  -13.9333    0.0000 O   0  0  0  0  0  0  0  0  0  0  0  0
    3.3135  -13.1112    0.0000 O   0  0  0  0  0  0  0  0  0  0  0  0
    6.1714  -13.1055    0.0000 O   0  0  0  0  0  0  0  0  0  0  0  0
    2.5966  -11.8751    0.0000 O   0  0  0  0  0  0  0  0  0  0  0  0
    5.4378   -6.9162    0.0000 C   0  0  2  0  0  0  0  0  0  0  0  0
    4.7250   -6.5007    0.0000 C   0  0  2  0  0  0  0  0  0  0  0  0
    4.0088   -6.9103    0.0000 C   0  0  1  0  0  0  0  0  0  0  0  0
    4.0054   -7.7353    0.0000 C   0  0  2  0  0  0  0  0  0  0  0  0
    4.7181   -8.1507    0.0000 C   0  0  1  0  0  0  0  0  0  0  0  0
    5.4343   -7.7412    0.0000 O   0  0  0  0  0  0  0  0  0  0  0  0
    6.1539   -6.5067    0.0000 C   0  0  0  0  0  0  0  0  0  0  0  0
    3.2961   -6.4948    0.0000 O   0  0  0  0  0  0  0  0  0  0  0  0
    4.7285   -5.6758    0.0000 O   0  0  0  0  0  0  0  0  0  0  0  0
    3.2892   -8.1448    0.0000 O   0  0  0  0  0  0  0  0  0  0  0  0
    6.1574   -5.6817    0.0000 O   0  0  0  0  0  0  0  0  0  0  0  0
    1.8472   -6.4981    0.0000 C   0  0  0  0  0  0  0  0  0  0  0  0
    1.1337   -6.9122    0.0000 C   0  0  2  0  0  0  0  0  0  0  0  0
    1.1356   -7.7372    0.0000 C   0  0  1  0  0  0  0  0  0  0  0  0
    1.8510   -8.1481    0.0000 C   0  0  2  0  0  0  0  0  0  0  0  0
    2.5645   -7.7339    0.0000 C   0  0  1  0  0  0  0  0  0  0  0  0
    2.5626   -6.9089    0.0000 O   0  0  0  0  0  0  0  0  0  0  0  0
    0.4183   -6.5013    0.0000 O   0  0  0  0  0  0  0  0  0  0  0  0
    0.4220   -8.1513    0.0000 O   0  0  0  0  0  0  0  0  0  0  0  0
    1.8528   -8.9731    0.0000 O   0  0  0  0  0  0  0  0  0  0  0  0
   13.3096   -5.0611    0.0000 O   0  0  0  0  0  0  0  0  0  0  0  0
  1  2  1  0  0  0  0
  2  3  1  0  0  0  0
  3  4  1  0  0  0  0
  4  5  1  0  0  0  0
  5  6  1  0  0  0  0
  6  1  1  0  0  0  0
  4  7  1  0  0  0  0
  7  8  1  0  0  0  0
  8  9  1  0  0  0  0
  9 10  1  0  0  0  0
 10  5  1  0  0  0  0
  9 11  1  0  0  0  0
 11 12  1  0  0  0  0
 12 13  1  0  0  0  0
 13 14  1  0  0  0  0
 14 10  1  0  0  0  0
 11 15  1  0  0  0  0
 15 16  1  0  0  0  0
 16 17  1  0  0  0  0
 17 18  1  0  0  0  0
 18 12  1  0  0  0  0
 17 19  1  0  0  0  0
 19 20  1  0  0  0  0
 20 21  1  0  0  0  0
 21 22  1  0  0  0  0
 22 18  1  0  0  0  0
  2 23  1  1  0  0  0
  3 24  1  1  0  0  0
  5 25  1  1  0  0  0
  9 26  1  1  0  0  0
 12 27  1  1  0  0  0
 18 28  1  1  0  0  0
 17 29  1  1  0  0  0
 21 30  1  1  0  0  0
  3 31  1  6  0  0  0
  4 32  1  6  0  0  0
 10 33  1  6  0  0  0
 11 34  1  6  0  0  0
 16 35  1  6  0  0  0
 21 36  1  6  0  0  0
 29 27  1  0  0  0  0
 37 38  1  0  0  0  0
 38 39  1  0  0  0  0
 39 40  1  0  0  0  0
 40 41  1  0  0  0  0
 41 42  1  0  0  0  0
 42 37  1  0  0  0  0
 40 43  1  6  0  0  0
 38 44  1  1  0  0  0
 39 45  1  1  0  0  0
 46 47  1  0  0  0  0
 47 48  1  0  0  0  0
 48 49  1  0  0  0  0
 49 50  1  0  0  0  0
 50 51  1  0  0  0  0
 51 46  1  0  0  0  0
 46 52  1  1  0  0  0
 48 53  1  1  0  0  0
 47 54  1  6  0  0  0
 49 55  1  6  0  0  0
 52 56  1  0  0  0  0
 50 43  1  1  0  0  0
 57 58  1  0  0  0  0
 58 59  1  0  0  0  0
 59 60  1  0  0  0  0
 60 61  1  0  0  0  0
 61 62  1  0  0  0  0
 62 57  1  0  0  0  0
 57 63  1  1  0  0  0
 59 64  1  1  0  0  0
 58 65  1  6  0  0  0
 60 66  1  6  0  0  0
 63 67  1  0  0  0  0
 61 44  1  1  0  0  0
 68 69  1  0  0  0  0
 69 70  1  0  0  0  0
 70 71  1  0  0  0  0
 71 72  1  0  0  0  0
 72 73  1  0  0  0  0
 73 68  1  0  0  0  0
 69 74  1  6  0  0  0
 70 75  1  1  0  0  0
 71 76  1  6  0  0  0
 72 66  1  1  0  0  0
 30 77  1  0  0  0  0
 41 23  1  1  0  0  0
M  END
>  <cdx:fragmentId>
301

$$$$
