90780.cdx
  Mrv1902 05222410202D          

 38 40  0  0  0  0            999 V2000
   10.1015   -6.0314    0.0000 O   0  0  0  0  0  0  0  0  0  0  0  0
    8.4489  -11.4470    0.0000 O   0  0  0  0  0  0  0  0  0  0  0  0
    9.8832  -10.6315    0.0000 O   0  0  0  0  0  0  0  0  0  0  0  0
   11.1925   -7.4566    0.0000 O   0  0  0  0  0  0  0  0  0  0  0  0
    8.4089   -5.8036    0.0000 O   0  0  0  0  0  0  0  0  0  0  0  0
    8.4089   -6.6286    0.0000 C   0  0  0  0  0  0  0  0  0  0  0  0
   10.3677   -7.4772    0.0000 C   0  0  1  0  0  0  0  0  0  0  0  0
    9.8662   -6.8221    0.0000 C   0  0  1  0  0  0  0  0  0  0  0  0
    9.0882   -7.0966    0.0000 C   0  0  2  0  0  0  0  0  0  0  0  0
    9.1089   -7.9214    0.0000 O   0  0  0  0  0  0  0  0  0  0  0  0
    9.8997   -8.1566    0.0000 C   0  0  1  0  0  0  0  0  0  0  0  0
    9.8942   -8.9816    0.0000 O   0  0  0  0  0  0  0  0  0  0  0  0
    1.3262   -8.0997    0.0000 C   0  0  0  0  0  0  0  0  0  0  0  0
    1.3207   -8.9247    0.0000 O   0  0  0  0  0  0  0  0  0  0  0  0
    1.3098  -10.5746    0.0000 O   0  0  0  0  0  0  0  0  0  0  0  0
    2.0160  -11.8168    0.0000 C   0  0  0  0  0  0  0  0  0  0  0  0
    2.7332  -11.4091    0.0000 O   0  0  0  0  0  0  0  0  0  0  0  0
    2.7496   -8.9342    0.0000 C   0  0  0  0  0  0  0  0  0  0  0  0
    2.0324   -9.3419    0.0000 C   0  0  0  0  0  0  0  0  0  0  0  0
    2.0270  -10.1669    0.0000 C   0  0  0  0  0  0  0  0  0  0  0  0
    2.7387  -10.5841    0.0000 C   0  0  0  0  0  0  0  0  0  0  0  0
    3.4614   -9.3514    0.0000 C   0  0  0  0  0  0  0  0  0  0  0  0
    3.4559  -10.1764    0.0000 C   0  0  0  0  0  0  0  0  0  0  0  0
    4.1785   -8.9436    0.0000 C   0  0  0  0  0  0  0  0  0  0  0  0
    4.8903   -9.3609    0.0000 C   0  0  0  0  0  0  0  0  0  0  0  0
    5.6129   -8.1281    0.0000 O   0  0  0  0  0  0  0  0  0  0  0  0
    5.6075   -8.9531    0.0000 C   0  0  0  0  0  0  0  0  0  0  0  0
    7.0364   -8.9626    0.0000 C   0  0  0  0  0  0  0  0  0  0  0  0
    6.3192   -9.3704    0.0000 O   0  0  0  0  0  0  0  0  0  0  0  0
    7.0254  -10.6126    0.0000 O   0  0  0  0  0  0  0  0  0  0  0  0
    9.1770   -9.3893    0.0000 C   0  0  1  0  0  0  0  0  0  0  0  0
    8.4653   -8.9721    0.0000 O   0  0  0  0  0  0  0  0  0  0  0  0
    7.7481   -9.3798    0.0000 C   0  0  1  0  0  0  0  0  0  0  0  0
    7.7426  -10.2048    0.0000 C   0  0  2  0  0  0  0  0  0  0  0  0
    8.4543  -10.6220    0.0000 C   0  0  1  0  0  0  0  0  0  0  0  0
    9.1715  -10.2143    0.0000 C   0  0  1  0  0  0  0  0  0  0  0  0
   10.6141   -8.5691    0.0000 C   0  0  0  0  0  0  0  0  0  0  0  0
   11.3286   -8.1566    0.0000 O   0  0  0  0  0  0  0  0  0  0  0  0
  8  1  1  1  0  0  0
 35  2  1  1  0  0  0
 36  3  1  6  0  0  0
  7  4  1  6  0  0  0
  6  5  1  0  0  0  0
  9  6  1  6  0  0  0
  7 11  1  0  0  0  0
  8  7  1  0  0  0  0
  9  8  1  0  0  0  0
 10  9  1  0  0  0  0
 11 10  1  0  0  0  0
 11 12  1  6  0  0  0
 31 12  1  6  0  0  0
 14 13  1  0  0  0  0
 19 14  1  0  0  0  0
 15 20  1  0  0  0  0
 17 16  1  0  0  0  0
 21 17  1  0  0  0  0
 18 22  2  0  0  0  0
 19 18  1  0  0  0  0
 20 19  2  0  0  0  0
 21 20  1  0  0  0  0
 23 21  2  0  0  0  0
 22 24  1  0  0  0  0
 23 22  1  0  0  0  0
 25 24  2  0  0  0  0
 27 25  1  0  0  0  0
 27 26  2  0  0  0  0
 29 27  1  0  0  0  0
 33 28  1  1  0  0  0
 29 28  1  0  0  0  0
 34 30  1  6  0  0  0
 31 36  1  0  0  0  0
 32 31  1  0  0  0  0
 33 32  1  0  0  0  0
 34 33  1  0  0  0  0
 35 34  1  0  0  0  0
 36 35  1  0  0  0  0
 11 37  1  0  0  0  0
 37 38  1  0  0  0  0
M  END
>  <cdx:fragmentId>
5

$$$$
