90797.cdx
  Mrv1902 05222410192D          

 33 36  0  0  0  0            999 V2000
   10.9608  -10.7485    0.0000 O   0  0  0  0  0  0  0  0  0  0  0  0
   11.6658   -9.5056    0.0000 O   0  0  0  0  0  0  0  0  0  0  0  0
   10.9482   -9.0986    0.0000 C   0  0  2  0  0  0  0  0  0  0  0  0
   10.2369   -9.5165    0.0000 C   0  0  1  0  0  0  0  0  0  0  0  0
   10.2432  -10.3415    0.0000 C   0  0  0  0  0  0  0  0  0  0  0  0
   10.9419   -8.2736    0.0000 C   0  0  1  0  0  0  0  0  0  0  0  0
   10.2243   -7.8666    0.0000 C   0  0  2  0  0  0  0  0  0  0  0  0
    9.5130   -8.2845    0.0000 C   0  0  1  0  0  0  0  0  0  0  0  0
    9.5193   -9.1095    0.0000 O   0  0  0  0  0  0  0  0  0  0  0  0
    8.7954   -7.8775    0.0000 O   0  0  0  0  0  0  0  0  0  0  0  0
    8.0841   -8.2954    0.0000 C   0  0  0  0  0  0  0  0  0  0  0  0
    8.0904   -9.1204    0.0000 C   0  0  0  0  0  0  0  0  0  0  0  0
    8.8080   -9.5274    0.0000 O   0  0  0  0  0  0  0  0  0  0  0  0
    7.3665   -7.8884    0.0000 C   0  0  0  0  0  0  0  0  0  0  0  0
    6.6552   -8.3063    0.0000 C   0  0  0  0  0  0  0  0  0  0  0  0
    6.6615   -9.1313    0.0000 C   0  0  0  0  0  0  0  0  0  0  0  0
    7.3791   -9.5384    0.0000 C   0  0  0  0  0  0  0  0  0  0  0  0
    5.9502   -9.5493    0.0000 C   0  0  2  0  0  0  0  0  0  0  0  0
    5.9565  -10.3742    0.0000 C   0  0  1  0  0  0  0  0  0  0  0  0
    6.6741  -10.7813    0.0000 O   0  0  0  0  0  0  0  0  0  0  0  0
    5.2326   -9.1422    0.0000 O   0  0  0  0  0  0  0  0  0  0  0  0
    4.5213   -9.5602    0.0000 C   0  0  0  0  0  0  0  0  0  0  0  0
    4.5276  -10.3852    0.0000 C   0  0  0  0  0  0  0  0  0  0  0  0
    5.2452  -10.7922    0.0000 C   0  0  0  0  0  0  0  0  0  0  0  0
    3.8037   -9.1532    0.0000 C   0  0  0  0  0  0  0  0  0  0  0  0
    3.0924   -9.5711    0.0000 C   0  0  0  0  0  0  0  0  0  0  0  0
    3.0987  -10.3961    0.0000 C   0  0  0  0  0  0  0  0  0  0  0  0
    3.8163  -10.8031    0.0000 C   0  0  0  0  0  0  0  0  0  0  0  0
    5.2515  -11.6172    0.0000 O   0  0  0  0  0  0  0  0  0  0  0  0
    3.8226  -11.6281    0.0000 O   0  0  0  0  0  0  0  0  0  0  0  0
    2.3748   -9.1641    0.0000 O   0  0  0  0  0  0  0  0  0  0  0  0
   11.6532   -7.8557    0.0000 O   0  0  0  0  0  0  0  0  0  0  0  0
   10.2180   -7.0416    0.0000 O   0  0  0  0  0  0  0  0  0  0  0  0
  3  2  1  6  0  0  0
  3  4  1  0  0  0  0
  4  5  1  1  0  0  0
  5  1  1  0  0  0  0
  3  6  1  0  0  0  0
  6  7  1  0  0  0  0
  7  8  1  0  0  0  0
  8  9  1  0  0  0  0
  9  4  1  0  0  0  0
  8 10  1  1  0  0  0
 10 11  1  0  0  0  0
 11 12  2  0  0  0  0
 12 13  1  0  0  0  0
 11 14  1  0  0  0  0
 14 15  2  0  0  0  0
 15 16  1  0  0  0  0
 16 17  2  0  0  0  0
 17 12  1  0  0  0  0
 18 16  1  6  0  0  0
 18 19  1  0  0  0  0
 19 20  1  1  0  0  0
 18 21  1  0  0  0  0
 21 22  1  0  0  0  0
 22 23  1  0  0  0  0
 23 24  1  0  0  0  0
 24 19  1  0  0  0  0
 22 25  2  0  0  0  0
 25 26  1  0  0  0  0
 26 27  2  0  0  0  0
 27 28  1  0  0  0  0
 28 23  2  0  0  0  0
 24 29  2  0  0  0  0
 28 30  1  0  0  0  0
 26 31  1  0  0  0  0
  6 32  1  1  0  0  0
  7 33  1  6  0  0  0
M  END
>  <cdx:fragmentId>
5

$$$$
