90799.cdx
  Mrv1902 05222410262D          

 25 26  0  0  0  0            999 V2000
    1.9093   -9.5276    0.0000 C   0  0  0  0  0  0  0  0  0  0  0  0
    2.6238  -10.7651    0.0000 O   0  0  0  0  0  0  0  0  0  0  0  0
    3.3382  -10.3526    0.0000 C   0  0  0  0  0  0  0  0  0  0  0  0
    3.3382   -9.5276    0.0000 C   0  0  0  0  0  0  0  0  0  0  0  0
    2.6238   -9.1151    0.0000 O   0  0  0  0  0  0  0  0  0  0  0  0
    4.0527  -10.7651    0.0000 C   0  0  0  0  0  0  0  0  0  0  0  0
    4.7672  -10.3526    0.0000 C   0  0  0  0  0  0  0  0  0  0  0  0
    4.7672   -9.5276    0.0000 C   0  0  0  0  0  0  0  0  0  0  0  0
    4.0527   -9.1151    0.0000 C   0  0  0  0  0  0  0  0  0  0  0  0
    6.1961   -9.5276    0.0000 C   0  0  0  0  0  0  0  0  0  0  0  0
    5.4817   -9.1151    0.0000 C   0  0  0  0  0  0  0  0  0  0  0  0
    7.6251   -9.5276    0.0000 N   0  0  0  0  0  0  0  0  0  0  0  0
    6.9106   -9.1151    0.0000 C   0  0  0  0  0  0  0  0  0  0  0  0
    9.0540  -10.3526    0.0000 O   0  0  0  0  0  0  0  0  0  0  0  0
    9.0540   -9.5276    0.0000 C   0  0  0  0  0  0  0  0  0  0  0  0
    8.3395   -9.1151    0.0000 C   0  0  0  0  0  0  0  0  0  0  0  0
    9.7685   -9.1151    0.0000 C   0  0  0  0  0  0  0  0  0  0  0  0
    9.7685   -8.2901    0.0000 C   0  0  0  0  0  0  0  0  0  0  0  0
    8.3395   -8.2901    0.0000 O   0  0  0  0  0  0  0  0  0  0  0  0
   10.4830   -9.5276    0.0000 C   0  0  0  0  0  0  0  0  0  0  0  0
   11.1974   -9.1151    0.0000 C   0  0  0  0  0  0  0  0  0  0  0  0
   11.1974   -8.2901    0.0000 C   0  0  0  0  0  0  0  0  0  0  0  0
   10.4830   -7.8776    0.0000 C   0  0  0  0  0  0  0  0  0  0  0  0
    6.9106   -8.2901    0.0000 O   0  0  0  0  0  0  0  0  0  0  0  0
   11.9119   -7.8776    0.0000 O   0  0  0  0  0  0  0  0  0  0  0  0
  2  3  1  0  0  0  0
  3  4  2  0  0  0  0
  4  5  1  0  0  0  0
  5  1  1  0  0  0  0
  3  6  1  0  0  0  0
  6  7  2  0  0  0  0
  7  8  1  0  0  0  0
  8  9  2  0  0  0  0
  9  4  1  0  0  0  0
 10 11  2  0  0  0  0
 11  8  1  0  0  0  0
 12 13  1  0  0  0  0
 13 10  1  0  0  0  0
 14 15  2  0  0  0  0
 15 16  1  0  0  0  0
 16 12  1  0  0  0  0
 15 17  1  0  0  0  0
 17 18  1  0  0  0  0
 19 16  1  0  0  0  0
 17 20  2  0  0  0  0
 20 21  1  0  0  0  0
 21 22  2  0  0  0  0
 22 23  1  0  0  0  0
 23 18  2  0  0  0  0
 13 24  2  0  0  0  0
 22 25  1  0  0  0  0
M  END
>  <cdx:fragmentId>
5

$$$$
