90791.cdx
  Mrv1902 05222410182D          

 58 61  0  0  0  0            999 V2000
    5.2500  -13.0344    0.0000 C   0  0  0  0  0  0  0  0  0  0  0  0
    4.8375  -13.7489    0.0000 C   0  0  0  0  0  0  0  0  0  0  0  0
    5.2500  -14.4634    0.0000 C   0  0  0  0  0  0  0  0  0  0  0  0
    6.0750  -14.4634    0.0000 C   0  0  0  0  0  0  0  0  0  0  0  0
    6.4875  -13.7489    0.0000 C   0  0  0  0  0  0  0  0  0  0  0  0
    6.0750  -13.0344    0.0000 C   0  0  0  0  0  0  0  0  0  0  0  0
    6.4875  -12.3200    0.0000 C   0  0  0  0  0  0  0  0  0  0  0  0
    6.0750  -11.6055    0.0000 C   0  0  0  0  0  0  0  0  0  0  0  0
    7.3125  -10.8910    0.0000 O   0  0  0  0  0  0  0  0  0  0  0  0
    6.4875  -10.8910    0.0000 C   0  0  0  0  0  0  0  0  0  0  0  0
    7.3125   -9.4621    0.0000 C   0  0  1  0  0  0  0  0  0  0  0  0
    6.4875   -9.4621    0.0000 C   0  0  2  0  0  0  0  0  0  0  0  0
    6.0750  -10.1765    0.0000 O   0  0  0  0  0  0  0  0  0  0  0  0
    7.5675   -8.6775    0.0000 C   0  0  2  0  0  0  0  0  0  0  0  0
    6.9000   -8.1925    0.0000 O   0  0  0  0  0  0  0  0  0  0  0  0
    6.2326   -8.6775    0.0000 C   0  0  1  0  0  0  0  0  0  0  0  0
    7.7974  -10.1295    0.0000 O   0  0  0  0  0  0  0  0  0  0  0  0
    8.6224  -10.1295    0.0000 C   0  0  0  0  0  0  0  0  0  0  0  0
    9.0349  -10.8440    0.0000 O   0  0  0  0  0  0  0  0  0  0  0  0
    9.0349   -9.4150    0.0000 C   0  0  0  0  0  0  0  0  0  0  0  0
    4.8375  -15.1778    0.0000 O   0  0  0  0  0  0  0  0  0  0  0  0
    6.4875  -15.1778    0.0000 O   0  0  0  0  0  0  0  0  0  0  0  0
    7.3125  -15.1778    0.0000 C   0  0  0  0  0  0  0  0  0  0  0  0
    5.5181   -9.0900    0.0000 O   0  0  0  0  0  0  0  0  0  0  0  0
    5.6492   -8.0941    0.0000 C   0  0  0  0  0  0  0  0  0  0  0  0
    5.8627   -7.2972    0.0000 O   0  0  0  0  0  0  0  0  0  0  0  0
    5.2794   -6.7138    0.0000 C   0  0  0  0  0  0  0  0  0  0  0  0
    5.4929   -5.9169    0.0000 C   0  0  0  0  0  0  0  0  0  0  0  0
    4.4825   -6.9274    0.0000 O   0  0  0  0  0  0  0  0  0  0  0  0
    8.3521   -8.4225    0.0000 C   0  0  0  0  0  0  0  0  0  0  0  0
    8.3521   -7.5975    0.0000 O   0  0  0  0  0  0  0  0  0  0  0  0
    9.0666   -6.3600    0.0000 C   0  0  0  0  0  0  0  0  0  0  0  0
    9.7810   -5.9475    0.0000 C   0  0  0  0  0  0  0  0  0  0  0  0
    9.7810   -5.1225    0.0000 C   0  0  0  0  0  0  0  0  0  0  0  0
   10.4955   -4.7100    0.0000 C   0  0  0  0  0  0  0  0  0  0  0  0
   10.4955   -3.8850    0.0000 C   0  0  0  0  0  0  0  0  0  0  0  0
    9.7810   -3.4725    0.0000 C   0  0  0  0  0  0  0  0  0  0  0  0
    9.0666   -3.8850    0.0000 C   0  0  0  0  0  0  0  0  0  0  0  0
    9.0666   -4.7100    0.0000 C   0  0  0  0  0  0  0  0  0  0  0  0
    9.7810   -2.6475    0.0000 O   0  0  0  0  0  0  0  0  0  0  0  0
    8.3521   -3.4725    0.0000 O   0  0  0  0  0  0  0  0  0  0  0  0
    8.3521   -2.6475    0.0000 C   0  0  0  0  0  0  0  0  0  0  0  0
    9.7810   -7.5975    0.0000 O   0  0  0  0  0  0  0  0  0  0  0  0
    9.0666   -7.1850    0.0000 C   0  0  0  0  0  0  0  0  0  0  0  0
    4.8036   -8.6775    0.0000 C   0  0  1  0  0  0  0  0  0  0  0  0
    4.8036   -7.8525    0.0000 O   0  0  0  0  0  0  0  0  0  0  0  0
    4.0892   -7.4400    0.0000 C   0  0  1  0  0  0  0  0  0  0  0  0
    3.3747   -7.8525    0.0000 C   0  0  2  0  0  0  0  0  0  0  0  0
    3.3747   -8.6775    0.0000 C   0  0  1  0  0  0  0  0  0  0  0  0
    4.0892   -9.0900    0.0000 C   0  0  1  0  0  0  0  0  0  0  0  0
    4.0892   -6.6150    0.0000 C   0  0  0  0  0  0  0  0  0  0  0  0
    2.6602   -9.0900    0.0000 O   0  0  0  0  0  0  0  0  0  0  0  0
    4.0892   -9.9150    0.0000 O   0  0  0  0  0  0  0  0  0  0  0  0
    2.6602   -7.4400    0.0000 O   0  0  0  0  0  0  0  0  0  0  0  0
    3.3747   -6.2025    0.0000 O   0  0  0  0  0  0  0  0  0  0  0  0
    3.3747   -5.3775    0.0000 C   0  0  0  0  0  0  0  0  0  0  0  0
    4.0892   -4.9650    0.0000 O   0  0  0  0  0  0  0  0  0  0  0  0
    2.6602   -4.9650    0.0000 C   0  0  0  0  0  0  0  0  0  0  0  0
  1  2  1  0  0  0  0
  2  3  2  0  0  0  0
  3  4  1  0  0  0  0
  4  5  2  0  0  0  0
  5  6  1  0  0  0  0
  6  1  2  0  0  0  0
  6  7  1  0  0  0  0
  7  8  2  0  0  0  0
  9 10  2  0  0  0  0
 10  8  1  0  0  0  0
 11 12  1  0  0  0  0
 12 13  1  6  0  0  0
 13 10  1  0  0  0  0
 11 14  1  0  0  0  0
 14 15  1  0  0  0  0
 15 16  1  0  0  0  0
 16 12  1  0  0  0  0
 11 17  1  1  0  0  0
 17 18  1  0  0  0  0
 18 19  2  0  0  0  0
 18 20  1  0  0  0  0
  3 21  1  0  0  0  0
  4 22  1  0  0  0  0
 22 23  1  0  0  0  0
 16 24  1  6  0  0  0
 16 25  1  1  0  0  0
 25 26  1  0  0  0  0
 26 27  1  0  0  0  0
 27 28  1  0  0  0  0
 27 29  2  0  0  0  0
 14 30  1  6  0  0  0
 30 31  1  0  0  0  0
 31 44  1  0  0  0  0
 32 33  2  0  0  0  0
 33 34  1  0  0  0  0
 34 35  2  0  0  0  0
 35 36  1  0  0  0  0
 36 37  2  0  0  0  0
 37 38  1  0  0  0  0
 38 39  2  0  0  0  0
 39 34  1  0  0  0  0
 37 40  1  0  0  0  0
 38 41  1  0  0  0  0
 44 32  1  0  0  0  0
 41 42  1  0  0  0  0
 44 43  2  0  0  0  0
 45 24  1  6  0  0  0
 45 46  1  0  0  0  0
 46 47  1  0  0  0  0
 47 48  1  0  0  0  0
 48 49  1  0  0  0  0
 49 50  1  0  0  0  0
 50 45  1  0  0  0  0
 47 51  1  1  0  0  0
 49 52  1  1  0  0  0
 50 53  1  6  0  0  0
 48 54  1  6  0  0  0
 51 55  1  0  0  0  0
 55 56  1  0  0  0  0
 56 57  2  0  0  0  0
 56 58  1  0  0  0  0
M  END
>  <cdx:fragmentId>
5

$$$$
