907945.cdx
  Mrv1902 05222410262D          

 39 41  0  0  0  0            999 V2000
    8.5154   -9.0357    0.0000 N   0  0  0  0  0  0  0  0  0  0  0  0
    7.8009   -8.6232    0.0000 C   0  0  0  0  0  0  0  0  0  0  0  0
    7.8009   -7.7982    0.0000 C   0  0  1  0  0  0  0  0  0  0  0  0
    7.0864   -7.3857    0.0000 N   0  0  0  0  0  0  0  0  0  0  0  0
    7.0864   -6.5607    0.0000 C   0  0  0  0  0  0  0  0  0  0  0  0
    6.3719   -6.1482    0.0000 C   0  0  0  0  0  0  0  0  0  0  0  0
    5.6575   -6.5607    0.0000 C   0  0  1  0  0  0  0  0  0  0  0  0
    5.6575   -7.3857    0.0000 N   0  0  0  0  0  0  0  0  0  0  0  0
    4.9430   -7.7982    0.0000 C   0  0  0  0  0  0  0  0  0  0  0  0
    4.9430   -8.6232    0.0000 C   0  0  1  0  0  0  0  0  0  0  0  0
    5.6575   -9.0357    0.0000 N   0  0  0  0  0  0  0  0  0  0  0  0
    5.6575   -9.8607    0.0000 C   0  0  0  0  0  0  0  0  0  0  0  0
    6.3719  -10.2732    0.0000 C   0  0  1  0  0  0  0  0  0  0  0  0
    7.0864   -9.8607    0.0000 N   0  0  0  0  0  0  0  0  0  0  0  0
    7.8009  -10.2732    0.0000 C   0  0  0  0  0  0  0  0  0  0  0  0
    8.5154   -9.8607    0.0000 C   0  0  2  0  0  0  0  0  0  0  0  0
    9.3000  -10.1157    0.0000 C   0  0  0  0  0  0  0  0  0  0  0  0
    9.7849   -9.4482    0.0000 C   0  0  0  0  0  0  0  0  0  0  0  0
    9.3000   -8.7808    0.0000 C   0  0  0  0  0  0  0  0  0  0  0  0
    7.0864   -9.0357    0.0000 O   0  0  0  0  0  0  0  0  0  0  0  0
    7.8009   -6.1482    0.0000 O   0  0  0  0  0  0  0  0  0  0  0  0
    4.2285   -7.3857    0.0000 O   0  0  0  0  0  0  0  0  0  0  0  0
    4.9430  -10.2732    0.0000 O   0  0  0  0  0  0  0  0  0  0  0  0
    7.8009  -11.0982    0.0000 O   0  0  0  0  0  0  0  0  0  0  0  0
    4.9430   -6.1482    0.0000 C   0  0  0  0  0  0  0  0  0  0  0  0
    4.2285   -6.5607    0.0000 C   0  0  0  0  0  0  0  0  0  0  0  0
    3.5141   -6.1482    0.0000 C   0  0  0  0  0  0  0  0  0  0  0  0
    3.5141   -5.3232    0.0000 C   0  0  0  0  0  0  0  0  0  0  0  0
    4.2285   -4.9107    0.0000 C   0  0  0  0  0  0  0  0  0  0  0  0
    4.9430   -5.3232    0.0000 C   0  0  0  0  0  0  0  0  0  0  0  0
    4.2285   -9.0357    0.0000 C   0  0  0  0  0  0  0  0  0  0  0  0
    3.5141   -8.6232    0.0000 O   0  0  0  0  0  0  0  0  0  0  0  0
    8.5154   -7.3857    0.0000 C   0  0  0  0  0  0  0  0  0  0  0  0
    9.2298   -7.7982    0.0000 C   0  0  0  0  0  0  0  0  0  0  0  0
    6.3719  -11.0982    0.0000 C   0  0  2  0  0  0  0  0  0  0  0  0
    5.6575  -11.5107    0.0000 C   0  0  0  0  0  0  0  0  0  0  0  0
    8.6016  -10.6812    0.0000 H   0  0  0  0  0  0  0  0  0  0  0  0
    9.5549   -7.9962    0.0000 Cl  0  0  0  0  0  0  0  0  0  0  0  0
    7.0864  -11.5107    0.0000 O   0  0  0  0  0  0  0  0  0  0  0  0
  1  2  1  0  0  0  0
  2  3  1  0  0  0  0
  3  4  1  1  0  0  0
  4  5  1  0  0  0  0
  5  6  1  0  0  0  0
  6  7  1  0  0  0  0
  7  8  1  0  0  0  0
  8  9  1  0  0  0  0
  9 10  1  0  0  0  0
 10 11  1  0  0  0  0
 11 12  1  0  0  0  0
 12 13  1  0  0  0  0
 13 14  1  1  0  0  0
 14 15  1  0  0  0  0
 15 16  1  0  0  0  0
 16 17  1  0  0  0  0
 17 18  1  0  0  0  0
 18 19  2  0  0  0  0
  1 19  1  0  0  0  0
  1 16  1  0  0  0  0
  2 20  2  0  0  0  0
  5 21  2  0  0  0  0
  9 22  2  0  0  0  0
 12 23  2  0  0  0  0
 15 24  2  0  0  0  0
 25 26  1  0  0  0  0
 26 27  2  0  0  0  0
 27 28  1  0  0  0  0
 28 29  2  0  0  0  0
 29 30  1  0  0  0  0
 25 30  2  0  0  0  0
  7 25  1  1  0  0  0
 31 32  1  0  0  0  0
 10 31  1  1  0  0  0
 33 34  1  0  0  0  0
  3 33  1  0  0  0  0
 35 36  1  0  0  0  0
 13 35  1  0  0  0  0
 16 37  1  6  0  0  0
 19 38  1  1  0  0  0
 35 39  1  1  0  0  0
M  END
>  <cdx:fragmentId>
112353

$$$$
