90793.cdx
  Mrv1902 05222410192D          

 11 12  0  0  0  0            999 V2000
    6.8593   -6.1589    0.0000 C   0  0  0  0  0  0  0  0  0  0  0  0
    6.8593   -6.9839    0.0000 C   0  0  0  0  0  0  0  0  0  0  0  0
    7.5738   -7.3964    0.0000 C   0  0  0  0  0  0  0  0  0  0  0  0
    8.2882   -6.9839    0.0000 C   0  0  0  0  0  0  0  0  0  0  0  0
    8.2882   -6.1589    0.0000 C   0  0  0  0  0  0  0  0  0  0  0  0
    7.5738   -5.7464    0.0000 C   0  0  0  0  0  0  0  0  0  0  0  0
    6.8593   -7.8089    0.0000 C   0  0  0  0  0  0  0  0  0  0  0  0
    6.8593   -8.6339    0.0000 C   0  0  0  0  0  0  0  0  0  0  0  0
    7.5738   -9.0464    0.0000 C   0  0  0  0  0  0  0  0  0  0  0  0
    8.2882   -8.6339    0.0000 C   0  0  0  0  0  0  0  0  0  0  0  0
    8.2882   -7.8089    0.0000 C   0  0  0  0  0  0  0  0  0  0  0  0
  1  2  1  0  0  0  0
  2  3  1  0  0  0  0
  3  4  1  0  0  0  0
  4  5  1  0  0  0  0
  5  6  1  0  0  0  0
  6  1  1  0  0  0  0
  3  7  1  0  0  0  0
  7  8  1  0  0  0  0
  8  9  1  0  0  0  0
  9 10  1  0  0  0  0
 10 11  1  0  0  0  0
 11  3  1  0  0  0  0
M  END
>  <cdx:fragmentId>
5

$$$$
