90809.cdx
  Mrv1902 05222410262D          

 15 16  0  0  0  0            999 V2000
    4.7281   -7.9739    0.0000 C   0  0  0  0  0  0  0  0  0  0  0  0
    4.7281   -8.7989    0.0000 C   0  0  0  0  0  0  0  0  0  0  0  0
    5.4425   -9.2114    0.0000 C   0  0  0  0  0  0  0  0  0  0  0  0
    6.1570   -8.7989    0.0000 C   0  0  0  0  0  0  0  0  0  0  0  0
    6.1570   -7.9739    0.0000 C   0  0  0  0  0  0  0  0  0  0  0  0
    5.4425   -7.5614    0.0000 C   0  0  0  0  0  0  0  0  0  0  0  0
    6.8715   -9.2114    0.0000 O   0  0  0  0  0  0  0  0  0  0  0  0
    7.5859   -8.7989    0.0000 C   0  0  0  0  0  0  0  0  0  0  0  0
    7.5859   -7.9739    0.0000 C   0  0  0  0  0  0  0  0  0  0  0  0
    6.8715   -7.5614    0.0000 C   0  0  0  0  0  0  0  0  0  0  0  0
    5.0300   -6.8469    0.0000 C   0  0  0  0  0  0  0  0  0  0  0  0
    5.8550   -6.8469    0.0000 C   0  0  0  0  0  0  0  0  0  0  0  0
    4.0136   -9.2114    0.0000 O   0  0  0  0  0  0  0  0  0  0  0  0
    6.1570   -9.6239    0.0000 C   0  0  0  0  0  0  0  0  0  0  0  0
    8.3004   -9.2114    0.0000 C   0  0  0  0  0  0  0  0  0  0  0  0
  1  2  1  0  0  0  0
  2  3  1  0  0  0  0
  3  4  1  0  0  0  0
  4  5  1  0  0  0  0
  5  6  1  0  0  0  0
  6  1  1  0  0  0  0
  4  7  1  0  0  0  0
  7  8  1  0  0  0  0
  8  9  1  0  0  0  0
  9 10  1  0  0  0  0
 10  5  1  0  0  0  0
  6 11  1  0  0  0  0
  6 12  1  0  0  0  0
  2 13  2  0  0  0  0
  4 14  1  0  0  0  0
  8 15  1  0  0  0  0
M  END
>  <cdx:fragmentId>
5

$$$$
