90805.cdx
  Mrv1902 05222410202D          

 73 79  0  0  0  0            999 V2000
   11.0653   -7.7272    0.0000 C   0  0  0  0  0  0  0  0  0  0  0  0
   11.0628   -8.5522    0.0000 C   0  0  0  0  0  0  0  0  0  0  0  0
   10.3471   -8.9624    0.0000 C   0  0  0  0  0  0  0  0  0  0  0  0
    9.6339   -8.5477    0.0000 C   0  0  0  0  0  0  0  0  0  0  0  0
    8.9181   -8.9580    0.0000 C   0  0  0  0  0  0  0  0  0  0  0  0
    8.2049   -8.5433    0.0000 C   0  0  0  0  0  0  0  0  0  0  0  0
    8.2075   -7.7183    0.0000 C   0  0  0  0  0  0  0  0  0  0  0  0
    8.9232   -7.3080    0.0000 C   0  0  0  0  0  0  0  0  0  0  0  0
    9.6364   -7.7227    0.0000 C   0  0  0  0  0  0  0  0  0  0  0  0
   10.3522   -7.3125    0.0000 O   0  0  0  0  0  0  0  0  0  0  0  0
   10.3445   -9.7874    0.0000 O   0  0  0  0  0  0  0  0  0  0  0  0
    7.4943   -7.3036    0.0000 O   0  0  0  0  0  0  0  0  0  0  0  0
    6.7798   -7.7161    0.0000 C   0  0  0  0  0  0  0  0  0  0  0  0
   11.7811   -7.3169    0.0000 C   0  0  0  0  0  0  0  0  0  0  0  0
   11.7836   -6.4919    0.0000 C   0  0  0  0  0  0  0  0  0  0  0  0
   12.4994   -6.0816    0.0000 C   0  0  0  0  0  0  0  0  0  0  0  0
   13.2126   -6.4963    0.0000 C   0  0  0  0  0  0  0  0  0  0  0  0
   13.2100   -7.3213    0.0000 C   0  0  0  0  0  0  0  0  0  0  0  0
   12.4943   -7.7316    0.0000 C   0  0  0  0  0  0  0  0  0  0  0  0
   13.9283   -6.0860    0.0000 O   0  0  0  0  0  0  0  0  0  0  0  0
    8.9156   -9.7830    0.0000 O   0  0  0  0  0  0  0  0  0  0  0  0
    7.4723  -11.4286    0.0000 O   0  0  0  0  0  0  0  0  0  0  0  0
    7.4666  -12.2535    0.0000 C   0  0  1  0  0  0  0  0  0  0  0  0
    8.1783  -12.6709    0.0000 C   0  0  2  0  0  0  0  0  0  0  0  0
    8.8956  -12.2633    0.0000 C   0  0  1  0  0  0  0  0  0  0  0  0
    8.9012  -11.4383    0.0000 C   0  0  2  0  0  0  0  0  0  0  0  0
    8.1896  -11.0210    0.0000 C   0  0  2  0  0  0  0  0  0  0  0  0
    9.6185  -11.0307    0.0000 O   0  0  0  0  0  0  0  0  0  0  0  0
    9.6072  -12.6807    0.0000 O   0  0  0  0  0  0  0  0  0  0  0  0
    8.1726  -13.4959    0.0000 O   0  0  0  0  0  0  0  0  0  0  0  0
    8.1952  -10.1960    0.0000 O   0  0  0  0  0  0  0  0  0  0  0  0
    6.7775   -8.5362    0.0000 O   0  0  0  0  0  0  0  0  0  0  0  0
    7.4892   -8.9536    0.0000 C   0  0  2  0  0  0  0  0  0  0  0  0
    7.4835   -9.7786    0.0000 C   0  0  1  0  0  0  0  0  0  0  0  0
    6.7663  -10.1862    0.0000 C   0  0  2  0  0  0  0  0  0  0  0  0
    6.0546   -9.7688    0.0000 C   0  0  1  0  0  0  0  0  0  0  0  0
    6.0603   -8.9439    0.0000 C   0  0  1  0  0  0  0  0  0  0  0  0
    5.3374  -10.1764    0.0000 O   0  0  0  0  0  0  0  0  0  0  0  0
    6.7606  -11.0112    0.0000 O   0  0  0  0  0  0  0  0  0  0  0  0
    6.7494  -12.6612    0.0000 C   0  0  0  0  0  0  0  0  0  0  0  0
    1.0450  -10.9721    0.0000 O   0  0  0  0  0  0  0  0  0  0  0  0
    0.3221  -12.2047    0.0000 C   0  0  0  0  0  0  0  0  0  0  0  0
    1.0337  -12.6221    0.0000 O   0  0  0  0  0  0  0  0  0  0  0  0
    3.1856  -11.3993    0.0000 C   0  0  0  0  0  0  0  0  0  0  0  0
    2.4739  -10.9819    0.0000 C   0  0  0  0  0  0  0  0  0  0  0  0
    1.7566  -11.3895    0.0000 C   0  0  0  0  0  0  0  0  0  0  0  0
    1.7510  -12.2145    0.0000 C   0  0  0  0  0  0  0  0  0  0  0  0
    2.4626  -12.6319    0.0000 C   0  0  0  0  0  0  0  0  0  0  0  0
    3.1799  -12.2243    0.0000 C   0  0  0  0  0  0  0  0  0  0  0  0
    6.0377  -12.2438    0.0000 O   0  0  0  0  0  0  0  0  0  0  0  0
    5.3148  -13.4764    0.0000 O   0  0  0  0  0  0  0  0  0  0  0  0
    3.8916  -12.6416    0.0000 C   0  0  0  0  0  0  0  0  0  0  0  0
    4.6088  -12.2340    0.0000 C   0  0  0  0  0  0  0  0  0  0  0  0
    5.3205  -12.6514    0.0000 C   0  0  0  0  0  0  0  0  0  0  0  0
    7.4892   -8.1286    0.0000 H   0  0  0  0  0  0  0  0  0  0  0  0
    4.6622   -4.8141    0.0000 C   0  0  0  0  0  0  0  0  0  0  0  0
    4.6848   -3.9894    0.0000 C   0  0  0  0  0  0  0  0  0  0  0  0
    3.9648   -3.5671    0.0000 C   0  0  0  0  0  0  0  0  0  0  0  0
    3.2448   -3.9698    0.0000 C   0  0  0  0  0  0  0  0  0  0  0  0
    3.2278   -4.8043    0.0000 C   0  0  0  0  0  0  0  0  0  0  0  0
    3.9423   -5.2168    0.0000 C   0  0  0  0  0  0  0  0  0  0  0  0
    3.9366   -6.0418    0.0000 C   0  0  0  0  0  0  0  0  0  0  0  0
    3.9254   -7.6917    0.0000 O   0  0  0  0  0  0  0  0  0  0  0  0
    4.6483   -6.4592    0.0000 C   0  0  0  0  0  0  0  0  0  0  0  0
    4.6426   -7.2841    0.0000 C   0  0  0  0  0  0  0  0  0  0  0  0
    5.3543   -7.7015    0.0000 O   0  0  0  0  0  0  0  0  0  0  0  0
    5.3486   -8.5265    0.0000 C   0  0  0  0  0  0  0  0  0  0  0  0
    2.5375   -3.5452    0.0000 O   0  0  0  0  0  0  0  0  0  0  0  0
    3.9733   -2.7422    0.0000 O   0  0  0  0  0  0  0  0  0  0  0  0
    5.4062   -3.5892    0.0000 O   0  0  0  0  0  0  0  0  0  0  0  0
    6.1135   -4.0139    0.0000 C   0  0  0  0  0  0  0  0  0  0  0  0
    3.2631   -2.3223    0.0000 C   0  0  0  0  0  0  0  0  0  0  0  0
    1.8161   -3.9454    0.0000 C   0  0  0  0  0  0  0  0  0  0  0  0
 50 40  1  0  0  0  0
 52 49  1  0  0  0  0
 46 41  1  0  0  0  0
 47 43  1  0  0  0  0
 43 42  1  0  0  0  0
 49 44  2  0  0  0  0
 45 44  1  0  0  0  0
 46 45  2  0  0  0  0
 33  6  1  0  0  0  0
  1  2  2  0  0  0  0
  2  3  1  0  0  0  0
 47 46  1  0  0  0  0
 48 47  2  0  0  0  0
 49 48  1  0  0  0  0
 54 50  1  0  0  0  0
 54 51  2  0  0  0  0
 53 52  2  0  0  0  0
 54 53  1  0  0  0  0
 56 61  1  0  0  0  0
 57 56  2  0  0  0  0
  3  4  1  0  0  0  0
  4  5  1  0  0  0  0
  5  6  2  0  0  0  0
  6  7  1  0  0  0  0
  7  8  2  0  0  0  0
  8  9  1  0  0  0  0
  4  9  2  0  0  0  0
  9 10  1  0  0  0  0
  1 10  1  0  0  0  0
  3 11  2  0  0  0  0
 12 13  1  0  0  0  0
  7 12  1  0  0  0  0
 14 15  1  0  0  0  0
 15 16  2  0  0  0  0
 16 17  1  0  0  0  0
 17 18  2  0  0  0  0
 18 19  1  0  0  0  0
 14 19  2  0  0  0  0
 17 20  1  0  0  0  0
  1 14  1  0  0  0  0
  5 21  1  0  0  0  0
 22 23  1  0  0  0  0
 23 24  1  0  0  0  0
 24 25  1  0  0  0  0
 25 26  1  0  0  0  0
 26 27  1  0  0  0  0
 22 27  1  0  0  0  0
 26 28  1  6  0  0  0
 25 29  1  1  0  0  0
 24 30  1  6  0  0  0
 32 33  1  0  0  0  0
 33 34  1  0  0  0  0
 34 35  1  0  0  0  0
 35 36  1  0  0  0  0
 36 37  1  0  0  0  0
 32 37  1  0  0  0  0
 58 57  1  0  0  0  0
 37 67  1  1  0  0  0
 36 38  1  6  0  0  0
 35 39  1  1  0  0  0
 34 31  1  6  0  0  0
 27 31  1  1  0  0  0
 23 40  1  1  0  0  0
 33 55  1  6  0  0  0
 59 58  2  0  0  0  0
 60 59  1  0  0  0  0
 61 60  2  0  0  0  0
 62 61  1  0  0  0  0
 64 62  2  0  0  0  0
 65 63  2  0  0  0  0
 65 64  1  0  0  0  0
 66 65  1  0  0  0  0
 67 66  1  0  0  0  0
 59 68  1  0  0  0  0
 58 69  1  0  0  0  0
 57 70  1  0  0  0  0
 70 71  1  0  0  0  0
 69 72  1  0  0  0  0
 68 73  1  0  0  0  0
M  END
>  <cdx:fragmentId>
133584

$$$$
