90807.cdx
  Mrv1902 05222410192D          

 21 24  0  0  0  0            999 V2000
    5.2781   -6.1314    0.0000 C   0  0  0  0  0  0  0  0  0  0  0  0
    5.2781   -6.9564    0.0000 C   0  0  0  0  0  0  0  0  0  0  0  0
    5.9925   -7.3689    0.0000 C   0  0  0  0  0  0  0  0  0  0  0  0
    6.7070   -6.9564    0.0000 C   0  0  0  0  0  0  0  0  0  0  0  0
    6.7070   -6.1314    0.0000 C   0  0  0  0  0  0  0  0  0  0  0  0
    5.9925   -5.7189    0.0000 C   0  0  0  0  0  0  0  0  0  0  0  0
    7.4215   -7.3689    0.0000 O   0  0  0  0  0  0  0  0  0  0  0  0
    8.1359   -6.9564    0.0000 C   0  0  0  0  0  0  0  0  0  0  0  0
    8.1359   -6.1314    0.0000 C   0  0  0  0  0  0  0  0  0  0  0  0
    7.4215   -5.7189    0.0000 C   0  0  0  0  0  0  0  0  0  0  0  0
    8.8504   -7.3689    0.0000 C   0  0  0  0  0  0  0  0  0  0  0  0
    9.5649   -6.9564    0.0000 C   0  0  0  0  0  0  0  0  0  0  0  0
    9.5649   -6.1314    0.0000 C   0  0  0  0  0  0  0  0  0  0  0  0
    8.8504   -5.7189    0.0000 C   0  0  0  0  0  0  0  0  0  0  0  0
   10.3495   -7.2113    0.0000 O   0  0  0  0  0  0  0  0  0  0  0  0
   10.8344   -6.5439    0.0000 C   0  0  0  0  0  0  0  0  0  0  0  0
   10.3495   -5.8765    0.0000 O   0  0  0  0  0  0  0  0  0  0  0  0
    4.5636   -5.7189    0.0000 O   0  0  0  0  0  0  0  0  0  0  0  0
    7.4215   -4.8939    0.0000 O   0  0  0  0  0  0  0  0  0  0  0  0
    8.8504   -4.8939    0.0000 O   0  0  0  0  0  0  0  0  0  0  0  0
    9.5649   -4.4814    0.0000 C   0  0  0  0  0  0  0  0  0  0  0  0
  1  2  1  0  0  0  0
  2  3  2  0  0  0  0
  3  4  1  0  0  0  0
  4  5  2  0  0  0  0
  5  6  1  0  0  0  0
  6  1  2  0  0  0  0
  4  7  1  0  0  0  0
  7  8  1  0  0  0  0
  8  9  2  0  0  0  0
  9 10  1  0  0  0  0
 10  5  1  0  0  0  0
  8 11  1  0  0  0  0
 11 12  2  0  0  0  0
 12 13  1  0  0  0  0
 13 14  2  0  0  0  0
 14  9  1  0  0  0  0
 12 15  1  0  0  0  0
 15 16  1  0  0  0  0
 16 17  1  0  0  0  0
 17 13  1  0  0  0  0
  1 18  1  0  0  0  0
 10 19  2  0  0  0  0
 14 20  1  0  0  0  0
 20 21  1  0  0  0  0
M  END
>  <cdx:fragmentId>
5

$$$$
