90802.cdx
  Mrv1902 05222410192D          

 20 21  0  0  0  0            999 V2000
    5.1406   -8.3726    0.0000 C   0  0  0  0  0  0  0  0  0  0  0  0
    5.1406   -9.1976    0.0000 C   0  0  0  0  0  0  0  0  0  0  0  0
    5.8550   -9.6101    0.0000 C   0  0  0  0  0  0  0  0  0  0  0  0
    6.5695   -9.1976    0.0000 C   0  0  0  0  0  0  0  0  0  0  0  0
    6.5695   -8.3726    0.0000 C   0  0  0  0  0  0  0  0  0  0  0  0
    5.8550   -7.9601    0.0000 C   0  0  0  0  0  0  0  0  0  0  0  0
    7.2840   -9.6101    0.0000 C   0  0  0  0  0  0  0  0  0  0  0  0
    7.9984   -9.1976    0.0000 C   0  0  0  0  0  0  0  0  0  0  0  0
    7.9984   -8.3726    0.0000 C   0  0  0  0  0  0  0  0  0  0  0  0
    7.2840   -7.9601    0.0000 O   0  0  0  0  0  0  0  0  0  0  0  0
    5.8550   -7.1351    0.0000 C   0  0  0  0  0  0  0  0  0  0  0  0
    5.1406   -6.7226    0.0000 C   0  0  0  0  0  0  0  0  0  0  0  0
    4.4261   -7.9601    0.0000 O   0  0  0  0  0  0  0  0  0  0  0  0
    3.7116   -8.3726    0.0000 C   0  0  0  0  0  0  0  0  0  0  0  0
    7.2840  -10.4351    0.0000 O   0  0  0  0  0  0  0  0  0  0  0  0
    8.7129   -7.9601    0.0000 O   0  0  0  0  0  0  0  0  0  0  0  0
    5.1406   -5.8976    0.0000 O   0  0  0  0  0  0  0  0  0  0  0  0
    4.4261   -7.1351    0.0000 C   0  0  0  0  0  0  0  0  0  0  0  0
    4.4261   -7.9601    0.0000 C   0  0  0  0  0  0  0  0  0  0  0  0
    3.7116   -6.7226    0.0000 C   0  0  0  0  0  0  0  0  0  0  0  0
  1  2  2  0  0  0  0
  2  3  1  0  0  0  0
  3  4  2  0  0  0  0
  4  5  1  0  0  0  0
  5  6  2  0  0  0  0
  6  1  1  0  0  0  0
  4  7  1  0  0  0  0
  7  8  2  0  0  0  0
  8  9  1  0  0  0  0
  9 10  1  0  0  0  0
 10  5  1  0  0  0  0
  6 11  1  0  0  0  0
 11 12  1  0  0  0  0
 13  1  1  0  0  0  0
 13 14  1  0  0  0  0
  7 15  1  0  0  0  0
  9 16  2  0  0  0  0
 12 17  2  0  0  0  0
 12 18  1  0  0  0  0
 18 19  1  0  0  0  0
 18 20  1  0  0  0  0
M  STY  1   1 SUP
M  SAL   1  3  18  19  20
M  SBL   1  1  19
M  SMT   1 i-Pr
M  SAP   1  1  18  12  1
M  END
>  <cdx:fragmentId>
5

$$$$
