8048.cdx
  Mrv1902 05222410192D          

 12 12  0  0  0  0            999 V2000
    6.3145   -7.5488    0.0000 C   0  0  0  0  0  0  0  0  0  0  0  0
    6.3145   -8.3737    0.0000 C   0  0  0  0  0  0  0  0  0  0  0  0
    7.0290   -8.7862    0.0000 C   0  0  0  0  0  0  0  0  0  0  0  0
    7.7435   -8.3737    0.0000 C   0  0  0  0  0  0  0  0  0  0  0  0
    7.7435   -7.5488    0.0000 C   0  0  0  0  0  0  0  0  0  0  0  0
    7.0290   -7.1362    0.0000 C   0  0  0  0  0  0  0  0  0  0  0  0
    7.0290   -6.3113    0.0000 C   0  0  0  0  0  0  0  0  0  0  0  0
    7.7435   -5.8988    0.0000 C   0  0  0  0  0  0  0  0  0  0  0  0
    7.7435   -5.0737    0.0000 O   0  0  0  0  0  0  0  0  0  0  0  0
    8.4579   -4.6612    0.0000 C   0  0  0  0  0  0  0  0  0  0  0  0
    8.4579   -6.3113    0.0000 O   0  0  0  0  0  0  0  0  0  0  0  0
    6.3145   -5.8988    0.0000 O   0  0  0  0  0  0  0  0  0  0  0  0
  1  2  2  0  0  0  0
  2  3  1  0  0  0  0
  3  4  2  0  0  0  0
  4  5  1  0  0  0  0
  5  6  2  0  0  0  0
  6  1  1  0  0  0  0
  6  7  1  0  0  0  0
  7  8  1  0  0  0  0
  8  9  1  0  0  0  0
  9 10  1  0  0  0  0
  8 11  2  0  0  0  0
  7 12  2  0  0  0  0
M  END
>  <cdx:fragmentId>
5

$$$$
