90806.cdx
  Mrv1902 05222410192D          

 34 36  0  0  0  0            999 V2000
    9.7404   -8.6693    0.0000 C   0  0  0  0  0  0  0  0  0  0  0  0
   10.4575   -9.0773    0.0000 C   0  0  0  0  0  0  0  0  0  0  0  0
    8.3115   -8.6783    0.0000 C   0  0  0  0  0  0  0  0  0  0  0  0
    9.0285   -9.0863    0.0000 C   0  0  0  0  0  0  0  0  0  0  0  0
    9.0337   -9.9113    0.0000 C   0  0  0  0  0  0  0  0  0  0  0  0
    8.3218  -10.3282    0.0000 C   0  0  0  0  0  0  0  0  0  0  0  0
    7.6048   -9.9202    0.0000 C   0  0  0  0  0  0  0  0  0  0  0  0
    6.8929  -10.3372    0.0000 C   0  0  0  0  0  0  0  0  0  0  0  0
    6.1759   -9.9292    0.0000 C   0  0  0  0  0  0  0  0  0  0  0  0
    6.1707   -9.1042    0.0000 C   0  0  0  0  0  0  0  0  0  0  0  0
    6.8826   -8.6872    0.0000 C   0  0  0  0  0  0  0  0  0  0  0  0
    7.5996   -9.0952    0.0000 C   0  0  0  0  0  0  0  0  0  0  0  0
    9.7507  -10.3193    0.0000 C   0  0  0  0  0  0  0  0  0  0  0  0
    5.4640  -10.3461    0.0000 O   0  0  0  0  0  0  0  0  0  0  0  0
    8.3063   -7.8533    0.0000 O   0  0  0  0  0  0  0  0  0  0  0  0
    9.7353   -7.8443    0.0000 O   0  0  0  0  0  0  0  0  0  0  0  0
    5.2275   -7.8743    0.0000 O   0  0  0  0  0  0  0  0  0  0  0  0
    4.3920   -6.4515    0.0000 O   0  0  0  0  0  0  0  0  0  0  0  0
    5.2065   -5.0165    0.0000 O   0  0  0  0  0  0  0  0  0  0  0  0
    6.4387   -4.2930    0.0000 O   0  0  0  0  0  0  0  0  0  0  0  0
    6.8565   -5.0044    0.0000 C   0  0  0  0  0  0  0  0  0  0  0  0
    6.4492   -5.7219    0.0000 C   0  0  2  0  0  0  0  0  0  0  0  0
    5.6242   -5.7279    0.0000 C   0  0  2  0  0  0  0  0  0  0  0  0
    5.2170   -6.4454    0.0000 C   0  0  1  0  0  0  0  0  0  0  0  0
    5.6347   -7.1568    0.0000 C   0  0  2  0  0  0  0  0  0  0  0  0
    6.4597   -7.1508    0.0000 C   0  0  1  0  0  0  0  0  0  0  0  0
    6.8669   -6.4333    0.0000 O   0  0  0  0  0  0  0  0  0  0  0  0
    6.8774   -7.8622    0.0000 O   0  0  0  0  0  0  0  0  0  0  0  0
    4.7470   -9.9381    0.0000 C   0  0  0  0  0  0  0  0  0  0  0  0
    4.0351  -10.3551    0.0000 C   0  0  0  0  0  0  0  0  0  0  0  0
    4.7418   -9.1131    0.0000 O   0  0  0  0  0  0  0  0  0  0  0  0
    3.3181   -9.9470    0.0000 C   0  0  0  0  0  0  0  0  0  0  0  0
    2.6062  -10.3640    0.0000 O   0  0  0  0  0  0  0  0  0  0  0  0
    3.3129   -9.1221    0.0000 O   0  0  0  0  0  0  0  0  0  0  0  0
 26 28  1  1  0  0  0
 25 17  1  6  0  0  0
 24 18  1  1  0  0  0
 23 19  1  6  0  0  0
 22 21  1  1  0  0  0
 21 20  1  0  0  0  0
 27 22  1  0  0  0  0
 23 22  1  0  0  0  0
 24 23  1  0  0  0  0
 25 24  1  0  0  0  0
 26 25  1  0  0  0  0
 27 26  1  0  0  0  0
  1  2  1  0  0  0  0
  3  4  1  0  0  0  0
  4  5  2  0  0  0  0
  5  6  1  0  0  0  0
  6  7  2  0  0  0  0
  7  8  1  0  0  0  0
  8  9  2  0  0  0  0
  9 10  1  0  0  0  0
 10 11  2  0  0  0  0
 11 12  1  0  0  0  0
  3 12  2  0  0  0  0
  7 12  1  0  0  0  0
 11 28  1  0  0  0  0
  5 13  1  0  0  0  0
  9 14  1  0  0  0  0
  3 15  1  0  0  0  0
  1  4  1  0  0  0  0
  1 16  2  0  0  0  0
 14 29  1  0  0  0  0
 29 30  1  0  0  0  0
 29 31  2  0  0  0  0
 30 32  1  0  0  0  0
 32 33  1  0  0  0  0
 32 34  2  0  0  0  0
M  END
>  <cdx:fragmentId>
156

$$$$
