90808.cdx
  Mrv1902 05222410262D          

 19 21  0  0  0  0            999 V2000
    8.7739   -8.3410    0.0000 C   0  0  0  0  0  0  0  0  0  0  0  0
    8.7739   -7.5160    0.0000 C   0  0  0  0  0  0  0  0  0  0  0  0
    8.0595   -7.1035    0.0000 C   0  0  0  0  0  0  0  0  0  0  0  0
    7.3450   -7.5160    0.0000 C   0  0  0  0  0  0  0  0  0  0  0  0
    7.3450   -8.3410    0.0000 C   0  0  0  0  0  0  0  0  0  0  0  0
    6.6305   -8.7535    0.0000 C   0  0  0  0  0  0  0  0  0  0  0  0
    5.9160   -8.3410    0.0000 C   0  0  0  0  0  0  0  0  0  0  0  0
    5.2016   -8.7535    0.0000 C   0  0  0  0  0  0  0  0  0  0  0  0
    5.2016   -9.5785    0.0000 C   0  0  0  0  0  0  0  0  0  0  0  0
    5.9160   -9.9910    0.0000 C   0  0  0  0  0  0  0  0  0  0  0  0
    6.6305   -9.5785    0.0000 C   0  0  0  0  0  0  0  0  0  0  0  0
    7.3450   -9.9910    0.0000 C   0  0  0  0  0  0  0  0  0  0  0  0
    8.0595   -9.5785    0.0000 C   0  0  0  0  0  0  0  0  0  0  0  0
    8.0595   -8.7535    0.0000 C   0  0  0  0  0  0  0  0  0  0  0  0
    6.6305   -7.1035    0.0000 O   0  0  0  0  0  0  0  0  0  0  0  0
    5.9160   -7.5160    0.0000 C   0  0  0  0  0  0  0  0  0  0  0  0
    9.4884   -7.1035    0.0000 O   0  0  0  0  0  0  0  0  0  0  0  0
   10.2029   -7.5160    0.0000 C   0  0  0  0  0  0  0  0  0  0  0  0
    4.4871   -9.9910    0.0000 O   0  0  0  0  0  0  0  0  0  0  0  0
  1  2  1  0  0  0  0
  2  3  2  0  0  0  0
  3  4  1  0  0  0  0
  4  5  2  0  0  0  0
  5  6  1  0  0  0  0
  6  7  2  0  0  0  0
  7  8  1  0  0  0  0
  8  9  2  0  0  0  0
  9 10  1  0  0  0  0
 10 11  2  0  0  0  0
  6 11  1  0  0  0  0
 11 12  1  0  0  0  0
 12 13  2  0  0  0  0
 13 14  1  0  0  0  0
  1 14  2  0  0  0  0
  5 14  1  0  0  0  0
 15 16  1  0  0  0  0
  4 15  1  0  0  0  0
 17 18  1  0  0  0  0
  2 17  1  0  0  0  0
  9 19  1  0  0  0  0
M  END
>  <cdx:fragmentId>
5

$$$$
