90803.cdx
  Mrv1902 05222410192D          

 63 69  0  0  0  0            999 V2000
    7.3681   -4.9901    0.0000 C   0  0  0  0  0  0  0  0  0  0  0  0
    7.3681   -5.8151    0.0000 C   0  0  0  0  0  0  0  0  0  0  0  0
    8.0825   -6.2276    0.0000 C   0  0  0  0  0  0  0  0  0  0  0  0
    8.7970   -5.8151    0.0000 C   0  0  0  0  0  0  0  0  0  0  0  0
    8.7970   -4.9901    0.0000 C   0  0  0  0  0  0  0  0  0  0  0  0
    8.0825   -4.5776    0.0000 C   0  0  0  0  0  0  0  0  0  0  0  0
    9.5115   -6.2276    0.0000 C   0  0  0  0  0  0  0  0  0  0  0  0
   10.2259   -5.8151    0.0000 C   0  0  0  0  0  0  0  0  0  0  0  0
   10.2259   -4.9901    0.0000 C   0  0  0  0  0  0  0  0  0  0  0  0
    9.5115   -4.5776    0.0000 O   0  0  0  0  0  0  0  0  0  0  0  0
   11.6549   -4.9901    0.0000 C   0  0  0  0  0  0  0  0  0  0  0  0
   10.9404   -4.5776    0.0000 C   0  0  0  0  0  0  0  0  0  0  0  0
   12.3694   -4.5776    0.0000 C   0  0  0  0  0  0  0  0  0  0  0  0
   12.3694   -3.7526    0.0000 C   0  0  0  0  0  0  0  0  0  0  0  0
   11.6549   -3.3401    0.0000 C   0  0  0  0  0  0  0  0  0  0  0  0
   10.9404   -3.7526    0.0000 C   0  0  0  0  0  0  0  0  0  0  0  0
    8.0825   -7.0526    0.0000 O   0  0  0  0  0  0  0  0  0  0  0  0
    9.5115   -7.0526    0.0000 O   0  0  0  0  0  0  0  0  0  0  0  0
    6.6536   -4.5776    0.0000 O   0  0  0  0  0  0  0  0  0  0  0  0
    5.9391   -4.9901    0.0000 C   0  0  0  0  0  0  0  0  0  0  0  0
    6.6536   -6.2276    0.0000 C   0  0  2  0  0  0  0  0  0  0  0  0
   13.0838   -3.3401    0.0000 O   0  0  0  0  0  0  0  0  0  0  0  0
    5.9391   -5.8151    0.0000 O   0  0  0  0  0  0  0  0  0  0  0  0
    5.2246   -6.2276    0.0000 C   0  0  1  0  0  0  0  0  0  0  0  0
    5.2246   -7.0526    0.0000 C   0  0  2  0  0  0  0  0  0  0  0  0
    5.9391   -7.4651    0.0000 C   0  0  1  0  0  0  0  0  0  0  0  0
    6.6536   -7.0526    0.0000 C   0  0  1  0  0  0  0  0  0  0  0  0
    4.5102   -5.8151    0.0000 C   0  0  0  0  0  0  0  0  0  0  0  0
    5.9391   -8.2901    0.0000 O   0  0  0  0  0  0  0  0  0  0  0  0
    7.3681   -7.4651    0.0000 O   0  0  0  0  0  0  0  0  0  0  0  0
    4.5102   -7.4651    0.0000 O   0  0  0  0  0  0  0  0  0  0  0  0
    3.7957   -6.2276    0.0000 O   0  0  0  0  0  0  0  0  0  0  0  0
    7.3681   -8.2901    0.0000 C   0  0  2  0  0  0  0  0  0  0  0  0
    6.6536   -8.7026    0.0000 O   0  0  0  0  0  0  0  0  0  0  0  0
    6.6536   -9.5276    0.0000 C   0  0  1  0  0  0  0  0  0  0  0  0
    7.3681   -9.9401    0.0000 C   0  0  2  0  0  0  0  0  0  0  0  0
    8.0825   -9.5276    0.0000 C   0  0  1  0  0  0  0  0  0  0  0  0
    8.0825   -8.7026    0.0000 C   0  0  1  0  0  0  0  0  0  0  0  0
    8.7970   -9.9401    0.0000 O   0  0  0  0  0  0  0  0  0  0  0  0
    5.9391   -9.9401    0.0000 C   0  0  0  0  0  0  0  0  0  0  0  0
    8.7970   -8.2901    0.0000 O   0  0  0  0  0  0  0  0  0  0  0  0
    7.3681  -10.7651    0.0000 O   0  0  0  0  0  0  0  0  0  0  0  0
    5.9391  -10.7651    0.0000 O   0  0  0  0  0  0  0  0  0  0  0  0
    2.3830  -14.4546    0.0000 C   0  0  0  0  0  0  0  0  0  0  0  0
    3.1000  -14.8627    0.0000 C   0  0  0  0  0  0  0  0  0  0  0  0
    3.8119  -14.4459    0.0000 C   0  0  0  0  0  0  0  0  0  0  0  0
    3.8069  -13.6209    0.0000 C   0  0  2  0  0  0  0  0  0  0  0  0
    3.0899  -13.2128    0.0000 C   0  0  1  0  0  0  0  0  0  0  0  0
    2.3779  -13.6296    0.0000 C   0  0  1  0  0  0  0  0  0  0  0  0
    4.5188  -13.2040    0.0000 C   0  0  0  0  0  0  0  0  0  0  0  0
    3.7967  -11.9709    0.0000 C   0  0  0  0  0  0  0  0  0  0  0  0
    3.0848  -12.3878    0.0000 C   0  0  0  0  0  0  0  0  0  0  0  0
    5.2257  -11.9621    0.0000 O   0  0  0  0  0  0  0  0  0  0  0  0
    5.2206  -11.1372    0.0000 C   0  0  0  0  0  0  0  0  0  0  0  0
    4.5036  -10.7290    0.0000 C   0  0  0  0  0  0  0  0  0  0  0  0
    3.7917  -11.1459    0.0000 C   0  0  0  0  0  0  0  0  0  0  0  0
    3.1050  -15.6877    0.0000 O   0  0  0  0  0  0  0  0  0  0  0  0
    3.0747  -10.7378    0.0000 C   0  0  0  0  0  0  0  0  0  0  0  0
    1.6610  -13.2215    0.0000 C   0  0  0  0  0  0  0  0  0  0  0  0
    3.8018  -12.7959    0.0000 O   0  0  0  0  0  0  0  0  0  0  0  0
    3.2725  -14.2450    0.0000 O   0  0  0  0  0  0  0  0  0  0  0  0
    2.9700  -13.7500    0.0000 C   0  0  0  0  0  0  0  0  0  0  0  0
    6.6536   -5.4026    0.0000 H   0  0  0  0  0  0  0  0  0  0  0  0
  1  2  2  0  0  0  0
  2  3  1  0  0  0  0
  3  4  2  0  0  0  0
  4  5  1  0  0  0  0
  5  6  2  0  0  0  0
  6  1  1  0  0  0  0
  4  7  1  0  0  0  0
  7  8  1  0  0  0  0
  8  9  2  0  0  0  0
  9 10  1  0  0  0  0
 10  5  1  0  0  0  0
 11 12  2  0  0  0  0
 12  9  1  0  0  0  0
 11 13  1  0  0  0  0
 13 14  2  0  0  0  0
 14 15  1  0  0  0  0
 15 16  2  0  0  0  0
 16 12  1  0  0  0  0
  3 17  1  0  0  0  0
 18  7  2  0  0  0  0
  1 19  1  0  0  0  0
 19 20  1  0  0  0  0
 21  2  1  0  0  0  0
 14 22  1  0  0  0  0
 21 23  1  0  0  0  0
 23 24  1  0  0  0  0
 24 25  1  0  0  0  0
 25 26  1  0  0  0  0
 26 27  1  0  0  0  0
 27 21  1  0  0  0  0
 24 28  1  1  0  0  0
 26 29  1  1  0  0  0
 27 30  1  6  0  0  0
 25 31  1  6  0  0  0
 28 32  1  0  0  0  0
 33 30  1  1  0  0  0
 33 34  1  0  0  0  0
 34 35  1  0  0  0  0
 35 36  1  0  0  0  0
 36 37  1  0  0  0  0
 37 38  1  0  0  0  0
 38 33  1  0  0  0  0
 37 39  1  1  0  0  0
 35 40  1  1  0  0  0
 38 41  1  6  0  0  0
 36 42  1  6  0  0  0
 40 43  1  0  0  0  0
 44 45  1  0  0  0  0
 45 46  1  0  0  0  0
 46 47  1  0  0  0  0
 47 48  1  0  0  0  0
 48 49  1  0  0  0  0
 49 44  1  0  0  0  0
 47 50  1  1  0  0  0
 51 52  2  0  0  0  0
 52 48  1  0  0  0  0
 53 54  2  0  0  0  0
 54 55  1  0  0  0  0
 55 56  2  0  0  0  0
 56 51  1  0  0  0  0
 45 57  2  0  0  0  0
 56 58  1  0  0  0  0
 49 59  1  1  0  0  0
 48 60  1  6  0  0  0
 47 61  1  6  0  0  0
 61 62  1  0  0  0  0
 54 43  1  0  0  0  0
 21 63  1  6  0  0  0
 49 62  1  6  0  0  0
M  END
>  <cdx:fragmentId>
5

$$$$
