908174.cdx
  Mrv1902 05222410202D          

 10 11  0  0  0  0            999 V2000
    6.0052   -6.9919    0.0000 C   0  0  0  0  0  0  0  0  0  0  0  0
    6.0052   -7.8169    0.0000 C   0  0  0  0  0  0  0  0  0  0  0  0
    6.7196   -8.2294    0.0000 C   0  0  0  0  0  0  0  0  0  0  0  0
    7.4341   -7.8169    0.0000 C   0  0  0  0  0  0  0  0  0  0  0  0
    7.4341   -6.9919    0.0000 C   0  0  0  0  0  0  0  0  0  0  0  0
    6.7196   -6.5794    0.0000 C   0  0  0  0  0  0  0  0  0  0  0  0
    5.2907   -6.5794    0.0000 C   0  0  0  0  0  0  0  0  0  0  0  0
    8.1486   -7.4044    0.0000 C   0  0  0  0  0  0  0  0  0  0  0  0
    8.8630   -6.9919    0.0000 C   0  0  0  0  0  0  0  0  0  0  0  0
    8.8630   -7.8169    0.0000 C   0  0  0  0  0  0  0  0  0  0  0  0
  1  2  1  0  0  0  0
  2  3  1  0  0  0  0
  3  4  1  0  0  0  0
  4  5  1  0  0  0  0
  5  6  1  0  0  0  0
  6  1  1  0  0  0  0
  1  7  1  0  0  0  0
  5  8  1  0  0  0  0
  4  8  1  0  0  0  0
  8  9  1  0  0  0  0
  8 10  1  0  0  0  0
M  END
>  <cdx:fragmentId>
5

$$$$
