90818.cdx
  Mrv1902 05222410282D          

 26 28  0  0  0  0            999 V2000
    7.3956   -6.3926    0.0000 C   0  0  1  0  0  0  0  0  0  0  0  0
    7.3956   -7.2176    0.0000 C   0  0  2  0  0  0  0  0  0  0  0  0
    8.1100   -7.6301    0.0000 C   0  0  1  0  0  0  0  0  0  0  0  0
    8.8245   -7.2176    0.0000 O   0  0  0  0  0  0  0  0  0  0  0  0
    8.8245   -6.3926    0.0000 C   0  0  2  0  0  0  0  0  0  0  0  0
    8.1100   -5.9801    0.0000 C   0  0  0  0  0  0  0  0  0  0  0  0
    6.6109   -6.1377    0.0000 C   0  0  0  0  0  0  0  0  0  0  0  0
    6.1260   -6.8051    0.0000 C   0  0  1  0  0  0  0  0  0  0  0  0
    6.6109   -7.4726    0.0000 C   0  0  1  0  0  0  0  0  0  0  0  0
    8.1100   -5.1551    0.0000 C   0  0  0  0  0  0  0  0  0  0  0  0
   10.2666   -9.6696    0.0000 C   0  0  0  0  0  0  0  0  0  0  0  0
    9.5654  -10.9147    0.0000 C   0  0  0  0  0  0  0  0  0  0  0  0
    9.5566  -10.0897    0.0000 C   0  0  0  0  0  0  0  0  0  0  0  0
    8.8377   -9.6849    0.0000 C   0  0  0  0  0  0  0  0  0  0  0  0
    9.5389   -8.4398    0.0000 O   0  0  0  0  0  0  0  0  0  0  0  0
    8.8289   -8.8600    0.0000 C   0  0  0  0  0  0  0  0  0  0  0  0
    8.1100   -8.4551    0.0000 O   0  0  0  0  0  0  0  0  0  0  0  0
    6.3560   -8.2572    0.0000 C   0  0  0  0  0  0  0  0  0  0  0  0
    5.5591   -8.4707    0.0000 Cl  0  0  0  0  0  0  0  0  0  0  0  0
    5.3010   -6.8051    0.0000 O   0  0  0  0  0  0  0  0  0  0  0  0
    4.5865   -6.3926    0.0000 C   0  0  0  0  0  0  0  0  0  0  0  0
    3.8721   -6.8051    0.0000 C   0  0  0  0  0  0  0  0  0  0  0  0
    4.5865   -5.5676    0.0000 O   0  0  0  0  0  0  0  0  0  0  0  0
    7.3956   -5.5676    0.0000 O   0  0  0  0  0  0  0  0  0  0  0  0
    6.9850   -6.7100    0.0000 O   0  0  0  0  0  0  0  0  0  0  0  0
    7.3956   -8.0426    0.0000 H   0  0  0  0  0  0  0  0  0  0  0  0
  1  2  1  0  0  0  0
  2  3  1  0  0  0  0
  3  4  1  0  0  0  0
  4  5  1  0  0  0  0
  5  6  1  0  0  0  0
  6  1  1  0  0  0  0
  1  7  1  0  0  0  0
  7  8  1  0  0  0  0
  8  9  1  0  0  0  0
  9  2  1  0  0  0  0
  6 10  2  0  0  0  0
 13 11  1  0  0  0  0
  3 17  1  1  0  0  0
 13 12  1  0  0  0  0
 14 13  1  0  0  0  0
 16 14  1  0  0  0  0
 16 15  2  0  0  0  0
 17 16  1  0  0  0  0
  9 18  1  1  0  0  0
 18 19  1  0  0  0  0
  8 20  1  1  0  0  0
 20 21  1  0  0  0  0
 21 22  1  0  0  0  0
 21 23  2  0  0  0  0
  1 24  1  1  0  0  0
  9 25  1  6  0  0  0
  5 25  1  6  0  0  0
  2 26  1  1  0  0  0
M  END
>  <cdx:fragmentId>
5

$$$$
