90811.cdx
  Mrv1902 05222410202D          

 38 39  0  0  0  0            999 V2000
    7.5331   -7.1626    0.0000 C   0  0  0  0  0  0  0  0  0  0  0  0
    7.5331   -7.9876    0.0000 C   0  0  2  0  0  0  0  0  0  0  0  0
    8.2475   -8.4001    0.0000 C   0  0  1  0  0  0  0  0  0  0  0  0
    8.9620   -7.9876    0.0000 O   0  0  0  0  0  0  0  0  0  0  0  0
    8.9620   -7.1626    0.0000 C   0  0  0  0  0  0  0  0  0  0  0  0
    8.2475   -6.7501    0.0000 C   0  0  0  0  0  0  0  0  0  0  0  0
    6.7484   -6.9077    0.0000 C   0  0  0  0  0  0  0  0  0  0  0  0
    6.2635   -7.5751    0.0000 C   0  0  1  0  0  0  0  0  0  0  0  0
    6.7484   -8.2426    0.0000 C   0  0  2  0  0  0  0  0  0  0  0  0
    8.2475   -5.9251    0.0000 C   0  0  0  0  0  0  0  0  0  0  0  0
    8.9620   -5.5126    0.0000 O   0  0  0  0  0  0  0  0  0  0  0  0
    6.1651   -8.8260    0.0000 C   0  0  0  0  0  0  0  0  0  0  0  0
    5.4385   -7.5751    0.0000 O   0  0  0  0  0  0  0  0  0  0  0  0
    7.5331   -8.8126    0.0000 H   0  0  0  0  0  0  0  0  0  0  0  0
    8.2475   -9.2251    0.0000 O   0  0  0  0  0  0  0  0  0  0  0  0
    6.9620   -9.0395    0.0000 O   0  0  0  0  0  0  0  0  0  0  0  0
    8.9620   -9.6376    0.0000 C   0  0  0  0  0  0  0  0  0  0  0  0
    8.9620  -10.4626    0.0000 C   0  0  0  0  0  0  0  0  0  0  0  0
    9.6765   -9.2251    0.0000 O   0  0  0  0  0  0  0  0  0  0  0  0
    9.6765  -10.8751    0.0000 C   0  0  0  0  0  0  0  0  0  0  0  0
    9.6765  -11.7001    0.0000 C   0  0  0  0  0  0  0  0  0  0  0  0
   10.3909  -10.4626    0.0000 C   0  0  0  0  0  0  0  0  0  0  0  0
    4.7179   -7.1734    0.0000 C   0  0  0  0  0  0  0  0  0  0  0  0
    4.0097   -7.5966    0.0000 C   0  0  0  0  0  0  0  0  0  0  0  0
    4.7056   -6.3485    0.0000 O   0  0  0  0  0  0  0  0  0  0  0  0
    9.6765   -4.2751    0.0000 C   0  0  0  0  0  0  0  0  0  0  0  0
    8.2475   -4.2751    0.0000 O   0  0  0  0  0  0  0  0  0  0  0  0
    8.9620   -4.6876    0.0000 C   0  0  0  0  0  0  0  0  0  0  0  0
    9.6765   -3.4501    0.0000 C   0  0  0  0  0  0  0  0  0  0  0  0
   10.3909   -3.0376    0.0000 C   0  0  0  0  0  0  0  0  0  0  0  0
    8.9620   -3.0376    0.0000 C   0  0  0  0  0  0  0  0  0  0  0  0
    5.3401   -8.8260    0.0000 O   0  0  0  0  0  0  0  0  0  0  0  0
    4.9276   -9.5404    0.0000 C   0  0  0  0  0  0  0  0  0  0  0  0
    4.1026   -9.5404    0.0000 C   0  0  0  0  0  0  0  0  0  0  0  0
    5.3401  -10.2549    0.0000 O   0  0  0  0  0  0  0  0  0  0  0  0
    3.6901  -10.2549    0.0000 C   0  0  0  0  0  0  0  0  0  0  0  0
    2.8651  -10.2549    0.0000 C   0  0  0  0  0  0  0  0  0  0  0  0
    4.1026  -10.9694    0.0000 C   0  0  0  0  0  0  0  0  0  0  0  0
  1  2  1  0  0  0  0
  2  3  1  0  0  0  0
  3  4  1  0  0  0  0
  4  5  1  0  0  0  0
  5  6  2  0  0  0  0
  6  1  1  0  0  0  0
  1  7  2  0  0  0  0
  7  8  1  0  0  0  0
  8  9  1  0  0  0  0
  9  2  1  0  0  0  0
  6 10  1  0  0  0  0
 10 11  1  0  0  0  0
  9 12  1  1  0  0  0
  8 13  1  1  0  0  0
  2 14  1  1  0  0  0
  3 15  1  1  0  0  0
  9 16  1  6  0  0  0
 15 17  1  0  0  0  0
 17 18  1  0  0  0  0
 17 19  2  0  0  0  0
 18 20  1  0  0  0  0
 20 21  1  0  0  0  0
 20 22  1  0  0  0  0
 13 23  1  0  0  0  0
 23 24  1  0  0  0  0
 23 25  2  0  0  0  0
 28 26  1  0  0  0  0
 11 28  1  0  0  0  0
 28 27  2  0  0  0  0
 26 29  1  0  0  0  0
 29 30  1  0  0  0  0
 29 31  1  0  0  0  0
 12 32  1  0  0  0  0
 32 33  1  0  0  0  0
 33 34  1  0  0  0  0
 33 35  2  0  0  0  0
 34 36  1  0  0  0  0
 36 37  1  0  0  0  0
 36 38  1  0  0  0  0
M  END
>  <cdx:fragmentId>
6

$$$$
