90815.cdx
  Mrv1902 05222410182D          

 31 35  0  0  0  0            999 V2000
    4.3706   -9.1839    0.0000 C   0  0  0  0  0  0  0  0  0  0  0  0
    4.3706  -10.0089    0.0000 C   0  0  0  0  0  0  0  0  0  0  0  0
    5.0850  -10.4214    0.0000 O   0  0  0  0  0  0  0  0  0  0  0  0
    5.7995  -10.0089    0.0000 C   0  0  1  0  0  0  0  0  0  0  0  0
    5.7995   -9.1839    0.0000 C   0  0  1  0  0  0  0  0  0  0  0  0
    5.0850   -8.7714    0.0000 C   0  0  2  0  0  0  0  0  0  0  0  0
    6.5140  -10.4214    0.0000 C   0  0  0  0  0  0  0  0  0  0  0  0
    7.2284  -10.0089    0.0000 C   0  0  2  0  0  0  0  0  0  0  0  0
    7.2284   -9.1839    0.0000 C   0  0  1  0  0  0  0  0  0  0  0  0
    6.5140   -8.7714    0.0000 C   0  0  1  0  0  0  0  0  0  0  0  0
    7.9429  -10.4214    0.0000 C   0  0  0  0  0  0  0  0  0  0  0  0
    8.6574  -10.0089    0.0000 C   0  0  0  0  0  0  0  0  0  0  0  0
    8.6574   -9.1839    0.0000 C   0  0  1  0  0  0  0  0  0  0  0  0
    7.9429   -8.7714    0.0000 C   0  0  1  0  0  0  0  0  0  0  0  0
    6.5140   -7.9464    0.0000 C   0  0  2  0  0  0  0  0  0  0  0  0
    5.7995   -7.5339    0.0000 C   0  0  1  0  0  0  0  0  0  0  0  0
    5.0850   -7.9464    0.0000 C   0  0  2  0  0  0  0  0  0  0  0  0
    3.6561  -10.4214    0.0000 O   0  0  0  0  0  0  0  0  0  0  0  0
    7.9429  -11.2464    0.0000 C   0  0  0  0  0  0  0  0  0  0  0  0
    5.6757   -8.6619    0.0000 C   0  0  0  0  0  0  0  0  0  0  0  0
    5.9364   -8.0367    0.0000 O   0  0  0  0  0  0  0  0  0  0  0  0
    4.3706   -7.5339    0.0000 C   0  0  0  0  0  0  0  0  0  0  0  0
    5.7995   -6.7089    0.0000 O   0  0  0  0  0  0  0  0  0  0  0  0
    6.5140   -9.6293    0.0000 H   0  0  0  0  0  0  0  0  0  0  0  0
    9.3719   -8.7714    0.0000 O   0  0  0  0  0  0  0  0  0  0  0  0
    7.2284  -10.8339    0.0000 H   0  0  0  0  0  0  0  0  0  0  0  0
    5.0850   -9.6254    0.0000 H   0  0  0  0  0  0  0  0  0  0  0  0
    7.2284   -7.5339    0.0000 O   0  0  0  0  0  0  0  0  0  0  0  0
    7.2284   -8.3589    0.0000 C   0  0  0  0  0  0  0  0  0  0  0  0
    7.9429   -7.9464    0.0000 O   0  0  0  0  0  0  0  0  0  0  0  0
    5.7995  -10.8339    0.0000 H   0  0  0  0  0  0  0  0  0  0  0  0
  1  2  1  0  0  0  0
  2  3  1  0  0  0  0
  3  4  1  0  0  0  0
  4  5  1  0  0  0  0
  5  6  1  0  0  0  0
  6  1  1  0  0  0  0
  4  7  1  0  0  0  0
  7  8  1  0  0  0  0
  8  9  1  0  0  0  0
  9 10  1  0  0  0  0
 10  5  1  0  0  0  0
  8 11  1  0  0  0  0
 11 12  2  0  0  0  0
 12 13  1  0  0  0  0
 13 14  1  0  0  0  0
 14  9  1  0  0  0  0
 10 15  1  0  0  0  0
 15 16  1  0  0  0  0
 16 17  1  0  0  0  0
 17  6  1  0  0  0  0
  2 18  2  0  0  0  0
 11 19  1  0  0  0  0
  5 20  1  6  0  0  0
 20 21  1  0  0  0  0
 21 15  1  0  0  0  0
 17 22  1  1  0  0  0
 16 23  1  1  0  0  0
 10 24  1  1  0  0  0
 13 25  1  1  0  0  0
  8 26  1  1  0  0  0
  6 27  1  6  0  0  0
 15 28  1  6  0  0  0
  9 29  1  6  0  0  0
 14 30  1  6  0  0  0
  4 31  1  6  0  0  0
M  END
>  <cdx:fragmentId>
5

$$$$
