90817.cdx
  Mrv1902 05222410192D          

 32 33  0  0  0  0            999 V2000
    7.5331   -7.1626    0.0000 C   0  0  0  0  0  0  0  0  0  0  0  0
    7.5331   -7.9876    0.0000 C   0  0  2  0  0  0  0  0  0  0  0  0
    8.2475   -8.4001    0.0000 C   0  0  1  0  0  0  0  0  0  0  0  0
    8.9620   -7.9876    0.0000 O   0  0  0  0  0  0  0  0  0  0  0  0
    8.9620   -7.1626    0.0000 C   0  0  0  0  0  0  0  0  0  0  0  0
    8.2475   -6.7501    0.0000 C   0  0  0  0  0  0  0  0  0  0  0  0
    6.7484   -6.9077    0.0000 C   0  0  0  0  0  0  0  0  0  0  0  0
    6.2635   -7.5751    0.0000 C   0  0  1  0  0  0  0  0  0  0  0  0
    6.7484   -8.2426    0.0000 C   0  0  2  0  0  0  0  0  0  0  0  0
    8.2475   -5.9251    0.0000 C   0  0  0  0  0  0  0  0  0  0  0  0
    8.9620   -5.5126    0.0000 O   0  0  0  0  0  0  0  0  0  0  0  0
    6.0340   -8.6551    0.0000 C   0  0  0  0  0  0  0  0  0  0  0  0
    5.3195   -8.2426    0.0000 Cl  0  0  0  0  0  0  0  0  0  0  0  0
    5.4385   -7.5751    0.0000 O   0  0  0  0  0  0  0  0  0  0  0  0
    7.5331   -8.8126    0.0000 H   0  0  0  0  0  0  0  0  0  0  0  0
    8.2475   -9.2251    0.0000 O   0  0  0  0  0  0  0  0  0  0  0  0
    6.7484   -9.0676    0.0000 O   0  0  0  0  0  0  0  0  0  0  0  0
    8.9620   -9.6376    0.0000 C   0  0  0  0  0  0  0  0  0  0  0  0
    8.9620  -10.4626    0.0000 C   0  0  0  0  0  0  0  0  0  0  0  0
    9.6765   -9.2251    0.0000 O   0  0  0  0  0  0  0  0  0  0  0  0
    9.6765  -10.8751    0.0000 C   0  0  0  0  0  0  0  0  0  0  0  0
    9.6765  -11.7001    0.0000 C   0  0  0  0  0  0  0  0  0  0  0  0
   10.3909  -10.4626    0.0000 C   0  0  0  0  0  0  0  0  0  0  0  0
    4.7179   -7.1734    0.0000 C   0  0  0  0  0  0  0  0  0  0  0  0
    4.0097   -7.5966    0.0000 C   0  0  0  0  0  0  0  0  0  0  0  0
    4.7056   -6.3485    0.0000 O   0  0  0  0  0  0  0  0  0  0  0  0
    3.2892   -7.1948    0.0000 C   0  0  0  0  0  0  0  0  0  0  0  0
    2.5809   -7.6180    0.0000 C   0  0  0  0  0  0  0  0  0  0  0  0
    3.2768   -6.3699    0.0000 C   0  0  0  0  0  0  0  0  0  0  0  0
    9.6765   -4.2751    0.0000 C   0  0  0  0  0  0  0  0  0  0  0  0
    8.2475   -4.2751    0.0000 O   0  0  0  0  0  0  0  0  0  0  0  0
    8.9620   -4.6876    0.0000 C   0  0  0  0  0  0  0  0  0  0  0  0
  1  2  1  0  0  0  0
  2  3  1  0  0  0  0
  3  4  1  0  0  0  0
  4  5  1  0  0  0  0
  5  6  2  0  0  0  0
  6  1  1  0  0  0  0
  1  7  2  0  0  0  0
  7  8  1  0  0  0  0
  8  9  1  0  0  0  0
  9  2  1  0  0  0  0
  6 10  1  0  0  0  0
 10 11  1  0  0  0  0
  9 12  1  0  0  0  0
 12 13  1  0  0  0  0
  8 14  1  1  0  0  0
  2 15  1  1  0  0  0
  3 16  1  1  0  0  0
  9 17  1  6  0  0  0
 16 18  1  0  0  0  0
 18 19  1  0  0  0  0
 18 20  2  0  0  0  0
 19 21  1  0  0  0  0
 21 22  1  0  0  0  0
 21 23  1  0  0  0  0
 14 24  1  0  0  0  0
 24 25  1  0  0  0  0
 24 26  2  0  0  0  0
 25 27  1  0  0  0  0
 27 28  1  0  0  0  0
 27 29  1  0  0  0  0
 32 30  1  0  0  0  0
 11 32  1  0  0  0  0
 32 31  2  0  0  0  0
M  END
>  <cdx:fragmentId>
6

$$$$
