90810.cdx
  Mrv1902 05222410202D          

 12 12  0  0  0  0            999 V2000
    6.6393   -8.1939    0.0000 C   0  0  0  0  0  0  0  0  0  0  0  0
    6.6393   -9.0189    0.0000 C   0  0  0  0  0  0  0  0  0  0  0  0
    7.3538   -9.4314    0.0000 C   0  0  0  0  0  0  0  0  0  0  0  0
    8.0682   -9.0189    0.0000 C   0  0  0  0  0  0  0  0  0  0  0  0
    8.0682   -8.1939    0.0000 C   0  0  0  0  0  0  0  0  0  0  0  0
    7.3538   -7.7814    0.0000 C   0  0  0  0  0  0  0  0  0  0  0  0
    7.3538  -10.2564    0.0000 C   0  0  0  0  0  0  0  0  0  0  0  0
    5.9248   -7.7814    0.0000 O   0  0  0  0  0  0  0  0  0  0  0  0
    6.9413   -7.0669    0.0000 C   0  0  0  0  0  0  0  0  0  0  0  0
    7.7663   -7.0669    0.0000 C   0  0  0  0  0  0  0  0  0  0  0  0
    7.3538   -6.3525    0.0000 C   0  0  0  0  0  0  0  0  0  0  0  0
    8.5913   -7.0669    0.0000 C   0  0  0  0  0  0  0  0  0  0  0  0
  1  2  1  0  0  0  0
  2  3  1  0  0  0  0
  3  4  1  0  0  0  0
  4  5  1  0  0  0  0
  5  6  1  0  0  0  0
  6  1  1  0  0  0  0
  3  7  1  0  0  0  0
  1  8  2  0  0  0  0
  6  9  1  0  0  0  0
  6 10  1  0  0  0  0
 10 11  2  0  0  0  0
 10 12  1  0  0  0  0
M  END
>  <cdx:fragmentId>
5

$$$$
