90813.cdx
  Mrv1902 05222410192D          

 35 38  0  0  0  0            999 V2000
    3.4081   -9.4589    0.0000 C   0  0  0  0  0  0  0  0  0  0  0  0
    3.4081  -10.2839    0.0000 C   0  0  1  0  0  0  0  0  0  0  0  0
    4.1225  -10.6964    0.0000 C   0  0  0  0  0  0  0  0  0  0  0  0
    4.8370  -10.2839    0.0000 C   0  0  0  0  0  0  0  0  0  0  0  0
    4.8370   -9.4589    0.0000 C   0  0  2  0  0  0  0  0  0  0  0  0
    4.1225   -9.0464    0.0000 C   0  0  0  0  0  0  0  0  0  0  0  0
    5.5515  -10.6964    0.0000 C   0  0  0  0  0  0  0  0  0  0  0  0
    6.2659  -10.2839    0.0000 C   0  0  0  0  0  0  0  0  0  0  0  0
    6.2659   -9.4589    0.0000 C   0  0  2  0  0  0  0  0  0  0  0  0
    5.5515   -9.0464    0.0000 C   0  0  2  0  0  0  0  0  0  0  0  0
    6.9804   -9.0464    0.0000 C   0  0  1  0  0  0  0  0  0  0  0  0
    6.9804   -8.2214    0.0000 C   0  0  2  0  0  0  0  0  0  0  0  0
    6.2659   -7.8089    0.0000 C   0  0  0  0  0  0  0  0  0  0  0  0
    5.5515   -8.2214    0.0000 C   0  0  0  0  0  0  0  0  0  0  0  0
    7.7650   -9.3013    0.0000 C   0  0  0  0  0  0  0  0  0  0  0  0
    8.2500   -8.6339    0.0000 C   0  0  0  0  0  0  0  0  0  0  0  0
    7.7650   -7.9665    0.0000 C   0  0  2  0  0  0  0  0  0  0  0  0
    2.6936  -10.6964    0.0000 O   0  0  0  0  0  0  0  0  0  0  0  0
    4.8370   -8.6339    0.0000 C   0  0  0  0  0  0  0  0  0  0  0  0
    6.2659   -8.6339    0.0000 H   0  0  0  0  0  0  0  0  0  0  0  0
    7.0666   -7.4009    0.0000 C   0  0  0  0  0  0  0  0  0  0  0  0
    8.0200   -7.1818    0.0000 C   0  0  2  0  0  0  0  0  0  0  0  0
    7.4679   -6.5687    0.0000 C   0  0  0  0  0  0  0  0  0  0  0  0
    5.5515   -9.8714    0.0000 H   0  0  0  0  0  0  0  0  0  0  0  0
    7.0666   -9.8669    0.0000 H   0  0  0  0  0  0  0  0  0  0  0  0
    9.8889   -6.0542    0.0000 C   0  0  0  0  0  0  0  0  0  0  0  0
    9.0819   -6.2257    0.0000 C   0  0  0  0  0  0  0  0  0  0  0  0
    8.8269   -7.0103    0.0000 C   0  0  0  0  0  0  0  0  0  0  0  0
    8.5497   -7.7115    0.0000 H   0  0  0  0  0  0  0  0  0  0  0  0
    9.6753   -5.2573    0.0000 O   0  0  0  0  0  0  0  0  0  0  0  0
   10.1024   -6.8511    0.0000 C   0  0  0  0  0  0  0  0  0  0  0  0
   10.6958   -5.8826    0.0000 C   0  0  0  0  0  0  0  0  0  0  0  0
   11.2479   -6.4957    0.0000 C   0  0  0  0  0  0  0  0  0  0  0  0
   10.9508   -5.0980    0.0000 C   0  0  0  0  0  0  0  0  0  0  0  0
   10.8993   -7.0646    0.0000 C   0  0  0  0  0  0  0  0  0  0  0  0
  1  2  1  0  0  0  0
  2  3  1  0  0  0  0
  3  4  1  0  0  0  0
  4  5  1  0  0  0  0
  5  6  1  0  0  0  0
  6  1  1  0  0  0  0
  4  7  2  0  0  0  0
  7  8  1  0  0  0  0
  8  9  1  0  0  0  0
  9 10  1  0  0  0  0
 10  5  1  0  0  0  0
  9 11  1  0  0  0  0
 11 12  1  0  0  0  0
 12 13  1  0  0  0  0
 13 14  1  0  0  0  0
 14 10  1  0  0  0  0
 11 15  1  0  0  0  0
 15 16  1  0  0  0  0
 16 17  1  0  0  0  0
 17 12  1  0  0  0  0
  2 18  1  1  0  0  0
  5 19  1  1  0  0  0
  9 20  1  1  0  0  0
 12 21  1  1  0  0  0
 17 22  1  0  0  0  0
 22 23  1  6  0  0  0
 22 28  1  0  0  0  0
 10 24  1  6  0  0  0
 11 25  1  6  0  0  0
 27 26  1  0  0  0  0
 28 27  1  0  0  0  0
 17 29  1  6  0  0  0
 26 30  1  1  0  0  0
 26 31  1  0  0  0  0
 26 32  1  0  0  0  0
 32 33  1  0  0  0  0
 32 34  1  0  0  0  0
 31 35  2  0  0  0  0
M  END
>  <cdx:fragmentId>
5

$$$$
