90827.cdx
  Mrv1902 05222410272D          

 15 15  0  0  0  0            999 V2000
   10.8056   -8.4139    0.0000 C   0  0  0  0  0  0  0  0  0  0  0  0
   10.0911   -8.0014    0.0000 C   0  0  0  0  0  0  0  0  0  0  0  0
    8.6621   -7.1764    0.0000 O   0  0  0  0  0  0  0  0  0  0  0  0
    9.3766   -8.4139    0.0000 O   0  0  0  0  0  0  0  0  0  0  0  0
    8.6621   -8.0014    0.0000 C   0  0  0  0  0  0  0  0  0  0  0  0
    7.9477   -8.4139    0.0000 C   0  0  0  0  0  0  0  0  0  0  0  0
    7.2332   -8.0014    0.0000 C   0  0  0  0  0  0  0  0  0  0  0  0
    4.3753   -9.6514    0.0000 O   0  0  0  0  0  0  0  0  0  0  0  0
    4.3753   -8.0014    0.0000 O   0  0  0  0  0  0  0  0  0  0  0  0
    5.8043   -8.0014    0.0000 C   0  0  0  0  0  0  0  0  0  0  0  0
    5.0898   -8.4139    0.0000 C   0  0  0  0  0  0  0  0  0  0  0  0
    5.0898   -9.2389    0.0000 C   0  0  0  0  0  0  0  0  0  0  0  0
    5.8043   -9.6514    0.0000 C   0  0  0  0  0  0  0  0  0  0  0  0
    6.5187   -9.2389    0.0000 C   0  0  0  0  0  0  0  0  0  0  0  0
    6.5187   -8.4139    0.0000 C   0  0  0  0  0  0  0  0  0  0  0  0
  2  1  1  0  0  0  0
  4  2  1  0  0  0  0
  5  3  2  0  0  0  0
  5  4  1  0  0  0  0
  6  5  1  0  0  0  0
  7  6  2  0  0  0  0
 15  7  1  0  0  0  0
 12  8  1  0  0  0  0
 11  9  1  0  0  0  0
 10 15  1  0  0  0  0
 11 10  2  0  0  0  0
 12 11  1  0  0  0  0
 13 12  2  0  0  0  0
 14 13  1  0  0  0  0
 15 14  2  0  0  0  0
M  END
>  <cdx:fragmentId>
5

$$$$
