90822.cdx
  Mrv1902 05222410272D          

 22 21  0  0  0  0            999 V2000
   12.2080   -9.6763    0.0000 C   0  0  0  0  0  0  0  0  0  0  0  0
   12.2339  -10.5009    0.0000 C   0  0  0  0  0  0  0  0  0  0  0  0
   11.5327  -10.9356    0.0000 C   0  0  0  0  0  0  0  0  0  0  0  0
   11.5585  -11.7602    0.0000 C   0  0  0  0  0  0  0  0  0  0  0  0
   10.8573  -12.1949    0.0000 C   0  0  0  0  0  0  0  0  0  0  0  0
   10.8831  -13.0194    0.0000 C   0  0  0  0  0  0  0  0  0  0  0  0
   10.1819  -13.4541    0.0000 C   0  0  0  0  0  0  0  0  0  0  0  0
   11.4850   -9.2790    0.0000 C   0  0  0  0  0  0  0  0  0  0  0  0
   11.4633   -8.4546    0.0000 C   0  0  0  0  0  0  0  0  0  0  0  0
   10.7484   -8.0428    0.0000 C   0  0  0  0  0  0  0  0  0  0  0  0
   10.0343   -8.4559    0.0000 C   0  0  0  0  0  0  0  0  0  0  0  0
    9.3195   -8.0441    0.0000 C   0  0  0  0  0  0  0  0  0  0  0  0
    8.6054   -8.4572    0.0000 C   0  0  0  0  0  0  0  0  0  0  0  0
    7.8905   -8.0454    0.0000 C   0  0  0  0  0  0  0  0  0  0  0  0
    7.1765   -8.4586    0.0000 C   0  0  0  0  0  0  0  0  0  0  0  0
    6.4616   -8.0467    0.0000 C   0  0  0  0  0  0  0  0  0  0  0  0
    5.7475   -8.4599    0.0000 C   0  0  0  0  0  0  0  0  0  0  0  0
    5.0327   -8.0480    0.0000 C   0  0  0  0  0  0  0  0  0  0  0  0
    4.3186   -8.4612    0.0000 O   0  0  0  0  0  0  0  0  0  0  0  0
    3.6037   -8.0494    0.0000 C   0  0  0  0  0  0  0  0  0  0  0  0
    2.8896   -8.4625    0.0000 C   0  0  0  0  0  0  0  0  0  0  0  0
    2.1748   -8.0507    0.0000 O   0  0  0  0  0  0  0  0  0  0  0  0
  1  2  2  0  0  0  0
  2  3  1  0  0  0  0
  3  4  1  0  0  0  0
  4  5  1  0  0  0  0
  5  6  1  0  0  0  0
  6  7  1  0  0  0  0
  1  8  1  0  0  0  0
 10  9  2  0  0  0  0
 11 10  1  0  0  0  0
 12 11  1  0  0  0  0
 13 12  1  0  0  0  0
 14 13  1  0  0  0  0
 15 14  1  0  0  0  0
 16 15  1  0  0  0  0
 17 16  1  0  0  0  0
 18 17  1  0  0  0  0
 19 18  1  0  0  0  0
 20 19  1  0  0  0  0
 21 20  1  0  0  0  0
 22 21  1  0  0  0  0
  8  9  1  0  0  0  0
M  END
>  <cdx:fragmentId>
26

$$$$
