90824.cdx
  Mrv1902 05222410282D          

 28 29  0  0  0  0            999 V2000
    5.7318   -8.1939    0.0000 C   0  0  0  0  0  0  0  0  0  0  0  0
    5.7318   -9.0189    0.0000 C   0  0  2  0  0  0  0  0  0  0  0  0
    6.4463   -9.4314    0.0000 C   0  0  1  0  0  0  0  0  0  0  0  0
    7.1607   -9.0189    0.0000 C   0  0  1  0  0  0  0  0  0  0  0  0
    7.1607   -8.1939    0.0000 C   0  0  0  0  0  0  0  0  0  0  0  0
    6.4463   -7.7814    0.0000 C   0  0  2  0  0  0  0  0  0  0  0  0
    7.8752   -9.4314    0.0000 O   0  0  0  0  0  0  0  0  0  0  0  0
    6.4463  -10.2564    0.0000 O   0  0  0  0  0  0  0  0  0  0  0  0
    5.0173   -9.4314    0.0000 O   0  0  0  0  0  0  0  0  0  0  0  0
    8.5863  -13.1559    0.0000 C   0  0  0  0  0  0  0  0  0  0  0  0
    7.8722  -12.7428    0.0000 C   0  0  0  0  0  0  0  0  0  0  0  0
    7.1573  -13.1547    0.0000 C   0  0  0  0  0  0  0  0  0  0  0  0
    7.1566  -13.9797    0.0000 C   0  0  0  0  0  0  0  0  0  0  0  0
    7.8708  -14.3928    0.0000 C   0  0  0  0  0  0  0  0  0  0  0  0
    8.5856  -13.9809    0.0000 C   0  0  0  0  0  0  0  0  0  0  0  0
    7.8729  -11.9178    0.0000 C   0  0  0  0  0  0  0  0  0  0  0  0
    7.1587  -11.5047    0.0000 C   0  0  0  0  0  0  0  0  0  0  0  0
    7.1594  -10.6797    0.0000 C   0  0  0  0  0  0  0  0  0  0  0  0
    7.8743  -10.2678    0.0000 O   0  0  0  0  0  0  0  0  0  0  0  0
    7.8701  -15.2178    0.0000 O   0  0  0  0  0  0  0  0  0  0  0  0
    6.4418  -14.3916    0.0000 O   0  0  0  0  0  0  0  0  0  0  0  0
    6.4411  -15.2166    0.0000 C   0  0  0  0  0  0  0  0  0  0  0  0
    6.0338   -7.0669    0.0000 O   0  0  0  0  0  0  0  0  0  0  0  0
    6.8588   -7.0669    0.0000 C   0  0  0  0  0  0  0  0  0  0  0  0
    6.4463   -6.3525    0.0000 O   0  0  0  0  0  0  0  0  0  0  0  0
    7.6838   -7.0669    0.0000 O   0  0  0  0  0  0  0  0  0  0  0  0
    8.0963   -6.3525    0.0000 C   0  0  0  0  0  0  0  0  0  0  0  0
    8.9213   -6.3525    0.0000 C   0  0  0  0  0  0  0  0  0  0  0  0
  1  2  1  0  0  0  0
  2  3  1  0  0  0  0
  3  4  1  0  0  0  0
  4  5  1  0  0  0  0
  5  6  1  0  0  0  0
  6  1  1  0  0  0  0
  4  7  1  1  0  0  0
  3  8  1  1  0  0  0
  2  9  1  6  0  0  0
 10 11  2  0  0  0  0
 11 12  1  0  0  0  0
 12 13  2  0  0  0  0
 13 14  1  0  0  0  0
 14 15  2  0  0  0  0
 15 10  1  0  0  0  0
 11 16  1  0  0  0  0
 16 17  2  0  0  0  0
 17 18  1  0  0  0  0
 18 19  2  0  0  0  0
 14 20  1  0  0  0  0
 13 21  1  0  0  0  0
 21 22  1  0  0  0  0
 18  8  1  0  0  0  0
  6 23  1  1  0  0  0
  6 24  1  0  0  0  0
 24 25  2  0  0  0  0
 24 26  1  0  0  0  0
 26 27  1  0  0  0  0
 27 28  1  0  0  0  0
M  END
>  <cdx:fragmentId>
5

$$$$
