90826.cdx
  Mrv1902 05222410272D          

 37 40  0  0  0  0            999 V2000
    3.3256  -10.8614    0.0000 C   0  0  0  0  0  0  0  0  0  0  0  0
    3.3256  -11.6864    0.0000 C   0  0  0  0  0  0  0  0  0  0  0  0
    4.0400  -12.0989    0.0000 C   0  0  0  0  0  0  0  0  0  0  0  0
    4.7545  -11.6864    0.0000 C   0  0  1  0  0  0  0  0  0  0  0  0
    4.7545  -10.8614    0.0000 C   0  0  2  0  0  0  0  0  0  0  0  0
    4.0400  -10.4489    0.0000 C   0  0  0  0  0  0  0  0  0  0  0  0
    5.4690  -12.0989    0.0000 C   0  0  0  0  0  0  0  0  0  0  0  0
    6.1834  -11.6864    0.0000 C   0  0  1  0  0  0  0  0  0  0  0  0
    6.1834  -10.8614    0.0000 C   0  0  0  0  0  0  0  0  0  0  0  0
    5.4690  -10.4489    0.0000 C   0  0  0  0  0  0  0  0  0  0  0  0
    6.8979  -10.4489    0.0000 C   0  0  1  0  0  0  0  0  0  0  0  0
    6.8979   -9.6239    0.0000 C   0  0  2  0  0  0  0  0  0  0  0  0
    6.1834   -9.2114    0.0000 C   0  0  0  0  0  0  0  0  0  0  0  0
    5.4690   -9.6239    0.0000 C   0  0  0  0  0  0  0  0  0  0  0  0
    7.6825  -10.7038    0.0000 C   0  0  0  0  0  0  0  0  0  0  0  0
    8.1675  -10.0364    0.0000 C   0  0  0  0  0  0  0  0  0  0  0  0
    7.6825   -9.3690    0.0000 C   0  0  2  0  0  0  0  0  0  0  0  0
    2.6111  -12.0989    0.0000 O   0  0  0  0  0  0  0  0  0  0  0  0
    3.6275  -12.8134    0.0000 C   0  0  0  0  0  0  0  0  0  0  0  0
    4.4525  -12.8134    0.0000 C   0  0  0  0  0  0  0  0  0  0  0  0
    4.7545   -9.2114    0.0000 O   0  0  0  0  0  0  0  0  0  0  0  0
    7.9375  -11.4885    0.0000 O   0  0  0  0  0  0  0  0  0  0  0  0
    7.9375   -8.5843    0.0000 C   0  0  2  0  0  0  0  0  0  0  0  0
    7.3854   -7.9712    0.0000 C   0  0  0  0  0  0  0  0  0  0  0  0
    8.7444   -8.4128    0.0000 C   0  0  0  0  0  0  0  0  0  0  0  0
    9.1569   -7.6983    0.0000 C   0  0  0  0  0  0  0  0  0  0  0  0
    9.9819   -7.6983    0.0000 C   0  0  0  0  0  0  0  0  0  0  0  0
   10.3944   -6.9839    0.0000 O   0  0  0  0  0  0  0  0  0  0  0  0
   11.2194   -6.9839    0.0000 C   0  0  0  0  0  0  0  0  0  0  0  0
   11.6319   -6.2694    0.0000 C   0  0  0  0  0  0  0  0  0  0  0  0
   10.3944   -8.4128    0.0000 O   0  0  0  0  0  0  0  0  0  0  0  0
    4.7545  -12.5114    0.0000 H   0  0  0  0  0  0  0  0  0  0  0  0
    6.8979  -11.2739    0.0000 C   0  0  0  0  0  0  0  0  0  0  0  0
    8.4974   -9.2399    0.0000 H   0  0  0  0  0  0  0  0  0  0  0  0
    4.7545  -10.0364    0.0000 C   0  0  0  0  0  0  0  0  0  0  0  0
    6.8979  -12.0989    0.0000 O   0  0  0  0  0  0  0  0  0  0  0  0
    6.8979   -8.7989    0.0000 C   0  0  0  0  0  0  0  0  0  0  0  0
  1  2  1  0  0  0  0
  2  3  1  0  0  0  0
  3  4  1  0  0  0  0
  4  5  1  0  0  0  0
  5  6  1  0  0  0  0
  6  1  1  0  0  0  0
  4  7  1  0  0  0  0
  7  8  1  0  0  0  0
  8  9  1  0  0  0  0
  9 10  2  0  0  0  0
 10  5  1  0  0  0  0
  9 11  1  0  0  0  0
 11 12  1  0  0  0  0
 12 13  1  0  0  0  0
 13 14  1  0  0  0  0
 14 10  1  0  0  0  0
 11 15  1  0  0  0  0
 15 16  1  0  0  0  0
 16 17  1  0  0  0  0
 17 12  1  0  0  0  0
  2 18  2  0  0  0  0
  3 19  1  0  0  0  0
  3 20  1  0  0  0  0
 14 21  2  0  0  0  0
 15 22  2  0  0  0  0
 17 23  1  0  0  0  0
 23 24  1  6  0  0  0
 23 25  1  0  0  0  0
 25 26  1  0  0  0  0
 26 27  1  0  0  0  0
 27 28  1  0  0  0  0
 28 29  1  0  0  0  0
 29 30  1  0  0  0  0
 27 31  2  0  0  0  0
  4 32  1  6  0  0  0
 11 33  1  6  0  0  0
 17 34  1  6  0  0  0
  5 35  1  1  0  0  0
  8 36  1  1  0  0  0
 12 37  1  1  0  0  0
M  END
>  <cdx:fragmentId>
5

$$$$
