90832.cdx
  Mrv1902 05222410272D          

 13 13  0  0  0  0            999 V2000
    5.7318   -8.6339    0.0000 C   0  0  0  0  0  0  0  0  0  0  0  0
    5.7318   -9.4589    0.0000 C   0  0  0  0  0  0  0  0  0  0  0  0
    6.4463   -9.8714    0.0000 C   0  0  0  0  0  0  0  0  0  0  0  0
    7.1607   -9.4589    0.0000 C   0  0  0  0  0  0  0  0  0  0  0  0
    7.1607   -8.6339    0.0000 C   0  0  0  0  0  0  0  0  0  0  0  0
    6.4463   -8.2214    0.0000 C   0  0  0  0  0  0  0  0  0  0  0  0
    6.4463   -7.3964    0.0000 C   0  0  0  0  0  0  0  0  0  0  0  0
    5.7318   -6.9839    0.0000 O   0  0  0  0  0  0  0  0  0  0  0  0
    7.1607   -6.9839    0.0000 O   0  0  0  0  0  0  0  0  0  0  0  0
    5.0173   -9.8714    0.0000 O   0  0  0  0  0  0  0  0  0  0  0  0
    6.4463  -10.6964    0.0000 O   0  0  0  0  0  0  0  0  0  0  0  0
    7.1607  -11.1089    0.0000 C   0  0  0  0  0  0  0  0  0  0  0  0
    7.8752   -9.8714    0.0000 O   0  0  0  0  0  0  0  0  0  0  0  0
  1  2  2  0  0  0  0
  2  3  1  0  0  0  0
  3  4  2  0  0  0  0
  4  5  1  0  0  0  0
  5  6  2  0  0  0  0
  6  1  1  0  0  0  0
  6  7  1  0  0  0  0
  2 10  1  0  0  0  0
  3 11  1  0  0  0  0
 11 12  1  0  0  0  0
  4 13  1  0  0  0  0
  7  8  2  0  0  0  0
  7  9  1  0  0  0  0
M  STY  1   1 SUP
M  SAL   1  3   7   8   9
M  SBL   1  1   7
M  SMT   1 COOH
M  SAP   1  1   7   6  1
M  END
>  <cdx:fragmentId>
5

$$$$
