90833.cdx
  Mrv1902 05222410272D          

 38 43  0  0  0  0            999 V2000
    3.8068  -10.5726    0.0000 C   0  0  1  0  0  0  0  0  0  0  0  0
    3.8068  -11.3976    0.0000 C   0  0  1  0  0  0  0  0  0  0  0  0
    4.5213  -11.8101    0.0000 C   0  0  2  0  0  0  0  0  0  0  0  0
    5.2357  -11.3976    0.0000 C   0  0  0  0  0  0  0  0  0  0  0  0
    5.2357  -10.5726    0.0000 C   0  0  2  0  0  0  0  0  0  0  0  0
    4.5213  -10.1601    0.0000 C   0  0  0  0  0  0  0  0  0  0  0  0
    5.9502  -11.8101    0.0000 C   0  0  0  0  0  0  0  0  0  0  0  0
    6.6647  -11.3976    0.0000 C   0  0  0  0  0  0  0  0  0  0  0  0
    6.6647  -10.5726    0.0000 C   0  0  2  0  0  0  0  0  0  0  0  0
    5.9502  -10.1601    0.0000 C   0  0  0  0  0  0  0  0  0  0  0  0
    7.3792  -10.1601    0.0000 C   0  0  1  0  0  0  0  0  0  0  0  0
    7.3792   -9.3351    0.0000 C   0  0  0  0  0  0  0  0  0  0  0  0
    6.6647   -8.9226    0.0000 C   0  0  0  0  0  0  0  0  0  0  0  0
    5.9502   -9.3351    0.0000 C   0  0  0  0  0  0  0  0  0  0  0  0
    8.0936  -10.5726    0.0000 C   0  0  0  0  0  0  0  0  0  0  0  0
    8.8081  -10.1601    0.0000 C   0  0  0  0  0  0  0  0  0  0  0  0
    8.8081   -9.3351    0.0000 C   0  0  2  0  0  0  0  0  0  0  0  0
    8.0936   -8.9226    0.0000 C   0  0  0  0  0  0  0  0  0  0  0  0
    9.5226   -8.9226    0.0000 C   0  0  0  0  0  0  0  0  0  0  0  0
    9.5226   -8.0976    0.0000 C   0  0  0  0  0  0  0  0  0  0  0  0
    8.8081   -7.6851    0.0000 C   0  0  1  0  0  0  0  0  0  0  0  0
    8.0936   -8.0976    0.0000 C   0  0  0  0  0  0  0  0  0  0  0  0
    3.0923  -11.8101    0.0000 O   0  0  0  0  0  0  0  0  0  0  0  0
    3.0923  -12.6351    0.0000 C   0  0  1  0  0  0  0  0  0  0  0  0
    3.8068  -13.0476    0.0000 O   0  0  0  0  0  0  0  0  0  0  0  0
    4.5213  -12.6351    0.0000 C   0  0  0  0  0  0  0  0  0  0  0  0
    3.8068  -12.2226    0.0000 C   0  0  0  0  0  0  0  0  0  0  0  0
    2.2673  -12.6351    0.0000 C   0  0  0  0  0  0  0  0  0  0  0  0
    5.2357   -9.7476    0.0000 C   0  0  0  0  0  0  0  0  0  0  0  0
    6.6647   -9.7476    0.0000 C   0  0  0  0  0  0  0  0  0  0  0  0
    9.5226   -9.7476    0.0000 C   0  0  0  0  0  0  0  0  0  0  0  0
   10.2370   -9.3351    0.0000 O   0  0  0  0  0  0  0  0  0  0  0  0
    9.5226  -10.5726    0.0000 O   0  0  0  0  0  0  0  0  0  0  0  0
    8.3956   -6.9707    0.0000 C   0  0  0  0  0  0  0  0  0  0  0  0
    9.2206   -6.9707    0.0000 C   0  0  0  0  0  0  0  0  0  0  0  0
    7.3792  -10.9851    0.0000 C   0  0  0  0  0  0  0  0  0  0  0  0
    3.0923  -10.1601    0.0000 O   0  0  0  0  0  0  0  0  0  0  0  0
    2.6798  -13.3496    0.0000 C   0  0  0  0  0  0  0  0  0  0  0  0
  1  2  1  0  0  0  0
  2  3  1  0  0  0  0
  3  4  1  0  0  0  0
  4  5  1  0  0  0  0
  5  6  1  0  0  0  0
  6  1  1  0  0  0  0
  4  7  1  0  0  0  0
  7  8  1  0  0  0  0
  8  9  1  0  0  0  0
  9 10  1  0  0  0  0
 10  5  1  0  0  0  0
  9 11  1  0  0  0  0
 11 12  1  0  0  0  0
 12 13  2  0  0  0  0
 13 14  1  0  0  0  0
 14 10  1  0  0  0  0
 11 15  1  0  0  0  0
 15 16  1  0  0  0  0
 16 17  1  0  0  0  0
 17 18  1  0  0  0  0
 18 12  1  0  0  0  0
 17 19  1  0  0  0  0
 19 20  1  0  0  0  0
 20 21  1  0  0  0  0
 21 22  1  0  0  0  0
 22 18  1  0  0  0  0
  2 23  1  1  0  0  0
 23 24  1  0  0  0  0
 24 25  1  0  0  0  0
 25 26  1  0  0  0  0
  3 26  1  6  0  0  0
  3 27  1  1  0  0  0
 24 28  1  1  0  0  0
  5 29  1  1  0  0  0
  9 30  1  1  0  0  0
 17 31  1  1  0  0  0
 21 34  1  1  0  0  0
 21 35  1  6  0  0  0
 11 36  1  6  0  0  0
  1 37  1  6  0  0  0
 24 38  1  6  0  0  0
 31 32  2  0  0  0  0
 31 33  1  0  0  0  0
M  STY  1   1 SUP
M  SAL   1  3  31  32  33
M  SBL   1  1  36
M  SMT   1 COOH
M  SAP   1  1  31  17  1
M  END
>  <cdx:fragmentId>
5

$$$$
