90836.cdx
  Mrv1902 05222410272D          

 34 37  0  0  0  0            999 V2000
    3.8389   -8.3527    0.0000 C   0  0  0  0  0  0  0  0  0  0  0  0
    3.1245   -8.7652    0.0000 C   0  0  0  0  0  0  0  0  0  0  0  0
    3.1245   -9.5902    0.0000 C   0  0  0  0  0  0  0  0  0  0  0  0
    3.8389  -10.0027    0.0000 C   0  0  0  0  0  0  0  0  0  0  0  0
    4.5534   -9.5902    0.0000 C   0  0  0  0  0  0  0  0  0  0  0  0
    5.2679  -10.0027    0.0000 C   0  0  0  0  0  0  0  0  0  0  0  0
    5.9824   -9.5902    0.0000 C   0  0  0  0  0  0  0  0  0  0  0  0
    5.9824   -8.7652    0.0000 C   0  0  1  0  0  0  0  0  0  0  0  0
    6.6968   -8.3527    0.0000 C   0  0  2  0  0  0  0  0  0  0  0  0
    7.4815   -8.6076    0.0000 C   0  0  0  0  0  0  0  0  0  0  0  0
    7.9664   -7.9402    0.0000 C   0  0  0  0  0  0  0  0  0  0  0  0
    7.4815   -7.2728    0.0000 C   0  0  1  0  0  0  0  0  0  0  0  0
    6.6968   -7.5277    0.0000 C   0  0  1  0  0  0  0  0  0  0  0  0
    5.9824   -7.1152    0.0000 C   0  0  0  0  0  0  0  0  0  0  0  0
    5.2679   -7.5277    0.0000 C   0  0  0  0  0  0  0  0  0  0  0  0
    5.2679   -8.3527    0.0000 C   0  0  2  0  0  0  0  0  0  0  0  0
    4.5534   -8.7652    0.0000 C   0  0  1  0  0  0  0  0  0  0  0  0
    6.6968   -6.7027    0.0000 C   0  0  0  0  0  0  0  0  0  0  0  0
    4.5534   -7.9402    0.0000 C   0  0  0  0  0  0  0  0  0  0  0  0
    7.1844   -5.8750    0.0000 C   0  0  0  0  0  0  0  0  0  0  0  0
    7.7364   -6.4881    0.0000 C   0  0  2  0  0  0  0  0  0  0  0  0
    8.5434   -6.3166    0.0000 C   0  0  0  0  0  0  0  0  0  0  0  0
    8.7983   -5.5320    0.0000 C   0  0  0  0  0  0  0  0  0  0  0  0
    9.6053   -5.3605    0.0000 C   0  0  2  0  0  0  0  0  0  0  0  0
    9.8602   -4.5758    0.0000 C   0  0  0  0  0  0  0  0  0  0  0  0
    9.3082   -3.9627    0.0000 C   0  0  0  0  0  0  0  0  0  0  0  0
   10.6672   -4.4043    0.0000 C   0  0  0  0  0  0  0  0  0  0  0  0
   10.1573   -5.9736    0.0000 C   0  0  0  0  0  0  0  0  0  0  0  0
   10.9643   -5.8020    0.0000 C   0  0  0  0  0  0  0  0  0  0  0  0
    5.2679   -9.1777    0.0000 H   0  0  0  0  0  0  0  0  0  0  0  0
    6.6968   -9.1777    0.0000 H   0  0  0  0  0  0  0  0  0  0  0  0
    8.2963   -7.1437    0.0000 H   0  0  0  0  0  0  0  0  0  0  0  0
    5.9824   -7.9402    0.0000 H   0  0  0  0  0  0  0  0  0  0  0  0
    6.6968  -10.0027    0.0000 O   0  0  0  0  0  0  0  0  0  0  0  0
  1  2  1  0  0  0  0
  2  3  1  0  0  0  0
  3  4  2  0  0  0  0
  4  5  1  0  0  0  0
  5  6  2  0  0  0  0
  6  7  1  0  0  0  0
  7  8  1  0  0  0  0
  8  9  1  0  0  0  0
  9 10  1  0  0  0  0
 10 11  1  0  0  0  0
 12 11  1  0  0  0  0
 12 13  1  0  0  0  0
  9 13  1  0  0  0  0
 13 14  1  0  0  0  0
 14 15  1  0  0  0  0
 15 16  1  0  0  0  0
  8 16  1  0  0  0  0
 16 17  1  0  0  0  0
  5 17  1  0  0  0  0
  1 17  1  0  0  0  0
 13 18  1  1  0  0  0
 17 19  1  1  0  0  0
 21 20  1  6  0  0  0
 21 22  1  0  0  0  0
 22 23  1  0  0  0  0
 24 23  1  6  0  0  0
 24 25  1  0  0  0  0
 25 26  1  0  0  0  0
 25 27  1  0  0  0  0
 28 29  1  0  0  0  0
 24 28  1  0  0  0  0
 12 21  1  0  0  0  0
 16 30  1  6  0  0  0
  9 31  1  6  0  0  0
 12 32  1  6  0  0  0
  8 33  1  1  0  0  0
  7 34  2  0  0  0  0
M  END
>  <cdx:groupId>
104

>  <cdx:fragmentId>
105

$$$$
