9084.cdx
  Mrv1902 05222410202D          

  7  6  0  0  0  0            999 V2000
    7.6610   -4.5906    0.0000 C   0  0  0  0  0  0  0  0  0  0  0  0
    6.9465   -5.0031    0.0000 C   0  0  0  0  0  0  0  0  0  0  0  0
    6.2320   -4.5906    0.0000 C   0  0  0  0  0  0  0  0  0  0  0  0
    7.6610   -3.7656    0.0000 O   0  0  0  0  0  0  0  0  0  0  0  0
    8.3754   -5.0031    0.0000 O   0  5  0  0  0  0  0  0  0  0  0  0
    6.2320   -3.7656    0.0000 O   0  0  0  0  0  0  0  0  0  0  0  0
    5.5176   -5.0031    0.0000 O   0  5  0  0  0  0  0  0  0  0  0  0
  1  2  1  0  0  0  0
  2  3  1  0  0  0  0
  1  4  2  0  0  0  0
  1  5  1  0  0  0  0
  3  6  2  0  0  0  0
  3  7  1  0  0  0  0
M  CHG  2   5  -1   7  -1
M  END
>  <cdx:fragmentId>
5

$$$$
