90846.cdx
  Mrv1902 05222410252D          

 45 49  0  0  0  0            999 V2000
    5.6081   -9.5001    0.0000 C   0  0  0  0  0  0  0  0  0  0  0  0
    5.6081  -10.3251    0.0000 C   0  0  1  0  0  0  0  0  0  0  0  0
    6.3225  -10.7376    0.0000 C   0  0  0  0  0  0  0  0  0  0  0  0
    7.0370  -10.3251    0.0000 C   0  0  0  0  0  0  0  0  0  0  0  0
    7.0370   -9.5001    0.0000 C   0  0  2  0  0  0  0  0  0  0  0  0
    6.3225   -9.0876    0.0000 C   0  0  0  0  0  0  0  0  0  0  0  0
    7.7515  -10.7376    0.0000 C   0  0  0  0  0  0  0  0  0  0  0  0
    8.4659  -10.3251    0.0000 C   0  0  0  0  0  0  0  0  0  0  0  0
    8.4659   -9.5001    0.0000 C   0  0  2  0  0  0  0  0  0  0  0  0
    7.7515   -9.0876    0.0000 C   0  0  2  0  0  0  0  0  0  0  0  0
    9.1804   -9.0876    0.0000 C   0  0  1  0  0  0  0  0  0  0  0  0
    9.1804   -8.2626    0.0000 C   0  0  2  0  0  0  0  0  0  0  0  0
    8.4659   -7.8501    0.0000 C   0  0  0  0  0  0  0  0  0  0  0  0
    7.7515   -8.2626    0.0000 C   0  0  0  0  0  0  0  0  0  0  0  0
    9.9650   -9.3426    0.0000 C   0  0  0  0  0  0  0  0  0  0  0  0
   10.4500   -8.6751    0.0000 C   0  0  0  0  0  0  0  0  0  0  0  0
    9.9650   -8.0077    0.0000 C   0  0  2  0  0  0  0  0  0  0  0  0
   10.2200   -7.2231    0.0000 C   0  0  2  0  0  0  0  0  0  0  0  0
    9.6679   -6.6100    0.0000 C   0  0  0  0  0  0  0  0  0  0  0  0
   11.0269   -7.0516    0.0000 C   0  0  0  0  0  0  0  0  0  0  0  0
   11.2405   -6.2547    0.0000 C   0  0  0  0  0  0  0  0  0  0  0  0
   12.0374   -6.0411    0.0000 C   0  0  2  0  0  0  0  0  0  0  0  0
   12.2509   -5.2443    0.0000 C   0  0  0  0  0  0  0  0  0  0  0  0
   12.6207   -6.6245    0.0000 C   0  0  0  0  0  0  0  0  0  0  0  0
   13.4176   -6.4110    0.0000 C   0  0  0  0  0  0  0  0  0  0  0  0
   11.6675   -4.6609    0.0000 C   0  0  0  0  0  0  0  0  0  0  0  0
   13.0478   -5.0307    0.0000 C   0  0  0  0  0  0  0  0  0  0  0  0
    7.0370   -8.6751    0.0000 C   0  0  0  0  0  0  0  0  0  0  0  0
    9.1804   -7.4376    0.0000 C   0  0  0  0  0  0  0  0  0  0  0  0
    7.7515   -9.9126    0.0000 H   0  0  0  0  0  0  0  0  0  0  0  0
   10.7799   -7.8787    0.0000 H   0  0  0  0  0  0  0  0  0  0  0  0
    9.1804   -9.9126    0.0000 H   0  0  0  0  0  0  0  0  0  0  0  0
    8.4659   -8.6751    0.0000 H   0  0  0  0  0  0  0  0  0  0  0  0
    4.8936  -10.7376    0.0000 O   0  0  0  0  0  0  0  0  0  0  0  0
    4.1791  -10.3251    0.0000 C   0  0  2  0  0  0  0  0  0  0  0  0
    4.1791   -9.5001    0.0000 O   0  0  0  0  0  0  0  0  0  0  0  0
    3.4646   -9.0876    0.0000 C   0  0  1  0  0  0  0  0  0  0  0  0
    2.7502   -9.5001    0.0000 C   0  0  2  0  0  0  0  0  0  0  0  0
    2.7502  -10.3251    0.0000 C   0  0  1  0  0  0  0  0  0  0  0  0
    3.4646  -10.7376    0.0000 C   0  0  1  0  0  0  0  0  0  0  0  0
    3.4646   -8.2626    0.0000 C   0  0  0  0  0  0  0  0  0  0  0  0
    2.0357  -10.7376    0.0000 O   0  0  0  0  0  0  0  0  0  0  0  0
    2.0357   -9.0876    0.0000 O   0  0  0  0  0  0  0  0  0  0  0  0
    3.4646  -11.5626    0.0000 O   0  0  0  0  0  0  0  0  0  0  0  0
    2.7502   -7.8501    0.0000 O   0  0  0  0  0  0  0  0  0  0  0  0
  1  2  1  0  0  0  0
  2  3  1  0  0  0  0
  3  4  1  0  0  0  0
  4  5  1  0  0  0  0
  5  6  1  0  0  0  0
  6  1  1  0  0  0  0
  4  7  2  0  0  0  0
  7  8  1  0  0  0  0
  8  9  1  0  0  0  0
  9 10  1  0  0  0  0
 10  5  1  0  0  0  0
  9 11  1  0  0  0  0
 11 12  1  0  0  0  0
 12 13  1  0  0  0  0
 13 14  1  0  0  0  0
 14 10  1  0  0  0  0
 11 15  1  0  0  0  0
 15 16  1  0  0  0  0
 16 17  1  0  0  0  0
 17 12  1  0  0  0  0
 17 18  1  0  0  0  0
 18 19  1  6  0  0  0
 18 20  1  0  0  0  0
 20 21  2  0  0  0  0
 21 22  1  0  0  0  0
 22 23  1  0  0  0  0
 22 24  1  6  0  0  0
 24 25  1  0  0  0  0
 23 26  1  0  0  0  0
 23 27  1  0  0  0  0
  5 28  1  1  0  0  0
 12 29  1  1  0  0  0
 10 30  1  6  0  0  0
 17 31  1  6  0  0  0
 11 32  1  6  0  0  0
  9 33  1  1  0  0  0
  2 34  1  1  0  0  0
 35 34  1  1  0  0  0
 35 36  1  0  0  0  0
 36 37  1  0  0  0  0
 37 38  1  0  0  0  0
 38 39  1  0  0  0  0
 39 40  1  0  0  0  0
 40 35  1  0  0  0  0
 37 41  1  1  0  0  0
 39 42  1  1  0  0  0
 38 43  1  6  0  0  0
 40 44  1  6  0  0  0
 41 45  1  0  0  0  0
M  END
>  <cdx:fragmentId>
5

$$$$
