908403.cdx
  Mrv1902 05222410222D          

 41 45  0  0  0  0            999 V2000
    7.4367   -9.4627    0.0000 C   0  0  0  0  0  0  0  0  0  0  0  0
    6.8778   -8.8558    0.0000 C   0  0  0  0  0  0  0  0  0  0  0  0
    7.1239   -8.0684    0.0000 C   0  0  0  0  0  0  0  0  0  0  0  0
    7.9289   -7.8878    0.0000 C   0  0  0  0  0  0  0  0  0  0  0  0
    8.4878   -8.4947    0.0000 C   0  0  0  0  0  0  0  0  0  0  0  0
    8.2417   -9.2821    0.0000 C   0  0  0  0  0  0  0  0  0  0  0  0
    7.1906  -10.2501    0.0000 O   0  0  0  0  0  0  0  0  0  0  0  0
    6.0728   -9.0364    0.0000 O   0  0  0  0  0  0  0  0  0  0  0  0
    5.4829   -8.4596    0.0000 C   0  0  0  0  0  0  0  0  0  0  0  0
    7.6827   -6.4384    0.0000 O   0  0  0  0  0  0  0  0  0  0  0  0
    8.1601   -5.7656    0.0000 C   0  0  0  0  0  0  0  0  0  0  0  0
    8.9475   -6.0117    0.0000 C   0  0  1  0  0  0  0  0  0  0  0  0
    8.9567   -6.8367    0.0000 C   0  0  1  0  0  0  0  0  0  0  0  0
    8.1750   -7.1004    0.0000 C   0  0  1  0  0  0  0  0  0  0  0  0
   10.2216   -6.4099    0.0000 O   0  0  0  0  0  0  0  0  0  0  0  0
    9.7292   -5.7480    0.0000 C   0  0  1  0  0  0  0  0  0  0  0  0
    9.7442   -7.0828    0.0000 C   0  0  0  0  0  0  0  0  0  0  0  0
    9.9753   -4.9606    0.0000 C   0  0  0  0  0  0  0  0  0  0  0  0
   10.7803   -4.7800    0.0000 C   0  0  0  0  0  0  0  0  0  0  0  0
   11.0264   -3.9926    0.0000 C   0  0  0  0  0  0  0  0  0  0  0  0
   10.4676   -3.3857    0.0000 C   0  0  0  0  0  0  0  0  0  0  0  0
    9.6626   -3.5663    0.0000 C   0  0  0  0  0  0  0  0  0  0  0  0
    9.4164   -4.3537    0.0000 C   0  0  0  0  0  0  0  0  0  0  0  0
   10.7137   -2.5983    0.0000 O   0  0  0  0  0  0  0  0  0  0  0  0
   11.5187   -2.4177    0.0000 C   0  0  0  0  0  0  0  0  0  0  0  0
   11.8314   -3.8120    0.0000 O   0  0  0  0  0  0  0  0  0  0  0  0
   12.3903   -4.4188    0.0000 C   0  0  0  0  0  0  0  0  0  0  0  0
    8.9660   -7.6616    0.0000 H   0  0  0  0  0  0  0  0  0  0  0  0
    8.9382   -5.1868    0.0000 H   0  0  0  0  0  0  0  0  0  0  0  0
    6.4773  -10.6647    0.0000 C   0  0  0  0  0  0  0  0  0  0  0  0
    6.4797  -11.4897    0.0000 O   0  0  0  0  0  0  0  0  0  0  0  0
    5.7616  -10.2543    0.0000 C   0  0  0  0  0  0  0  0  0  0  0  0
    5.0484  -10.6689    0.0000 C   0  0  0  0  0  0  0  0  0  0  0  0
    4.3327  -10.2586    0.0000 C   0  0  0  0  0  0  0  0  0  0  0  0
    3.6194  -10.6732    0.0000 C   0  0  0  0  0  0  0  0  0  0  0  0
    2.9037  -10.2628    0.0000 C   0  0  0  0  0  0  0  0  0  0  0  0
    2.9013   -9.4378    0.0000 C   0  0  0  0  0  0  0  0  0  0  0  0
    3.6146   -9.0232    0.0000 C   0  0  0  0  0  0  0  0  0  0  0  0
    4.3302   -9.4336    0.0000 C   0  0  0  0  0  0  0  0  0  0  0  0
    2.1856   -9.0274    0.0000 O   0  0  0  0  0  0  0  0  0  0  0  0
    2.1905  -10.6774    0.0000 O   0  0  0  0  0  0  0  0  0  0  0  0
  1  2  1  0  0  0  0
  2  3  2  0  0  0  0
  3  4  1  0  0  0  0
  4  5  2  0  0  0  0
  5  6  1  0  0  0  0
  1  6  2  0  0  0  0
  1  7  1  0  0  0  0
  8  9  1  0  0  0  0
  2  8  1  0  0  0  0
 10 11  1  0  0  0  0
 11 12  1  0  0  0  0
 12 13  1  0  0  0  0
 13 14  1  0  0  0  0
 10 14  1  0  0  0  0
 15 16  1  0  0  0  0
 15 17  1  0  0  0  0
 16 12  1  0  0  0  0
 17 13  1  0  0  0  0
 18 19  1  0  0  0  0
 19 20  2  0  0  0  0
 20 21  1  0  0  0  0
 21 22  2  0  0  0  0
 22 23  1  0  0  0  0
 18 23  2  0  0  0  0
 24 25  1  0  0  0  0
 21 24  1  0  0  0  0
 26 27  1  0  0  0  0
 20 26  1  0  0  0  0
 16 18  1  6  0  0  0
 14  4  1  1  0  0  0
 13 28  1  1  0  0  0
 12 29  1  1  0  0  0
  7 30  1  0  0  0  0
 30 31  2  0  0  0  0
 30 32  1  0  0  0  0
 32 33  2  0  0  0  0
 33 34  1  0  0  0  0
 34 35  2  0  0  0  0
 35 36  1  0  0  0  0
 36 37  1  0  0  0  0
 37 38  1  0  0  0  0
 38 39  2  0  0  0  0
 39 34  1  0  0  0  0
 37 40  1  0  0  0  0
 36 41  1  0  0  0  0
M  END
>  <cdx:groupId>
1592

>  <cdx:fragmentId>
1539

$$$$
