90844.cdx
  Mrv1902 05222410252D          

 45 49  0  0  0  0            999 V2000
    4.7556  -10.1876    0.0000 C   0  0  0  0  0  0  0  0  0  0  0  0
    4.7556  -11.0126    0.0000 C   0  0  1  0  0  0  0  0  0  0  0  0
    5.4700  -11.4251    0.0000 C   0  0  0  0  0  0  0  0  0  0  0  0
    6.1845  -11.0126    0.0000 C   0  0  1  0  0  0  0  0  0  0  0  0
    6.1845  -10.1876    0.0000 C   0  0  2  0  0  0  0  0  0  0  0  0
    5.4700   -9.7751    0.0000 C   0  0  0  0  0  0  0  0  0  0  0  0
    6.8990  -11.4251    0.0000 C   0  0  0  0  0  0  0  0  0  0  0  0
    7.6134  -11.0126    0.0000 C   0  0  0  0  0  0  0  0  0  0  0  0
    7.6134  -10.1876    0.0000 C   0  0  0  0  0  0  0  0  0  0  0  0
    6.8990   -9.7751    0.0000 C   0  0  2  0  0  0  0  0  0  0  0  0
    8.3279   -9.7751    0.0000 C   0  0  1  0  0  0  0  0  0  0  0  0
    8.3279   -8.9501    0.0000 C   0  0  2  0  0  0  0  0  0  0  0  0
    7.6134   -8.5376    0.0000 C   0  0  0  0  0  0  0  0  0  0  0  0
    6.8990   -8.9501    0.0000 C   0  0  0  0  0  0  0  0  0  0  0  0
    9.1125  -10.0301    0.0000 C   0  0  0  0  0  0  0  0  0  0  0  0
    9.5975   -9.3626    0.0000 C   0  0  0  0  0  0  0  0  0  0  0  0
    9.1125   -8.6952    0.0000 C   0  0  2  0  0  0  0  0  0  0  0  0
    9.3675   -7.9106    0.0000 C   0  0  2  0  0  0  0  0  0  0  0  0
    8.8154   -7.2975    0.0000 C   0  0  0  0  0  0  0  0  0  0  0  0
   10.1744   -7.7391    0.0000 C   0  0  0  0  0  0  0  0  0  0  0  0
   10.3880   -6.9422    0.0000 C   0  0  0  0  0  0  0  0  0  0  0  0
   11.1849   -6.7286    0.0000 C   0  0  2  0  0  0  0  0  0  0  0  0
   11.3984   -5.9318    0.0000 C   0  0  0  0  0  0  0  0  0  0  0  0
   11.7682   -7.3120    0.0000 C   0  0  0  0  0  0  0  0  0  0  0  0
   12.5651   -7.0985    0.0000 C   0  0  0  0  0  0  0  0  0  0  0  0
   10.8150   -5.3484    0.0000 C   0  0  0  0  0  0  0  0  0  0  0  0
   12.1953   -5.7182    0.0000 C   0  0  0  0  0  0  0  0  0  0  0  0
    6.1845   -9.3626    0.0000 C   0  0  0  0  0  0  0  0  0  0  0  0
    8.3279   -8.1251    0.0000 C   0  0  0  0  0  0  0  0  0  0  0  0
    6.8990  -10.6001    0.0000 H   0  0  0  0  0  0  0  0  0  0  0  0
    9.9274   -8.5662    0.0000 H   0  0  0  0  0  0  0  0  0  0  0  0
    8.3279  -10.6001    0.0000 H   0  0  0  0  0  0  0  0  0  0  0  0
    4.0411  -11.4251    0.0000 O   0  0  0  0  0  0  0  0  0  0  0  0
    6.1845  -11.8376    0.0000 H   0  0  0  0  0  0  0  0  0  0  0  0
    3.3266  -11.0126    0.0000 C   0  0  2  0  0  0  0  0  0  0  0  0
    3.3266  -10.1876    0.0000 O   0  0  0  0  0  0  0  0  0  0  0  0
    2.6121   -9.7751    0.0000 C   0  0  1  0  0  0  0  0  0  0  0  0
    1.8977  -10.1876    0.0000 C   0  0  2  0  0  0  0  0  0  0  0  0
    1.8977  -11.0126    0.0000 C   0  0  1  0  0  0  0  0  0  0  0  0
    2.6121  -11.4251    0.0000 C   0  0  1  0  0  0  0  0  0  0  0  0
    2.6121   -8.9501    0.0000 C   0  0  0  0  0  0  0  0  0  0  0  0
    1.1832  -11.4251    0.0000 O   0  0  0  0  0  0  0  0  0  0  0  0
    1.1832   -9.7751    0.0000 O   0  0  0  0  0  0  0  0  0  0  0  0
    2.6121  -12.2501    0.0000 O   0  0  0  0  0  0  0  0  0  0  0  0
    1.8977   -8.5376    0.0000 O   0  0  0  0  0  0  0  0  0  0  0  0
  1  2  1  0  0  0  0
  2  3  1  0  0  0  0
  3  4  1  0  0  0  0
  4  5  1  0  0  0  0
  5  6  1  0  0  0  0
  6  1  1  0  0  0  0
  4  7  1  0  0  0  0
  7  8  1  0  0  0  0
  8  9  2  0  0  0  0
  9 10  1  0  0  0  0
 10  5  1  0  0  0  0
  9 11  1  0  0  0  0
 11 12  1  0  0  0  0
 12 13  1  0  0  0  0
 13 14  1  0  0  0  0
 14 10  1  0  0  0  0
 11 15  1  0  0  0  0
 15 16  1  0  0  0  0
 16 17  1  0  0  0  0
 17 12  1  0  0  0  0
 17 18  1  0  0  0  0
 18 19  1  6  0  0  0
 18 20  1  0  0  0  0
 20 21  2  0  0  0  0
 21 22  1  0  0  0  0
 22 23  1  0  0  0  0
 22 24  1  6  0  0  0
 24 25  1  0  0  0  0
 23 26  2  0  0  0  0
 23 27  1  0  0  0  0
  5 28  1  1  0  0  0
 12 29  1  1  0  0  0
 10 30  1  6  0  0  0
 17 31  1  6  0  0  0
 11 32  1  6  0  0  0
  2 33  1  1  0  0  0
  4 34  1  6  0  0  0
 35 33  1  1  0  0  0
 35 36  1  0  0  0  0
 36 37  1  0  0  0  0
 37 38  1  0  0  0  0
 38 39  1  0  0  0  0
 39 40  1  0  0  0  0
 40 35  1  0  0  0  0
 37 41  1  1  0  0  0
 39 42  1  1  0  0  0
 38 43  1  6  0  0  0
 40 44  1  6  0  0  0
 41 45  1  0  0  0  0
M  END
>  <cdx:fragmentId>
200

$$$$
