90847.cdx
  Mrv1902 05222410252D          

 33 36  0  0  0  0            999 V2000
    3.5731   -8.6751    0.0000 C   0  0  0  0  0  0  0  0  0  0  0  0
    3.5731   -9.5001    0.0000 C   0  0  0  0  0  0  0  0  0  0  0  0
    4.2875   -9.9126    0.0000 C   0  0  0  0  0  0  0  0  0  0  0  0
    5.0020   -9.5001    0.0000 C   0  0  0  0  0  0  0  0  0  0  0  0
    5.0020   -8.6751    0.0000 C   0  0  2  0  0  0  0  0  0  0  0  0
    4.2875   -8.2626    0.0000 C   0  0  0  0  0  0  0  0  0  0  0  0
    5.7165   -9.9126    0.0000 C   0  0  0  0  0  0  0  0  0  0  0  0
    6.4309   -9.5001    0.0000 C   0  0  0  0  0  0  0  0  0  0  0  0
    6.4309   -8.6751    0.0000 C   0  0  2  0  0  0  0  0  0  0  0  0
    5.7165   -8.2626    0.0000 C   0  0  2  0  0  0  0  0  0  0  0  0
    7.1454   -8.2626    0.0000 C   0  0  1  0  0  0  0  0  0  0  0  0
    7.1454   -7.4376    0.0000 C   0  0  2  0  0  0  0  0  0  0  0  0
    6.4309   -7.0251    0.0000 C   0  0  0  0  0  0  0  0  0  0  0  0
    5.7165   -7.4376    0.0000 C   0  0  0  0  0  0  0  0  0  0  0  0
    7.9300   -8.5176    0.0000 C   0  0  0  0  0  0  0  0  0  0  0  0
    8.4150   -7.8501    0.0000 C   0  0  0  0  0  0  0  0  0  0  0  0
    7.9300   -7.1827    0.0000 C   0  0  2  0  0  0  0  0  0  0  0  0
    8.1850   -6.3981    0.0000 C   0  0  2  0  0  0  0  0  0  0  0  0
    7.6329   -5.7850    0.0000 C   0  0  0  0  0  0  0  0  0  0  0  0
    8.9919   -6.2266    0.0000 C   0  0  0  0  0  0  0  0  0  0  0  0
    9.2055   -5.4297    0.0000 C   0  0  0  0  0  0  0  0  0  0  0  0
   10.0024   -5.2161    0.0000 C   0  0  2  0  0  0  0  0  0  0  0  0
   10.2159   -4.4193    0.0000 C   0  0  0  0  0  0  0  0  0  0  0  0
   10.5857   -5.7995    0.0000 C   0  0  0  0  0  0  0  0  0  0  0  0
   11.3826   -5.5860    0.0000 C   0  0  0  0  0  0  0  0  0  0  0  0
    9.6325   -3.8359    0.0000 C   0  0  0  0  0  0  0  0  0  0  0  0
   11.0128   -4.2057    0.0000 C   0  0  0  0  0  0  0  0  0  0  0  0
    5.0020   -7.8501    0.0000 C   0  0  0  0  0  0  0  0  0  0  0  0
    7.1454   -6.6126    0.0000 C   0  0  0  0  0  0  0  0  0  0  0  0
    5.7165   -9.0876    0.0000 H   0  0  0  0  0  0  0  0  0  0  0  0
    8.7449   -7.0537    0.0000 H   0  0  0  0  0  0  0  0  0  0  0  0
    7.1454   -9.0876    0.0000 H   0  0  0  0  0  0  0  0  0  0  0  0
    6.4309   -7.8501    0.0000 H   0  0  0  0  0  0  0  0  0  0  0  0
  1  2  2  0  0  0  0
  2  3  1  0  0  0  0
  3  4  1  0  0  0  0
  4  5  1  0  0  0  0
  5  6  1  0  0  0  0
  6  1  1  0  0  0  0
  4  7  2  0  0  0  0
  7  8  1  0  0  0  0
  8  9  1  0  0  0  0
  9 10  1  0  0  0  0
 10  5  1  0  0  0  0
  9 11  1  0  0  0  0
 11 12  1  0  0  0  0
 12 13  1  0  0  0  0
 13 14  1  0  0  0  0
 14 10  1  0  0  0  0
 11 15  1  0  0  0  0
 15 16  1  0  0  0  0
 16 17  1  0  0  0  0
 17 12  1  0  0  0  0
 17 18  1  0  0  0  0
 18 19  1  6  0  0  0
 18 20  1  0  0  0  0
 20 21  2  0  0  0  0
 21 22  1  0  0  0  0
 22 23  1  0  0  0  0
 22 24  1  6  0  0  0
 24 25  1  0  0  0  0
 23 26  1  0  0  0  0
 23 27  1  0  0  0  0
  5 28  1  1  0  0  0
 12 29  1  1  0  0  0
 10 30  1  6  0  0  0
 17 31  1  6  0  0  0
 11 32  1  6  0  0  0
  9 33  1  1  0  0  0
M  END
>  <cdx:fragmentId>
160

$$$$
