90840.cdx
  Mrv1902 05222410242D          

 33 36  0  0  0  0            999 V2000
    3.2431   -9.8301    0.0000 C   0  0  0  0  0  0  0  0  0  0  0  0
    3.2431  -10.6551    0.0000 C   0  0  0  0  0  0  0  0  0  0  0  0
    3.9575  -11.0676    0.0000 C   0  0  0  0  0  0  0  0  0  0  0  0
    4.6720  -10.6551    0.0000 C   0  0  0  0  0  0  0  0  0  0  0  0
    4.6720   -9.8301    0.0000 C   0  0  2  0  0  0  0  0  0  0  0  0
    3.9575   -9.4176    0.0000 C   0  0  0  0  0  0  0  0  0  0  0  0
    5.3865  -11.0676    0.0000 C   0  0  0  0  0  0  0  0  0  0  0  0
    6.1009  -10.6551    0.0000 C   0  0  0  0  0  0  0  0  0  0  0  0
    6.1009   -9.8301    0.0000 C   0  0  0  0  0  0  0  0  0  0  0  0
    5.3865   -9.4176    0.0000 C   0  0  2  0  0  0  0  0  0  0  0  0
    6.8154   -9.4176    0.0000 C   0  0  1  0  0  0  0  0  0  0  0  0
    6.8154   -8.5926    0.0000 C   0  0  2  0  0  0  0  0  0  0  0  0
    6.1009   -8.1801    0.0000 C   0  0  0  0  0  0  0  0  0  0  0  0
    5.3865   -8.5926    0.0000 C   0  0  0  0  0  0  0  0  0  0  0  0
    7.6000   -9.6726    0.0000 C   0  0  0  0  0  0  0  0  0  0  0  0
    8.0850   -9.0051    0.0000 C   0  0  0  0  0  0  0  0  0  0  0  0
    7.6000   -8.3377    0.0000 C   0  0  2  0  0  0  0  0  0  0  0  0
    7.8550   -7.5531    0.0000 C   0  0  2  0  0  0  0  0  0  0  0  0
    7.3029   -6.9400    0.0000 C   0  0  0  0  0  0  0  0  0  0  0  0
    8.6619   -7.3816    0.0000 C   0  0  0  0  0  0  0  0  0  0  0  0
    8.8755   -6.5847    0.0000 C   0  0  0  0  0  0  0  0  0  0  0  0
    9.6724   -6.3711    0.0000 C   0  0  2  0  0  0  0  0  0  0  0  0
    9.8859   -5.5743    0.0000 C   0  0  0  0  0  0  0  0  0  0  0  0
   10.2557   -6.9545    0.0000 C   0  0  0  0  0  0  0  0  0  0  0  0
   11.0526   -6.7410    0.0000 C   0  0  0  0  0  0  0  0  0  0  0  0
    9.3025   -4.9909    0.0000 C   0  0  0  0  0  0  0  0  0  0  0  0
   10.6828   -5.3607    0.0000 C   0  0  0  0  0  0  0  0  0  0  0  0
    4.6720   -9.0051    0.0000 C   0  0  0  0  0  0  0  0  0  0  0  0
    6.8154   -7.7676    0.0000 C   0  0  0  0  0  0  0  0  0  0  0  0
    5.3865  -10.2426    0.0000 H   0  0  0  0  0  0  0  0  0  0  0  0
    8.4149   -8.2087    0.0000 H   0  0  0  0  0  0  0  0  0  0  0  0
    6.8154  -10.2426    0.0000 H   0  0  0  0  0  0  0  0  0  0  0  0
    2.5286  -11.0676    0.0000 O   0  0  0  0  0  0  0  0  0  0  0  0
  1  2  1  0  0  0  0
  2  3  1  0  0  0  0
  3  4  1  0  0  0  0
  4  5  1  0  0  0  0
  5  6  1  0  0  0  0
  6  1  1  0  0  0  0
  4  7  1  0  0  0  0
  7  8  1  0  0  0  0
  8  9  2  0  0  0  0
  9 10  1  0  0  0  0
 10  5  1  0  0  0  0
  9 11  1  0  0  0  0
 11 12  1  0  0  0  0
 12 13  1  0  0  0  0
 13 14  1  0  0  0  0
 14 10  1  0  0  0  0
 11 15  1  0  0  0  0
 15 16  1  0  0  0  0
 16 17  1  0  0  0  0
 17 12  1  0  0  0  0
 17 18  1  0  0  0  0
 18 19  1  6  0  0  0
 18 20  1  0  0  0  0
 20 21  2  0  0  0  0
 21 22  1  0  0  0  0
 22 23  1  0  0  0  0
 22 24  1  6  0  0  0
 24 25  1  0  0  0  0
 23 26  1  0  0  0  0
 23 27  1  0  0  0  0
  5 28  1  1  0  0  0
 12 29  1  1  0  0  0
 10 30  1  6  0  0  0
 17 31  1  6  0  0  0
 11 32  1  6  0  0  0
  2 33  2  0  0  0  0
M  END
>  <cdx:fragmentId>
5

$$$$
