90848.cdx
  Mrv1902 05222410212D          

 35 38  0  0  0  0            999 V2000
    3.4493   -9.6926    0.0000 C   0  0  0  0  0  0  0  0  0  0  0  0
    3.4493  -10.5176    0.0000 C   0  0  1  0  0  0  0  0  0  0  0  0
    4.1638  -10.9301    0.0000 C   0  0  0  0  0  0  0  0  0  0  0  0
    4.8782  -10.5176    0.0000 C   0  0  0  0  0  0  0  0  0  0  0  0
    4.8782   -9.6926    0.0000 C   0  0  2  0  0  0  0  0  0  0  0  0
    4.1638   -9.2801    0.0000 C   0  0  0  0  0  0  0  0  0  0  0  0
    5.5927  -10.9301    0.0000 C   0  0  0  0  0  0  0  0  0  0  0  0
    6.3072  -10.5176    0.0000 C   0  0  0  0  0  0  0  0  0  0  0  0
    6.3072   -9.6926    0.0000 C   0  0  2  0  0  0  0  0  0  0  0  0
    5.5927   -9.2801    0.0000 C   0  0  2  0  0  0  0  0  0  0  0  0
    7.0217   -9.2801    0.0000 C   0  0  1  0  0  0  0  0  0  0  0  0
    7.0217   -8.4551    0.0000 C   0  0  2  0  0  0  0  0  0  0  0  0
    6.3072   -8.0426    0.0000 C   0  0  0  0  0  0  0  0  0  0  0  0
    5.5927   -8.4551    0.0000 C   0  0  0  0  0  0  0  0  0  0  0  0
    7.8063   -9.5351    0.0000 C   0  0  0  0  0  0  0  0  0  0  0  0
    8.2912   -8.8676    0.0000 C   0  0  0  0  0  0  0  0  0  0  0  0
    7.8063   -8.2002    0.0000 C   0  0  2  0  0  0  0  0  0  0  0  0
    8.0612   -7.4156    0.0000 C   0  0  2  0  0  0  0  0  0  0  0  0
    7.5092   -6.8025    0.0000 C   0  0  0  0  0  0  0  0  0  0  0  0
    8.8682   -7.2441    0.0000 C   0  0  0  0  0  0  0  0  0  0  0  0
    9.0817   -6.4472    0.0000 C   0  0  0  0  0  0  0  0  0  0  0  0
    9.8786   -6.2336    0.0000 C   0  0  2  0  0  0  0  0  0  0  0  0
   10.0921   -5.4368    0.0000 C   0  0  0  0  0  0  0  0  0  0  0  0
   10.4620   -6.8170    0.0000 C   0  0  0  0  0  0  0  0  0  0  0  0
   11.2589   -6.6035    0.0000 C   0  0  0  0  0  0  0  0  0  0  0  0
    9.5088   -4.8534    0.0000 C   0  0  0  0  0  0  0  0  0  0  0  0
   10.8890   -5.2232    0.0000 C   0  0  0  0  0  0  0  0  0  0  0  0
    4.8782   -8.8676    0.0000 C   0  0  0  0  0  0  0  0  0  0  0  0
    7.0217   -7.6301    0.0000 C   0  0  0  0  0  0  0  0  0  0  0  0
    5.5927  -10.1051    0.0000 H   0  0  0  0  0  0  0  0  0  0  0  0
    8.6211   -8.0712    0.0000 H   0  0  0  0  0  0  0  0  0  0  0  0
    7.0217  -10.1051    0.0000 H   0  0  0  0  0  0  0  0  0  0  0  0
    6.3072   -8.8676    0.0000 H   0  0  0  0  0  0  0  0  0  0  0  0
    2.7348  -10.9301    0.0000 O   0  0  0  0  0  0  0  0  0  0  0  0
    7.0217  -10.9301    0.0000 O   0  0  0  0  0  0  0  0  0  0  0  0
  1  2  1  0  0  0  0
  2  3  1  0  0  0  0
  3  4  1  0  0  0  0
  4  5  1  0  0  0  0
  5  6  1  0  0  0  0
  6  1  1  0  0  0  0
  4  7  2  0  0  0  0
  7  8  1  0  0  0  0
  8  9  1  0  0  0  0
  9 10  1  0  0  0  0
 10  5  1  0  0  0  0
  9 11  1  0  0  0  0
 11 12  1  0  0  0  0
 12 13  1  0  0  0  0
 13 14  1  0  0  0  0
 14 10  1  0  0  0  0
 11 15  1  0  0  0  0
 15 16  1  0  0  0  0
 16 17  1  0  0  0  0
 17 12  1  0  0  0  0
 17 18  1  0  0  0  0
 18 19  1  6  0  0  0
 18 20  1  0  0  0  0
 20 21  2  0  0  0  0
 21 22  1  0  0  0  0
 22 23  1  0  0  0  0
 22 24  1  6  0  0  0
 24 25  1  0  0  0  0
 23 26  1  0  0  0  0
 23 27  1  0  0  0  0
  5 28  1  1  0  0  0
 12 29  1  1  0  0  0
 10 30  1  6  0  0  0
 17 31  1  6  0  0  0
 11 32  1  6  0  0  0
  9 33  1  1  0  0  0
  2 34  1  1  0  0  0
  8 35  2  0  0  0  0
M  END
>  <cdx:fragmentId>
5

$$$$
