90845.cdx
  Mrv1902 05222410252D          

 62 66  0  0  0  0            999 V2000
    5.3331  -15.8526    0.0000 C   0  0  0  0  0  0  0  0  0  0  0  0
    5.3331  -16.6776    0.0000 C   0  0  1  0  0  0  0  0  0  0  0  0
    6.0475  -17.0901    0.0000 C   0  0  0  0  0  0  0  0  0  0  0  0
    6.7620  -16.6776    0.0000 C   0  0  1  0  0  0  0  0  0  0  0  0
    6.7620  -15.8526    0.0000 C   0  0  2  0  0  0  0  0  0  0  0  0
    6.0475  -15.4401    0.0000 C   0  0  0  0  0  0  0  0  0  0  0  0
    7.4765  -17.0901    0.0000 C   0  0  0  0  0  0  0  0  0  0  0  0
    8.1909  -16.6776    0.0000 C   0  0  0  0  0  0  0  0  0  0  0  0
    8.1909  -15.8526    0.0000 C   0  0  0  0  0  0  0  0  0  0  0  0
    7.4765  -15.4401    0.0000 C   0  0  2  0  0  0  0  0  0  0  0  0
    8.9054  -15.4401    0.0000 C   0  0  1  0  0  0  0  0  0  0  0  0
    8.9054  -14.6151    0.0000 C   0  0  2  0  0  0  0  0  0  0  0  0
    8.1909  -14.2026    0.0000 C   0  0  0  0  0  0  0  0  0  0  0  0
    7.4765  -14.6151    0.0000 C   0  0  0  0  0  0  0  0  0  0  0  0
    9.6900  -15.6951    0.0000 C   0  0  0  0  0  0  0  0  0  0  0  0
   10.1750  -15.0276    0.0000 C   0  0  0  0  0  0  0  0  0  0  0  0
    9.6900  -14.3602    0.0000 C   0  0  2  0  0  0  0  0  0  0  0  0
    9.9450  -13.5756    0.0000 C   0  0  2  0  0  0  0  0  0  0  0  0
    9.3929  -12.9625    0.0000 C   0  0  0  0  0  0  0  0  0  0  0  0
   10.7519  -13.4041    0.0000 C   0  0  0  0  0  0  0  0  0  0  0  0
   10.9655  -12.6072    0.0000 C   0  0  0  0  0  0  0  0  0  0  0  0
   11.7624  -12.3936    0.0000 C   0  0  2  0  0  0  0  0  0  0  0  0
   11.9759  -11.5968    0.0000 C   0  0  0  0  0  0  0  0  0  0  0  0
   12.3457  -12.9770    0.0000 C   0  0  0  0  0  0  0  0  0  0  0  0
   13.1426  -12.7635    0.0000 C   0  0  0  0  0  0  0  0  0  0  0  0
   11.3925  -11.0134    0.0000 C   0  0  0  0  0  0  0  0  0  0  0  0
   12.7728  -11.3832    0.0000 C   0  0  0  0  0  0  0  0  0  0  0  0
    6.7620  -15.0276    0.0000 C   0  0  0  0  0  0  0  0  0  0  0  0
    8.9054  -13.7901    0.0000 C   0  0  0  0  0  0  0  0  0  0  0  0
    7.4765  -16.2651    0.0000 H   0  0  0  0  0  0  0  0  0  0  0  0
   10.5049  -14.2312    0.0000 H   0  0  0  0  0  0  0  0  0  0  0  0
    8.9054  -16.2651    0.0000 H   0  0  0  0  0  0  0  0  0  0  0  0
    4.6186  -17.0901    0.0000 O   0  0  0  0  0  0  0  0  0  0  0  0
    6.7620  -17.5026    0.0000 H   0  0  0  0  0  0  0  0  0  0  0  0
    3.9041  -16.6776    0.0000 C   0  0  2  0  0  0  0  0  0  0  0  0
    3.9041  -15.8526    0.0000 O   0  0  0  0  0  0  0  0  0  0  0  0
    3.1896  -15.4401    0.0000 C   0  0  1  0  0  0  0  0  0  0  0  0
    2.4752  -15.8526    0.0000 C   0  0  2  0  0  0  0  0  0  0  0  0
    2.4752  -16.6776    0.0000 C   0  0  1  0  0  0  0  0  0  0  0  0
    3.1896  -17.0901    0.0000 C   0  0  1  0  0  0  0  0  0  0  0  0
    3.1896  -14.6151    0.0000 C   0  0  0  0  0  0  0  0  0  0  0  0
    1.7607  -17.0901    0.0000 O   0  0  0  0  0  0  0  0  0  0  0  0
    1.7607  -15.4401    0.0000 O   0  0  0  0  0  0  0  0  0  0  0  0
    3.1896  -17.9151    0.0000 O   0  0  0  0  0  0  0  0  0  0  0  0
    2.4752  -14.2026    0.0000 O   0  0  0  0  0  0  0  0  0  0  0  0
    1.7607  -12.9651    0.0000 O   0  0  0  0  0  0  0  0  0  0  0  0
    3.1896  -12.9651    0.0000 C   0  0  0  0  0  0  0  0  0  0  0  0
    2.4752  -13.3776    0.0000 C   0  0  0  0  0  0  0  0  0  0  0  0
    3.1896  -12.1401    0.0000 C   0  0  0  0  0  0  0  0  0  0  0  0
    3.9041  -11.7276    0.0000 C   0  0  0  0  0  0  0  0  0  0  0  0
    3.9041  -10.9026    0.0000 C   0  0  0  0  0  0  0  0  0  0  0  0
    4.6186  -10.4901    0.0000 C   0  0  0  0  0  0  0  0  0  0  0  0
    4.6186   -9.6651    0.0000 C   0  0  0  0  0  0  0  0  0  0  0  0
    5.3331   -9.2526    0.0000 C   0  0  0  0  0  0  0  0  0  0  0  0
    5.3331   -8.4276    0.0000 C   0  0  0  0  0  0  0  0  0  0  0  0
    6.0475   -8.0151    0.0000 C   0  0  0  0  0  0  0  0  0  0  0  0
    6.0475   -7.1901    0.0000 C   0  0  0  0  0  0  0  0  0  0  0  0
    6.7620   -6.7776    0.0000 C   0  0  0  0  0  0  0  0  0  0  0  0
    6.7620   -5.9526    0.0000 C   0  0  0  0  0  0  0  0  0  0  0  0
    7.4765   -5.5401    0.0000 C   0  0  0  0  0  0  0  0  0  0  0  0
    7.4765   -4.7151    0.0000 C   0  0  0  0  0  0  0  0  0  0  0  0
    8.1909   -4.3026    0.0000 C   0  0  0  0  0  0  0  0  0  0  0  0
  1  2  1  0  0  0  0
  2  3  1  0  0  0  0
  3  4  1  0  0  0  0
  4  5  1  0  0  0  0
  5  6  1  0  0  0  0
  6  1  1  0  0  0  0
  4  7  1  0  0  0  0
  7  8  1  0  0  0  0
  8  9  2  0  0  0  0
  9 10  1  0  0  0  0
 10  5  1  0  0  0  0
  9 11  1  0  0  0  0
 11 12  1  0  0  0  0
 12 13  1  0  0  0  0
 13 14  1  0  0  0  0
 14 10  1  0  0  0  0
 11 15  1  0  0  0  0
 15 16  1  0  0  0  0
 16 17  1  0  0  0  0
 17 12  1  0  0  0  0
 17 18  1  0  0  0  0
 18 19  1  6  0  0  0
 18 20  1  0  0  0  0
 20 21  2  0  0  0  0
 21 22  1  0  0  0  0
 22 23  1  0  0  0  0
 22 24  1  6  0  0  0
 24 25  1  0  0  0  0
 23 26  2  0  0  0  0
 23 27  1  0  0  0  0
  5 28  1  1  0  0  0
 12 29  1  1  0  0  0
 10 30  1  6  0  0  0
 17 31  1  6  0  0  0
 11 32  1  6  0  0  0
  2 33  1  1  0  0  0
  4 34  1  6  0  0  0
 35 33  1  1  0  0  0
 35 36  1  0  0  0  0
 36 37  1  0  0  0  0
 37 38  1  0  0  0  0
 38 39  1  0  0  0  0
 39 40  1  0  0  0  0
 40 35  1  0  0  0  0
 37 41  1  1  0  0  0
 39 42  1  1  0  0  0
 38 43  1  6  0  0  0
 40 44  1  6  0  0  0
 41 45  1  0  0  0  0
 48 46  2  0  0  0  0
 45 48  1  0  0  0  0
 48 47  1  0  0  0  0
 47 49  1  0  0  0  0
 49 50  1  0  0  0  0
 50 51  1  0  0  0  0
 51 52  1  0  0  0  0
 52 53  1  0  0  0  0
 53 54  1  0  0  0  0
 54 55  1  0  0  0  0
 55 56  1  0  0  0  0
 56 57  1  0  0  0  0
 57 58  1  0  0  0  0
 58 59  1  0  0  0  0
 59 60  1  0  0  0  0
 60 61  1  0  0  0  0
 61 62  1  0  0  0  0
M  END
>  <cdx:fragmentId>
200

$$$$
