90854.cdx
  Mrv1902 05222410242D          

 29 28  0  0  0  0            999 V2000
    1.0656  -10.2921    0.0000 C   0  0  0  0  0  0  0  0  0  0  0  0
    1.5229  -10.0281    0.0000 C   0  0  0  0  0  0  0  0  0  0  0  0
    1.9801  -10.2921    0.0000 C   0  0  0  0  0  0  0  0  0  0  0  0
    2.4374  -10.0281    0.0000 C   0  0  0  0  0  0  0  0  0  0  0  0
    2.8947  -10.2921    0.0000 C   0  0  0  0  0  0  0  0  0  0  0  0
    3.3519  -10.0281    0.0000 C   0  0  0  0  0  0  0  0  0  0  0  0
    3.8092  -10.2921    0.0000 O   0  0  0  0  0  0  0  0  0  0  0  0
    4.2665  -10.0281    0.0000 S   0  0  0  0  0  0  0  0  0  0  0  0
    4.7237  -10.2921    0.0000 O   0  0  0  0  0  0  0  0  0  0  0  0
    5.1810  -10.0281    0.0000 C   0  0  0  0  0  0  0  0  0  0  0  0
    5.6382  -10.2921    0.0000 C   0  0  0  0  0  0  0  0  0  0  0  0
    6.0955  -10.0281    0.0000 C   0  0  0  0  0  0  0  0  0  0  0  0
    6.5528  -10.2921    0.0000 C   0  0  0  0  0  0  0  0  0  0  0  0
    7.0100  -10.0281    0.0000 C   0  0  0  0  0  0  0  0  0  0  0  0
    7.4673  -10.2921    0.0000 C   0  0  0  0  0  0  0  0  0  0  0  0
    7.9245  -10.0281    0.0000 C   0  0  0  0  0  0  0  0  0  0  0  0
    8.3818  -10.2921    0.0000 C   0  0  0  0  0  0  0  0  0  0  0  0
    8.8391  -10.0281    0.0000 C   0  0  0  0  0  0  0  0  0  0  0  0
    9.2963  -10.2921    0.0000 C   0  0  0  0  0  0  0  0  0  0  0  0
    9.7536  -10.0281    0.0000 C   0  0  0  0  0  0  0  0  0  0  0  0
   10.2109  -10.2921    0.0000 C   0  0  0  0  0  0  0  0  0  0  0  0
   10.6681  -10.0281    0.0000 C   0  0  0  0  0  0  0  0  0  0  0  0
   11.1254  -10.2921    0.0000 C   0  0  0  0  0  0  0  0  0  0  0  0
   11.5826  -10.0281    0.0000 C   0  0  0  0  0  0  0  0  0  0  0  0
   12.0399  -10.2921    0.0000 C   0  0  0  0  0  0  0  0  0  0  0  0
   12.4972  -10.0281    0.0000 C   0  0  0  0  0  0  0  0  0  0  0  0
    2.8947  -10.8201    0.0000 C   0  0  0  0  0  0  0  0  0  0  0  0
    2.4374  -11.0841    0.0000 C   0  0  0  0  0  0  0  0  0  0  0  0
    4.2665   -9.5001    0.0000 O   0  0  0  0  0  0  0  0  0  0  0  0
  1  2  1  0  0  0  0
  2  3  1  0  0  0  0
  3  4  1  0  0  0  0
  4  5  1  0  0  0  0
  5  6  1  0  0  0  0
  6  7  1  0  0  0  0
  7  8  1  0  0  0  0
  8  9  1  0  0  0  0
  9 10  1  0  0  0  0
 10 11  1  0  0  0  0
 11 12  1  0  0  0  0
 12 13  1  0  0  0  0
 13 14  1  0  0  0  0
 14 15  1  0  0  0  0
 15 16  1  0  0  0  0
 16 17  1  0  0  0  0
 17 18  1  0  0  0  0
 18 19  1  0  0  0  0
 19 20  1  0  0  0  0
 20 21  1  0  0  0  0
 21 22  1  0  0  0  0
 22 23  1  0  0  0  0
 23 24  1  0  0  0  0
 24 25  1  0  0  0  0
 25 26  1  0  0  0  0
  5 27  1  0  0  0  0
 27 28  1  0  0  0  0
  8 29  2  0  0  0  0
M  END
>  <cdx:fragmentId>
3

$$$$
