90853.cdx
  Mrv1902 05222410252D          

 20 19  0  0  0  0            999 V2000
   13.6418   -9.5689    0.0000 C   0  0  0  0  0  0  0  0  0  0  0  0
   12.9273   -9.9814    0.0000 C   0  0  0  0  0  0  0  0  0  0  0  0
   12.2128   -9.5689    0.0000 C   0  0  0  0  0  0  0  0  0  0  0  0
   11.4983   -9.9814    0.0000 C   0  0  0  0  0  0  0  0  0  0  0  0
   10.7839   -9.5689    0.0000 C   0  0  0  0  0  0  0  0  0  0  0  0
   10.0694   -9.9814    0.0000 C   0  0  0  0  0  0  0  0  0  0  0  0
    9.3549   -9.5689    0.0000 C   0  0  0  0  0  0  0  0  0  0  0  0
    8.6405   -9.9814    0.0000 C   0  0  0  0  0  0  0  0  0  0  0  0
    7.9260   -9.5689    0.0000 C   0  0  0  0  0  0  0  0  0  0  0  0
    7.2115   -9.9814    0.0000 C   0  0  0  0  0  0  0  0  0  0  0  0
    6.4970   -9.5689    0.0000 C   0  0  0  0  0  0  0  0  0  0  0  0
    5.7826   -9.9814    0.0000 C   0  0  0  0  0  0  0  0  0  0  0  0
    5.0681   -9.5689    0.0000 O   0  0  0  0  0  0  0  0  0  0  0  0
    4.3536   -9.9814    0.0000 S   0  0  0  0  0  0  0  0  0  0  0  0
    3.6392   -9.5689    0.0000 O   0  0  0  0  0  0  0  0  0  0  0  0
    2.9247   -9.9814    0.0000 C   0  0  0  0  0  0  0  0  0  0  0  0
    2.2102   -9.5689    0.0000 C   0  0  0  0  0  0  0  0  0  0  0  0
    1.4957   -9.9814    0.0000 C   0  0  0  0  0  0  0  0  0  0  0  0
    0.7813   -9.5689    0.0000 C   0  0  0  0  0  0  0  0  0  0  0  0
    4.3536  -10.8064    0.0000 O   0  0  0  0  0  0  0  0  0  0  0  0
  2  1  1  0  0  0  0
  3  2  1  0  0  0  0
  4  3  1  0  0  0  0
  5  4  1  0  0  0  0
  6  5  1  0  0  0  0
  7  6  1  0  0  0  0
  8  7  1  0  0  0  0
  9  8  1  0  0  0  0
 10  9  1  0  0  0  0
 11 10  1  0  0  0  0
 12 11  1  0  0  0  0
 13 12  1  0  0  0  0
 14 13  1  0  0  0  0
 15 14  1  0  0  0  0
 16 15  1  0  0  0  0
 17 16  1  0  0  0  0
 18 17  1  0  0  0  0
 19 18  1  0  0  0  0
 14 20  2  0  0  0  0
M  END
>  <cdx:fragmentId>
3

$$$$
