90851.cdx
  Mrv1902 05222410252D          

 51 54  0  0  0  0            999 V2000
   10.9375   -9.6237    0.0000 C   0  0  1  0  0  0  0  0  0  0  0  0
   10.2256   -9.2068    0.0000 O   0  0  0  0  0  0  0  0  0  0  0  0
    9.5086   -9.6149    0.0000 C   0  0  1  0  0  0  0  0  0  0  0  0
    9.5035  -10.4399    0.0000 C   0  0  2  0  0  0  0  0  0  0  0  0
   10.2155  -10.8568    0.0000 C   0  0  1  0  0  0  0  0  0  0  0  0
   10.9325  -10.4487    0.0000 C   0  0  1  0  0  0  0  0  0  0  0  0
   11.6444  -10.8655    0.0000 O   0  0  0  0  0  0  0  0  0  0  0  0
    8.7866  -10.8481    0.0000 O   0  0  0  0  0  0  0  0  0  0  0  0
    8.7967   -9.1981    0.0000 C   0  0  0  0  0  0  0  0  0  0  0  0
   10.2104  -11.6818    0.0000 O   0  0  0  0  0  0  0  0  0  0  0  0
    8.0772   -9.6018    0.0000 O   0  0  0  0  0  0  0  0  0  0  0  0
    7.3678   -9.1806    0.0000 C   0  0  0  0  0  0  0  0  0  0  0  0
    7.3779   -8.3557    0.0000 O   0  0  0  0  0  0  0  0  0  0  0  0
    6.6484   -9.5843    0.0000 C   0  0  0  0  0  0  0  0  0  0  0  0
    5.9390   -9.1631    0.0000 C   0  0  0  0  0  0  0  0  0  0  0  0
    5.2195   -9.5669    0.0000 C   0  0  0  0  0  0  0  0  0  0  0  0
    4.5154   -9.1370    0.0000 C   0  0  0  0  0  0  0  0  0  0  0  0
    3.7910   -9.5319    0.0000 C   0  0  0  0  0  0  0  0  0  0  0  0
    3.7910  -10.3567    0.0000 C   0  0  0  0  0  0  0  0  0  0  0  0
    4.5154  -10.7865    0.0000 C   0  0  0  0  0  0  0  0  0  0  0  0
    5.2195  -10.3916    0.0000 C   0  0  0  0  0  0  0  0  0  0  0  0
    3.0741  -10.7649    0.0000 O   0  0  0  0  0  0  0  0  0  0  0  0
    3.0816   -9.1107    0.0000 O   0  0  0  0  0  0  0  0  0  0  0  0
    2.3622   -9.5145    0.0000 C   0  0  0  0  0  0  0  0  0  0  0  0
   11.6545   -9.2156    0.0000 O   0  0  0  0  0  0  0  0  0  0  0  0
   11.6595   -8.3906    0.0000 C   0  0  1  0  0  0  0  0  0  0  0  0
   12.4401   -8.1235    0.0000 C   0  0  2  0  0  0  0  0  0  0  0  0
   12.4273   -7.2986    0.0000 C   0  0  1  0  0  0  0  0  0  0  0  0
   11.6417   -7.0471    0.0000 C   0  0  2  0  0  0  0  0  0  0  0  0
   11.1689   -7.7166    0.0000 O   0  0  0  0  0  0  0  0  0  0  0  0
   10.9451   -8.8031    0.0000 C   0  0  0  0  0  0  0  0  0  0  0  0
   10.2306   -8.3906    0.0000 O   0  0  0  0  0  0  0  0  0  0  0  0
   13.1150   -8.5980    0.0000 O   0  0  0  0  0  0  0  0  0  0  0  0
   13.0899   -6.8071    0.0000 O   0  0  0  0  0  0  0  0  0  0  0  0
   11.3797   -6.2648    0.0000 C   0  0  0  0  0  0  0  0  0  0  0  0
   10.5713   -6.1004    0.0000 O   0  0  0  0  0  0  0  0  0  0  0  0
   13.8634   -8.2508    0.0000 C   0  0  0  0  0  0  0  0  0  0  0  0
   14.5382   -8.7254    0.0000 C   0  0  0  0  0  0  0  0  0  0  0  0
   13.9369   -7.4291    0.0000 O   0  0  0  0  0  0  0  0  0  0  0  0
   15.2866   -8.3782    0.0000 C   0  0  0  0  0  0  0  0  0  0  0  0
   15.9615   -8.8527    0.0000 C   0  0  0  0  0  0  0  0  0  0  0  0
   15.8880   -9.6744    0.0000 C   0  0  0  0  0  0  0  0  0  0  0  0
   16.5628  -10.1490    0.0000 C   0  0  0  0  0  0  0  0  0  0  0  0
   17.3112   -9.8018    0.0000 C   0  0  0  0  0  0  0  0  0  0  0  0
   17.3847   -8.9800    0.0000 C   0  0  0  0  0  0  0  0  0  0  0  0
   16.7099   -8.5055    0.0000 C   0  0  0  0  0  0  0  0  0  0  0  0
   18.1331   -8.6329    0.0000 O   0  0  0  0  0  0  0  0  0  0  0  0
   17.9861  -10.2763    0.0000 O   0  0  0  0  0  0  0  0  0  0  0  0
   16.4893  -10.9707    0.0000 O   0  0  0  0  0  0  0  0  0  0  0  0
   17.1642  -11.4452    0.0000 C   0  0  0  0  0  0  0  0  0  0  0  0
   18.8080   -9.1074    0.0000 C   0  0  0  0  0  0  0  0  0  0  0  0
  1  2  1  0  0  0  0
  2  3  1  0  0  0  0
  3  4  1  0  0  0  0
  4  5  1  0  0  0  0
  5  6  1  0  0  0  0
  6  1  1  0  0  0  0
  6  7  1  6  0  0  0
  4  8  1  6  0  0  0
  3  9  1  1  0  0  0
  5 10  1  1  0  0  0
 11 12  1  0  0  0  0
 12 13  2  0  0  0  0
 12 14  1  0  0  0  0
  9 11  1  0  0  0  0
 14 15  2  0  0  0  0
 15 16  1  0  0  0  0
 16 17  2  0  0  0  0
 17 18  1  0  0  0  0
 18 19  2  0  0  0  0
 19 20  1  0  0  0  0
 20 21  2  0  0  0  0
 21 16  1  0  0  0  0
 19 22  1  0  0  0  0
 18 23  1  0  0  0  0
 23 24  1  0  0  0  0
  1 25  1  6  0  0  0
 26 25  1  6  0  0  0
 26 27  1  0  0  0  0
 27 28  1  0  0  0  0
 28 29  1  0  0  0  0
 29 30  1  0  0  0  0
 30 26  1  0  0  0  0
 26 31  1  1  0  0  0
 31 32  1  0  0  0  0
 27 33  1  6  0  0  0
 28 34  1  1  0  0  0
 29 35  1  6  0  0  0
 35 36  1  0  0  0  0
 33 37  1  0  0  0  0
 37 38  1  0  0  0  0
 37 39  2  0  0  0  0
 38 40  2  0  0  0  0
 40 41  1  0  0  0  0
 41 42  2  0  0  0  0
 42 43  1  0  0  0  0
 43 44  2  0  0  0  0
 44 45  1  0  0  0  0
 45 46  2  0  0  0  0
 46 41  1  0  0  0  0
 45 47  1  0  0  0  0
 44 48  1  0  0  0  0
 43 49  1  0  0  0  0
 49 50  1  0  0  0  0
 47 51  1  0  0  0  0
M  END
>  <cdx:fragmentId>
161

$$$$
