90859.cdx
  Mrv1902 05222410222D          

 23 24  0  0  0  0            999 V2000
    2.7481   -9.9539    0.0000 C   0  0  0  0  0  0  0  0  0  0  0  0
    2.7481  -10.7789    0.0000 C   0  0  0  0  0  0  0  0  0  0  0  0
    3.4625  -11.1914    0.0000 C   0  0  0  0  0  0  0  0  0  0  0  0
    4.1770  -10.7789    0.0000 C   0  0  0  0  0  0  0  0  0  0  0  0
    4.1770   -9.9539    0.0000 C   0  0  0  0  0  0  0  0  0  0  0  0
    3.4625   -9.5414    0.0000 C   0  0  0  0  0  0  0  0  0  0  0  0
    5.6059   -9.9539    0.0000 C   0  0  0  0  0  0  0  0  0  0  0  0
    4.8915   -9.5414    0.0000 C   0  0  0  0  0  0  0  0  0  0  0  0
    7.0349   -9.9539    0.0000 O   0  0  0  0  0  0  0  0  0  0  0  0
    6.3204   -9.5414    0.0000 C   0  0  0  0  0  0  0  0  0  0  0  0
    8.4638  -10.7789    0.0000 O   0  0  0  0  0  0  0  0  0  0  0  0
    8.4638   -9.9539    0.0000 C   0  0  0  0  0  0  0  0  0  0  0  0
    7.7494   -9.5414    0.0000 C   0  0  0  0  0  0  0  0  0  0  0  0
    7.7494   -8.7164    0.0000 C   0  0  0  0  0  0  0  0  0  0  0  0
    6.3204   -8.7164    0.0000 O   0  0  0  0  0  0  0  0  0  0  0  0
    9.1783   -9.5414    0.0000 C   0  0  0  0  0  0  0  0  0  0  0  0
    9.1783   -8.7164    0.0000 C   0  0  0  0  0  0  0  0  0  0  0  0
    8.4638   -8.3039    0.0000 C   0  0  0  0  0  0  0  0  0  0  0  0
    3.4625  -12.0164    0.0000 O   0  0  0  0  0  0  0  0  0  0  0  0
    9.1783  -11.1914    0.0000 C   0  0  0  0  0  0  0  0  0  0  0  0
    9.8928   -8.3039    0.0000 C   0  0  0  0  0  0  0  0  0  0  0  0
   10.6072   -8.7164    0.0000 O   0  0  0  0  0  0  0  0  0  0  0  0
    9.8928   -7.4789    0.0000 O   0  0  0  0  0  0  0  0  0  0  0  0
  1  2  2  0  0  0  0
  2  3  1  0  0  0  0
  3  4  2  0  0  0  0
  4  5  1  0  0  0  0
  5  6  2  0  0  0  0
  6  1  1  0  0  0  0
  7  8  1  0  0  0  0
  8  5  1  0  0  0  0
  9 10  1  0  0  0  0
 10  7  1  0  0  0  0
 11 12  1  0  0  0  0
 12 13  1  0  0  0  0
 13  9  1  0  0  0  0
 13 14  2  0  0  0  0
 15 10  2  0  0  0  0
 12 16  2  0  0  0  0
 16 17  1  0  0  0  0
 17 18  2  0  0  0  0
 18 14  1  0  0  0  0
  3 19  1  0  0  0  0
 11 20  1  0  0  0  0
 17 21  1  0  0  0  0
 21 22  1  0  0  0  0
 21 23  2  0  0  0  0
M  END
>  <cdx:fragmentId>
5

$$$$
