90850.cdx
  Mrv1902 05222410252D          

 19 19  0  0  0  0            999 V2000
    6.5543  -13.1368    0.0000 C   0  0  0  0  0  0  0  0  0  0  0  0
    6.3065  -13.9236    0.0000 C   0  0  0  0  0  0  0  0  0  0  0  0
    6.9783  -14.4025    0.0000 O   0  0  0  0  0  0  0  0  0  0  0  0
    7.6413  -13.9116    0.0000 C   0  0  0  0  0  0  0  0  0  0  0  0
    7.3793  -13.1293    0.0000 C   0  0  0  0  0  0  0  0  0  0  0  0
    5.5242  -14.1856    0.0000 O   0  0  0  0  0  0  0  0  0  0  0  0
    8.4282  -14.1595    0.0000 O   0  0  0  0  0  0  0  0  0  0  0  0
    8.0294   -4.5778    0.0000 C   0  0  0  0  0  0  0  0  0  0  0  0
    8.3849   -5.3223    0.0000 C   0  0  0  0  0  0  0  0  0  0  0  0
    7.9179   -6.0024    0.0000 C   0  0  0  0  0  0  0  0  0  0  0  0
    8.2734   -6.7469    0.0000 C   0  0  0  0  0  0  0  0  0  0  0  0
    7.8065   -7.4270    0.0000 C   0  0  0  0  0  0  0  0  0  0  0  0
    8.1620   -8.1714    0.0000 C   0  0  0  0  0  0  0  0  0  0  0  0
    7.6950   -8.8516    0.0000 C   0  0  0  0  0  0  0  0  0  0  0  0
    8.0505   -9.5960    0.0000 C   0  0  0  0  0  0  0  0  0  0  0  0
    7.5835  -10.2761    0.0000 C   0  0  0  0  0  0  0  0  0  0  0  0
    7.9390  -11.0206    0.0000 C   0  0  0  0  0  0  0  0  0  0  0  0
    7.4720  -11.7007    0.0000 C   0  0  0  0  0  0  0  0  0  0  0  0
    7.8275  -12.4452    0.0000 C   0  0  0  0  0  0  0  0  0  0  0  0
  1  2  1  0  0  0  0
  2  3  1  0  0  0  0
  3  4  1  0  0  0  0
  4  5  1  0  0  0  0
  5  1  1  0  0  0  0
  2  6  2  0  0  0  0
  4  7  2  0  0  0  0
  8  9  1  0  0  0  0
  9 10  1  0  0  0  0
 10 11  1  0  0  0  0
 11 12  1  0  0  0  0
 12 13  1  0  0  0  0
 13 14  1  0  0  0  0
 14 15  1  0  0  0  0
 15 16  1  0  0  0  0
 16 17  1  0  0  0  0
 17 18  2  0  0  0  0
 18 19  1  0  0  0  0
 19  5  1  0  0  0  0
M  END
>  <cdx:fragmentId>
22

$$$$
