90869.cdx
  Mrv1902 05222410242D          

 52 57  0  0  0  0            999 V2000
    5.0306   -6.6264    0.0000 C   0  0  0  0  0  0  0  0  0  0  0  0
    5.0306   -7.4514    0.0000 C   0  0  0  0  0  0  0  0  0  0  0  0
    5.7450   -7.8639    0.0000 C   0  0  0  0  0  0  0  0  0  0  0  0
    6.4595   -7.4514    0.0000 C   0  0  0  0  0  0  0  0  0  0  0  0
    6.4595   -6.6264    0.0000 C   0  0  0  0  0  0  0  0  0  0  0  0
    5.7450   -6.2139    0.0000 C   0  0  0  0  0  0  0  0  0  0  0  0
    7.1740   -7.8639    0.0000 C   0  0  0  0  0  0  0  0  0  0  0  0
    7.8884   -7.4514    0.0000 C   0  0  0  0  0  0  0  0  0  0  0  0
    7.8884   -6.6264    0.0000 C   0  0  0  0  0  0  0  0  0  0  0  0
    7.1740   -6.2139    0.0000 O   0  0  0  0  0  0  0  0  0  0  0  0
    8.6029   -7.8639    0.0000 C   0  0  0  0  0  0  0  0  0  0  0  0
    9.3174   -7.4514    0.0000 C   0  0  0  0  0  0  0  0  0  0  0  0
    8.6029   -8.6889    0.0000 C   0  0  0  0  0  0  0  0  0  0  0  0
    9.3174   -9.1014    0.0000 C   0  0  0  0  0  0  0  0  0  0  0  0
   10.0319   -8.6889    0.0000 C   0  0  0  0  0  0  0  0  0  0  0  0
   10.0319   -7.8639    0.0000 C   0  0  0  0  0  0  0  0  0  0  0  0
    5.7450   -8.6889    0.0000 O   0  0  0  0  0  0  0  0  0  0  0  0
    7.1740   -8.6889    0.0000 O   0  0  0  0  0  0  0  0  0  0  0  0
    4.3161   -6.2139    0.0000 O   0  0  0  0  0  0  0  0  0  0  0  0
   10.7463   -9.1014    0.0000 O   0  0  0  0  0  0  0  0  0  0  0  0
   10.7463   -9.9264    0.0000 C   0  0  2  0  0  0  0  0  0  0  0  0
   10.0319  -10.3389    0.0000 O   0  0  0  0  0  0  0  0  0  0  0  0
   10.0319  -11.1639    0.0000 C   0  0  1  0  0  0  0  0  0  0  0  0
   10.7463  -11.5764    0.0000 C   0  0  2  0  0  0  0  0  0  0  0  0
   11.4608  -11.1639    0.0000 C   0  0  1  0  0  0  0  0  0  0  0  0
   11.4608  -10.3389    0.0000 C   0  0  1  0  0  0  0  0  0  0  0  0
    9.3174  -11.5764    0.0000 C   0  0  0  0  0  0  0  0  0  0  0  0
   12.1753  -11.5764    0.0000 O   0  0  0  0  0  0  0  0  0  0  0  0
    9.3174  -12.4014    0.0000 O   0  0  0  0  0  0  0  0  0  0  0  0
   12.1753   -9.9264    0.0000 O   0  0  0  0  0  0  0  0  0  0  0  0
   10.7463  -12.4014    0.0000 O   0  0  0  0  0  0  0  0  0  0  0  0
   12.1753   -9.1014    0.0000 C   0  0  1  0  0  0  0  0  0  0  0  0
   12.8897   -8.6889    0.0000 C   0  0  1  0  0  0  0  0  0  0  0  0
   12.8897   -7.8639    0.0000 C   0  0  1  0  0  0  0  0  0  0  0  0
   12.1753   -7.4514    0.0000 C   0  0  2  0  0  0  0  0  0  0  0  0
   11.4608   -7.8639    0.0000 C   0  0  1  0  0  0  0  0  0  0  0  0
   11.4608   -8.6889    0.0000 O   0  0  0  0  0  0  0  0  0  0  0  0
   12.1753   -6.6264    0.0000 O   0  0  0  0  0  0  0  0  0  0  0  0
   10.7463   -7.4514    0.0000 C   0  0  0  0  0  0  0  0  0  0  0  0
   13.6042   -7.4514    0.0000 O   0  0  0  0  0  0  0  0  0  0  0  0
   13.6042   -9.1014    0.0000 O   0  0  0  0  0  0  0  0  0  0  0  0
    3.6016   -6.6264    0.0000 C   0  0  2  0  0  0  0  0  0  0  0  0
    2.8871   -6.2139    0.0000 O   0  0  0  0  0  0  0  0  0  0  0  0
    2.1727   -6.6264    0.0000 C   0  0  1  0  0  0  0  0  0  0  0  0
    2.1727   -7.4514    0.0000 C   0  0  2  0  0  0  0  0  0  0  0  0
    2.8871   -7.8639    0.0000 C   0  0  1  0  0  0  0  0  0  0  0  0
    3.6016   -7.4514    0.0000 C   0  0  1  0  0  0  0  0  0  0  0  0
    1.4582   -6.2139    0.0000 C   0  0  0  0  0  0  0  0  0  0  0  0
    2.8871   -8.6889    0.0000 O   0  0  0  0  0  0  0  0  0  0  0  0
    1.4582   -7.8639    0.0000 O   0  0  0  0  0  0  0  0  0  0  0  0
    4.3161   -7.8639    0.0000 O   0  0  0  0  0  0  0  0  0  0  0  0
    0.7437   -6.6264    0.0000 O   0  0  0  0  0  0  0  0  0  0  0  0
  1  2  1  0  0  0  0
  2  3  2  0  0  0  0
  3  4  1  0  0  0  0
  4  5  2  0  0  0  0
  5  6  1  0  0  0  0
  6  1  2  0  0  0  0
  4  7  1  0  0  0  0
  7  8  1  0  0  0  0
  8  9  2  0  0  0  0
  9 10  1  0  0  0  0
 10  5  1  0  0  0  0
  8 11  1  0  0  0  0
 11 12  1  0  0  0  0
 11 13  2  0  0  0  0
 13 14  1  0  0  0  0
 14 15  2  0  0  0  0
 15 16  1  0  0  0  0
 16 12  2  0  0  0  0
  3 17  1  0  0  0  0
 18  7  2  0  0  0  0
  1 19  1  0  0  0  0
 15 20  1  0  0  0  0
 21 20  1  1  0  0  0
 21 22  1  0  0  0  0
 22 23  1  0  0  0  0
 23 24  1  0  0  0  0
 24 25  1  0  0  0  0
 25 26  1  0  0  0  0
 26 21  1  0  0  0  0
 23 27  1  1  0  0  0
 25 28  1  1  0  0  0
 27 29  1  0  0  0  0
 26 30  1  6  0  0  0
 24 31  1  6  0  0  0
 32 30  1  6  0  0  0
 32 33  1  0  0  0  0
 33 34  1  0  0  0  0
 34 35  1  0  0  0  0
 35 36  1  0  0  0  0
 36 37  1  0  0  0  0
 37 32  1  0  0  0  0
 35 38  1  6  0  0  0
 36 39  1  1  0  0  0
 34 40  1  1  0  0  0
 33 41  1  1  0  0  0
 42 19  1  1  0  0  0
 42 43  1  0  0  0  0
 43 44  1  0  0  0  0
 44 45  1  0  0  0  0
 45 46  1  0  0  0  0
 46 47  1  0  0  0  0
 47 42  1  0  0  0  0
 44 48  1  1  0  0  0
 46 49  1  1  0  0  0
 45 50  1  6  0  0  0
 47 51  1  6  0  0  0
 48 52  1  0  0  0  0
M  END
>  <cdx:fragmentId>
5

$$$$
